#------------------------------------------------------------------------------
#$Date: 2018-10-31 01:27:16 +0200 (Wed, 31 Oct 2018) $
#$Revision: 211710 $
#$URL: file:///home/coder/svn-repositories/cod/cif/1/55/01/1550162.cif $
#------------------------------------------------------------------------------
#
# This file is available in the Crystallography Open Database (COD),
# http://www.crystallography.net/
#
# All data on this site have been placed in the public domain by the
# contributors.
#
data_1550162
loop_
_publ_author_name
'Lu, Xing'
'Shen, Wangqiang'
'Bao, Lipiao'
'Hu, Shuaifeng'
'Yang, Le'
'Jin, Peng'
'Xie, Yun-Peng'
'Akasaka, Takeshi'
_publ_section_title
;
 Crystallographic Characterization of Lu2C2n (2n = 76-90): Cluster
 Selection by Cage Size
;
_journal_name_full               'Chemical Science'
_journal_paper_doi               10.1039/C8SC03886D
_journal_year                    2019
_chemical_formula_moiety         'Lu2 C88, C36 H44 N4 Ni, 2(C6 H6)'
_chemical_formula_sum            'C136 H56 Lu2 N4 Ni S0'
_chemical_formula_weight         2154.50
_chemical_name_common            'Lu2@C1-C88 Ni(OEP)'
_chemical_name_systematic        'Lu2@C1-C88 Ni(OEP)'
_space_group_crystal_system      monoclinic
_space_group_IT_number           12
_space_group_name_Hall           '-C 2y'
_space_group_name_H-M_alt        'C 1 2/m 1'
_symmetry_space_group_name_Hall  '-C 2y'
_symmetry_space_group_name_H-M   'C 1 2/m 1'
_atom_sites_solution_hydrogens   geom
_audit_creation_method           SHELXL-2014/7
_audit_update_record
;
2018-04-13 deposited with the CCDC.
2018-10-29 downloaded from the CCDC.
;
_cell_angle_alpha                90.000(5)
_cell_angle_beta                 90.466(5)
_cell_angle_gamma                90.000(5)
_cell_formula_units_Z            4
_cell_length_a                   24.121(5)
_cell_length_b                   18.190(5)
_cell_length_c                   18.497(5)
_cell_measurement_reflns_used    9904
_cell_measurement_temperature    100(2)
_cell_measurement_theta_max      25.412
_cell_measurement_theta_min      2.975
_cell_volume                     8115(4)
_computing_structure_refinement  'SHELXL-2014/7 (Sheldrick, 2014)'
_diffrn_ambient_temperature      100(2)
_diffrn_measured_fraction_theta_full 0.998
_diffrn_measured_fraction_theta_max 0.993
_diffrn_measurement_device_type  'CCD MX300-HE'
_diffrn_measurement_method       'phi scans'
_diffrn_radiation_type           synchrotron
_diffrn_radiation_wavelength     0.6525
_diffrn_reflns_av_R_equivalents  0.0319
_diffrn_reflns_av_unetI/netI     0.0204
_diffrn_reflns_Laue_measured_fraction_full 0.998
_diffrn_reflns_Laue_measured_fraction_max 0.993
_diffrn_reflns_limit_h_max       29
_diffrn_reflns_limit_h_min       -28
_diffrn_reflns_limit_k_max       21
_diffrn_reflns_limit_k_min       -21
_diffrn_reflns_limit_l_max       22
_diffrn_reflns_limit_l_min       -22
_diffrn_reflns_number            53464
_diffrn_reflns_point_group_measured_fraction_full 0.998
_diffrn_reflns_point_group_measured_fraction_max 0.993
_diffrn_reflns_theta_full        23.048
_diffrn_reflns_theta_max         23.235
_diffrn_reflns_theta_min         2.730
_diffrn_source                   'SSRF, Beamline BL17B'
_exptl_absorpt_coefficient_mu    2.203
_exptl_absorpt_correction_T_max  0.7452
_exptl_absorpt_correction_T_min  0.5739
_exptl_absorpt_correction_type   multi-scan
_exptl_absorpt_process_details   SADABS
_exptl_crystal_colour            Black
_exptl_crystal_density_diffrn    1.763
_exptl_crystal_description       Block
_exptl_crystal_F_000             4280
_exptl_crystal_size_max          0.120
_exptl_crystal_size_mid          0.080
_exptl_crystal_size_min          0.050
_refine_diff_density_max         1.079
_refine_diff_density_min         -1.056
_refine_diff_density_rms         0.095
_refine_ls_extinction_method     none
_refine_ls_goodness_of_fit_ref   1.042
_refine_ls_hydrogen_treatment    constr
_refine_ls_matrix_type           full
_refine_ls_number_parameters     914
_refine_ls_number_reflns         7719
_refine_ls_number_restraints     1029
_refine_ls_restrained_S_all      1.067
_refine_ls_R_factor_all          0.0740
_refine_ls_R_factor_gt           0.0586
_refine_ls_shift/su_max          0.001
_refine_ls_shift/su_mean         0.000
_refine_ls_structure_factor_coef Fsqd
_refine_ls_weighting_details
'w=1/[\s^2^(Fo^2^)+(0.0598P)^2^+64.2135P] where P=(Fo^2^+2Fc^2^)/3'
_refine_ls_weighting_scheme      calc
_refine_ls_wR_factor_gt          0.1370
_refine_ls_wR_factor_ref         0.1530
_reflns_Friedel_coverage         0.000
_reflns_number_gt                6378
_reflns_number_total             7719
_reflns_threshold_expression     'I > 2\s(I)'
_cod_data_source_file            c8sc03886d2.cif
_cod_data_source_block           Lu2@C1-C88
_cod_depositor_comments
;
The following automatic conversions were performed:

'_exptl_absorpt_correction_type' value 'Multi-scan' changed to
'multi-scan' according to
/home/data/users/saulius/crontab/automatic-downloads/rss-feeds/RSC/lib/dictionaries/cif_core.dic
dictionary named 'cif_core.dic' version 2.4.2 from 2011-04-26.

Automatic conversion script
Id: cif_fix_values 4973 2017-02-22 13:04:09Z antanas 
;
_cod_database_code               1550162
_shelx_shelxl_version_number     2014/7
_shelx_space_group_comment
;
The symmetry employed for this shelxl refinement is uniquely defined
by the following loop, which should always be used as a source of
symmetry information in preference to the above space-group names.
They are only intended as comments.
;
_shelx_estimated_absorpt_t_min   0.809
_shelx_estimated_absorpt_t_max   0.896
_shelx_res_file
;

    11.res created by SHELXL-2014/7


TITL                                      11 in C2/m
CELL   0.65250     24.121   18.190   18.497   90.000   90.466   90.000
ZERR         4      0.005    0.005    0.005    0.005    0.005    0.005
LATT  7
SYMM -X,Y,-Z
SFAC    C   H   N   S   NI  LU
DISP $C  0.00267  0.00139 9.80188!source kissel
DISP $H -0.00002  0.00000 0.620402!source kissel
DISP $N  0.00529  0.00282 16.2901!source kissel
DISP $S  0.10983  0.10565 421.19!source kissel
DISP $Ni  0.34362  0.96224 3663.38!source kissel
DISP $Lu -0.29216  5.14255 19794.9!source kissel
UNIT 544 224 16 0 4 8
LIST 6 ! automatically inserted. Change 6 to 4 for CHECKCIF!!
MERG      2
acta
L.S.       10
SIMU 0.025 C1 > C88
SIMU 0.015 C84 > C88
SIMU 0.020 LU1 > LU16
FMAP      2
PLAN     10
ABIN
WGHT    0.059800   64.213501
FVAR       0.10703
PART 1
LU1   6    0.170222    0.000000    0.351603    10.26323    0.01760    0.05740 =
         0.04962    0.00000    0.00505    0.00000
LU2   6    0.301847    0.089525    0.351061    10.26907    0.03148    0.02871 =
         0.04886   -0.00880   -0.01439   -0.00565
LU3   6    0.255232   -0.024039    0.192686    10.06624    0.08032    0.07582 =
         0.03642   -0.00140   -0.01955   -0.00895
LU4   6    0.182583    0.063757    0.355256    10.06497    0.04869    0.08832 =
         0.10326    0.02291    0.02920    0.03365
LU5   6    0.274290    0.088722    0.377524    10.05961    0.10181    0.12597 =
         0.08297   -0.05808    0.02657   -0.06099
LU6   6    0.198596    0.093161    0.290940    10.06329    0.07875    0.08326 =
         0.15170    0.05094   -0.00116    0.03628
LU7   6    0.309406    0.000000    0.379611    10.02249    0.09030    0.17437 =
         0.09251    0.00000   -0.05783    0.00000
LU8   6    0.338978    0.000000    0.294115    10.03292    0.03525    0.33958 =
         0.15094    0.00000   -0.00322    0.00000
LU9   6    0.235554    0.000000    0.424784    10.01757    0.11888    0.14533 =
         0.03957    0.00000    0.00536    0.00000
LU10  6    0.294019    0.000000    0.200771    10.01235    0.09256    0.12028 =
         0.03020    0.00000    0.01173    0.00000
LU11  6    0.229331   -0.100108    0.252414    10.02035    0.10545    0.10430 =
         0.07486   -0.04106   -0.02341   -0.00466
LU12  6    0.273356   -0.055651    0.208619    10.03419    0.11099    0.11551 =
         0.04899   -0.04045   -0.00858    0.03517
LU13  6    0.206049   -0.035818    0.405998    10.02860    0.11057    0.09376 =
         0.05591   -0.00289    0.05189   -0.03542
LU14  6    0.295417    0.096303    0.259479    10.01511    0.11012    0.05728 =
         0.13133    0.01816    0.05015   -0.03604
LU15  6    0.253539    0.044550    0.414517    10.01749    0.10348    0.10246 =
         0.04568   -0.02759    0.01849   -0.02916
LU16  6    0.223546   -0.039858    0.225947    10.01252    0.09848    0.10638 =
         0.02902   -0.02855   -0.01688   -0.00065
PART 0
PART -1 10.5
AFIX   6
SADI 0.03 C21 C42 C22 C23 C7 C23 C41 C42 C42 C43 C9 C10 C43 C44
SADI 0.03 C23 C24 C24 C46 C35 C58 C70 C71 C21 C42 C4 C18 C1 C2
C1    1    0.094455   -0.067518    0.266183    10.50000    0.05988    0.06182 =
         0.15694   -0.01301   -0.06372   -0.01726
C2    1    0.076382   -0.043362    0.342560    10.50000    0.02677    0.12556 =
         0.11449   -0.02880   -0.00955   -0.02014
C3    1    0.077661    0.030890    0.361117    10.50000    0.04720    0.15917 =
         0.07583   -0.01342    0.00794    0.01308
C4    1    0.087907    0.055287    0.285620    10.50000    0.02222    0.15466 =
         0.05713   -0.01598    0.01183    0.02150
C5    1    0.100098    0.009534    0.234140    10.50000    0.04423    0.10406 =
         0.11088   -0.03093   -0.03785    0.01462
C6    1    0.154930   -0.138619    0.185149    10.50000    0.09692    0.07462 =
         0.13338   -0.03635   -0.07448    0.01537
C7    1    0.154619   -0.060237    0.159197    10.50000    0.10500    0.08199 =
         0.11124   -0.04954   -0.06860    0.00368
C8    1    0.160286    0.076123    0.148058    10.50000    0.07615    0.05943 =
         0.04673    0.01215   -0.03281   -0.00936
C9    1    0.117706   -0.126197    0.254226    10.50000    0.05014    0.09272 =
         0.14683   -0.03255   -0.04041   -0.01679
C10   1    0.126379   -0.178916    0.319215    10.50000    0.02258    0.03617 =
         0.11881    0.02225   -0.01528   -0.01278
C11   1    0.124612   -0.157776    0.389768    10.50000    0.05658    0.07748 =
         0.11591    0.03655   -0.00486   -0.03485
C12   1    0.096063   -0.086299    0.401992    10.50000    0.03290    0.09819 =
         0.12402    0.01852    0.01911    0.00391
C13   1    0.125321   -0.062644    0.465664    10.50000    0.06194    0.16606 =
         0.06616    0.02157    0.02304   -0.02652
C14   1    0.120759    0.025562    0.472727    10.50000    0.05794    0.14167 =
         0.07247   -0.00948    0.04071    0.00831
C15   1    0.097622    0.061682    0.421082    10.50000    0.05904    0.18566 =
         0.07616   -0.01812    0.01792    0.04811
C16   1    0.116842    0.125436    0.406588    10.50000    0.08697    0.15795 =
         0.11996   -0.04125    0.01275    0.07856
C17   1    0.111856    0.144994    0.337296    10.50000    0.09821    0.14991 =
         0.10801   -0.03033   -0.02192    0.07392
C18   1    0.112733    0.129193    0.263490    10.50000    0.06017    0.11461 =
         0.09162   -0.02600   -0.01827    0.05935
C19   1    0.146224    0.136522    0.204845    10.50000    0.04929    0.07474 =
         0.04918    0.01932   -0.01432    0.01496
C20   1    0.134879   -0.003407    0.175006    10.50000    0.05218    0.07063 =
         0.07131   -0.02508   -0.04417    0.00140
C21   1    0.205009    0.056397    0.109272    10.50000    0.12017    0.06768 =
         0.05738    0.02398   -0.04060    0.00496
C22   1    0.224130   -0.009147    0.087172    10.50000    0.09482    0.08946 =
         0.03749   -0.01277   -0.01633    0.00278
C23   1    0.200869   -0.082440    0.110360    10.50000    0.09954    0.09751 =
         0.07889   -0.07251   -0.04317    0.04744
C24   1    0.248236   -0.137336    0.109299    10.50000    0.14308    0.10074 =
         0.05532   -0.05690    0.01576    0.02279
C25   1    0.242233   -0.182232    0.150288    10.50000    0.12199    0.06992 =
         0.05963   -0.02065   -0.00256    0.00826
C26   1    0.190749   -0.191608    0.188478    10.50000    0.06575    0.06520 =
         0.08547   -0.02743   -0.02428    0.01097
C27   1    0.205176   -0.237739    0.248992    10.50000    0.07642    0.03712 =
         0.11984   -0.00402   -0.02900    0.00896
C28   1    0.173176   -0.229979    0.318082    10.50000    0.04276    0.03753 =
         0.11345    0.02522    0.00394   -0.01206
C29   1    0.202059   -0.233157    0.373929    10.50000    0.07436    0.03598 =
         0.13408    0.03591   -0.02797   -0.02155
C30   1    0.170149   -0.181930    0.429169    10.50000    0.05177    0.06488 =
         0.11263    0.05353    0.01613   -0.01420
C31   1    0.205682   -0.137890    0.480194    10.50000    0.07966    0.10649 =
         0.09834    0.07112    0.00992   -0.02278
C32   1    0.177707   -0.072185    0.502764    10.50000    0.09707    0.13789 =
         0.05068    0.02624    0.01887   -0.03119
C33   1    0.206347   -0.016458    0.523746    10.50000    0.09925    0.15352 =
         0.03867   -0.02002    0.01527   -0.01482
C34   1    0.168504    0.041825    0.510841    10.50000    0.07951    0.15447 =
         0.05618   -0.02285    0.02841    0.03161
C35   1    0.185391    0.119989    0.491459    10.50000    0.13203    0.15247 =
         0.09270   -0.04430    0.01630    0.04836
C36   1    0.162540    0.155329    0.449170    10.50000    0.12816    0.14208 =
         0.07838   -0.05294   -0.00877    0.07087
C37   1    0.195285    0.208451    0.406526    10.50000    0.13744    0.09699 =
         0.10209   -0.05836    0.00296    0.04375
C38   1    0.152426    0.200453    0.332904    10.50000    0.13181    0.09569 =
         0.13951   -0.02909   -0.01082    0.06257
C39   1    0.193921    0.227450    0.276352    10.50000    0.14229    0.05144 =
         0.14007   -0.00005   -0.00119    0.05467
C40   1    0.179569    0.193929    0.218991    10.50000    0.12163    0.06530 =
         0.12373    0.02968   -0.04696    0.03501
C41   1    0.235502    0.190334    0.167628    10.50000    0.12461    0.07067 =
         0.11975    0.06908   -0.02444   -0.00122
C42   1    0.243599    0.121783    0.119809    10.50000    0.13995    0.07953 =
         0.07612    0.06758   -0.02699   -0.03790
C43   1    0.302049    0.108150    0.102278    10.50000    0.09564    0.10121 =
         0.05009    0.04637   -0.00220   -0.04782
C44   1    0.322338    0.027732    0.091044    10.50000    0.09944    0.10048 =
         0.03959    0.00607    0.02344   -0.01053
C45   1    0.280367   -0.028533    0.077702    10.50000    0.11186    0.11673 =
         0.03109   -0.01692   -0.00081    0.01742
C46   1    0.292930   -0.086320    0.098941    10.50000    0.14548    0.10599 =
         0.05301   -0.03451    0.02671    0.01284
C47   1    0.337024   -0.119802    0.142503    10.50000    0.12345    0.09817 =
         0.06830   -0.01257    0.03443    0.03108
C48   1    0.331916   -0.174594    0.183016    10.50000    0.12561    0.07592 =
         0.09540   -0.01417    0.05313    0.03025
C49   1    0.285050   -0.212865    0.188648    10.50000    0.09909    0.05427 =
         0.08946   -0.03242    0.00975    0.01329
C50   1    0.260789   -0.248633    0.252410    10.50000    0.08455    0.03021 =
         0.09292   -0.00625    0.00919    0.00312
C51   1    0.290453   -0.245902    0.313088    10.50000    0.08430    0.03824 =
         0.11217   -0.00938   -0.01822    0.01543
C52   1    0.256005   -0.237759    0.381086    10.50000    0.07527    0.03300 =
         0.10985    0.03174    0.01613   -0.00736
C53   1    0.288791   -0.191322    0.428331    10.50000    0.07264    0.04817 =
         0.09239    0.03850   -0.03297    0.00563
C54   1    0.260804   -0.136682    0.478236    10.50000    0.08093    0.07466 =
         0.09189    0.04798   -0.02346    0.01270
C55   1    0.294563   -0.074537    0.490391    10.50000    0.08122    0.10631 =
         0.05577    0.01619   -0.02057   -0.00594
C56   1    0.264417   -0.010258    0.519884    10.50000    0.11217    0.14014 =
         0.04329   -0.01028   -0.01253    0.00913
C57   1    0.285769    0.056017    0.517525    10.50000    0.11644    0.15900 =
         0.04529   -0.02061   -0.02262    0.00988
C58   1    0.243796    0.111655    0.511266    10.50000    0.15276    0.15509 =
         0.05157   -0.04457   -0.00391    0.05228
C59   1    0.280331    0.173089    0.465045    10.50000    0.11846    0.09281 =
         0.06855   -0.05796   -0.01928    0.00444
C60   1    0.252415    0.213840    0.411915    10.50000    0.14663    0.07174 =
         0.10681   -0.05676   -0.00544    0.01207
C61   1    0.287271    0.237384    0.342591    10.50000    0.13509    0.03792 =
         0.10902   -0.03992   -0.00251   -0.01515
C62   1    0.254041    0.242910    0.284546    10.50000    0.14684    0.03320 =
         0.15093    0.00088   -0.02712    0.00747
C63   1    0.282826    0.220900    0.212389    10.50000    0.12129    0.03151 =
         0.11931    0.03455   -0.00091    0.00033
C64   1    0.335846    0.187952    0.203230    10.50000    0.07894    0.04957 =
         0.07219    0.01981   -0.00332   -0.01342
C65   1    0.349933    0.132137    0.151455    10.50000    0.06948    0.08502 =
         0.08118    0.04023    0.03003   -0.02170
C66   1    0.385368    0.078561    0.166857    10.50000    0.06769    0.09053 =
         0.07735    0.03071    0.02093   -0.01350
C67   1    0.370420    0.013080    0.129212    10.50000    0.08409    0.10252 =
         0.06370    0.00129    0.04242   -0.01087
C68   1    0.380776   -0.059604    0.160641    10.50000    0.09002    0.09446 =
         0.07223    0.01438    0.04925    0.01886
C69   1    0.409920   -0.073959    0.237063    10.50000    0.07412    0.08771 =
         0.09647    0.01155    0.03066    0.05760
C70   1    0.394384   -0.135529    0.279040    10.50000    0.08753    0.09040 =
         0.11638    0.00063    0.02296    0.05795
C71   1    0.355100   -0.191236    0.254762    10.50000    0.11994    0.08349 =
         0.12182   -0.02263    0.02984    0.05466
C72   1    0.342900   -0.210323    0.317056    10.50000    0.08722    0.05467 =
         0.11525   -0.00562    0.02549    0.04514
C73   1    0.338213   -0.179796    0.390824    10.50000    0.05398    0.06356 =
         0.08417    0.01251   -0.03373    0.02391
C74   1    0.370235   -0.112368    0.403406    10.50000    0.04171    0.07698 =
         0.07554    0.00484   -0.02347    0.02799
C75   1    0.347570   -0.062654    0.455303    10.50000    0.06632    0.10196 =
         0.05015   -0.01883   -0.02589    0.00580
C76   1    0.368803    0.016880    0.448553    10.50000    0.06676    0.10867 =
         0.06201   -0.00481   -0.02825   -0.00041
C77   1    0.335498    0.072852    0.485687    10.50000    0.08600    0.15612 =
         0.04919   -0.02265   -0.02756    0.00689
C78   1    0.335323    0.147066    0.455285    10.50000    0.09331    0.08916 =
         0.06556   -0.03636   -0.02930    0.00231
C79   1    0.368182    0.167961    0.395457    10.50000    0.07618    0.06700 =
         0.08313   -0.00985   -0.02181   -0.02537
C80   1    0.337679    0.211457    0.340141    10.50000    0.09519    0.03115 =
         0.08939   -0.00823   -0.01765   -0.00610
C81   1    0.368929    0.179225    0.269283    10.50000    0.03841    0.03758 =
         0.06760    0.01948   -0.00728   -0.00586
C82   1    0.403019    0.119147    0.281628    10.50000    0.03229    0.06043 =
         0.07660    0.01614   -0.00100   -0.00303
C83   1    0.411912    0.059341    0.222629    10.50000    0.05002    0.09317 =
         0.07388    0.02568    0.02021    0.00940
C84   1    0.423345   -0.008580    0.262138    10.50000    0.05552    0.08451 =
         0.08365    0.00881    0.01010    0.03467
C85   1    0.420597   -0.015564    0.337673    10.50000    0.04032    0.08211 =
         0.09360    0.02325   -0.00337    0.02539
C86   1    0.401582   -0.088593    0.345929    10.50000    0.04699    0.08530 =
         0.10396    0.02562   -0.02226    0.04224
C87   1    0.402431    0.036632    0.390775    10.50000    0.04187    0.08362 =
         0.08515   -0.00723   -0.01671   -0.00333
C88   1    0.403611    0.113596    0.363764    10.50000    0.04038    0.06734 =
         0.09326   -0.01233   -0.02758   -0.02963
PART 0
AFIX   0
PART 2
NI1A  5    0.032324    0.000000    0.085417    10.50000    0.01634    0.02059 =
         0.02409    0.00000    0.00076    0.00000
C1A   1   -0.101876   -0.089414    0.314958    11.00000    0.03167    0.03647 =
         0.03972    0.00110    0.01361   -0.00115
AFIX  23
H1AA  2   -0.118246   -0.129251    0.287225    11.00000   -1.20000
H1AB  2   -0.131690   -0.063714    0.339132    11.00000   -1.20000
AFIX   0
N2A   3    0.083685    0.000000    0.003525    10.50000    0.01745    0.02316 =
         0.02757    0.00000   -0.00032    0.00000
C2A   1   -0.074033   -0.037256    0.263970    11.00000    0.02295    0.03304 =
         0.03061    0.00114    0.00280   -0.00100
N3A   3    0.033852   -0.107886    0.086572    11.00000    0.01800    0.02328 =
         0.02530   -0.00011   -0.00147    0.00019
C3A   1   -0.027839   -0.132321    0.188242    11.00000    0.02259    0.02448 =
         0.02872    0.00501    0.00034   -0.00312
AFIX  43
H3A   2   -0.044629   -0.168586    0.215933    11.00000   -1.20000
AFIX   0
C4A   1    0.006716   -0.154325    0.133461    11.00000    0.02052    0.02322 =
         0.02741    0.00148   -0.00233   -0.00203
N4A   3   -0.017638    0.000000    0.168670    10.50000    0.01922    0.02338 =
         0.02596    0.00000   -0.00204    0.00000
C5A   1    0.019195   -0.230389    0.118036    11.00000    0.02250    0.02462 =
         0.03320    0.00113   -0.00352   -0.00210
C6A   1   -0.001305   -0.294799    0.160705    11.00000    0.03651    0.02075 =
         0.04027    0.00085    0.00395   -0.00215
AFIX  23
H6AA  2   -0.000046   -0.338453    0.130645    11.00000   -1.20000
H6AB  2   -0.039664   -0.286362    0.173682    11.00000   -1.20000
AFIX   0
C7A   1    0.032623   -0.308325    0.229339    11.00000    0.05505    0.04764 =
         0.05231    0.01916   -0.00536   -0.00821
AFIX 137
H7AA  2    0.070227   -0.319449    0.216719    11.00000   -1.50000
H7AB  2    0.017089   -0.348938    0.255408    11.00000   -1.50000
H7AC  2    0.031914   -0.265103    0.259100    11.00000   -1.50000
AFIX   0
C8A   1    0.053480   -0.230388    0.060008    11.00000    0.02287    0.02402 =
         0.03122    0.00132   -0.00273   -0.00006
C9A   1    0.079402   -0.294744    0.022967    11.00000    0.03508    0.02309 =
         0.04009    0.00007    0.00310    0.00164
AFIX  23
H9AA  2    0.081049   -0.284964   -0.028522    11.00000   -1.20000
H9AB  2    0.056247   -0.337726    0.029915    11.00000   -1.20000
AFIX   0
C10A  1    0.137551   -0.311148    0.051103    11.00000    0.05214    0.06430 =
         0.04963   -0.01269   -0.00327    0.03183
AFIX 137
H10A  2    0.151195   -0.355066    0.028624    11.00000   -1.50000
H10B  2    0.136530   -0.317971    0.102540    11.00000   -1.50000
H10C  2    0.161614   -0.270758    0.039898    11.00000   -1.50000
AFIX   0
C11A  1    0.062317   -0.154084    0.041726    11.00000    0.01752    0.02341 =
         0.02601   -0.00066   -0.00433    0.00015
C12A  1    0.095738   -0.131748   -0.014121    11.00000    0.02066    0.02596 =
         0.02719   -0.00384   -0.00074    0.00157
AFIX  43
H12A  2    0.112159   -0.167929   -0.042292    11.00000   -1.20000
AFIX   0
C13A  1    0.106446   -0.059766   -0.031009    11.00000    0.01834    0.02489 =
         0.02205   -0.00292   -0.00196   -0.00109
C14A  1    0.143761   -0.037380   -0.087402    11.00000    0.01902    0.03139 =
         0.02577   -0.00053    0.00052    0.00251
C15A  1   -0.039144   -0.059925    0.204673    11.00000    0.01772    0.02912 =
         0.02387   -0.00034    0.00300   -0.00031
C16A  1    0.176897   -0.088727   -0.133607    11.00000    0.02807    0.03130 =
         0.03014   -0.00296    0.00670    0.00255
AFIX  23
H16A  2    0.185863   -0.064191   -0.178581    11.00000   -1.20000
H16B  2    0.154429   -0.131399   -0.145276    11.00000   -1.20000
AFIX   0
C17A  1    0.230678   -0.114276   -0.096943    11.00000    0.03443    0.04959 =
         0.06115   -0.01176   -0.00141    0.01433
AFIX 137
H17A  2    0.250579   -0.145935   -0.129150    11.00000   -1.50000
H17B  2    0.222037   -0.140606   -0.053489    11.00000   -1.50000
H17C  2    0.253138   -0.072304   -0.085203    11.00000   -1.50000
AFIX   0
C18A  1   -0.063024   -0.121785    0.371851    11.00000    0.05444    0.04913 =
         0.03895    0.01082    0.01283    0.00378
AFIX 137
H18A  2   -0.033639   -0.147989    0.348471    11.00000   -1.50000
H18B  2   -0.083299   -0.154903    0.402197    11.00000   -1.50000
H18C  2   -0.047628   -0.082882    0.400772    11.00000   -1.50000
AFIX   0
PART 0
PART 3
dfix 1.42 0.02 C1B C2B
dfix 1.42 0.02 C3B C2B
dfix 1.42 0.02 C3B C4B
C1B   1    0.267264    0.000000    0.705162    10.50000    0.10008    0.07832 =
         0.06617    0.00000    0.03709    0.00000
AFIX  43
H1B   2    0.229128   -0.000001    0.712167    10.50000   -1.20000
AFIX   0
C2B   1    0.294063    0.064209    0.700240    11.00000    0.13340    0.05441 =
         0.09462   -0.00868    0.02050   -0.00292
AFIX  43
H2B   2    0.274850    0.108145    0.705815    11.00000   -1.20000
AFIX   0
C3B   1    0.349785    0.065082    0.686989    11.00000    0.13893    0.09268 =
         0.11810    0.01667   -0.01666   -0.06132
AFIX  43
H3B   2    0.367989    0.109898    0.682482    11.00000   -1.20000
AFIX   0
C4B   1    0.379711    0.000000    0.680136    10.50000    0.08432    0.22312 =
         0.09849    0.00000    0.00622    0.00000
AFIX  43
H4B   2    0.417633    0.000000    0.671454    10.50000   -1.20000
AFIX   0
PART 0
PART 4
C3C   1    0.480518    0.114673    0.531481    11.00000    0.08522    0.12758 =
         0.16431    0.08287   -0.06759   -0.04430
AFIX  43
H3C   2    0.468981    0.070668    0.552069    11.00000   -1.20000
AFIX   0
C4C   1    0.481503    0.236498    0.528769    11.00000    0.07154    0.10481 =
         0.17484   -0.05635   -0.00921    0.01087
AFIX  43
H4C   2    0.470340    0.281883    0.546651    11.00000   -1.20000
AFIX   0
C2C   1    0.462264    0.180641    0.558055    11.00000    0.05667    0.13228 =
         0.05446   -0.00683    0.00468   -0.01004
AFIX  43
H2C   2    0.437026    0.183438    0.595698    11.00000   -1.20000
PART 0
AFIX   0
HKLF      4

REM                                       11 in C2/m
REM R1 =  0.0586 for    6378 Fo > 4sig(Fo)  and  0.0740 for all    7719 data
REM    914 parameters refined using   1029 restraints

END

WGHT      0.0589     63.9093

REM Highest difference peak  1.079,  deepest hole -1.056,  1-sigma level  0.095
Q1    1   0.2537  0.0000  0.3131  10.50000  0.05    1.08
Q2    1   0.3374  0.0373  0.2905  11.00000  0.05    0.81
Q3    1   0.2750  0.1133  0.3159  11.00000  0.05    0.73
Q4    1   0.2920  0.0381  0.3990  11.00000  0.05    0.73
Q5    1   0.3244  0.0280  0.2326  11.00000  0.05    0.73
Q6    1   0.1654 -0.0884  0.0871  11.00000  0.05    0.70
Q7    1   0.0993 -0.0912 -0.0860  11.00000  0.05    0.64
Q8    1   0.1892 -0.1282  0.1453  11.00000  0.05    0.63
Q9    1   0.0384 -0.0938  0.3481  11.00000  0.05    0.61
Q10   1   0.0879  0.0000  0.4277  10.50000  0.05    0.60
;
_shelx_res_checksum              54737
_shelx_fab_file
;
    4    0    0      8.27      0.00
    6    0    0     13.60      0.00
    8    0    0     17.43      0.00
   10    0    0      4.35      0.00
   12    0    0      3.44      0.00
   14    0    0      7.94      0.00
   16    0    0      1.09      0.00
   18    0    0     -4.08      0.00
   20    0    0     -0.76      0.00
   22    0    0      0.49      0.00
   24    0    0     -0.98      0.00
   26    0    0     -0.19      0.00
   28    0    0      0.80      0.00
    5    1    0     -5.49      0.00
    7    1    0    -17.05      0.00
    9    1    0     -9.91      0.00
   11    1    0     -1.00      0.00
   13    1    0     -6.35      0.00
   15    1    0     -5.45      0.00
   17    1    0      2.72      0.00
   19    1    0      2.73      0.00
   21    1    0     -0.65      0.00
   23    1    0      0.28      0.00
   25    1    0      0.83      0.00
   27    1    0     -0.47      0.00
   29    1    0     -0.66      0.00
    4    2    0      8.28      0.00
    6    2    0     13.22      0.00
    8    2    0     16.93      0.00
   10    2    0      4.29      0.00
   12    2    0      3.37      0.00
   14    2    0      7.67      0.00
   16    2    0      1.00      0.00
   18    2    0     -4.00      0.00
   20    2    0     -0.78      0.00
   22    2    0      0.46      0.00
   24    2    0     -0.91      0.00
   26    2    0     -0.16      0.00
   28    2    0      0.75      0.00
    1    3    0    -62.88      0.00
    3    3    0    -19.73      0.00
    5    3    0     -5.76      0.00
    7    3    0    -16.38      0.00
    9    3    0     -9.71      0.00
   11    3    0     -1.29      0.00
   13    3    0     -6.15      0.00
   15    3    0     -5.16      0.00
   17    3    0      2.57      0.00
   19    3    0      2.62      0.00
   21    3    0     -0.53      0.00
   23    3    0      0.27      0.00
   25    3    0      0.78      0.00
   27    3    0     -0.34      0.00
    0    4    0     70.41      0.00
    2    4    0     42.03      0.00
    4    4    0      8.29      0.00
    6    4    0     12.19      0.00
    8    4    0     15.55      0.00
   10    4    0      4.12      0.00
   12    4    0      3.18      0.00
   14    4    0      6.93      0.00
   16    4    0      0.78      0.00
   18    4    0     -3.76      0.00
   20    4    0     -0.82      0.00
   22    4    0      0.40      0.00
   24    4    0     -0.71      0.00
   26    4    0     -0.10      0.00
   28    4    0      0.62      0.00
    1    5    0    -58.26      0.00
    3    5    0    -19.47      0.00
    5    5    0     -6.16      0.00
    7    5    0    -15.11      0.00
    9    5    0     -9.27      0.00
   11    5    0     -1.76      0.00
   13    5    0     -5.81      0.00
   15    5    0     -4.66      0.00
   17    5    0      2.30      0.00
   19    5    0      2.41      0.00
   21    5    0     -0.35      0.00
   23    5    0      0.24      0.00
   25    5    0      0.68      0.00
   27    5    0     -0.13      0.00
    0    6    0     63.01      0.00
    2    6    0     38.25      0.00
    4    6    0      8.26      0.00
    6    6    0     10.77      0.00
    8    6    0     13.55      0.00
   10    6    0      3.86      0.00
   12    6    0      2.97      0.00
   14    6    0      5.98      0.00
   16    6    0      0.52      0.00
   18    6    0     -3.39      0.00
   20    6    0     -0.85      0.00
   22    6    0      0.33      0.00
   24    6    0     -0.46      0.00
   26    6    0     -0.02      0.00
   28    6    0      0.45      0.00
    1    7    0    -52.01      0.00
    3    7    0    -18.75      0.00
    5    7    0     -6.46      0.00
    7    7    0    -13.36      0.00
    9    7    0     -8.51      0.00
   11    7    0     -2.24      0.00
   13    7    0     -5.38      0.00
   15    7    0     -4.08      0.00
   17    7    0      1.94      0.00
   19    7    0      2.12      0.00
   21    7    0     -0.18      0.00
   23    7    0      0.17      0.00
   25    7    0      0.54      0.00
   27    7    0      0.05      0.00
    0    8    0     54.33      0.00
    2    8    0     33.70      0.00
    4    8    0      8.15      0.00
    6    8    0      9.21      0.00
    8    8    0     11.26      0.00
   10    8    0      3.56      0.00
   12    8    0      2.84      0.00
   14    8    0      5.01      0.00
   16    8    0      0.34      0.00
   18    8    0     -2.92      0.00
   20    8    0     -0.84      0.00
   22    8    0      0.27      0.00
   24    8    0     -0.21      0.00
   26    8    0      0.05      0.00
    1    9    0    -44.74      0.00
    3    9    0    -17.43      0.00
    5    9    0     -6.47      0.00
    7    9    0    -11.24      0.00
    9    9    0     -7.41      0.00
   11    9    0     -2.61      0.00
   13    9    0     -4.90      0.00
   15    9    0     -3.49      0.00
   17    9    0      1.52      0.00
   19    9    0      1.78      0.00
   21    9    0     -0.05      0.00
   23    9    0      0.08      0.00
   25    9    0      0.36      0.00
    0   10    0     45.29      0.00
    2   10    0     28.82      0.00
    4   10    0      7.91      0.00
    6   10    0      7.69      0.00
    8   10    0      8.93      0.00
   10   10    0      3.26      0.00
   12   10    0      2.80      0.00
   14   10    0      4.17      0.00
   16   10    0      0.27      0.00
   18   10    0     -2.36      0.00
   20   10    0     -0.80      0.00
   22   10    0      0.19      0.00
   24   10    0     -0.02      0.00
    1   11    0    -36.99      0.00
    3   11    0    -15.50      0.00
    5   11    0     -6.08      0.00
    7   11    0     -8.89      0.00
    9   11    0     -6.04      0.00
   11   11    0     -2.78      0.00
   13   11    0     -4.34      0.00
   15   11    0     -2.90      0.00
   17   11    0      1.07      0.00
   19   11    0      1.41      0.00
   21   11    0      0.05      0.00
   23   11    0     -0.01      0.00
   25   11    0      0.15      0.00
    0   12    0     36.54      0.00
    2   12    0     23.93      0.00
    4   12    0      7.49      0.00
    6   12    0      6.28      0.00
    8   12    0      6.76      0.00
   10   12    0      2.97      0.00
   12   12    0      2.80      0.00
   14   12    0      3.42      0.00
   16   12    0      0.31      0.00
   18   12    0     -1.76      0.00
   20   12    0     -0.75      0.00
   22   12    0      0.08      0.00
   24   12    0      0.09      0.00
    1   13    0    -29.29      0.00
    3   13    0    -13.09      0.00
    5   13    0     -5.31      0.00
    7   13    0     -6.51      0.00
    9   13    0     -4.56      0.00
   11   13    0     -2.72      0.00
   13   13    0     -3.68      0.00
   15   13    0     -2.29      0.00
   17   13    0      0.64      0.00
   19   13    0      1.05      0.00
   21   13    0      0.15      0.00
   23   13    0     -0.07      0.00
    0   14    0     28.42      0.00
    2   14    0     19.18      0.00
    4   14    0      6.82      0.00
    6   14    0      4.99      0.00
    8   14    0      4.85      0.00
   10   14    0      2.66      0.00
   12   14    0      2.73      0.00
   14   14    0      2.73      0.00
   16   14    0      0.36      0.00
   18   14    0     -1.17      0.00
   20   14    0     -0.68      0.00
   22   14    0     -0.06      0.00
    1   15    0    -22.07      0.00
    3   15    0    -10.42      0.00
    5   15    0     -4.31      0.00
    7   15    0     -4.36      0.00
    9   15    0     -3.15      0.00
   11   15    0     -2.46      0.00
   13   15    0     -2.93      0.00
   15   15    0     -1.67      0.00
   17   15    0      0.30      0.00
   19   15    0      0.72      0.00
   21   15    0      0.24      0.00
    0   16    0     21.12      0.00
    2   16    0     14.67      0.00
    4   16    0      5.82      0.00
    6   16    0      3.79      0.00
    8   16    0      3.28      0.00
   10   16    0      2.27      0.00
   12   16    0      2.48      0.00
   14   16    0      2.04      0.00
   16   16    0      0.36      0.00
   18   16    0     -0.67      0.00
    1   17    0    -15.70      0.00
    3   17    0     -7.76      0.00
    5   17    0     -3.24      0.00
    7   17    0     -2.67      0.00
    9   17    0     -1.99      0.00
   11   17    0     -2.04      0.00
   13   17    0     -2.17      0.00
   15   17    0     -1.09      0.00
   17   17    0      0.07      0.00
    0   18    0     14.77      0.00
    2   18    0     10.50      0.00
    4   18    0      4.55      0.00
    6   18    0      2.73      0.00
    8   18    0      2.07      0.00
   10   18    0      1.78      0.00
   12   18    0      2.04      0.00
   14   18    0      1.39      0.00
   16   18    0      0.28      0.00
    1   19    0    -10.42      0.00
    3   19    0     -5.34      0.00
    5   19    0     -2.28      0.00
    7   19    0     -1.54      0.00
    9   19    0     -1.17      0.00
   11   19    0     -1.54      0.00
   13   19    0     -1.47      0.00
    0   20    0      9.48      0.00
    2   20    0      6.84      0.00
    4   20    0      3.15      0.00
    6   20    0      1.81      0.00
    8   20    0      1.21      0.00
   10   20    0      1.24      0.00
   12   20    0      1.46      0.00
    1   21    0     -6.31      0.00
    3   21    0     -3.33      0.00
    5   21    0     -1.49      0.00
    7   21    0     -0.88      0.00
  -28    0    1      0.16      0.00
  -26    0    1     -1.03      0.00
  -24    0    1     -0.71      0.00
  -22    0    1      0.99      0.00
  -20    0    1     -0.68      0.00
  -18    0    1     -0.35      0.00
  -16    0    1      8.03      0.00
  -14    0    1     10.69      0.00
  -12    0    1      4.88      0.00
  -10    0    1     11.95      0.00
   -8    0    1     22.56      0.00
   -6    0    1     15.56      0.00
   -4    0    1     25.81      0.00
    4    0    1     -8.37      0.00
    6    0    1      9.87      0.00
    8    0    1      7.85      0.00
   10    0    1     -2.35      0.00
   12    0    1      2.43      0.00
   14    0    1      3.86      0.00
   16    0    1     -3.36      0.00
   18    0    1     -3.03      0.00
   20    0    1      1.64      0.00
   22    0    1      0.96      0.00
   24    0    1     -0.22      0.00
   26    0    1      1.01      0.00
   28    0    1      1.16      0.00
  -29    1    1     -0.39      0.00
  -27    1    1      0.36      0.00
  -25    1    1      1.21      0.00
  -23    1    1     -0.27      0.00
  -21    1    1     -0.52      0.00
  -19    1    1      1.58      0.00
  -17    1    1     -3.31      0.00
  -15    1    1    -11.19      0.00
  -13    1    1     -7.91      0.00
  -11    1    1     -6.87      0.00
   -9    1    1    -20.04      0.00
   -7    1    1    -21.69      0.00
   -5    1    1    -17.39      0.00
   -3    1    1    -46.55      0.00
    3    1    1      6.08      0.00
    5    1    1     -2.57      0.00
    7    1    1    -13.63      0.00
    9    1    1     -2.28      0.00
   11    1    1      0.59      0.00
   13    1    1     -5.09      0.00
   15    1    1     -0.25      0.00
   17    1    1      4.65      0.00
   19    1    1      0.49      0.00
   21    1    1     -1.72      0.00
   23    1    1      0.12      0.00
   25    1    1     -0.27      0.00
   27    1    1     -1.32      0.00
   29    1    1     -0.71      0.00
  -28    2    1      0.11      0.00
  -26    2    1     -0.97      0.00
  -24    2    1     -0.68      0.00
  -22    2    1      0.91      0.00
  -20    2    1     -0.68      0.00
  -18    2    1     -0.31      0.00
  -16    2    1      7.85      0.00
  -14    2    1     10.50      0.00
  -12    2    1      4.96      0.00
  -10    2    1     11.83      0.00
   -8    2    1     22.10      0.00
   -6    2    1     15.48      0.00
   -4    2    1     25.65      0.00
   -2    2    1     61.47      0.00
    2    2    1      6.63      0.00
    4    2    1     -7.94      0.00
    6    2    1      9.67      0.00
    8    2    1      7.77      0.00
   10    2    1     -2.15      0.00
   12    2    1      2.42      0.00
   14    2    1      3.74      0.00
   16    2    1     -3.27      0.00
   18    2    1     -2.94      0.00
   20    2    1      1.58      0.00
   22    2    1      0.92      0.00
   24    2    1     -0.21      0.00
   26    2    1      0.94      0.00
   28    2    1      1.05      0.00
  -27    3    1      0.28      0.00
  -25    3    1      1.01      0.00
  -23    3    1     -0.25      0.00
  -21    3    1     -0.40      0.00
  -19    3    1      1.50      0.00
  -17    3    1     -3.12      0.00
  -15    3    1    -10.57      0.00
  -13    3    1     -7.63      0.00
  -11    3    1     -6.71      0.00
   -9    3    1    -18.99      0.00
   -7    3    1    -20.62      0.00
   -5    3    1    -17.02      0.00
   -3    3    1    -44.73      0.00
   -1    3    1    -67.10      0.00
    1    3    1    -32.64      0.00
    3    3    1      5.50      0.00
    5    3    1     -2.27      0.00
    7    3    1    -12.77      0.00
    9    3    1     -2.17      0.00
   11    3    1      0.58      0.00
   13    3    1     -4.67      0.00
   15    3    1     -0.08      0.00
   17    3    1      4.45      0.00
   19    3    1      0.48      0.00
   21    3    1     -1.61      0.00
   23    3    1      0.05      0.00
   25    3    1     -0.31      0.00
   27    3    1     -1.22      0.00
  -28    4    1     -0.02      0.00
  -26    4    1     -0.84      0.00
  -24    4    1     -0.58      0.00
  -22    4    1      0.70      0.00
  -20    4    1     -0.68      0.00
  -18    4    1     -0.19      0.00
  -16    4    1      7.35      0.00
  -14    4    1      9.99      0.00
  -12    4    1      5.17      0.00
  -10    4    1     11.43      0.00
   -8    4    1     20.79      0.00
   -6    4    1     15.21      0.00
   -4    4    1     25.12      0.00
   -2    4    1     58.02      0.00
    0    4    1     52.46      0.00
    2    4    1      7.29      0.00
    4    4    1     -6.79      0.00
    6    4    1      9.10      0.00
    8    4    1      7.51      0.00
   10    4    1     -1.61      0.00
   12    4    1      2.39      0.00
   14    4    1      3.41      0.00
   16    4    1     -3.05      0.00
   18    4    1     -2.69      0.00
   20    4    1      1.40      0.00
   22    4    1      0.82      0.00
   24    4    1     -0.19      0.00
   26    4    1      0.76      0.00
   28    4    1      0.77      0.00
  -27    5    1      0.16      0.00
  -25    5    1      0.69      0.00
  -23    5    1     -0.22      0.00
  -21    5    1     -0.22      0.00
  -19    5    1      1.36      0.00
  -17    5    1     -2.80      0.00
  -15    5    1     -9.50      0.00
  -13    5    1     -7.12      0.00
  -11    5    1     -6.36      0.00
   -9    5    1    -17.08      0.00
   -7    5    1    -18.73      0.00
   -5    5    1    -16.29      0.00
   -3    5    1    -41.37      0.00
   -1    5    1    -61.23      0.00
    1    5    1    -30.31      0.00
    3    5    1      4.44      0.00
    5    5    1     -1.80      0.00
    7    5    1    -11.25      0.00
    9    5    1     -1.99      0.00
   11    5    1      0.53      0.00
   13    5    1     -3.99      0.00
   15    5    1      0.19      0.00
   17    5    1      4.10      0.00
   19    5    1      0.47      0.00
   21    5    1     -1.43      0.00
   23    5    1     -0.06      0.00
   25    5    1     -0.36      0.00
   27    5    1     -1.05      0.00
  -26    6    1     -0.64      0.00
  -24    6    1     -0.44      0.00
  -22    6    1      0.46      0.00
  -20    6    1     -0.65      0.00
  -18    6    1     -0.02      0.00
  -16    6    1      6.63      0.00
  -14    6    1      9.21      0.00
  -12    6    1      5.34      0.00
  -10    6    1     10.67      0.00
   -8    6    1     18.75      0.00
   -6    6    1     14.65      0.00
   -4    6    1     24.05      0.00
   -2    6    1     52.73      0.00
    0    6    1     47.79      0.00
    2    6    1      8.02      0.00
    4    6    1     -5.21      0.00
    6    6    1      8.19      0.00
    8    6    1      7.02      0.00
   10    6    1     -0.89      0.00
   12    6    1      2.35      0.00
   14    6    1      2.96      0.00
   16    6    1     -2.72      0.00
   18    6    1     -2.36      0.00
   20    6    1      1.16      0.00
   22    6    1      0.69      0.00
   24    6    1     -0.17      0.00
   26    6    1      0.52      0.00
  -27    7    1      0.01      0.00
  -25    7    1      0.35      0.00
  -23    7    1     -0.19      0.00
  -21    7    1     -0.04      0.00
  -19    7    1      1.16      0.00
  -17    7    1     -2.42      0.00
  -15    7    1     -8.21      0.00
  -13    7    1     -6.50      0.00
  -11    7    1     -5.85      0.00
   -9    7    1    -14.61      0.00
   -7    7    1    -16.36      0.00
   -5    7    1    -15.26      0.00
   -3    7    1    -36.94      0.00
   -1    7    1    -53.70      0.00
    1    7    1    -27.23      0.00
    3    7    1      3.11      0.00
    5    7    1     -1.33      0.00
    7    7    1     -9.37      0.00
    9    7    1     -1.81      0.00
   11    7    1      0.36      0.00
   13    7    1     -3.24      0.00
   15    7    1      0.44      0.00
   17    7    1      3.65      0.00
   19    7    1      0.49      0.00
   21    7    1     -1.19      0.00
   23    7    1     -0.15      0.00
   25    7    1     -0.37      0.00
   27    7    1     -0.82      0.00
  -26    8    1     -0.41      0.00
  -24    8    1     -0.29      0.00
  -22    8    1      0.25      0.00
  -20    8    1     -0.57      0.00
  -18    8    1      0.15      0.00
  -16    8    1      5.78      0.00
  -14    8    1      8.25      0.00
  -12    8    1      5.32      0.00
  -10    8    1      9.49      0.00
   -8    8    1     16.17      0.00
   -6    8    1     13.69      0.00
   -4    8    1     22.32      0.00
   -2    8    1     46.16      0.00
    0    8    1     41.94      0.00
    2    8    1      8.45      0.00
    4    8    1     -3.59      0.00
    6    8    1      7.00      0.00
    8    8    1      6.27      0.00
   10    8    1     -0.14      0.00
   12    8    1      2.31      0.00
   14    8    1      2.47      0.00
   16    8    1     -2.35      0.00
   18    8    1     -2.01      0.00
   20    8    1      0.90      0.00
   22    8    1      0.56      0.00
   24    8    1     -0.14      0.00
   26    8    1      0.27      0.00
  -25    9    1      0.08      0.00
  -23    9    1     -0.15      0.00
  -21    9    1      0.10      0.00
  -19    9    1      0.90      0.00
  -17    9    1     -2.08      0.00
  -15    9    1     -6.90      0.00
  -13    9    1     -5.83      0.00
  -11    9    1     -5.20      0.00
   -9    9    1    -11.92      0.00
   -7    9    1    -13.84      0.00
   -5    9    1    -14.01      0.00
   -3    9    1    -31.95      0.00
   -1    9    1    -45.45      0.00
    1    9    1    -23.76      0.00
    3    9    1      1.68      0.00
    5    9    1     -0.99      0.00
    7    9    1     -7.43      0.00
    9    9    1     -1.69      0.00
   11    9    1      0.02      0.00
   13    9    1     -2.59      0.00
   15    9    1      0.59      0.00
   17    9    1      3.15      0.00
   19    9    1      0.52      0.00
   21    9    1     -0.93      0.00
   23    9    1     -0.21      0.00
   25    9    1     -0.32      0.00
  -24   10    1     -0.13      0.00
  -22   10    1      0.10      0.00
  -20   10    1     -0.46      0.00
  -18   10    1      0.34      0.00
  -16   10    1      4.89      0.00
  -14   10    1      7.15      0.00
  -12   10    1      5.03      0.00
  -10   10    1      7.93      0.00
   -8   10    1     13.23      0.00
   -6   10    1     12.29      0.00
   -4   10    1     19.93      0.00
   -2   10    1     38.88      0.00
    0   10    1     35.41      0.00
    2   10    1      8.36      0.00
    4   10    1     -2.19      0.00
    6   10    1      5.58      0.00
    8   10    1      5.26      0.00
   10   10    1      0.52      0.00
   12   10    1      2.22      0.00
   14   10    1      1.98      0.00
   16   10    1     -1.95      0.00
   18   10    1     -1.69      0.00
   20   10    1      0.62      0.00
   22   10    1      0.46      0.00
   24   10    1     -0.08      0.00
  -25   11    1     -0.10      0.00
  -23   11    1     -0.09      0.00
  -21   11    1      0.19      0.00
  -19   11    1      0.60      0.00
  -17   11    1     -1.81      0.00
  -15   11    1     -5.65      0.00
  -13   11    1     -5.16      0.00
  -11   11    1     -4.49      0.00
   -9   11    1     -9.26      0.00
   -7   11    1    -11.36      0.00
   -5   11    1    -12.58      0.00
   -3   11    1    -26.85      0.00
   -1   11    1    -37.22      0.00
    1   11    1    -20.16      0.00
    3   11    1      0.32      0.00
    5   11    1     -0.82      0.00
    7   11    1     -5.61      0.00
    9   11    1     -1.68      0.00
   11   11    1     -0.47      0.00
   13   11    1     -2.07      0.00
   15   11    1      0.61      0.00
   17   11    1      2.58      0.00
   19   11    1      0.57      0.00
   21   11    1     -0.62      0.00
   23   11    1     -0.21      0.00
   25   11    1     -0.24      0.00
  -24   12    1      0.00      0.00
  -22   12    1     -0.01      0.00
  -20   12    1     -0.31      0.00
  -18   12    1      0.51      0.00
  -16   12    1      3.97      0.00
  -14   12    1      5.92      0.00
  -12   12    1      4.48      0.00
  -10   12    1      6.17      0.00
   -8   12    1     10.16      0.00
   -6   12    1     10.49      0.00
   -4   12    1     17.03      0.00
   -2   12    1     31.43      0.00
    0   12    1     28.65      0.00
    2   12    1      7.72      0.00
    4   12    1     -1.16      0.00
    6   12    1      4.05      0.00
    8   12    1      4.09      0.00
   10   12    1      1.01      0.00
   12   12    1      2.07      0.00
   14   12    1      1.48      0.00
   16   12    1     -1.53      0.00
   18   12    1     -1.36      0.00
   20   12    1      0.33      0.00
   22   12    1      0.35      0.00
   24   12    1      0.03      0.00
  -23   13    1     -0.01      0.00
  -21   13    1      0.25      0.00
  -19   13    1      0.29      0.00
  -17   13    1     -1.60      0.00
  -15   13    1     -4.48      0.00
  -13   13    1     -4.46      0.00
  -11   13    1     -3.77      0.00
   -9   13    1     -6.84      0.00
   -7   13    1     -9.02      0.00
   -5   13    1    -10.98      0.00
   -3   13    1    -21.88      0.00
   -1   13    1    -29.48      0.00
    1   13    1    -16.59      0.00
    3   13    1     -0.82      0.00
    5   13    1     -0.77      0.00
    7   13    1     -4.04      0.00
    9   13    1     -1.72      0.00
   11   13    1     -0.98      0.00
   13   13    1     -1.66      0.00
   15   13    1      0.53      0.00
   17   13    1      1.97      0.00
   19   13    1      0.60      0.00
   21   13    1     -0.31      0.00
   23   13    1     -0.18      0.00
  -22   14    1     -0.09      0.00
  -20   14    1     -0.18      0.00
  -18   14    1      0.64      0.00
  -16   14    1      3.06      0.00
  -14   14    1      4.64      0.00
  -12   14    1      3.75      0.00
  -10   14    1      4.42      0.00
   -8   14    1      7.25      0.00
   -6   14    1      8.45      0.00
   -4   14    1     13.84      0.00
   -2   14    1     24.28      0.00
    0   14    1     22.11      0.00
    2   14    1      6.63      0.00
    4   14    1     -0.47      0.00
    6   14    1      2.61      0.00
    8   14    1      2.91      0.00
   10   14    1      1.30      0.00
   12   14    1      1.81      0.00
   14   14    1      0.98      0.00
   16   14    1     -1.13      0.00
   18   14    1     -1.04      0.00
   20   14    1      0.08      0.00
   22   14    1      0.24      0.00
  -21   15    1      0.27      0.00
  -19   15    1      0.03      0.00
  -17   15    1     -1.37      0.00
  -15   15    1     -3.38      0.00
  -13   15    1     -3.69      0.00
  -11   15    1     -3.06      0.00
   -9   15    1     -4.78      0.00
   -7   15    1     -6.87      0.00
   -5   15    1     -9.17      0.00
   -3   15    1    -17.16      0.00
   -1   15    1    -22.44      0.00
    1   15    1    -13.13      0.00
    3   15    1     -1.57      0.00
    5   15    1     -0.79      0.00
    7   15    1     -2.76      0.00
    9   15    1     -1.70      0.00
   11   15    1     -1.35      0.00
   13   15    1     -1.28      0.00
   15   15    1      0.42      0.00
   17   15    1      1.36      0.00
   19   15    1      0.57      0.00
   21   15    1     -0.02      0.00
  -18   16    1      0.67      0.00
  -16   16    1      2.20      0.00
  -14   16    1      3.39      0.00
  -12   16    1      2.93      0.00
  -10   16    1      2.91      0.00
   -8   16    1      4.77      0.00
   -6   16    1      6.37      0.00
   -4   16    1     10.60      0.00
   -2   16    1     17.82      0.00
    0   16    1     16.18      0.00
    2   16    1      5.30      0.00
    4   16    1     -0.06      0.00
    6   16    1      1.47      0.00
    8   16    1      1.89      0.00
   10   16    1      1.37      0.00
   12   16    1      1.47      0.00
   14   16    1      0.54      0.00
   16   16    1     -0.77      0.00
   18   16    1     -0.71      0.00
  -17   17    1     -1.08      0.00
  -15   17    1     -2.38      0.00
  -13   17    1     -2.85      0.00
  -11   17    1     -2.34      0.00
   -9   17    1     -3.12      0.00
   -7   17    1     -4.94      0.00
   -5   17    1     -7.17      0.00
   -3   17    1    -12.74      0.00
   -1   17    1    -16.24      0.00
    1   17    1     -9.85      0.00
    3   17    1     -1.86      0.00
    5   17    1     -0.79      0.00
    7   17    1     -1.80      0.00
    9   17    1     -1.55      0.00
   11   17    1     -1.45      0.00
   13   17    1     -0.91      0.00
   15   17    1      0.33      0.00
   17   17    1      0.82      0.00
  -16   18    1      1.43      0.00
  -14   18    1      2.29      0.00
  -12   18    1      2.12      0.00
  -10   18    1      1.76      0.00
   -8   18    1      2.89      0.00
   -6   18    1      4.46      0.00
   -4   18    1      7.55      0.00
   -2   18    1     12.28      0.00
    0   18    1     11.14      0.00
    2   18    1      3.94      0.00
    4   18    1      0.19      0.00
    6   18    1      0.75      0.00
    8   18    1      1.13      0.00
   10   18    1      1.23      0.00
   12   18    1      1.10      0.00
   14   18    1      0.19      0.00
   16   18    1     -0.49      0.00
  -13   19    1     -2.01      0.00
  -11   19    1     -1.63      0.00
   -9   19    1     -1.87      0.00
   -7   19    1     -3.28      0.00
   -5   19    1     -5.09      0.00
   -3   19    1     -8.72      0.00
   -1   19    1    -10.93      0.00
    1   19    1     -6.85      0.00
    3   19    1     -1.71      0.00
    5   19    1     -0.72      0.00
    7   19    1     -1.11      0.00
    9   19    1     -1.21      0.00
   11   19    1     -1.25      0.00
   13   19    1     -0.55      0.00
  -10   20    1      0.99      0.00
   -8   20    1      1.62      0.00
   -6   20    1      2.87      0.00
   -4   20    1      4.90      0.00
   -2   20    1      7.79      0.00
    0   20    1      7.12      0.00
    2   20    1      2.72      0.00
    4   20    1      0.33      0.00
    6   20    1      0.42      0.00
    8   20    1      0.65      0.00
   10   20    1      0.94      0.00
   -7   21    1     -1.91      0.00
   -5   21    1     -3.15      0.00
   -3   21    1     -5.28      0.00
   -1   21    1     -6.61      0.00
    1   21    1     -4.28      0.00
    3   21    1     -1.27      0.00
    5   21    1     -0.57      0.00
    7   21    1     -0.64      0.00
  -28    0    2     -0.20      0.00
  -26    0    2     -0.89      0.00
  -24    0    2      0.87      0.00
  -22    0    2      2.61      0.00
  -20    0    2      1.35      0.00
  -18    0    2      5.09      0.00
  -16    0    2     12.87      0.00
  -14    0    2     10.32      0.00
  -12    0    2      7.05      0.00
  -10    0    2     18.79      0.00
   -8    0    2     23.66      0.00
   -6    0    2     18.56      0.00
   -4    0    2     38.15      0.00
    4    0    2     -5.55      0.00
    6    0    2     12.91      0.00
    8    0    2      3.32      0.00
   10    0    2     -2.08      0.00
   12    0    2      4.33      0.00
   14    0    2      1.67      0.00
   16    0    2     -3.18      0.00
   18    0    2      0.97      0.00
   20    0    2      3.39      0.00
   22    0    2      0.77      0.00
   24    0    2      0.58      0.00
   26    0    2      1.66      0.00
   28    0    2      0.83      0.00
  -27    1    2      0.72      0.00
  -25    1    2      0.39      0.00
  -23    1    2     -2.11      0.00
  -21    1    2     -2.03      0.00
  -19    1    2     -2.09      0.00
  -17    1    2     -9.36      0.00
  -15    1    2    -12.86      0.00
  -13    1    2     -6.65      0.00
  -11    1    2    -10.89      0.00
   -9    1    2    -22.54      0.00
   -7    1    2    -18.43      0.00
   -5    1    2    -22.86      0.00
   -3    1    2    -49.07      0.00
    3    1    2     19.47      0.00
    5    1    2     -5.43      0.00
    7    1    2     -8.78      0.00
    9    1    2      2.68      0.00
   11    1    2     -0.64      0.00
   13    1    2     -4.25      0.00
   15    1    2      1.71      0.00
   17    1    2      1.62      0.00
   19    1    2     -3.32      0.00
   21    1    2     -2.37      0.00
   23    1    2     -0.35      0.00
   25    1    2     -1.37      0.00
   27    1    2     -1.42      0.00
  -28    2    2     -0.15      0.00
  -26    2    2     -0.78      0.00
  -24    2    2      0.86      0.00
  -22    2    2      2.49      0.00
  -20    2    2      1.35      0.00
  -18    2    2      5.00      0.00
  -16    2    2     12.55      0.00
  -14    2    2     10.13      0.00
  -12    2    2      6.97      0.00
  -10    2    2     18.28      0.00
   -8    2    2     23.06      0.00
   -6    2    2     18.33      0.00
   -4    2    2     37.38      0.00
   -2    2    2     53.17      0.00
    0    2    2     17.87      0.00
    2    2    2    -18.83      0.00
    4    2    2     -5.55      0.00
    6    2    2     12.46      0.00
    8    2    2      3.21      0.00
   10    2    2     -2.05      0.00
   12    2    2      4.15      0.00
   14    2    2      1.54      0.00
   16    2    2     -3.09      0.00
   18    2    2      0.98      0.00
   20    2    2      3.30      0.00
   22    2    2      0.78      0.00
   24    2    2      0.63      0.00
   26    2    2      1.63      0.00
   28    2    2      0.80      0.00
  -27    3    2      0.60      0.00
  -25    3    2      0.31      0.00
  -23    3    2     -1.90      0.00
  -21    3    2     -1.91      0.00
  -19    3    2     -2.12      0.00
  -17    3    2     -9.00      0.00
  -15    3    2    -12.41      0.00
  -13    3    2     -6.72      0.00
  -11    3    2    -10.66      0.00
   -9    3    2    -21.60      0.00
   -7    3    2    -18.09      0.00
   -5    3    2    -22.60      0.00
   -3    3    2    -47.23      0.00
   -1    3    2    -38.31      0.00
    1    3    2      7.05      0.00
    3    3    2     18.24      0.00
    5    3    2     -5.20      0.00
    7    3    2     -8.52      0.00
    9    3    2      2.31      0.00
   11    3    2     -0.74      0.00
   13    3    2     -4.01      0.00
   15    3    2      1.62      0.00
   17    3    2      1.44      0.00
   19    3    2     -3.17      0.00
   21    3    2     -2.21      0.00
   23    3    2     -0.35      0.00
   25    3    2     -1.27      0.00
   27    3    2     -1.22      0.00
  -28    4    2     -0.03      0.00
  -26    4    2     -0.50      0.00
  -24    4    2      0.80      0.00
  -22    4    2      2.19      0.00
  -20    4    2      1.32      0.00
  -18    4    2      4.71      0.00
  -16    4    2     11.63      0.00
  -14    4    2      9.59      0.00
  -12    4    2      6.71      0.00
  -10    4    2     16.83      0.00
   -8    4    2     21.40      0.00
   -6    4    2     17.64      0.00
   -4    4    2     35.20      0.00
   -2    4    2     49.48      0.00
    0    4    2     16.95      0.00
    2    4    2    -17.30      0.00
    4    4    2     -5.52      0.00
    6    4    2     11.22      0.00
    8    4    2      2.91      0.00
   10    4    2     -1.94      0.00
   12    4    2      3.65      0.00
   14    4    2      1.20      0.00
   16    4    2     -2.89      0.00
   18    4    2      0.97      0.00
   20    4    2      3.04      0.00
   22    4    2      0.78      0.00
   24    4    2      0.71      0.00
   26    4    2      1.53      0.00
   28    4    2      0.73      0.00
  -27    5    2      0.42      0.00
  -25    5    2      0.20      0.00
  -23    5    2     -1.54      0.00
  -21    5    2     -1.69      0.00
  -19    5    2     -2.13      0.00
  -17    5    2     -8.32      0.00
  -15    5    2    -11.57      0.00
  -13    5    2     -6.75      0.00
  -11    5    2    -10.11      0.00
   -9    5    2    -19.83      0.00
   -7    5    2    -17.38      0.00
   -5    5    2    -21.93      0.00
   -3    5    2    -43.75      0.00
   -1    5    2    -35.64      0.00
    1    5    2      5.29      0.00
    3    5    2     16.08      0.00
    5    5    2     -4.73      0.00
    7    5    2     -7.99      0.00
    9    5    2      1.68      0.00
   11    5    2     -0.88      0.00
   13    5    2     -3.59      0.00
   15    5    2      1.49      0.00
   17    5    2      1.18      0.00
   19    5    2     -2.88      0.00
   21    5    2     -1.94      0.00
   23    5    2     -0.33      0.00
   25    5    2     -1.08      0.00
   27    5    2     -0.90      0.00
  -26    6    2     -0.17      0.00
  -24    6    2      0.69      0.00
  -22    6    2      1.77      0.00
  -20    6    2      1.25      0.00
  -18    6    2      4.26      0.00
  -16    6    2     10.30      0.00
  -14    6    2      8.77      0.00
  -12    6    2      6.22      0.00
  -10    6    2     14.68      0.00
   -8    6    2     19.00      0.00
   -6    6    2     16.57      0.00
   -4    6    2     31.92      0.00
   -2    6    2     44.09      0.00
    0    6    2     15.57      0.00
    2    6    2    -15.02      0.00
    4    6    2     -5.37      0.00
    6    6    2      9.47      0.00
    8    6    2      2.51      0.00
   10    6    2     -1.73      0.00
   12    6    2      2.99      0.00
   14    6    2      0.73      0.00
   16    6    2     -2.63      0.00
   18    6    2      0.90      0.00
   20    6    2      2.66      0.00
   22    6    2      0.75      0.00
   24    6    2      0.74      0.00
   26    6    2      1.34      0.00
  -27    7    2      0.21      0.00
  -25    7    2      0.10      0.00
  -23    7    2     -1.13      0.00
  -21    7    2     -1.43      0.00
  -19    7    2     -2.08      0.00
  -17    7    2     -7.38      0.00
  -15    7    2    -10.40      0.00
  -13    7    2     -6.57      0.00
  -11    7    2     -9.16      0.00
   -9    7    2    -17.40      0.00
   -7    7    2    -16.24      0.00
   -5    7    2    -20.70      0.00
   -3    7    2    -39.00      0.00
   -1    7    2    -31.95      0.00
    1    7    2      3.31      0.00
    3    7    2     13.43      0.00
    5    7    2     -4.05      0.00
    7    7    2     -7.17      0.00
    9    7    2      0.97      0.00
   11    7    2     -1.03      0.00
   13    7    2     -3.03      0.00
   15    7    2      1.36      0.00
   17    7    2      0.94      0.00
   19    7    2     -2.48      0.00
   21    7    2     -1.61      0.00
   23    7    2     -0.27      0.00
   25    7    2     -0.82      0.00
   27    7    2     -0.54      0.00
  -26    8    2      0.09      0.00
  -24    8    2      0.54      0.00
  -22    8    2      1.33      0.00
  -20    8    2      1.15      0.00
  -18    8    2      3.71      0.00
  -16    8    2      8.75      0.00
  -14    8    2      7.77      0.00
  -12    8    2      5.52      0.00
  -10    8    2     12.14      0.00
   -8    8    2     16.25      0.00
   -6    8    2     15.20      0.00
   -4    8    2     27.98      0.00
   -2    8    2     37.79      0.00
    0    8    2     13.92      0.00
    2    8    2    -12.31      0.00
    4    8    2     -5.01      0.00
    6    8    2      7.54      0.00
    8    8    2      2.14      0.00
   10    8    2     -1.37      0.00
   12    8    2      2.32      0.00
   14    8    2      0.27      0.00
   16    8    2     -2.37      0.00
   18    8    2      0.72      0.00
   20    8    2      2.18      0.00
   22    8    2      0.68      0.00
   24    8    2      0.68      0.00
   26    8    2      1.05      0.00
  -25    9    2      0.02      0.00
  -23    9    2     -0.75      0.00
  -21    9    2     -1.16      0.00
  -19    9    2     -1.95      0.00
  -17    9    2     -6.27      0.00
  -15    9    2     -8.98      0.00
  -13    9    2     -6.08      0.00
  -11    9    2     -7.79      0.00
   -9    9    2    -14.52      0.00
   -7    9    2    -14.64      0.00
   -5    9    2    -18.86      0.00
   -3    9    2    -33.42      0.00
   -1    9    2    -27.53      0.00
    1    9    2      1.55      0.00
    3    9    2     10.72      0.00
    5    9    2     -3.16      0.00
    7    9    2     -6.09      0.00
    9    9    2      0.29      0.00
   11    9    2     -1.12      0.00
   13    9    2     -2.39      0.00
   15    9    2      1.26      0.00
   17    9    2      0.78      0.00
   19    9    2     -1.98      0.00
   21    9    2     -1.27      0.00
   23    9    2     -0.22      0.00
   25    9    2     -0.53      0.00
  -24   10    2      0.37      0.00
  -22   10    2      0.92      0.00
  -20   10    2      1.03      0.00
  -18   10    2      3.13      0.00
  -16   10    2      7.15      0.00
  -14   10    2      6.65      0.00
  -12   10    2      4.70      0.00
  -10   10    2      9.53      0.00
   -8   10    2     13.46      0.00
   -6   10    2     13.65      0.00
   -4   10    2     23.82      0.00
   -2   10    2     31.30      0.00
    0   10    2     12.15      0.00
    2   10    2     -9.42      0.00
    4   10    2     -4.38      0.00
    6   10    2      5.68      0.00
    8   10    2      1.88      0.00
   10   10    2     -0.85      0.00
   12   10    2      1.73      0.00
   14   10    2     -0.11      0.00
   16   10    2     -2.09      0.00
   18   10    2      0.47      0.00
   20   10    2      1.65      0.00
   22   10    2      0.55      0.00
   24   10    2      0.53      0.00
  -25   11    2     -0.04      0.00
  -23   11    2     -0.45      0.00
  -21   11    2     -0.92      0.00
  -19   11    2     -1.77      0.00
  -17   11    2     -5.10      0.00
  -15   11    2     -7.38      0.00
  -13   11    2     -5.29      0.00
  -11   11    2     -6.15      0.00
   -9   11    2    -11.44      0.00
   -7   11    2    -12.65      0.00
   -5   11    2    -16.48      0.00
   -3   11    2    -27.51      0.00
   -1   11    2    -22.72      0.00
    1   11    2      0.25      0.00
    3   11    2      8.21      0.00
    5   11    2     -2.15      0.00
    7   11    2     -4.84      0.00
    9   11    2     -0.29      0.00
   11   11    2     -1.13      0.00
   13   11    2     -1.71      0.00
   15   11    2      1.15      0.00
   17   11    2      0.69      0.00
   19   11    2     -1.45      0.00
   21   11    2     -0.95      0.00
   23   11    2     -0.20      0.00
   25   11    2     -0.29      0.00
  -24   12    2      0.21      0.00
  -22   12    2      0.57      0.00
  -20   12    2      0.92      0.00
  -18   12    2      2.60      0.00
  -16   12    2      5.61      0.00
  -14   12    2      5.50      0.00
  -12   12    2      3.84      0.00
  -10   12    2      7.11      0.00
   -8   12    2     10.80      0.00
   -6   12    2     11.98      0.00
   -4   12    2     19.74      0.00
   -2   12    2     25.11      0.00
    0   12    2     10.35      0.00
    2   12    2     -6.61      0.00
    4   12    2     -3.53      0.00
    6   12    2      4.07      0.00
    8   12    2      1.78      0.00
   10   12    2     -0.20      0.00
   12   12    2      1.27      0.00
   14   12    2     -0.35      0.00
   16   12    2     -1.75      0.00
   18   12    2      0.20      0.00
   20   12    2      1.10      0.00
   22   12    2      0.40      0.00
   24   12    2      0.36      0.00
  -23   13    2     -0.24      0.00
  -21   13    2     -0.70      0.00
  -19   13    2     -1.57      0.00
  -17   13    2     -3.95      0.00
  -15   13    2     -5.71      0.00
  -13   13    2     -4.30      0.00
  -11   13    2     -4.48      0.00
   -9   13    2     -8.44      0.00
   -7   13    2    -10.38      0.00
   -5   13    2    -13.77      0.00
   -3   13    2    -21.69      0.00
   -1   13    2    -17.88      0.00
    1   13    2     -0.53      0.00
    3   13    2      6.02      0.00
    5   13    2     -1.16      0.00
    7   13    2     -3.55      0.00
    9   13    2     -0.72      0.00
   11   13    2     -1.06      0.00
   13   13    2     -1.05      0.00
   15   13    2      1.02      0.00
   17   13    2      0.59      0.00
   19   13    2     -0.93      0.00
   21   13    2     -0.65      0.00
   23   13    2     -0.21      0.00
  -22   14    2      0.30      0.00
  -20   14    2      0.81      0.00
  -18   14    2      2.11      0.00
  -16   14    2      4.20      0.00
  -14   14    2      4.34      0.00
  -12   14    2      3.03      0.00
  -10   14    2      5.04      0.00
   -8   14    2      8.36      0.00
   -6   14    2     10.16      0.00
   -4   14    2     15.88      0.00
   -2   14    2     19.48      0.00
    0   14    2      8.56      0.00
    2   14    2     -4.12      0.00
    4   14    2     -2.55      0.00
    6   14    2      2.78      0.00
    8   14    2      1.73      0.00
   10   14    2      0.42      0.00
   12   14    2      0.90      0.00
   14   14    2     -0.47      0.00
   16   14    2     -1.35      0.00
   18   14    2      0.00      0.00
   20   14    2      0.60      0.00
   22   14    2      0.25      0.00
  -21   15    2     -0.52      0.00
  -19   15    2     -1.34      0.00
  -17   15    2     -2.89      0.00
  -15   15    2     -4.13      0.00
  -13   15    2     -3.25      0.00
  -11   15    2     -3.00      0.00
   -9   15    2     -5.79      0.00
   -7   15    2     -8.02      0.00
   -5   15    2    -10.91      0.00
   -3   15    2    -16.32      0.00
   -1   15    2    -13.36      0.00
    1   15    2     -0.90      0.00
    3   15    2      4.18      0.00
    5   15    2     -0.39      0.00
    7   15    2     -2.38      0.00
    9   15    2     -0.97      0.00
   11   15    2     -0.91      0.00
   13   15    2     -0.48      0.00
   15   15    2      0.86      0.00
   17   15    2      0.45      0.00
   19   15    2     -0.50      0.00
   21   15    2     -0.39      0.00
  -18   16    2      1.64      0.00
  -16   16    2      2.95      0.00
  -14   16    2      3.23      0.00
  -12   16    2      2.29      0.00
  -10   16    2      3.39      0.00
   -8   16    2      6.16      0.00
   -6   16    2      8.18      0.00
   -4   16    2     12.25      0.00
   -2   16    2     14.50      0.00
    0   16    2      6.80      0.00
    2   16    2     -2.15      0.00
    4   16    2     -1.61      0.00
    6   16    2      1.82      0.00
    8   16    2      1.62      0.00
   10   16    2      0.84      0.00
   12   16    2      0.60      0.00
   14   16    2     -0.50      0.00
   16   16    2     -0.92      0.00
   18   16    2     -0.10      0.00
  -17   17    2     -1.96      0.00
  -15   17    2     -2.75      0.00
  -13   17    2     -2.28      0.00
  -11   17    2     -1.84      0.00
   -9   17    2     -3.66      0.00
   -7   17    2     -5.78      0.00
   -5   17    2     -8.11      0.00
   -3   17    2    -11.62      0.00
   -1   17    2     -9.45      0.00
    1   17    2     -1.00      0.00
    3   17    2      2.67      0.00
    5   17    2      0.06      0.00
    7   17    2     -1.45      0.00
    9   17    2     -0.99      0.00
   11   17    2     -0.71      0.00
   13   17    2     -0.04      0.00
   15   17    2      0.66      0.00
   17   17    2      0.28      0.00
  -16   18    2      1.90      0.00
  -14   18    2      2.20      0.00
  -12   18    2      1.60      0.00
  -10   18    2      2.11      0.00
   -8   18    2      4.22      0.00
   -6   18    2      6.08      0.00
   -4   18    2      8.84      0.00
   -2   18    2     10.18      0.00
    0   18    2      5.09      0.00
    2   18    2     -0.82      0.00
    4   18    2     -0.84      0.00
    6   18    2      1.13      0.00
    8   18    2      1.34      0.00
   10   18    2      0.94      0.00
   12   18    2      0.33      0.00
   14   18    2     -0.48      0.00
   16   18    2     -0.53      0.00
  -13   19    2     -1.46      0.00
  -11   19    2     -1.02      0.00
   -9   19    2     -2.12      0.00
   -7   19    2     -3.83      0.00
   -5   19    2     -5.54      0.00
   -3   19    2     -7.71      0.00
   -1   19    2     -6.29      0.00
    1   19    2     -0.95      0.00
    3   19    2      1.50      0.00
    5   19    2      0.17      0.00
    7   19    2     -0.80      0.00
    9   19    2     -0.81      0.00
   11   19    2     -0.48      0.00
   13   19    2      0.22      0.00
  -10   20    2      1.15      0.00
   -8   20    2      2.57      0.00
   -6   20    2      4.01      0.00
   -4   20    2      5.74      0.00
   -2   20    2      6.54      0.00
    0   20    2      3.49      0.00
    2   20    2     -0.11      0.00
    4   20    2     -0.32      0.00
    6   20    2      0.65      0.00
    8   20    2      0.90      0.00
   10   20    2      0.73      0.00
   -7   21    2     -2.26      0.00
   -5   21    2     -3.37      0.00
   -3   21    2     -4.61      0.00
   -1   21    2     -3.86      0.00
    1   21    2     -0.83      0.00
    3   21    2      0.66      0.00
    5   21    2      0.08      0.00
    7   21    2     -0.40      0.00
  -28    0    3     -0.28      0.00
  -26    0    3      0.14      0.00
  -24    0    3      3.13      0.00
  -22    0    3      3.94      0.00
  -20    0    3      2.95      0.00
  -18    0    3      8.17      0.00
  -16    0    3     11.78      0.00
  -14    0    3      5.17      0.00
  -12    0    3      6.29      0.00
  -10    0    3     17.58      0.00
   -8    0    3     15.42      0.00
   -6    0    3     14.73      0.00
   -4    0    3     32.15      0.00
   -2    0    3     23.31      0.00
    0    0    3    -17.29      0.00
    2    0    3    -23.53      0.00
    4    0    3      6.36      0.00
    6    0    3     13.44      0.00
    8    0    3     -0.13      0.00
   10    0    3      0.75      0.00
   12    0    3      6.02      0.00
   14    0    3      1.05      0.00
   16    0    3      0.08      0.00
   18    0    3      4.53      0.00
   20    0    3      3.12      0.00
   22    0    3      0.34      0.00
   24    0    3      1.24      0.00
   26    0    3      1.33      0.00
   28    0    3     -0.02      0.00
  -27    1    3      0.31      0.00
  -25    1    3     -1.55      0.00
  -23    1    3     -4.15      0.00
  -21    1    3     -3.11      0.00
  -19    1    3     -4.79      0.00
  -17    1    3    -11.33      0.00
  -15    1    3     -9.30      0.00
  -13    1    3     -3.99      0.00
  -11    1    3    -12.98      0.00
   -9    1    3    -19.54      0.00
   -7    1    3    -13.89      0.00
   -5    1    3    -24.65      0.00
   -3    1    3    -35.65      0.00
   -1    1    3     -5.16      0.00
    1    1    3     25.39      0.00
    3    1    3      7.23      0.00
    5    1    3    -16.15      0.00
    7    1    3     -7.59      0.00
    9    1    3      1.11      0.00
   11    1    3     -4.99      0.00
   13    1    3     -4.30      0.00
   15    1    3      0.83      0.00
   17    1    3     -2.30      0.00
   19    1    3     -4.34      0.00
   21    1    3     -1.02      0.00
   23    1    3     -0.37      0.00
   25    1    3     -1.50      0.00
   27    1    3     -0.58      0.00
  -28    2    3     -0.23      0.00
  -26    2    3      0.16      0.00
  -24    2    3      2.99      0.00
  -22    2    3      3.83      0.00
  -20    2    3      2.96      0.00
  -18    2    3      8.01      0.00
  -16    2    3     11.56      0.00
  -14    2    3      5.20      0.00
  -12    2    3      6.23      0.00
  -10    2    3     17.18      0.00
   -8    2    3     15.28      0.00
   -6    2    3     14.72      0.00
   -4    2    3     31.54      0.00
   -2    2    3     22.92      0.00
    0    2    3    -16.61      0.00
    2    2    3    -22.86      0.00
    4    2    3      6.21      0.00
    6    2    3     13.19      0.00
    8    2    3     -0.01      0.00
   10    2    3      0.82      0.00
   12    2    3      5.87      0.00
   14    2    3      1.03      0.00
   16    2    3      0.15      0.00
   18    2    3      4.44      0.00
   20    2    3      3.01      0.00
   22    2    3      0.34      0.00
   24    2    3      1.21      0.00
   26    2    3      1.23      0.00
   28    2    3     -0.07      0.00
  -27    3    3      0.15      0.00
  -25    3    3     -1.46      0.00
  -23    3    3     -3.85      0.00
  -21    3    3     -3.04      0.00
  -19    3    3     -4.64      0.00
  -17    3    3    -10.75      0.00
  -15    3    3     -8.93      0.00
  -13    3    3     -3.89      0.00
  -11    3    3    -12.17      0.00
   -9    3    3    -18.50      0.00
   -7    3    3    -13.54      0.00
   -5    3    3    -23.64      0.00
   -3    3    3    -33.83      0.00
   -1    3    3     -4.98      0.00
    1    3    3     24.18      0.00
    3    3    3      7.20      0.00
    5    3    3    -15.11      0.00
    7    3    3     -7.14      0.00
    9    3    3      1.08      0.00
   11    3    3     -4.64      0.00
   13    3    3     -3.93      0.00
   15    3    3      0.78      0.00
   17    3    3     -2.28      0.00
   19    3    3     -4.11      0.00
   21    3    3     -0.98      0.00
   23    3    3     -0.47      0.00
   25    3    3     -1.47      0.00
   27    3    3     -0.52      0.00
  -28    4    3     -0.12      0.00
  -26    4    3      0.19      0.00
  -24    4    3      2.59      0.00
  -22    4    3      3.53      0.00
  -20    4    3      2.95      0.00
  -18    4    3      7.56      0.00
  -16    4    3     10.91      0.00
  -14    4    3      5.25      0.00
  -12    4    3      6.03      0.00
  -10    4    3     16.03      0.00
   -8    4    3     14.83      0.00
   -6    4    3     14.62      0.00
   -4    4    3     29.79      0.00
   -2    4    3     21.77      0.00
    0    4    3    -14.77      0.00
    2    4    3    -21.00      0.00
    4    4    3      5.77      0.00
    6    4    3     12.46      0.00
    8    4    3      0.32      0.00
   10    4    3      1.00      0.00
   12    4    3      5.45      0.00
   14    4    3      0.96      0.00
   16    4    3      0.33      0.00
   18    4    3      4.19      0.00
   20    4    3      2.70      0.00
   22    4    3      0.32      0.00
   24    4    3      1.12      0.00
   26    4    3      0.96      0.00
   28    4    3     -0.19      0.00
  -27    5    3     -0.09      0.00
  -25    5    3     -1.27      0.00
  -23    5    3     -3.33      0.00
  -21    5    3     -2.88      0.00
  -19    5    3     -4.31      0.00
  -17    5    3     -9.69      0.00
  -15    5    3     -8.23      0.00
  -13    5    3     -3.64      0.00
  -11    5    3    -10.70      0.00
   -9    5    3    -16.67      0.00
   -7    5    3    -12.89      0.00
   -5    5    3    -21.77      0.00
   -3    5    3    -30.56      0.00
   -1    5    3     -4.68      0.00
    1    5    3     21.93      0.00
    3    5    3      7.06      0.00
    5    5    3    -13.28      0.00
    7    5    3     -6.37      0.00
    9    5    3      0.99      0.00
   11    5    3     -4.04      0.00
   13    5    3     -3.26      0.00
   15    5    3      0.73      0.00
   17    5    3     -2.21      0.00
   19    5    3     -3.70      0.00
   21    5    3     -0.92      0.00
   23    5    3     -0.59      0.00
   25    5    3     -1.37      0.00
   27    5    3     -0.44      0.00
  -26    6    3      0.20      0.00
  -24    6    3      2.05      0.00
  -22    6    3      3.10      0.00
  -20    6    3      2.86      0.00
  -18    6    3      6.81      0.00
  -16    6    3      9.90      0.00
  -14    6    3      5.18      0.00
  -12    6    3      5.57      0.00
  -10    6    3     14.27      0.00
   -8    6    3     14.06      0.00
   -6    6    3     14.27      0.00
   -4    6    3     27.06      0.00
   -2    6    3     19.95      0.00
    0    6    3    -12.21      0.00
    2    6    3    -18.33      0.00
    4    6    3      5.06      0.00
    6    6    3     11.29      0.00
    8    6    3      0.73      0.00
   10    6    3      1.20      0.00
   12    6    3      4.80      0.00
   14    6    3      0.81      0.00
   16    6    3      0.50      0.00
   18    6    3      3.78      0.00
   20    6    3      2.29      0.00
   22    6    3      0.29      0.00
   24    6    3      0.95      0.00
   26    6    3      0.63      0.00
  -27    7    3     -0.28      0.00
  -25    7    3     -1.00      0.00
  -23    7    3     -2.69      0.00
  -21    7    3     -2.62      0.00
  -19    7    3     -3.83      0.00
  -17    7    3     -8.32      0.00
  -15    7    3     -7.30      0.00
  -13    7    3     -3.25      0.00
  -11    7    3     -8.82      0.00
   -9    7    3    -14.39      0.00
   -7    7    3    -12.01      0.00
   -5    7    3    -19.34      0.00
   -3    7    3    -26.42      0.00
   -1    7    3     -4.34      0.00
    1    7    3     18.94      0.00
    3    7    3      6.73      0.00
    5    7    3    -11.01      0.00
    7    7    3     -5.45      0.00
    9    7    3      0.81      0.00
   11    7    3     -3.30      0.00
   13    7    3     -2.46      0.00
   15    7    3      0.70      0.00
   17    7    3     -2.02      0.00
   19    7    3     -3.16      0.00
   21    7    3     -0.82      0.00
   23    7    3     -0.65      0.00
   25    7    3     -1.18      0.00
   27    7    3     -0.36      0.00
  -26    8    3      0.17      0.00
  -24    8    3      1.47      0.00
  -22    8    3      2.59      0.00
  -20    8    3      2.65      0.00
  -18    8    3      5.84      0.00
  -16    8    3      8.59      0.00
  -14    8    3      4.88      0.00
  -12    8    3      4.81      0.00
  -10    8    3     12.07      0.00
   -8    8    3     12.93      0.00
   -6    8    3     13.49      0.00
   -4    8    3     23.61      0.00
   -2    8    3     17.57      0.00
    0    8    3     -9.44      0.00
    2    8    3    -15.30      0.00
    4    8    3      4.12      0.00
    6    8    3      9.78      0.00
    8    8    3      1.12      0.00
   10    8    3      1.33      0.00
   12    8    3      3.99      0.00
   14    8    3      0.59      0.00
   16    8    3      0.56      0.00
   18    8    3      3.24      0.00
   20    8    3      1.86      0.00
   22    8    3      0.26      0.00
   24    8    3      0.73      0.00
   26    8    3      0.33      0.00
  -25    9    3     -0.69      0.00
  -23    9    3     -2.02      0.00
  -21    9    3     -2.27      0.00
  -19    9    3     -3.24      0.00
  -17    9    3     -6.80      0.00
  -15    9    3     -6.22      0.00
  -13    9    3     -2.75      0.00
  -11    9    3     -6.84      0.00
   -9    9    3    -12.01      0.00
   -7    9    3    -11.00      0.00
   -5    9    3    -16.69      0.00
   -3    9    3    -22.01      0.00
   -1    9    3     -4.02      0.00
    1    9    3     15.51      0.00
    3    9    3      6.11      0.00
    5    9    3     -8.65      0.00
    7    9    3     -4.59      0.00
    9    9    3      0.49      0.00
   11    9    3     -2.57      0.00
   13    9    3     -1.68      0.00
   15    9    3      0.70      0.00
   17    9    3     -1.69      0.00
   19    9    3     -2.54      0.00
   21    9    3     -0.69      0.00
   23    9    3     -0.60      0.00
   25    9    3     -0.90      0.00
  -24   10    3      0.96      0.00
  -22   10    3      2.05      0.00
  -20   10    3      2.33      0.00
  -18   10    3      4.75      0.00
  -16   10    3      7.07      0.00
  -14   10    3      4.30      0.00
  -12   10    3      3.81      0.00
  -10   10    3      9.66      0.00
   -8   10    3     11.44      0.00
   -6   10    3     12.26      0.00
   -4   10    3     19.75      0.00
   -2   10    3     14.80      0.00
    0   10    3     -6.90      0.00
    2   10    3    -12.27      0.00
    4   10    3      3.01      0.00
    6   10    3      8.01      0.00
    8   10    3      1.41      0.00
   10   10    3      1.34      0.00
   12   10    3      3.07      0.00
   14   10    3      0.34      0.00
   16   10    3      0.51      0.00
   18   10    3      2.61      0.00
   20   10    3      1.45      0.00
   22   10    3      0.25      0.00
   24   10    3      0.51      0.00
  -23   11    3     -1.40      0.00
  -21   11    3     -1.86      0.00
  -19   11    3     -2.63      0.00
  -17   11    3     -5.29      0.00
  -15   11    3     -5.07      0.00
  -13   11    3     -2.21      0.00
  -11   11    3     -5.01      0.00
   -9   11    3     -9.74      0.00
   -7   11    3     -9.89      0.00
   -5   11    3    -14.07      0.00
   -3   11    3    -17.75      0.00
   -1   11    3     -3.71      0.00
    1   11    3     11.93      0.00
    3   11    3      5.19      0.00
    5   11    3     -6.48      0.00
    7   11    3     -3.87      0.00
    9   11    3      0.04      0.00
   11   11    3     -1.91      0.00
   13   11    3     -1.00      0.00
   15   11    3      0.68      0.00
   17   11    3     -1.29      0.00
   19   11    3     -1.89      0.00
   21   11    3     -0.54      0.00
   23   11    3     -0.49      0.00
  -24   12    3      0.57      0.00
  -22   12    3      1.52      0.00
  -20   12    3      1.95      0.00
  -18   12    3      3.66      0.00
  -16   12    3      5.46      0.00
  -14   12    3      3.50      0.00
  -12   12    3      2.73      0.00
  -10   12    3      7.26      0.00
   -8   12    3      9.65      0.00
   -6   12    3     10.65      0.00
   -4   12    3     15.83      0.00
   -2   12    3     11.83      0.00
    0   12    3     -4.81      0.00
    2   12    3     -9.45      0.00
    4   12    3      1.87      0.00
    6   12    3      6.16      0.00
    8   12    3      1.58      0.00
   10   12    3      1.23      0.00
   12   12    3      2.13      0.00
   14   12    3      0.08      0.00
   16   12    3      0.39      0.00
   18   12    3      1.94      0.00
   20   12    3      1.07      0.00
   22   12    3      0.26      0.00
   24   12    3      0.34      0.00
  -23   13    3     -0.87      0.00
  -21   13    3     -1.45      0.00
  -19   13    3     -2.07      0.00
  -17   13    3     -3.90      0.00
  -15   13    3     -3.92      0.00
  -13   13    3     -1.72      0.00
  -11   13    3     -3.50      0.00
   -9   13    3     -7.67      0.00
   -7   13    3     -8.66      0.00
   -5   13    3    -11.63      0.00
   -3   13    3    -13.91      0.00
   -1   13    3     -3.38      0.00
    1   13    3      8.51      0.00
    3   13    3      4.06      0.00
    5   13    3     -4.62      0.00
    7   13    3     -3.30      0.00
    9   13    3     -0.45      0.00
   11   13    3     -1.35      0.00
   13   13    3     -0.46      0.00
   15   13    3      0.61      0.00
   17   13    3     -0.89      0.00
   19   13    3     -1.26      0.00
   21   13    3     -0.37      0.00
   23   13    3     -0.36      0.00
  -22   14    3      1.04      0.00
  -20   14    3      1.55      0.00
  -18   14    3      2.65      0.00
  -16   14    3      3.90      0.00
  -14   14    3      2.61      0.00
  -12   14    3      1.75      0.00
  -10   14    3      5.08      0.00
   -8   14    3      7.68      0.00
   -6   14    3      8.79      0.00
   -4   14    3     12.13      0.00
   -2   14    3      8.93      0.00
    0   14    3     -3.20      0.00
    2   14    3     -6.94      0.00
    4   14    3      0.87      0.00
    6   14    3      4.39      0.00
    8   14    3      1.60      0.00
   10   14    3      1.03      0.00
   12   14    3      1.24      0.00
   14   14    3     -0.12      0.00
   16   14    3      0.27      0.00
   18   14    3      1.32      0.00
   20   14    3      0.71      0.00
   22   14    3      0.28      0.00
  -19   15    3     -1.57      0.00
  -17   15    3     -2.70      0.00
  -15   15    3     -2.82      0.00
  -13   15    3     -1.29      0.00
  -11   15    3     -2.35      0.00
   -9   15    3     -5.80      0.00
   -7   15    3     -7.26      0.00
   -5   15    3     -9.34      0.00
   -3   15    3    -10.56      0.00
   -1   15    3     -2.98      0.00
    1   15    3      5.53      0.00
    3   15    3      2.87      0.00
    5   15    3     -3.13      0.00
    7   15    3     -2.76      0.00
    9   15    3     -0.84      0.00
   11   15    3     -0.89      0.00
   13   15    3     -0.09      0.00
   15   15    3      0.47      0.00
   17   15    3     -0.57      0.00
   19   15    3     -0.70      0.00
  -18   16    3      1.79      0.00
  -16   16    3      2.53      0.00
  -14   16    3      1.75      0.00
  -12   16    3      1.00      0.00
  -10   16    3      3.29      0.00
   -8   16    3      5.71      0.00
   -6   16    3      6.83      0.00
   -4   16    3      8.85      0.00
   -2   16    3      6.36      0.00
    0   16    3     -2.00      0.00
    2   16    3     -4.79      0.00
    4   16    3      0.17      0.00
    6   16    3      2.85      0.00
    8   16    3      1.44      0.00
   10   16    3      0.77      0.00
   12   16    3      0.52      0.00
   14   16    3     -0.25      0.00
   16   16    3      0.20      0.00
   18   16    3      0.80      0.00
  -17   17    3     -1.71      0.00
  -15   17    3     -1.85      0.00
  -13   17    3     -0.90      0.00
  -11   17    3     -1.50      0.00
   -9   17    3     -4.13      0.00
   -7   17    3     -5.67      0.00
   -5   17    3     -7.12      0.00
   -3   17    3     -7.66      0.00
   -1   17    3     -2.50      0.00
    1   17    3      3.20      0.00
    3   17    3      1.79      0.00
    5   17    3     -1.98      0.00
    7   17    3     -2.15      0.00
    9   17    3     -0.97      0.00
   11   17    3     -0.51      0.00
   13   17    3      0.16      0.00
   15   17    3      0.29      0.00
   17   17    3     -0.35      0.00
  -16   18    3      1.46      0.00
  -14   18    3      1.04      0.00
  -12   18    3      0.48      0.00
  -10   18    3      1.94      0.00
   -8   18    3      3.91      0.00
   -6   18    3      4.92      0.00
   -4   18    3      6.07      0.00
   -2   18    3      4.29      0.00
    0   18    3     -1.10      0.00
    2   18    3     -3.03      0.00
    4   18    3     -0.18      0.00
    6   18    3      1.65      0.00
    8   18    3      1.11      0.00
   10   18    3      0.49      0.00
   12   18    3      0.03      0.00
   14   18    3     -0.28      0.00
   16   18    3      0.17      0.00
  -13   19    3     -0.54      0.00
  -11   19    3     -0.85      0.00
   -9   19    3     -2.65      0.00
   -7   19    3     -3.99      0.00
   -5   19    3     -4.97      0.00
   -3   19    3     -5.17      0.00
   -1   19    3     -1.95      0.00
    1   19    3      1.60      0.00
    3   19    3      0.98      0.00
    5   19    3     -1.14      0.00
    7   19    3     -1.46      0.00
    9   19    3     -0.80      0.00
   11   19    3     -0.20      0.00
   13   19    3      0.28      0.00
  -10   20    3      1.00      0.00
   -8   20    3      2.40      0.00
   -6   20    3      3.19      0.00
   -4   20    3      3.83      0.00
   -2   20    3      2.73      0.00
    0   20    3     -0.42      0.00
    2   20    3     -1.68      0.00
    4   20    3     -0.23      0.00
    6   20    3      0.82      0.00
    8   20    3      0.68      0.00
   10   20    3      0.22      0.00
   -7   21    3     -2.38      0.00
   -5   21    3     -2.99      0.00
   -3   21    3     -3.09      0.00
   -1   21    3     -1.36      0.00
    1   21    3      0.65      0.00
    3   21    3      0.48      0.00
    5   21    3     -0.55      0.00
    7   21    3     -0.75      0.00
  -28    0    4      0.03      0.00
  -26    0    4      1.73      0.00
  -24    0    4      4.48      0.00
  -22    0    4      3.05      0.00
  -20    0    4      2.42      0.00
  -18    0    4      7.44      0.00
  -16    0    4      6.06      0.00
  -14    0    4     -0.58      0.00
  -12    0    4      5.75      0.00
  -10    0    4     13.58      0.00
   -8    0    4      8.45      0.00
   -6    0    4     13.09      0.00
   -4    0    4     21.51      0.00
   -2    0    4     -0.72      0.00
    0    0    4    -23.28      0.00
    2    0    4     -3.15      0.00
    4    0    4     21.80      0.00
    6    0    4     12.81      0.00
    8    0    4      0.28      0.00
   10    0    4      5.40      0.00
   12    0    4      6.39      0.00
   14    0    4      0.62      0.00
   16    0    4      2.22      0.00
   18    0    4      3.95      0.00
   20    0    4      0.38      0.00
   22    0    4     -0.46      0.00
   24    0    4      0.89      0.00
   26    0    4      0.08      0.00
   28    0    4     -0.76      0.00
  -27    1    4     -0.40      0.00
  -25    1    4     -3.22      0.00
  -23    1    4     -4.18      0.00
  -21    1    4     -1.85      0.00
  -19    1    4     -4.59      0.00
  -17    1    4     -8.04      0.00
  -15    1    4     -1.77      0.00
  -13    1    4     -0.23      0.00
  -11    1    4    -10.44      0.00
   -9    1    4    -10.59      0.00
   -7    1    4     -6.98      0.00
   -5    1    4    -17.87      0.00
   -3    1    4    -12.38      0.00
   -1    1    4     17.91      0.00
    1    1    4     19.69      0.00
    3    1    4    -11.00      0.00
    5    1    4    -19.22      0.00
    7    1    4     -3.18      0.00
    9    1    4     -0.95      0.00
   11    1    4     -7.15      0.00
   13    1    4     -3.07      0.00
   15    1    4     -0.65      0.00
   17    1    4     -4.17      0.00
   19    1    4     -2.64      0.00
   21    1    4      0.38      0.00
   23    1    4     -0.57      0.00
   25    1    4     -0.83      0.00
   27    1    4      0.48      0.00
  -28    2    4      0.08      0.00
  -26    2    4      1.66      0.00
  -24    2    4      4.32      0.00
  -22    2    4      3.01      0.00
  -20    2    4      2.38      0.00
  -18    2    4      7.20      0.00
  -16    2    4      5.89      0.00
  -14    2    4     -0.58      0.00
  -12    2    4      5.47      0.00
  -10    2    4     13.15      0.00
   -8    2    4      8.34      0.00
   -6    2    4     12.78      0.00
   -4    2    4     20.86      0.00
   -2    2    4     -0.74      0.00
    0    2    4    -22.77      0.00
    2    2    4     -3.23      0.00
    4    2    4     21.15      0.00
    6    2    4     12.45      0.00
    8    2    4      0.27      0.00
   10    2    4      5.23      0.00
   12    2    4      6.14      0.00
   14    2    4      0.61      0.00
   16    2    4      2.23      0.00
   18    2    4      3.83      0.00
   20    2    4      0.36      0.00
   22    2    4     -0.40      0.00
   24    2    4      0.89      0.00
   26    2    4      0.05      0.00
   28    2    4     -0.70      0.00
  -27    3    4     -0.37      0.00
  -25    3    4     -2.91      0.00
  -23    3    4     -3.95      0.00
  -21    3    4     -1.87      0.00
  -19    3    4     -4.38      0.00
  -17    3    4     -7.67      0.00
  -15    3    4     -1.85      0.00
  -13    3    4     -0.27      0.00
  -11    3    4     -9.90      0.00
   -9    3    4    -10.42      0.00
   -7    3    4     -7.15      0.00
   -5    3    4    -17.19      0.00
   -3    3    4    -11.98      0.00
   -1    3    4     16.71      0.00
    1    3    4     18.61      0.00
    3    3    4    -10.51      0.00
    5    3    4    -18.46      0.00
    7    3    4     -3.25      0.00
    9    3    4     -1.11      0.00
   11    3    4     -6.82      0.00
   13    3    4     -2.92      0.00
   15    3    4     -0.78      0.00
   17    3    4     -4.03      0.00
   19    3    4     -2.42      0.00
   21    3    4      0.38      0.00
   23    3    4     -0.54      0.00
   25    3    4     -0.64      0.00
   27    3    4      0.59      0.00
  -28    4    4      0.18      0.00
  -26    4    4      1.46      0.00
  -24    4    4      3.87      0.00
  -22    4    4      2.89      0.00
  -20    4    4      2.26      0.00
  -18    4    4      6.54      0.00
  -16    4    4      5.45      0.00
  -14    4    4     -0.58      0.00
  -12    4    4      4.69      0.00
  -10    4    4     12.01      0.00
   -8    4    4      8.05      0.00
   -6    4    4     11.91      0.00
   -4    4    4     19.07      0.00
   -2    4    4     -0.75      0.00
    0    4    4    -21.28      0.00
    2    4    4     -3.42      0.00
    4    4    4     19.35      0.00
    6    4    4     11.47      0.00
    8    4    4      0.25      0.00
   10    4    4      4.76      0.00
   12    4    4      5.45      0.00
   14    4    4      0.56      0.00
   16    4    4      2.23      0.00
   18    4    4      3.52      0.00
   20    4    4      0.30      0.00
   22    4    4     -0.23      0.00
   24    4    4      0.86      0.00
   26    4    4     -0.03      0.00
   28    4    4     -0.55      0.00
  -27    5    4     -0.30      0.00
  -25    5    4     -2.38      0.00
  -23    5    4     -3.54      0.00
  -21    5    4     -1.88      0.00
  -19    5    4     -3.97      0.00
  -17    5    4     -6.99      0.00
  -15    5    4     -1.96      0.00
  -13    5    4     -0.29      0.00
  -11    5    4     -8.89      0.00
   -9    5    4    -10.06      0.00
   -7    5    4     -7.36      0.00
   -5    5    4    -15.90      0.00
   -3    5    4    -11.20      0.00
   -1    5    4     14.57      0.00
    1    5    4     16.68      0.00
    3    5    4     -9.59      0.00
    5    5    4    -17.02      0.00
    7    5    4     -3.35      0.00
    9    5    4     -1.35      0.00
   11    5    4     -6.21      0.00
   13    5    4     -2.63      0.00
   15    5    4     -0.97      0.00
   17    5    4     -3.76      0.00
   19    5    4     -2.05      0.00
   21    5    4      0.37      0.00
   23    5    4     -0.48      0.00
   25    5    4     -0.35      0.00
   27    5    4      0.70      0.00
  -26    6    4      1.16      0.00
  -24    6    4      3.23      0.00
  -22    6    4      2.69      0.00
  -20    6    4      2.03      0.00
  -18    6    4      5.59      0.00
  -16    6    4      4.81      0.00
  -14    6    4     -0.59      0.00
  -12    6    4      3.62      0.00
  -10    6    4     10.43      0.00
   -8    6    4      7.65      0.00
   -6    6    4     10.67      0.00
   -4    6    4     16.53      0.00
   -2    6    4     -0.67      0.00
    0    6    4    -18.98      0.00
    2    6    4     -3.58      0.00
    4    6    4     16.77      0.00
    6    6    4     10.10      0.00
    8    6    4      0.28      0.00
   10    6    4      4.10      0.00
   12    6    4      4.50      0.00
   14    6    4      0.48      0.00
   16    6    4      2.17      0.00
   18    6    4      3.07      0.00
   20    6    4      0.24      0.00
   22    6    4     -0.04      0.00
   24    6    4      0.80      0.00
   26    6    4     -0.07      0.00
  -27    7    4     -0.20      0.00
  -25    7    4     -1.76      0.00
  -23    7    4     -3.04      0.00
  -21    7    4     -1.83      0.00
  -19    7    4     -3.39      0.00
  -17    7    4     -6.09      0.00
  -15    7    4     -2.01      0.00
  -13    7    4     -0.22      0.00
  -11    7    4     -7.58      0.00
   -9    7    4     -9.50      0.00
   -7    7    4     -7.44      0.00
   -5    7    4    -14.11      0.00
   -3    7    4    -10.09      0.00
   -1    7    4     11.94      0.00
    1    7    4     14.25      0.00
    3    7    4     -8.30      0.00
    5    7    4    -15.06      0.00
    7    7    4     -3.43      0.00
    9    7    4     -1.58      0.00
   11    7    4     -5.38      0.00
   13    7    4     -2.24      0.00
   15    7    4     -1.11      0.00
   17    7    4     -3.38      0.00
   19    7    4     -1.67      0.00
   21    7    4      0.30      0.00
   23    7    4     -0.40      0.00
   25    7    4     -0.09      0.00
   27    7    4      0.71      0.00
  -26    8    4      0.80      0.00
  -24    8    4      2.53      0.00
  -22    8    4      2.41      0.00
  -20    8    4      1.73      0.00
  -18    8    4      4.50      0.00
  -16    8    4      4.09      0.00
  -14    8    4     -0.58      0.00
  -12    8    4      2.48      0.00
  -10    8    4      8.74      0.00
   -8    8    4      7.21      0.00
   -6    8    4      9.29      0.00
   -4    8    4     13.71      0.00
   -2    8    4     -0.47      0.00
    0    8    4    -16.08      0.00
    2    8    4     -3.56      0.00
    4    8    4     13.83      0.00
    6    8    4      8.62      0.00
    8    8    4      0.43      0.00
   10    8    4      3.36      0.00
   12    8    4      3.47      0.00
   14    8    4      0.37      0.00
   16    8    4      2.00      0.00
   18    8    4      2.56      0.00
   20    8    4      0.22      0.00
   22    8    4      0.12      0.00
   24    8    4      0.68      0.00
   26    8    4     -0.06      0.00
  -25    9    4     -1.17      0.00
  -23    9    4     -2.47      0.00
  -21    9    4     -1.68      0.00
  -19    9    4     -2.72      0.00
  -17    9    4     -5.03      0.00
  -15    9    4     -1.92      0.00
  -13    9    4     -0.05      0.00
  -11    9    4     -6.10      0.00
   -9    9    4     -8.70      0.00
   -7    9    4     -7.25      0.00
   -5    9    4    -12.00      0.00
   -3    9    4     -8.67      0.00
   -1    9    4      9.25      0.00
    1    9    4     11.65      0.00
    3    9    4     -6.73      0.00
    5    9    4    -12.74      0.00
    7    9    4     -3.43      0.00
    9    9    4     -1.70      0.00
   11    9    4     -4.40      0.00
   13    9    4     -1.80      0.00
   15    9    4     -1.13      0.00
   17    9    4     -2.90      0.00
   19    9    4     -1.33      0.00
   21    9    4      0.17      0.00
   23    9    4     -0.32      0.00
   25    9    4      0.07      0.00
  -24   10    4      1.83      0.00
  -22   10    4      2.03      0.00
  -20   10    4      1.40      0.00
  -18   10    4      3.42      0.00
  -16   10    4      3.33      0.00
  -14   10    4     -0.53      0.00
  -12   10    4      1.51      0.00
  -10   10    4      7.15      0.00
   -8   10    4      6.76      0.00
   -6   10    4      7.97      0.00
   -4   10    4     10.99      0.00
   -2   10    4     -0.15      0.00
    0   10    4    -12.85      0.00
    2   10    4     -3.27      0.00
    4   10    4     10.91      0.00
    6   10    4      7.23      0.00
    8   10    4      0.69      0.00
   10   10    4      2.65      0.00
   12   10    4      2.51      0.00
   14   10    4      0.26      0.00
   16   10    4      1.72      0.00
   18   10    4      2.03      0.00
   20   10    4      0.22      0.00
   22   10    4      0.23      0.00
   24   10    4      0.51      0.00
  -23   11    4     -1.89      0.00
  -21   11    4     -1.45      0.00
  -19   11    4     -2.04      0.00
  -17   11    4     -3.88      0.00
  -15   11    4     -1.65      0.00
  -13   11    4      0.18      0.00
  -11   11    4     -4.61      0.00
   -9   11    4     -7.62      0.00
   -7   11    4     -6.72      0.00
   -5   11    4     -9.75      0.00
   -3   11    4     -7.03      0.00
   -1   11    4      6.85      0.00
    1   11    4      9.14      0.00
    3   11    4     -5.04      0.00
    5   11    4    -10.22      0.00
    7   11    4     -3.30      0.00
    9   11    4     -1.65      0.00
   11   11    4     -3.34      0.00
   13   11    4     -1.33      0.00
   15   11    4     -1.04      0.00
   17   11    4     -2.35      0.00
   19   11    4     -1.05      0.00
   21   11    4      0.00      0.00
   23   11    4     -0.29      0.00
  -22   12    4      1.58      0.00
  -20   12    4      1.08      0.00
  -18   12    4      2.44      0.00
  -16   12    4      2.56      0.00
  -14   12    4     -0.43      0.00
  -12   12    4      0.82      0.00
  -10   12    4      5.73      0.00
   -8   12    4      6.21      0.00
   -6   12    4      6.80      0.00
   -4   12    4      8.59      0.00
   -2   12    4      0.20      0.00
    0   12    4     -9.58      0.00
    2   12    4     -2.72      0.00
    4   12    4      8.22      0.00
    6   12    4      5.99      0.00
    8   12    4      1.02      0.00
   10   12    4      2.01      0.00
   12   12    4      1.68      0.00
   14   12    4      0.17      0.00
   16   12    4      1.37      0.00
   18   12    4      1.48      0.00
   20   12    4      0.20      0.00
   22   12    4      0.27      0.00
  -21   13    4     -1.14      0.00
  -19   13    4     -1.42      0.00
  -17   13    4     -2.74      0.00
  -15   13    4     -1.23      0.00
  -13   13    4      0.38      0.00
  -11   13    4     -3.23      0.00
   -9   13    4     -6.30      0.00
   -7   13    4     -5.88      0.00
   -5   13    4     -7.56      0.00
   -3   13    4     -5.30      0.00
   -1   13    4      4.89      0.00
    1   13    4      6.87      0.00
    3   13    4     -3.38      0.00
    5   13    4     -7.70      0.00
    7   13    4     -3.01      0.00
    9   13    4     -1.45      0.00
   11   13    4     -2.28      0.00
   13   13    4     -0.86      0.00
   15   13    4     -0.85      0.00
   17   13    4     -1.77      0.00
   19   13    4     -0.78      0.00
   21   13    4     -0.16      0.00
  -20   14    4      0.80      0.00
  -18   14    4      1.61      0.00
  -16   14    4      1.80      0.00
  -14   14    4     -0.32      0.00
  -12   14    4      0.42      0.00
  -10   14    4      4.45      0.00
   -8   14    4      5.48      0.00
   -6   14    4      5.74      0.00
   -4   14    4      6.56      0.00
   -2   14    4      0.48      0.00
    0   14    4     -6.58      0.00
    2   14    4     -2.02      0.00
    4   14    4      5.88      0.00
    6   14    4      4.85      0.00
    8   14    4      1.29      0.00
   10   14    4      1.44      0.00
   12   14    4      1.01      0.00
   14   14    4      0.10      0.00
   16   14    4      1.01      0.00
   18   14    4      0.97      0.00
   20   14    4      0.13      0.00
  -19   15    4     -0.91      0.00
  -17   15    4     -1.70      0.00
  -15   15    4     -0.75      0.00
  -13   15    4      0.50      0.00
  -11   15    4     -2.08      0.00
   -9   15    4     -4.82      0.00
   -7   15    4     -4.80      0.00
   -5   15    4     -5.58      0.00
   -3   15    4     -3.69      0.00
   -1   15    4      3.38      0.00
    1   15    4      4.91      0.00
    3   15    4     -1.97      0.00
    5   15    4     -5.36      0.00
    7   15    4     -2.54      0.00
    9   15    4     -1.14      0.00
   11   15    4     -1.32      0.00
   13   15    4     -0.45      0.00
   15   15    4     -0.65      0.00
   17   15    4     -1.22      0.00
   19   15    4     -0.50      0.00
  -18   16    4      0.94      0.00
  -16   16    4      1.10      0.00
  -14   16    4     -0.24      0.00
  -12   16    4      0.21      0.00
  -10   16    4      3.28      0.00
   -8   16    4      4.51      0.00
   -6   16    4      4.67      0.00
   -4   16    4      4.85      0.00
   -2   16    4      0.63      0.00
    0   16    4     -4.11      0.00
    2   16    4     -1.32      0.00
    4   16    4      3.94      0.00
    6   16    4      3.72      0.00
    8   16    4      1.35      0.00
   10   16    4      0.95      0.00
   12   16    4      0.49      0.00
   14   16    4      0.07      0.00
   16   16    4      0.70      0.00
   18   16    4      0.53      0.00
  -17   17    4     -0.87      0.00
  -15   17    4     -0.32      0.00
  -13   17    4      0.50      0.00
  -11   17    4     -1.20      0.00
   -9   17    4     -3.38      0.00
   -7   17    4     -3.62      0.00
   -5   17    4     -3.90      0.00
   -3   17    4     -2.39      0.00
   -1   17    4      2.20      0.00
    1   17    4      3.28      0.00
    3   17    4     -0.94      0.00
    5   17    4     -3.37      0.00
    7   17    4     -1.93      0.00
    9   17    4     -0.78      0.00
   11   17    4     -0.58      0.00
   13   17    4     -0.15      0.00
   15   17    4     -0.46      0.00
   17   17    4     -0.75      0.00
  -14   18    4     -0.21      0.00
  -12   18    4      0.10      0.00
  -10   18    4      2.20      0.00
   -8   18    4      3.35      0.00
   -6   18    4      3.52      0.00
   -4   18    4      3.39      0.00
   -2   18    4      0.65      0.00
    0   18    4     -2.28      0.00
    2   18    4     -0.76      0.00
    4   18    4      2.41      0.00
    6   18    4      2.58      0.00
    8   18    4      1.16      0.00
   10   18    4      0.53      0.00
   12   18    4      0.14      0.00
   14   18    4      0.07      0.00
  -13   19    4      0.42      0.00
  -11   19    4     -0.60      0.00
   -9   19    4     -2.12      0.00
   -7   19    4     -2.48      0.00
   -5   19    4     -2.54      0.00
   -3   19    4     -1.46      0.00
   -1   19    4      1.26      0.00
    1   19    4      1.99      0.00
    3   19    4     -0.32      0.00
    5   19    4     -1.87      0.00
    7   19    4     -1.25      0.00
    9   19    4     -0.43      0.00
   11   19    4     -0.10      0.00
   13   19    4      0.02      0.00
  -10   20    4      1.25      0.00
   -8   20    4      2.15      0.00
   -6   20    4      2.32      0.00
   -4   20    4      2.13      0.00
   -2   20    4      0.57      0.00
    0   20    4     -1.09      0.00
    2   20    4     -0.40      0.00
    4   20    4      1.27      0.00
    6   20    4      1.51      0.00
    8   20    4      0.75      0.00
   10   20    4      0.20      0.00
   -5   21    4     -1.47      0.00
   -3   21    4     -0.88      0.00
   -1   21    4      0.52      0.00
    1   21    4      1.01      0.00
    3   21    4     -0.04      0.00
    5   21    4     -0.85      0.00
  -28    0    5      0.28      0.00
  -26    0    5      2.52      0.00
  -24    0    5      3.13      0.00
  -22    0    5     -0.30      0.00
  -20    0    5      0.46      0.00
  -18    0    5      3.96      0.00
  -16    0    5     -1.19      0.00
  -14    0    5     -4.31      0.00
  -12    0    5      5.00      0.00
  -10    0    5      7.70      0.00
   -8    0    5      3.11      0.00
   -6    0    5      9.66      0.00
   -4    0    5      7.97      0.00
   -2    0    5    -12.89      0.00
    0    0    5    -12.44      0.00
    2    0    5     15.61      0.00
    4    0    5     22.90      0.00
    6    0    5      4.45      0.00
    8    0    5     -0.67      0.00
   10    0    5      6.34      0.00
   12    0    5      3.28      0.00
   14    0    5     -0.45      0.00
   16    0    5      2.42      0.00
   18    0    5      1.45      0.00
   20    0    5     -1.34      0.00
   22    0    5     -0.26      0.00
   24    0    5      0.33      0.00
   26    0    5     -0.77      0.00
   28    0    5     -0.69      0.00
  -27    1    5     -1.30      0.00
  -25    1    5     -3.55      0.00
  -23    1    5     -1.69      0.00
  -21    1    5      0.72      0.00
  -19    1    5     -2.91      0.00
  -17    1    5     -2.66      0.00
  -15    1    5      4.03      0.00
  -13    1    5     -0.06      0.00
  -11    1    5     -8.94      0.00
   -9    1    5     -5.70      0.00
   -7    1    5     -6.41      0.00
   -5    1    5    -13.29      0.00
   -3    1    5      0.36      0.00
   -1    1    5     15.87      0.00
    1    1    5     -2.60      0.00
    3    1    5    -25.46      0.00
    5    1    5    -15.51      0.00
    7    1    5      0.14      0.00
    9    1    5     -3.82      0.00
   11    1    5     -6.37      0.00
   13    1    5     -0.38      0.00
   15    1    5     -0.61      0.00
   17    1    5     -2.38      0.00
   19    1    5      0.69      0.00
   21    1    5      1.43      0.00
   23    1    5     -0.15      0.00
   25    1    5      0.39      0.00
   27    1    5      0.99      0.00
  -28    2    5      0.25      0.00
  -26    2    5      2.38      0.00
  -24    2    5      3.04      0.00
  -22    2    5     -0.26      0.00
  -20    2    5      0.41      0.00
  -18    2    5      3.83      0.00
  -16    2    5     -1.12      0.00
  -14    2    5     -4.22      0.00
  -12    2    5      4.83      0.00
  -10    2    5      7.64      0.00
   -8    2    5      3.23      0.00
   -6    2    5      9.47      0.00
   -4    2    5      7.84      0.00
   -2    2    5    -12.43      0.00
    0    2    5    -12.06      0.00
    2    2    5     15.29      0.00
    4    2    5     22.43      0.00
    6    2    5      4.45      0.00
    8    2    5     -0.54      0.00
   10    2    5      6.20      0.00
   12    2    5      3.20      0.00
   14    2    5     -0.35      0.00
   16    2    5      2.39      0.00
   18    2    5      1.35      0.00
   20    2    5     -1.34      0.00
   22    2    5     -0.25      0.00
   24    2    5      0.25      0.00
   26    2    5     -0.83      0.00
   28    2    5     -0.66      0.00
  -27    3    5     -1.17      0.00
  -25    3    5     -3.29      0.00
  -23    3    5     -1.66      0.00
  -21    3    5      0.71      0.00
  -19    3    5     -2.60      0.00
  -17    3    5     -2.45      0.00
  -15    3    5      3.93      0.00
  -13    3    5      0.24      0.00
  -11    3    5     -8.33      0.00
   -9    3    5     -5.54      0.00
   -7    3    5     -6.03      0.00
   -5    3    5    -12.37      0.00
   -3    3    5      0.44      0.00
   -1    3    5     15.21      0.00
    1    3    5     -2.26      0.00
    3    3    5    -24.09      0.00
    5    3    5    -14.69      0.00
    7    3    5      0.13      0.00
    9    3    5     -3.59      0.00
   11    3    5     -5.89      0.00
   13    3    5     -0.36      0.00
   15    3    5     -0.70      0.00
   17    3    5     -2.22      0.00
   19    3    5      0.72      0.00
   21    3    5      1.28      0.00
   23    3    5     -0.18      0.00
   25    3    5      0.43      0.00
   27    3    5      0.87      0.00
  -26    4    5      2.01      0.00
  -24    4    5      2.79      0.00
  -22    4    5     -0.15      0.00
  -20    4    5      0.28      0.00
  -18    4    5      3.48      0.00
  -16    4    5     -0.92      0.00
  -14    4    5     -3.96      0.00
  -12    4    5      4.37      0.00
  -10    4    5      7.48      0.00
   -8    4    5      3.53      0.00
   -6    4    5      8.92      0.00
   -4    4    5      7.47      0.00
   -2    4    5    -11.14      0.00
    0    4    5    -10.99      0.00
    2    4    5     14.38      0.00
    4    4    5     21.10      0.00
    6    4    5      4.45      0.00
    8    4    5     -0.18      0.00
   10    4    5      5.80      0.00
   12    4    5      2.96      0.00
   14    4    5     -0.09      0.00
   16    4    5      2.32      0.00
   18    4    5      1.10      0.00
   20    4    5     -1.29      0.00
   22    4    5     -0.24      0.00
   24    4    5      0.04      0.00
   26    4    5     -0.92      0.00
  -27    5    5     -0.93      0.00
  -25    5    5     -2.83      0.00
  -23    5    5     -1.60      0.00
  -21    5    5      0.69      0.00
  -19    5    5     -2.08      0.00
  -17    5    5     -2.10      0.00
  -15    5    5      3.71      0.00
  -13    5    5      0.73      0.00
  -11    5    5     -7.30      0.00
   -9    5    5     -5.30      0.00
   -7    5    5     -5.38      0.00
   -5    5    5    -10.77      0.00
   -3    5    5      0.52      0.00
   -1    5    5     13.93      0.00
    1    5    5     -1.70      0.00
    3    5    5    -21.62      0.00
    5    5    5    -13.24      0.00
    7    5    5      0.06      0.00
    9    5    5     -3.18      0.00
   11    5    5     -5.05      0.00
   13    5    5     -0.32      0.00
   15    5    5     -0.84      0.00
   17    5    5     -1.95      0.00
   19    5    5      0.72      0.00
   21    5    5      1.01      0.00
   23    5    5     -0.21      0.00
   25    5    5      0.44      0.00
   27    5    5      0.63      0.00
  -26    6    5      1.50      0.00
  -24    6    5      2.45      0.00
  -22    6    5      0.00      0.00
  -20    6    5      0.09      0.00
  -18    6    5      2.98      0.00
  -16    6    5     -0.64      0.00
  -14    6    5     -3.59      0.00
  -12    6    5      3.71      0.00
  -10    6    5      7.20      0.00
   -8    6    5      3.90      0.00
   -6    6    5      8.05      0.00
   -4    6    5      6.85      0.00
   -2    6    5     -9.31      0.00
    0    6    5     -9.45      0.00
    2    6    5     12.93      0.00
    4    6    5     19.06      0.00
    6    6    5      4.44      0.00
    8    6    5      0.28      0.00
   10    6    5      5.19      0.00
   12    6    5      2.61      0.00
   14    6    5      0.23      0.00
   16    6    5      2.19      0.00
   18    6    5      0.81      0.00
   20    6    5     -1.16      0.00
   22    6    5     -0.22      0.00
   24    6    5     -0.18      0.00
   26    6    5     -0.95      0.00
  -25    7    5     -2.28      0.00
  -23    7    5     -1.52      0.00
  -21    7    5      0.66      0.00
  -19    7    5     -1.46      0.00
  -17    7    5     -1.73      0.00
  -15    7    5      3.35      0.00
  -13    7    5      1.22      0.00
  -11    7    5     -6.13      0.00
   -9    7    5     -5.06      0.00
   -7    7    5     -4.66      0.00
   -5    7    5     -8.86      0.00
   -3    7    5      0.51      0.00
   -1    7    5     12.11      0.00
    1    7    5     -1.10      0.00
    3    7    5    -18.49      0.00
    5    7    5    -11.51      0.00
    7    7    5     -0.12      0.00
    9    7    5     -2.69      0.00
   11    7    5     -4.04      0.00
   13    7    5     -0.28      0.00
   15    7    5     -0.95      0.00
   17    7    5     -1.63      0.00
   19    7    5      0.66      0.00
   21    7    5      0.70      0.00
   23    7    5     -0.21      0.00
   25    7    5      0.40      0.00
  -26    8    5      0.99      0.00
  -24    8    5      2.06      0.00
  -22    8    5      0.14      0.00
  -20    8    5     -0.11      0.00
  -18    8    5      2.41      0.00
  -16    8    5     -0.35      0.00
  -14    8    5     -3.17      0.00
  -12    8    5      2.95      0.00
  -10    8    5      6.78      0.00
   -8    8    5      4.17      0.00
   -6    8    5      6.95      0.00
   -4    8    5      6.01      0.00
   -2    8    5     -7.28      0.00
    0    8    5     -7.72      0.00
    2    8    5     11.06      0.00
    4    8    5     16.53      0.00
    6    8    5      4.38      0.00
    8    8    5      0.71      0.00
   10    8    5      4.41      0.00
   12    8    5      2.19      0.00
   14    8    5      0.51      0.00
   16    8    5      2.00      0.00
   18    8    5      0.60      0.00
   20    8    5     -0.92      0.00
   22    8    5     -0.16      0.00
   24    8    5     -0.32      0.00
   26    8    5     -0.82      0.00
  -25    9    5     -1.70      0.00
  -23    9    5     -1.38      0.00
  -21    9    5      0.59      0.00
  -19    9    5     -0.89      0.00
  -17    9    5     -1.39      0.00
  -15    9    5      2.86      0.00
  -13    9    5      1.53      0.00
  -11    9    5     -5.02      0.00
   -9    9    5     -4.86      0.00
   -7    9    5     -4.02      0.00
   -5    9    5     -6.98      0.00
   -3    9    5      0.35      0.00
   -1    9    5      9.90      0.00
    1    9    5     -0.62      0.00
    3    9    5    -15.13      0.00
    5    9    5     -9.76      0.00
    7    9    5     -0.44      0.00
    9    9    5     -2.20      0.00
   11    9    5     -3.04      0.00
   13    9    5     -0.25      0.00
   15    9    5     -0.97      0.00
   17    9    5     -1.31      0.00
   19    9    5      0.51      0.00
   21    9    5      0.39      0.00
   23    9    5     -0.19      0.00
   25    9    5      0.29      0.00
  -24   10    5      1.63      0.00
  -22   10    5      0.24      0.00
  -20   10    5     -0.26      0.00
  -18   10    5      1.82      0.00
  -16   10    5     -0.14      0.00
  -14   10    5     -2.74      0.00
  -12   10    5      2.18      0.00
  -10   10    5      6.15      0.00
   -8   10    5      4.21      0.00
   -6   10    5      5.72      0.00
   -4   10    5      4.96      0.00
   -2   10    5     -5.38      0.00
    0   10    5     -6.01      0.00
    2   10    5      8.91      0.00
    4   10    5     13.70      0.00
    6   10    5      4.21      0.00
    8   10    5      1.00      0.00
   10   10    5      3.51      0.00
   12   10    5      1.73      0.00
   14   10    5      0.66      0.00
   16   10    5      1.74      0.00
   18   10    5      0.47      0.00
   20   10    5     -0.57      0.00
   22   10    5     -0.04      0.00
   24   10    5     -0.33      0.00
  -23   11    5     -1.15      0.00
  -21   11    5      0.49      0.00
  -19   11    5     -0.45      0.00
  -17   11    5     -1.07      0.00
  -15   11    5      2.29      0.00
  -13   11    5      1.59      0.00
  -11   11    5     -4.07      0.00
   -9   11    5     -4.63      0.00
   -7   11    5     -3.54      0.00
   -5   11    5     -5.35      0.00
   -3   11    5      0.11      0.00
   -1   11    5      7.52      0.00
    1   11    5     -0.37      0.00
    3   11    5    -11.86      0.00
    5   11    5     -8.16      0.00
    7   11    5     -0.85      0.00
    9   11    5     -1.74      0.00
   11   11    5     -2.15      0.00
   13   11    5     -0.20      0.00
   15   11    5     -0.89      0.00
   17   11    5     -1.00      0.00
   19   11    5      0.33      0.00
   21   11    5      0.11      0.00
   23   11    5     -0.16      0.00
  -22   12    5      0.26      0.00
  -20   12    5     -0.33      0.00
  -18   12    5      1.23      0.00
  -16   12    5     -0.06      0.00
  -14   12    5     -2.30      0.00
  -12   12    5      1.48      0.00
  -10   12    5      5.27      0.00
   -8   12    5      3.95      0.00
   -6   12    5      4.47      0.00
   -4   12    5      3.76      0.00
   -2   12    5     -3.82      0.00
    0   12    5     -4.48      0.00
    2   12    5      6.68      0.00
    4   12    5     10.77      0.00
    6   12    5      3.90      0.00
    8   12    5      1.10      0.00
   10   12    5      2.56      0.00
   12   12    5      1.25      0.00
   14   12    5      0.67      0.00
   16   12    5      1.43      0.00
   18   12    5      0.40      0.00
   20   12    5     -0.21      0.00
   22   12    5      0.12      0.00
  -21   13    5      0.37      0.00
  -19   13    5     -0.14      0.00
  -17   13    5     -0.74      0.00
  -15   13    5      1.72      0.00
  -13   13    5      1.39      0.00
  -11   13    5     -3.24      0.00
   -9   13    5     -4.26      0.00
   -7   13    5     -3.18      0.00
   -5   13    5     -4.04      0.00
   -3   13    5     -0.13      0.00
   -1   13    5      5.23      0.00
    1   13    5     -0.30      0.00
    3   13    5     -8.88      0.00
    5   13    5     -6.67      0.00
    7   13    5     -1.23      0.00
    9   13    5     -1.33      0.00
   11   13    5     -1.41      0.00
   13   13    5     -0.15      0.00
   15   13    5     -0.75      0.00
   17   13    5     -0.71      0.00
   19   13    5      0.18      0.00
   21   13    5     -0.09      0.00
  -20   14    5     -0.34      0.00
  -18   14    5      0.68      0.00
  -16   14    5     -0.13      0.00
  -14   14    5     -1.85      0.00
  -12   14    5      0.90      0.00
  -10   14    5      4.17      0.00
   -8   14    5      3.42      0.00
   -6   14    5      3.32      0.00
   -4   14    5      2.57      0.00
   -2   14    5     -2.66      0.00
    0   14    5     -3.20      0.00
    2   14    5      4.58      0.00
    4   14    5      7.93      0.00
    6   14    5      3.39      0.00
    8   14    5      1.01      0.00
   10   14    5      1.65      0.00
   12   14    5      0.78      0.00
   14   14    5      0.57      0.00
   16   14    5      1.09      0.00
   18   14    5      0.33      0.00
   20   14    5      0.06      0.00
  -19   15    5      0.05      0.00
  -17   15    5     -0.39      0.00
  -15   15    5      1.22      0.00
  -13   15    5      1.04      0.00
  -11   15    5     -2.48      0.00
   -9   15    5     -3.66      0.00
   -7   15    5     -2.81      0.00
   -5   15    5     -3.00      0.00
   -3   15    5     -0.28      0.00
   -1   15    5      3.27      0.00
    1   15    5     -0.34      0.00
    3   15    5     -6.29      0.00
    5   15    5     -5.25      0.00
    7   15    5     -1.44      0.00
    9   15    5     -0.97      0.00
   11   15    5     -0.83      0.00
   13   15    5     -0.10      0.00
   15   15    5     -0.58      0.00
   17   15    5     -0.45      0.00
   19   15    5      0.10      0.00
  -18   16    5      0.22      0.00
  -16   16    5     -0.26      0.00
  -14   16    5     -1.41      0.00
  -12   16    5      0.46      0.00
  -10   16    5      2.99      0.00
   -8   16    5      2.69      0.00
   -6   16    5      2.34      0.00
   -4   16    5      1.55      0.00
   -2   16    5     -1.82      0.00
    0   16    5     -2.17      0.00
    2   16    5      2.83      0.00
    4   16    5      5.37      0.00
    6   16    5      2.71      0.00
    8   16    5      0.81      0.00
   10   16    5      0.89      0.00
   12   16    5      0.38      0.00
   14   16    5      0.42      0.00
   16   16    5      0.76      0.00
   18   16    5      0.22      0.00
  -17   17    5     -0.07      0.00
  -15   17    5      0.84      0.00
  -13   17    5      0.68      0.00
  -11   17    5     -1.75      0.00
   -9   17    5     -2.83      0.00
   -7   17    5     -2.33      0.00
   -5   17    5     -2.15      0.00
   -3   17    5     -0.34      0.00
   -1   17    5      1.80      0.00
    1   17    5     -0.35      0.00
    3   17    5     -4.12      0.00
    5   17    5     -3.84      0.00
    7   17    5     -1.39      0.00
    9   17    5     -0.65      0.00
   11   17    5     -0.40      0.00
   13   17    5     -0.07      0.00
   15   17    5     -0.41      0.00
   17   17    5     -0.23      0.00
  -14   18    5     -0.99      0.00
  -12   18    5      0.18      0.00
  -10   18    5      1.91      0.00
   -8   18    5      1.91      0.00
   -6   18    5      1.54      0.00
   -4   18    5      0.83      0.00
   -2   18    5     -1.15      0.00
    0   18    5     -1.35      0.00
    2   18    5      1.53      0.00
    4   18    5      3.28      0.00
    6   18    5      1.93      0.00
    8   18    5      0.56      0.00
   10   18    5      0.35      0.00
   12   18    5      0.12      0.00
   14   18    5      0.29      0.00
  -13   19    5      0.41      0.00
  -11   19    5     -1.07      0.00
   -9   19    5     -1.91      0.00
   -7   19    5     -1.70      0.00
   -5   19    5     -1.41      0.00
   -3   19    5     -0.32      0.00
   -1   19    5      0.82      0.00
    1   19    5     -0.30      0.00
    3   19    5     -2.42      0.00
    5   19    5     -2.49      0.00
    7   19    5     -1.09      0.00
    9   19    5     -0.38      0.00
   11   19    5     -0.14      0.00
   13   19    5     -0.07      0.00
  -10   20    5      1.05      0.00
   -8   20    5      1.21      0.00
   -6   20    5      0.94      0.00
   -4   20    5      0.42      0.00
   -2   20    5     -0.58      0.00
    0   20    5     -0.72      0.00
    2   20    5      0.70      0.00
    4   20    5      1.74      0.00
    6   20    5      1.18      0.00
    8   20    5      0.33      0.00
   10   20    5      0.06      0.00
   -5   21    5     -0.77      0.00
   -3   21    5     -0.26      0.00
   -1   21    5      0.25      0.00
    1   21    5     -0.18      0.00
    3   21    5     -1.18      0.00
    5   21    5     -1.34      0.00
  -28    0    6      0.66      0.00
  -26    0    6      2.23      0.00
  -24    0    6      0.21      0.00
  -22    0    6     -2.97      0.00
  -20    0    6     -0.12      0.00
  -18    0    6      1.00      0.00
  -16    0    6     -4.81      0.00
  -14    0    6     -2.29      0.00
  -12    0    6      7.22      0.00
  -10    0    6      6.01      0.00
   -8    0    6      4.14      0.00
   -6    0    6      9.48      0.00
   -4    0    6      2.27      0.00
   -2    0    6     -8.55      0.00
    0    0    6      6.15      0.00
    2    0    6     25.24      0.00
    4    0    6     14.51      0.00
    6    0    6     -2.97      0.00
    8    0    6      0.41      0.00
   10    0    6      4.80      0.00
   12    0    6     -0.88      0.00
   14    0    6     -1.53      0.00
   16    0    6      0.80      0.00
   18    0    6     -1.36      0.00
   20    0    6     -2.01      0.00
   22    0    6     -0.32      0.00
   24    0    6     -0.50      0.00
   26    0    6     -0.90      0.00
  -27    1    6     -1.41      0.00
  -25    1    6     -1.64      0.00
  -23    1    6      2.05      0.00
  -21    1    6      2.43      0.00
  -19    1    6     -1.29      0.00
  -17    1    6      2.02      0.00
  -15    1    6      5.70      0.00
  -13    1    6     -2.48      0.00
  -11    1    6     -7.42      0.00
   -9    1    6     -2.96      0.00
   -7    1    6     -5.87      0.00
   -5    1    6     -6.83      0.00
   -3    1    6      6.44      0.00
   -1    1    6      6.00      0.00
    1    1    6    -16.67      0.00
    3    1    6    -22.02      0.00
    5    1    6     -2.66      0.00
    7    1    6      4.19      0.00
    9    1    6     -3.65      0.00
   11    1    6     -2.07      0.00
   13    1    6      2.24      0.00
   15    1    6     -0.33      0.00
   17    1    6     -0.37      0.00
   19    1    6      1.85      0.00
   21    1    6      0.76      0.00
   23    1    6     -0.09      0.00
   25    1    6      0.71      0.00
   27    1    6      0.46      0.00
  -26    2    6      2.15      0.00
  -24    2    6      0.23      0.00
  -22    2    6     -2.92      0.00
  -20    2    6     -0.20      0.00
  -18    2    6      0.94      0.00
  -16    2    6     -4.73      0.00
  -14    2    6     -2.37      0.00
  -12    2    6      6.97      0.00
  -10    2    6      5.91      0.00
   -8    2    6      3.99      0.00
   -6    2    6      9.12      0.00
   -4    2    6      2.18      0.00
   -2    2    6     -8.37      0.00
    0    2    6      5.94      0.00
    2    2    6     24.58      0.00
    4    2    6     14.11      0.00
    6    2    6     -2.89      0.00
    8    2    6      0.39      0.00
   10    2    6      4.60      0.00
   12    2    6     -0.86      0.00
   14    2    6     -1.43      0.00
   16    2    6      0.75      0.00
   18    2    6     -1.36      0.00
   20    2    6     -1.91      0.00
   22    2    6     -0.28      0.00
   24    2    6     -0.50      0.00
   26    2    6     -0.83      0.00
  -27    3    6     -1.24      0.00
  -25    3    6     -1.55      0.00
  -23    3    6      1.92      0.00
  -21    3    6      2.41      0.00
  -19    3    6     -1.16      0.00
  -17    3    6      1.85      0.00
  -15    3    6      5.44      0.00
  -13    3    6     -2.30      0.00
  -11    3    6     -7.30      0.00
   -9    3    6     -3.13      0.00
   -7    3    6     -5.66      0.00
   -5    3    6     -6.64      0.00
   -3    3    6      5.84      0.00
   -1    3    6      5.49      0.00
    1    3    6    -16.07      0.00
    3    3    6    -21.15      0.00
    5    3    6     -2.73      0.00
    7    3    6      3.74      0.00
    9    3    6     -3.53      0.00
   11    3    6     -1.97      0.00
   13    3    6      1.96      0.00
   15    3    6     -0.38      0.00
   17    3    6     -0.23      0.00
   19    3    6      1.81      0.00
   21    3    6      0.71      0.00
   23    3    6      0.01      0.00
   25    3    6      0.76      0.00
   27    3    6      0.39      0.00
  -26    4    6      1.93      0.00
  -24    4    6      0.28      0.00
  -22    4    6     -2.79      0.00
  -20    4    6     -0.42      0.00
  -18    4    6      0.79      0.00
  -16    4    6     -4.49      0.00
  -14    4    6     -2.54      0.00
  -12    4    6      6.29      0.00
  -10    4    6      5.65      0.00
   -8    4    6      3.60      0.00
   -6    4    6      8.15      0.00
   -4    4    6      1.93      0.00
   -2    4    6     -7.83      0.00
    0    4    6      5.36      0.00
    2    4    6     22.71      0.00
    4    4    6     13.00      0.00
    6    4    6     -2.66      0.00
    8    4    6      0.34      0.00
   10    4    6      4.06      0.00
   12    4    6     -0.79      0.00
   14    4    6     -1.16      0.00
   16    4    6      0.63      0.00
   18    4    6     -1.34      0.00
   20    4    6     -1.66      0.00
   22    4    6     -0.18      0.00
   24    4    6     -0.47      0.00
   26    4    6     -0.61      0.00
  -27    5    6     -0.95      0.00
  -25    5    6     -1.41      0.00
  -23    5    6      1.67      0.00
  -21    5    6      2.37      0.00
  -19    5    6     -0.95      0.00
  -17    5    6      1.53      0.00
  -15    5    6      4.98      0.00
  -13    5    6     -1.98      0.00
  -11    5    6     -7.05      0.00
   -9    5    6     -3.39      0.00
   -7    5    6     -5.25      0.00
   -5    5    6     -6.24      0.00
   -3    5    6      4.80      0.00
   -1    5    6      4.62      0.00
    1    5    6    -14.89      0.00
    3    5    6    -19.50      0.00
    5    5    6     -2.85      0.00
    7    5    6      2.99      0.00
    9    5    6     -3.27      0.00
   11    5    6     -1.79      0.00
   13    5    6      1.49      0.00
   15    5    6     -0.45      0.00
   17    5    6     -0.04      0.00
   19    5    6      1.68      0.00
   21    5    6      0.63      0.00
   23    5    6      0.17      0.00
   25    5    6      0.79      0.00
   27    5    6      0.28      0.00
  -26    6    6      1.61      0.00
  -24    6    6      0.37      0.00
  -22    6    6     -2.57      0.00
  -20    6    6     -0.70      0.00
  -18    6    6      0.62      0.00
  -16    6    6     -4.07      0.00
  -14    6    6     -2.72      0.00
  -12    6    6      5.38      0.00
  -10    6    6      5.30      0.00
   -8    6    6      3.10      0.00
   -6    6    6      6.78      0.00
   -4    6    6      1.64      0.00
   -2    6    6     -6.95      0.00
    0    6    6      4.56      0.00
    2    6    6     19.97      0.00
    4    6    6     11.46      0.00
    6    6    6     -2.24      0.00
    8    6    6      0.26      0.00
   10    6    6      3.28      0.00
   12    6    6     -0.69      0.00
   14    6    6     -0.82      0.00
   16    6    6      0.47      0.00
   18    6    6     -1.26      0.00
   20    6    6     -1.30      0.00
   22    6    6     -0.09      0.00
   24    6    6     -0.40      0.00
   26    6    6     -0.32      0.00
  -25    7    6     -1.23      0.00
  -23    7    6      1.35      0.00
  -21    7    6      2.28      0.00
  -19    7    6     -0.70      0.00
  -17    7    6      1.14      0.00
  -15    7    6      4.38      0.00
  -13    7    6     -1.56      0.00
  -11    7    6     -6.65      0.00
   -9    7    6     -3.63      0.00
   -7    7    6     -4.65      0.00
   -5    7    6     -5.61      0.00
   -3    7    6      3.57      0.00
   -1    7    6      3.58      0.00
    1    7    6    -13.19      0.00
    3    7    6    -17.27      0.00
    5    7    6     -2.99      0.00
    7    7    6      2.11      0.00
    9    7    6     -2.86      0.00
   11    7    6     -1.53      0.00
   13    7    6      0.97      0.00
   15    7    6     -0.51      0.00
   17    7    6      0.12      0.00
   19    7    6      1.42      0.00
   21    7    6      0.52      0.00
   23    7    6      0.32      0.00
   25    7    6      0.73      0.00
  -26    8    6      1.23      0.00
  -24    8    6      0.45      0.00
  -22    8    6     -2.26      0.00
  -20    8    6     -0.94      0.00
  -18    8    6      0.48      0.00
  -16    8    6     -3.50      0.00
  -14    8    6     -2.78      0.00
  -12    8    6      4.42      0.00
  -10    8    6      4.95      0.00
   -8    8    6      2.64      0.00
   -6    8    6      5.33      0.00
   -4    8    6      1.38      0.00
   -2    8    6     -5.77      0.00
    0    8    6      3.71      0.00
    2    8    6     16.78      0.00
    4    8    6      9.81      0.00
    6    8    6     -1.64      0.00
    8    8    6      0.16      0.00
   10    8    6      2.42      0.00
   12    8    6     -0.59      0.00
   14    8    6     -0.51      0.00
   16    8    6      0.30      0.00
   18    8    6     -1.08      0.00
   20    8    6     -0.90      0.00
   22    8    6     -0.05      0.00
   24    8    6     -0.32      0.00
  -25    9    6     -1.02      0.00
  -23    9    6      1.00      0.00
  -21    9    6      2.10      0.00
  -19    9    6     -0.44      0.00
  -17    9    6      0.76      0.00
  -15    9    6      3.73      0.00
  -13    9    6     -1.12      0.00
  -11    9    6     -6.06      0.00
   -9    9    6     -3.71      0.00
   -7    9    6     -3.91      0.00
   -5    9    6     -4.75      0.00
   -3    9    6      2.41      0.00
   -1    9    6      2.57      0.00
    1    9    6    -11.09      0.00
    3    9    6    -14.65      0.00
    5    9    6     -3.10      0.00
    7    9    6      1.30      0.00
    9    9    6     -2.30      0.00
   11    9    6     -1.20      0.00
   13    9    6      0.53      0.00
   15    9    6     -0.52      0.00
   17    9    6      0.18      0.00
   19    9    6      1.04      0.00
   21    9    6      0.36      0.00
   23    9    6      0.39      0.00
   25    9    6      0.55      0.00
  -24   10    6      0.46      0.00
  -22   10    6     -1.86      0.00
  -20   10    6     -1.04      0.00
  -18   10    6      0.37      0.00
  -16   10    6     -2.83      0.00
  -14   10    6     -2.62      0.00
  -12   10    6      3.58      0.00
  -10   10    6      4.59      0.00
   -8   10    6      2.31      0.00
   -6   10    6      4.01      0.00
   -4   10    6      1.19      0.00
   -2   10    6     -4.38      0.00
    0   10    6      2.96      0.00
    2   10    6     13.51      0.00
    4   10    6      8.26      0.00
    6   10    6     -0.92      0.00
    8   10    6      0.08      0.00
   10   10    6      1.62      0.00
   12   10    6     -0.49      0.00
   14   10    6     -0.28      0.00
   16   10    6      0.16      0.00
   18   10    6     -0.81      0.00
   20   10    6     -0.51      0.00
   22   10    6     -0.04      0.00
   24   10    6     -0.23      0.00
  -23   11    6      0.68      0.00
  -21   11    6      1.80      0.00
  -19   11    6     -0.20      0.00
  -17   11    6      0.48      0.00
  -15   11    6      3.06      0.00
  -13   11    6     -0.70      0.00
  -11   11    6     -5.26      0.00
   -9   11    6     -3.56      0.00
   -7   11    6     -3.10      0.00
   -5   11    6     -3.70      0.00
   -3   11    6      1.50      0.00
   -1   11    6      1.72      0.00
    1   11    6     -8.77      0.00
    3   11    6    -11.87      0.00
    5   11    6     -3.10      0.00
    7   11    6      0.67      0.00
    9   11    6     -1.66      0.00
   11   11    6     -0.83      0.00
   13   11    6      0.23      0.00
   15   11    6     -0.50      0.00
   17   11    6      0.13      0.00
   19   11    6      0.58      0.00
   21   11    6      0.14      0.00
   23   11    6      0.35      0.00
  -22   12    6     -1.41      0.00
  -20   12    6     -0.99      0.00
  -18   12    6      0.26      0.00
  -16   12    6     -2.14      0.00
  -14   12    6     -2.22      0.00
  -12   12    6      2.86      0.00
  -10   12    6      4.17      0.00
   -8   12    6      2.13      0.00
   -6   12    6      2.97      0.00
   -4   12    6      1.05      0.00
   -2   12    6     -2.96      0.00
    0   12    6      2.38      0.00
    2   12    6     10.44      0.00
    4   12    6      6.88      0.00
    6   12    6     -0.16      0.00
    8   12    6      0.04      0.00
   10   12    6      0.96      0.00
   12   12    6     -0.42      0.00
   14   12    6     -0.13      0.00
   16   12    6      0.09      0.00
   18   12    6     -0.53      0.00
   20   12    6     -0.18      0.00
   22   12    6     -0.03      0.00
  -21   13    6      1.41      0.00
  -19   13    6      0.01      0.00
  -17   13    6      0.36      0.00
  -15   13    6      2.40      0.00
  -13   13    6     -0.38      0.00
  -11   13    6     -4.27      0.00
   -9   13    6     -3.16      0.00
   -7   13    6     -2.34      0.00
   -5   13    6     -2.60      0.00
   -3   13    6      0.91      0.00
   -1   13    6      1.07      0.00
    1   13    6     -6.47      0.00
    3   13    6     -9.11      0.00
    5   13    6     -2.94      0.00
    7   13    6      0.25      0.00
    9   13    6     -1.02      0.00
   11   13    6     -0.46      0.00
   13   13    6      0.09      0.00
   15   13    6     -0.46      0.00
   17   13    6      0.01      0.00
   19   13    6      0.16      0.00
   21   13    6     -0.10      0.00
  -20   14    6     -0.82      0.00
  -18   14    6      0.13      0.00
  -16   14    6     -1.51      0.00
  -14   14    6     -1.66      0.00
  -12   14    6      2.25      0.00
  -10   14    6      3.61      0.00
   -8   14    6      2.01      0.00
   -6   14    6      2.21      0.00
   -4   14    6      0.92      0.00
   -2   14    6     -1.69      0.00
    0   14    6      1.94      0.00
    2   14    6      7.72      0.00
    4   14    6      5.61      0.00
    6   14    6      0.47      0.00
    8   14    6      0.05      0.00
   10   14    6      0.47      0.00
   12   14    6     -0.36      0.00
   14   14    6     -0.03      0.00
   16   14    6      0.07      0.00
   18   14    6     -0.28      0.00
   20   14    6      0.07      0.00
  -19   15    6      0.17      0.00
  -17   15    6      0.34      0.00
  -15   15    6      1.77      0.00
  -13   15    6     -0.16      0.00
  -11   15    6     -3.17      0.00
   -9   15    6     -2.56      0.00
   -7   15    6     -1.68      0.00
   -5   15    6     -1.62      0.00
   -3   15    6      0.58      0.00
   -1   15    6      0.61      0.00
    1   15    6     -4.42      0.00
    3   15    6     -6.55      0.00
    5   15    6     -2.59      0.00
    7   15    6      0.00      0.00
    9   15    6     -0.49      0.00
   11   15    6     -0.13      0.00
   13   15    6      0.04      0.00
   15   15    6     -0.41      0.00
   17   15    6     -0.10      0.00
   19   15    6     -0.14      0.00
  -18   16    6     -0.02      0.00
  -16   16    6     -1.00      0.00
  -14   16    6     -1.08      0.00
  -12   16    6      1.68      0.00
  -10   16    6      2.88      0.00
   -8   16    6      1.82      0.00
   -6   16    6      1.64      0.00
   -4   16    6      0.77      0.00
   -2   16    6     -0.72      0.00
    0   16    6      1.57      0.00
    2   16    6      5.39      0.00
    4   16    6      4.37      0.00
    6   16    6      0.87      0.00
    8   16    6      0.08      0.00
   10   16    6      0.16      0.00
   12   16    6     -0.29      0.00
   14   16    6      0.04      0.00
   16   16    6      0.09      0.00
   18   16    6     -0.10      0.00
  -15   17    6      1.19      0.00
  -13   17    6     -0.05      0.00
  -11   17    6     -2.11      0.00
   -9   17    6     -1.89      0.00
   -7   17    6     -1.17      0.00
   -5   17    6     -0.88      0.00
   -3   17    6      0.37      0.00
   -1   17    6      0.29      0.00
    1   17    6     -2.75      0.00
    3   17    6     -4.34      0.00
    5   17    6     -2.08      0.00
    7   17    6     -0.13      0.00
    9   17    6     -0.12      0.00
   11   17    6      0.07      0.00
   13   17    6      0.02      0.00
   15   17    6     -0.33      0.00
  -14   18    6     -0.59      0.00
  -12   18    6      1.12      0.00
  -10   18    6      2.03      0.00
   -8   18    6      1.48      0.00
   -6   18    6      1.17      0.00
   -4   18    6      0.60      0.00
   -2   18    6     -0.11      0.00
    0   18    6      1.19      0.00
    2   18    6      3.47      0.00
    4   18    6      3.13      0.00
    6   18    6      0.97      0.00
    8   18    6      0.11      0.00
   10   18    6      0.00      0.00
   12   18    6     -0.19      0.00
   14   18    6      0.08      0.00
  -11   19    6     -1.22      0.00
   -9   19    6     -1.25      0.00
   -7   19    6     -0.77      0.00
   -5   19    6     -0.43      0.00
   -3   19    6      0.17      0.00
   -1   19    6      0.06      0.00
    1   19    6     -1.54      0.00
    3   19    6     -2.59      0.00
    5   19    6     -1.49      0.00
    7   19    6     -0.18      0.00
    9   19    6      0.06      0.00
   11   19    6      0.14      0.00
   -8   20    6      1.02      0.00
   -6   20    6      0.72      0.00
   -4   20    6      0.42      0.00
   -2   20    6      0.18      0.00
    0   20    6      0.80      0.00
    2   20    6      1.95      0.00
    4   20    6      1.96      0.00
    6   20    6      0.81      0.00
    8   20    6      0.11      0.00
   -3   21    6     -0.03      0.00
   -1   21    6     -0.10      0.00
    1   21    6     -0.75      0.00
    3   21    6     -1.33      0.00
  -26    0    7      0.58      0.00
  -24    0    7     -2.60      0.00
  -22    0    7     -3.26      0.00
  -20    0    7      0.56      0.00
  -18    0    7     -0.99      0.00
  -16    0    7     -4.63      0.00
  -14    0    7      2.09      0.00
  -12    0    7      8.16      0.00
  -10    0    7      3.92      0.00
   -8    0    7      3.64      0.00
   -6    0    7      5.65      0.00
   -4    0    7     -2.43      0.00
   -2    0    7     -3.03      0.00
    0    0    7     14.03      0.00
    2    0    7     17.75      0.00
    4    0    7     -1.09      0.00
    6    0    7     -8.24      0.00
    8    0    7      0.82      0.00
   10    0    7      1.00      0.00
   12    0    7     -3.38      0.00
   14    0    7     -0.87      0.00
   16    0    7      0.21      0.00
   18    0    7     -1.56      0.00
   20    0    7     -0.73      0.00
   22    0    7      0.28      0.00
   24    0    7     -0.22      0.00
   26    0    7     -0.01      0.00
  -27    1    7     -1.13      0.00
  -25    1    7      0.54      0.00
  -23    1    7      3.46      0.00
  -21    1    7      1.11      0.00
  -19    1    7     -1.12      0.00
  -17    1    7      3.31      0.00
  -15    1    7      2.16      0.00
  -13    1    7     -6.88      0.00
  -11    1    7     -7.20      0.00
   -9    1    7     -3.31      0.00
   -7    1    7     -6.45      0.00
   -5    1    7     -3.57      0.00
   -3    1    7      4.08      0.00
   -1    1    7     -5.94      0.00
    1    1    7    -20.74      0.00
    3    1    7    -10.37      0.00
    5    1    7      6.80      0.00
    7    1    7      3.22      0.00
    9    1    7     -3.03      0.00
   11    1    7      1.69      0.00
   13    1    7      2.73      0.00
   15    1    7     -0.10      0.00
   17    1    7      1.14      0.00
   19    1    7      1.83      0.00
   21    1    7      0.31      0.00
   23    1    7      0.19      0.00
   25    1    7      0.44      0.00
   27    1    7     -0.25      0.00
  -26    2    7      0.57      0.00
  -24    2    7     -2.52      0.00
  -22    2    7     -3.22      0.00
  -20    2    7      0.54      0.00
  -18    2    7     -0.91      0.00
  -16    2    7     -4.51      0.00
  -14    2    7      2.03      0.00
  -12    2    7      8.08      0.00
  -10    2    7      3.97      0.00
   -8    2    7      3.61      0.00
   -6    2    7      5.60      0.00
   -4    2    7     -2.23      0.00
   -2    2    7     -2.83      0.00
    0    2    7     13.80      0.00
    2    2    7     17.39      0.00
    4    2    7     -0.98      0.00
    6    2    7     -7.91      0.00
    8    2    7      0.84      0.00
   10    2    7      0.98      0.00
   12    2    7     -3.22      0.00
   14    2    7     -0.83      0.00
   16    2    7      0.15      0.00
   18    2    7     -1.54      0.00
   20    2    7     -0.70      0.00
   22    2    7      0.25      0.00
   24    2    7     -0.24      0.00
   26    2    7      0.01      0.00
  -27    3    7     -1.07      0.00
  -25    3    7      0.46      0.00
  -23    3    7      3.34      0.00
  -21    3    7      1.17      0.00
  -19    3    7     -1.07      0.00
  -17    3    7      3.16      0.00
  -15    3    7      2.23      0.00
  -13    3    7     -6.45      0.00
  -11    3    7     -6.95      0.00
   -9    3    7     -3.10      0.00
   -7    3    7     -5.98      0.00
   -5    3    7     -3.37      0.00
   -3    3    7      3.90      0.00
   -1    3    7     -5.61      0.00
    1    3    7    -19.65      0.00
    3    3    7     -9.75      0.00
    5    3    7      6.47      0.00
    7    3    7      3.06      0.00
    9    3    7     -2.75      0.00
   11    3    7      1.60      0.00
   13    3    7      2.51      0.00
   15    3    7     -0.04      0.00
   17    3    7      1.13      0.00
   19    3    7      1.65      0.00
   21    3    7      0.21      0.00
   23    3    7      0.13      0.00
   25    3    7      0.30      0.00
   27    3    7     -0.38      0.00
  -26    4    7      0.57      0.00
  -24    4    7     -2.31      0.00
  -22    4    7     -3.11      0.00
  -20    4    7      0.49      0.00
  -18    4    7     -0.68      0.00
  -16    4    7     -4.17      0.00
  -14    4    7      1.85      0.00
  -12    4    7      7.81      0.00
  -10    4    7      4.09      0.00
   -8    4    7      3.49      0.00
   -6    4    7      5.42      0.00
   -4    4    7     -1.68      0.00
   -2    4    7     -2.28      0.00
    0    4    7     13.11      0.00
    2    4    7     16.34      0.00
    4    4    7     -0.68      0.00
    6    4    7     -7.01      0.00
    8    4    7      0.87      0.00
   10    4    7      0.93      0.00
   12    4    7     -2.78      0.00
   14    4    7     -0.72      0.00
   16    4    7     -0.01      0.00
   18    4    7     -1.46      0.00
   20    4    7     -0.62      0.00
   22    4    7      0.16      0.00
   24    4    7     -0.27      0.00
   26    4    7      0.06      0.00
  -25    5    7      0.31      0.00
  -23    5    7      3.11      0.00
  -21    5    7      1.26      0.00
  -19    5    7     -0.99      0.00
  -17    5    7      2.88      0.00
  -15    5    7      2.34      0.00
  -13    5    7     -5.71      0.00
  -11    5    7     -6.50      0.00
   -9    5    7     -2.75      0.00
   -7    5    7     -5.13      0.00
   -5    5    7     -3.00      0.00
   -3    5    7      3.54      0.00
   -1    5    7     -5.01      0.00
    1    5    7    -17.68      0.00
    3    5    7     -8.67      0.00
    5    5    7      5.81      0.00
    7    5    7      2.79      0.00
    9    5    7     -2.24      0.00
   11    5    7      1.45      0.00
   13    5    7      2.13      0.00
   15    5    7      0.08      0.00
   17    5    7      1.09      0.00
   19    5    7      1.34      0.00
   21    5    7      0.08      0.00
   23    5    7      0.06      0.00
   25    5    7      0.06      0.00
  -26    6    7      0.54      0.00
  -24    6    7     -1.98      0.00
  -22    6    7     -2.94      0.00
  -20    6    7      0.39      0.00
  -18    6    7     -0.37      0.00
  -16    6    7     -3.69      0.00
  -14    6    7      1.55      0.00
  -12    6    7      7.35      0.00
  -10    6    7      4.18      0.00
   -8    6    7      3.25      0.00
   -6    6    7      5.04      0.00
   -4    6    7     -0.97      0.00
   -2    6    7     -1.57      0.00
    0    6    7     11.96      0.00
    2    6    7     14.73      0.00
    4    6    7     -0.23      0.00
    6    6    7     -5.78      0.00
    8    6    7      0.81      0.00
   10    6    7      0.80      0.00
   12    6    7     -2.18      0.00
   14    6    7     -0.58      0.00
   16    6    7     -0.18      0.00
   18    6    7     -1.28      0.00
   20    6    7     -0.51      0.00
   22    6    7      0.01      0.00
   24    6    7     -0.29      0.00
   26    6    7      0.12      0.00
  -25    7    7      0.14      0.00
  -23    7    7      2.77      0.00
  -21    7    7      1.36      0.00
  -19    7    7     -0.88      0.00
  -17    7    7      2.48      0.00
  -15    7    7      2.40      0.00
  -13    7    7     -4.79      0.00
  -11    7    7     -5.93      0.00
   -9    7    7     -2.36      0.00
   -7    7    7     -4.10      0.00
   -5    7    7     -2.55      0.00
   -3    7    7      2.98      0.00
   -1    7    7     -4.26      0.00
    1    7    7    -15.14      0.00
    3    7    7     -7.42      0.00
    5    7    7      4.90      0.00
    7    7    7      2.48      0.00
    9    7    7     -1.57      0.00
   11    7    7      1.28      0.00
   13    7    7      1.71      0.00
   15    7    7      0.22      0.00
   17    7    7      0.98      0.00
   19    7    7      0.97      0.00
   21    7    7      0.02      0.00
   23    7    7      0.02      0.00
   25    7    7     -0.18      0.00
  -24    8    7     -1.58      0.00
  -22    8    7     -2.68      0.00
  -20    8    7      0.24      0.00
  -18    8    7     -0.09      0.00
  -16    8    7     -3.14      0.00
  -14    8    7      1.17      0.00
  -12    8    7      6.67      0.00
  -10    8    7      4.14      0.00
   -8    8    7      2.86      0.00
   -6    8    7      4.42      0.00
   -4    8    7     -0.30      0.00
   -2    8    7     -0.86      0.00
    0    8    7     10.40      0.00
    2    8    7     12.73      0.00
    4    8    7      0.27      0.00
    6    8    7     -4.47      0.00
    8    8    7      0.61      0.00
   10    8    7      0.59      0.00
   12    8    7     -1.59      0.00
   14    8    7     -0.44      0.00
   16    8    7     -0.30      0.00
   18    8    7     -0.99      0.00
   20    8    7     -0.39      0.00
   22    8    7     -0.15      0.00
   24    8    7     -0.25      0.00
  -25    9    7      0.00      0.00
  -23    9    7      2.34      0.00
  -21    9    7      1.38      0.00
  -19    9    7     -0.75      0.00
  -17    9    7      2.01      0.00
  -15    9    7      2.32      0.00
  -13    9    7     -3.87      0.00
  -11    9    7     -5.32      0.00
   -9    9    7     -2.04      0.00
   -7    9    7     -3.08      0.00
   -5    9    7     -2.10      0.00
   -3    9    7      2.26      0.00
   -1    9    7     -3.52      0.00
    1    9    7    -12.40      0.00
    3    9    7     -6.22      0.00
    5    9    7      3.80      0.00
    7    9    7      2.17      0.00
    9    9    7     -0.86      0.00
   11    9    7      1.12      0.00
   13    9    7      1.30      0.00
   15    9    7      0.32      0.00
   17    9    7      0.79      0.00
   19    9    7      0.59      0.00
   21    9    7      0.04      0.00
   23    9    7      0.03      0.00
  -24   10    7     -1.16      0.00
  -22   10    7     -2.31      0.00
  -20   10    7      0.08      0.00
  -18   10    7      0.10      0.00
  -16   10    7     -2.59      0.00
  -14   10    7      0.78      0.00
  -12   10    7      5.78      0.00
  -10   10    7      3.91      0.00
   -8   10    7      2.36      0.00
   -6   10    7      3.56      0.00
   -4   10    7      0.15      0.00
   -2   10    7     -0.30      0.00
    0   10    7      8.55      0.00
    2   10    7     10.52      0.00
    4   10    7      0.74      0.00
    6   10    7     -3.29      0.00
    8   10    7      0.28      0.00
   10   10    7      0.30      0.00
   12   10    7     -1.09      0.00
   14   10    7     -0.30      0.00
   16   10    7     -0.29      0.00
   18   10    7     -0.60      0.00
   20   10    7     -0.24      0.00
   22   10    7     -0.27      0.00
   24   10    7     -0.17      0.00
  -23   11    7      1.81      0.00
  -21   11    7      1.27      0.00
  -19   11    7     -0.59      0.00
  -17   11    7      1.51      0.00
  -15   11    7      2.05      0.00
  -13   11    7     -3.07      0.00
  -11   11    7     -4.68      0.00
   -9   11    7     -1.85      0.00
   -7   11    7     -2.24      0.00
   -5   11    7     -1.69      0.00
   -3   11    7      1.46      0.00
   -1   11    7     -2.89      0.00
    1   11    7     -9.78      0.00
    3   11    7     -5.23      0.00
    5   11    7      2.62      0.00
    7   11    7      1.86      0.00
    9   11    7     -0.25      0.00
   11   11    7      0.98      0.00
   13   11    7      0.95      0.00
   15   11    7      0.33      0.00
   17   11    7      0.55      0.00
   19   11    7      0.26      0.00
   21   11    7      0.10      0.00
   23   11    7      0.10      0.00
  -22   12    7     -1.82      0.00
  -20   12    7     -0.06      0.00
  -18   12    7      0.15      0.00
  -16   12    7     -2.05      0.00
  -14   12    7      0.46      0.00
  -12   12    7      4.73      0.00
  -10   12    7      3.46      0.00
   -8   12    7      1.84      0.00
   -6   12    7      2.60      0.00
   -4   12    7      0.36      0.00
   -2   12    7      0.08      0.00
    0   12    7      6.60      0.00
    2   12    7      8.31      0.00
    4   12    7      1.10      0.00
    6   12    7     -2.33      0.00
    8   12    7     -0.09      0.00
   10   12    7     -0.01      0.00
   12   12    7     -0.75      0.00
   14   12    7     -0.15      0.00
   16   12    7     -0.16      0.00
   18   12    7     -0.19      0.00
   20   12    7     -0.05      0.00
   22   12    7     -0.30      0.00
  -21   13    7      1.02      0.00
  -19   13    7     -0.42      0.00
  -17   13    7      1.05      0.00
  -15   13    7      1.59      0.00
  -13   13    7     -2.40      0.00
  -11   13    7     -3.99      0.00
   -9   13    7     -1.76      0.00
   -7   13    7     -1.65      0.00
   -5   13    7     -1.35      0.00
   -3   13    7      0.67      0.00
   -1   13    7     -2.40      0.00
    1   13    7     -7.44      0.00
    3   13    7     -4.41      0.00
    5   13    7      1.50      0.00
    7   13    7      1.50      0.00
    9   13    7      0.17      0.00
   11   13    7      0.86      0.00
   13   13    7      0.65      0.00
   15   13    7      0.24      0.00
   17   13    7      0.28      0.00
   19   13    7      0.01      0.00
   21   13    7      0.13      0.00
  -20   14    7     -0.15      0.00
  -18   14    7      0.09      0.00
  -16   14    7     -1.51      0.00
  -14   14    7      0.25      0.00
  -12   14    7      3.61      0.00
  -10   14    7      2.86      0.00
   -8   14    7      1.38      0.00
   -6   14    7      1.69      0.00
   -4   14    7      0.36      0.00
   -2   14    7      0.29      0.00
    0   14    7      4.78      0.00
    2   14    7      6.24      0.00
    4   14    7      1.29      0.00
    6   14    7     -1.58      0.00
    8   14    7     -0.39      0.00
   10   14    7     -0.28      0.00
   12   14    7     -0.53      0.00
   14   14    7      0.01      0.00
   16   14    7      0.04      0.00
   18   14    7      0.15      0.00
   20   14    7      0.15      0.00
  -19   15    7     -0.25      0.00
  -17   15    7      0.66      0.00
  -15   15    7      1.04      0.00
  -13   15    7     -1.84      0.00
  -11   15    7     -3.22      0.00
   -9   15    7     -1.67      0.00
   -7   15    7     -1.27      0.00
   -5   15    7     -1.07      0.00
   -3   15    7      0.03      0.00
   -1   15    7     -2.00      0.00
    1   15    7     -5.45      0.00
    3   15    7     -3.67      0.00
    5   15    7      0.56      0.00
    7   15    7      1.10      0.00
    9   15    7      0.39      0.00
   11   15    7      0.72      0.00
   13   15    7      0.38      0.00
   15   15    7      0.07      0.00
   17   15    7      0.05      0.00
   19   15    7     -0.17      0.00
  -16   16    7     -1.01      0.00
  -14   16    7      0.16      0.00
  -12   16    7      2.52      0.00
  -10   16    7      2.18      0.00
   -8   16    7      1.03      0.00
   -6   16    7      0.99      0.00
   -4   16    7      0.28      0.00
   -2   16    7      0.38      0.00
    0   16    7      3.23      0.00
    2   16    7      4.40      0.00
    4   16    7      1.30      0.00
    6   16    7     -0.98      0.00
    8   16    7     -0.54      0.00
   10   16    7     -0.43      0.00
   12   16    7     -0.37      0.00
   14   16    7      0.15      0.00
   16   16    7      0.21      0.00
  -15   17    7      0.54      0.00
  -13   17    7     -1.34      0.00
  -11   17    7     -2.38      0.00
   -9   17    7     -1.48      0.00
   -7   17    7     -1.01      0.00
   -5   17    7     -0.83      0.00
   -3   17    7     -0.37      0.00
   -1   17    7     -1.62      0.00
    1   17    7     -3.78      0.00
    3   17    7     -2.90      0.00
    5   17    7     -0.08      0.00
    7   17    7      0.70      0.00
    9   17    7      0.44      0.00
   11   17    7      0.55      0.00
   13   17    7      0.17      0.00
   15   17    7     -0.09      0.00
  -14   18    7      0.14      0.00
  -12   18    7      1.58      0.00
  -10   18    7      1.52      0.00
   -8   18    7      0.76      0.00
   -6   18    7      0.53      0.00
   -4   18    7      0.22      0.00
   -2   18    7      0.40      0.00
    0   18    7      2.02      0.00
    2   18    7      2.87      0.00
    4   18    7      1.15      0.00
    6   18    7     -0.51      0.00
    8   18    7     -0.53      0.00
   10   18    7     -0.45      0.00
   12   18    7     -0.25      0.00
  -11   19    7     -1.53      0.00
   -9   19    7     -1.14      0.00
   -7   19    7     -0.74      0.00
   -5   19    7     -0.59      0.00
   -3   19    7     -0.51      0.00
   -1   19    7     -1.19      0.00
    1   19    7     -2.39      0.00
    3   19    7     -2.07      0.00
    5   19    7     -0.41      0.00
    7   19    7      0.37      0.00
    9   19    7      0.37      0.00
   11   19    7      0.34      0.00
   -6   20    7      0.28      0.00
   -4   20    7      0.21      0.00
   -2   20    7      0.39      0.00
    0   20    7      1.14      0.00
    2   20    7      1.67      0.00
    4   20    7      0.89      0.00
    6   20    7     -0.17      0.00
  -26    0    8     -0.47      0.00
  -24    0    8     -2.57      0.00
  -22    0    8     -0.69      0.00
  -20    0    8      1.93      0.00
  -18    0    8     -1.22      0.00
  -16    0    8     -1.26      0.00
  -14    0    8      6.32      0.00
  -12    0    8      7.34      0.00
  -10    0    8      2.06      0.00
   -8    0    8      3.00      0.00
   -6    0    8      2.78      0.00
   -4    0    8     -2.57      0.00
   -2    0    8      3.58      0.00
    0    0    8     14.91      0.00
    2    0    8      5.84      0.00
    4    0    8     -9.65      0.00
    6    0    8     -5.19      0.00
    8    0    8      2.72      0.00
   10    0    8     -1.08      0.00
   12    0    8     -2.50      0.00
   14    0    8      0.48      0.00
   16    0    8     -0.22      0.00
   18    0    8     -1.21      0.00
   20    0    8     -0.04      0.00
   22    0    8      0.33      0.00
   24    0    8      0.07      0.00
   26    0    8      0.48      0.00
  -27    1    8     -0.17      0.00
  -25    1    8      1.99      0.00
  -23    1    8      2.54      0.00
  -21    1    8     -0.86      0.00
  -19    1    8     -0.59      0.00
  -17    1    8      2.76      0.00
  -15    1    8     -1.97      0.00
  -13    1    8     -7.92      0.00
  -11    1    8     -3.97      0.00
   -9    1    8     -1.09      0.00
   -7    1    8     -3.15      0.00
   -5    1    8      1.08      0.00
   -3    1    8      2.58      0.00
   -1    1    8     -9.40      0.00
    1    1    8    -12.13      0.00
    3    1    8      4.46      0.00
    5    1    8     10.54      0.00
    7    1    8      0.43      0.00
    9    1    8     -1.26      0.00
   11    1    8      2.95      0.00
   13    1    8      0.78      0.00
   15    1    8     -0.82      0.00
   17    1    8      0.72      0.00
   19    1    8      0.34      0.00
   21    1    8     -0.68      0.00
   23    1    8     -0.42      0.00
   25    1    8     -0.43      0.00
   27    1    8     -0.75      0.00
  -26    2    8     -0.44      0.00
  -24    2    8     -2.53      0.00
  -22    2    8     -0.69      0.00
  -20    2    8      1.91      0.00
  -18    2    8     -1.19      0.00
  -16    2    8     -1.31      0.00
  -14    2    8      6.12      0.00
  -12    2    8      7.19      0.00
  -10    2    8      1.99      0.00
   -8    2    8      2.87      0.00
   -6    2    8      2.68      0.00
   -4    2    8     -2.54      0.00
   -2    2    8      3.46      0.00
    0    2    8     14.47      0.00
    2    2    8      5.60      0.00
    4    2    8     -9.42      0.00
    6    2    8     -5.06      0.00
    8    2    8      2.59      0.00
   10    2    8     -1.07      0.00
   12    2    8     -2.43      0.00
   14    2    8      0.43      0.00
   16    2    8     -0.23      0.00
   18    2    8     -1.14      0.00
   20    2    8      0.01      0.00
   22    2    8      0.36      0.00
   24    2    8      0.12      0.00
   26    2    8      0.52      0.00
  -25    3    8      1.89      0.00
  -23    3    8      2.47      0.00
  -21    3    8     -0.86      0.00
  -19    3    8     -0.68      0.00
  -17    3    8      2.61      0.00
  -15    3    8     -1.85      0.00
  -13    3    8     -7.70      0.00
  -11    3    8     -4.02      0.00
   -9    3    8     -1.15      0.00
   -7    3    8     -3.14      0.00
   -5    3    8      0.83      0.00
   -3    3    8      2.26      0.00
   -1    3    8     -9.11      0.00
    1    3    8    -11.60      0.00
    3    3    8      4.14      0.00
    5    3    8      9.80      0.00
    7    3    8      0.34      0.00
    9    3    8     -1.20      0.00
   11    3    8      2.71      0.00
   13    3    8      0.75      0.00
   15    3    8     -0.68      0.00
   17    3    8      0.70      0.00
   19    3    8      0.31      0.00
   21    3    8     -0.61      0.00
   23    3    8     -0.35      0.00
   25    3    8     -0.39      0.00
  -26    4    8     -0.35      0.00
  -24    4    8     -2.40      0.00
  -22    4    8     -0.72      0.00
  -20    4    8      1.84      0.00
  -18    4    8     -1.09      0.00
  -16    4    8     -1.43      0.00
  -14    4    8      5.57      0.00
  -12    4    8      6.78      0.00
  -10    4    8      1.81      0.00
   -8    4    8      2.48      0.00
   -6    4    8      2.40      0.00
   -4    4    8     -2.42      0.00
   -2    4    8      3.13      0.00
    0    4    8     13.26      0.00
    2    4    8      4.96      0.00
    4    4    8     -8.74      0.00
    6    4    8     -4.70      0.00
    8    4    8      2.20      0.00
   10    4    8     -1.03      0.00
   12    4    8     -2.22      0.00
   14    4    8      0.28      0.00
   16    4    8     -0.25      0.00
   18    4    8     -0.94      0.00
   20    4    8      0.11      0.00
   22    4    8      0.40      0.00
   24    4    8      0.24      0.00
   26    4    8      0.59      0.00
  -25    5    8      1.68      0.00
  -23    5    8      2.34      0.00
  -21    5    8     -0.82      0.00
  -19    5    8     -0.83      0.00
  -17    5    8      2.35      0.00
  -15    5    8     -1.61      0.00
  -13    5    8     -7.27      0.00
  -11    5    8     -4.06      0.00
   -9    5    8     -1.23      0.00
   -7    5    8     -3.05      0.00
   -5    5    8      0.41      0.00
   -3    5    8      1.71      0.00
   -1    5    8     -8.52      0.00
    1    5    8    -10.60      0.00
    3    5    8      3.55      0.00
    5    5    8      8.52      0.00
    7    5    8      0.26      0.00
    9    5    8     -1.06      0.00
   11    5    8      2.28      0.00
   13    5    8      0.70      0.00
   15    5    8     -0.45      0.00
   17    5    8      0.63      0.00
   19    5    8      0.27      0.00
   21    5    8     -0.46      0.00
   23    5    8     -0.26      0.00
   25    5    8     -0.34      0.00
  -26    6    8     -0.21      0.00
  -24    6    8     -2.19      0.00
  -22    6    8     -0.77      0.00
  -20    6    8      1.72      0.00
  -18    6    8     -0.93      0.00
  -16    6    8     -1.56      0.00
  -14    6    8      4.77      0.00
  -12    6    8      6.19      0.00
  -10    6    8      1.60      0.00
   -8    6    8      1.95      0.00
   -6    6    8      2.01      0.00
   -4    6    8     -2.18      0.00
   -2    6    8      2.69      0.00
    0    6    8     11.49      0.00
    2    6    8      4.12      0.00
    4    6    8     -7.69      0.00
    6    6    8     -4.21      0.00
    8    6    8      1.61      0.00
   10    6    8     -0.96      0.00
   12    6    8     -1.91      0.00
   14    6    8      0.07      0.00
   16    6    8     -0.26      0.00
   18    6    8     -0.67      0.00
   20    6    8      0.16      0.00
   22    6    8      0.40      0.00
   24    6    8      0.39      0.00
  -25    7    8      1.38      0.00
  -23    7    8      2.15      0.00
  -21    7    8     -0.72      0.00
  -19    7    8     -0.95      0.00
  -17    7    8      2.03      0.00
  -15    7    8     -1.27      0.00
  -13    7    8     -6.62      0.00
  -11    7    8     -4.03      0.00
   -9    7    8     -1.24      0.00
   -7    7    8     -2.79      0.00
   -5    7    8     -0.02      0.00
   -3    7    8      1.07      0.00
   -1    7    8     -7.63      0.00
    1    7    8     -9.26      0.00
    3    7    8      2.78      0.00
    5    7    8      6.97      0.00
    7    7    8      0.27      0.00
    9    7    8     -0.83      0.00
   11    7    8      1.76      0.00
   13    7    8      0.62      0.00
   15    7    8     -0.23      0.00
   17    7    8      0.47      0.00
   19    7    8      0.21      0.00
   21    7    8     -0.23      0.00
   23    7    8     -0.18      0.00
   25    7    8     -0.30      0.00
  -24    8    8     -1.87      0.00
  -22    8    8     -0.82      0.00
  -20    8    8      1.53      0.00
  -18    8    8     -0.73      0.00
  -16    8    8     -1.61      0.00
  -14    8    8      3.88      0.00
  -12    8    8      5.50      0.00
  -10    8    8      1.43      0.00
   -8    8    8      1.38      0.00
   -6    8    8      1.57      0.00
   -4    8    8     -1.79      0.00
   -2    8    8      2.25      0.00
    0    8    8      9.48      0.00
    2    8    8      3.32      0.00
    4    8    8     -6.38      0.00
    6    8    8     -3.69      0.00
    8    8    8      0.92      0.00
   10    8    8     -0.89      0.00
   12    8    8     -1.54      0.00
   14    8    8     -0.12      0.00
   16    8    8     -0.22      0.00
   18    8    8     -0.37      0.00
   20    8    8      0.11      0.00
   22    8    8      0.32      0.00
   24    8    8      0.51      0.00
  -23    9    8      1.88      0.00
  -21    9    8     -0.55      0.00
  -19    9    8     -0.99      0.00
  -17    9    8      1.68      0.00
  -15    9    8     -0.90      0.00
  -13    9    8     -5.77      0.00
  -11    9    8     -3.83      0.00
   -9    9    8     -1.16      0.00
   -7    9    8     -2.32      0.00
   -5    9    8     -0.32      0.00
   -3    9    8      0.48      0.00
   -1    9    8     -6.50      0.00
    1    9    8     -7.74      0.00
    3    9    8      1.95      0.00
    5    9    8      5.45      0.00
    7    9    8      0.43      0.00
    9    9    8     -0.51      0.00
   11    9    8      1.25      0.00
   13    9    8      0.49      0.00
   15    9    8     -0.09      0.00
   17    9    8      0.22      0.00
   19    9    8      0.14      0.00
   21    9    8      0.02      0.00
   23    9    8     -0.13      0.00
  -22   10    8     -0.80      0.00
  -20   10    8      1.27      0.00
  -18   10    8     -0.50      0.00
  -16   10    8     -1.51      0.00
  -14   10    8      3.06      0.00
  -12   10    8      4.79      0.00
  -10   10    8      1.35      0.00
   -8   10    8      0.91      0.00
   -6   10    8      1.17      0.00
   -4   10    8     -1.26      0.00
   -2   10    8      1.90      0.00
    0   10    8      7.53      0.00
    2   10    8      2.72      0.00
    4   10    8     -4.94      0.00
    6   10    8     -3.17      0.00
    8   10    8      0.25      0.00
   10   10    8     -0.82      0.00
   12   10    8     -1.15      0.00
   14   10    8     -0.22      0.00
   16   10    8     -0.12      0.00
   18   10    8     -0.11      0.00
   20   10    8     -0.04      0.00
   22   10    8      0.15      0.00
  -23   11    8      1.50      0.00
  -21   11    8     -0.35      0.00
  -19   11    8     -0.89      0.00
  -17   11    8      1.33      0.00
  -15   11    8     -0.58      0.00
  -13   11    8     -4.78      0.00
  -11   11    8     -3.46      0.00
   -9   11    8     -1.00      0.00
   -7   11    8     -1.71      0.00
   -5   11    8     -0.44      0.00
   -3   11    8      0.05      0.00
   -1   11    8     -5.22      0.00
    1   11    8     -6.21      0.00
    3   11    8      1.17      0.00
    5   11    8      4.14      0.00
    7   11    8      0.68      0.00
    9   11    8     -0.14      0.00
   11   11    8      0.84      0.00
   13   11    8      0.30      0.00
   15   11    8     -0.09      0.00
   17   11    8     -0.06      0.00
   19   11    8      0.06      0.00
   21   11    8      0.22      0.00
  -22   12    8     -0.67      0.00
  -20   12    8      0.97      0.00
  -18   12    8     -0.30      0.00
  -16   12    8     -1.23      0.00
  -14   12    8      2.38      0.00
  -12   12    8      4.06      0.00
  -10   12    8      1.34      0.00
   -8   12    8      0.61      0.00
   -6   12    8      0.86      0.00
   -4   12    8     -0.67      0.00
   -2   12    8      1.67      0.00
    0   12    8      5.82      0.00
    2   12    8      2.35      0.00
    4   12    8     -3.53      0.00
    6   12    8     -2.66      0.00
    8   12    8     -0.28      0.00
   10   12    8     -0.76      0.00
   12   12    8     -0.79      0.00
   14   12    8     -0.18      0.00
   16   12    8      0.01      0.00
   18   12    8      0.06      0.00
   20   12    8     -0.20      0.00
  -21   13    8     -0.18      0.00
  -19   13    8     -0.68      0.00
  -17   13    8      0.99      0.00
  -15   13    8     -0.36      0.00
  -13   13    8     -3.72      0.00
  -11   13    8     -2.92      0.00
   -9   13    8     -0.80      0.00
   -7   13    8     -1.08      0.00
   -5   13    8     -0.39      0.00
   -3   13    8     -0.22      0.00
   -1   13    8     -3.95      0.00
    1   13    8     -4.79      0.00
    3   13    8      0.53      0.00
    5   13    8      3.08      0.00
    7   13    8      0.91      0.00
    9   13    8      0.20      0.00
   11   13    8      0.56      0.00
   13   13    8      0.07      0.00
   15   13    8     -0.20      0.00
   17   13    8     -0.29      0.00
   19   13    8     -0.02      0.00
  -18   14    8     -0.13      0.00
  -16   14    8     -0.83      0.00
  -14   14    8      1.84      0.00
  -12   14    8      3.31      0.00
  -10   14    8      1.34      0.00
   -8   14    8      0.49      0.00
   -6   14    8      0.64      0.00
   -4   14    8     -0.14      0.00
   -2   14    8      1.50      0.00
    0   14    8      4.41      0.00
    2   14    8      2.12      0.00
    4   14    8     -2.27      0.00
    6   14    8     -2.13      0.00
    8   14    8     -0.59      0.00
   10   14    8     -0.70      0.00
   12   14    8     -0.47      0.00
   14   14    8     -0.03      0.00
   16   14    8      0.13      0.00
   18   14    8      0.14      0.00
  -17   15    8      0.66      0.00
  -15   15    8     -0.24      0.00
  -13   15    8     -2.69      0.00
  -11   15    8     -2.29      0.00
   -9   15    8     -0.64      0.00
   -7   15    8     -0.56      0.00
   -5   15    8     -0.27      0.00
   -3   15    8     -0.33      0.00
   -1   15    8     -2.81      0.00
    1   15    8     -3.52      0.00
    3   15    8      0.08      0.00
    5   15    8      2.21      0.00
    7   15    8      1.02      0.00
    9   15    8      0.45      0.00
   11   15    8      0.40      0.00
   13   15    8     -0.13      0.00
   15   15    8     -0.33      0.00
   17   15    8     -0.42      0.00
  -16   16    8     -0.42      0.00
  -14   16    8      1.38      0.00
  -12   16    8      2.52      0.00
  -10   16    8      1.28      0.00
   -8   16    8      0.47      0.00
   -6   16    8      0.49      0.00
   -4   16    8      0.23      0.00
   -2   16    8      1.33      0.00
    0   16    8      3.23      0.00
    2   16    8      1.87      0.00
    4   16    8     -1.24      0.00
    6   16    8     -1.58      0.00
    8   16    8     -0.70      0.00
   10   16    8     -0.62      0.00
   12   16    8     -0.22      0.00
   14   16    8      0.15      0.00
   16   16    8      0.23      0.00
  -15   17    8     -0.20      0.00
  -13   17    8     -1.77      0.00
  -11   17    8     -1.65      0.00
   -9   17    8     -0.53      0.00
   -7   17    8     -0.24      0.00
   -5   17    8     -0.15      0.00
   -3   17    8     -0.36      0.00
   -1   17    8     -1.87      0.00
    1   17    8     -2.44      0.00
    3   17    8     -0.20      0.00
    5   17    8      1.48      0.00
    7   17    8      0.98      0.00
    9   17    8      0.57      0.00
   11   17    8      0.29      0.00
   13   17    8     -0.24      0.00
   15   17    8     -0.40      0.00
  -12   18    8      1.73      0.00
  -10   18    8      1.09      0.00
   -8   18    8      0.44      0.00
   -6   18    8      0.37      0.00
   -4   18    8      0.40      0.00
   -2   18    8      1.08      0.00
    0   18    8      2.22      0.00
    2   18    8      1.53      0.00
    4   18    8     -0.51      0.00
    6   18    8     -1.05      0.00
    8   18    8     -0.65      0.00
   10   18    8     -0.48      0.00
   12   18    8     -0.05      0.00
   -9   19    8     -0.44      0.00
   -7   19    8     -0.09      0.00
   -5   19    8     -0.10      0.00
   -3   19    8     -0.33      0.00
   -1   19    8     -1.14      0.00
    1   19    8     -1.55      0.00
    3   19    8     -0.33      0.00
    5   19    8      0.86      0.00
    7   19    8      0.81      0.00
    9   19    8      0.54      0.00
   -6   20    8      0.25      0.00
   -4   20    8      0.39      0.00
   -2   20    8      0.76      0.00
    0   20    8      1.34      0.00
    2   20    8      1.08      0.00
    4   20    8     -0.06      0.00
  -26    0    9     -1.02      0.00
  -24    0    9     -1.40      0.00
  -22    0    9      1.05      0.00
  -20    0    9      1.36      0.00
  -18    0    9     -1.50      0.00
  -16    0    9      1.23      0.00
  -14    0    9      6.23      0.00
  -12    0    9      2.79      0.00
  -10    0    9     -1.53      0.00
   -8    0    9      0.32      0.00
   -6    0    9     -1.05      0.00
   -4    0    9     -2.85      0.00
   -2    0    9      5.35      0.00
    0    0    9      7.71      0.00
    2    0    9     -6.02      0.00
    4    0    9    -10.44      0.00
    6    0    9      0.38      0.00
    8    0    9      2.84      0.00
   10    0    9     -1.56      0.00
   12    0    9     -0.06      0.00
   14    0    9      1.55      0.00
   16    0    9      0.04      0.00
   18    0    9      0.00      0.00
   20    0    9      0.98      0.00
   22    0    9      0.85      0.00
   24    0    9      0.57      0.00
   26    0    9      0.67      0.00
  -25    1    9      1.24      0.00
  -23    1    9      0.03      0.00
  -21    1    9     -2.19      0.00
  -19    1    9     -0.13      0.00
  -17    1    9      0.85      0.00
  -15    1    9     -4.63      0.00
  -13    1    9     -5.86      0.00
  -11    1    9     -0.22      0.00
   -9    1    9      0.45      0.00
   -7    1    9     -1.06      0.00
   -5    1    9      2.17      0.00
   -3    1    9     -1.15      0.00
   -1    1    9     -9.64      0.00
    1    1    9     -2.57      0.00
    3    1    9     10.07      0.00
    5    1    9      4.68      0.00
    7    1    9     -3.95      0.00
    9    1    9     -0.64      0.00
   11    1    9      1.37      0.00
   13    1    9     -1.19      0.00
   15    1    9     -0.66      0.00
   17    1    9      0.58      0.00
   19    1    9     -0.23      0.00
   21    1    9     -0.72      0.00
   23    1    9     -0.36      0.00
   25    1    9     -0.42      0.00
  -26    2    9     -1.00      0.00
  -24    2    9     -1.39      0.00
  -22    2    9      1.05      0.00
  -20    2    9      1.36      0.00
  -18    2    9     -1.49      0.00
  -16    2    9      1.16      0.00
  -14    2    9      6.13      0.00
  -12    2    9      2.81      0.00
  -10    2    9     -1.45      0.00
   -8    2    9      0.34      0.00
   -6    2    9     -0.98      0.00
   -4    2    9     -2.72      0.00
   -2    2    9      5.26      0.00
    0    2    9      7.50      0.00
    2    2    9     -5.84      0.00
    4    2    9    -10.07      0.00
    6    2    9      0.40      0.00
    8    2    9      2.76      0.00
   10    2    9     -1.51      0.00
   12    2    9     -0.10      0.00
   14    2    9      1.47      0.00
   16    2    9      0.03      0.00
   18    2    9     -0.02      0.00
   20    2    9      0.92      0.00
   22    2    9      0.79      0.00
   24    2    9      0.51      0.00
   26    2    9      0.60      0.00
  -25    3    9      1.23      0.00
  -23    3    9      0.05      0.00
  -21    3    9     -2.13      0.00
  -19    3    9     -0.09      0.00
  -17    3    9      0.97      0.00
  -15    3    9     -4.30      0.00
  -13    3    9     -5.60      0.00
  -11    3    9     -0.18      0.00
   -9    3    9      0.56      0.00
   -7    3    9     -0.87      0.00
   -5    3    9      2.20      0.00
   -3    3    9     -0.99      0.00
   -1    3    9     -8.99      0.00
    1    3    9     -2.22      0.00
    3    3    9      9.59      0.00
    5    3    9      4.45      0.00
    7    3    9     -3.61      0.00
    9    3    9     -0.54      0.00
   11    3    9      1.35      0.00
   13    3    9     -1.03      0.00
   15    3    9     -0.62      0.00
   17    3    9      0.49      0.00
   19    3    9     -0.26      0.00
   21    3    9     -0.72      0.00
   23    3    9     -0.39      0.00
   25    3    9     -0.41      0.00
  -26    4    9     -0.94      0.00
  -24    4    9     -1.34      0.00
  -22    4    9      1.03      0.00
  -20    4    9      1.37      0.00
  -18    4    9     -1.43      0.00
  -16    4    9      0.99      0.00
  -14    4    9      5.84      0.00
  -12    4    9      2.88      0.00
  -10    4    9     -1.22      0.00
   -8    4    9      0.39      0.00
   -6    4    9     -0.81      0.00
   -4    4    9     -2.37      0.00
   -2    4    9      5.01      0.00
    0    4    9      6.92      0.00
    2    4    9     -5.33      0.00
    4    4    9     -9.07      0.00
    6    4    9      0.40      0.00
    8    4    9      2.51      0.00
   10    4    9     -1.35      0.00
   12    4    9     -0.18      0.00
   14    4    9      1.24      0.00
   16    4    9      0.03      0.00
   18    4    9     -0.04      0.00
   20    4    9      0.76      0.00
   22    4    9      0.65      0.00
   24    4    9      0.38      0.00
   26    4    9      0.40      0.00
  -25    5    9      1.16      0.00
  -23    5    9      0.09      0.00
  -21    5    9     -2.00      0.00
  -19    5    9     -0.05      0.00
  -17    5    9      1.14      0.00
  -15    5    9     -3.72      0.00
  -13    5    9     -5.15      0.00
  -11    5    9     -0.16      0.00
   -9    5    9      0.73      0.00
   -7    5    9     -0.54      0.00
   -5    5    9      2.18      0.00
   -3    5    9     -0.76      0.00
   -1    5    9     -7.83      0.00
    1    5    9     -1.66      0.00
    3    5    9      8.68      0.00
    5    5    9      4.07      0.00
    7    5    9     -2.98      0.00
    9    5    9     -0.39      0.00
   11    5    9      1.26      0.00
   13    5    9     -0.75      0.00
   15    5    9     -0.55      0.00
   17    5    9      0.33      0.00
   19    5    9     -0.27      0.00
   21    5    9     -0.69      0.00
   23    5    9     -0.44      0.00
   25    5    9     -0.40      0.00
  -24    6    9     -1.25      0.00
  -22    6    9      0.96      0.00
  -20    6    9      1.36      0.00
  -18    6    9     -1.31      0.00
  -16    6    9      0.75      0.00
  -14    6    9      5.36      0.00
  -12    6    9      2.93      0.00
  -10    6    9     -0.89      0.00
   -8    6    9      0.40      0.00
   -6    6    9     -0.58      0.00
   -4    6    9     -1.84      0.00
   -2    6    9      4.61      0.00
    0    6    9      6.06      0.00
    2    6    9     -4.55      0.00
    4    6    9     -7.66      0.00
    6    6    9      0.33      0.00
    8    6    9      2.12      0.00
   10    6    9     -1.07      0.00
   12    6    9     -0.24      0.00
   14    6    9      0.94      0.00
   16    6    9      0.07      0.00
   18    6    9     -0.07      0.00
   20    6    9      0.51      0.00
   22    6    9      0.49      0.00
   24    6    9      0.26      0.00
  -25    7    9      1.02      0.00
  -23    7    9      0.15      0.00
  -21    7    9     -1.81      0.00
  -19    7    9     -0.05      0.00
  -17    7    9      1.26      0.00
  -15    7    9     -3.03      0.00
  -13    7    9     -4.60      0.00
  -11    7    9     -0.20      0.00
   -9    7    9      0.87      0.00
   -7    7    9     -0.17      0.00
   -5    7    9      2.03      0.00
   -3    7    9     -0.57      0.00
   -1    7    9     -6.43      0.00
    1    7    9     -1.10      0.00
    3    7    9      7.44      0.00
    5    7    9      3.60      0.00
    7    7    9     -2.17      0.00
    9    7    9     -0.24      0.00
   11    7    9      1.08      0.00
   13    7    9     -0.46      0.00
   15    7    9     -0.48      0.00
   17    7    9      0.13      0.00
   19    7    9     -0.20      0.00
   21    7    9     -0.58      0.00
   23    7    9     -0.51      0.00
  -24    8    9     -1.10      0.00
  -22    8    9      0.83      0.00
  -20    8    9      1.31      0.00
  -18    8    9     -1.12      0.00
  -16    8    9      0.49      0.00
  -14    8    9      4.73      0.00
  -12    8    9      2.92      0.00
  -10    8    9     -0.56      0.00
   -8    8    9      0.31      0.00
   -6    8    9     -0.38      0.00
   -4    8    9     -1.24      0.00
   -2    8    9      4.07      0.00
    0    8    9      5.06      0.00
    2    8    9     -3.63      0.00
    4    8    9     -6.12      0.00
    6    8    9      0.15      0.00
    8    8    9      1.64      0.00
   10    8    9     -0.72      0.00
   12    8    9     -0.22      0.00
   14    8    9      0.68      0.00
   16    8    9      0.19      0.00
   18    8    9     -0.07      0.00
   20    8    9      0.20      0.00
   22    8    9      0.35      0.00
   24    8    9      0.20      0.00
  -23    9    9      0.18      0.00
  -21    9    9     -1.55      0.00
  -19    9    9     -0.10      0.00
  -17    9    9      1.23      0.00
  -15    9    9     -2.37      0.00
  -13    9    9     -4.03      0.00
  -11    9    9     -0.34      0.00
   -9    9    9      0.92      0.00
   -7    9    9      0.13      0.00
   -5    9    9      1.68      0.00
   -3    9    9     -0.51      0.00
   -1    9    9     -5.07      0.00
    1    9    9     -0.70      0.00
    3    9    9      6.03      0.00
    5    9    9      3.12      0.00
    7    9    9     -1.32      0.00
    9    9    9     -0.12      0.00
   11    9    9      0.81      0.00
   13    9    9     -0.23      0.00
   15    9    9     -0.43      0.00
   17    9    9     -0.05      0.00
   19    9    9     -0.03      0.00
   21    9    9     -0.37      0.00
   23    9    9     -0.55      0.00
  -22   10    9      0.66      0.00
  -20   10    9      1.18      0.00
  -18   10    9     -0.89      0.00
  -16   10    9      0.29      0.00
  -14   10    9      3.98      0.00
  -12   10    9      2.77      0.00
  -10   10    9     -0.30      0.00
   -8   10    9      0.12      0.00
   -6   10    9     -0.25      0.00
   -4   10    9     -0.69      0.00
   -2   10    9      3.42      0.00
    0   10    9      4.06      0.00
    2   10    9     -2.71      0.00
    4   10    9     -4.74      0.00
    6   10    9     -0.14      0.00
    8   10    9      1.13      0.00
   10   10    9     -0.37      0.00
   12   10    9     -0.10      0.00
   14   10    9      0.51      0.00
   16   10    9      0.33      0.00
   18   10    9     -0.07      0.00
   20   10    9     -0.10      0.00
   22   10    9      0.25      0.00
  -21   11    9     -1.24      0.00
  -19   11    9     -0.17      0.00
  -17   11    9      1.03      0.00
  -15   11    9     -1.84      0.00
  -13   11    9     -3.45      0.00
  -11   11    9     -0.54      0.00
   -9   11    9      0.85      0.00
   -7   11    9      0.31      0.00
   -5   11    9      1.20      0.00
   -3   11    9     -0.57      0.00
   -1   11    9     -3.91      0.00
    1   11    9     -0.55      0.00
    3   11    9      4.62      0.00
    5   11    9      2.67      0.00
    7   11    9     -0.59      0.00
    9   11    9     -0.02      0.00
   11   11    9      0.49      0.00
   13   11    9     -0.13      0.00
   15   11    9     -0.39      0.00
   17   11    9     -0.15      0.00
   19   11    9      0.20      0.00
   21   11    9     -0.10      0.00
  -20   12    9      0.94      0.00
  -18   12    9     -0.65      0.00
  -16   12    9      0.16      0.00
  -14   12    9      3.17      0.00
  -12   12    9      2.45      0.00
  -10   12    9     -0.13      0.00
   -8   12    9     -0.13      0.00
   -6   12    9     -0.21      0.00
   -4   12    9     -0.28      0.00
   -2   12    9      2.72      0.00
    0   12    9      3.14      0.00
    2   12    9     -1.90      0.00
    4   12    9     -3.63      0.00
    6   12    9     -0.47      0.00
    8   12    9      0.62      0.00
   10   12    9     -0.12      0.00
   12   12    9      0.09      0.00
   14   12    9      0.46      0.00
   16   12    9      0.44      0.00
   18   12    9     -0.08      0.00
   20   12    9     -0.33      0.00
  -19   13    9     -0.21      0.00
  -17   13    9      0.72      0.00
  -15   13    9     -1.44      0.00
  -13   13    9     -2.85      0.00
  -11   13    9     -0.72      0.00
   -9   13    9      0.66      0.00
   -7   13    9      0.36      0.00
   -5   13    9      0.69      0.00
   -3   13    9     -0.67      0.00
   -1   13    9     -3.00      0.00
    1   13    9     -0.58      0.00
    3   13    9      3.34      0.00
    5   13    9      2.26      0.00
    7   13    9     -0.03      0.00
    9   13    9      0.09      0.00
   11   13    9      0.21      0.00
   13   13    9     -0.16      0.00
   15   13    9     -0.35      0.00
   17   13    9     -0.13      0.00
   19   13    9      0.42      0.00
  -18   14    9     -0.43      0.00
  -16   14    9      0.10      0.00
  -14   14    9      2.35      0.00
  -12   14    9      1.99      0.00
  -10   14    9     -0.04      0.00
   -8   14    9     -0.34      0.00
   -6   14    9     -0.25      0.00
   -4   14    9     -0.05      0.00
   -2   14    9      2.02      0.00
    0   14    9      2.34      0.00
    2   14    9     -1.26      0.00
    4   14    9     -2.79      0.00
    6   14    9     -0.73      0.00
    8   14    9      0.17      0.00
   10   14    9     -0.01      0.00
   12   14    9      0.27      0.00
   14   14    9      0.47      0.00
   16   14    9      0.45      0.00
   18   14    9     -0.11      0.00
  -17   15    9      0.38      0.00
  -15   15    9     -1.10      0.00
  -13   15    9     -2.22      0.00
  -11   15    9     -0.80      0.00
   -9   15    9      0.43      0.00
   -7   15    9      0.32      0.00
   -5   15    9      0.28      0.00
   -3   15    9     -0.71      0.00
   -1   15    9     -2.28      0.00
    1   15    9     -0.66      0.00
    3   15    9      2.28      0.00
    5   15    9      1.84      0.00
    7   15    9      0.32      0.00
    9   15    9      0.19      0.00
   11   15    9      0.01      0.00
   13   15    9     -0.24      0.00
   15   15    9     -0.29      0.00
   17   15    9     -0.03      0.00
  -16   16    9      0.09      0.00
  -14   16    9      1.58      0.00
  -12   16    9      1.47      0.00
  -10   16    9      0.02      0.00
   -8   16    9     -0.45      0.00
   -6   16    9     -0.29      0.00
   -4   16    9      0.03      0.00
   -2   16    9      1.38      0.00
    0   16    9      1.66      0.00
    2   16    9     -0.79      0.00
    4   16    9     -2.10      0.00
    6   16    9     -0.88      0.00
    8   16    9     -0.18      0.00
   10   16    9     -0.01      0.00
   12   16    9      0.36      0.00
   14   16    9      0.45      0.00
   16   16    9      0.36      0.00
  -13   17    9     -1.58      0.00
  -11   17    9     -0.77      0.00
   -9   17    9      0.21      0.00
   -7   17    9      0.25      0.00
   -5   17    9      0.04      0.00
   -3   17    9     -0.65      0.00
   -1   17    9     -1.66      0.00
    1   17    9     -0.67      0.00
    3   17    9      1.42      0.00
    5   17    9      1.41      0.00
    7   17    9      0.49      0.00
    9   17    9      0.26      0.00
   11   17    9     -0.08      0.00
   13   17    9     -0.28      0.00
  -12   18    9      0.98      0.00
  -10   18    9      0.07      0.00
   -8   18    9     -0.43      0.00
   -6   18    9     -0.29      0.00
   -4   18    9      0.04      0.00
   -2   18    9      0.85      0.00
    0   18    9      1.09      0.00
    2   18    9     -0.44      0.00
    4   18    9     -1.47      0.00
    6   18    9     -0.87      0.00
    8   18    9     -0.38      0.00
   10   18    9     -0.06      0.00
   -7   19    9      0.20      0.00
   -5   19    9     -0.05      0.00
   -3   19    9     -0.49      0.00
   -1   19    9     -1.09      0.00
    1   19    9     -0.57      0.00
    3   19    9      0.76      0.00
    5   19    9      0.98      0.00
    7   19    9      0.53      0.00
   -2   20    9      0.47      0.00
    0   20    9      0.65      0.00
    2   20    9     -0.17      0.00
  -26    0   10     -0.27      0.00
  -24    0   10      0.19      0.00
  -22    0   10      1.64      0.00
  -20    0   10      0.51      0.00
  -18    0   10     -0.83      0.00
  -16    0   10      2.61      0.00
  -14    0   10      3.88      0.00
  -12    0   10     -1.10      0.00
  -10    0   10     -2.53      0.00
   -8    0   10      0.00      0.00
   -6    0   10     -1.49      0.00
   -4    0   10     -0.03      0.00
   -2    0   10      6.29      0.00
    0    0   10      1.17      0.00
    2    0   10     -8.56      0.00
    4    0   10     -2.57      0.00
    6    0   10      5.81      0.00
    8    0   10      2.26      0.00
   10    0   10     -0.53      0.00
   12    0   10      1.42      0.00
   14    0   10      0.94      0.00
   16    0   10     -0.39      0.00
   18    0   10      0.19      0.00
   20    0   10      0.69      0.00
   22    0   10      0.18      0.00
   24    0   10      0.00      0.00
  -25    1   10      0.62      0.00
  -23    1   10     -0.64      0.00
  -21    1   10     -1.13      0.00
  -19    1   10      0.97      0.00
  -17    1   10     -0.13      0.00
  -15    1   10     -3.88      0.00
  -13    1   10     -1.41      0.00
  -11    1   10      3.05      0.00
   -9    1   10      1.46      0.00
   -7    1   10      0.76      0.00
   -5    1   10      2.40      0.00
   -3    1   10     -2.84      0.00
   -1    1   10     -4.93      0.00
    1    1   10      5.55      0.00
    3    1   10      8.15      0.00
    5    1   10     -2.33      0.00
    7    1   10     -4.52      0.00
    9    1   10      0.35      0.00
   11    1   10     -0.25      0.00
   13    1   10     -1.62      0.00
   15    1   10     -0.24      0.00
   17    1   10      0.01      0.00
   19    1   10     -0.88      0.00
   21    1   10     -0.77      0.00
   23    1   10     -0.25      0.00
   25    1   10     -0.29      0.00
  -26    2   10     -0.29      0.00
  -24    2   10      0.18      0.00
  -22    2   10      1.60      0.00
  -20    2   10      0.45      0.00
  -18    2   10     -0.90      0.00
  -16    2   10      2.49      0.00
  -14    2   10      3.79      0.00
  -12    2   10     -1.09      0.00
  -10    2   10     -2.55      0.00
   -8    2   10     -0.12      0.00
   -6    2   10     -1.55      0.00
   -4    2   10     -0.08      0.00
   -2    2   10      6.03      0.00
    0    2   10      1.03      0.00
    2    2   10     -8.34      0.00
    4    2   10     -2.51      0.00
    6    2   10      5.59      0.00
    8    2   10      2.16      0.00
   10    2   10     -0.56      0.00
   12    2   10      1.34      0.00
   14    2   10      0.93      0.00
   16    2   10     -0.36      0.00
   18    2   10      0.19      0.00
   20    2   10      0.69      0.00
   22    2   10      0.19      0.00
   24    2   10      0.00      0.00
  -25    3   10      0.62      0.00
  -23    3   10     -0.64      0.00
  -21    3   10     -1.08      0.00
  -19    3   10      1.00      0.00
  -17    3   10     -0.04      0.00
  -15    3   10     -3.75      0.00
  -13    3   10     -1.49      0.00
  -11    3   10      2.84      0.00
   -9    3   10      1.41      0.00
   -7    3   10      0.76      0.00
   -5    3   10      2.22      0.00
   -3    3   10     -2.76      0.00
   -1    3   10     -4.63      0.00
    1    3   10      5.22      0.00
    3    3   10      7.56      0.00
    5    3   10     -2.24      0.00
    7    3   10     -4.25      0.00
    9    3   10      0.35      0.00
   11    3   10     -0.14      0.00
   13    3   10     -1.49      0.00
   15    3   10     -0.23      0.00
   17    3   10      0.06      0.00
   19    3   10     -0.76      0.00
   21    3   10     -0.67      0.00
   23    3   10     -0.14      0.00
   25    3   10     -0.16      0.00
  -24    4   10      0.16      0.00
  -22    4   10      1.50      0.00
  -20    4   10      0.32      0.00
  -18    4   10     -1.05      0.00
  -16    4   10      2.16      0.00
  -14    4   10      3.53      0.00
  -12    4   10     -1.03      0.00
  -10    4   10     -2.57      0.00
   -8    4   10     -0.43      0.00
   -6    4   10     -1.69      0.00
   -4    4   10     -0.21      0.00
   -2    4   10      5.33      0.00
    0    4   10      0.66      0.00
    2    4   10     -7.71      0.00
    4    4   10     -2.33      0.00
    6    4   10      4.96      0.00
    8    4   10      1.90      0.00
   10    4   10     -0.61      0.00
   12    4   10      1.12      0.00
   14    4   10      0.90      0.00
   16    4   10     -0.26      0.00
   18    4   10      0.18      0.00
   20    4   10      0.67      0.00
   22    4   10      0.22      0.00
   24    4   10      0.00      0.00
  -25    5   10      0.60      0.00
  -23    5   10     -0.62      0.00
  -21    5   10     -1.01      0.00
  -19    5   10      1.01      0.00
  -17    5   10      0.08      0.00
  -15    5   10     -3.50      0.00
  -13    5   10     -1.61      0.00
  -11    5   10      2.44      0.00
   -9    5   10      1.35      0.00
   -7    5   10      0.76      0.00
   -5    5   10      1.88      0.00
   -3    5   10     -2.62      0.00
   -1    5   10     -4.08      0.00
    1    5   10      4.61      0.00
    3    5   10      6.51      0.00
    5    5   10     -2.02      0.00
    7    5   10     -3.75      0.00
    9    5   10      0.28      0.00
   11    5   10     -0.01      0.00
   13    5   10     -1.25      0.00
   15    5   10     -0.25      0.00
   17    5   10      0.13      0.00
   19    5   10     -0.54      0.00
   21    5   10     -0.51      0.00
   23    5   10     -0.01      0.00
   25    5   10      0.03      0.00
  -24    6   10      0.12      0.00
  -22    6   10      1.35      0.00
  -20    6   10      0.20      0.00
  -18    6   10     -1.17      0.00
  -16    6   10      1.73      0.00
  -14    6   10      3.18      0.00
  -12    6   10     -0.87      0.00
  -10    6   10     -2.53      0.00
   -8    6   10     -0.82      0.00
   -6    6   10     -1.77      0.00
   -4    6   10     -0.29      0.00
   -2    6   10      4.36      0.00
    0    6   10      0.21      0.00
    2    6   10     -6.76      0.00
    4    6   10     -2.09      0.00
    6    6   10      4.05      0.00
    8    6   10      1.56      0.00
   10    6   10     -0.60      0.00
   12    6   10      0.81      0.00
   14    6   10      0.83      0.00
   16    6   10     -0.12      0.00
   18    6   10      0.12      0.00
   20    6   10      0.59      0.00
   22    6   10      0.28      0.00
   24    6   10      0.01      0.00
  -23    7   10     -0.57      0.00
  -21    7   10     -0.92      0.00
  -19    7   10      0.94      0.00
  -17    7   10      0.20      0.00
  -15    7   10     -3.13      0.00
  -13    7   10     -1.73      0.00
  -11    7   10      1.94      0.00
   -9    7   10      1.30      0.00
   -7    7   10      0.76      0.00
   -5    7   10      1.41      0.00
   -3    7   10     -2.42      0.00
   -1    7   10     -3.38      0.00
    1    7   10      3.84      0.00
    3    7   10      5.25      0.00
    5    7   10     -1.68      0.00
    7    7   10     -3.11      0.00
    9    7   10      0.13      0.00
   11    7   10      0.07      0.00
   13    7   10     -0.96      0.00
   15    7   10     -0.29      0.00
   17    7   10      0.18      0.00
   19    7   10     -0.24      0.00
   21    7   10     -0.35      0.00
   23    7   10      0.05      0.00
  -22    8   10      1.16      0.00
  -20    8   10      0.15      0.00
  -18    8   10     -1.17      0.00
  -16    8   10      1.31      0.00
  -14    8   10      2.80      0.00
  -12    8   10     -0.60      0.00
  -10    8   10     -2.37      0.00
   -8    8   10     -1.15      0.00
   -6    8   10     -1.69      0.00
   -4    8   10     -0.24      0.00
   -2    8   10      3.37      0.00
    0    8   10     -0.17      0.00
    2    8   10     -5.61      0.00
    4    8   10     -1.84      0.00
    6    8   10      3.01      0.00
    8    8   10      1.22      0.00
   10    8   10     -0.48      0.00
   12    8   10      0.51      0.00
   14    8   10      0.71      0.00
   16    8   10      0.01      0.00
   18    8   10     -0.02      0.00
   20    8   10      0.42      0.00
   22    8   10      0.37      0.00
  -23    9   10     -0.48      0.00
  -21    9   10     -0.82      0.00
  -19    9   10      0.79      0.00
  -17    9   10      0.25      0.00
  -15    9   10     -2.69      0.00
  -13    9   10     -1.78      0.00
  -11    9   10      1.42      0.00
   -9    9   10      1.28      0.00
   -7    9   10      0.75      0.00
   -5    9   10      0.90      0.00
   -3    9   10     -2.16      0.00
   -1    9   10     -2.65      0.00
    1    9   10      3.03      0.00
    3    9   10      4.04      0.00
    5    9   10     -1.23      0.00
    7    9   10     -2.41      0.00
    9    9   10     -0.08      0.00
   11    9   10      0.03      0.00
   13    9   10     -0.70      0.00
   15    9   10     -0.35      0.00
   17    9   10      0.21      0.00
   19    9   10      0.07      0.00
   21    9   10     -0.26      0.00
   23    9   10     -0.01      0.00
  -22   10   10      0.95      0.00
  -20   10   10      0.15      0.00
  -18   10   10     -1.01      0.00
  -16   10   10      0.98      0.00
  -14   10   10      2.42      0.00
  -12   10   10     -0.25      0.00
  -10   10   10     -2.08      0.00
   -8   10   10     -1.33      0.00
   -6   10   10     -1.42      0.00
   -4   10   10     -0.06      0.00
   -2   10   10      2.53      0.00
    0   10   10     -0.35      0.00
    2   10   10     -4.45      0.00
    4   10   10     -1.61      0.00
    6   10   10      2.02      0.00
    8   10   10      0.93      0.00
   10   10   10     -0.27      0.00
   12   10   10      0.29      0.00
   14   10   10      0.56      0.00
   16   10   10      0.07      0.00
   18   10   10     -0.24      0.00
   20   10   10      0.18      0.00
   22   10   10      0.42      0.00
  -21   11   10     -0.67      0.00
  -19   11   10      0.59      0.00
  -17   11   10      0.24      0.00
  -15   11   10     -2.18      0.00
  -13   11   10     -1.69      0.00
  -11   11   10      0.98      0.00
   -9   11   10      1.27      0.00
   -7   11   10      0.74      0.00
   -5   11   10      0.47      0.00
   -3   11   10     -1.83      0.00
   -1   11   10     -1.99      0.00
    1   11   10      2.32      0.00
    3   11   10      3.09      0.00
    5   11   10     -0.74      0.00
    7   11   10     -1.73      0.00
    9   11   10     -0.27      0.00
   11   11   10     -0.10      0.00
   13   11   10     -0.51      0.00
   15   11   10     -0.37      0.00
   17   11   10      0.24      0.00
   19   11   10      0.32      0.00
   21   11   10     -0.21      0.00
  -20   12   10      0.18      0.00
  -18   12   10     -0.73      0.00
  -16   12   10      0.77      0.00
  -14   12   10      2.04      0.00
  -12   12   10      0.07      0.00
  -10   12   10     -1.68      0.00
   -8   12   10     -1.31      0.00
   -6   12   10     -1.04      0.00
   -4   12   10      0.16      0.00
   -2   12   10      1.90      0.00
    0   12   10     -0.34      0.00
    2   12   10     -3.41      0.00
    4   12   10     -1.44      0.00
    6   12   10      1.21      0.00
    8   12   10      0.66      0.00
   10   12   10     -0.05      0.00
   12   12   10      0.19      0.00
   14   12   10      0.38      0.00
   16   12   10      0.02      0.00
   18   12   10     -0.49      0.00
   20   12   10     -0.07      0.00
  -19   13   10      0.39      0.00
  -17   13   10      0.18      0.00
  -15   13   10     -1.64      0.00
  -13   13   10     -1.44      0.00
  -11   13   10      0.67      0.00
   -9   13   10      1.24      0.00
   -7   13   10      0.74      0.00
   -5   13   10      0.20      0.00
   -3   13   10     -1.44      0.00
   -1   13   10     -1.43      0.00
    1   13   10      1.75      0.00
    3   13   10      2.43      0.00
    5   13   10     -0.27      0.00
    7   13   10     -1.11      0.00
    9   13   10     -0.35      0.00
   11   13   10     -0.25      0.00
   13   13   10     -0.40      0.00
   15   13   10     -0.32      0.00
   17   13   10      0.30      0.00
   19   13   10      0.48      0.00
  -18   14   10     -0.41      0.00
  -16   14   10      0.61      0.00
  -14   14   10      1.62      0.00
  -12   14   10      0.29      0.00
  -10   14   10     -1.25      0.00
   -8   14   10     -1.15      0.00
   -6   14   10     -0.66      0.00
   -4   14   10      0.32      0.00
   -2   14   10      1.46      0.00
    0   14   10     -0.21      0.00
    2   14   10     -2.55      0.00
    4   14   10     -1.29      0.00
    6   14   10      0.60      0.00
    8   14   10      0.41      0.00
   10   14   10      0.11      0.00
   12   14   10      0.18      0.00
   14   14   10      0.20      0.00
   16   14   10     -0.12      0.00
   18   14   10     -0.67      0.00
  -15   15   10     -1.11      0.00
  -13   15   10     -1.09      0.00
  -11   15   10      0.47      0.00
   -9   15   10      1.16      0.00
   -7   15   10      0.72      0.00
   -5   15   10      0.11      0.00
   -3   15   10     -1.02      0.00
   -1   15   10     -0.99      0.00
    1   15   10      1.32      0.00
    3   15   10      1.97      0.00
    5   15   10      0.13      0.00
    7   15   10     -0.58      0.00
    9   15   10     -0.31      0.00
   11   15   10     -0.34      0.00
   13   15   10     -0.32      0.00
   15   15   10     -0.19      0.00
  -14   16   10      1.18      0.00
  -12   16   10      0.38      0.00
  -10   16   10     -0.86      0.00
   -8   16   10     -0.92      0.00
   -6   16   10     -0.39      0.00
   -4   16   10      0.34      0.00
   -2   16   10      1.09      0.00
    0   16   10     -0.05      0.00
    2   16   10     -1.84      0.00
    4   16   10     -1.13      0.00
    6   16   10      0.17      0.00
    8   16   10      0.18      0.00
   10   16   10      0.18      0.00
   12   16   10      0.18      0.00
   14   16   10      0.05      0.00
  -13   17   10     -0.72      0.00
  -11   17   10      0.31      0.00
   -9   17   10      0.99      0.00
   -7   17   10      0.67      0.00
   -5   17   10      0.12      0.00
   -3   17   10     -0.61      0.00
   -1   17   10     -0.64      0.00
    1   17   10      0.96      0.00
    3   17   10      1.57      0.00
    5   17   10      0.39      0.00
    7   17   10     -0.15      0.00
    9   17   10     -0.17      0.00
   11   17   10     -0.32      0.00
  -10   18   10     -0.55      0.00
   -8   18   10     -0.71      0.00
   -6   18   10     -0.26      0.00
   -4   18   10      0.25      0.00
   -2   18   10      0.76      0.00
    0   18   10      0.05      0.00
    2   18   10     -1.23      0.00
    4   18   10     -0.91      0.00
    6   18   10     -0.11      0.00
    8   18   10      0.00      0.00
   10   18   10      0.15      0.00
   -5   19   10      0.17      0.00
   -3   19   10     -0.30      0.00
   -1   19   10     -0.38      0.00
    1   19   10      0.62      0.00
    3   19   10      1.12      0.00
    5   19   10      0.49      0.00
  -24    0   11     -0.03      0.00
  -22    0   11      0.53      0.00
  -20    0   11     -0.59      0.00
  -18    0   11     -0.49      0.00
  -16    0   11      2.05      0.00
  -14    0   11      0.70      0.00
  -12    0   11     -3.04      0.00
  -10    0   11     -1.76      0.00
   -8    0   11     -0.01      0.00
   -6    0   11     -1.41      0.00
   -4    0   11      1.61      0.00
   -2    0   11      3.44      0.00
    0    0   11     -4.22      0.00
    2    0   11     -5.43      0.00
    4    0   11      3.97      0.00
    6    0   11      5.18      0.00
    8    0   11     -0.24      0.00
   10    0   11     -0.29      0.00
   12    0   11      0.97      0.00
   14    0   11     -0.13      0.00
   16    0   11     -0.36      0.00
   18    0   11      0.45      0.00
   20    0   11      0.29      0.00
   22    0   11     -0.30      0.00
   24    0   11     -0.09      0.00
  -25    1   11     -0.06      0.00
  -23    1   11     -0.75      0.00
  -21    1   11     -0.50      0.00
  -19    1   11      0.67      0.00
  -17    1   11     -1.10      0.00
  -15    1   11     -2.36      0.00
  -13    1   11      1.25      0.00
  -11    1   11      2.85      0.00
   -9    1   11      0.14      0.00
   -7    1   11      0.47      0.00
   -5    1   11      0.24      0.00
   -3    1   11     -4.12      0.00
   -1    1   11     -0.75      0.00
    1    1   11      6.13      0.00
    3    1   11      0.28      0.00
    5    1   11     -6.75      0.00
    7    1   11     -2.67      0.00
    9    1   11      0.68      0.00
   11    1   11     -0.82      0.00
   13    1   11     -0.56      0.00
   15    1   11      0.59      0.00
   17    1   11      0.13      0.00
   19    1   11     -0.28      0.00
   21    1   11      0.34      0.00
   23    1   11      0.52      0.00
   25    1   11      0.14      0.00
  -24    2   11     -0.01      0.00
  -22    2   11      0.50      0.00
  -20    2   11     -0.61      0.00
  -18    2   11     -0.50      0.00
  -16    2   11      2.02      0.00
  -14    2   11      0.75      0.00
  -12    2   11     -2.94      0.00
  -10    2   11     -1.76      0.00
   -8    2   11     -0.05      0.00
   -6    2   11     -1.34      0.00
   -4    2   11      1.62      0.00
   -2    2   11      3.33      0.00
    0    2   11     -4.07      0.00
    2    2   11     -5.19      0.00
    4    2   11      3.88      0.00
    6    2   11      5.03      0.00
    8    2   11     -0.25      0.00
   10    2   11     -0.33      0.00
   12    2   11      0.95      0.00
   14    2   11     -0.11      0.00
   16    2   11     -0.38      0.00
   18    2   11      0.40      0.00
   20    2   11      0.26      0.00
   22    2   11     -0.34      0.00
   24    2   11     -0.13      0.00
  -25    3   11     -0.06      0.00
  -23    3   11     -0.71      0.00
  -21    3   11     -0.40      0.00
  -19    3   11      0.74      0.00
  -17    3   11     -0.97      0.00
  -15    3   11     -2.26      0.00
  -13    3   11      1.19      0.00
  -11    3   11      2.86      0.00
   -9    3   11      0.39      0.00
   -7    3   11      0.61      0.00
   -5    3   11      0.27      0.00
   -3    3   11     -3.78      0.00
   -1    3   11     -0.55      0.00
    1    3   11      5.77      0.00
    3    3   11      0.25      0.00
    5    3   11     -6.29      0.00
    7    3   11     -2.48      0.00
    9    3   11      0.72      0.00
   11    3   11     -0.73      0.00
   13    3   11     -0.61      0.00
   15    3   11      0.51      0.00
   17    3   11      0.12      0.00
   19    3   11     -0.31      0.00
   21    3   11      0.28      0.00
   23    3   11      0.48      0.00
  -24    4   11      0.01      0.00
  -22    4   11      0.44      0.00
  -20    4   11     -0.64      0.00
  -18    4   11     -0.52      0.00
  -16    4   11      1.95      0.00
  -14    4   11      0.87      0.00
  -12    4   11     -2.65      0.00
  -10    4   11     -1.76      0.00
   -8    4   11     -0.18      0.00
   -6    4   11     -1.12      0.00
   -4    4   11      1.64      0.00
   -2    4   11      3.02      0.00
    0    4   11     -3.65      0.00
    2    4   11     -4.52      0.00
    4    4   11      3.62      0.00
    6    4   11      4.61      0.00
    8    4   11     -0.23      0.00
   10    4   11     -0.41      0.00
   12    4   11      0.86      0.00
   14    4   11     -0.06      0.00
   16    4   11     -0.43      0.00
   18    4   11      0.28      0.00
   20    4   11      0.18      0.00
   22    4   11     -0.40      0.00
   24    4   11     -0.23      0.00
  -23    5   11     -0.62      0.00
  -21    5   11     -0.25      0.00
  -19    5   11      0.83      0.00
  -17    5   11     -0.77      0.00
  -15    5   11     -2.07      0.00
  -13    5   11      1.05      0.00
  -11    5   11      2.83      0.00
   -9    5   11      0.81      0.00
   -7    5   11      0.81      0.00
   -5    5   11      0.26      0.00
   -3    5   11     -3.17      0.00
   -1    5   11     -0.20      0.00
    1    5   11      5.11      0.00
    3    5   11      0.20      0.00
    5    5   11     -5.44      0.00
    7    5   11     -2.14      0.00
    9    5   11      0.74      0.00
   11    5   11     -0.55      0.00
   13    5   11     -0.63      0.00
   15    5   11      0.38      0.00
   17    5   11      0.13      0.00
   19    5   11     -0.32      0.00
   21    5   11      0.16      0.00
   23    5   11      0.40      0.00
  -24    6   11      0.03      0.00
  -22    6   11      0.36      0.00
  -20    6   11     -0.65      0.00
  -18    6   11     -0.53      0.00
  -16    6   11      1.79      0.00
  -14    6   11      1.02      0.00
  -12    6   11     -2.21      0.00
  -10    6   11     -1.76      0.00
   -8    6   11     -0.36      0.00
   -6    6   11     -0.78      0.00
   -4    6   11      1.64      0.00
   -2    6   11      2.53      0.00
    0    6   11     -3.08      0.00
    2    6   11     -3.61      0.00
    4    6   11      3.18      0.00
    6    6   11      3.96      0.00
    8    6   11     -0.17      0.00
   10    6   11     -0.46      0.00
   12    6   11      0.69      0.00
   14    6   11      0.01      0.00
   16    6   11     -0.47      0.00
   18    6   11      0.08      0.00
   20    6   11      0.10      0.00
   22    6   11     -0.42      0.00
  -23    7   11     -0.51      0.00
  -21    7   11     -0.12      0.00
  -19    7   11      0.86      0.00
  -17    7   11     -0.54      0.00
  -15    7   11     -1.82      0.00
  -13    7   11      0.82      0.00
  -11    7   11      2.70      0.00
   -9    7   11      1.26      0.00
   -7    7   11      0.96      0.00
   -5    7   11      0.17      0.00
   -3    7   11     -2.45      0.00
   -1    7   11      0.18      0.00
    1    7   11      4.30      0.00
    3    7   11      0.18      0.00
    5    7   11     -4.35      0.00
    7    7   11     -1.73      0.00
    9    7   11      0.69      0.00
   11    7   11     -0.31      0.00
   13    7   11     -0.58      0.00
   15    7   11      0.25      0.00
   17    7   11      0.19      0.00
   19    7   11     -0.26      0.00
   21    7   11      0.01      0.00
   23    7   11      0.28      0.00
  -22    8   11      0.27      0.00
  -20    8   11     -0.60      0.00
  -18    8   11     -0.50      0.00
  -16    8   11      1.55      0.00
  -14    8   11      1.12      0.00
  -12    8   11     -1.71      0.00
  -10    8   11     -1.77      0.00
   -8    8   11     -0.56      0.00
   -6    8   11     -0.41      0.00
   -4    8   11      1.60      0.00
   -2    8   11      1.95      0.00
    0    8   11     -2.49      0.00
    2    8   11     -2.69      0.00
    4    8   11      2.61      0.00
    6    8   11      3.19      0.00
    8    8   11     -0.04      0.00
   10    8   11     -0.45      0.00
   12    8   11      0.47      0.00
   14    8   11      0.06      0.00
   16    8   11     -0.49      0.00
   18    8   11     -0.15      0.00
   20    8   11      0.05      0.00
   22    8   11     -0.32      0.00
  -21    9   11     -0.05      0.00
  -19    9   11      0.77      0.00
  -17    9   11     -0.35      0.00
  -15    9   11     -1.56      0.00
  -13    9   11      0.52      0.00
  -11    9   11      2.45      0.00
   -9    9   11      1.60      0.00
   -7    9   11      0.97      0.00
   -5    9   11      0.00      0.00
   -3    9   11     -1.78      0.00
   -1    9   11      0.50      0.00
    1    9   11      3.47      0.00
    3    9   11      0.19      0.00
    5    9   11     -3.23      0.00
    7    9   11     -1.32      0.00
    9    9   11      0.55      0.00
   11    9   11     -0.08      0.00
   13    9   11     -0.42      0.00
   15    9   11      0.18      0.00
   17    9   11      0.33      0.00
   19    9   11     -0.12      0.00
   21    9   11     -0.14      0.00
  -20   10   11     -0.49      0.00
  -18   10   11     -0.44      0.00
  -16   10   11      1.25      0.00
  -14   10   11      1.11      0.00
  -12   10   11     -1.25      0.00
  -10   10   11     -1.75      0.00
   -8   10   11     -0.73      0.00
   -6   10   11     -0.09      0.00
   -4   10   11      1.46      0.00
   -2   10   11      1.37      0.00
    0   10   11     -2.00      0.00
    2   10   11     -1.97      0.00
    4   10   11      1.98      0.00
    6   10   11      2.42      0.00
    8   10   11      0.11      0.00
   10   10   11     -0.34      0.00
   12   10   11      0.25      0.00
   14   10   11      0.06      0.00
   16   10   11     -0.49      0.00
   18   10   11     -0.36      0.00
   20   10   11      0.06      0.00
  -19   11   11      0.59      0.00
  -17   11   11     -0.24      0.00
  -15   11   11     -1.29      0.00
  -13   11   11      0.22      0.00
  -11   11   11      2.07      0.00
   -9   11   11      1.71      0.00
   -7   11   11      0.85      0.00
   -5   11   11     -0.20      0.00
   -3   11   11     -1.26      0.00
   -1   11   11      0.65      0.00
    1   11   11      2.75      0.00
    3   11   11      0.25      0.00
    5   11   11     -2.23      0.00
    7   11   11     -0.95      0.00
    9   11   11      0.36      0.00
   11   11   11      0.09      0.00
   13   11   11     -0.18      0.00
   15   11   11      0.20      0.00
   17   11   11      0.52      0.00
   19   11   11      0.05      0.00
  -18   12   11     -0.34      0.00
  -16   12   11      0.92      0.00
  -14   12   11      0.97      0.00
  -12   12   11     -0.90      0.00
  -10   12   11     -1.68      0.00
   -8   12   11     -0.84      0.00
   -6   12   11      0.09      0.00
   -4   12   11      1.23      0.00
   -2   12   11      0.89      0.00
    0   12   11     -1.63      0.00
    2   12   11     -1.52      0.00
    4   12   11      1.36      0.00
    6   12   11      1.73      0.00
    8   12   11      0.21      0.00
   10   12   11     -0.19      0.00
   12   12   11      0.07      0.00
   14   12   11      0.01      0.00
   16   12   11     -0.49      0.00
   18   12   11     -0.48      0.00
  -17   13   11     -0.19      0.00
  -15   13   11     -1.02      0.00
  -13   13   11     -0.01      0.00
  -11   13   11      1.63      0.00
   -9   13   11      1.60      0.00
   -7   13   11      0.64      0.00
   -5   13   11     -0.33      0.00
   -3   13   11     -0.92      0.00
   -1   13   11      0.63      0.00
    1   13   11      2.17      0.00
    3   13   11      0.34      0.00
    5   13   11     -1.47      0.00
    7   13   11     -0.65      0.00
    9   13   11      0.19      0.00
   11   13   11      0.16      0.00
   13   13   11      0.05      0.00
   15   13   11      0.31      0.00
   17   13   11      0.67      0.00
  -16   14   11      0.59      0.00
  -14   14   11      0.75      0.00
  -12   14   11     -0.64      0.00
  -10   14   11     -1.53      0.00
   -8   14   11     -0.85      0.00
   -6   14   11      0.12      0.00
   -4   14   11      0.92      0.00
   -2   14   11      0.55      0.00
    0   14   11     -1.35      0.00
    2   14   11     -1.30      0.00
    4   14   11      0.83      0.00
    6   14   11      1.15      0.00
    8   14   11      0.22      0.00
   10   14   11     -0.04      0.00
   12   14   11     -0.03      0.00
   14   14   11     -0.08      0.00
   16   14   11     -0.49      0.00
  -15   15   11     -0.74      0.00
  -13   15   11     -0.16      0.00
  -11   15   11      1.18      0.00
   -9   15   11      1.33      0.00
   -7   15   11      0.43      0.00
   -5   15   11     -0.36      0.00
   -3   15   11     -0.70      0.00
   -1   15   11      0.47      0.00
    1   15   11      1.71      0.00
    3   15   11      0.42      0.00
    5   15   11     -0.90      0.00
    7   15   11     -0.40      0.00
    9   15   11      0.08      0.00
   11   15   11      0.16      0.00
   13   15   11      0.22      0.00
   15   15   11      0.41      0.00
  -14   16   11      0.49      0.00
  -12   16   11     -0.45      0.00
  -10   16   11     -1.29      0.00
   -8   16   11     -0.80      0.00
   -6   16   11      0.04      0.00
   -4   16   11      0.59      0.00
   -2   16   11      0.34      0.00
    0   16   11     -1.08      0.00
    2   16   11     -1.15      0.00
    4   16   11      0.39      0.00
    6   16   11      0.67      0.00
    8   16   11      0.15      0.00
   10   16   11      0.03      0.00
   12   16   11     -0.09      0.00
  -11   17   11      0.80      0.00
   -9   17   11      1.02      0.00
   -7   17   11      0.31      0.00
   -5   17   11     -0.27      0.00
   -3   17   11     -0.52      0.00
   -1   17   11      0.28      0.00
    1   17   11      1.28      0.00
    3   17   11      0.45      0.00
    5   17   11     -0.48      0.00
    7   17   11     -0.18      0.00
    9   17   11      0.02      0.00
   11   17   11      0.14      0.00
   -8   18   11     -0.69      0.00
   -6   18   11     -0.08      0.00
   -4   18   11      0.30      0.00
   -2   18   11      0.21      0.00
    0   18   11     -0.79      0.00
    2   18   11     -0.95      0.00
    4   18   11      0.07      0.00
    6   18   11      0.27      0.00
    8   18   11      0.04      0.00
   -3   19   11     -0.34      0.00
   -1   19   11      0.13      0.00
    1   19   11      0.86      0.00
  -24    0   12      0.21      0.00
  -22    0   12      0.71      0.00
  -20    0   12     -0.02      0.00
  -18    0   12      0.51      0.00
  -16    0   12      1.62      0.00
  -14    0   12     -0.55      0.00
  -12    0   12     -2.04      0.00
  -10    0   12      0.17      0.00
   -8    0   12      0.31      0.00
   -6    0   12     -0.27      0.00
   -4    0   12      2.57      0.00
   -2    0   12      0.52      0.00
    0    0   12     -4.10      0.00
    2    0   12      1.09      0.00
    4    0   12      6.37      0.00
    6    0   12      1.86      0.00
    8    0   12     -1.58      0.00
   10    0   12     -0.15      0.00
   12    0   12     -0.04      0.00
   14    0   12     -0.91      0.00
   16    0   12     -0.51      0.00
   18    0   12     -0.23      0.00
   20    0   12     -0.85      0.00
   22    0   12     -0.79      0.00
   24    0   12     -0.12      0.00
  -23    1   12     -0.21      0.00
  -21    1   12     -0.04      0.00
  -19    1   12      0.38      0.00
  -17    1   12     -1.06      0.00
  -15    1   12     -0.71      0.00
  -13    1   12      1.95      0.00
  -11    1   12      1.23      0.00
   -9    1   12     -0.60      0.00
   -7    1   12      0.57      0.00
   -5    1   12     -0.83      0.00
   -3    1   12     -2.25      0.00
   -1    1   12      2.89      0.00
    1    1   12      3.15      0.00
    3    1   12     -4.36      0.00
    5    1   12     -4.37      0.00
    7    1   12      1.13      0.00
    9    1   12      1.38      0.00
   11    1   12     -0.03      0.00
   13    1   12      0.65      0.00
   15    1   12      0.80      0.00
   17    1   12      0.10      0.00
   19    1   12      0.31      0.00
   21    1   12      0.75      0.00
   23    1   12      0.21      0.00
  -24    2   12      0.21      0.00
  -22    2   12      0.67      0.00
  -20    2   12     -0.04      0.00
  -18    2   12      0.49      0.00
  -16    2   12      1.59      0.00
  -14    2   12     -0.53      0.00
  -12    2   12     -2.05      0.00
  -10    2   12      0.05      0.00
   -8    2   12      0.25      0.00
   -6    2   12     -0.23      0.00
   -4    2   12      2.46      0.00
   -2    2   12      0.45      0.00
    0    2   12     -3.95      0.00
    2    2   12      1.08      0.00
    4    2   12      6.16      0.00
    6    2   12      1.79      0.00
    8    2   12     -1.58      0.00
   10    2   12     -0.15      0.00
   12    2   12      0.02      0.00
   14    2   12     -0.86      0.00
   16    2   12     -0.49      0.00
   18    2   12     -0.19      0.00
   20    2   12     -0.80      0.00
   22    2   12     -0.76      0.00
   24    2   12     -0.09      0.00
  -23    3   12     -0.18      0.00
  -21    3   12     -0.02      0.00
  -19    3   12      0.36      0.00
  -17    3   12     -1.05      0.00
  -15    3   12     -0.78      0.00
  -13    3   12      1.80      0.00
  -11    3   12      1.27      0.00
   -9    3   12     -0.49      0.00
   -7    3   12      0.40      0.00
   -5    3   12     -0.93      0.00
   -3    3   12     -2.11      0.00
   -1    3   12      2.64      0.00
    1    3   12      2.79      0.00
    3    3   12     -4.16      0.00
    5    3   12     -4.12      0.00
    7    3   12      1.08      0.00
    9    3   12      1.38      0.00
   11    3   12     -0.06      0.00
   13    3   12      0.57      0.00
   15    3   12      0.81      0.00
   17    3   12      0.14      0.00
   19    3   12      0.31      0.00
   21    3   12      0.77      0.00
   23    3   12      0.25      0.00
  -24    4   12      0.18      0.00
  -22    4   12      0.55      0.00
  -20    4   12     -0.08      0.00
  -18    4   12      0.41      0.00
  -16    4   12      1.49      0.00
  -14    4   12     -0.46      0.00
  -12    4   12     -2.08      0.00
  -10    4   12     -0.31      0.00
   -8    4   12      0.10      0.00
   -6    4   12     -0.12      0.00
   -4    4   12      2.15      0.00
   -2    4   12      0.23      0.00
    0    4   12     -3.54      0.00
    2    4   12      1.04      0.00
    4    4   12      5.55      0.00
    6    4   12      1.59      0.00
    8    4   12     -1.55      0.00
   10    4   12     -0.18      0.00
   12    4   12      0.14      0.00
   14    4   12     -0.73      0.00
   16    4   12     -0.45      0.00
   18    4   12     -0.10      0.00
   20    4   12     -0.65      0.00
   22    4   12     -0.65      0.00
  -23    5   12     -0.12      0.00
  -21    5   12      0.01      0.00
  -19    5   12      0.31      0.00
  -17    5   12     -1.01      0.00
  -15    5   12     -0.88      0.00
  -13    5   12      1.54      0.00
  -11    5   12      1.35      0.00
   -9    5   12     -0.28      0.00
   -7    5   12      0.10      0.00
   -5    5   12     -1.08      0.00
   -3    5   12     -1.82      0.00
   -1    5   12      2.24      0.00
    1    5   12      2.18      0.00
    3    5   12     -3.76      0.00
    5    5   12     -3.65      0.00
    7    5   12      0.99      0.00
    9    5   12      1.35      0.00
   11    5   12     -0.06      0.00
   13    5   12      0.46      0.00
   15    5   12      0.82      0.00
   17    5   12      0.22      0.00
   19    5   12      0.31      0.00
   21    5   12      0.75      0.00
   23    5   12      0.32      0.00
  -22    6   12      0.40      0.00
  -20    6   12     -0.13      0.00
  -18    6   12      0.30      0.00
  -16    6   12      1.31      0.00
  -14    6   12     -0.35      0.00
  -12    6   12     -2.07      0.00
  -10    6   12     -0.79      0.00
   -8    6   12     -0.09      0.00
   -6    6   12      0.06      0.00
   -4    6   12      1.70      0.00
   -2    6   12     -0.10      0.00
    0    6   12     -2.98      0.00
    2    6   12      0.96      0.00
    4    6   12      4.63      0.00
    6    6   12      1.29      0.00
    8    6   12     -1.46      0.00
   10    6   12     -0.26      0.00
   12    6   12      0.21      0.00
   14    6   12     -0.58      0.00
   16    6   12     -0.41      0.00
   18    6   12     -0.03      0.00
   20    6   12     -0.45      0.00
   22    6   12     -0.51      0.00
  -21    7   12      0.05      0.00
  -19    7   12      0.27      0.00
  -17    7   12     -0.88      0.00
  -15    7   12     -0.93      0.00
  -13    7   12      1.21      0.00
  -11    7   12      1.46      0.00
   -9    7   12      0.02      0.00
   -7    7   12     -0.22      0.00
   -5    7   12     -1.21      0.00
   -3    7   12     -1.39      0.00
   -1    7   12      1.83      0.00
    1    7   12      1.50      0.00
    3    7   12     -3.22      0.00
    5    7   12     -3.01      0.00
    7    7   12      0.84      0.00
    9    7   12      1.26      0.00
   11    7   12      0.02      0.00
   13    7   12      0.36      0.00
   15    7   12      0.79      0.00
   17    7   12      0.32      0.00
   19    7   12      0.29      0.00
   21    7   12      0.65      0.00
  -22    8   12      0.24      0.00
  -20    8   12     -0.15      0.00
  -18    8   12      0.17      0.00
  -16    8   12      1.08      0.00
  -14    8   12     -0.21      0.00
  -12    8   12     -1.97      0.00
  -10    8   12     -1.25      0.00
   -8    8   12     -0.25      0.00
   -6    8   12      0.27      0.00
   -4    8   12      1.21      0.00
   -2    8   12     -0.46      0.00
    0    8   12     -2.40      0.00
    2    8   12      0.83      0.00
    4    8   12      3.58      0.00
    6    8   12      0.93      0.00
    8    8   12     -1.30      0.00
   10    8   12     -0.38      0.00
   12    8   12      0.14      0.00
   14    8   12     -0.46      0.00
   16    8   12     -0.43      0.00
   18    8   12     -0.04      0.00
   20    8   12     -0.24      0.00
   22    8   12     -0.34      0.00
  -21    9   12      0.08      0.00
  -19    9   12      0.23      0.00
  -17    9   12     -0.68      0.00
  -15    9   12     -0.88      0.00
  -13    9   12      0.90      0.00
  -11    9   12      1.55      0.00
   -9    9   12      0.34      0.00
   -7    9   12     -0.47      0.00
   -5    9   12     -1.24      0.00
   -3    9   12     -0.90      0.00
   -1    9   12      1.51      0.00
    1    9   12      0.95      0.00
    3    9   12     -2.59      0.00
    5    9   12     -2.31      0.00
    7    9   12      0.66      0.00
    9    9   12      1.11      0.00
   11    9   12      0.16      0.00
   13    9   12      0.32      0.00
   15    9   12      0.74      0.00
   17    9   12      0.43      0.00
   19    9   12      0.23      0.00
   21    9   12      0.45      0.00
  -20   10   12     -0.12      0.00
  -18   10   12      0.08      0.00
  -16   10   12      0.83      0.00
  -14   10   12     -0.06      0.00
  -12   10   12     -1.77      0.00
  -10   10   12     -1.55      0.00
   -8   10   12     -0.33      0.00
   -6   10   12      0.45      0.00
   -4   10   12      0.79      0.00
   -2   10   12     -0.74      0.00
    0   10   12     -1.93      0.00
    2   10   12      0.66      0.00
    4   10   12      2.59      0.00
    6   10   12      0.58      0.00
    8   10   12     -1.09      0.00
   10   10   12     -0.51      0.00
   12   10   12     -0.04      0.00
   14   10   12     -0.42      0.00
   16   10   12     -0.51      0.00
   18   10   12     -0.10      0.00
   20   10   12     -0.05      0.00
  -19   11   12      0.19      0.00
  -17   11   12     -0.45      0.00
  -15   11   12     -0.74      0.00
  -13   11   12      0.64      0.00
  -11   11   12      1.57      0.00
   -9   11   12      0.59      0.00
   -7   11   12     -0.58      0.00
   -5   11   12     -1.14      0.00
   -3   11   12     -0.48      0.00
   -1   11   12      1.30      0.00
    1   11   12      0.63      0.00
    3   11   12     -1.98      0.00
    5   11   12     -1.67      0.00
    7   11   12      0.49      0.00
    9   11   12      0.91      0.00
   11   11   12      0.30      0.00
   13   11   12      0.32      0.00
   15   11   12      0.66      0.00
   17   11   12      0.48      0.00
   19   11   12      0.10      0.00
  -18   12   12      0.04      0.00
  -16   12   12      0.60      0.00
  -14   12   12      0.07      0.00
  -12   12   12     -1.47      0.00
  -10   12   12     -1.59      0.00
   -8   12   12     -0.32      0.00
   -6   12   12      0.56      0.00
   -4   12   12      0.51      0.00
   -2   12   12     -0.85      0.00
    0   12   12     -1.58      0.00
    2   12   12      0.45      0.00
    4   12   12      1.80      0.00
    6   12   12      0.31      0.00
    8   12   12     -0.88      0.00
   10   12   12     -0.60      0.00
   12   12   12     -0.26      0.00
   14   12   12     -0.45      0.00
   16   12   12     -0.59      0.00
   18   12   12     -0.16      0.00
  -17   13   12     -0.24      0.00
  -15   13   12     -0.55      0.00
  -13   13   12      0.46      0.00
  -11   13   12      1.48      0.00
   -9   13   12      0.72      0.00
   -7   13   12     -0.54      0.00
   -5   13   12     -0.93      0.00
   -3   13   12     -0.19      0.00
   -1   13   12      1.15      0.00
    1   13   12      0.53      0.00
    3   13   12     -1.44      0.00
    5   13   12     -1.16      0.00
    7   13   12      0.36      0.00
    9   13   12      0.69      0.00
   11   13   12      0.39      0.00
   13   13   12      0.33      0.00
   15   13   12      0.56      0.00
   17   13   12      0.44      0.00
  -16   14   12      0.42      0.00
  -14   14   12      0.16      0.00
  -12   14   12     -1.11      0.00
  -10   14   12     -1.41      0.00
   -8   14   12     -0.25      0.00
   -6   14   12      0.55      0.00
   -4   14   12      0.36      0.00
   -2   14   12     -0.75      0.00
    0   14   12     -1.31      0.00
    2   14   12      0.25      0.00
    4   14   12      1.23      0.00
    6   14   12      0.13      0.00
    8   14   12     -0.68      0.00
   10   14   12     -0.59      0.00
   12   14   12     -0.43      0.00
   14   14   12     -0.49      0.00
  -13   15   12      0.32      0.00
  -11   15   12      1.27      0.00
   -9   15   12      0.72      0.00
   -7   15   12     -0.39      0.00
   -5   15   12     -0.66      0.00
   -3   15   12     -0.06      0.00
   -1   15   12      0.99      0.00
    1   15   12      0.55      0.00
    3   15   12     -0.97      0.00
    5   15   12     -0.77      0.00
    7   15   12      0.28      0.00
    9   15   12      0.49      0.00
   11   15   12      0.40      0.00
   13   15   12      0.33      0.00
  -12   16   12     -0.76      0.00
  -10   16   12     -1.10      0.00
   -8   16   12     -0.18      0.00
   -6   16   12      0.44      0.00
   -4   16   12      0.29      0.00
   -2   16   12     -0.53      0.00
    0   16   12     -1.06      0.00
    2   16   12      0.08      0.00
    4   16   12      0.82      0.00
    6   16   12      0.02      0.00
    8   16   12     -0.50      0.00
   10   16   12     -0.51      0.00
   12   16   12     -0.47      0.00
   -9   17   12      0.64      0.00
   -7   17   12     -0.20      0.00
   -5   17   12     -0.40      0.00
   -3   17   12     -0.04      0.00
   -1   17   12      0.77      0.00
    1   17   12      0.55      0.00
    3   17   12     -0.58      0.00
    5   17   12     -0.45      0.00
    7   17   12      0.23      0.00
    9   17   12      0.35      0.00
   -6   18   12      0.27      0.00
   -4   18   12      0.24      0.00
   -2   18   12     -0.29      0.00
    0   18   12     -0.78      0.00
    2   18   12     -0.04      0.00
    4   18   12      0.49      0.00
  -22    0   13      0.72      0.00
  -20    0   13      0.05      0.00
  -18    0   13      0.58      0.00
  -16    0   13      0.83      0.00
  -14    0   13     -0.83      0.00
  -12    0   13     -0.69      0.00
  -10    0   13      0.63      0.00
   -8    0   13     -0.41      0.00
   -6    0   13      0.02      0.00
   -4    0   13      1.14      0.00
   -2    0   13     -2.12      0.00
    0    0   13     -1.88      0.00
    2    0   13      3.69      0.00
    4    0   13      2.81      0.00
    6    0   13     -2.20      0.00
    8    0   13     -2.28      0.00
   10    0   13     -0.60      0.00
   12    0   13     -0.90      0.00
   14    0   13     -1.01      0.00
   16    0   13     -0.38      0.00
   18    0   13     -0.56      0.00
   20    0   13     -0.74      0.00
   22    0   13      0.13      0.00
  -23    1   13     -1.06      0.00
  -21    1   13     -0.72      0.00
  -19    1   13     -0.41      0.00
  -17    1   13     -1.20      0.00
  -15    1   13     -0.21      0.00
  -13    1   13      1.09      0.00
  -11    1   13     -0.18      0.00
   -9    1   13     -0.33      0.00
   -7    1   13      0.56      0.00
   -5    1   13     -1.12      0.00
   -3    1   13     -0.05      0.00
   -1    1   13      2.72      0.00
    1    1   13     -1.39      0.00
    3    1   13     -4.84      0.00
    5    1   13     -0.49      0.00
    7    1   13      2.46      0.00
    9    1   13      0.87      0.00
   11    1   13      0.30      0.00
   13    1   13      0.96      0.00
   15    1   13      0.64      0.00
   17    1   13      0.42      0.00
   19    1   13      0.92      0.00
   21    1   13      0.55      0.00
   23    1   13     -0.27      0.00
  -22    2   13      0.71      0.00
  -20    2   13      0.05      0.00
  -18    2   13      0.57      0.00
  -16    2   13      0.84      0.00
  -14    2   13     -0.79      0.00
  -12    2   13     -0.73      0.00
  -10    2   13      0.58      0.00
   -8    2   13     -0.31      0.00
   -6    2   13      0.09      0.00
   -4    2   13      1.08      0.00
   -2    2   13     -2.02      0.00
    0    2   13     -1.74      0.00
    2    2   13      3.59      0.00
    4    2   13      2.72      0.00
    6    2   13     -2.17      0.00
    8    2   13     -2.26      0.00
   10    2   13     -0.57      0.00
   12    2   13     -0.86      0.00
   14    2   13     -1.02      0.00
   16    2   13     -0.39      0.00
   18    2   13     -0.57      0.00
   20    2   13     -0.75      0.00
   22    2   13      0.09      0.00
  -23    3   13     -0.98      0.00
  -21    3   13     -0.68      0.00
  -19    3   13     -0.36      0.00
  -17    3   13     -1.12      0.00
  -15    3   13     -0.21      0.00
  -13    3   13      1.15      0.00
  -11    3   13      0.05      0.00
   -9    3   13     -0.27      0.00
   -7    3   13      0.42      0.00
   -5    3   13     -0.97      0.00
   -3    3   13      0.08      0.00
   -1    3   13      2.51      0.00
    1    3   13     -1.33      0.00
    3    3   13     -4.49      0.00
    5    3   13     -0.42      0.00
    7    3   13      2.41      0.00
    9    3   13      0.84      0.00
   11    3   13      0.19      0.00
   13    3   13      0.88      0.00
   15    3   13      0.60      0.00
   17    3   13      0.34      0.00
   19    3   13      0.84      0.00
   21    3   13      0.51      0.00
   23    3   13     -0.27      0.00
  -22    4   13      0.66      0.00
  -20    4   13      0.07      0.00
  -18    4   13      0.52      0.00
  -16    4   13      0.86      0.00
  -14    4   13     -0.68      0.00
  -12    4   13     -0.83      0.00
  -10    4   13      0.43      0.00
   -8    4   13     -0.03      0.00
   -6    4   13      0.28      0.00
   -4    4   13      0.90      0.00
   -2    4   13     -1.78      0.00
    0    4   13     -1.37      0.00
    2    4   13      3.31      0.00
    4    4   13      2.45      0.00
    6    4   13     -2.06      0.00
    8    4   13     -2.19      0.00
   10    4   13     -0.49      0.00
   12    4   13     -0.76      0.00
   14    4   13     -1.03      0.00
   16    4   13     -0.42      0.00
   18    4   13     -0.57      0.00
   20    4   13     -0.78      0.00
   22    4   13     -0.01      0.00
  -21    5   13     -0.62      0.00
  -19    5   13     -0.27      0.00
  -17    5   13     -0.97      0.00
  -15    5   13     -0.22      0.00
  -13    5   13      1.21      0.00
  -11    5   13      0.44      0.00
   -9    5   13     -0.18      0.00
   -7    5   13      0.17      0.00
   -5    5   13     -0.72      0.00
   -3    5   13      0.34      0.00
   -1    5   13      2.13      0.00
    1    5   13     -1.24      0.00
    3    5   13     -3.85      0.00
    5    5   13     -0.26      0.00
    7    5   13      2.29      0.00
    9    5   13      0.80      0.00
   11    5   13      0.06      0.00
   13    5   13      0.75      0.00
   15    5   13      0.54      0.00
   17    5   13      0.24      0.00
   19    5   13      0.70      0.00
   21    5   13      0.43      0.00
  -22    6   13      0.58      0.00
  -20    6   13      0.08      0.00
  -18    6   13      0.43      0.00
  -16    6   13      0.84      0.00
  -14    6   13     -0.51      0.00
  -12    6   13     -0.98      0.00
  -10    6   13      0.19      0.00
   -8    6   13      0.32      0.00
   -6    6   13      0.52      0.00
   -4    6   13      0.60      0.00
   -2    6   13     -1.48      0.00
    0    6   13     -0.88      0.00
    2    6   13      2.89      0.00
    4    6   13      2.02      0.00
    6    6   13     -1.87      0.00
    8    6   13     -2.05      0.00
   10    6   13     -0.44      0.00
   12    6   13     -0.64      0.00
   14    6   13     -0.99      0.00
   16    6   13     -0.46      0.00
   18    6   13     -0.56      0.00
   20    6   13     -0.76      0.00
   22    6   13     -0.12      0.00
  -21    7   13     -0.53      0.00
  -19    7   13     -0.17      0.00
  -17    7   13     -0.76      0.00
  -15    7   13     -0.24      0.00
  -13    7   13      1.23      0.00
  -11    7   13      0.87      0.00
   -9    7   13     -0.07      0.00
   -7    7   13     -0.14      0.00
   -5    7   13     -0.42      0.00
   -3    7   13      0.66      0.00
   -1    7   13      1.71      0.00
    1    7   13     -1.12      0.00
    3    7   13     -3.03      0.00
    5    7   13     -0.05      0.00
    7    7   13      2.09      0.00
    9    7   13      0.78      0.00
   11    7   13      0.01      0.00
   13    7   13      0.61      0.00
   15    7   13      0.47      0.00
   17    7   13      0.17      0.00
   19    7   13      0.52      0.00
   21    7   13      0.33      0.00
  -20    8   13      0.09      0.00
  -18    8   13      0.30      0.00
  -16    8   13      0.77      0.00
  -14    8   13     -0.33      0.00
  -12    8   13     -1.11      0.00
  -10    8   13     -0.09      0.00
   -8    8   13      0.64      0.00
   -6    8   13      0.73      0.00
   -4    8   13      0.25      0.00
   -2    8   13     -1.24      0.00
    0    8   13     -0.40      0.00
    2    8   13      2.41      0.00
    4    8   13      1.52      0.00
    6    8   13     -1.63      0.00
    8    8   13     -1.81      0.00
   10    8   13     -0.44      0.00
   12    8   13     -0.54      0.00
   14    8   13     -0.89      0.00
   16    8   13     -0.47      0.00
   18    8   13     -0.49      0.00
   20    8   13     -0.64      0.00
  -19    9   13     -0.08      0.00
  -17    9   13     -0.53      0.00
  -15    9   13     -0.26      0.00
  -13    9   13      1.17      0.00
  -11    9   13      1.22      0.00
   -9    9   13      0.02      0.00
   -7    9   13     -0.43      0.00
   -5    9   13     -0.16      0.00
   -3    9   13      0.94      0.00
   -1    9   13      1.34      0.00
    1    9   13     -0.97      0.00
    3    9   13     -2.22      0.00
    5    9   13      0.17      0.00
    7    9   13      1.83      0.00
    9    9   13      0.79      0.00
   11    9   13      0.08      0.00
   13    9   13      0.51      0.00
   15    9   13      0.43      0.00
   17    9   13      0.14      0.00
   19    9   13      0.34      0.00
  -18   10   13      0.15      0.00
  -16   10   13      0.62      0.00
  -14   10   13     -0.19      0.00
  -12   10   13     -1.19      0.00
  -10   10   13     -0.36      0.00
   -8   10   13      0.82      0.00
   -6   10   13      0.83      0.00
   -4   10   13     -0.06      0.00
   -2   10   13     -1.08      0.00
    0   10   13     -0.09      0.00
    2   10   13      1.94      0.00
    4   10   13      1.06      0.00
    6   10   13     -1.36      0.00
    8   10   13     -1.52      0.00
   10   10   13     -0.47      0.00
   12   10   13     -0.47      0.00
   14   10   13     -0.73      0.00
   16   10   13     -0.44      0.00
   18   10   13     -0.35      0.00
  -17   11   13     -0.34      0.00
  -15   11   13     -0.28      0.00
  -13   11   13      1.01      0.00
  -11   11   13      1.36      0.00
   -9   11   13      0.07      0.00
   -7   11   13     -0.62      0.00
   -5   11   13      0.00      0.00
   -3   11   13      1.08      0.00
   -1   11   13      1.08      0.00
    1   11   13     -0.81      0.00
    3   11   13     -1.55      0.00
    5   11   13      0.33      0.00
    7   11   13      1.55      0.00
    9   11   13      0.81      0.00
   11   11   13      0.23      0.00
   13   11   13      0.46      0.00
   15   11   13      0.42      0.00
   17   11   13      0.15      0.00
  -16   12   13      0.45      0.00
  -14   12   13     -0.11      0.00
  -12   12   13     -1.17      0.00
  -10   12   13     -0.53      0.00
   -8   12   13      0.82      0.00
   -6   12   13      0.79      0.00
   -4   12   13     -0.25      0.00
   -2   12   13     -0.97      0.00
    0   12   13      0.02      0.00
    2   12   13      1.52      0.00
    4   12   13      0.70      0.00
    6   12   13     -1.10      0.00
    8   12   13     -1.22      0.00
   10   12   13     -0.50      0.00
   12   12   13     -0.40      0.00
   14   12   13     -0.56      0.00
   16   12   13     -0.36      0.00
  -15   13   13     -0.29      0.00
  -13   13   13      0.79      0.00
  -11   13   13      1.28      0.00
   -9   13   13      0.06      0.00
   -7   13   13     -0.66      0.00
   -5   13   13      0.04      0.00
   -3   13   13      1.03      0.00
   -1   13   13      0.92      0.00
    1   13   13     -0.61      0.00
    3   13   13     -1.08      0.00
    5   13   13      0.42      0.00
    7   13   13      1.28      0.00
    9   13   13      0.79      0.00
   11   13   13      0.37      0.00
   13   13   13      0.43      0.00
   15   13   13      0.43      0.00
  -14   14   13     -0.05      0.00
  -12   14   13     -1.05      0.00
  -10   14   13     -0.58      0.00
   -8   14   13      0.68      0.00
   -6   14   13      0.63      0.00
   -4   14   13     -0.30      0.00
   -2   14   13     -0.87      0.00
    0   14   13     -0.04      0.00
    2   14   13      1.15      0.00
    4   14   13      0.46      0.00
    6   14   13     -0.87      0.00
    8   14   13     -0.94      0.00
   10   14   13     -0.49      0.00
   12   14   13     -0.34      0.00
   14   14   13     -0.40      0.00
  -13   15   13      0.54      0.00
  -11   15   13      1.05      0.00
   -9   15   13      0.04      0.00
   -7   15   13     -0.57      0.00
   -5   15   13      0.01      0.00
   -3   15   13      0.81      0.00
   -1   15   13      0.79      0.00
    1   15   13     -0.41      0.00
    3   15   13     -0.76      0.00
    5   15   13      0.41      0.00
    7   15   13      1.02      0.00
    9   15   13      0.73      0.00
   11   15   13      0.44      0.00
  -10   16   13     -0.54      0.00
   -8   16   13      0.45      0.00
   -6   16   13      0.43      0.00
   -4   16   13     -0.23      0.00
   -2   16   13     -0.71      0.00
    0   16   13     -0.14      0.00
    2   16   13      0.81      0.00
    4   16   13      0.29      0.00
    6   16   13     -0.67      0.00
    8   16   13     -0.71      0.00
   10   16   13     -0.44      0.00
   -7   17   13     -0.41      0.00
   -5   17   13     -0.04      0.00
   -3   17   13      0.52      0.00
   -1   17   13      0.63      0.00
    1   17   13     -0.22      0.00
    3   17   13     -0.51      0.00
    5   17   13      0.35      0.00
    7   17   13      0.77      0.00
  -22    0   14      1.05      0.00
  -20    0   14      0.28      0.00
  -18    0   14      0.72      0.00
  -16    0   14      0.49      0.00
  -14    0   14     -0.53      0.00
  -12    0   14     -0.13      0.00
  -10    0   14     -0.22      0.00
   -8    0   14     -1.09      0.00
   -6    0   14     -0.01      0.00
   -4    0   14     -0.41      0.00
   -2    0   14     -1.95      0.00
    0    0   14      1.10      0.00
    2    0   14      3.17      0.00
    4    0   14     -0.51      0.00
    6    0   14     -2.70      0.00
    8    0   14     -1.01      0.00
   10    0   14     -0.11      0.00
   12    0   14     -0.62      0.00
   14    0   14     -0.40      0.00
   16    0   14     -0.13      0.00
   18    0   14     -0.51      0.00
   20    0   14      0.05      0.00
   22    0   14      0.75      0.00
  -21    1   14     -0.24      0.00
  -19    1   14     -0.13      0.00
  -17    1   14     -0.64      0.00
  -15    1   14      0.20      0.00
  -13    1   14      0.52      0.00
  -11    1   14     -0.10      0.00
   -9    1   14      0.72      0.00
   -7    1   14      0.68      0.00
   -5    1   14     -0.19      0.00
   -3    1   14      1.63      0.00
   -1    1   14      1.17      0.00
    1    1   14     -2.53      0.00
    3    1   14     -1.29      0.00
    5    1   14      2.68      0.00
    7    1   14      2.50      0.00
    9    1   14      0.66      0.00
   11    1   14      0.67      0.00
   13    1   14      0.85      0.00
   15    1   14      0.25      0.00
   17    1   14      0.33      0.00
   19    1   14      0.30      0.00
   21    1   14     -0.66      0.00
  -22    2   14      1.02      0.00
  -20    2   14      0.24      0.00
  -18    2   14      0.67      0.00
  -16    2   14      0.48      0.00
  -14    2   14     -0.57      0.00
  -12    2   14     -0.23      0.00
  -10    2   14     -0.22      0.00
   -8    2   14     -1.00      0.00
   -6    2   14     -0.08      0.00
   -4    2   14     -0.49      0.00
   -2    2   14     -1.87      0.00
    0    2   14      1.07      0.00
    2    2   14      3.03      0.00
    4    2   14     -0.53      0.00
    6    2   14     -2.68      0.00
    8    2   14     -0.98      0.00
   10    2   14     -0.06      0.00
   12    2   14     -0.60      0.00
   14    2   14     -0.39      0.00
   16    2   14     -0.12      0.00
   18    2   14     -0.51      0.00
   20    2   14      0.04      0.00
   22    2   14      0.72      0.00
  -21    3   14     -0.20      0.00
  -19    3   14     -0.07      0.00
  -17    3   14     -0.62      0.00
  -15    3   14      0.16      0.00
  -13    3   14      0.60      0.00
  -11    3   14     -0.02      0.00
   -9    3   14      0.51      0.00
   -7    3   14      0.55      0.00
   -5    3   14     -0.05      0.00
   -3    3   14      1.52      0.00
   -1    3   14      0.99      0.00
    1    3   14     -2.36      0.00
    3    3   14     -1.15      0.00
    5    3   14      2.62      0.00
    7    3   14      2.46      0.00
    9    3   14      0.60      0.00
   11    3   14      0.63      0.00
   13    3   14      0.88      0.00
   15    3   14      0.29      0.00
   17    3   14      0.39      0.00
   19    3   14      0.39      0.00
   21    3   14     -0.54      0.00
  -22    4   14      0.93      0.00
  -20    4   14      0.12      0.00
  -18    4   14      0.53      0.00
  -16    4   14      0.45      0.00
  -14    4   14     -0.65      0.00
  -12    4   14     -0.49      0.00
  -10    4   14     -0.22      0.00
   -8    4   14     -0.77      0.00
   -6    4   14     -0.25      0.00
   -4    4   14     -0.69      0.00
   -2    4   14     -1.65      0.00
    0    4   14      0.99      0.00
    2    4   14      2.63      0.00
    4    4   14     -0.61      0.00
    6    4   14     -2.60      0.00
    8    4   14     -0.92      0.00
   10    4   14      0.06      0.00
   12    4   14     -0.55      0.00
   14    4   14     -0.36      0.00
   16    4   14     -0.09      0.00
   18    4   14     -0.49      0.00
   20    4   14      0.01      0.00
  -21    5   14     -0.17      0.00
  -19    5   14      0.04      0.00
  -17    5   14     -0.58      0.00
  -15    5   14      0.09      0.00
  -13    5   14      0.73      0.00
  -11    5   14      0.11      0.00
   -9    5   14      0.16      0.00
   -7    5   14      0.32      0.00
   -5    5   14      0.19      0.00
   -3    5   14      1.35      0.00
   -1    5   14      0.65      0.00
    1    5   14     -2.07      0.00
    3    5   14     -0.90      0.00
    5    5   14      2.47      0.00
    7    5   14      2.33      0.00
    9    5   14      0.50      0.00
   11    5   14      0.56      0.00
   13    5   14      0.90      0.00
   15    5   14      0.35      0.00
   17    5   14      0.47      0.00
   19    5   14      0.49      0.00
   21    5   14     -0.35      0.00
  -20    6   14      0.01      0.00
  -18    6   14      0.34      0.00
  -16    6   14      0.42      0.00
  -14    6   14     -0.71      0.00
  -12    6   14     -0.81      0.00
  -10    6   14     -0.22      0.00
   -8    6   14     -0.41      0.00
   -6    6   14     -0.44      0.00
   -4    6   14     -0.96      0.00
   -2    6   14     -1.34      0.00
    0    6   14      0.90      0.00
    2    6   14      2.06      0.00
    4    6   14     -0.71      0.00
    6    6   14     -2.42      0.00
    8    6   14     -0.83      0.00
   10    6   14      0.15      0.00
   12    6   14     -0.46      0.00
   14    6   14     -0.31      0.00
   16    6   14     -0.06      0.00
   18    6   14     -0.45      0.00
   20    6   14      0.00      0.00
  -19    7   14      0.14      0.00
  -17    7   14     -0.51      0.00
  -15    7   14     -0.01      0.00
  -13    7   14      0.85      0.00
  -11    7   14      0.27      0.00
   -9    7   14     -0.24      0.00
   -7    7   14      0.03      0.00
   -5    7   14      0.45      0.00
   -3    7   14      1.16      0.00
   -1    7   14      0.25      0.00
    1    7   14     -1.74      0.00
    3    7   14     -0.59      0.00
    5    7   14      2.23      0.00
    7    7   14      2.08      0.00
    9    7   14      0.41      0.00
   11    7   14      0.47      0.00
   13    7   14      0.84      0.00
   15    7   14      0.37      0.00
   17    7   14      0.51      0.00
   19    7   14      0.54      0.00
  -20    8   14     -0.06      0.00
  -18    8   14      0.17      0.00
  -16    8   14      0.40      0.00
  -14    8   14     -0.69      0.00
  -12    8   14     -1.07      0.00
  -10    8   14     -0.19      0.00
   -8    8   14     -0.01      0.00
   -6    8   14     -0.58      0.00
   -4    8   14     -1.21      0.00
   -2    8   14     -1.02      0.00
    0    8   14      0.84      0.00
    2    8   14      1.48      0.00
    4    8   14     -0.81      0.00
    6    8   14     -2.15      0.00
    8    8   14     -0.74      0.00
   10    8   14      0.16      0.00
   12    8   14     -0.37      0.00
   14    8   14     -0.25      0.00
   16    8   14     -0.05      0.00
   18    8   14     -0.39      0.00
  -19    9   14      0.20      0.00
  -17    9   14     -0.41      0.00
  -15    9   14     -0.11      0.00
  -13    9   14      0.90      0.00
  -11    9   14      0.41      0.00
   -9    9   14     -0.56      0.00
   -7    9   14     -0.23      0.00
   -5    9   14      0.66      0.00
   -3    9   14      1.00      0.00
   -1    9   14     -0.10      0.00
    1    9   14     -1.45      0.00
    3    9   14     -0.31      0.00
    5    9   14      1.91      0.00
    7    9   14      1.74      0.00
    9    9   14      0.34      0.00
   11    9   14      0.37      0.00
   13    9   14      0.69      0.00
   15    9   14      0.33      0.00
   17    9   14      0.46      0.00
   19    9   14      0.48      0.00
  -18   10   14      0.06      0.00
  -16   10   14      0.39      0.00
  -14   10   14     -0.60      0.00
  -12   10   14     -1.19      0.00
  -10   10   14     -0.14      0.00
   -8   10   14      0.32      0.00
   -6   10   14     -0.60      0.00
   -4   10   14     -1.33      0.00
   -2   10   14     -0.77      0.00
    0   10   14      0.78      0.00
    2   10   14      1.00      0.00
    4   10   14     -0.87      0.00
    6   10   14     -1.83      0.00
    8   10   14     -0.67      0.00
   10   10   14      0.09      0.00
   12   10   14     -0.30      0.00
   14   10   14     -0.20      0.00
   16   10   14     -0.05      0.00
   18   10   14     -0.30      0.00
  -17   11   14     -0.31      0.00
  -15   11   14     -0.17      0.00
  -13   11   14      0.88      0.00
  -11   11   14      0.50      0.00
   -9   11   14     -0.73      0.00
   -7   11   14     -0.40      0.00
   -5   11   14      0.74      0.00
   -3   11   14      0.88      0.00
   -1   11   14     -0.29      0.00
    1   11   14     -1.22      0.00
    3   11   14     -0.12      0.00
    5   11   14      1.57      0.00
    7   11   14      1.37      0.00
    9   11   14      0.29      0.00
   11   11   14      0.27      0.00
   13   11   14      0.50      0.00
   15   11   14      0.24      0.00
   17   11   14      0.32      0.00
  -16   12   14      0.38      0.00
  -14   12   14     -0.45      0.00
  -12   12   14     -1.13      0.00
  -10   12   14     -0.07      0.00
   -8   12   14      0.51      0.00
   -6   12   14     -0.52      0.00
   -4   12   14     -1.28      0.00
   -2   12   14     -0.62      0.00
    0   12   14      0.68      0.00
    2   12   14      0.67      0.00
    4   12   14     -0.86      0.00
    6   12   14     -1.52      0.00
    8   12   14     -0.62      0.00
   10   12   14     -0.04      0.00
   12   12   14     -0.26      0.00
   14   12   14     -0.21      0.00
  -13   13   14      0.79      0.00
  -11   13   14      0.51      0.00
   -9   13   14     -0.71      0.00
   -7   13   14     -0.42      0.00
   -5   13   14      0.69      0.00
   -3   13   14      0.78      0.00
   -1   13   14     -0.29      0.00
    1   13   14     -1.01      0.00
    3   13   14     -0.03      0.00
    5   13   14      1.24      0.00
    7   13   14      1.05      0.00
    9   13   14      0.26      0.00
   11   13   14      0.18      0.00
   13   13   14      0.33      0.00
  -12   14   14     -0.94      0.00
  -10   14   14     -0.03      0.00
   -8   14   14      0.53      0.00
   -6   14   14     -0.39      0.00
   -4   14   14     -1.08      0.00
   -2   14   14     -0.55      0.00
    0   14   14      0.53      0.00
    2   14   14      0.47      0.00
    4   14   14     -0.77      0.00
    6   14   14     -1.23      0.00
    8   14   14     -0.60      0.00
   10   14   14     -0.15      0.00
   12   14   14     -0.24      0.00
  -11   15   14      0.47      0.00
   -9   15   14     -0.55      0.00
   -7   15   14     -0.34      0.00
   -5   15   14      0.55      0.00
   -3   15   14      0.66      0.00
   -1   15   14     -0.17      0.00
    1   15   14     -0.78      0.00
    3   15   14      0.00      0.00
    5   15   14      0.95      0.00
    7   15   14      0.80      0.00
    9   15   14      0.25      0.00
   -8   16   14      0.42      0.00
   -6   16   14     -0.24      0.00
   -4   16   14     -0.79      0.00
   -2   16   14     -0.48      0.00
    0   16   14      0.34      0.00
    2   16   14      0.32      0.00
    4   16   14     -0.63      0.00
    6   16   14     -0.97      0.00
   -3   17   14      0.51      0.00
   -1   17   14     -0.03      0.00
    1   17   14     -0.52      0.00
  -20    0   15     -0.30      0.00
  -18    0   15      0.23      0.00
  -16    0   15     -0.04      0.00
  -14    0   15     -0.50      0.00
  -12    0   15     -0.47      0.00
  -10    0   15     -1.15      0.00
   -8    0   15     -1.08      0.00
   -6    0   15     -0.27      0.00
   -4    0   15     -1.22      0.00
   -2    0   15     -0.78      0.00
    0    0   15      1.57      0.00
    2    0   15      0.43      0.00
    4    0   15     -2.40      0.00
    6    0   15     -2.12      0.00
    8    0   15     -0.34      0.00
   10    0   15     -0.09      0.00
   12    0   15     -0.37      0.00
   14    0   15      0.18      0.00
   16    0   15      0.19      0.00
   18    0   15      0.21      0.00
   20    0   15      1.02      0.00
  -21    1   15      0.03      0.00
  -19    1   15     -0.17      0.00
  -17    1   15     -0.37      0.00
  -15    1   15      0.33      0.00
  -13    1   15      0.52      0.00
  -11    1   15      0.83      0.00
   -9    1   15      1.46      0.00
   -7    1   15      0.66      0.00
   -5    1   15      0.65      0.00
   -3    1   15      1.38      0.00
   -1    1   15     -0.69      0.00
    1    1   15     -1.83      0.00
    3    1   15      0.81      0.00
    5    1   15      2.24      0.00
    7    1   15      0.68      0.00
    9    1   15     -0.45      0.00
   11    1   15     -0.03      0.00
   13    1   15     -0.12      0.00
   15    1   15     -0.44      0.00
   17    1   15     -0.09      0.00
   19    1   15     -0.56      0.00
   21    1   15     -0.95      0.00
  -20    2   15     -0.34      0.00
  -18    2   15      0.23      0.00
  -16    2   15     -0.02      0.00
  -14    2   15     -0.54      0.00
  -12    2   15     -0.50      0.00
  -10    2   15     -1.05      0.00
   -8    2   15     -1.03      0.00
   -6    2   15     -0.34      0.00
   -4    2   15     -1.19      0.00
   -2    2   15     -0.70      0.00
    0    2   15      1.50      0.00
    2    2   15      0.37      0.00
    4    2   15     -2.38      0.00
    6    2   15     -2.10      0.00
    8    2   15     -0.30      0.00
   10    2   15     -0.09      0.00
   12    2   15     -0.41      0.00
   14    2   15      0.14      0.00
   16    2   15      0.12      0.00
   18    2   15      0.14      0.00
   20    2   15      0.95      0.00
  -21    3   15      0.13      0.00
  -19    3   15     -0.08      0.00
  -17    3   15     -0.36      0.00
  -15    3   15      0.37      0.00
  -13    3   15      0.66      0.00
  -11    3   15      0.80      0.00
   -9    3   15      1.29      0.00
   -7    3   15      0.78      0.00
   -5    3   15      0.79      0.00
   -3    3   15      1.25      0.00
   -1    3   15     -0.65      0.00
    1    3   15     -1.62      0.00
    3    3   15      0.84      0.00
    5    3   15      2.19      0.00
    7    3   15      0.61      0.00
    9    3   15     -0.52      0.00
   11    3   15     -0.03      0.00
   13    3   15     -0.11      0.00
   15    3   15     -0.41      0.00
   17    3   15     -0.03      0.00
   19    3   15     -0.51      0.00
  -20    4   15     -0.44      0.00
  -18    4   15      0.21      0.00
  -16    4   15      0.03      0.00
  -14    4   15     -0.64      0.00
  -12    4   15     -0.56      0.00
  -10    4   15     -0.77      0.00
   -8    4   15     -0.88      0.00
   -6    4   15     -0.55      0.00
   -4    4   15     -1.10      0.00
   -2    4   15     -0.49      0.00
    0    4   15      1.32      0.00
    2    4   15      0.22      0.00
    4    4   15     -2.30      0.00
    6    4   15     -2.00      0.00
    8    4   15     -0.21      0.00
   10    4   15     -0.09      0.00
   12    4   15     -0.48      0.00
   14    4   15      0.04      0.00
   16    4   15     -0.04      0.00
   18    4   15     -0.02      0.00
   20    4   15      0.78      0.00
  -19    5   15      0.05      0.00
  -17    5   15     -0.36      0.00
  -15    5   15      0.42      0.00
  -13    5   15      0.88      0.00
  -11    5   15      0.72      0.00
   -9    5   15      0.97      0.00
   -7    5   15      0.93      0.00
   -5    5   15      1.01      0.00
   -3    5   15      1.02      0.00
   -1    5   15     -0.61      0.00
    1    5   15     -1.26      0.00
    3    5   15      0.90      0.00
    5    5   15      2.07      0.00
    7    5   15      0.49      0.00
    9    5   15     -0.61      0.00
   11    5   15     -0.03      0.00
   13    5   15     -0.10      0.00
   15    5   15     -0.35      0.00
   17    5   15      0.06      0.00
   19    5   15     -0.44      0.00
  -20    6   15     -0.53      0.00
  -18    6   15      0.18      0.00
  -16    6   15      0.12      0.00
  -14    6   15     -0.72      0.00
  -12    6   15     -0.62      0.00
  -10    6   15     -0.37      0.00
   -8    6   15     -0.63      0.00
   -6    6   15     -0.80      0.00
   -4    6   15     -0.97      0.00
   -2    6   15     -0.17      0.00
    0    6   15      1.10      0.00
    2    6   15      0.02      0.00
    4    6   15     -2.13      0.00
    6    6   15     -1.80      0.00
    8    6   15     -0.09      0.00
   10    6   15     -0.08      0.00
   12    6   15     -0.52      0.00
   14    6   15     -0.05      0.00
   16    6   15     -0.22      0.00
   18    6   15     -0.19      0.00
  -19    7   15      0.16      0.00
  -17    7   15     -0.37      0.00
  -15    7   15      0.41      0.00
  -13    7   15      1.05      0.00
  -11    7   15      0.60      0.00
   -9    7   15      0.57      0.00
   -7    7   15      1.05      0.00
   -5    7   15      1.25      0.00
   -3    7   15      0.76      0.00
   -1    7   15     -0.60      0.00
    1    7   15     -0.85      0.00
    3    7   15      0.96      0.00
    5    7   15      1.86      0.00
    7    7   15      0.36      0.00
    9    7   15     -0.63      0.00
   11    7   15     -0.02      0.00
   13    7   15     -0.09      0.00
   15    7   15     -0.26      0.00
   17    7   15      0.14      0.00
   19    7   15     -0.36      0.00
  -18    8   15      0.15      0.00
  -16    8   15      0.22      0.00
  -14    8   15     -0.74      0.00
  -12    8   15     -0.65      0.00
  -10    8   15      0.03      0.00
   -8    8   15     -0.34      0.00
   -6    8   15     -0.99      0.00
   -4    8   15     -0.85      0.00
   -2    8   15      0.16      0.00
    0    8   15      0.92      0.00
    2    8   15     -0.16      0.00
    4    8   15     -1.87      0.00
    6    8   15     -1.49      0.00
    8    8   15      0.02      0.00
   10    8   15     -0.06      0.00
   12    8   15     -0.49      0.00
   14    8   15     -0.10      0.00
   16    8   15     -0.33      0.00
   18    8   15     -0.29      0.00
  -17    9   15     -0.38      0.00
  -15    9   15      0.33      0.00
  -13    9   15      1.11      0.00
  -11    9   15      0.45      0.00
   -9    9   15      0.16      0.00
   -7    9   15      1.04      0.00
   -5    9   15      1.39      0.00
   -3    9   15      0.52      0.00
   -1    9   15     -0.61      0.00
    1    9   15     -0.50      0.00
    3    9   15      0.99      0.00
    5    9   15      1.59      0.00
    7    9   15      0.25      0.00
    9    9   15     -0.56      0.00
   11    9   15      0.00      0.00
   13    9   15     -0.07      0.00
   15    9   15     -0.18      0.00
   17    9   15      0.20      0.00
  -16   10   15      0.28      0.00
  -14   10   15     -0.69      0.00
  -12   10   15     -0.63      0.00
  -10   10   15      0.33      0.00
   -8   10   15     -0.07      0.00
   -6   10   15     -1.05      0.00
   -4   10   15     -0.74      0.00
   -2   10   15      0.40      0.00
    0   10   15      0.81      0.00
    2   10   15     -0.26      0.00
    4   10   15     -1.56      0.00
    6   10   15     -1.14      0.00
    8   10   15      0.09      0.00
   10   10   15     -0.02      0.00
   12   10   15     -0.39      0.00
   14   10   15     -0.09      0.00
   16   10   15     -0.32      0.00
  -15   11   15      0.23      0.00
  -13   11   15      1.03      0.00
  -11   11   15      0.28      0.00
   -9   11   15     -0.15      0.00
   -7   11   15      0.92      0.00
   -5   11   15      1.38      0.00
   -3   11   15      0.38      0.00
   -1   11   15     -0.60      0.00
    1   11   15     -0.27      0.00
    3   11   15      0.96      0.00
    5   11   15      1.31      0.00
    7   11   15      0.21      0.00
    9   11   15     -0.42      0.00
   11   11   15      0.03      0.00
   13   11   15     -0.02      0.00
   15   11   15     -0.09      0.00
  -14   12   15     -0.59      0.00
  -12   12   15     -0.55      0.00
  -10   12   15      0.48      0.00
   -8   12   15      0.10      0.00
   -6   12   15     -0.97      0.00
   -4   12   15     -0.65      0.00
   -2   12   15      0.48      0.00
    0   12   15      0.74      0.00
    2   12   15     -0.26      0.00
    4   12   15     -1.22      0.00
    6   12   15     -0.82      0.00
    8   12   15      0.11      0.00
   10   12   15      0.03      0.00
   12   12   15     -0.27      0.00
   14   12   15     -0.06      0.00
  -13   13   15      0.85      0.00
  -11   13   15      0.15      0.00
   -9   13   15     -0.30      0.00
   -7   13   15      0.72      0.00
   -5   13   15      1.22      0.00
   -3   13   15      0.32      0.00
   -1   13   15     -0.53      0.00
    1   13   15     -0.16      0.00
    3   13   15      0.86      0.00
    5   13   15      1.06      0.00
    7   13   15      0.23      0.00
    9   13   15     -0.24      0.00
   11   13   15      0.07      0.00
  -10   14   15      0.46      0.00
   -8   14   15      0.16      0.00
   -6   14   15     -0.79      0.00
   -4   14   15     -0.57      0.00
   -2   14   15      0.40      0.00
    0   14   15      0.64      0.00
    2   14   15     -0.20      0.00
    4   14   15     -0.91      0.00
    6   14   15     -0.60      0.00
    8   14   15      0.07      0.00
   10   14   15      0.07      0.00
   -7   15   15      0.51      0.00
   -5   15   15      0.96      0.00
   -3   15   15      0.31      0.00
   -1   15   15     -0.39      0.00
    1   15   15     -0.10      0.00
    3   15   15      0.71      0.00
    5   15   15      0.85      0.00
    7   15   15      0.29      0.00
   -4   16   15     -0.47      0.00
   -2   16   15      0.25      0.00
    0   16   15      0.49      0.00
    2   16   15     -0.14      0.00
  -20    0   16     -0.13      0.00
  -18    0   16      0.16      0.00
  -16    0   16     -0.19      0.00
  -14    0   16     -0.60      0.00
  -12    0   16     -1.15      0.00
  -10    0   16     -1.58      0.00
   -8    0   16     -0.75      0.00
   -6    0   16     -0.49      0.00
   -4    0   16     -0.94      0.00
   -2    0   16      0.37      0.00
    0    0   16      1.08      0.00
    2    0   16     -0.54      0.00
    4    0   16     -1.48      0.00
    6    0   16     -0.26      0.00
    8    0   16      1.04      0.00
   10    0   16      0.74      0.00
   12    0   16      0.60      0.00
   14    0   16      0.88      0.00
   16    0   16      0.42      0.00
   18    0   16      0.61      0.00
   20    0   16      0.70      0.00
  -19    1   16      0.08      0.00
  -17    1   16      0.02      0.00
  -15    1   16      0.42      0.00
  -13    1   16      0.73      0.00
  -11    1   16      1.30      0.00
   -9    1   16      1.07      0.00
   -7    1   16      0.25      0.00
   -5    1   16      0.73      0.00
   -3    1   16      0.46      0.00
   -1    1   16     -0.92      0.00
    1    1   16     -0.16      0.00
    3    1   16      1.64      0.00
    5    1   16      1.49      0.00
    7    1   16     -0.11      0.00
    9    1   16     -0.58      0.00
   11    1   16     -0.12      0.00
   13    1   16     -0.51      0.00
   15    1   16     -0.48      0.00
   17    1   16     -0.30      0.00
   19    1   16     -0.83      0.00
  -20    2   16     -0.15      0.00
  -18    2   16      0.19      0.00
  -16    2   16     -0.19      0.00
  -14    2   16     -0.65      0.00
  -12    2   16     -1.12      0.00
  -10    2   16     -1.48      0.00
   -8    2   16     -0.79      0.00
   -6    2   16     -0.55      0.00
   -4    2   16     -0.87      0.00
   -2    2   16      0.38      0.00
    0    2   16      1.01      0.00
    2    2   16     -0.54      0.00
    4    2   16     -1.44      0.00
    6    2   16     -0.20      0.00
    8    2   16      1.08      0.00
   10    2   16      0.72      0.00
   12    2   16      0.59      0.00
   14    2   16      0.85      0.00
   16    2   16      0.39      0.00
   18    2   16      0.62      0.00
  -19    3   16      0.04      0.00
  -17    3   16     -0.05      0.00
  -15    3   16      0.46      0.00
  -13    3   16      0.75      0.00
  -11    3   16      1.11      0.00
   -9    3   16      0.98      0.00
   -7    3   16      0.39      0.00
   -5    3   16      0.67      0.00
   -3    3   16      0.31      0.00
   -1    3   16     -0.84      0.00
    1    3   16     -0.08      0.00
    3    3   16      1.59      0.00
    5    3   16      1.40      0.00
    7    3   16     -0.19      0.00
    9    3   16     -0.54      0.00
   11    3   16     -0.05      0.00
   13    3   16     -0.42      0.00
   15    3   16     -0.34      0.00
   17    3   16     -0.21      0.00
   19    3   16     -0.78      0.00
  -18    4   16      0.26      0.00
  -16    4   16     -0.19      0.00
  -14    4   16     -0.78      0.00
  -12    4   16     -1.02      0.00
  -10    4   16     -1.23      0.00
   -8    4   16     -0.89      0.00
   -6    4   16     -0.70      0.00
   -4    4   16     -0.68      0.00
   -2    4   16      0.40      0.00
    0    4   16      0.81      0.00
    2    4   16     -0.57      0.00
    4    4   16     -1.33      0.00
    6    4   16     -0.04      0.00
    8    4   16      1.14      0.00
   10    4   16      0.66      0.00
   12    4   16      0.55      0.00
   14    4   16      0.76      0.00
   16    4   16      0.29      0.00
   18    4   16      0.61      0.00
  -19    5   16      0.00      0.00
  -17    5   16     -0.16      0.00
  -15    5   16      0.52      0.00
  -13    5   16      0.77      0.00
  -11    5   16      0.77      0.00
   -9    5   16      0.79      0.00
   -7    5   16      0.60      0.00
   -5    5   16      0.58      0.00
   -3    5   16      0.06      0.00
   -1    5   16     -0.71      0.00
    1    5   16      0.05      0.00
    3    5   16      1.48      0.00
    5    5   16      1.21      0.00
    7    5   16     -0.32      0.00
    9    5   16     -0.48      0.00
   11    5   16      0.07      0.00
   13    5   16     -0.29      0.00
   15    5   16     -0.12      0.00
   17    5   16     -0.06      0.00
  -18    6   16      0.33      0.00
  -16    6   16     -0.17      0.00
  -14    6   16     -0.91      0.00
  -12    6   16     -0.87      0.00
  -10    6   16     -0.87      0.00
   -8    6   16     -1.00      0.00
   -6    6   16     -0.90      0.00
   -4    6   16     -0.45      0.00
   -2    6   16      0.43      0.00
    0    6   16      0.54      0.00
    2    6   16     -0.62      0.00
    4    6   16     -1.16      0.00
    6    6   16      0.13      0.00
    8    6   16      1.14      0.00
   10    6   16      0.56      0.00
   12    6   16      0.48      0.00
   14    6   16      0.62      0.00
   16    6   16      0.15      0.00
   18    6   16      0.57      0.00
  -17    7   16     -0.27      0.00
  -15    7   16      0.54      0.00
  -13    7   16      0.76      0.00
  -11    7   16      0.38      0.00
   -9    7   16      0.56      0.00
   -7    7   16      0.82      0.00
   -5    7   16      0.50      0.00
   -3    7   16     -0.23      0.00
   -1    7   16     -0.59      0.00
    1    7   16      0.20      0.00
    3    7   16      1.32      0.00
    5    7   16      0.96      0.00
    7    7   16     -0.42      0.00
    9    7   16     -0.38      0.00
   11    7   16      0.16      0.00
   13    7   16     -0.16      0.00
   15    7   16      0.09      0.00
   17    7   16      0.08      0.00
  -16    8   16     -0.13      0.00
  -14    8   16     -0.96      0.00
  -12    8   16     -0.69      0.00
  -10    8   16     -0.49      0.00
   -8    8   16     -1.06      0.00
   -6    8   16     -1.08      0.00
   -4    8   16     -0.25      0.00
   -2    8   16      0.47      0.00
    0    8   16      0.26      0.00
    2    8   16     -0.68      0.00
    4    8   16     -0.97      0.00
    6    8   16      0.25      0.00
    8    8   16      1.04      0.00
   10    8   16      0.41      0.00
   12    8   16      0.38      0.00
   14    8   16      0.45      0.00
   16    8   16      0.01      0.00
  -15    9   16      0.52      0.00
  -13    9   16      0.71      0.00
  -11    9   16      0.05      0.00
   -9    9   16      0.33      0.00
   -7    9   16      0.96      0.00
   -5    9   16      0.45      0.00
   -3    9   16     -0.46      0.00
   -1    9   16     -0.51      0.00
    1    9   16      0.31      0.00
    3    9   16      1.12      0.00
    5    9   16      0.68      0.00
    7    9   16     -0.47      0.00
    9    9   16     -0.29      0.00
   11    9   16      0.22      0.00
   13    9   16     -0.07      0.00
   15    9   16      0.21      0.00
  -14   10   16     -0.90      0.00
  -12   10   16     -0.49      0.00
  -10   10   16     -0.17      0.00
   -8   10   16     -1.01      0.00
   -6   10   16     -1.17      0.00
   -4   10   16     -0.14      0.00
   -2   10   16      0.48      0.00
    0   10   16      0.07      0.00
    2   10   16     -0.71      0.00
    4   10   16     -0.80      0.00
    6   10   16      0.26      0.00
    8   10   16      0.83      0.00
   10   10   16      0.23      0.00
   12   10   16      0.23      0.00
   14   10   16      0.28      0.00
  -13   11   16      0.60      0.00
  -11   11   16     -0.18      0.00
   -9   11   16      0.15      0.00
   -7   11   16      0.96      0.00
   -5   11   16      0.42      0.00
   -3   11   16     -0.56      0.00
   -1   11   16     -0.49      0.00
    1   11   16      0.32      0.00
    3   11   16      0.89      0.00
    5   11   16      0.45      0.00
    7   11   16     -0.43      0.00
    9   11   16     -0.22      0.00
   11   11   16      0.22      0.00
   13   11   16     -0.02      0.00
  -12   12   16     -0.30      0.00
  -10   12   16      0.04      0.00
   -8   12   16     -0.86      0.00
   -6   12   16     -1.13      0.00
   -4   12   16     -0.12      0.00
   -2   12   16      0.46      0.00
    0   12   16     -0.03      0.00
    2   12   16     -0.68      0.00
    4   12   16     -0.66      0.00
    6   12   16      0.16      0.00
    8   12   16      0.56      0.00
   10   12   16      0.08      0.00
   12   12   16      0.05      0.00
  -11   13   16     -0.27      0.00
   -9   13   16      0.03      0.00
   -7   13   16      0.84      0.00
   -5   13   16      0.40      0.00
   -3   13   16     -0.53      0.00
   -1   13   16     -0.47      0.00
    1   13   16      0.25      0.00
    3   13   16      0.64      0.00
    5   13   16      0.28      0.00
    7   13   16     -0.33      0.00
    9   13   16     -0.18      0.00
   -8   14   16     -0.65      0.00
   -6   14   16     -0.96      0.00
   -4   14   16     -0.14      0.00
   -2   14   16      0.39      0.00
    0   14   16     -0.05      0.00
    2   14   16     -0.58      0.00
    4   14   16     -0.53      0.00
    6   14   16      0.01      0.00
    8   14   16      0.31      0.00
   -3   15   16     -0.42      0.00
   -1   15   16     -0.43      0.00
    1   15   16      0.15      0.00
    3   15   16      0.41      0.00
  -18    0   17      0.01      0.00
  -16    0   17     -0.15      0.00
  -14    0   17     -0.61      0.00
  -12    0   17     -1.24      0.00
  -10    0   17     -0.85      0.00
   -8    0   17      0.10      0.00
   -6    0   17     -0.26      0.00
   -4    0   17     -0.35      0.00
   -2    0   17      0.52      0.00
    0    0   17      0.26      0.00
    2    0   17     -0.84      0.00
    4    0   17     -0.97      0.00
    6    0   17      0.43      0.00
    8    0   17      1.10      0.00
   10    0   17      0.42      0.00
   12    0   17      0.48      0.00
   14    0   17      0.35      0.00
   16    0   17     -0.03      0.00
   18    0   17      0.30      0.00
  -19    1   17     -0.10      0.00
  -17    1   17      0.01      0.00
  -15    1   17      0.40      0.00
  -13    1   17      1.09      0.00
  -11    1   17      1.41      0.00
   -9    1   17      0.52      0.00
   -7    1   17      0.15      0.00
   -5    1   17      0.62      0.00
   -3    1   17     -0.08      0.00
   -1    1   17     -0.67      0.00
    1    1   17      0.07      0.00
    3    1   17      0.76      0.00
    5    1   17     -0.08      0.00
    7    1   17     -1.49      0.00
    9    1   17     -1.23      0.00
   11    1   17     -0.74      0.00
   13    1   17     -0.85      0.00
   15    1   17     -0.26      0.00
   17    1   17     -0.23      0.00
  -18    2   17      0.06      0.00
  -16    2   17     -0.17      0.00
  -14    2   17     -0.62      0.00
  -12    2   17     -1.14      0.00
  -10    2   17     -0.80      0.00
   -8    2   17      0.04      0.00
   -6    2   17     -0.23      0.00
   -4    2   17     -0.27      0.00
   -2    2   17      0.51      0.00
    0    2   17      0.24      0.00
    2    2   17     -0.81      0.00
    4    2   17     -0.90      0.00
    6    2   17      0.47      0.00
    8    2   17      1.06      0.00
   10    2   17      0.37      0.00
   12    2   17      0.44      0.00
   14    2   17      0.29      0.00
   16    2   17     -0.05      0.00
   18    2   17      0.31      0.00
  -17    3   17     -0.01      0.00
  -15    3   17      0.47      0.00
  -13    3   17      1.01      0.00
  -11    3   17      1.22      0.00
   -9    3   17      0.56      0.00
   -7    3   17      0.23      0.00
   -5    3   17      0.47      0.00
   -3    3   17     -0.13      0.00
   -1    3   17     -0.59      0.00
    1    3   17      0.08      0.00
    3    3   17      0.66      0.00
    5    3   17     -0.22      0.00
    7    3   17     -1.50      0.00
    9    3   17     -1.15      0.00
   11    3   17     -0.71      0.00
   13    3   17     -0.79      0.00
   15    3   17     -0.23      0.00
   17    3   17     -0.31      0.00
  -18    4   17      0.18      0.00
  -16    4   17     -0.21      0.00
  -14    4   17     -0.63      0.00
  -12    4   17     -0.88      0.00
  -10    4   17     -0.66      0.00
   -8    4   17     -0.11      0.00
   -6    4   17     -0.17      0.00
   -4    4   17     -0.06      0.00
   -2    4   17      0.46      0.00
    0    4   17      0.15      0.00
    2    4   17     -0.74      0.00
    4    4   17     -0.72      0.00
    6    4   17      0.57      0.00
    8    4   17      0.93      0.00
   10    4   17      0.24      0.00
   12    4   17      0.34      0.00
   14    4   17      0.13      0.00
   16    4   17     -0.09      0.00
  -17    5   17     -0.04      0.00
  -15    5   17      0.58      0.00
  -13    5   17      0.86      0.00
  -11    5   17      0.91      0.00
   -9    5   17      0.64      0.00
   -7    5   17      0.37      0.00
   -5    5   17      0.26      0.00
   -3    5   17     -0.22      0.00
   -1    5   17     -0.44      0.00
    1    5   17      0.10      0.00
    3    5   17      0.49      0.00
    5    5   17     -0.43      0.00
    7    5   17     -1.48      0.00
    9    5   17     -0.98      0.00
   11    5   17     -0.65      0.00
   13    5   17     -0.69      0.00
   15    5   17     -0.16      0.00
   17    5   17     -0.40      0.00
  -16    6   17     -0.26      0.00
  -14    6   17     -0.63      0.00
  -12    6   17     -0.54      0.00
  -10    6   17     -0.48      0.00
   -8    6   17     -0.33      0.00
   -6    6   17     -0.11      0.00
   -4    6   17      0.20      0.00
   -2    6   17      0.39      0.00
    0    6   17      0.03      0.00
    2    6   17     -0.64      0.00
    4    6   17     -0.48      0.00
    6    6   17      0.66      0.00
    8    6   17      0.74      0.00
   10    6   17      0.08      0.00
   12    6   17      0.22      0.00
   14    6   17     -0.06      0.00
   16    6   17     -0.14      0.00
  -15    7   17      0.66      0.00
  -13    7   17      0.69      0.00
  -11    7   17      0.57      0.00
   -9    7   17      0.72      0.00
   -7    7   17      0.56      0.00
   -5    7   17      0.06      0.00
   -3    7   17     -0.30      0.00
   -1    7   17     -0.24      0.00
    1    7   17      0.16      0.00
    3    7   17      0.33      0.00
    5    7   17     -0.57      0.00
    7    7   17     -1.34      0.00
    9    7   17     -0.74      0.00
   11    7   17     -0.53      0.00
   13    7   17     -0.53      0.00
   15    7   17     -0.06      0.00
  -14    8   17     -0.59      0.00
  -12    8   17     -0.23      0.00
  -10    8   17     -0.31      0.00
   -8    8   17     -0.53      0.00
   -6    8   17     -0.09      0.00
   -4    8   17      0.41      0.00
   -2    8   17      0.34      0.00
    0    8   17     -0.09      0.00
    2    8   17     -0.52      0.00
    4    8   17     -0.25      0.00
    6    8   17      0.68      0.00
    8    8   17      0.52      0.00
   10    8   17     -0.08      0.00
   12    8   17      0.10      0.00
   14    8   17     -0.20      0.00
  -13    9   17      0.51      0.00
  -11    9   17      0.29      0.00
   -9    9   17      0.76      0.00
   -7    9   17      0.72      0.00
   -5    9   17     -0.05      0.00
   -3    9   17     -0.34      0.00
   -1    9   17     -0.05      0.00
    1    9   17      0.25      0.00
    3    9   17      0.23      0.00
    5    9   17     -0.58      0.00
    7    9   17     -1.08      0.00
    9    9   17     -0.46      0.00
   11    9   17     -0.35      0.00
   13    9   17     -0.36      0.00
  -12   10   17      0.00      0.00
  -10   10   17     -0.18      0.00
   -8   10   17     -0.65      0.00
   -6   10   17     -0.12      0.00
   -4   10   17      0.53      0.00
   -2   10   17      0.32      0.00
    0   10   17     -0.16      0.00
    2   10   17     -0.40      0.00
    4   10   17     -0.09      0.00
    6   10   17      0.60      0.00
    8   10   17      0.33      0.00
   10   10   17     -0.18      0.00
   12   10   17      0.02      0.00
  -11   11   17      0.10      0.00
   -9   11   17      0.73      0.00
   -7   11   17      0.79      0.00
   -5   11   17     -0.05      0.00
   -3   11   17     -0.34      0.00
   -1   11   17      0.06      0.00
    1   11   17      0.31      0.00
    3   11   17      0.19      0.00
    5   11   17     -0.44      0.00
    7   11   17     -0.75      0.00
    9   11   17     -0.20      0.00
   11   11   17     -0.14      0.00
  -10   12   17     -0.10      0.00
   -8   12   17     -0.65      0.00
   -6   12   17     -0.15      0.00
   -4   12   17      0.54      0.00
   -2   12   17      0.33      0.00
    0   12   17     -0.15      0.00
    2   12   17     -0.27      0.00
    4   12   17     -0.01      0.00
    6   12   17      0.44      0.00
    8   12   17      0.21      0.00
   -7   13   17      0.75      0.00
   -5   13   17     -0.01      0.00
   -3   13   17     -0.32      0.00
   -1   13   17      0.09      0.00
    1   13   17      0.31      0.00
    3   13   17      0.18      0.00
    5   13   17     -0.21      0.00
    7   13   17     -0.41      0.00
   -4   14   17      0.49      0.00
   -2   14   17      0.36      0.00
    0   14   17     -0.08      0.00
    2   14   17     -0.12      0.00
  -16    0   18     -0.07      0.00
  -14    0   18     -0.86      0.00
  -12    0   18     -1.22      0.00
  -10    0   18     -0.22      0.00
   -8    0   18      0.21      0.00
   -6    0   18     -0.54      0.00
   -4    0   18     -0.32      0.00
   -2    0   18      0.46      0.00
    0    0   18      0.33      0.00
    2    0   18     -0.34      0.00
    4    0   18      0.17      0.00
    6    0   18      1.66      0.00
    8    0   18      1.36      0.00
   10    0   18      0.47      0.00
   12    0   18      0.42      0.00
   14    0   18     -0.14      0.00
   16    0   18     -0.21      0.00
  -17    1   18     -0.12      0.00
  -15    1   18      0.32      0.00
  -13    1   18      1.00      0.00
  -11    1   18      0.58      0.00
   -9    1   18     -0.46      0.00
   -7    1   18     -0.08      0.00
   -5    1   18      0.42      0.00
   -3    1   18     -0.19      0.00
   -1    1   18     -0.46      0.00
    1    1   18      0.22      0.00
    3    1   18      0.62      0.00
    5    1   18     -0.58      0.00
    7    1   18     -1.31      0.00
    9    1   18     -0.32      0.00
   11    1   18     -0.04      0.00
   13    1   18      0.14      0.00
   15    1   18      0.51      0.00
  -16    2   18     -0.11      0.00
  -14    2   18     -0.82      0.00
  -12    2   18     -1.13      0.00
  -10    2   18     -0.24      0.00
   -8    2   18      0.17      0.00
   -6    2   18     -0.48      0.00
   -4    2   18     -0.27      0.00
   -2    2   18      0.43      0.00
    0    2   18      0.32      0.00
    2    2   18     -0.28      0.00
    4    2   18      0.24      0.00
    6    2   18      1.63      0.00
    8    2   18      1.29      0.00
   10    2   18      0.46      0.00
   12    2   18      0.41      0.00
   14    2   18     -0.14      0.00
   16    2   18     -0.15      0.00
  -15    3   18      0.35      0.00
  -13    3   18      0.84      0.00
  -11    3   18      0.50      0.00
   -9    3   18     -0.34      0.00
   -7    3   18     -0.10      0.00
   -5    3   18      0.29      0.00
   -3    3   18     -0.18      0.00
   -1    3   18     -0.40      0.00
    1    3   18      0.19      0.00
    3    3   18      0.50      0.00
    5    3   18     -0.62      0.00
    7    3   18     -1.15      0.00
    9    3   18     -0.21      0.00
   11    3   18      0.01      0.00
   13    3   18      0.22      0.00
   15    3   18      0.49      0.00
  -16    4   18     -0.22      0.00
  -14    4   18     -0.72      0.00
  -12    4   18     -0.89      0.00
  -10    4   18     -0.29      0.00
   -8    4   18      0.05      0.00
   -6    4   18     -0.32      0.00
   -4    4   18     -0.17      0.00
   -2    4   18      0.35      0.00
    0    4   18      0.30      0.00
    2    4   18     -0.14      0.00
    4    4   18      0.42      0.00
    6    4   18      1.55      0.00
    8    4   18      1.10      0.00
   10    4   18      0.44      0.00
   12    4   18      0.36      0.00
   14    4   18     -0.15      0.00
   16    4   18      0.00      0.00
  -15    5   18      0.38      0.00
  -13    5   18      0.58      0.00
  -11    5   18      0.36      0.00
   -9    5   18     -0.14      0.00
   -7    5   18     -0.11      0.00
   -5    5   18      0.08      0.00
   -3    5   18     -0.16      0.00
   -1    5   18     -0.29      0.00
    1    5   18      0.13      0.00
    3    5   18      0.29      0.00
    5    5   18     -0.65      0.00
    7    5   18     -0.88      0.00
    9    5   18     -0.05      0.00
   11    5   18      0.07      0.00
   13    5   18      0.34      0.00
   15    5   18      0.45      0.00
  -14    6   18     -0.58      0.00
  -12    6   18     -0.59      0.00
  -10    6   18     -0.36      0.00
   -8    6   18     -0.11      0.00
   -6    6   18     -0.13      0.00
   -4    6   18     -0.04      0.00
   -2    6   18      0.24      0.00
    0    6   18      0.25      0.00
    2    6   18      0.02      0.00
    4    6   18      0.59      0.00
    6    6   18      1.37      0.00
    8    6   18      0.83      0.00
   10    6   18      0.38      0.00
   12    6   18      0.29      0.00
   14    6   18     -0.15      0.00
  -13    7   18      0.30      0.00
  -11    7   18      0.22      0.00
   -9    7   18      0.07      0.00
   -7    7   18     -0.12      0.00
   -5    7   18     -0.15      0.00
   -3    7   18     -0.15      0.00
   -1    7   18     -0.17      0.00
    1    7   18      0.07      0.00
    3    7   18      0.07      0.00
    5    7   18     -0.64      0.00
    7    7   18     -0.58      0.00
    9    7   18      0.11      0.00
   11    7   18      0.12      0.00
   13    7   18      0.41      0.00
  -12    8   18     -0.32      0.00
  -10    8   18     -0.44      0.00
   -8    8   18     -0.28      0.00
   -6    8   18      0.02      0.00
   -4    8   18      0.08      0.00
   -2    8   18      0.11      0.00
    0    8   18      0.17      0.00
    2    8   18      0.13      0.00
    4    8   18      0.64      0.00
    6    8   18      1.10      0.00
    8    8   18      0.53      0.00
   10    8   18      0.28      0.00
   12    8   18      0.22      0.00
  -11    9   18      0.12      0.00
   -9    9   18      0.25      0.00
   -7    9   18     -0.10      0.00
   -5    9   18     -0.32      0.00
   -3    9   18     -0.17      0.00
   -1    9   18     -0.09      0.00
    1    9   18      0.00      0.00
    3    9   18     -0.09      0.00
    5    9   18     -0.57      0.00
    7    9   18     -0.33      0.00
    9    9   18      0.21      0.00
   11    9   18      0.13      0.00
  -10   10   18     -0.48      0.00
   -8   10   18     -0.40      0.00
   -6   10   18      0.09      0.00
   -4   10   18      0.15      0.00
   -2   10   18      0.01      0.00
    0   10   18      0.07      0.00
    2   10   18      0.15      0.00
    4   10   18      0.54      0.00
    6   10   18      0.77      0.00
    8   10   18      0.27      0.00
   10   10   18      0.15      0.00
   -9   11   18      0.34      0.00
   -7   11   18     -0.06      0.00
   -5   11   18     -0.42      0.00
   -3   11   18     -0.21      0.00
   -1   11   18     -0.06      0.00
    1   11   18     -0.07      0.00
    3   11   18     -0.15      0.00
    5   11   18     -0.42      0.00
    7   11   18     -0.18      0.00
   -6   12   18      0.08      0.00
   -4   12   18      0.19      0.00
   -2   12   18     -0.04      0.00
    0   12   18      0.00      0.00
    2   12   18      0.11      0.00
    4   12   18      0.31      0.00
    6   12   18      0.44      0.00
   -1   13   18     -0.07      0.00
  -14    0   19     -0.82      0.00
  -12    0   19     -0.45      0.00
  -10    0   19      0.67      0.00
   -8    0   19      0.20      0.00
   -6    0   19     -0.71      0.00
   -4    0   19     -0.11      0.00
   -2    0   19      0.65      0.00
    0    0   19      0.14      0.00
    2    0   19     -0.53      0.00
    4    0   19      0.56      0.00
    6    0   19      1.23      0.00
    8    0   19     -0.04      0.00
   10    0   19     -0.52      0.00
   12    0   19     -0.54      0.00
   14    0   19     -0.73      0.00
  -15    1   19      0.60      0.00
  -13    1   19      1.03      0.00
  -11    1   19      0.07      0.00
   -9    1   19     -0.39      0.00
   -7    1   19      0.63      0.00
   -5    1   19      0.75      0.00
   -3    1   19     -0.29      0.00
   -1    1   19     -0.59      0.00
    1    1   19      0.17      0.00
    3    1   19     -0.12      0.00
    5    1   19     -1.54      0.00
    7    1   19     -1.08      0.00
    9    1   19      0.04      0.00
   11    1   19      0.08      0.00
   13    1   19      0.41      0.00
  -14    2   19     -0.76      0.00
  -12    2   19     -0.42      0.00
  -10    2   19      0.60      0.00
   -8    2   19      0.18      0.00
   -6    2   19     -0.66      0.00
   -4    2   19     -0.11      0.00
   -2    2   19      0.61      0.00
    0    2   19      0.14      0.00
    2    2   19     -0.48      0.00
    4    2   19      0.55      0.00
    6    2   19      1.12      0.00
    8    2   19     -0.09      0.00
   10    2   19     -0.52      0.00
   12    2   19     -0.57      0.00
   14    2   19     -0.72      0.00
  -15    3   19      0.56      0.00
  -13    3   19      0.89      0.00
  -11    3   19      0.11      0.00
   -9    3   19     -0.28      0.00
   -7    3   19      0.55      0.00
   -5    3   19      0.66      0.00
   -3    3   19     -0.26      0.00
   -1    3   19     -0.55      0.00
    1    3   19      0.09      0.00
    3    3   19     -0.22      0.00
    5    3   19     -1.42      0.00
    7    3   19     -0.92      0.00
    9    3   19      0.02      0.00
   11    3   19      0.08      0.00
   13    3   19      0.40      0.00
  -14    4   19     -0.60      0.00
  -12    4   19     -0.34      0.00
  -10    4   19      0.42      0.00
   -8    4   19      0.15      0.00
   -6    4   19     -0.51      0.00
   -4    4   19     -0.11      0.00
   -2    4   19      0.51      0.00
    0    4   19      0.13      0.00
    2    4   19     -0.34      0.00
    4    4   19      0.51      0.00
    6    4   19      0.82      0.00
    8    4   19     -0.21      0.00
   10    4   19     -0.51      0.00
   12    4   19     -0.64      0.00
   14    4   19     -0.66      0.00
  -13    5   19      0.66      0.00
  -11    5   19      0.18      0.00
   -9    5   19     -0.12      0.00
   -7    5   19      0.40      0.00
   -5    5   19      0.50      0.00
   -3    5   19     -0.20      0.00
   -1    5   19     -0.48      0.00
    1    5   19     -0.04      0.00
    3    5   19     -0.36      0.00
    5    5   19     -1.20      0.00
    7    5   19     -0.67      0.00
    9    5   19     -0.01      0.00
   11    5   19      0.07      0.00
   13    5   19      0.37      0.00
  -12    6   19     -0.24      0.00
  -10    6   19      0.19      0.00
   -8    6   19      0.12      0.00
   -6    6   19     -0.30      0.00
   -4    6   19     -0.08      0.00
   -2    6   19      0.39      0.00
    0    6   19      0.14      0.00
    2    6   19     -0.15      0.00
    4    6   19      0.46      0.00
    6    6   19      0.47      0.00
    8    6   19     -0.33      0.00
   10    6   19     -0.47      0.00
   12    6   19     -0.66      0.00
  -11    7   19      0.26      0.00
   -9    7   19      0.04      0.00
   -7    7   19      0.23      0.00
   -5    7   19      0.32      0.00
   -3    7   19     -0.13      0.00
   -1    7   19     -0.41      0.00
    1    7   19     -0.17      0.00
    3    7   19     -0.46      0.00
    5    7   19     -0.93      0.00
    7    7   19     -0.41      0.00
    9    7   19     -0.03      0.00
   11    7   19      0.05      0.00
  -10    8   19      0.00      0.00
   -8    8   19      0.12      0.00
   -6    8   19     -0.07      0.00
   -4    8   19     -0.02      0.00
   -2    8   19      0.30      0.00
    0    8   19      0.18      0.00
    2    8   19      0.02      0.00
    4    8   19      0.38      0.00
    6    8   19      0.20      0.00
    8    8   19     -0.36      0.00
   10    8   19     -0.38      0.00
   -9    9   19      0.16      0.00
   -7    9   19      0.07      0.00
   -5    9   19      0.15      0.00
   -3    9   19     -0.08      0.00
   -1    9   19     -0.33      0.00
    1    9   19     -0.24      0.00
    3    9   19     -0.44      0.00
    5    9   19     -0.65      0.00
    7    9   19     -0.20      0.00
    9    9   19     -0.04      0.00
   -6   10   19      0.13      0.00
   -4   10   19      0.07      0.00
   -2   10   19      0.25      0.00
    0   10   19      0.24      0.00
    2   10   19      0.13      0.00
    4   10   19      0.29      0.00
    6   10   19      0.07      0.00
   -3   11   19     -0.04      0.00
   -1   11   19     -0.24      0.00
    1   11   19     -0.23      0.00
    3   11   19     -0.29      0.00
  -12    0   20     -0.06      0.00
  -10    0   20      0.39      0.00
   -8    0   20     -0.82      0.00
   -6    0   20     -1.14      0.00
   -4    0   20      0.19      0.00
   -2    0   20      0.72      0.00
    0    0   20     -0.22      0.00
    2    0   20     -0.08      0.00
    4    0   20      1.26      0.00
    6    0   20      0.64      0.00
    8    0   20     -0.51      0.00
   10    0   20     -0.32      0.00
   12    0   20     -0.35      0.00
  -13    1   20      0.41      0.00
  -11    1   20     -0.63      0.00
   -9    1   20     -0.14      0.00
   -7    1   20      0.98      0.00
   -5    1   20      0.35      0.00
   -3    1   20     -0.78      0.00
   -1    1   20     -0.29      0.00
    1    1   20      0.56      0.00
    3    1   20     -0.41      0.00
    5    1   20     -0.89      0.00
    7    1   20      0.48      0.00
    9    1   20      0.86      0.00
   11    1   20      0.63      0.00
  -12    2   20     -0.08      0.00
  -10    2   20      0.34      0.00
   -8    2   20     -0.78      0.00
   -6    2   20     -1.07      0.00
   -4    2   20      0.19      0.00
   -2    2   20      0.69      0.00
    0    2   20     -0.19      0.00
    2    2   20     -0.03      0.00
    4    2   20      1.19      0.00
    6    2   20      0.57      0.00
    8    2   20     -0.47      0.00
   10    2   20     -0.30      0.00
   12    2   20     -0.34      0.00
  -11    3   20     -0.51      0.00
   -9    3   20     -0.10      0.00
   -7    3   20      0.88      0.00
   -5    3   20      0.32      0.00
   -3    3   20     -0.70      0.00
   -1    3   20     -0.25      0.00
    1    3   20      0.48      0.00
    3    3   20     -0.36      0.00
    5    3   20     -0.67      0.00
    7    3   20      0.52      0.00
    9    3   20      0.80      0.00
   11    3   20      0.66      0.00
  -12    4   20     -0.13      0.00
  -10    4   20      0.21      0.00
   -8    4   20     -0.67      0.00
   -6    4   20     -0.91      0.00
   -4    4   20      0.18      0.00
   -2    4   20      0.62      0.00
    0    4   20     -0.10      0.00
    2    4   20      0.08      0.00
    4    4   20      0.99      0.00
    6    4   20      0.40      0.00
    8    4   20     -0.35      0.00
   10    4   20     -0.25      0.00
  -11    5   20     -0.31      0.00
   -9    5   20     -0.05      0.00
   -7    5   20      0.70      0.00
   -5    5   20      0.26      0.00
   -3    5   20     -0.58      0.00
   -1    5   20     -0.21      0.00
    1    5   20      0.34      0.00
    3    5   20     -0.28      0.00
    5    5   20     -0.35      0.00
    7    5   20      0.56      0.00
    9    5   20      0.69      0.00
  -10    6   20      0.06      0.00
   -8    6   20     -0.50      0.00
   -6    6   20     -0.69      0.00
   -4    6   20      0.16      0.00
   -2    6   20      0.53      0.00
    0    6   20      0.01      0.00
    2    6   20      0.19      0.00
    4    6   20      0.74      0.00
    6    6   20      0.21      0.00
    8    6   20     -0.21      0.00
   -9    7   20     -0.04      0.00
   -7    7   20      0.45      0.00
   -5    7   20      0.17      0.00
   -3    7   20     -0.46      0.00
   -1    7   20     -0.20      0.00
    1    7   20      0.18      0.00
    3    7   20     -0.20      0.00
    5    7   20     -0.06      0.00
    7    7   20      0.53      0.00
   -6    8   20     -0.46      0.00
   -4    8   20      0.14      0.00
   -2    8   20      0.44      0.00
    0    8   20      0.10      0.00
    2    8   20      0.23      0.00
    4    8   20      0.49      0.00
    6    8   20      0.07      0.00
   -5    9   20      0.06      0.00
   -3    9   20     -0.38      0.00
   -1    9   20     -0.23      0.00
    1    9   20      0.04      0.00
    3    9   20     -0.12      0.00
  -10    0   21      0.05      0.00
   -8    0   21     -1.12      0.00
   -6    0   21     -0.45      0.00
   -4    0   21      0.88      0.00
   -2    0   21      0.33      0.00
    0    0   21     -0.66      0.00
    2    0   21      0.25      0.00
    4    0   21      0.59      0.00
    6    0   21     -0.74      0.00
    8    0   21     -0.84      0.00
   -9    1   21      0.90      0.00
   -7    1   21      1.27      0.00
   -5    1   21     -0.16      0.00
   -3    1   21     -0.74      0.00
   -1    1   21      0.34      0.00
    1    1   21      0.28      0.00
    3    1   21     -0.90      0.00
    5    1   21     -0.21      0.00
    7    1   21      0.68      0.00
    9    1   21      0.21      0.00
   -8    2   21     -1.06      0.00
   -6    2   21     -0.41      0.00
   -4    2   21      0.84      0.00
   -2    2   21      0.30      0.00
    0    2   21     -0.61      0.00
    2    2   21      0.24      0.00
    4    2   21      0.50      0.00
    6    2   21     -0.72      0.00
    8    2   21     -0.79      0.00
   -9    3   21      0.80      0.00
   -7    3   21      1.12      0.00
   -5    3   21     -0.19      0.00
   -3    3   21     -0.69      0.00
   -1    3   21      0.28      0.00
    1    3   21      0.17      0.00
    3    3   21     -0.80      0.00
    5    3   21     -0.15      0.00
    7    3   21      0.54      0.00
   -8    4   21     -0.89      0.00
   -6    4   21     -0.32      0.00
   -4    4   21      0.75      0.00
   -2    4   21      0.24      0.00
    0    4   21     -0.49      0.00
    2    4   21      0.20      0.00
    4    4   21      0.28      0.00
    6    4   21     -0.68      0.00
    8    4   21     -0.65      0.00
   -7    5   21      0.88      0.00
   -5    5   21     -0.22      0.00
   -3    5   21     -0.59      0.00
   -1    5   21      0.18      0.00
    1    5   21      0.03      0.00
    3    5   21     -0.62      0.00
    5    5   21     -0.06      0.00
    7    5   21      0.32      0.00
   -6    6   21     -0.21      0.00
   -4    6   21      0.62      0.00
   -2    6   21      0.17      0.00
    0    6   21     -0.35      0.00
    2    6   21      0.13      0.00
    4    6   21      0.04      0.00
   -3    7   21     -0.48      0.00
   -1    7   21      0.08      0.00
    1    7   21     -0.07      0.00
    3    7   21     -0.42      0.00
   -4    0   22      0.70      0.00
   -2    0   22     -0.44      0.00
    0    0   22     -0.42      0.00
    2    0   22      0.66      0.00
    4    0   22      0.00      0.00
   -5    1   22     -0.89      0.00
   -3    1   22     -0.30      0.00
   -1    1   22      0.67      0.00
    1    1   22     -0.16      0.00
    3    1   22     -0.39      0.00
   -4    2   22      0.68      0.00
   -2    2   22     -0.41      0.00
    0    2   22     -0.35      0.00
    2    2   22      0.63      0.00
   -3    3   22     -0.24      0.00
   -1    3   22      0.58      0.00
    1    3   22     -0.17      0.00
    2    0    0     45.45      0.00
    1    1    0    -65.35      0.00
    3    1    0    -19.78      0.00
    0    2    0     75.46      0.00
    2    2    0     44.55      0.00
   29    3    0     -0.47      0.00
   29    5    0     -0.18      0.00
   29    7    0      0.09      0.00
   28    8    0      0.29      0.00
   27    9    0      0.15      0.00
   29    9    0      0.26      0.00
   26   10    0      0.11      0.00
   28   10    0      0.14      0.00
   27   11    0      0.15      0.00
   26   12    0      0.13      0.00
   25   13    0     -0.04      0.00
   24   14    0      0.13      0.00
   23   15    0     -0.08      0.00
   20   16    0     -0.57      0.00
   22   16    0     -0.18      0.00
   19   17    0      0.43      0.00
   21   17    0      0.27      0.00
   18   18    0     -0.29      0.00
   20   18    0     -0.41      0.00
   15   19    0     -0.61      0.00
   17   19    0     -0.04      0.00
   19   19    0      0.18      0.00
   14   20    0      0.82      0.00
   16   20    0      0.16      0.00
    9   21    0     -0.68      0.00
   11   21    0     -1.06      0.00
   13   21    0     -0.91      0.00
   15   21    0     -0.27      0.00
   -2    0    1     62.68      0.00
    0    0    1     56.57      0.00
    2    0    1      6.36      0.00
   -1    1    1    -70.33      0.00
    1    1    1    -33.91      0.00
    0    2    1     55.51      0.00
  -29    3    1     -0.33      0.00
   29    3    1     -0.65      0.00
  -29    5    1     -0.24      0.00
   29    5    1     -0.54      0.00
  -28    6    1     -0.15      0.00
   28    6    1      0.43      0.00
  -29    7    1     -0.16      0.00
   29    7    1     -0.41      0.00
  -28    8    1     -0.20      0.00
   28    8    1      0.12      0.00
  -29    9    1     -0.09      0.00
  -27    9    1     -0.11      0.00
   27    9    1     -0.55      0.00
   29    9    1     -0.26      0.00
  -28   10    1     -0.17      0.00
  -26   10    1     -0.18      0.00
   26   10    1      0.09      0.00
   28   10    1     -0.10      0.00
  -27   11    1     -0.20      0.00
   27   11    1     -0.27      0.00
  -26   12    1      0.04      0.00
   26   12    1     -0.02      0.00
  -25   13    1     -0.19      0.00
   25   13    1     -0.16      0.00
  -24   14    1      0.09      0.00
   24   14    1      0.13      0.00
  -23   15    1      0.07      0.00
   23   15    1     -0.12      0.00
  -22   16    1     -0.13      0.00
  -20   16    1     -0.06      0.00
   20   16    1     -0.11      0.00
   22   16    1      0.11      0.00
  -21   17    1      0.23      0.00
  -19   17    1     -0.15      0.00
   19   17    1      0.47      0.00
   21   17    1      0.17      0.00
  -20   18    1      0.03      0.00
  -18   18    1      0.58      0.00
   18   18    1     -0.40      0.00
   20   18    1     -0.20      0.00
  -19   19    1     -0.21      0.00
  -17   19    1     -0.74      0.00
  -15   19    1     -1.50      0.00
   15   19    1      0.28      0.00
   17   19    1      0.40      0.00
   19   19    1      0.31      0.00
  -16   20    1      0.81      0.00
  -14   20    1      1.41      0.00
  -12   20    1      1.42      0.00
   12   20    1      0.73      0.00
   14   20    1     -0.04      0.00
   16   20    1     -0.27      0.00
  -15   21    1     -0.79      0.00
  -13   21    1     -1.23      0.00
  -11   21    1     -0.99      0.00
   -9   21    1     -0.97      0.00
    9   21    1     -0.78      0.00
   11   21    1     -0.86      0.00
   13   21    1     -0.23      0.00
   15   21    1      0.25      0.00
   -2    0    2     54.49      0.00
    0    0    2     18.20      0.00
    2    0    2    -19.38      0.00
  -29    1    2     -0.11      0.00
   -1    1    2    -39.72      0.00
    1    1    2      8.09      0.00
   29    1    2     -0.26      0.00
  -29    3    2     -0.05      0.00
   29    3    2     -0.18      0.00
  -29    5    2      0.02      0.00
   29    5    2     -0.05      0.00
  -28    6    2      0.13      0.00
   28    6    2      0.62      0.00
  -29    7    2      0.07      0.00
   29    7    2      0.07      0.00
  -28    8    2      0.26      0.00
   28    8    2      0.48      0.00
  -29    9    2      0.06      0.00
  -27    9    2      0.03      0.00
   27    9    2     -0.23      0.00
   29    9    2      0.13      0.00
  -28   10    2      0.33      0.00
  -26   10    2      0.24      0.00
   26   10    2      0.69      0.00
   28   10    2      0.31      0.00
  -27   11    2     -0.13      0.00
   27   11    2      0.00      0.00
  -26   12    2      0.29      0.00
   26   12    2      0.32      0.00
  -25   13    2     -0.10      0.00
   25   13    2     -0.13      0.00
  -24   14    2      0.09      0.00
   24   14    2      0.22      0.00
  -23   15    2     -0.11      0.00
   23   15    2     -0.23      0.00
  -22   16    2      0.12      0.00
  -20   16    2      0.68      0.00
   20   16    2      0.20      0.00
   22   16    2      0.12      0.00
  -21   17    2     -0.37      0.00
  -19   17    2     -1.05      0.00
   19   17    2     -0.20      0.00
   21   17    2     -0.16      0.00
  -20   18    2      0.51      0.00
  -18   18    2      1.15      0.00
   18   18    2     -0.10      0.00
   20   18    2     -0.05      0.00
  -19   19    2     -0.71      0.00
  -17   19    2     -1.18      0.00
  -15   19    2     -1.66      0.00
   15   19    2      0.47      0.00
   17   19    2      0.11      0.00
   19   19    2     -0.01      0.00
  -16   20    2      1.05      0.00
  -14   20    2      1.32      0.00
  -12   20    2      0.98      0.00
   12   20    2      0.09      0.00
   14   20    2     -0.44      0.00
   16   20    2     -0.24      0.00
  -15   21    2     -0.87      0.00
  -13   21    2     -0.84      0.00
  -11   21    2     -0.50      0.00
   -9   21    2     -1.07      0.00
    9   21    2     -0.51      0.00
   11   21    2     -0.24      0.00
   13   21    2      0.32      0.00
   15   21    2      0.29      0.00
  -29    1    3     -0.08      0.00
   29    1    3      0.33      0.00
  -29    3    3     -0.15      0.00
   29    3    3      0.22      0.00
  -29    5    3     -0.25      0.00
   29    5    3      0.05      0.00
  -28    6    3      0.01      0.00
   28    6    3     -0.30      0.00
  -29    7    3     -0.35      0.00
   29    7    3     -0.11      0.00
  -28    8    3      0.12      0.00
   28    8    3     -0.32      0.00
  -29    9    3     -0.40      0.00
  -27    9    3     -0.37      0.00
   27    9    3     -0.28      0.00
   29    9    3     -0.23      0.00
  -28   10    3      0.20      0.00
  -26   10    3      0.12      0.00
   26   10    3      0.11      0.00
   28   10    3     -0.24      0.00
  -27   11    3     -0.36      0.00
  -25   11    3     -0.41      0.00
   25   11    3     -0.57      0.00
   27   11    3     -0.19      0.00
  -26   12    3      0.10      0.00
   26   12    3     -0.02      0.00
  -25   13    3     -0.20      0.00
   25   13    3     -0.27      0.00
  -24   14    3      0.30      0.00
   24   14    3      0.24      0.00
  -23   15    3     -0.46      0.00
  -21   15    3     -1.04      0.00
   21   15    3     -0.20      0.00
   23   15    3     -0.24      0.00
  -22   16    3      0.64      0.00
  -20   16    3      1.14      0.00
   20   16    3      0.39      0.00
   22   16    3      0.26      0.00
  -21   17    3     -0.66      0.00
  -19   17    3     -1.09      0.00
   19   17    3     -0.29      0.00
   21   17    3     -0.05      0.00
  -20   18    3      0.73      0.00
  -18   18    3      1.09      0.00
   18   18    3      0.41      0.00
   20   18    3      0.13      0.00
  -17   19    3     -0.93      0.00
  -15   19    3     -1.05      0.00
   15   19    3      0.13      0.00
   17   19    3     -0.22      0.00
  -16   20    3      0.70      0.00
  -14   20    3      0.52      0.00
  -12   20    3      0.18      0.00
   12   20    3     -0.23      0.00
   14   20    3     -0.25      0.00
   16   20    3      0.16      0.00
  -13   21    3     -0.22      0.00
  -11   21    3     -0.34      0.00
   -9   21    3     -1.40      0.00
    9   21    3     -0.43      0.00
   11   21    3      0.05      0.00
   13   21    3      0.31      0.00
  -29    1    4     -0.03      0.00
   29    1    4      0.60      0.00
  -29    3    4     -0.05      0.00
   29    3    4      0.55      0.00
  -29    5    4     -0.07      0.00
   29    5    4      0.47      0.00
  -28    6    4      0.29      0.00
   28    6    4     -0.32      0.00
  -29    7    4     -0.11      0.00
   29    7    4      0.37      0.00
  -28    8    4      0.35      0.00
   28    8    4     -0.08      0.00
  -29    9    4     -0.15      0.00
  -27    9    4     -0.10      0.00
   27    9    4      0.56      0.00
  -28   10    4      0.33      0.00
  -26   10    4      0.47      0.00
   26   10    4     -0.01      0.00
   28   10    4      0.13      0.00
  -27   11    4     -0.03      0.00
  -25   11    4     -0.70      0.00
   25   11    4      0.11      0.00
   27   11    4      0.31      0.00
  -26   12    4      0.21      0.00
  -24   12    4      1.20      0.00
   24   12    4      0.33      0.00
   26   12    4      0.03      0.00
  -25   13    4     -0.36      0.00
  -23   13    4     -1.29      0.00
   23   13    4     -0.30      0.00
   25   13    4      0.07      0.00
  -24   14    4      0.65      0.00
  -22   14    4      1.08      0.00
   22   14    4      0.27      0.00
   24   14    4      0.19      0.00
  -23   15    4     -0.74      0.00
  -21   15    4     -0.80      0.00
   21   15    4     -0.23      0.00
   23   15    4     -0.32      0.00
  -22   16    4      0.61      0.00
  -20   16    4      0.53      0.00
   20   16    4      0.03      0.00
   22   16    4      0.22      0.00
  -21   17    4     -0.45      0.00
  -19   17    4     -0.50      0.00
   19   17    4     -0.24      0.00
   21   17    4     -0.21      0.00
  -20   18    4      0.27      0.00
  -18   18    4      0.44      0.00
  -16   18    4      0.52      0.00
   16   18    4      0.46      0.00
   18   18    4      0.20      0.00
   20   18    4     -0.05      0.00
  -17   19    4     -0.31      0.00
  -15   19    4     -0.01      0.00
   15   19    4     -0.32      0.00
   17   19    4     -0.38      0.00
  -16   20    4      0.10      0.00
  -14   20    4     -0.21      0.00
  -12   20    4     -0.01      0.00
   12   20    4     -0.06      0.00
   14   20    4      0.09      0.00
   16   20    4      0.29      0.00
  -13   21    4      0.29      0.00
  -11   21    4     -0.23      0.00
   -9   21    4     -1.14      0.00
   -7   21    4     -1.50      0.00
    7   21    4     -0.63      0.00
    9   21    4     -0.15      0.00
   11   21    4      0.12      0.00
   13   21    4      0.05      0.00
  -29    1    5     -0.09      0.00
   29    1    5      0.32      0.00
  -29    3    5     -0.12      0.00
   29    3    5      0.17      0.00
  -28    4    5      0.18      0.00
   28    4    5     -0.58      0.00
  -29    5    5     -0.17      0.00
   29    5    5     -0.05      0.00
  -28    6    5      0.08      0.00
   28    6    5     -0.45      0.00
  -29    7    5     -0.21      0.00
  -27    7    5     -0.63      0.00
   27    7    5      0.33      0.00
   29    7    5     -0.22      0.00
  -28    8    5     -0.02      0.00
   28    8    5     -0.30      0.00
  -27    9    5     -0.35      0.00
   27    9    5      0.04      0.00
  -28   10    5     -0.07      0.00
  -26   10    5      0.56      0.00
   26   10    5     -0.55      0.00
   28   10    5     -0.14      0.00
  -27   11    5     -0.12      0.00
  -25   11    5     -1.15      0.00
   25   11    5      0.16      0.00
   27   11    5     -0.17      0.00
  -26   12    5      0.25      0.00
  -24   12    5      1.16      0.00
   24   12    5     -0.22      0.00
   26   12    5     -0.23      0.00
  -25   13    5     -0.65      0.00
  -23   13    5     -0.81      0.00
   23   13    5     -0.14      0.00
   25   13    5      0.07      0.00
  -24   14    5      0.67      0.00
  -22   14    5      0.18      0.00
   22   14    5      0.28      0.00
   24   14    5     -0.06      0.00
  -23   15    5     -0.42      0.00
  -21   15    5      0.27      0.00
   21   15    5     -0.20      0.00
   23   15    5     -0.13      0.00
  -22   16    5      0.05      0.00
  -20   16    5     -0.31      0.00
   20   16    5      0.20      0.00
   22   16    5      0.37      0.00
  -21   17    5      0.22      0.00
  -19   17    5      0.16      0.00
   19   17    5      0.07      0.00
   21   17    5     -0.22      0.00
  -18   18    5     -0.08      0.00
  -16   18    5     -0.36      0.00
   16   18    5      0.46      0.00
   18   18    5      0.11      0.00
  -17   19    5      0.15      0.00
  -15   19    5      0.58      0.00
   15   19    5     -0.29      0.00
   17   19    5     -0.09      0.00
  -16   20    5     -0.37      0.00
  -14   20    5     -0.60      0.00
  -12   20    5      0.04      0.00
   12   20    5      0.02      0.00
   14   20    5      0.20      0.00
   16   20    5      0.23      0.00
  -13   21    5      0.23      0.00
  -11   21    5     -0.49      0.00
   -9   21    5     -1.05      0.00
   -7   21    5     -1.02      0.00
    7   21    5     -0.66      0.00
    9   21    5     -0.16      0.00
   11   21    5     -0.03      0.00
   13   21    5     -0.11      0.00
   28    0    6     -0.12      0.00
  -29    1    6      0.02      0.00
   29    1    6     -0.24      0.00
  -28    2    6      0.62      0.00
   28    2    6     -0.03      0.00
  -29    3    6      0.04      0.00
   29    3    6     -0.21      0.00
  -28    4    6      0.52      0.00
   28    4    6      0.18      0.00
  -29    5    6      0.08      0.00
   29    5    6     -0.14      0.00
  -28    6    6      0.35      0.00
   28    6    6      0.38      0.00
  -29    7    6      0.12      0.00
  -27    7    6     -0.60      0.00
   27    7    6      0.15      0.00
   29    7    6     -0.02      0.00
  -28    8    6      0.16      0.00
   26    8    6     -0.02      0.00
   28    8    6      0.46      0.00
  -27    9    6     -0.28      0.00
   27    9    6      0.04      0.00
  -26   10    6      0.84      0.00
   26   10    6      0.18      0.00
  -27   11    6     -0.06      0.00
  -25   11    6     -0.76      0.00
   25   11    6      0.32      0.00
   27   11    6     -0.06      0.00
  -26   12    6      0.48      0.00
  -24   12    6      0.38      0.00
   24   12    6     -0.17      0.00
   26   12    6      0.26      0.00
  -25   13    6     -0.46      0.00
  -23   13    6      0.45      0.00
   23   13    6      0.22      0.00
   25   13    6      0.10      0.00
  -24   14    6      0.20      0.00
  -22   14    6     -0.97      0.00
   22   14    6      0.02      0.00
   24   14    6     -0.12      0.00
  -23   15    6      0.31      0.00
  -21   15    6      0.99      0.00
   21   15    6     -0.31      0.00
   23   15    6      0.04      0.00
  -22   16    6     -0.60      0.00
  -20   16    6     -0.60      0.00
   20   16    6      0.22      0.00
   22   16    6      0.10      0.00
  -21   17    6      0.62      0.00
  -19   17    6      0.26      0.00
  -17   17    6      0.36      0.00
   17   17    6     -0.15      0.00
   19   17    6     -0.28      0.00
  -18   18    6     -0.14      0.00
  -16   18    6     -0.64      0.00
   16   18    6      0.11      0.00
   18   18    6      0.03      0.00
  -17   19    6      0.34      0.00
  -15   19    6      0.70      0.00
  -13   19    6     -0.01      0.00
   13   19    6      0.00      0.00
   15   19    6     -0.23      0.00
   17   19    6     -0.15      0.00
  -14   20    6     -0.27      0.00
  -12   20    6      0.61      0.00
  -10   20    6      1.20      0.00
   10   20    6     -0.04      0.00
   12   20    6     -0.06      0.00
   14   20    6      0.10      0.00
  -13   21    6     -0.02      0.00
  -11   21    6     -0.58      0.00
   -9   21    6     -0.72      0.00
   -7   21    6     -0.46      0.00
   -5   21    6     -0.21      0.00
    5   21    6     -0.92      0.00
    7   21    6     -0.17      0.00
    9   21    6      0.10      0.00
   11   21    6      0.09      0.00
   13   21    6     -0.04      0.00
  -28    0    7      0.56      0.00
   28    0    7      0.56      0.00
  -29    1    7     -0.15      0.00
   29    1    7     -0.48      0.00
  -28    2    7      0.52      0.00
   28    2    7      0.54      0.00
  -29    3    7     -0.15      0.00
   29    3    7     -0.48      0.00
  -28    4    7      0.42      0.00
   28    4    7      0.46      0.00
  -29    5    7     -0.11      0.00
  -27    5    7     -0.95      0.00
   27    5    7     -0.55      0.00
   29    5    7     -0.45      0.00
  -28    6    7      0.25      0.00
   28    6    7      0.30      0.00
  -29    7    7     -0.03      0.00
  -27    7    7     -0.76      0.00
   27    7    7     -0.62      0.00
  -28    8    7      0.06      0.00
  -26    8    7      0.49      0.00
   26    8    7      0.17      0.00
   28    8    7      0.10      0.00
  -27    9    7     -0.53      0.00
   25    9    7     -0.34      0.00
   27    9    7     -0.56      0.00
  -26   10    7      0.39      0.00
   26   10    7      0.18      0.00
  -25   11    7     -0.07      0.00
   25   11    7     -0.37      0.00
  -26   12    7      0.25      0.00
  -24   12    7     -0.78      0.00
   24   12    7     -0.08      0.00
  -25   13    7     -0.06      0.00
  -23   13    7      1.25      0.00
   23   13    7      0.17      0.00
   25   13    7     -0.27      0.00
  -24   14    7     -0.47      0.00
  -22   14    7     -1.26      0.00
   22   14    7     -0.21      0.00
   24   14    7     -0.02      0.00
  -23   15    7      0.73      0.00
  -21   15    7      0.70      0.00
   21   15    7      0.09      0.00
  -20   16    7     -0.17      0.00
  -18   16    7     -0.01      0.00
   18   16    7      0.35      0.00
   20   16    7      0.29      0.00
  -19   17    7     -0.10      0.00
  -17   17    7      0.37      0.00
   17   17    7     -0.13      0.00
   19   17    7     -0.26      0.00
  -18   18    7     -0.08      0.00
  -16   18    7     -0.57      0.00
   14   18    7      0.20      0.00
   16   18    7      0.29      0.00
   18   18    7      0.40      0.00
  -17   19    7      0.19      0.00
  -15   19    7      0.19      0.00
  -13   19    7     -0.84      0.00
   13   19    7      0.03      0.00
   15   19    7     -0.18      0.00
  -14   20    7      0.12      0.00
  -12   20    7      0.84      0.00
  -10   20    7      0.94      0.00
   -8   20    7      0.54      0.00
    8   20    7     -0.41      0.00
   10   20    7     -0.35      0.00
   12   20    7     -0.14      0.00
   14   20    7      0.15      0.00
  -11   21    7     -0.78      0.00
   -9   21    7     -0.71      0.00
   -7   21    7     -0.44      0.00
   -5   21    7     -0.37      0.00
   -3   21    7     -0.47      0.00
   -1   21    7     -0.75      0.00
    1   21    7     -1.27      0.00
    3   21    7     -1.25      0.00
    5   21    7     -0.45      0.00
    7   21    7      0.16      0.00
    9   21    7      0.25      0.00
   11   21    7      0.15      0.00
  -28    0    8      0.57      0.00
   28    0    8      0.56      0.00
  -29    1    8     -0.13      0.00
   29    1    8     -0.41      0.00
  -28    2    8      0.57      0.00
   28    2    8      0.55      0.00
  -29    3    8     -0.11      0.00
  -27    3    8     -0.19      0.00
   27    3    8     -0.65      0.00
   29    3    8     -0.28      0.00
  -28    4    8      0.54      0.00
   28    4    8      0.50      0.00
  -29    5    8     -0.04      0.00
  -27    5    8     -0.22      0.00
   27    5    8     -0.45      0.00
   29    5    8     -0.07      0.00
  -28    6    8      0.47      0.00
   26    6    8      0.62      0.00
   28    6    8      0.40      0.00
  -27    7    8     -0.23      0.00
   27    7    8     -0.21      0.00
  -28    8    8      0.35      0.00
  -26    8    8     -0.06      0.00
   26    8    8      0.58      0.00
  -27    9    8     -0.22      0.00
  -25    9    8      1.03      0.00
   25    9    8     -0.27      0.00
   27    9    8      0.02      0.00
  -26   10    8      0.05      0.00
  -24   10    8     -1.47      0.00
   24   10    8      0.52      0.00
   26   10    8      0.44      0.00
  -25   11    8      0.69      0.00
   23   11    8     -0.09      0.00
   25   11    8     -0.24      0.00
  -24   12    8     -1.01      0.00
   22   12    8     -0.07      0.00
   24   12    8      0.40      0.00
  -23   13    8      1.05      0.00
   21   13    8      0.32      0.00
   23   13    8     -0.05      0.00
  -22   14    8     -0.46      0.00
  -20   14    8      0.67      0.00
   20   14    8     -0.30      0.00
   22   14    8     -0.24      0.00
  -21   15    8     -0.06      0.00
  -19   15    8     -0.43      0.00
   19   15    8     -0.09      0.00
   21   15    8      0.30      0.00
  -20   16    8      0.40      0.00
  -18   16    8     -0.01      0.00
   18   16    8      0.16      0.00
   20   16    8     -0.30      0.00
  -19   17    8     -0.21      0.00
  -17   17    8      0.37      0.00
   17   17    8     -0.43      0.00
   19   17    8     -0.11      0.00
  -18   18    8      0.05      0.00
  -16   18    8     -0.11      0.00
  -14   18    8      0.95      0.00
   14   18    8      0.25      0.00
   16   18    8      0.28      0.00
   18   18    8      0.15      0.00
  -15   19    8     -0.17      0.00
  -13   19    8     -1.03      0.00
  -11   19    8     -1.09      0.00
   11   19    8      0.21      0.00
   13   19    8     -0.22      0.00
   15   19    8     -0.36      0.00
  -14   20    8      0.52      0.00
  -12   20    8      0.99      0.00
  -10   20    8      0.79      0.00
   -8   20    8      0.34      0.00
    6   20    8     -0.61      0.00
    8   20    8     -0.52      0.00
   10   20    8     -0.31      0.00
   12   20    8      0.03      0.00
  -11   21    8     -0.63      0.00
   -9   21    8     -0.34      0.00
   -7   21    8     -0.06      0.00
   -5   21    8     -0.11      0.00
   -3   21    8     -0.29      0.00
   -1   21    8     -0.63      0.00
    1   21    8     -0.86      0.00
    3   21    8     -0.35      0.00
    5   21    8      0.37      0.00
    7   21    8      0.57      0.00
    9   21    8      0.41      0.00
   11   21    8      0.13      0.00
  -28    0    9      0.14      0.00
   28    0    9      0.34      0.00
  -29    1    9     -0.39      0.00
  -27    1    9      0.04      0.00
   27    1    9     -0.41      0.00
   29    1    9     -0.03      0.00
  -28    2    9      0.15      0.00
   28    2    9      0.27      0.00
  -29    3    9     -0.37      0.00
  -27    3    9      0.02      0.00
   27    3    9     -0.38      0.00
   29    3    9     -0.02      0.00
  -28    4    9      0.16      0.00
   28    4    9      0.10      0.00
  -27    5    9     -0.03      0.00
   27    5    9     -0.31      0.00
  -28    6    9      0.18      0.00
  -26    6    9     -0.80      0.00
   26    6    9      0.15      0.00
   28    6    9     -0.09      0.00
  -27    7    9     -0.11      0.00
   25    7    9     -0.38      0.00
   27    7    9     -0.20      0.00
  -26    8    9     -0.60      0.00
   26    8    9     -0.06      0.00
  -27    9    9     -0.20      0.00
  -25    9    9      0.79      0.00
   25    9    9     -0.33      0.00
  -26   10    9     -0.36      0.00
  -24   10    9     -0.87      0.00
   24   10    9      0.21      0.00
   26   10    9     -0.17      0.00
  -25   11    9      0.51      0.00
  -23   11    9      0.16      0.00
   23   11    9     -0.50      0.00
   25   11    9     -0.24      0.00
  -24   12    9     -0.59      0.00
  -22   12    9      0.46      0.00
   22   12    9      0.17      0.00
   24   12    9      0.23      0.00
  -23   13    9      0.09      0.00
  -21   13    9     -0.90      0.00
   21   13    9      0.17      0.00
   23   13    9     -0.35      0.00
  -22   14    9      0.27      0.00
  -20   14    9      0.64      0.00
   20   14    9     -0.43      0.00
   22   14    9      0.09      0.00
  -21   15    9     -0.56      0.00
  -19   15    9     -0.21      0.00
   19   15    9      0.55      0.00
   21   15    9      0.34      0.00
  -20   16    9      0.35      0.00
  -18   16    9     -0.24      0.00
   18   16    9     -0.15      0.00
   20   16    9     -0.44      0.00
  -19   17    9     -0.17      0.00
  -17   17    9      0.11      0.00
  -15   17    9     -0.78      0.00
   15   17    9     -0.22      0.00
   17   17    9      0.06      0.00
  -16   18    9      0.08      0.00
  -14   18    9      0.93      0.00
   12   18    9      0.33      0.00
   14   18    9      0.36      0.00
   16   18    9      0.24      0.00
  -15   19    9     -0.46      0.00
  -13   19    9     -0.96      0.00
  -11   19    9     -0.62      0.00
   -9   19    9      0.07      0.00
    9   19    9      0.27      0.00
   11   19    9     -0.10      0.00
   13   19    9     -0.25      0.00
   15   19    9     -0.18      0.00
  -12   20    9      0.60      0.00
  -10   20    9      0.13      0.00
   -8   20    9     -0.31      0.00
   -6   20    9     -0.23      0.00
   -4   20    9      0.03      0.00
    4   20    9     -0.88      0.00
    6   20    9     -0.73      0.00
    8   20    9     -0.44      0.00
   10   20    9     -0.10      0.00
   12   20    9      0.18      0.00
   -9   21    9      0.01      0.00
   -7   21    9      0.15      0.00
   -5   21    9     -0.03      0.00
   -3   21    9     -0.28      0.00
   -1   21    9     -0.60      0.00
    1   21    9     -0.39      0.00
    3   21    9      0.30      0.00
    5   21    9      0.58      0.00
    7   21    9      0.46      0.00
    9   21    9      0.21      0.00
  -28    0   10      0.26      0.00
   26    0   10      0.11      0.00
   28    0   10     -0.13      0.00
  -29    1   10     -0.15      0.00
  -27    1   10      0.29      0.00
   27    1   10     -0.14      0.00
  -28    2   10      0.25      0.00
   26    2   10      0.11      0.00
   28    2   10     -0.11      0.00
  -27    3   10      0.30      0.00
   27    3   10     -0.06      0.00
  -28    4   10      0.25      0.00
  -26    4   10     -0.32      0.00
   26    4   10      0.10      0.00
   28    4   10     -0.07      0.00
  -27    5   10      0.29      0.00
   27    5   10      0.06      0.00
  -26    6   10     -0.31      0.00
   26    6   10      0.07      0.00
  -27    7   10      0.21      0.00
  -25    7   10      0.53      0.00
   25    7   10      0.20      0.00
   27    7   10      0.17      0.00
  -26    8   10     -0.23      0.00
  -24    8   10      0.09      0.00
   24    8   10      0.05      0.00
   26    8   10      0.03      0.00
  -25    9   10      0.41      0.00
   25    9   10      0.27      0.00
  -24   10   10      0.10      0.00
   24   10   10      0.09      0.00
  -25   11   10      0.24      0.00
  -23   11   10     -0.38      0.00
   23   11   10     -0.13      0.00
  -24   12   10      0.13      0.00
  -22   12   10      0.72      0.00
   22   12   10      0.40      0.00
   24   12   10      0.10      0.00
  -23   13   10     -0.25      0.00
  -21   13   10     -0.47      0.00
   21   13   10     -0.18      0.00
   23   13   10     -0.24      0.00
  -22   14   10      0.47      0.00
  -20   14   10      0.18      0.00
   20   14   10     -0.27      0.00
   22   14   10      0.29      0.00
  -21   15   10     -0.25      0.00
  -19   15   10      0.23      0.00
  -17   15   10      0.12      0.00
   17   15   10      0.36      0.00
   19   15   10      0.52      0.00
  -18   16   10     -0.16      0.00
  -16   16   10      0.45      0.00
   16   16   10     -0.26      0.00
   18   16   10     -0.73      0.00
  -17   17   10      0.08      0.00
  -15   17   10     -0.63      0.00
   13   17   10     -0.21      0.00
   15   17   10     -0.05      0.00
   17   17   10      0.39      0.00
  -16   18   10      0.26      0.00
  -14   18   10      0.73      0.00
  -12   18   10      0.36      0.00
   12   18   10      0.14      0.00
   14   18   10     -0.03      0.00
   16   18   10     -0.30      0.00
  -13   19   10     -0.43      0.00
  -11   19   10      0.17      0.00
   -9   19   10      0.75      0.00
   -7   19   10      0.57      0.00
    7   19   10      0.14      0.00
    9   19   10     -0.02      0.00
   11   19   10     -0.19      0.00
   13   19   10     -0.09      0.00
  -10   20   10     -0.32      0.00
   -8   20   10     -0.52      0.00
   -6   20   10     -0.23      0.00
   -4   20   10      0.10      0.00
   -2   20   10      0.45      0.00
    0   20   10      0.09      0.00
    2   20   10     -0.71      0.00
    4   20   10     -0.65      0.00
    6   20   10     -0.27      0.00
    8   20   10     -0.12      0.00
   10   20   10      0.08      0.00
   -7   21   10      0.41      0.00
   -5   21   10      0.17      0.00
   -3   21   10     -0.12      0.00
   -1   21   10     -0.22      0.00
    1   21   10      0.31      0.00
    3   21   10      0.66      0.00
    5   21   10      0.46      0.00
    7   21   10      0.29      0.00
  -28    0   11      0.01      0.00
  -26    0   11     -0.29      0.00
   26    0   11      0.05      0.00
   28    0   11     -0.10      0.00
  -27    1   11     -0.17      0.00
   27    1   11      0.19      0.00
  -28    2   11      0.00      0.00
  -26    2   11     -0.29      0.00
   26    2   11      0.03      0.00
   28    2   11     -0.12      0.00
  -27    3   11     -0.14      0.00
   25    3   11      0.10      0.00
   27    3   11      0.12      0.00
  -26    4   11     -0.29      0.00
   26    4   11     -0.02      0.00
  -27    5   11     -0.09      0.00
  -25    5   11     -0.06      0.00
   25    5   11      0.05      0.00
   27    5   11      0.01      0.00
  -26    6   11     -0.26      0.00
   24    6   11     -0.33      0.00
   26    6   11     -0.08      0.00
  -25    7   11     -0.06      0.00
   25    7   11      0.02      0.00
  -26    8   11     -0.20      0.00
  -24    8   11      0.04      0.00
   24    8   11     -0.37      0.00
   26    8   11     -0.14      0.00
  -25    9   11     -0.07      0.00
  -23    9   11     -0.40      0.00
   23    9   11      0.15      0.00
   25    9   11      0.03      0.00
  -24   10   11      0.04      0.00
  -22   10   11      0.18      0.00
   22   10   11     -0.13      0.00
   24   10   11     -0.33      0.00
  -23   11   11     -0.29      0.00
  -21   11   11     -0.02      0.00
   21   11   11     -0.25      0.00
   23   11   11      0.04      0.00
  -22   12   11      0.08      0.00
  -20   12   11     -0.37      0.00
   20   12   11      0.12      0.00
   22   12   11      0.08      0.00
  -21   13   11     -0.03      0.00
  -19   13   11      0.36      0.00
   19   13   11      0.19      0.00
   21   13   11     -0.29      0.00
  -20   14   11     -0.24      0.00
  -18   14   11     -0.24      0.00
   18   14   11     -0.50      0.00
   20   14   11      0.20      0.00
  -19   15   11      0.15      0.00
  -17   15   11     -0.16      0.00
   17   15   11      0.73      0.00
   19   15   11      0.25      0.00
  -18   16   11     -0.16      0.00
  -16   16   11      0.30      0.00
   14   16   11     -0.16      0.00
   16   16   11     -0.46      0.00
   18   16   11     -0.43      0.00
  -17   17   11     -0.09      0.00
  -15   17   11     -0.47      0.00
  -13   17   11     -0.21      0.00
   13   17   11      0.28      0.00
   15   17   11      0.43      0.00
   17   17   11      0.65      0.00
  -14   18   11      0.28      0.00
  -12   18   11     -0.29      0.00
  -10   18   11     -1.00      0.00
   10   18   11      0.02      0.00
   12   18   11     -0.14      0.00
   14   18   11     -0.20      0.00
  -13   19   11     -0.19      0.00
  -11   19   11      0.51      0.00
   -9   19   11      0.76      0.00
   -7   19   11      0.28      0.00
   -5   19   11     -0.11      0.00
    3   19   11      0.41      0.00
    5   19   11     -0.16      0.00
    7   19   11     -0.01      0.00
    9   19   11      0.03      0.00
   11   19   11      0.12      0.00
  -10   20   11     -0.69      0.00
   -8   20   11     -0.56      0.00
   -6   20   11     -0.18      0.00
   -4   20   11      0.10      0.00
   -2   20   11      0.13      0.00
    0   20   11     -0.49      0.00
    2   20   11     -0.68      0.00
    4   20   11     -0.13      0.00
    6   20   11     -0.02      0.00
    8   20   11     -0.09      0.00
   -5   21   11      0.05      0.00
   -3   21   11     -0.17      0.00
   -1   21   11      0.03      0.00
    1   21   11      0.50      0.00
    3   21   11      0.32      0.00
    5   21   11      0.07      0.00
  -26    0   12     -0.03      0.00
   26    0   12     -0.10      0.00
  -27    1   12      0.11      0.00
  -25    1   12      0.41      0.00
   25    1   12     -0.16      0.00
   27    1   12      0.02      0.00
  -26    2   12     -0.02      0.00
   26    2   12     -0.06      0.00
  -27    3   12      0.11      0.00
  -25    3   12      0.37      0.00
   25    3   12     -0.13      0.00
   27    3   12      0.04      0.00
  -26    4   12      0.00      0.00
   24    4   12     -0.02      0.00
   26    4   12      0.03      0.00
  -25    5   12      0.31      0.00
   25    5   12     -0.07      0.00
  -26    6   12      0.02      0.00
  -24    6   12      0.12      0.00
   24    6   12      0.02      0.00
   26    6   12      0.11      0.00
  -25    7   12      0.26      0.00
  -23    7   12     -0.03      0.00
   23    7   12      0.36      0.00
   25    7   12      0.01      0.00
  -24    8   12      0.04      0.00
   24    8   12      0.02      0.00
  -25    9   12      0.22      0.00
  -23    9   12      0.07      0.00
   23    9   12      0.35      0.00
  -24   10   12     -0.02      0.00
  -22   10   12      0.10      0.00
   22   10   12     -0.21      0.00
   24   10   12     -0.03      0.00
  -23   11   12      0.17      0.00
  -21   11   12      0.12      0.00
   21   11   12      0.20      0.00
   23   11   12      0.28      0.00
  -22   12   12      0.01      0.00
  -20   12   12     -0.07      0.00
   20   12   12      0.09      0.00
   22   12   12     -0.11      0.00
  -21   13   12      0.13      0.00
  -19   13   12      0.15      0.00
   19   13   12     -0.07      0.00
   21   13   12     -0.04      0.00
  -20   14   12      0.01      0.00
  -18   14   12      0.03      0.00
   16   14   12     -0.61      0.00
   18   14   12     -0.18      0.00
   20   14   12      0.18      0.00
  -19   15   12      0.11      0.00
  -17   15   12     -0.06      0.00
  -15   15   12     -0.36      0.00
   15   15   12      0.46      0.00
   17   15   12      0.33      0.00
   19   15   12     -0.22      0.00
  -16   16   12      0.26      0.00
  -14   16   12      0.21      0.00
   14   16   12     -0.46      0.00
   16   16   12     -0.55      0.00
  -15   17   12     -0.20      0.00
  -13   17   12      0.20      0.00
  -11   17   12      0.99      0.00
   11   17   12      0.36      0.00
   13   17   12      0.29      0.00
   15   17   12      0.33      0.00
  -14   18   12      0.21      0.00
  -12   18   12     -0.47      0.00
  -10   18   12     -0.81      0.00
   -8   18   12     -0.16      0.00
    6   18   12     -0.05      0.00
    8   18   12     -0.36      0.00
   10   18   12     -0.40      0.00
   12   18   12     -0.40      0.00
  -11   19   12      0.70      0.00
   -9   19   12      0.53      0.00
   -7   19   12     -0.02      0.00
   -5   19   12     -0.19      0.00
   -3   19   12     -0.06      0.00
   -1   19   12      0.51      0.00
    1   19   12      0.47      0.00
    3   19   12     -0.26      0.00
    5   19   12     -0.18      0.00
    7   19   12      0.23      0.00
    9   19   12      0.28      0.00
   11   19   12      0.31      0.00
   -6   20   12      0.07      0.00
   -4   20   12      0.16      0.00
   -2   20   12     -0.11      0.00
    0   20   12     -0.50      0.00
    2   20   12     -0.11      0.00
    4   20   12      0.21      0.00
    6   20   12     -0.12      0.00
  -26    0   13     -0.39      0.00
  -24    0   13      0.27      0.00
   24    0   13      0.48      0.00
   26    0   13      0.12      0.00
  -25    1   13     -0.14      0.00
   25    1   13     -0.13      0.00
  -26    2   13     -0.37      0.00
  -24    2   13      0.26      0.00
   24    2   13      0.45      0.00
   26    2   13      0.10      0.00
  -25    3   13     -0.12      0.00
   25    3   13     -0.16      0.00
  -26    4   13     -0.33      0.00
  -24    4   13      0.21      0.00
   24    4   13      0.35      0.00
   26    4   13      0.04      0.00
  -25    5   13     -0.07      0.00
  -23    5   13     -0.83      0.00
   23    5   13     -0.26      0.00
   25    5   13     -0.18      0.00
  -24    6   13      0.12      0.00
   24    6   13      0.20      0.00
  -25    7   13     -0.01      0.00
  -23    7   13     -0.63      0.00
   23    7   13     -0.21      0.00
   25    7   13     -0.17      0.00
  -24    8   13      0.00      0.00
  -22    8   13      0.46      0.00
   22    8   13     -0.19      0.00
   24    8   13      0.05      0.00
  -23    9   13     -0.41      0.00
  -21    9   13     -0.44      0.00
   21    9   13      0.23      0.00
   23    9   13     -0.12      0.00
  -22   10   13      0.30      0.00
  -20   10   13      0.08      0.00
   20   10   13     -0.44      0.00
   22   10   13     -0.20      0.00
  -21   11   13     -0.35      0.00
  -19   11   13     -0.04      0.00
   19   11   13      0.17      0.00
   21   11   13      0.16      0.00
  -20   12   13      0.06      0.00
  -18   12   13      0.02      0.00
   18   12   13     -0.15      0.00
   20   12   13     -0.21      0.00
  -19   13   13     -0.04      0.00
  -17   13   13     -0.20      0.00
   17   13   13      0.14      0.00
   19   13   13      0.04      0.00
  -18   14   13     -0.07      0.00
  -16   14   13      0.28      0.00
   16   14   13     -0.25      0.00
   18   14   13      0.05      0.00
  -17   15   13     -0.11      0.00
  -15   15   13     -0.29      0.00
   13   15   13      0.39      0.00
   15   15   13      0.40      0.00
   17   15   13      0.11      0.00
  -16   16   13      0.15      0.00
  -14   16   13     -0.01      0.00
  -12   16   13     -0.84      0.00
   12   16   13     -0.26      0.00
   14   16   13     -0.26      0.00
   16   16   13     -0.14      0.00
  -13   17   13      0.32      0.00
  -11   17   13      0.77      0.00
   -9   17   13      0.05      0.00
    9   17   13      0.60      0.00
   11   17   13      0.40      0.00
   13   17   13      0.29      0.00
  -12   18   13     -0.60      0.00
  -10   18   13     -0.45      0.00
   -8   18   13      0.23      0.00
   -6   18   13      0.26      0.00
   -4   18   13     -0.11      0.00
   -2   18   13     -0.50      0.00
    0   18   13     -0.21      0.00
    2   18   13      0.49      0.00
    4   18   13      0.15      0.00
    6   18   13     -0.51      0.00
    8   18   13     -0.53      0.00
   10   18   13     -0.36      0.00
   12   18   13     -0.18      0.00
   -9   19   13      0.10      0.00
   -7   19   13     -0.21      0.00
   -5   19   13     -0.07      0.00
   -3   19   13      0.26      0.00
   -1   19   13      0.45      0.00
    1   19   13     -0.07      0.00
    3   19   13     -0.29      0.00
    5   19   13      0.28      0.00
    7   19   13      0.54      0.00
    9   19   13      0.43      0.00
   -4   20   13      0.01      0.00
   -2   20   13     -0.28      0.00
    0   20   13     -0.20      0.00
    2   20   13      0.22      0.00
    4   20   13      0.01      0.00
  -26    0   14      0.23      0.00
  -24    0   14      1.20      0.00
   24    0   14      0.27      0.00
  -25    1   14     -0.37      0.00
  -23    1   14     -1.01      0.00
   23    1   14     -0.76      0.00
   25    1   14     -0.15      0.00
  -26    2   14      0.20      0.00
  -24    2   14      1.16      0.00
   24    2   14      0.27      0.00
  -25    3   14     -0.31      0.00
  -23    3   14     -0.96      0.00
   23    3   14     -0.64      0.00
   25    3   14     -0.10      0.00
  -24    4   14      1.03      0.00
   22    4   14      0.65      0.00
   24    4   14      0.24      0.00
  -25    5   14     -0.22      0.00
  -23    5   14     -0.86      0.00
   23    5   14     -0.45      0.00
  -24    6   14      0.83      0.00
  -22    6   14      0.82      0.00
   22    6   14      0.54      0.00
   24    6   14      0.20      0.00
  -23    7   14     -0.72      0.00
  -21    7   14     -0.14      0.00
   21    7   14     -0.18      0.00
   23    7   14     -0.25      0.00
  -22    8   14      0.69      0.00
   20    8   14     -0.01      0.00
   22    8   14      0.40      0.00
  -23    9   14     -0.54      0.00
  -21    9   14     -0.14      0.00
   21    9   14     -0.06      0.00
  -22   10   14      0.57      0.00
  -20   10   14     -0.05      0.00
   20   10   14     -0.03      0.00
   22   10   14      0.25      0.00
  -21   11   14     -0.14      0.00
  -19   11   14      0.21      0.00
   19   11   14      0.34      0.00
   21   11   14     -0.01      0.00
  -20   12   14      0.00      0.00
  -18   12   14      0.01      0.00
   16   12   14     -0.06      0.00
   18   12   14     -0.20      0.00
   20   12   14     -0.07      0.00
  -19   13   14      0.19      0.00
  -17   13   14     -0.20      0.00
  -15   13   14     -0.18      0.00
   15   13   14      0.16      0.00
   17   13   14      0.13      0.00
   19   13   14      0.18      0.00
  -18   14   14      0.00      0.00
  -16   14   14      0.34      0.00
  -14   14   14     -0.30      0.00
   14   14   14     -0.24      0.00
   16   14   14     -0.09      0.00
   18   14   14     -0.13      0.00
  -15   15   14     -0.15      0.00
  -13   15   14      0.64      0.00
   11   15   14      0.11      0.00
   13   15   14      0.20      0.00
   15   15   14      0.10      0.00
  -14   16   14     -0.16      0.00
  -12   16   14     -0.71      0.00
  -10   16   14     -0.03      0.00
    8   16   14     -0.56      0.00
   10   16   14     -0.21      0.00
   12   16   14     -0.20      0.00
   14   16   14     -0.25      0.00
  -13   17   14      0.47      0.00
  -11   17   14      0.41      0.00
   -9   17   14     -0.33      0.00
   -7   17   14     -0.22      0.00
   -5   17   14      0.36      0.00
    3   17   14      0.03      0.00
    5   17   14      0.71      0.00
    7   17   14      0.62      0.00
    9   17   14      0.25      0.00
   11   17   14      0.06      0.00
  -10   18   14     -0.07      0.00
   -8   18   14      0.25      0.00
   -6   18   14     -0.12      0.00
   -4   18   14     -0.49      0.00
   -2   18   14     -0.39      0.00
    0   18   14      0.17      0.00
    2   18   14      0.19      0.00
    4   18   14     -0.47      0.00
    6   18   14     -0.72      0.00
    8   18   14     -0.46      0.00
   10   18   14     -0.19      0.00
   -5   19   14      0.18      0.00
   -3   19   14      0.33      0.00
   -1   19   14      0.06      0.00
    1   19   14     -0.28      0.00
    3   19   14      0.05      0.00
    5   19   14      0.51      0.00
  -24    0   15      0.78      0.00
  -22    0   15      0.06      0.00
   22    0   15      0.74      0.00
   24    0   15     -0.01      0.00
  -25    1   15     -0.93      0.00
  -23    1   15     -0.82      0.00
   23    1   15     -0.14      0.00
  -24    2   15      0.76      0.00
  -22    2   15      0.03      0.00
   22    2   15      0.68      0.00
   24    2   15     -0.03      0.00
  -23    3   15     -0.75      0.00
   21    3   15     -0.89      0.00
   23    3   15     -0.14      0.00
  -24    4   15      0.68      0.00
  -22    4   15     -0.03      0.00
   22    4   15      0.54      0.00
   24    4   15     -0.07      0.00
  -23    5   15     -0.65      0.00
  -21    5   15      0.25      0.00
   21    5   15     -0.79      0.00
   23    5   15     -0.12      0.00
  -22    6   15     -0.07      0.00
   20    6   15      0.58      0.00
   22    6   15      0.36      0.00
  -23    7   15     -0.54      0.00
  -21    7   15      0.32      0.00
   21    7   15     -0.66      0.00
   23    7   15     -0.09      0.00
  -22    8   15     -0.07      0.00
  -20    8   15     -0.55      0.00
   20    8   15      0.41      0.00
   22    8   15      0.21      0.00
  -21    9   15      0.28      0.00
  -19    9   15      0.21      0.00
   19    9   15     -0.26      0.00
   21    9   15     -0.51      0.00
  -20   10   15     -0.47      0.00
  -18   10   15      0.12      0.00
   18   10   15     -0.29      0.00
   20   10   15      0.28      0.00
  -19   11   15      0.18      0.00
  -17   11   15     -0.37      0.00
   17   11   15      0.21      0.00
   19   11   15     -0.14      0.00
  -18   12   15      0.08      0.00
  -16   12   15      0.28      0.00
   16   12   15     -0.21      0.00
   18   12   15     -0.22      0.00
  -17   13   15     -0.33      0.00
  -15   13   15      0.12      0.00
   13   13   15      0.08      0.00
   15   13   15      0.00      0.00
   17   13   15      0.19      0.00
  -16   14   15      0.23      0.00
  -14   14   15     -0.47      0.00
  -12   14   15     -0.46      0.00
   12   14   15     -0.17      0.00
   14   14   15     -0.05      0.00
   16   14   15     -0.09      0.00
  -15   15   15      0.04      0.00
  -13   15   15      0.62      0.00
  -11   15   15      0.08      0.00
   -9   15   15     -0.31      0.00
    9   15   15     -0.08      0.00
   11   15   15      0.10      0.00
   13   15   15      0.18      0.00
   15   15   15      0.08      0.00
  -12   16   15     -0.37      0.00
  -10   16   15      0.32      0.00
   -8   16   15      0.13      0.00
   -6   16   15     -0.57      0.00
    4   16   15     -0.65      0.00
    6   16   15     -0.45      0.00
    8   16   15      0.00      0.00
   10   16   15      0.08      0.00
   12   16   15     -0.12      0.00
  -11   17   15      0.08      0.00
   -9   17   15     -0.22      0.00
   -7   17   15      0.31      0.00
   -5   17   15      0.68      0.00
   -3   17   15      0.29      0.00
   -1   17   15     -0.24      0.00
    1   17   15     -0.05      0.00
    3   17   15      0.52      0.00
    5   17   15      0.64      0.00
    7   17   15      0.32      0.00
    9   17   15      0.02      0.00
   -6   18   15     -0.35      0.00
   -4   18   15     -0.35      0.00
   -2   18   15      0.11      0.00
    0   18   15      0.31      0.00
    2   18   15     -0.10      0.00
    4   18   15     -0.44      0.00
    6   18   15     -0.36      0.00
  -24    0   16      0.37      0.00
  -22    0   16     -0.24      0.00
   22    0   16     -0.24      0.00
  -23    1   16      0.21      0.00
  -21    1   16      0.52      0.00
   21    1   16     -0.33      0.00
   23    1   16      0.32      0.00
  -22    2   16     -0.27      0.00
   20    2   16      0.70      0.00
   22    2   16     -0.21      0.00
  -23    3   16      0.24      0.00
  -21    3   16      0.57      0.00
   21    3   16     -0.28      0.00
   23    3   16      0.30      0.00
  -22    4   16     -0.36      0.00
  -20    4   16     -0.21      0.00
   20    4   16      0.70      0.00
   22    4   16     -0.15      0.00
  -23    5   16      0.26      0.00
  -21    5   16      0.62      0.00
   19    5   16     -0.68      0.00
   21    5   16     -0.21      0.00
  -22    6   16     -0.42      0.00
  -20    6   16     -0.26      0.00
   20    6   16      0.68      0.00
   22    6   16     -0.10      0.00
  -21    7   16      0.63      0.00
  -19    7   16     -0.04      0.00
   19    7   16     -0.57      0.00
   21    7   16     -0.15      0.00
  -20    8   16     -0.27      0.00
  -18    8   16      0.36      0.00
   18    8   16      0.48      0.00
   20    8   16      0.61      0.00
  -19    9   16     -0.05      0.00
  -17    9   16     -0.32      0.00
   17    9   16      0.17      0.00
   19    9   16     -0.46      0.00
  -20   10   16     -0.23      0.00
  -18   10   16      0.35      0.00
  -16   10   16     -0.08      0.00
   16   10   16     -0.10      0.00
   18   10   16      0.34      0.00
  -19   11   16     -0.03      0.00
  -17   11   16     -0.30      0.00
  -15   11   16      0.45      0.00
   15   11   16      0.21      0.00
   17   11   16      0.18      0.00
  -18   12   16      0.30      0.00
  -16   12   16     -0.03      0.00
  -14   12   16     -0.74      0.00
   14   12   16      0.13      0.00
   16   12   16     -0.14      0.00
  -15   13   16      0.35      0.00
  -13   13   16      0.45      0.00
   11   13   16      0.19      0.00
   13   13   16      0.02      0.00
   15   13   16      0.11      0.00
  -14   14   16     -0.52      0.00
  -12   14   16     -0.15      0.00
  -10   14   16      0.14      0.00
   10   14   16     -0.03      0.00
   12   14   16     -0.11      0.00
   14   14   16      0.01      0.00
  -13   15   16      0.30      0.00
  -11   15   16     -0.25      0.00
   -9   15   16     -0.03      0.00
   -7   15   16      0.63      0.00
   -5   15   16      0.35      0.00
    5   15   16      0.19      0.00
    7   15   16     -0.19      0.00
    9   15   16     -0.16      0.00
   11   15   16      0.14      0.00
   13   15   16      0.05      0.00
  -10   16   16      0.14      0.00
   -8   16   16     -0.42      0.00
   -6   16   16     -0.72      0.00
   -4   16   16     -0.15      0.00
   -2   16   16      0.30      0.00
    0   16   16     -0.03      0.00
    2   16   16     -0.42      0.00
    4   16   16     -0.39      0.00
    6   16   16     -0.13      0.00
    8   16   16      0.12      0.00
   10   16   16     -0.07      0.00
   -7   17   16      0.40      0.00
   -5   17   16      0.28      0.00
   -3   17   16     -0.30      0.00
   -1   17   16     -0.35      0.00
    1   17   16      0.07      0.00
    3   17   16      0.21      0.00
    5   17   16      0.14      0.00
    7   17   16     -0.06      0.00
   -2   18   16      0.21      0.00
    0   18   16     -0.01      0.00
  -22    0   17     -0.36      0.00
  -20    0   17     -0.13      0.00
   20    0   17     -0.18      0.00
   22    0   17     -0.53      0.00
  -21    1   17      0.10      0.00
   19    1   17     -0.20      0.00
   21    1   17      0.57      0.00
  -22    2   17     -0.37      0.00
  -20    2   17     -0.09      0.00
   20    2   17     -0.17      0.00
   22    2   17     -0.51      0.00
  -21    3   17      0.10      0.00
  -19    3   17     -0.19      0.00
   19    3   17     -0.27      0.00
   21    3   17      0.49      0.00
  -22    4   17     -0.39      0.00
  -20    4   17     -0.01      0.00
   18    4   17      0.35      0.00
   20    4   17     -0.15      0.00
  -21    5   17      0.10      0.00
  -19    5   17     -0.30      0.00
   19    5   17     -0.37      0.00
   21    5   17      0.38      0.00
  -20    6   17      0.08      0.00
  -18    6   17      0.30      0.00
   18    6   17      0.38      0.00
   20    6   17     -0.11      0.00
  -19    7   17     -0.38      0.00
  -17    7   17     -0.06      0.00
   17    7   17     -0.44      0.00
   19    7   17     -0.43      0.00
  -20    8   17      0.11      0.00
  -18    8   17      0.35      0.00
  -16    8   17     -0.29      0.00
   16    8   17     -0.18      0.00
   18    8   17      0.38      0.00
  -19    9   17     -0.37      0.00
  -17    9   17     -0.06      0.00
  -15    9   17      0.66      0.00
   15    9   17      0.04      0.00
   17    9   17     -0.39      0.00
   19    9   17     -0.42      0.00
  -18   10   17      0.31      0.00
  -16   10   17     -0.28      0.00
  -14   10   17     -0.51      0.00
   14   10   17     -0.23      0.00
   16   10   17     -0.18      0.00
   18   10   17      0.34      0.00
  -17   11   17     -0.05      0.00
  -15   11   17      0.56      0.00
  -13   11   17      0.33      0.00
   13   11   17     -0.21      0.00
   15   11   17      0.09      0.00
   17   11   17     -0.27      0.00
  -16   12   17     -0.23      0.00
  -14   12   17     -0.36      0.00
  -12   12   17      0.14      0.00
   10   12   17     -0.20      0.00
   12   12   17     -0.02      0.00
   14   12   17     -0.15      0.00
   16   12   17     -0.13      0.00
  -15   13   17      0.39      0.00
  -13   13   17      0.16      0.00
  -11   13   17     -0.01      0.00
   -9   13   17      0.62      0.00
    9   13   17     -0.03      0.00
   11   13   17      0.04      0.00
   13   13   17     -0.09      0.00
  -12   14   17      0.19      0.00
  -10   14   17     -0.03      0.00
   -8   14   17     -0.53      0.00
   -6   14   17     -0.16      0.00
    4   14   17      0.02      0.00
    6   14   17      0.26      0.00
    8   14   17      0.15      0.00
   10   14   17     -0.17      0.00
   12   14   17     -0.02      0.00
  -11   15   17     -0.06      0.00
   -9   15   17      0.43      0.00
   -7   15   17      0.61      0.00
   -5   15   17      0.03      0.00
   -3   15   17     -0.29      0.00
   -1   15   17      0.07      0.00
    1   15   17      0.25      0.00
    3   15   17      0.14      0.00
    5   15   17      0.01      0.00
    7   15   17     -0.15      0.00
    9   15   17      0.05      0.00
   -8   16   17     -0.34      0.00
   -6   16   17     -0.14      0.00
   -4   16   17      0.41      0.00
   -2   16   17      0.36      0.00
    0   16   17      0.01      0.00
    2   16   17      0.02      0.00
    4   16   17      0.02      0.00
    6   16   17      0.09      0.00
    8   16   17      0.13      0.00
   -3   17   17     -0.27      0.00
   -1   17   17      0.02      0.00
    1   17   17      0.14      0.00
  -20    0   18      0.08      0.00
  -18    0   18      0.15      0.00
   18    0   18     -0.14      0.00
   20    0   18     -0.60      0.00
  -21    1   18      0.02      0.00
  -19    1   18     -0.07      0.00
   17    1   18      0.16      0.00
   19    1   18      0.41      0.00
   21    1   18      0.45      0.00
  -20    2   18      0.12      0.00
  -18    2   18      0.16      0.00
   18    2   18     -0.09      0.00
   20    2   18     -0.58      0.00
  -21    3   18     -0.03      0.00
  -19    3   18     -0.14      0.00
  -17    3   18     -0.07      0.00
   17    3   18      0.09      0.00
   19    3   18      0.40      0.00
  -20    4   18      0.21      0.00
  -18    4   18      0.16      0.00
   18    4   18      0.02      0.00
   20    4   18     -0.51      0.00
  -19    5   18     -0.23      0.00
  -17    5   18      0.00      0.00
   17    5   18     -0.02      0.00
   19    5   18      0.36      0.00
  -20    6   18      0.29      0.00
  -18    6   18      0.16      0.00
  -16    6   18     -0.32      0.00
   16    6   18      0.16      0.00
   18    6   18      0.14      0.00
  -19    7   18     -0.29      0.00
  -17    7   18      0.07      0.00
  -15    7   18      0.38      0.00
   15    7   18      0.38      0.00
   17    7   18     -0.12      0.00
   19    7   18      0.30      0.00
  -18    8   18      0.14      0.00
  -16    8   18     -0.37      0.00
  -14    8   18     -0.42      0.00
   14    8   18     -0.15      0.00
   16    8   18      0.25      0.00
   18    8   18      0.21      0.00
  -17    9   18      0.11      0.00
  -15    9   18      0.32      0.00
  -13    9   18      0.06      0.00
   13    9   18      0.38      0.00
   15    9   18      0.30      0.00
   17    9   18     -0.18      0.00
  -16   10   18     -0.33      0.00
  -14   10   18     -0.25      0.00
  -12   10   18     -0.13      0.00
   12   10   18      0.15      0.00
   14   10   18     -0.13      0.00
   16   10   18      0.24      0.00
  -15   11   18      0.21      0.00
  -13   11   18     -0.10      0.00
  -11   11   18      0.07      0.00
    9   11   18      0.22      0.00
   11   11   18      0.09      0.00
   13   11   18      0.26      0.00
   15   11   18      0.19      0.00
  -14   12   18     -0.09      0.00
  -12   12   18     -0.03      0.00
  -10   12   18     -0.46      0.00
   -8   12   18     -0.45      0.00
    8   12   18      0.08      0.00
   10   12   18      0.02      0.00
   12   12   18      0.10      0.00
   14   12   18     -0.10      0.00
  -11   13   18      0.03      0.00
   -9   13   18      0.33      0.00
   -7   13   18     -0.03      0.00
   -5   13   18     -0.44      0.00
   -3   13   18     -0.27      0.00
    1   13   18     -0.14      0.00
    3   13   18     -0.14      0.00
    5   13   18     -0.24      0.00
    7   13   18     -0.12      0.00
    9   13   18      0.16      0.00
   11   13   18      0.04      0.00
  -10   14   18     -0.37      0.00
   -8   14   18     -0.41      0.00
   -6   14   18      0.05      0.00
   -4   14   18      0.21      0.00
   -2   14   18     -0.04      0.00
    0   14   18     -0.04      0.00
    2   14   18      0.05      0.00
    4   14   18      0.05      0.00
    6   14   18      0.15      0.00
    8   14   18     -0.01      0.00
   10   14   18     -0.07      0.00
   -7   15   18     -0.01      0.00
   -5   15   18     -0.41      0.00
   -3   15   18     -0.32      0.00
   -1   15   18     -0.10      0.00
    1   15   18     -0.19      0.00
    3   15   18     -0.10      0.00
    5   15   18     -0.06      0.00
    7   15   18     -0.10      0.00
   -2   16   18     -0.02      0.00
    0   16   18     -0.04      0.00
    2   16   18      0.03      0.00
  -20    0   19      0.03      0.00
  -18    0   19      0.28      0.00
  -16    0   19     -0.06      0.00
   16    0   19     -0.25      0.00
   18    0   19     -0.28      0.00
  -19    1   19     -0.19      0.00
  -17    1   19     -0.15      0.00
   15    1   19      0.30      0.00
   17    1   19      0.07      0.00
   19    1   19      0.33      0.00
  -18    2   19      0.24      0.00
  -16    2   19     -0.09      0.00
   16    2   19     -0.22      0.00
   18    2   19     -0.29      0.00
  -19    3   19     -0.17      0.00
  -17    3   19     -0.05      0.00
   15    3   19      0.20      0.00
   17    3   19      0.02      0.00
   19    3   19      0.34      0.00
  -18    4   19      0.15      0.00
  -16    4   19     -0.16      0.00
   16    4   19     -0.14      0.00
   18    4   19     -0.33      0.00
  -17    5   19      0.07      0.00
  -15    5   19      0.48      0.00
   15    5   19      0.03      0.00
   17    5   19     -0.04      0.00
  -18    6   19      0.05      0.00
  -16    6   19     -0.20      0.00
  -14    6   19     -0.37      0.00
   14    6   19     -0.56      0.00
   16    6   19     -0.04      0.00
   18    6   19     -0.34      0.00
  -17    7   19      0.15      0.00
  -15    7   19      0.35      0.00
  -13    7   19      0.41      0.00
   13    7   19      0.31      0.00
   15    7   19     -0.12      0.00
   17    7   19     -0.10      0.00
  -16    8   19     -0.17      0.00
  -14    8   19     -0.14      0.00
  -12    8   19     -0.14      0.00
   12    8   19     -0.60      0.00
   14    8   19     -0.42      0.00
   16    8   19      0.04      0.00
  -15    9   19      0.18      0.00
  -13    9   19      0.20      0.00
  -11    9   19      0.31      0.00
   11    9   19      0.02      0.00
   13    9   19      0.22      0.00
   15    9   19     -0.19      0.00
  -14   10   19      0.05      0.00
  -12   10   19     -0.08      0.00
  -10   10   19     -0.12      0.00
   -8   10   19      0.13      0.00
    8   10   19     -0.30      0.00
   10   10   19     -0.25      0.00
   12   10   19     -0.43      0.00
   14   10   19     -0.27      0.00
  -13   11   19      0.06      0.00
  -11   11   19      0.33      0.00
   -9   11   19      0.21      0.00
   -7   11   19     -0.02      0.00
   -5   11   19      0.02      0.00
    5   11   19     -0.38      0.00
    7   11   19     -0.09      0.00
    9   11   19     -0.03      0.00
   11   11   19     -0.01      0.00
   13   11   19      0.14      0.00
  -12   12   19     -0.04      0.00
  -10   12   19     -0.15      0.00
   -8   12   19      0.13      0.00
   -6   12   19      0.26      0.00
   -4   12   19      0.17      0.00
   -2   12   19      0.24      0.00
    0   12   19      0.29      0.00
    2   12   19      0.16      0.00
    4   12   19      0.17      0.00
    6   12   19      0.06      0.00
    8   12   19     -0.16      0.00
   10   12   19     -0.11      0.00
   -9   13   19      0.22      0.00
   -7   13   19     -0.05      0.00
   -5   13   19     -0.06      0.00
   -3   13   19     -0.02      0.00
   -1   13   19     -0.15      0.00
    1   13   19     -0.16      0.00
    3   13   19     -0.08      0.00
    5   13   19     -0.15      0.00
    7   13   19     -0.04      0.00
    9   13   19      0.00      0.00
   -6   14   19      0.30      0.00
   -4   14   19      0.24      0.00
   -2   14   19      0.21      0.00
    0   14   19      0.30      0.00
    2   14   19      0.13      0.00
    4   14   19      0.04      0.00
    6   14   19      0.09      0.00
  -18    0   20      0.24      0.00
  -16    0   20     -0.42      0.00
  -14    0   20     -0.91      0.00
   14    0   20     -0.08      0.00
   16    0   20      0.21      0.00
  -17    1   20     -0.06      0.00
  -15    1   20      0.65      0.00
   13    1   20      0.57      0.00
   15    1   20      0.01      0.00
   17    1   20      0.01      0.00
  -18    2   20      0.19      0.00
  -16    2   20     -0.42      0.00
  -14    2   20     -0.85      0.00
   14    2   20     -0.04      0.00
   16    2   20      0.21      0.00
  -17    3   20      0.00      0.00
  -15    3   20      0.57      0.00
  -13    3   20      0.36      0.00
   13    3   20      0.55      0.00
   15    3   20     -0.01      0.00
   17    3   20      0.07      0.00
  -16    4   20     -0.38      0.00
  -14    4   20     -0.70      0.00
   12    4   20     -0.33      0.00
   14    4   20      0.06      0.00
   16    4   20      0.21      0.00
  -17    5   20      0.07      0.00
  -15    5   20      0.42      0.00
  -13    5   20      0.30      0.00
   11    5   20      0.68      0.00
   13    5   20      0.49      0.00
   15    5   20     -0.05      0.00
  -16    6   20     -0.31      0.00
  -14    6   20     -0.50      0.00
  -12    6   20     -0.20      0.00
   10    6   20     -0.18      0.00
   12    6   20     -0.28      0.00
   14    6   20      0.17      0.00
   16    6   20      0.19      0.00
  -15    7   20      0.24      0.00
  -13    7   20      0.22      0.00
  -11    7   20     -0.11      0.00
    9    7   20      0.54      0.00
   11    7   20      0.64      0.00
   13    7   20      0.38      0.00
   15    7   20     -0.08      0.00
  -14    8   20     -0.31      0.00
  -12    8   20     -0.26      0.00
  -10    8   20     -0.05      0.00
   -8    8   20     -0.31      0.00
    8    8   20     -0.09      0.00
   10    8   20     -0.11      0.00
   12    8   20     -0.21      0.00
   14    8   20      0.24      0.00
  -13    9   20      0.16      0.00
  -11    9   20      0.03      0.00
   -9    9   20     -0.07      0.00
   -7    9   20      0.20      0.00
    5    9   20      0.07      0.00
    7    9   20      0.41      0.00
    9    9   20      0.37      0.00
   11    9   20      0.51      0.00
   13    9   20      0.26      0.00
  -12   10   20     -0.29      0.00
  -10   10   20     -0.11      0.00
   -8   10   20     -0.14      0.00
   -6   10   20     -0.26      0.00
   -4   10   20      0.10      0.00
   -2   10   20      0.35      0.00
    0   10   20      0.14      0.00
    2   10   20      0.18      0.00
    4   10   20      0.28      0.00
    6   10   20      0.02      0.00
    8   10   20     -0.01      0.00
   10   10   20     -0.06      0.00
   12   10   20     -0.15      0.00
  -11   11   20      0.09      0.00
   -9   11   20     -0.11      0.00
   -7   11   20     -0.01      0.00
   -5   11   20     -0.04      0.00
   -3   11   20     -0.33      0.00
   -1   11   20     -0.27      0.00
    1   11   20     -0.04      0.00
    3   11   20     -0.07      0.00
    5   11   20      0.05      0.00
    7   11   20      0.22      0.00
    9   11   20      0.20      0.00
   -8   12   20     -0.04      0.00
   -6   12   20     -0.12      0.00
   -4   12   20      0.06      0.00
   -2   12   20      0.25      0.00
    0   12   20      0.12      0.00
    2   12   20      0.04      0.00
    4   12   20      0.11      0.00
    6   12   20      0.03      0.00
    8   12   20      0.02      0.00
   -5   13   20     -0.12      0.00
   -3   13   20     -0.28      0.00
   -1   13   20     -0.29      0.00
    1   13   20     -0.07      0.00
    3   13   20     -0.01      0.00
    5   13   20     -0.04      0.00
  -16    0   21     -0.50      0.00
  -14    0   21     -0.39      0.00
  -12    0   21      0.49      0.00
   10    0   21     -0.38      0.00
   12    0   21     -0.27      0.00
   14    0   21      0.21      0.00
  -15    1   21      0.75      0.00
  -13    1   21      0.12      0.00
  -11    1   21     -0.26      0.00
   11    1   21      0.07      0.00
   13    1   21     -0.20      0.00
   15    1   21     -0.38      0.00
  -16    2   21     -0.47      0.00
  -14    2   21     -0.37      0.00
  -12    2   21      0.45      0.00
  -10    2   21      0.03      0.00
   10    2   21     -0.40      0.00
   12    2   21     -0.26      0.00
   14    2   21      0.21      0.00
  -15    3   21      0.65      0.00
  -13    3   21      0.13      0.00
  -11    3   21     -0.21      0.00
    9    3   21      0.15      0.00
   11    3   21      0.07      0.00
   13    3   21     -0.25      0.00
   15    3   21     -0.38      0.00
  -14    4   21     -0.30      0.00
  -12    4   21      0.34      0.00
  -10    4   21      0.02      0.00
   10    4   21     -0.42      0.00
   12    4   21     -0.24      0.00
   14    4   21      0.22      0.00
  -13    5   21      0.15      0.00
  -11    5   21     -0.12      0.00
   -9    5   21      0.63      0.00
    9    5   21      0.06      0.00
   11    5   21      0.06      0.00
   13    5   21     -0.32      0.00
  -14    6   21     -0.24      0.00
  -12    6   21      0.19      0.00
  -10    6   21      0.01      0.00
   -8    6   21     -0.66      0.00
    6    6   21     -0.58      0.00
    8    6   21     -0.48      0.00
   10    6   21     -0.43      0.00
   12    6   21     -0.20      0.00
  -13    7   21      0.19      0.00
  -11    7   21     -0.03      0.00
   -9    7   21      0.44      0.00
   -7    7   21      0.62      0.00
   -5    7   21     -0.21      0.00
    5    7   21      0.01      0.00
    7    7   21      0.12      0.00
    9    7   21      0.00      0.00
   11    7   21      0.05      0.00
  -12    8   21      0.04      0.00
  -10    8   21      0.03      0.00
   -8    8   21     -0.41      0.00
   -6    8   21     -0.12      0.00
   -4    8   21      0.48      0.00
   -2    8   21      0.14      0.00
    0    8   21     -0.22      0.00
    2    8   21      0.06      0.00
    4    8   21     -0.11      0.00
    6    8   21     -0.44      0.00
    8    8   21     -0.32      0.00
   10    8   21     -0.40      0.00
  -11    9   21      0.04      0.00
   -9    9   21      0.25      0.00
   -7    9   21      0.41      0.00
   -5    9   21     -0.15      0.00
   -3    9   21     -0.36      0.00
   -1    9   21      0.03      0.00
    1    9   21     -0.07      0.00
    3    9   21     -0.23      0.00
    5    9   21      0.03      0.00
    7    9   21     -0.01      0.00
    9    9   21      0.00      0.00
   -8   10   21     -0.19      0.00
   -6   10   21     -0.05      0.00
   -4   10   21      0.36      0.00
   -2   10   21      0.15      0.00
    0   10   21     -0.12      0.00
    2   10   21      0.00      0.00
    4   10   21     -0.13      0.00
    6   10   21     -0.26      0.00
    8   10   21     -0.19      0.00
   -7   11   21      0.27      0.00
   -5   11   21     -0.06      0.00
   -3   11   21     -0.23      0.00
   -1   11   21      0.02      0.00
    1   11   21      0.01      0.00
    3   11   21     -0.08      0.00
    5   11   21      0.01      0.00
   -2   12   21      0.17      0.00
    0   12   21     -0.05      0.00
    2   12   21     -0.03      0.00
  -12    0   22      0.14      0.00
  -10    0   22     -0.82      0.00
   -8    0   22     -1.16      0.00
   -6    0   22      0.18      0.00
    6    0   22     -0.59      0.00
    8    0   22      0.06      0.00
   10    0   22      0.14      0.00
   12    0   22      0.27      0.00
  -13    1   22     -0.31      0.00
  -11    1   22      0.01      0.00
   -9    1   22      0.98      0.00
   -7    1   22      0.36      0.00
    5    1   22      0.71      0.00
    7    1   22      0.53      0.00
    9    1   22      0.07      0.00
   11    1   22      0.08      0.00
   13    1   22     -0.21      0.00
  -12    2   22      0.14      0.00
  -10    2   22     -0.76      0.00
   -8    2   22     -1.08      0.00
   -6    2   22      0.20      0.00
    4    2   22      0.00      0.00
    6    2   22     -0.51      0.00
    8    2   22      0.09      0.00
   10    2   22      0.14      0.00
   12    2   22      0.29      0.00
  -13    3   22     -0.28      0.00
  -11    3   22      0.00      0.00
   -9    3   22      0.86      0.00
   -7    3   22      0.28      0.00
   -5    3   22     -0.83      0.00
    3    3   22     -0.27      0.00
    5    3   22      0.64      0.00
    7    3   22      0.42      0.00
    9    3   22      0.10      0.00
   11    3   22      0.09      0.00
  -12    4   22      0.13      0.00
  -10    4   22     -0.62      0.00
   -8    4   22     -0.87      0.00
   -6    4   22      0.25      0.00
   -4    4   22      0.60      0.00
   -2    4   22     -0.32      0.00
    0    4   22     -0.18      0.00
    2    4   22      0.56      0.00
    4    4   22     -0.02      0.00
    6    4   22     -0.29      0.00
    8    4   22      0.16      0.00
   10    4   22      0.13      0.00
   12    4   22      0.33      0.00
  -11    5   22     -0.02      0.00
   -9    5   22      0.66      0.00
   -7    5   22      0.17      0.00
   -5    5   22     -0.71      0.00
   -3    5   22     -0.16      0.00
   -1    5   22      0.43      0.00
    1    5   22     -0.16      0.00
    3    5   22     -0.10      0.00
    5    5   22      0.53      0.00
    7    5   22      0.27      0.00
    9    5   22      0.15      0.00
   11    5   22      0.08      0.00
  -10    6   22     -0.43      0.00
   -8    6   22     -0.62      0.00
   -6    6   22      0.27      0.00
   -4    6   22      0.48      0.00
   -2    6   22     -0.23      0.00
    0    6   22     -0.02      0.00
    2    6   22      0.43      0.00
    4    6   22     -0.03      0.00
    6    6   22     -0.07      0.00
    8    6   22      0.19      0.00
   10    6   22      0.10      0.00
   -9    7   22      0.45      0.00
   -7    7   22      0.09      0.00
   -5    7   22     -0.54      0.00
   -3    7   22     -0.08      0.00
   -1    7   22      0.30      0.00
    1    7   22     -0.12      0.00
    3    7   22      0.04      0.00
    5    7   22      0.38      0.00
    7    7   22      0.15      0.00
    9    7   22      0.19      0.00
   -8    8   22     -0.43      0.00
   -6    8   22      0.20      0.00
   -4    8   22      0.34      0.00
   -2    8   22     -0.16      0.00
    0    8   22      0.04      0.00
    2    8   22      0.28      0.00
    4    8   22     -0.03      0.00
    6    8   22      0.08      0.00
    8    8   22      0.16      0.00
   -5    9   22     -0.37      0.00
   -3    9   22     -0.04      0.00
   -1    9   22      0.20      0.00
    1    9   22     -0.06      0.00
    3    9   22      0.11      0.00
    5    9   22      0.23      0.00
   -2   10   22     -0.13      0.00
    0   10   22      0.01      0.00
    2   10   22      0.13      0.00
    0    0    0      0.00      0.00
# SQUEEZE RESULTS
# Note: Data are Listed for all Voids in the P1 Unit Cell
# i.e. Centre of Gravity, Solvent Accessible Volume,
# Recovered number of Electrons in the Void and
# Details about the Squeezed Material
loop_
  _platon_squeeze_void_nr
  _platon_squeeze_void_average_x
  _platon_squeeze_void_average_y
  _platon_squeeze_void_average_z
  _platon_squeeze_void_volume
  _platon_squeeze_void_count_electrons
  _platon_squeeze_void_content
   1  0.500  0.000  0.000       206        38 ' '
   2  0.000  0.000  0.500         8         1 ' '
   3  0.000  0.500  0.000       206        38 ' '
   4  0.500  0.500  0.500         8         1 ' '
_platon_squeeze_details
(replace by semicolon in column 1 when used as .sqf)
TITL 11 in C2/m
CELL   24.1210   18.1900   18.4970     90.00     90.47     90.00
SPGR C2/m
# Solvent Accessible Volume =     434.3
# Electrons Found in S.A.V. =      77.2
# Note: Atoms in Void as Cxxx and Qxxx all others
C101 1.000 0.500 0.000 !       6.13 eA-3
C102 0.078 0.503 0.125 !       3.88 eA-3
C103 0.860 0.495 0.891 !       3.44 eA-3
C104 0.971 0.503 0.844 !       3.13 eA-3
Q105 0.468 0.509 0.906 !       2.27 eA-3
Q106 0.233 0.417 0.780 !       1.41 eA-3
Q107 0.752 0.500 0.312 !       1.29 eA-3
Q108 0.280 0.460 0.768 !       1.27 eA-3
Q109 0.234 0.113 0.244 !       1.21 eA-3
Q110 0.289 0.093 0.258 !       1.12 eA-3
Q111 0.304 0.464 0.604 !       1.01 eA-3
Q112 0.189 0.407 0.718 !       0.99 eA-3
Q113 0.274 0.420 0.485 !       0.88 eA-3
Q114 0.311 0.404 0.717 !       0.86 eA-3
Q115 0.174 0.487 0.766 !       0.86 eA-3
Q116 0.687 0.383 0.142 !       0.84 eA-3
Q117 0.335 0.415 0.909 !       0.82 eA-3
Q118 0.280 0.111 0.317 !       0.82 eA-3
Q119 0.743 0.044 0.594 !       0.81 eA-3
Q120 0.883 0.086 0.767 !       0.79 eA-3
Q121 0.836 0.463 0.291 !       0.71 eA-3
Q122 0.100 0.102 0.904 !       0.69 eA-3
Q123 0.462 0.399 0.654 !       0.68 eA-3
Q124 0.250 0.465 0.827 !       0.67 eA-3
Q125 0.585 0.508 0.422 !       0.63 eA-3
Q126 0.329 0.011 0.500 !       0.62 eA-3
Q127 0.188 0.504 0.375 !       0.59 eA-3
Q128 0.344 0.298 0.728 !       0.59 eA-3
Q129 0.670 0.491 0.359 !       0.57 eA-3
Q130 0.812 0.501 0.547 !       0.57 eA-3
Q131 0.672 0.467 0.312 !       0.56 eA-3
Q132 0.267 0.258 0.672 !       0.55 eA-3
Q133 0.727 0.376 0.314 !       0.54 eA-3
Q134 0.850 0.807 0.751 !       0.53 eA-3
Q135 0.088 0.101 0.362 !       0.52 eA-3
Q136 0.867 0.506 0.781 !       0.51 eA-3
Q137 0.859 0.114 0.531 !       0.51 eA-3
Q138 1.000 0.312 0.493 !       0.50 eA-3
(replace by semicolon in column 1 when used as .sqf)
;
_shelx_fab_checksum              79980
loop_
_space_group_symop_operation_xyz
'x, y, z'
'-x, y, -z'
'x+1/2, y+1/2, z'
'-x+1/2, y+1/2, -z'
'-x, -y, -z'
'x, -y, z'
'-x+1/2, -y+1/2, -z'
'x+1/2, -y+1/2, z'
loop_
_atom_site_label
_atom_site_type_symbol
_atom_site_fract_x
_atom_site_fract_y
_atom_site_fract_z
_atom_site_U_iso_or_equiv
_atom_site_adp_type
_atom_site_occupancy
_atom_site_site_symmetry_order
_atom_site_calc_flag
_atom_site_refinement_flags_posn
_atom_site_refinement_flags_adp
_atom_site_refinement_flags_occupancy
_atom_site_disorder_assembly
_atom_site_disorder_group
Lu1 Lu 0.17022(2) 0.0000 0.35160(3) 0.04151(18) Uani 0.5265 2 d S TU P A 1
Lu2 Lu 0.30185(3) 0.08953(4) 0.35106(5) 0.03643(19) Uani 0.2691 1 d . U P A 1
Lu3 Lu 0.2552(2) -0.0240(3) 0.1927(2) 0.0643(14) Uani 0.0662 1 d . U P A 1
Lu4 Lu 0.18258(18) 0.0638(3) 0.3553(3) 0.0799(14) Uani 0.065 1 d . U P A 1
Lu5 Lu 0.2743(3) 0.0887(4) 0.3775(4) 0.103(2) Uani 0.0596 1 d . U P A 1
Lu6 Lu 0.1986(3) 0.0932(3) 0.2909(4) 0.105(2) Uani 0.0633 1 d . U P A 1
Lu7 Lu 0.3094(6) 0.0000 0.3796(7) 0.119(4) Uani 0.045 2 d S TU P A 1
Lu8 Lu 0.3390(3) 0.0000 0.2941(7) 0.175(5) Uani 0.0658 2 d S TU P A 1
Lu9 Lu 0.2356(11) 0.0000 0.4248(8) 0.101(4) Uani 0.0351 2 d S TU P A 1
Lu10 Lu 0.2940(10) 0.0000 0.2008(9) 0.081(4) Uani 0.0247 2 d S TU P A 1
Lu11 Lu 0.2293(10) -0.1001(12) 0.2524(11) 0.095(4) Uani 0.0204 1 d . U P A 1
Lu12 Lu 0.2734(6) -0.0557(8) 0.2086(6) 0.092(3) Uani 0.0342 1 d . U P A 1
Lu13 Lu 0.2060(6) -0.0358(7) 0.4060(6) 0.086(3) Uani 0.0286 1 d . U P A 1
Lu14 Lu 0.2954(11) 0.0963(12) 0.2595(16) 0.099(6) Uani 0.0151 1 d . U P A 1
Lu15 Lu 0.2535(10) 0.0445(14) 0.4145(10) 0.084(4) Uani 0.0175 1 d . U P A 1
Lu16 Lu 0.2235(13) -0.0399(17) 0.2259(12) 0.078(4) Uani 0.0125 1 d . U P A 1
C1 C 0.09446(7) -0.0675(2) 0.26618(16) 0.093(5) Uani 0.5 1 d DG U P A -1
C2 C 0.07638(6) -0.0434(2) 0.34256(17) 0.089(4) Uani 0.5 1 d DG U P A -1
C3 C 0.07766(7) 0.0309(2) 0.36112(17) 0.094(5) Uani 0.5 1 d G U P A -1
C4 C 0.08791(7) 0.0553(2) 0.28562(17) 0.078(4) Uani 0.5 1 d DG U P A -1
C5 C 0.10010(7) 0.0095(2) 0.23414(15) 0.087(3) Uani 0.5 1 d G U P A -1
C6 C 0.15493(11) -0.1386(2) 0.18515(16) 0.102(5) Uani 0.5 1 d G U P A -1
C7 C 0.15462(10) -0.0602(2) 0.15920(12) 0.100(5) Uani 0.5 1 d DG U P A -1
C8 C 0.16029(11) 0.0761(2) 0.14806(13) 0.061(3) Uani 0.5 1 d G U P A -1
C9 C 0.11771(9) -0.1262(2) 0.25423(17) 0.097(6) Uani 0.5 1 d DG U P A -1
C10 C 0.12638(11) -0.1789(2) 0.31921(19) 0.059(3) Uani 0.5 1 d DG U P A -1
C11 C 0.12461(10) -0.1578(2) 0.38977(18) 0.083(4) Uani 0.5 1 d G U P A -1
C12 C 0.09606(8) -0.0863(2) 0.40199(17) 0.085(4) Uani 0.5 1 d G U P A -1
C13 C 0.12532(10) -0.0626(2) 0.46566(14) 0.098(5) Uani 0.5 1 d G U P A -1
C14 C 0.12076(10) 0.0256(2) 0.47273(14) 0.090(5) Uani 0.5 1 d G U P A -1
C15 C 0.09762(9) 0.0617(2) 0.42108(16) 0.107(6) Uani 0.5 1 d G U P A -1
C16 C 0.11684(11) 0.1254(2) 0.40659(18) 0.122(6) Uani 0.5 1 d G U P A -1
C17 C 0.11186(11) 0.1450(2) 0.33730(19) 0.119(6) Uani 0.5 1 d G U P A -1
C18 C 0.11273(10) 0.1292(2) 0.26349(18) 0.089(5) Uani 0.5 1 d DG U P A -1
C19 C 0.14622(11) 0.1365(2) 0.20485(17) 0.058(3) Uani 0.5 1 d G U P A -1
C20 C 0.13488(9) -0.0034(2) 0.17501(13) 0.065(2) Uani 0.5 1 d G U P A -1
C21 C 0.20501(12) 0.0564(2) 0.10927(11) 0.082(4) Uani 0.5 1 d DG U P A -1
C22 C 0.22413(12) -0.0091(3) 0.08717(9) 0.074(3) Uani 0.5 1 d DG U P A -1
C23 C 0.20087(12) -0.0824(2) 0.11036(11) 0.092(5) Uani 0.5 1 d DG U P A -1
C24 C 0.24824(14) -0.1373(2) 0.10930(13) 0.100(5) Uani 0.5 1 d DG U P A -1
C25 C 0.24223(14) -0.1822(2) 0.15029(16) 0.084(5) Uani 0.5 1 d G U P A -1
C26 C 0.19075(13) -0.1916(2) 0.18848(18) 0.072(4) Uani 0.5 1 d G U P A -1
C27 C 0.20518(14) -0.23774(17) 0.2490(2) 0.078(4) Uani 0.5 1 d G U P A -1
C28 C 0.17318(14) -0.22998(17) 0.3181(2) 0.065(3) Uani 0.5 1 d G U P A -1
C29 C 0.20206(14) -0.23316(17) 0.3739(2) 0.082(4) Uani 0.5 1 d G U P A -1
C30 C 0.17015(12) -0.18193(19) 0.42917(18) 0.076(4) Uani 0.5 1 d G U P A -1
C31 C 0.20568(12) -0.1379(2) 0.48019(14) 0.095(5) Uani 0.5 1 d G U P A -1
C32 C 0.17771(11) -0.0722(2) 0.50276(12) 0.095(5) Uani 0.5 1 d G U P A -1
C33 C 0.20635(12) -0.0165(2) 0.52375(9) 0.097(5) Uani 0.5 1 d G U P A -1
C34 C 0.16850(12) 0.0418(2) 0.51084(12) 0.097(5) Uani 0.5 1 d G U P A -1
C35 C 0.18539(13) 0.1200(2) 0.49146(14) 0.126(7) Uani 0.5 1 d DG U P A -1
C36 C 0.16254(13) 0.1553(2) 0.44917(17) 0.116(6) Uani 0.5 1 d G U P A -1
C37 C 0.19528(15) 0.20845(18) 0.4065(2) 0.112(6) Uani 0.5 1 d G U P A -1
C38 C 0.15243(14) 0.20045(19) 0.3329(2) 0.122(6) Uani 0.5 1 d G U P A -1
C39 C 0.19392(15) 0.22745(17) 0.2764(2) 0.111(6) Uani 0.5 1 d G U P A -1
C40 C 0.17957(13) 0.19393(19) 0.21899(19) 0.104(5) Uani 0.5 1 d G U P A -1
C41 C 0.23550(14) 0.1903(2) 0.16763(18) 0.105(6) Uani 0.5 1 d DG U P A -1
C42 C 0.24360(13) 0.1218(2) 0.11981(13) 0.099(5) Uani 0.5 1 d DG U P A -1
C43 C 0.30205(13) 0.1082(2) 0.10228(13) 0.082(4) Uani 0.5 1 d DG U P A -1
C44 C 0.32234(12) 0.0277(3) 0.09104(10) 0.080(4) Uani 0.5 1 d DG U P A -1
C45 C 0.28037(13) -0.0285(3) 0.07770(9) 0.087(4) Uani 0.5 1 d G U P A -1
C46 C 0.29293(13) -0.0863(2) 0.09894(11) 0.101(5) Uani 0.5 1 d DG U P A -1
C47 C 0.33702(12) -0.1198(2) 0.14250(14) 0.096(5) Uani 0.5 1 d G U P A -1
C48 C 0.33192(13) -0.1746(2) 0.18302(17) 0.099(5) Uani 0.5 1 d G U P A -1
C49 C 0.28505(14) -0.21286(19) 0.18865(19) 0.081(4) Uani 0.5 1 d G U P A -1
C50 C 0.26079(15) -0.24863(16) 0.2524(2) 0.069(3) Uani 0.5 1 d G U P A -1
C51 C 0.29045(14) -0.24590(15) 0.3131(2) 0.078(4) Uani 0.5 1 d G U P A -1
C52 C 0.25600(14) -0.23776(15) 0.3811(2) 0.073(4) Uani 0.5 1 d G U P A -1
C53 C 0.28879(13) -0.19132(17) 0.42833(17) 0.071(4) Uani 0.5 1 d G U P A -1
C54 C 0.26080(12) -0.13668(19) 0.47824(13) 0.083(4) Uani 0.5 1 d G U P A -1
C55 C 0.29456(11) -0.0745(2) 0.49039(11) 0.081(4) Uani 0.5 1 d G U P A -1
C56 C 0.26442(12) -0.0103(2) 0.51988(8) 0.099(4) Uani 0.5 1 d G U P A -1
C57 C 0.28577(12) 0.0560(2) 0.51752(10) 0.107(6) Uani 0.5 1 d G U P A -1
C58 C 0.24380(14) 0.1117(2) 0.51127(13) 0.120(6) Uani 0.5 1 d DG U P A -1
C59 C 0.28033(15) 0.17309(19) 0.46504(16) 0.093(5) Uani 0.5 1 d G U P A -1
C60 C 0.25241(15) 0.21384(16) 0.41192(19) 0.108(6) Uani 0.5 1 d G U P A -1
C61 C 0.28727(15) 0.23738(15) 0.3426(2) 0.094(5) Uani 0.5 1 d G U P A -1
C62 C 0.25404(16) 0.24291(15) 0.2845(2) 0.110(6) Uani 0.5 1 d G U P A -1
C63 C 0.28283(15) 0.22090(18) 0.2124(2) 0.091(5) Uani 0.5 1 d G U P A -1
C64 C 0.33585(13) 0.1880(2) 0.20323(18) 0.067(4) Uani 0.5 1 d G U P A -1
C65 C 0.34993(12) 0.1321(2) 0.15146(16) 0.078(4) Uani 0.5 1 d G U P A -1
C66 C 0.38537(10) 0.0786(2) 0.16686(15) 0.078(4) Uani 0.5 1 d G U P A -1
C67 C 0.37042(10) 0.0131(2) 0.12921(13) 0.083(4) Uani 0.5 1 d G U P A -1
C68 C 0.38078(10) -0.0596(2) 0.16064(14) 0.085(5) Uani 0.5 1 d G U P A -1
C69 C 0.40992(8) -0.0740(2) 0.23706(16) 0.086(5) Uani 0.5 1 d G U P A -1
C70 C 0.39438(9) -0.1355(2) 0.27904(18) 0.098(5) Uani 0.5 1 d DG U P A -1
C71 C 0.35510(12) -0.19124(19) 0.25476(19) 0.108(6) Uani 0.5 1 d DG U P A -1
C72 C 0.34290(13) -0.21032(17) 0.3171(2) 0.086(4) Uani 0.5 1 d G U P A -1
C73 C 0.33821(11) -0.17980(17) 0.39082(18) 0.067(3) Uani 0.5 1 d G U P A -1
C74 C 0.37023(9) -0.11237(19) 0.40341(15) 0.065(3) Uani 0.5 1 d G U P A -1
C75 C 0.34757(9) -0.0627(2) 0.45530(12) 0.073(4) Uani 0.5 1 d G U P A -1
C76 C 0.36880(9) 0.0169(2) 0.44855(12) 0.079(4) Uani 0.5 1 d G U P A -1
C77 C 0.33550(12) 0.0729(2) 0.48569(12) 0.097(5) Uani 0.5 1 d G U P A -1
C78 C 0.33532(13) 0.14707(19) 0.45528(16) 0.083(4) Uani 0.5 1 d G U P A -1
C79 C 0.36818(13) 0.16796(19) 0.39546(18) 0.076(4) Uani 0.5 1 d G U P A -1
C80 C 0.33768(14) 0.21146(17) 0.3401(2) 0.072(4) Uani 0.5 1 d G U P A -1
C81 C 0.36893(12) 0.17922(19) 0.26928(19) 0.048(3) Uani 0.5 1 d G U P A -1
C82 C 0.40302(9) 0.1191(2) 0.28163(17) 0.056(3) Uani 0.5 1 d G U P A -1
C83 C 0.41191(8) 0.0593(2) 0.22263(16) 0.072(4) Uani 0.5 1 d G U P A -1
C84 C 0.42334(6) -0.0086(2) 0.26214(16) 0.075(3) Uani 0.5 1 d G U P A -1
C85 C 0.42060(6) -0.0156(2) 0.33767(16) 0.072(3) Uani 0.5 1 d G U P A -1
C86 C 0.40158(7) -0.0886(2) 0.34593(16) 0.079(4) Uani 0.5 1 d G U P A -1
C87 C 0.40243(8) 0.0366(2) 0.39078(15) 0.070(3) Uani 0.5 1 d G U P A -1
C88 C 0.40361(10) 0.1136(2) 0.36376(17) 0.067(3) Uani 0.5 1 d G U P A -1
Ni1A Ni 0.03232(2) 0.0000 0.08542(3) 0.02034(17) Uani 1 2 d S T P B 2
C1A C -0.10188(17) -0.0894(2) 0.3150(2) 0.0359(9) Uani 1 1 d . . . B 2
H1AA H -0.1182 -0.1293 0.2872 0.043 Uiso 1 1 calc R U . B 2
H1AB H -0.1317 -0.0637 0.3391 0.043 Uiso 1 1 calc R U . B 2
N2A N 0.08369(17) 0.0000 0.0035(2) 0.0227(9) Uani 1 2 d S T P B 2
C2A C -0.07403(15) -0.0373(2) 0.2640(2) 0.0289(8) Uani 1 1 d . . . B 2
N3A N 0.03385(11) -0.10789(17) 0.08657(16) 0.0222(6) Uani 1 1 d . . . B 2
C3A C -0.02784(14) -0.1323(2) 0.1882(2) 0.0253(8) Uani 1 1 d . . . B 2
H3A H -0.0446 -0.1686 0.2159 0.030 Uiso 1 1 calc R U . B 2
C4A C 0.00672(14) -0.1543(2) 0.13346(19) 0.0237(7) Uani 1 1 d . . . B 2
N4A N -0.01764(17) 0.0000 0.1687(2) 0.0229(9) Uani 1 2 d S T P B 2
C5A C 0.01919(15) -0.2304(2) 0.1180(2) 0.0268(8) Uani 1 1 d . . . B 2
C6A C -0.00130(17) -0.2948(2) 0.1607(2) 0.0325(9) Uani 1 1 d . . . B 2
H6AA H 0.0000 -0.3385 0.1306 0.039 Uiso 1 1 calc R U . B 2
H6AB H -0.0397 -0.2864 0.1737 0.039 Uiso 1 1 calc R U . B 2
C7A C 0.0326(2) -0.3083(3) 0.2293(3) 0.0517(12) Uani 1 1 d . . . B 2
H7AA H 0.0702 -0.3194 0.2167 0.078 Uiso 1 1 calc R U . B 2
H7AB H 0.0171 -0.3489 0.2554 0.078 Uiso 1 1 calc R U . B 2
H7AC H 0.0319 -0.2651 0.2591 0.078 Uiso 1 1 calc R U . B 2
C8A C 0.05348(15) -0.2304(2) 0.0600(2) 0.0261(8) Uani 1 1 d . . . B 2
C9A C 0.07940(17) -0.2947(2) 0.0230(2) 0.0327(9) Uani 1 1 d . . . B 2
H9AA H 0.0810 -0.2850 -0.0285 0.039 Uiso 1 1 calc R U . B 2
H9AB H 0.0562 -0.3377 0.0299 0.039 Uiso 1 1 calc R U . B 2
C10A C 0.1376(2) -0.3111(3) 0.0511(3) 0.0554(14) Uani 1 1 d . . . B 2
H10A H 0.1512 -0.3551 0.0286 0.083 Uiso 1 1 calc R U . B 2
H10B H 0.1365 -0.3180 0.1025 0.083 Uiso 1 1 calc R U . B 2
H10C H 0.1616 -0.2708 0.0399 0.083 Uiso 1 1 calc R U . B 2
C11A C 0.06232(14) -0.1541(2) 0.04173(19) 0.0223(7) Uani 1 1 d . . . B 2
C12A C 0.09574(14) -0.1317(2) -0.01412(19) 0.0246(7) Uani 1 1 d . . . B 2
H12A H 0.1122 -0.1679 -0.0423 0.030 Uiso 1 1 calc R U . B 2
C13A C 0.10645(14) -0.0598(2) -0.03101(18) 0.0218(7) Uani 1 1 d . . . B 2
C14A C 0.14376(14) -0.0374(2) -0.08740(19) 0.0254(7) Uani 1 1 d . . . B 2
C15A C -0.03914(14) -0.0599(2) 0.20467(19) 0.0236(7) Uani 1 1 d . . . B 2
C16A C 0.17690(16) -0.0887(2) -0.1336(2) 0.0298(8) Uani 1 1 d . . . B 2
H16A H 0.1859 -0.0642 -0.1786 0.036 Uiso 1 1 calc R U . B 2
H16B H 0.1544 -0.1314 -0.1453 0.036 Uiso 1 1 calc R U . B 2
C17A C 0.23068(19) -0.1143(3) -0.0969(3) 0.0484(12) Uani 1 1 d . . . B 2
H17A H 0.2506 -0.1459 -0.1291 0.073 Uiso 1 1 calc R U . B 2
H17B H 0.2220 -0.1406 -0.0535 0.073 Uiso 1 1 calc R U . B 2
H17C H 0.2531 -0.0723 -0.0852 0.073 Uiso 1 1 calc R U . B 2
C18A C -0.0630(2) -0.1218(3) 0.3719(2) 0.0474(11) Uani 1 1 d . . . B 2
H18A H -0.0336 -0.1480 0.3485 0.071 Uiso 1 1 calc R U . B 2
H18B H -0.0833 -0.1549 0.4022 0.071 Uiso 1 1 calc R U . B 2
H18C H -0.0476 -0.0829 0.4008 0.071 Uiso 1 1 calc R U . B 2
C1B C 0.2673(5) 0.0000 0.7052(5) 0.081(3) Uani 1 2 d DS T P C 3
H1B H 0.2291 0.0000 0.7122 0.098 Uiso 1 2 calc R U P C 3
C2B C 0.2941(4) 0.0642(4) 0.7002(4) 0.094(2) Uani 1 1 d D . . C 3
H2B H 0.2748 0.1081 0.7058 0.113 Uiso 1 1 calc R U . C 3
C3B C 0.3498(4) 0.0651(5) 0.6870(5) 0.117(3) Uani 1 1 d D . . C 3
H3B H 0.3680 0.1099 0.6825 0.140 Uiso 1 1 calc R U . C 3
C4B C 0.3797(6) 0.0000 0.6801(8) 0.135(6) Uani 1 2 d DS T P C 3
H4B H 0.4176 0.0000 0.6715 0.162 Uiso 1 2 calc R U P C 3
C3C C 0.4805(3) 0.1147(6) 0.5315(6) 0.126(4) Uani 1 1 d . . . D 4
H3C H 0.4690 0.0707 0.5521 0.151 Uiso 1 1 calc R U . D 4
C4C C 0.4815(3) 0.2365(6) 0.5288(6) 0.117(4) Uani 1 1 d . . . D 4
H4C H 0.4703 0.2819 0.5467 0.141 Uiso 1 1 calc R U . D 4
C2C C 0.4623(3) 0.1806(6) 0.5581(4) 0.081(2) Uani 1 1 d . . . D 4
H2C H 0.4370 0.1834 0.5957 0.097 Uiso 1 1 calc R U . D 4
loop_
_atom_site_aniso_label
_atom_site_aniso_U_11
_atom_site_aniso_U_22
_atom_site_aniso_U_33
_atom_site_aniso_U_23
_atom_site_aniso_U_13
_atom_site_aniso_U_12
Lu1 0.0176(2) 0.0574(4) 0.0496(3) 0.000 0.0051(2) 0.000
Lu2 0.0315(4) 0.0287(4) 0.0489(5) -0.0088(3) -0.0144(3) -0.0057(3)
Lu3 0.080(3) 0.076(4) 0.036(2) -0.0014(18) -0.020(2) -0.009(2)
Lu4 0.049(2) 0.088(4) 0.103(4) 0.023(3) 0.029(2) 0.034(2)
Lu5 0.102(4) 0.126(5) 0.083(4) -0.058(4) 0.027(3) -0.061(4)
Lu6 0.079(3) 0.083(4) 0.152(6) 0.051(4) -0.001(4) 0.036(3)
Lu7 0.090(6) 0.174(9) 0.093(6) 0.000 -0.058(5) 0.000
Lu8 0.035(3) 0.340(15) 0.151(9) 0.000 -0.003(4) 0.000
Lu9 0.119(10) 0.145(12) 0.040(6) 0.000 0.005(7) 0.000
Lu10 0.093(10) 0.120(11) 0.030(6) 0.000 0.012(7) 0.000
Lu11 0.105(10) 0.104(10) 0.075(8) -0.041(8) -0.023(8) -0.005(9)
Lu12 0.111(8) 0.116(9) 0.049(5) -0.040(6) -0.009(5) 0.035(6)
Lu13 0.111(8) 0.094(6) 0.056(6) -0.003(5) 0.052(6) -0.035(6)
Lu14 0.110(13) 0.057(10) 0.131(14) 0.018(10) 0.050(12) -0.036(10)
Lu15 0.103(9) 0.102(9) 0.046(6) -0.028(7) 0.018(7) -0.029(7)
Lu16 0.098(10) 0.106(10) 0.029(7) -0.029(8) -0.017(8) -0.001(9)
C1 0.060(8) 0.062(8) 0.157(11) -0.013(9) -0.064(8) -0.017(7)
C2 0.027(6) 0.126(10) 0.114(10) -0.029(9) -0.010(6) -0.020(7)
C3 0.047(7) 0.159(13) 0.076(7) -0.013(8) 0.008(6) 0.013(8)
C4 0.022(5) 0.155(11) 0.057(6) -0.016(7) 0.012(5) 0.021(6)
C5 0.044(5) 0.104(9) 0.111(8) -0.031(10) -0.038(5) 0.015(8)
C6 0.097(10) 0.075(10) 0.133(11) -0.036(9) -0.074(9) 0.015(9)
C7 0.105(10) 0.082(9) 0.111(10) -0.050(9) -0.069(9) 0.004(8)
C8 0.076(8) 0.059(7) 0.047(6) 0.012(6) -0.033(6) -0.009(6)
C9 0.050(9) 0.093(11) 0.147(13) -0.033(11) -0.040(10) -0.017(8)
C10 0.023(4) 0.036(5) 0.119(9) 0.022(6) -0.015(5) -0.013(4)
C11 0.057(7) 0.077(8) 0.116(10) 0.037(8) -0.005(8) -0.035(6)
C12 0.033(6) 0.098(10) 0.124(11) 0.019(9) 0.019(7) 0.004(6)
C13 0.062(8) 0.166(14) 0.066(8) 0.022(9) 0.023(7) -0.027(8)
C14 0.058(6) 0.142(15) 0.072(7) -0.009(7) 0.041(6) 0.008(7)
C15 0.059(8) 0.186(14) 0.076(8) -0.018(10) 0.018(7) 0.048(9)
C16 0.087(11) 0.158(14) 0.120(11) -0.041(11) 0.013(9) 0.079(10)
C17 0.098(10) 0.150(12) 0.108(10) -0.030(10) -0.022(9) 0.074(9)
C18 0.060(9) 0.115(12) 0.092(10) -0.026(10) -0.018(9) 0.059(9)
C19 0.049(7) 0.075(9) 0.049(6) 0.019(6) -0.014(5) 0.015(6)
C20 0.052(4) 0.071(6) 0.071(5) -0.025(10) -0.044(4) 0.001(11)
C21 0.120(11) 0.068(8) 0.057(8) 0.024(6) -0.041(8) 0.005(8)
C22 0.095(7) 0.089(8) 0.037(4) -0.013(7) -0.016(4) 0.003(9)
C23 0.100(10) 0.098(9) 0.079(9) -0.073(7) -0.043(8) 0.047(8)
C24 0.143(12) 0.101(11) 0.055(7) -0.057(8) 0.016(8) 0.023(9)
C25 0.122(11) 0.070(10) 0.060(7) -0.021(7) -0.003(8) 0.008(9)
C26 0.066(7) 0.065(8) 0.085(8) -0.027(6) -0.024(6) 0.011(6)
C27 0.076(8) 0.037(6) 0.120(10) -0.004(7) -0.029(7) 0.009(6)
C28 0.043(6) 0.038(6) 0.113(10) 0.025(6) 0.004(6) -0.012(5)
C29 0.074(8) 0.036(6) 0.134(11) 0.036(7) -0.028(8) -0.022(6)
C30 0.052(7) 0.065(8) 0.113(10) 0.054(8) 0.016(7) -0.014(6)
C31 0.080(8) 0.106(10) 0.098(10) 0.071(8) 0.010(8) -0.023(8)
C32 0.097(10) 0.138(13) 0.051(8) 0.026(8) 0.019(8) -0.031(10)
C33 0.099(8) 0.154(14) 0.039(5) -0.020(7) 0.015(5) -0.015(9)
C34 0.080(9) 0.154(12) 0.056(8) -0.023(8) 0.028(7) 0.032(9)
C35 0.132(13) 0.152(14) 0.093(11) -0.044(11) 0.016(10) 0.048(12)
C36 0.128(12) 0.142(13) 0.078(10) -0.053(10) -0.009(9) 0.071(11)
C37 0.137(13) 0.097(12) 0.102(11) -0.058(10) 0.003(10) 0.044(11)
C38 0.132(13) 0.096(12) 0.140(12) -0.029(10) -0.011(11) 0.063(11)
C39 0.142(13) 0.051(8) 0.140(13) 0.000(9) -0.001(11) 0.055(9)
C40 0.122(11) 0.065(9) 0.124(12) 0.030(8) -0.047(9) 0.035(9)
C41 0.125(12) 0.071(9) 0.120(11) 0.069(8) -0.024(10) -0.001(10)
C42 0.140(11) 0.080(8) 0.076(9) 0.068(8) -0.027(8) -0.038(9)
C43 0.096(9) 0.101(9) 0.050(7) 0.046(7) -0.002(7) -0.048(8)
C44 0.099(8) 0.100(9) 0.040(5) 0.006(5) 0.023(6) -0.011(7)
C45 0.112(9) 0.117(11) 0.031(5) -0.017(5) -0.001(6) 0.017(8)
C46 0.145(12) 0.106(11) 0.053(8) -0.035(8) 0.027(9) 0.013(10)
C47 0.123(11) 0.098(11) 0.068(9) -0.013(9) 0.034(9) 0.031(10)
C48 0.126(12) 0.076(10) 0.095(9) -0.014(9) 0.053(9) 0.030(9)
C49 0.099(11) 0.054(8) 0.089(9) -0.032(7) 0.010(8) 0.013(8)
C50 0.085(8) 0.030(6) 0.093(9) -0.006(6) 0.009(7) 0.003(6)
C51 0.084(9) 0.038(7) 0.112(10) -0.009(7) -0.018(8) 0.015(7)
C52 0.075(7) 0.033(6) 0.110(10) 0.032(7) 0.016(7) -0.007(6)
C53 0.073(7) 0.048(6) 0.092(9) 0.038(6) -0.033(7) 0.006(6)
C54 0.081(8) 0.075(8) 0.092(9) 0.048(8) -0.023(7) 0.013(7)
C55 0.081(8) 0.106(10) 0.056(7) 0.016(7) -0.021(7) -0.006(8)
C56 0.112(9) 0.140(12) 0.043(5) -0.010(10) -0.013(5) 0.009(12)
C57 0.116(11) 0.159(14) 0.045(8) -0.021(9) -0.023(7) 0.010(11)
C58 0.153(13) 0.155(13) 0.052(8) -0.045(8) -0.004(8) 0.052(11)
C59 0.118(11) 0.093(11) 0.069(9) -0.058(8) -0.019(8) 0.004(9)
C60 0.147(12) 0.072(9) 0.107(10) -0.057(9) -0.005(10) 0.012(10)
C61 0.135(12) 0.038(7) 0.109(11) -0.040(7) -0.003(9) -0.015(8)
C62 0.147(13) 0.033(7) 0.151(13) 0.001(8) -0.027(11) 0.007(9)
C63 0.121(12) 0.032(7) 0.119(11) 0.035(7) -0.001(9) 0.000(8)
C64 0.079(9) 0.050(7) 0.072(7) 0.020(6) -0.003(7) -0.013(6)
C65 0.069(7) 0.085(9) 0.081(9) 0.040(8) 0.030(7) -0.022(7)
C66 0.068(8) 0.091(9) 0.077(9) 0.031(7) 0.021(8) -0.013(7)
C67 0.084(7) 0.103(11) 0.064(6) 0.001(7) 0.042(5) -0.011(8)
C68 0.090(10) 0.094(9) 0.072(9) 0.014(8) 0.049(8) 0.019(8)
C69 0.074(9) 0.088(9) 0.096(9) 0.012(9) 0.031(8) 0.058(8)
C70 0.088(10) 0.090(9) 0.116(11) 0.001(9) 0.023(9) 0.058(8)
C71 0.120(11) 0.083(10) 0.122(11) -0.023(10) 0.030(11) 0.055(9)
C72 0.087(9) 0.055(8) 0.115(9) -0.006(7) 0.025(8) 0.045(7)
C73 0.054(7) 0.064(7) 0.084(8) 0.013(6) -0.034(6) 0.024(6)
C74 0.042(6) 0.077(7) 0.076(7) 0.005(6) -0.023(5) 0.028(6)
C75 0.066(7) 0.102(10) 0.050(7) -0.019(7) -0.026(6) 0.006(7)
C76 0.067(6) 0.109(13) 0.062(6) -0.005(6) -0.028(5) 0.000(7)
C77 0.086(9) 0.156(12) 0.049(8) -0.023(8) -0.028(7) 0.007(10)
C78 0.093(8) 0.089(8) 0.066(7) -0.036(7) -0.029(7) 0.002(7)
C79 0.076(9) 0.067(8) 0.083(8) -0.010(7) -0.022(7) -0.025(7)
C80 0.095(10) 0.031(6) 0.089(8) -0.008(6) -0.018(7) -0.006(7)
C81 0.038(5) 0.038(6) 0.068(7) 0.019(5) -0.007(5) -0.006(5)
C82 0.032(5) 0.060(7) 0.077(8) 0.016(6) -0.001(6) -0.003(6)
C83 0.050(7) 0.093(9) 0.074(8) 0.026(8) 0.020(6) 0.009(7)
C84 0.056(5) 0.085(7) 0.084(6) 0.009(8) 0.010(5) 0.035(7)
C85 0.040(4) 0.082(8) 0.094(6) 0.023(6) -0.003(4) 0.025(5)
C86 0.047(6) 0.085(8) 0.104(8) 0.026(7) -0.022(6) 0.042(6)
C87 0.042(5) 0.084(7) 0.085(7) -0.007(6) -0.017(5) -0.003(5)
C88 0.040(6) 0.067(7) 0.093(8) -0.012(6) -0.028(6) -0.030(5)
Ni1A 0.0163(3) 0.0206(3) 0.0241(3) 0.000 0.0008(2) 0.000
C1A 0.032(2) 0.036(2) 0.040(2) 0.0011(18) 0.0136(17) -0.0011(18)
N2A 0.017(2) 0.023(2) 0.028(2) 0.000 -0.0003(17) 0.000
C2A 0.0229(18) 0.033(2) 0.0306(19) 0.0011(16) 0.0028(15) -0.0010(16)
N3A 0.0180(14) 0.0233(15) 0.0253(15) -0.0001(12) -0.0015(11) 0.0002(12)
C3A 0.0226(17) 0.0245(19) 0.0287(18) 0.0050(15) 0.0003(14) -0.0031(14)
C4A 0.0205(17) 0.0232(18) 0.0274(18) 0.0015(15) -0.0023(14) -0.0020(14)
N4A 0.019(2) 0.023(2) 0.026(2) 0.000 -0.0020(17) 0.000
C5A 0.0225(17) 0.0246(19) 0.0332(19) 0.0011(15) -0.0035(15) -0.0021(15)
C6A 0.037(2) 0.0207(19) 0.040(2) 0.0009(16) 0.0039(17) -0.0022(16)
C7A 0.055(3) 0.048(3) 0.052(3) 0.019(2) -0.005(2) -0.008(2)
C8A 0.0229(18) 0.0240(19) 0.0312(19) 0.0013(15) -0.0027(15) -0.0001(15)
C9A 0.035(2) 0.0231(19) 0.040(2) 0.0001(17) 0.0031(17) 0.0016(16)
C10A 0.052(3) 0.064(3) 0.050(3) -0.013(2) -0.003(2) 0.032(3)
C11A 0.0175(16) 0.0234(18) 0.0260(17) -0.0007(14) -0.0043(13) 0.0001(14)
C12A 0.0207(17) 0.0260(19) 0.0272(18) -0.0038(15) -0.0007(14) 0.0016(14)
C13A 0.0183(16) 0.0249(18) 0.0221(17) -0.0029(14) -0.0020(13) -0.0011(14)
C14A 0.0190(17) 0.0314(19) 0.0258(18) -0.0005(15) 0.0005(14) 0.0025(15)
C15A 0.0177(16) 0.0291(19) 0.0239(17) -0.0003(15) 0.0030(13) -0.0003(14)
C16A 0.0281(19) 0.031(2) 0.0301(19) -0.0030(16) 0.0067(15) 0.0025(16)
C17A 0.034(2) 0.050(3) 0.061(3) -0.012(2) -0.001(2) 0.014(2)
C18A 0.054(3) 0.049(3) 0.039(2) 0.011(2) 0.013(2) 0.004(2)
C1B 0.100(8) 0.078(7) 0.066(6) 0.000 0.037(5) 0.000
C2B 0.133(7) 0.054(4) 0.095(5) -0.009(4) 0.020(5) -0.003(4)
C3B 0.139(9) 0.093(6) 0.118(7) 0.017(6) -0.017(6) -0.061(6)
C4B 0.084(9) 0.22(2) 0.098(10) 0.000 0.006(7) 0.000
C3C 0.085(6) 0.128(7) 0.164(11) 0.083(7) -0.068(6) -0.044(5)
C4C 0.072(6) 0.105(7) 0.175(11) -0.056(7) -0.009(5) 0.011(5)
C2C 0.057(4) 0.132(7) 0.054(4) -0.007(4) 0.005(3) -0.010(5)
loop_
_atom_type_symbol
_atom_type_description
_atom_type_scat_dispersion_real
_atom_type_scat_dispersion_imag
_atom_type_scat_source
C C 0.0027 0.0014 'International Tables Vol C Tables 4.2.6.8 and 6.1.1.4'
H H 0.0000 0.0000 'International Tables Vol C Tables 4.2.6.8 and 6.1.1.4'
N N 0.0053 0.0028 'International Tables Vol C Tables 4.2.6.8 and 6.1.1.4'
S S 0.1098 0.1057 'International Tables Vol C Tables 4.2.6.8 and 6.1.1.4'
Ni Ni 0.3436 0.9622 'International Tables Vol C Tables 4.2.6.8 and 6.1.1.4'
Lu Lu -0.2922 5.1425 'International Tables Vol C Tables 4.2.6.8 and 6.1.1.4'
loop_
_geom_angle_atom_site_label_1
_geom_angle_atom_site_label_2
_geom_angle_atom_site_label_3
_geom_angle
_geom_angle_site_symmetry_1
_geom_angle_site_symmetry_3
Lu4 Lu1 Lu4 150.5(4) 6 .
Lu4 Lu1 Lu13 104.2(6) 6 6
Lu4 Lu1 Lu13 52.4(6) . 6
Lu4 Lu1 Lu13 52.4(6) 6 .
Lu4 Lu1 Lu13 104.2(6) . .
Lu13 Lu1 Lu13 52.5(11) 6 .
Lu4 Lu1 Lu9 77.0(3) 6 .
Lu4 Lu1 Lu9 77.0(3) . .
Lu13 Lu1 Lu9 27.6(5) 6 .
Lu13 Lu1 Lu9 27.6(5) . .
Lu4 Lu1 Lu6 135.4(3) 6 .
Lu4 Lu1 Lu6 35.5(3) . .
Lu13 Lu1 Lu6 79.6(5) 6 .
Lu13 Lu1 Lu6 121.2(5) . .
Lu9 Lu1 Lu6 95.6(4) . .
Lu4 Lu1 Lu6 35.5(3) 6 6
Lu4 Lu1 Lu6 135.4(3) . 6
Lu13 Lu1 Lu6 121.2(5) 6 6
Lu13 Lu1 Lu6 79.6(5) . 6
Lu9 Lu1 Lu6 95.6(4) . 6
Lu6 Lu1 Lu6 104.2(4) . 6
Lu4 Lu1 C3 118.1(2) 6 .
Lu4 Lu1 C3 90.0(2) . .
Lu13 Lu1 C3 113.7(4) 6 .
Lu13 Lu1 C3 128.1(4) . .
Lu9 Lu1 C3 133.0(5) . .
Lu6 Lu1 C3 99.22(18) . .
Lu6 Lu1 C3 122.96(18) 6 .
Lu4 Lu1 C2 85.4(2) 6 .
Lu4 Lu1 C2 123.7(2) . .
Lu13 Lu1 C2 137.8(4) 6 .
Lu13 Lu1 C2 116.7(5) . .
Lu9 Lu1 C2 139.3(5) . .
Lu6 Lu1 C2 121.80(18) . .
Lu6 Lu1 C2 90.50(17) 6 .
C3 Lu1 C2 34.3 . .
Lu4 Lu1 Lu15 56.7(7) 6 6
Lu4 Lu1 Lu15 95.2(7) . 6
Lu13 Lu1 Lu15 49.3(7) 6 6
Lu13 Lu1 Lu15 19.2(6) . 6
Lu9 Lu1 Lu15 22.0(6) . 6
Lu6 Lu1 Lu15 104.2(6) . 6
Lu6 Lu1 Lu15 74.0(6) 6 6
C3 Lu1 Lu15 146.4(5) . 6
C2 Lu1 Lu15 133.9(6) . 6
Lu4 Lu1 Lu15 95.2(7) 6 .
Lu4 Lu1 Lu15 56.7(7) . .
Lu13 Lu1 Lu15 19.2(6) 6 .
Lu13 Lu1 Lu15 49.3(7) . .
Lu9 Lu1 Lu15 22.0(6) . .
Lu6 Lu1 Lu15 74.0(6) . .
Lu6 Lu1 Lu15 104.2(6) 6 .
C3 Lu1 Lu15 132.2(5) . .
C2 Lu1 Lu15 155.5(5) . .
Lu15 Lu1 Lu15 38.6(13) 6 .
Lu4 Lu1 C15 126.2(2) 6 .
Lu4 Lu1 C15 72.9(2) . .
Lu13 Lu1 C15 81.8(4) 6 .
Lu13 Lu1 C15 105.2(4) . .
Lu9 Lu1 C15 101.6(5) . .
Lu6 Lu1 C15 98.3(2) . .
Lu6 Lu1 C15 150.10(18) 6 .
C3 Lu1 C15 32.2 . .
C2 Lu1 C15 60.7 . .
Lu15 Lu1 C15 119.2(5) 6 .
Lu15 Lu1 C15 100.7(5) . .
Lu5 Lu2 Lu14 121.4(10) . .
Lu5 Lu2 Lu7 83.4(8) . .
Lu14 Lu2 Lu7 112.5(8) . .
Lu5 Lu2 Lu15 26.6(10) . .
Lu14 Lu2 Lu15 127.6(10) . .
Lu7 Lu2 Lu15 56.8(10) . .
Lu5 Lu2 Lu8 128.2(5) . .
Lu14 Lu2 Lu8 66.5(9) . .
Lu7 Lu2 Lu8 52.2(6) . .
Lu15 Lu2 Lu8 104.1(8) . .
Lu5 Lu2 C79 111.1(4) . .
Lu14 Lu2 C79 111.6(7) . .
Lu7 Lu2 C79 114.0(3) . .
Lu15 Lu2 C79 119.3(6) . .
Lu8 Lu2 C79 110.9(2) . .
Lu5 Lu2 C78 78.1(4) . .
Lu14 Lu2 C78 144.8(7) . .
Lu7 Lu2 C78 97.8(4) . .
Lu15 Lu2 C78 83.7(6) . .
Lu8 Lu2 C78 127.2(3) . .
C79 Lu2 C78 35.7 . .
Lu5 Lu2 C80 111.0(5) . .
Lu14 Lu2 C80 83.0(7) . .
Lu7 Lu2 C80 150.1(4) . .
Lu15 Lu2 C80 133.9(7) . .
Lu8 Lu2 C80 120.8(2) . .
C79 Lu2 C80 36.9 . .
C78 Lu2 C80 61.98(6) . .
Lu5 Lu2 C88 137.6(5) . .
Lu14 Lu2 C88 99.3(8) . .
Lu7 Lu2 C88 92.0(4) . .
Lu15 Lu2 C88 129.8(8) . .
Lu8 Lu2 C88 76.4(2) . .
C79 Lu2 C88 34.5 . .
C78 Lu2 C88 60.7 . .
C80 Lu2 C88 59.36(5) . .
Lu5 Lu2 Lu11 82.8(8) . 6
Lu14 Lu2 Lu11 38.7(10) . 6
Lu7 Lu2 Lu11 111.4(6) . 6
Lu15 Lu2 Lu11 93.2(9) . 6
Lu8 Lu2 Lu11 89.6(6) . 6
C79 Lu2 Lu11 133.6(5) . 6
C78 Lu2 Lu11 142.8(6) . 6
C80 Lu2 Lu11 96.7(5) . 6
C88 Lu2 Lu11 136.7(5) . 6
Lu5 Lu2 C77 71.4(5) . .
Lu14 Lu2 C77 167.0(9) . .
Lu7 Lu2 C77 64.5(4) . .
Lu15 Lu2 C77 62.6(7) . .
Lu8 Lu2 C77 104.5(3) . .
C79 Lu2 C77 61.53(5) . .
C78 Lu2 C77 33.6 . .
C80 Lu2 C77 94.47(8) . .
C88 Lu2 C77 68.68(5) . .
Lu11 Lu2 C77 154.1(6) 6 .
Lu5 Lu2 C59 51.5(4) . .
Lu14 Lu2 C59 137.0(8) . .
Lu7 Lu2 C59 108.6(5) . .
Lu15 Lu2 C59 67.7(6) . .
Lu8 Lu2 C59 155.8(3) . .
C79 Lu2 C59 59.94(6) . .
C78 Lu2 C59 32.3 . .
C80 Lu2 C59 66.97(7) . .
C88 Lu2 C59 91.33(7) . .
Lu11 Lu2 C59 113.1(6) 6 .
C77 Lu2 C59 51.3 . .
Lu12 Lu3 Lu3 137.6(12) . 6
Lu12 Lu3 Lu16 89(2) . .
Lu3 Lu3 Lu16 106.3(17) 6 .
Lu12 Lu3 Lu10 75.8(14) . .
Lu3 Lu3 Lu10 65.2(7) 6 .
Lu16 Lu3 Lu10 134.7(15) . .
Lu12 Lu3 Lu16 133.8(12) . 6
Lu3 Lu3 Lu16 40.3(10) 6 6
Lu16 Lu3 Lu16 66(3) . 6
Lu10 Lu3 Lu16 94.3(13) . 6
Lu12 Lu3 Lu12 117.7(17) . 6
Lu3 Lu3 Lu12 19.9(5) 6 6
Lu16 Lu3 Lu12 111.1(17) . 6
Lu10 Lu3 Lu12 47.6(9) . 6
Lu16 Lu3 Lu12 49.3(12) 6 6
Lu12 Lu3 Lu11 54.7(14) . .
Lu3 Lu3 Lu11 137.4(6) 6 .
Lu16 Lu3 Lu11 35.8(18) . .
Lu10 Lu3 Lu11 121.8(11) . .
Lu16 Lu3 Lu11 98.9(11) 6 .
Lu12 Lu3 Lu11 132.4(8) 6 .
Lu12 Lu3 Lu14 15.0(10) . 6
Lu3 Lu3 Lu14 130.0(8) 6 6
Lu16 Lu3 Lu14 79.0(18) . 6
Lu10 Lu3 Lu14 76.2(11) . 6
Lu16 Lu3 Lu14 118.9(9) 6 6
Lu12 Lu3 Lu14 110.9(9) 6 6
Lu11 Lu3 Lu14 47.9(10) . 6
Lu12 Lu3 C22 129.9(10) . .
Lu3 Lu3 C22 82.60(19) 6 .
Lu16 Lu3 C22 109.3(13) . .
Lu10 Lu3 C22 113.1(10) . .
Lu16 Lu3 C22 95.7(8) 6 .
Lu12 Lu3 C22 98.9(4) 6 .
Lu11 Lu3 C22 121.5(5) . .
Lu14 Lu3 C22 143.9(7) 6 .
Lu12 Lu3 C45 100.3(11) . .
Lu3 Lu3 C45 92.12(18) 6 .
Lu16 Lu3 C45 140.8(11) . .
Lu10 Lu3 C45 84.3(9) . .
Lu16 Lu3 C45 123.9(8) 6 .
Lu12 Lu3 C45 98.0(5) 6 .
Lu11 Lu3 C45 129.1(6) . .
Lu14 Lu3 C45 115.1(7) 6 .
C22 Lu3 C45 38.08(9) . .
Lu12 Lu3 C23 103.2(11) . .
Lu3 Lu3 C23 117.96(17) 6 .
Lu16 Lu3 C23 80.9(11) . .
Lu10 Lu3 C23 143.8(9) . .
Lu16 Lu3 C23 109.8(10) 6 .
Lu12 Lu3 C23 137.0(4) 6 .
Lu11 Lu3 C23 81.8(5) . .
Lu14 Lu3 C23 112.0(8) 6 .
C22 Lu3 C23 40.22(8) . .
C45 Lu3 C23 59.96(12) . .
Lu12 Lu3 C46 72.1(10) . .
Lu3 Lu3 C46 119.98(17) 6 .
Lu16 Lu3 C46 128.6(15) . .
Lu10 Lu3 C46 87.4(8) . .
Lu16 Lu3 C46 153.6(7) 6 .
Lu12 Lu3 C46 120.1(7) 6 .
Lu11 Lu3 C46 102.6(7) . .
Lu14 Lu3 C46 87.1(6) 6 .
C22 Lu3 C46 59.79(14) . .
C45 Lu3 C46 29.99(8) . .
C23 Lu3 C46 59.03(13) . .
Lu1 Lu4 Lu13 75.6(7) . 6
Lu1 Lu4 Lu6 113.7(6) . .
Lu13 Lu4 Lu6 135.3(7) 6 .
Lu1 Lu4 Lu15 94.1(8) . .
Lu13 Lu4 Lu15 29.4(8) 6 .
Lu6 Lu4 Lu15 107.0(7) . .
Lu1 Lu4 Lu13 42.5(5) . .
Lu13 Lu4 Lu13 34.0(8) 6 .
Lu6 Lu4 Lu13 130.3(4) . .
Lu15 Lu4 Lu13 53.1(7) . .
Lu1 Lu4 Lu9 70.0(4) . .
Lu13 Lu4 Lu9 14.4(6) 6 .
Lu6 Lu4 Lu9 124.3(6) . .
Lu15 Lu4 Lu9 25.7(6) . .
Lu13 Lu4 Lu9 27.8(4) . .
Lu1 Lu4 C16 110.0(3) . .
Lu13 Lu4 C16 102.6(5) 6 .
Lu6 Lu4 C16 113.1(4) . .
Lu15 Lu4 C16 117.6(6) . .
Lu13 Lu4 C16 116.3(4) . .
Lu9 Lu4 C16 116.8(5) . .
Lu1 Lu4 C17 115.7(3) . .
Lu13 Lu4 C17 137.2(6) 6 .
Lu6 Lu4 C17 80.5(3) . .
Lu15 Lu4 C17 143.8(7) . .
Lu13 Lu4 C17 144.8(4) . .
Lu9 Lu4 C17 151.5(5) . .
C16 Lu4 C17 34.81(7) . .
Lu1 Lu4 Lu5 116.2(3) . .
Lu13 Lu4 Lu5 59.8(7) 6 .
Lu6 Lu4 Lu5 78.4(4) . .
Lu15 Lu4 Lu5 30.6(7) . .
Lu13 Lu4 Lu5 80.5(5) . .
Lu9 Lu4 Lu5 55.3(6) . .
C16 Lu4 Lu5 121.8(3) . .
C17 Lu4 Lu5 128.2(4) . .
Lu1 Lu4 Lu11 110.6(7) . 6
Lu13 Lu4 Lu11 122.1(8) 6 6
Lu6 Lu4 Lu11 13.5(5) . 6
Lu15 Lu4 Lu11 94.5(8) . 6
Lu13 Lu4 Lu11 118.6(6) . 6
Lu9 Lu4 Lu11 110.8(7) . 6
C16 Lu4 Lu11 125.1(6) . 6
C17 Lu4 Lu11 93.7(5) . 6
Lu5 Lu4 Lu11 67.4(5) . 6
Lu1 Lu4 Lu4 14.7(2) . 6
Lu13 Lu4 Lu4 65.0(7) 6 6
Lu6 Lu4 Lu4 113.1(4) . 6
Lu15 Lu4 Lu4 80.2(7) . 6
Lu13 Lu4 Lu4 31.1(4) . 6
Lu9 Lu4 Lu4 57.3(4) . 6
C16 Lu4 Lu4 121.17(19) . 6
C17 Lu4 Lu4 130.41(19) . 6
Lu5 Lu4 Lu4 101.4(2) . 6
Lu11 Lu4 Lu4 106.6(6) 6 6
Lu1 Lu4 C15 78.5(2) . .
Lu13 Lu4 C15 89.8(6) 6 .
Lu6 Lu4 C15 134.5(4) . .
Lu15 Lu4 C15 116.0(6) . .
Lu13 Lu4 C15 89.3(4) . .
Lu9 Lu4 C15 101.2(6) . .
C16 Lu4 C15 32.07(6) . .
C17 Lu4 C15 56.03(9) . .
Lu5 Lu4 C15 137.8(3) . .
Lu11 Lu4 C15 147.9(5) 6 .
Lu4 Lu4 C15 89.09(17) 6 .
Lu2 Lu5 Lu15 134.9(16) . .
Lu2 Lu5 Lu7 69.7(7) . .
Lu15 Lu5 Lu7 65.2(14) . .
Lu2 Lu5 Lu13 146.9(6) . 6
Lu15 Lu5 Lu13 31.9(13) . 6
Lu7 Lu5 Lu13 87.2(7) . 6
Lu2 Lu5 Lu9 129.2(9) . .
Lu15 Lu5 Lu9 10.8(10) . .
Lu7 Lu5 Lu9 60.7(8) . .
Lu13 Lu5 Lu9 29.2(6) 6 .
Lu2 Lu5 C59 111.6(5) . .
Lu15 Lu5 C59 94.2(10) . .
Lu7 Lu5 C59 124.4(5) . .
Lu13 Lu5 C59 101.0(4) 6 .
Lu9 Lu5 C59 104.9(5) . .
Lu2 Lu5 Lu14 40.3(8) . .
Lu15 Lu5 Lu14 135.3(11) . .
Lu7 Lu5 Lu14 88.0(8) . .
Lu13 Lu5 Lu14 118.9(8) 6 .
Lu9 Lu5 Lu14 124.5(7) . .
C59 Lu5 Lu14 130.3(7) . .
Lu2 Lu5 Lu4 132.4(6) . .
Lu15 Lu5 Lu4 63.4(12) . .
Lu7 Lu5 Lu4 106.0(5) . .
Lu13 Lu5 Lu4 31.7(5) 6 .
Lu9 Lu5 Lu4 58.8(7) . .
C59 Lu5 Lu4 108.9(4) . .
Lu14 Lu5 Lu4 93.6(8) . .
Lu2 Lu5 C78 81.3(4) . .
Lu15 Lu5 C78 103.0(10) . .
Lu7 Lu5 C78 95.7(5) . .
Lu13 Lu5 C78 125.8(5) 6 .
Lu9 Lu5 C78 112.6(6) . .
C59 Lu5 C78 36.42(9) . .
Lu14 Lu5 C78 115.3(7) . .
Lu4 Lu5 C78 144.4(4) . .
Lu2 Lu5 Lu6 102.3(6) . .
Lu15 Lu5 Lu6 94.9(12) . .
Lu7 Lu5 Lu6 113.0(4) . .
Lu13 Lu5 Lu6 64.4(5) 6 .
Lu9 Lu5 Lu6 88.0(6) . .
C59 Lu5 Lu6 120.1(4) . .
Lu14 Lu5 Lu6 62.1(8) . .
Lu4 Lu5 Lu6 33.5(2) . .
C78 Lu5 Lu6 150.6(4) . .
Lu2 Lu5 C60 108.4(6) . .
Lu15 Lu5 C60 113.3(12) . .
Lu7 Lu5 C60 158.2(5) . .
Lu13 Lu5 C60 101.7(5) 6 .
Lu9 Lu5 C60 121.6(5) . .
C59 Lu5 C60 34.67(11) . .
Lu14 Lu5 C60 104.4(7) . .
Lu4 Lu5 C60 91.2(3) . .
C78 Lu5 C60 62.84(15) . .
Lu6 Lu5 C60 88.7(4) . .
Lu2 Lu5 C77 90.2(6) . .
Lu15 Lu5 C77 72.8(12) . .
Lu7 Lu5 C77 67.0(4) . .
Lu13 Lu5 C77 102.6(5) 6 .
Lu9 Lu5 C77 80.6(6) . .
C59 Lu5 C77 57.56(15) . .
Lu14 Lu5 C77 130.4(8) . .
Lu4 Lu5 C77 133.3(4) . .
C78 Lu5 C77 35.19(11) . .
Lu6 Lu5 C77 166.7(4) . .
C60 Lu5 C77 91.54(19) . .
Lu11 Lu6 Lu4 148.7(11) 6 .
Lu11 Lu6 Lu16 46.4(15) 6 6
Lu4 Lu6 Lu16 120.6(9) . 6
Lu11 Lu6 Lu1 133.3(13) 6 .
Lu4 Lu6 Lu1 30.7(3) . .
Lu16 Lu6 Lu1 92.1(9) 6 .
Lu11 Lu6 C19 82.4(10) 6 .
Lu4 Lu6 C19 127.9(4) . .
Lu16 Lu6 C19 83.9(8) 6 .
Lu1 Lu6 C19 118.9(3) . .
Lu11 Lu6 C18 118.3(11) 6 .
Lu4 Lu6 C18 92.6(4) . .
Lu16 Lu6 C18 110.4(9) 6 .
Lu1 Lu6 C18 93.0(3) . .
C19 Lu6 C18 36.10(9) . .
Lu11 Lu6 C40 69.4(11) 6 .
Lu4 Lu6 C40 139.3(5) . .
Lu16 Lu6 C40 96.8(8) 6 .
Lu1 Lu6 C40 149.9(3) . .
C19 Lu6 C40 34.69(9) . .
C18 Lu6 C40 56.97(13) . .
Lu11 Lu6 Lu13 128.2(11) 6 6
Lu4 Lu6 Lu13 20.9(4) . 6
Lu16 Lu6 Lu13 111.5(8) 6 6
Lu1 Lu6 Lu13 37.6(4) . 6
C19 Lu6 Lu13 148.8(5) . 6
C18 Lu6 Lu13 113.4(5) . 6
C40 Lu6 Lu13 151.4(5) . 6
Lu11 Lu6 C38 117.5(13) 6 .
Lu4 Lu6 C38 84.3(4) . .
Lu16 Lu6 C38 152.6(8) 6 .
Lu1 Lu6 C38 108.9(3) . .
C19 Lu6 C38 70.77(15) . .
C18 Lu6 C38 52.87(13) . .
C40 Lu6 C38 56.34(13) . .
Lu13 Lu6 C38 95.7(4) 6 .
Lu11 Lu6 Lu14 30.1(12) 6 .
Lu4 Lu6 Lu14 120.1(8) . .
Lu16 Lu6 Lu14 58.8(12) 6 .
Lu1 Lu6 Lu14 117.3(6) . .
C19 Lu6 Lu14 111.9(8) . .
C18 Lu6 Lu14 147.0(7) . .
C40 Lu6 Lu14 91.7(6) . .
Lu13 Lu6 Lu14 99.2(8) 6 .
C38 Lu6 Lu14 121.0(6) . .
Lu11 Lu6 Lu5 85.4(11) 6 .
Lu4 Lu6 Lu5 68.1(4) . .
Lu16 Lu6 Lu5 100.6(9) 6 .
Lu1 Lu6 Lu5 82.5(3) . .
C19 Lu6 Lu5 158.1(4) . .
C18 Lu6 Lu5 148.9(4) . .
C40 Lu6 Lu5 123.6(4) . .
Lu13 Lu6 Lu5 48.8(4) 6 .
C38 Lu6 Lu5 99.4(4) . .
Lu14 Lu6 Lu5 55.5(8) . .
Lu11 Lu6 C17 143.8(11) 6 .
Lu4 Lu6 C17 66.3(3) . .
Lu16 Lu6 C17 142.3(10) 6 .
Lu1 Lu6 C17 81.1(3) . .
C19 Lu6 C17 67.95(15) . .
C18 Lu6 C17 34.23(9) . .
C40 Lu6 C17 74.37(15) . .
Lu13 Lu6 C17 85.1(4) 6 .
C38 Lu6 C17 33.81(9) . .
Lu14 Lu6 C17 154.7(7) . .
Lu5 Lu6 C17 115.0(4) . .
Lu15 Lu7 Lu15 56.8(18) . 6
Lu15 Lu7 Lu2 118.9(10) . 6
Lu15 Lu7 Lu2 65.4(9) 6 6
Lu15 Lu7 Lu2 65.4(9) . .
Lu15 Lu7 Lu2 119.0(10) 6 .
Lu2 Lu7 Lu2 142.2(7) 6 .
Lu15 Lu7 Lu8 132.5(10) . .
Lu15 Lu7 Lu8 132.5(10) 6 .
Lu2 Lu7 Lu8 76.4(5) 6 .
Lu2 Lu7 Lu8 76.4(5) . .
Lu15 Lu7 Lu5 93.5(11) . 6
Lu15 Lu7 Lu5 38.6(9) 6 6
Lu2 Lu7 Lu5 26.8(2) 6 6
Lu2 Lu7 Lu5 141.5(6) . 6
Lu8 Lu7 Lu5 100.1(5) . 6
Lu15 Lu7 Lu5 38.6(9) . .
Lu15 Lu7 Lu5 93.5(11) 6 .
Lu2 Lu7 Lu5 141.5(6) 6 .
Lu2 Lu7 Lu5 26.9(2) . .
Lu8 Lu7 Lu5 100.1(5) . .
Lu5 Lu7 Lu5 124.6(8) 6 .
Lu15 Lu7 C76 105.0(9) . .
Lu15 Lu7 C76 114.2(10) 6 .
Lu2 Lu7 C76 115.4(4) 6 .
Lu2 Lu7 C76 97.4(3) . .
Lu8 Lu7 C76 107.0(8) . .
Lu5 Lu7 C76 119.7(5) 6 .
Lu5 Lu7 C76 102.4(4) . .
Lu15 Lu7 Lu9 28.4(9) . .
Lu15 Lu7 Lu9 28.4(9) 6 .
Lu2 Lu7 Lu9 92.1(5) 6 .
Lu2 Lu7 Lu9 92.1(5) . .
Lu8 Lu7 Lu9 139.7(8) . .
Lu5 Lu7 Lu9 65.7(5) 6 .
Lu5 Lu7 Lu9 65.7(5) . .
C76 Lu7 Lu9 112.8(9) . .
Lu15 Lu7 C75 111.3(11) . .
Lu15 Lu7 C75 80.0(8) 6 .
Lu2 Lu7 C75 74.07(18) 6 .
Lu2 Lu7 C75 142.4(5) . .
Lu8 Lu7 C75 116.2(7) . .
Lu5 Lu7 C75 74.0(3) 6 .
Lu5 Lu7 C75 136.3(7) . .
C76 Lu7 C75 45.8(2) . .
Lu9 Lu7 C75 96.6(7) . .
Lu15 Lu7 C87 126.1(8) . .
Lu15 Lu7 C87 149.3(9) 6 .
Lu2 Lu7 C87 113.2(6) 6 .
Lu2 Lu7 C87 81.8(4) . .
Lu8 Lu7 C87 71.4(6) . .
Lu5 Lu7 C87 134.2(5) 6 .
Lu5 Lu7 C87 101.2(3) . .
C76 Lu7 C87 36.4(2) . .
Lu9 Lu7 C87 145.9(7) . .
C75 Lu7 C87 70.7(3) . .
Lu15 Lu7 C77 68.7(8) . .
Lu15 Lu7 C77 98.8(10) 6 .
Lu2 Lu7 C77 141.7(5) 6 .
Lu2 Lu7 C77 76.1(2) . .
Lu8 Lu7 C77 128.6(6) . .
Lu5 Lu7 C77 127.8(7) 6 .
Lu5 Lu7 C77 69.7(3) . .
C76 Lu7 C77 36.96(17) . .
Lu9 Lu7 C77 83.5(7) . .
C75 Lu7 C77 68.7(3) . .
C87 Lu7 C77 62.4(2) . .
Lu7 Lu8 Lu10 123.5(8) . .
Lu7 Lu8 C84 130.7(7) . .
Lu10 Lu8 C84 105.6(8) . .
Lu7 Lu8 Lu2 51.4(3) . .
Lu10 Lu8 Lu2 101.3(5) . .
C84 Lu8 Lu2 126.7(3) . .
Lu7 Lu8 Lu2 51.4(3) . 6
Lu10 Lu8 Lu2 101.3(5) . 6
C84 Lu8 Lu2 119.1(2) . 6
Lu2 Lu8 Lu2 99.1(5) . 6
Lu7 Lu8 C85 92.3(6) . .
Lu10 Lu8 C85 143.4(8) . .
C84 Lu8 C85 38.43(14) . .
Lu2 Lu8 C85 107.6(4) . .
Lu2 Lu8 C85 95.8(4) 6 .
Lu7 Lu8 Lu14 93.9(8) . .
Lu10 Lu8 Lu14 59.2(9) . .
C84 Lu8 Lu14 116.4(6) . .
Lu2 Lu8 Lu14 47.0(8) . .
Lu2 Lu8 Lu14 124.4(6) 6 .
C85 Lu8 Lu14 132.0(7) . .
Lu7 Lu8 Lu14 93.9(8) . 6
Lu10 Lu8 Lu14 59.2(9) . 6
C84 Lu8 Lu14 109.0(6) . 6
Lu2 Lu8 Lu14 124.4(6) . 6
Lu2 Lu8 Lu14 47.0(8) 6 6
C85 Lu8 Lu14 116.9(7) . 6
Lu14 Lu8 Lu14 110.0(15) . 6
Lu7 Lu8 C86 84.2(5) . .
Lu10 Lu8 C86 132.0(4) . .
C84 Lu8 C86 57.50(17) . .
Lu2 Lu8 C86 125.3(6) . .
Lu2 Lu8 C86 63.7(2) 6 .
C85 Lu8 C86 35.68(12) . .
Lu14 Lu8 C86 167.1(9) . .
Lu14 Lu8 C86 82.9(8) 6 .
Lu7 Lu8 C69 133.7(5) . .
Lu10 Lu8 C69 90.2(7) . .
C84 Lu8 C69 32.78(12) . .
Lu2 Lu8 C69 159.4(3) . .
Lu2 Lu8 C69 95.26(12) 6 .
C85 Lu8 C69 55.96(17) . .
Lu14 Lu8 C69 132.1(9) . .
Lu14 Lu8 C69 76.2(6) 6 .
C86 Lu8 C69 50.06(12) . .
Lu7 Lu8 C87 66.0(5) . .
Lu10 Lu8 C87 162.1(4) . .
C84 Lu8 C87 68.2(2) . .
Lu2 Lu8 C87 72.2(3) . .
Lu2 Lu8 C87 96.3(5) 6 .
C85 Lu8 C87 35.86(16) . .
Lu14 Lu8 C87 107.5(8) . .
Lu14 Lu8 C87 138.4(9) 6 .
C86 Lu8 C87 60.1(2) . .
C69 Lu8 C87 91.7(3) . .
Lu7 Lu8 Lu12 108.6(6) . 6
Lu10 Lu8 Lu12 27.5(5) . 6
C84 Lu8 Lu12 117.7(6) . 6
Lu2 Lu8 Lu12 74.5(4) . 6
Lu2 Lu8 Lu12 111.2(4) 6 6
C85 Lu8 Lu12 152.4(5) . 6
Lu14 Lu8 Lu12 32.2(8) . 6
Lu14 Lu8 Lu12 80.3(10) 6 6
C86 Lu8 Lu12 159.4(6) . 6
C69 Lu8 Lu12 113.8(6) . 6
C87 Lu8 Lu12 139.5(4) . 6
Lu15 Lu9 Lu15 119(4) . 6
Lu15 Lu9 Lu13 143(3) . .
Lu15 Lu9 Lu13 72.7(18) 6 .
Lu15 Lu9 Lu13 72.7(18) . 6
Lu15 Lu9 Lu13 143(3) 6 6
Lu13 Lu9 Lu13 79(2) . 6
Lu15 Lu9 C56 96(2) . .
Lu15 Lu9 C56 86.3(19) 6 .
Lu13 Lu9 C56 120.1(11) . .
Lu13 Lu9 C56 128.8(12) 6 .
Lu15 Lu9 Lu7 60(2) . .
Lu15 Lu9 Lu7 60(2) 6 .
Lu13 Lu9 Lu7 118.9(13) . .
Lu13 Lu9 Lu7 118.9(13) 6 .
C56 Lu9 Lu7 93.8(11) . .
Lu15 Lu9 C33 118.9(15) . .
Lu15 Lu9 C33 102.9(14) 6 .
Lu13 Lu9 C33 88.1(13) . .
Lu13 Lu9 C33 99.1(15) 6 .
C56 Lu9 C33 42.4(3) . .
Lu7 Lu9 C33 135.8(12) . .
Lu15 Lu9 Lu5 112(2) . 6
Lu15 Lu9 Lu5 13.5(12) 6 6
Lu13 Lu9 Lu5 71.0(10) . 6
Lu13 Lu9 Lu5 132.1(13) 6 6
C56 Lu9 Lu5 98.7(8) . 6
Lu7 Lu9 Lu5 53.6(5) . 6
C33 Lu9 Lu5 115.9(4) . 6
Lu15 Lu9 Lu5 13.5(12) . .
Lu15 Lu9 Lu5 112(2) 6 .
Lu13 Lu9 Lu5 132.1(13) . .
Lu13 Lu9 Lu5 71.0(10) 6 .
C56 Lu9 Lu5 107.8(9) . .
Lu7 Lu9 Lu5 53.6(5) . .
C33 Lu9 Lu5 132.3(5) . .
Lu5 Lu9 Lu5 103.0(10) 6 .
Lu15 Lu9 Lu1 103(2) . .
Lu15 Lu9 Lu1 103(2) 6 .
Lu13 Lu9 Lu1 41.8(11) . .
Lu13 Lu9 Lu1 41.8(11) 6 .
C56 Lu9 Lu1 151.5(12) . .
Lu7 Lu9 Lu1 114.1(7) . .
C33 Lu9 Lu1 109.2(11) . .
Lu5 Lu9 Lu1 93.9(6) 6 .
Lu5 Lu9 Lu1 93.9(6) . .
Lu15 Lu9 Lu4 72(2) . .
Lu15 Lu9 Lu4 128(2) 6 .
Lu13 Lu9 Lu4 74.4(14) . .
Lu13 Lu9 Lu4 17.0(7) 6 .
C56 Lu9 Lu4 145.3(7) . .
Lu7 Lu9 Lu4 106.3(6) . .
C33 Lu9 Lu4 114.8(11) . .
Lu5 Lu9 Lu4 116.0(7) 6 .
Lu5 Lu9 Lu4 66.0(4) . .
Lu1 Lu9 Lu4 33.0(4) . .
Lu15 Lu9 Lu4 128(2) . 6
Lu15 Lu9 Lu4 72(2) 6 6
Lu13 Lu9 Lu4 17.0(7) . 6
Lu13 Lu9 Lu4 74.4(14) 6 6
C56 Lu9 Lu4 135.7(5) . 6
Lu7 Lu9 Lu4 106.3(6) . 6
C33 Lu9 Lu4 104.9(9) . 6
Lu5 Lu9 Lu4 66.0(4) 6 6
Lu5 Lu9 Lu4 116.0(7) . 6
Lu1 Lu9 Lu4 33.0(4) . 6
Lu4 Lu9 Lu4 65.4(7) . 6
Lu3 Lu10 Lu3 49.6(14) . 6
Lu3 Lu10 Lu12 90(2) . 6
Lu3 Lu10 Lu12 41.6(9) 6 6
Lu3 Lu10 Lu12 41.6(9) . .
Lu3 Lu10 Lu12 90(2) 6 .
Lu12 Lu10 Lu12 126(3) 6 .
Lu3 Lu10 Lu16 22.5(8) . .
Lu3 Lu10 Lu16 52.7(13) 6 .
Lu12 Lu10 Lu16 85.1(18) 6 .
Lu12 Lu10 Lu16 40.5(14) . .
Lu3 Lu10 Lu16 52.7(13) . 6
Lu3 Lu10 Lu16 22.5(8) 6 6
Lu12 Lu10 Lu16 40.5(14) 6 6
Lu12 Lu10 Lu16 85.1(18) . 6
Lu16 Lu10 Lu16 44.6(19) . 6
Lu3 Lu10 Lu8 126.5(11) . .
Lu3 Lu10 Lu8 126.5(11) 6 .
Lu12 Lu10 Lu8 97.1(13) 6 .
Lu12 Lu10 Lu8 97.1(13) . .
Lu16 Lu10 Lu8 105.2(9) . .
Lu16 Lu10 Lu8 105.2(9) 6 .
Lu3 Lu10 Lu14 74.3(10) . 6
Lu3 Lu10 Lu14 116.3(15) 6 6
Lu12 Lu10 Lu14 133.9(15) 6 6
Lu12 Lu10 Lu14 35.1(13) . 6
Lu16 Lu10 Lu14 63.9(12) . 6
Lu16 Lu10 Lu14 101.8(12) 6 6
Lu8 Lu10 Lu14 63.0(10) . 6
Lu3 Lu10 Lu14 116.3(15) . .
Lu3 Lu10 Lu14 74.3(10) 6 .
Lu12 Lu10 Lu14 35.1(13) 6 .
Lu12 Lu10 Lu14 133.9(15) . .
Lu16 Lu10 Lu14 101.8(12) . .
Lu16 Lu10 Lu14 63.9(12) 6 .
Lu8 Lu10 Lu14 63.0(10) . .
Lu14 Lu10 Lu14 116.4(16) 6 .
Lu3 Lu10 C44 104.4(13) . .
Lu3 Lu10 C44 93.2(10) 6 .
Lu12 Lu10 C44 93.0(9) 6 .
Lu12 Lu10 C44 117.4(12) . .
Lu16 Lu10 C44 126.5(12) . .
Lu16 Lu10 C44 114.9(10) 6 .
Lu8 Lu10 C44 128.0(12) . .
Lu14 Lu10 C44 132.5(8) 6 .
Lu14 Lu10 C44 106.7(7) . .
Lu3 Lu10 C67 133.3(11) . .
Lu3 Lu10 C67 126.8(10) 6 .
Lu12 Lu10 C67 109.7(11) 6 .
Lu12 Lu10 C67 121.4(11) . .
Lu16 Lu10 C67 154.5(9) . .
Lu16 Lu10 C67 145.5(9) 6 .
Lu8 Lu10 C67 93.7(10) . .
Lu14 Lu10 C67 112.5(10) 6 .
Lu14 Lu10 C67 101.9(9) . .
C44 Lu10 C67 35.7(3) . .
Lu3 Lu10 C45 69.6(10) . .
Lu3 Lu10 C45 80.5(12) 6 .
Lu12 Lu10 C45 105.2(14) 6 .
Lu12 Lu10 C45 82.5(11) . .
Lu16 Lu10 C45 92.0(10) . .
Lu16 Lu10 C45 101.6(12) 6 .
Lu8 Lu10 C45 153.0(11) . .
Lu14 Lu10 C45 108.9(8) 6 .
Lu14 Lu10 C45 134.3(10) . .
C44 Lu10 C45 37.1(3) . .
C67 Lu10 C45 64.6(4) . .
Lu6 Lu11 Lu16 95(2) 6 .
Lu6 Lu11 Lu12 141.4(19) 6 .
Lu16 Lu11 Lu12 53.0(18) . .
Lu6 Lu11 Lu14 130.8(17) 6 6
Lu16 Lu11 Lu14 96(2) . 6
Lu12 Lu11 Lu14 48.7(13) . 6
Lu6 Lu11 Lu3 123.7(18) 6 .
Lu16 Lu11 Lu3 29.8(16) . .
Lu12 Lu11 Lu3 24.0(6) . .
Lu14 Lu11 Lu3 71.4(14) 6 .
Lu6 Lu11 C26 99.0(14) 6 .
Lu16 Lu11 C26 114.5(15) . .
Lu12 Lu11 C26 113.0(11) . .
Lu14 Lu11 C26 119.0(14) 6 .
Lu3 Lu11 C26 112.0(9) . .
Lu6 Lu11 C6 81.3(13) 6 .
Lu16 Lu11 C6 88.3(16) . .
Lu12 Lu11 C6 114.2(11) . .
Lu14 Lu11 C6 146.6(15) 6 .
Lu3 Lu11 C6 99.7(9) . .
C26 Lu11 C6 33.3(2) . .
Lu6 Lu11 Lu4 17.8(6) 6 6
Lu16 Lu11 Lu4 91.1(17) . 6
Lu12 Lu11 Lu4 127.9(11) . 6
Lu14 Lu11 Lu4 114.3(12) 6 6
Lu3 Lu11 Lu4 116.0(10) . 6
C26 Lu11 Lu4 116.3(11) . 6
C6 Lu11 Lu4 98.6(9) . 6
Lu6 Lu11 C25 134.7(15) 6 .
Lu16 Lu11 C25 104.9(15) . .
Lu12 Lu11 C25 79.8(9) . .
Lu14 Lu11 C25 87.5(13) 6 .
Lu3 Lu11 C25 87.2(8) . .
C26 Lu11 C25 35.7(2) . .
C6 Lu11 C25 59.6(4) . .
Lu4 Lu11 C25 151.7(11) 6 .
Lu6 Lu11 Lu2 89.4(11) 6 6
Lu16 Lu11 Lu2 107.5(15) . 6
Lu12 Lu11 Lu2 82.3(9) . 6
Lu14 Lu11 Lu2 41.7(11) 6 6
Lu3 Lu11 Lu2 97.9(8) . 6
C26 Lu11 Lu2 136.1(11) . 6
C6 Lu11 Lu2 162.4(12) . 6
Lu4 Lu11 Lu2 74.0(5) 6 6
C25 Lu11 Lu2 121.1(9) . 6
Lu6 Lu11 Lu5 70.7(10) 6 6
Lu16 Lu11 Lu5 109.9(13) . 6
Lu12 Lu11 Lu5 98.2(9) . 6
Lu14 Lu11 Lu5 60.5(12) 6 6
Lu3 Lu11 Lu5 109.4(8) . 6
C26 Lu11 Lu5 135.2(11) . 6
C6 Lu11 Lu5 147.5(12) . 6
Lu4 Lu11 Lu5 55.9(4) 6 6
C25 Lu11 Lu5 134.2(10) . 6
Lu2 Lu11 Lu5 18.8(2) 6 6
Lu6 Lu11 C27 88.4(15) 6 .
Lu16 Lu11 C27 148.0(15) . .
Lu12 Lu11 C27 130.1(12) . .
Lu14 Lu11 C27 105.6(13) 6 .
Lu3 Lu11 C27 141.1(9) . .
C26 Lu11 C27 33.9(3) . .
C6 Lu11 C27 60.7(5) . .
Lu4 Lu11 C27 100.7(9) 6 .
C25 Lu11 C27 54.0(4) . .
Lu2 Lu11 C27 104.3(8) 6 .
Lu5 Lu11 C27 101.3(8) 6 .
Lu3 Lu12 Lu10 62.6(18) . .
Lu3 Lu12 Lu16 53.4(17) . .
Lu10 Lu12 Lu16 104(2) . .
Lu3 Lu12 Lu14 156.1(16) . 6
Lu10 Lu12 Lu14 115(2) . 6
Lu16 Lu12 Lu14 109(2) . 6
Lu3 Lu12 Lu3 22.5(8) . 6
Lu10 Lu12 Lu3 42.5(14) . 6
Lu16 Lu12 Lu3 64.6(17) . 6
Lu14 Lu12 Lu3 141.5(13) 6 6
Lu3 Lu12 Lu11 101.3(16) . .
Lu10 Lu12 Lu11 145.6(14) . .
Lu16 Lu12 Lu11 49.0(16) . .
Lu14 Lu12 Lu11 67.0(16) 6 .
Lu3 Lu12 Lu11 113.1(12) 6 .
Lu3 Lu12 Lu12 42.4(12) . 6
Lu10 Lu12 Lu12 27.2(13) . 6
Lu16 Lu12 Lu12 77.0(17) . 6
Lu14 Lu12 Lu12 124.5(13) 6 6
Lu3 Lu12 Lu12 19.9(5) 6 6
Lu11 Lu12 Lu12 121.1(9) . 6
Lu3 Lu12 Lu16 30.9(9) . 6
Lu10 Lu12 Lu16 62.8(15) . 6
Lu16 Lu12 Lu16 41.4(19) . 6
Lu14 Lu12 Lu16 125.3(12) 6 6
Lu3 Lu12 Lu16 26.6(7) 6 6
Lu11 Lu12 Lu16 87.6(12) . 6
Lu12 Lu12 Lu16 35.6(9) 6 6
Lu3 Lu12 C46 87.8(11) . .
Lu10 Lu12 C46 90.6(11) . .
Lu16 Lu12 C46 120.4(12) . .
Lu14 Lu12 C46 116.1(11) 6 .
Lu3 Lu12 C46 97.3(8) 6 .
Lu11 Lu12 C46 120.5(9) . .
Lu12 Lu12 C46 105.0(5) 6 .
Lu16 Lu12 C46 118.6(9) 6 .
Lu3 Lu12 C47 123.4(13) . .
Lu10 Lu12 C47 95.1(12) . .
Lu16 Lu12 C47 152.1(13) . .
Lu14 Lu12 C47 79.9(10) 6 .
Lu3 Lu12 C47 124.6(9) 6 .
Lu11 Lu12 C47 118.3(11) . .
Lu12 Lu12 C47 120.6(4) 6 .
Lu16 Lu12 C47 150.9(11) 6 .
C46 Lu12 C47 38.21(18) . .
Lu3 Lu12 C24 91.7(11) . .
Lu10 Lu12 C24 123.6(13) . .
Lu16 Lu12 C24 95.6(11) . .
Lu14 Lu12 C24 107.2(13) 6 .
Lu3 Lu12 C24 111.2(6) 6 .
Lu11 Lu12 C24 84.8(8) . .
Lu12 Lu12 C24 127.6(4) 6 .
Lu16 Lu12 C24 118.2(9) 6 .
C46 Lu12 C24 35.80(16) . .
C47 Lu12 C24 56.6(2) . .
Lu3 Lu12 Lu8 107.3(13) . .
Lu10 Lu12 Lu8 55.5(13) . .
Lu16 Lu12 Lu8 110.4(10) . .
Lu14 Lu12 Lu8 60.8(13) 6 .
Lu3 Lu12 Lu8 85.2(6) 6 .
Lu11 Lu12 Lu8 108.5(8) . .
Lu12 Lu12 Lu8 65.6(4) 6 .
Lu16 Lu12 Lu8 85.9(8) 6 .
C46 Lu12 Lu8 124.6(7) . .
C47 Lu12 Lu8 97.1(6) . .
C24 Lu12 Lu8 153.5(6) . .
Lu9 Lu13 Lu15 50.3(13) . 6
Lu9 Lu13 Lu4 148.7(13) . 6
Lu15 Lu13 Lu4 120.2(17) 6 6
Lu9 Lu13 Lu13 50.5(12) . 6
Lu15 Lu13 Lu13 97.8(16) 6 6
Lu4 Lu13 Lu13 115.0(7) 6 6
Lu9 Lu13 Lu1 110.7(13) . .
Lu15 Lu13 Lu1 136.3(11) 6 .
Lu4 Lu13 Lu1 52.0(7) 6 .
Lu13 Lu13 Lu1 63.7(5) 6 .
Lu9 Lu13 Lu15 17.5(12) . .
Lu15 Lu13 Lu15 60(2) 6 .
Lu4 Lu13 Lu15 133.0(10) 6 .
Lu13 Lu13 Lu15 38.3(9) 6 .
Lu1 Lu13 Lu15 93.9(9) . .
Lu9 Lu13 Lu5 79.8(13) . 6
Lu15 Lu13 Lu5 32.0(14) 6 6
Lu4 Lu13 Lu5 88.5(7) 6 6
Lu13 Lu13 Lu5 119.0(4) 6 6
Lu1 Lu13 Lu5 121.1(6) . 6
Lu15 Lu13 Lu5 83.8(9) . 6
Lu9 Lu13 C32 98.4(12) . .
Lu15 Lu13 C32 100.0(12) 6 .
Lu4 Lu13 C32 112.9(8) 6 .
Lu13 Lu13 C32 109.0(4) 6 .
Lu1 Lu13 C32 123.1(8) . .
Lu15 Lu13 C32 113.1(9) . .
Lu5 Lu13 C32 111.2(7) 6 .
Lu9 Lu13 Lu4 77.8(12) . .
Lu15 Lu13 Lu4 115.8(15) 6 .
Lu4 Lu13 Lu4 83.9(9) 6 .
Lu13 Lu13 Lu4 31.1(4) 6 .
Lu1 Lu13 Lu4 33.3(3) . .
Lu15 Lu13 Lu4 61.8(9) . .
Lu5 Lu13 Lu4 121.2(5) 6 .
C32 Lu13 Lu4 125.4(6) . .
Lu9 Lu13 C33 64.3(12) . .
Lu15 Lu13 C33 83.9(13) 6 .
Lu4 Lu13 C33 146.5(8) 6 .
Lu13 Lu13 C33 80.8(3) 6 .
Lu1 Lu13 C33 126.9(7) . .
Lu15 Lu13 C33 78.1(8) . .
Lu5 Lu13 C33 110.1(8) 6 .
C32 Lu13 C33 34.99(18) . .
Lu4 Lu13 C33 107.5(6) . .
Lu9 Lu13 C13 124.2(14) . .
Lu15 Lu13 C13 137.9(12) 6 .
Lu4 Lu13 C13 83.7(7) 6 .
Lu13 Lu13 C13 102.3(4) 6 .
Lu1 Lu13 C13 85.8(7) . .
Lu15 Lu13 C13 130.4(8) . .
Lu5 Lu13 C13 137.2(7) 6 .
C32 Lu13 C13 38.32(17) . .
Lu4 Lu13 C13 99.8(6) . .
C33 Lu13 C13 63.6(2) . .
Lu9 Lu13 C31 108.4(12) . .
Lu15 Lu13 C31 79.5(13) 6 .
Lu4 Lu13 C31 96.9(8) 6 .
Lu13 Lu13 C31 143.5(3) 6 .
Lu1 Lu13 C31 139.2(8) . .
Lu15 Lu13 C31 125.9(11) . .
Lu5 Lu13 C31 77.0(5) 6 .
C32 Lu13 C31 38.0(2) . .
Lu4 Lu13 C31 161.8(6) . .
C33 Lu13 C31 62.7(3) . .
C13 Lu13 C31 62.4(2) . .
Lu12 Lu14 Lu11 64.3(17) 6 6
Lu12 Lu14 Lu2 135.1(13) 6 .
Lu11 Lu14 Lu2 99.6(14) 6 .
Lu12 Lu14 Lu3 8.9(6) 6 6
Lu11 Lu14 Lu3 60.7(13) 6 6
Lu2 Lu14 Lu3 126.4(9) . 6
Lu12 Lu14 Lu10 30.1(11) 6 .
Lu11 Lu14 Lu10 89.0(17) 6 .
Lu2 Lu14 Lu10 117.6(12) . .
Lu3 Lu14 Lu10 29.4(8) 6 .
Lu12 Lu14 Lu16 35.1(12) 6 6
Lu11 Lu14 Lu16 34.8(12) 6 6
Lu2 Lu14 Lu16 109.0(11) . 6
Lu3 Lu14 Lu16 28.6(9) 6 6
Lu10 Lu14 Lu16 54.6(13) . 6
Lu12 Lu14 Lu8 87.0(13) 6 .
Lu11 Lu14 Lu8 123.1(12) 6 .
Lu2 Lu14 Lu8 66.6(10) . .
Lu3 Lu14 Lu8 83.3(9) 6 .
Lu10 Lu14 Lu8 57.8(9) . .
Lu16 Lu14 Lu8 95.2(11) 6 .
Lu12 Lu14 C64 105.6(16) 6 .
Lu11 Lu14 C64 112.0(16) 6 .
Lu2 Lu14 C64 119.2(14) . .
Lu3 Lu14 C64 114.3(13) 6 .
Lu10 Lu14 C64 113.6(12) . .
Lu16 Lu14 C64 126.8(16) 6 .
Lu8 Lu14 C64 123.0(12) . .
Lu12 Lu14 Lu5 124.7(11) 6 .
Lu11 Lu14 Lu5 81.3(12) 6 .
Lu2 Lu14 Lu5 18.3(3) . .
Lu3 Lu14 Lu5 115.9(8) 6 .
Lu10 Lu14 Lu5 117.1(9) . .
Lu16 Lu14 Lu5 93.6(10) 6 .
Lu8 Lu14 Lu5 76.9(10) . .
C64 Lu14 Lu5 127.6(13) . .
Lu12 Lu14 C81 136.6(15) 6 .
Lu11 Lu14 C81 137.2(16) 6 .
Lu2 Lu14 C81 84.6(12) . .
Lu3 Lu14 C81 145.0(12) 6 .
Lu10 Lu14 C81 126.8(13) . .
Lu16 Lu14 C81 164.1(15) 6 .
Lu8 Lu14 C81 97.8(12) . .
C64 Lu14 C81 37.5(3) . .
Lu5 Lu14 C81 98.2(12) . .
Lu12 Lu14 Lu6 76.8(13) 6 .
Lu11 Lu14 Lu6 19.0(7) 6 .
Lu2 Lu14 Lu6 80.7(8) . .
Lu3 Lu14 Lu6 71.0(8) 6 .
Lu10 Lu14 Lu6 95.5(12) . .
Lu16 Lu14 Lu6 42.5(10) 6 .
Lu8 Lu14 Lu6 112.5(8) . .
C64 Lu14 Lu6 124.5(12) . .
Lu5 Lu14 Lu6 62.4(6) . .
C81 Lu14 Lu6 137.1(12) . .
Lu12 Lu14 C63 102.7(17) 6 .
Lu11 Lu14 C63 79.1(13) 6 .
Lu2 Lu14 C63 115.5(12) . .
Lu3 Lu14 C63 108.9(14) 6 .
Lu10 Lu14 C63 126.8(15) . .
Lu16 Lu14 C63 104.3(15) 6 .
Lu8 Lu14 C63 157.7(11) . .
C64 Lu14 C63 35.2(3) . .
Lu5 Lu14 C63 112.0(11) . .
C81 Lu14 C63 61.4(4) . .
Lu6 Lu14 C63 89.4(9) . .
Lu9 Lu15 Lu13 57.0(16) . 6
Lu9 Lu15 Lu5 156(2) . .
Lu13 Lu15 Lu5 116(2) 6 .
Lu9 Lu15 Lu15 30(2) . 6
Lu13 Lu15 Lu15 82.2(16) 6 6
Lu5 Lu15 Lu15 133.4(11) . 6
Lu9 Lu15 Lu7 92(3) . .
Lu13 Lu15 Lu7 131.5(16) 6 .
Lu5 Lu15 Lu7 76.2(12) . .
Lu15 Lu15 Lu7 61.6(9) 6 .
Lu9 Lu15 Lu2 143(2) . .
Lu13 Lu15 Lu2 126.7(19) 6 .
Lu5 Lu15 Lu2 18.5(6) . .
Lu15 Lu15 Lu2 116.2(8) 6 .
Lu7 Lu15 Lu2 57.7(7) . .
Lu9 Lu15 Lu13 19.2(15) . .
Lu13 Lu15 Lu13 43.9(13) 6 .
Lu5 Lu15 Lu13 139.0(14) . .
Lu15 Lu15 Lu13 38.3(9) 6 .
Lu7 Lu15 Lu13 94.7(12) . .
Lu2 Lu15 Lu13 133.1(10) . .
Lu9 Lu15 Lu4 83(2) . .
Lu13 Lu15 Lu4 30.4(10) 6 .
Lu5 Lu15 Lu4 86.0(15) . .
Lu15 Lu15 Lu4 99.8(7) 6 .
Lu7 Lu15 Lu4 122.4(10) . .
Lu2 Lu15 Lu4 96.5(11) . .
Lu13 Lu15 Lu4 65.1(8) . .
Lu9 Lu15 C57 94(2) . .
Lu13 Lu15 C57 120.1(14) 6 .
Lu5 Lu15 C57 108.1(14) . .
Lu15 Lu15 C57 95.8(8) 6 .
Lu7 Lu15 C57 96.0(12) . .
Lu2 Lu15 C57 107.9(11) . .
Lu13 Lu15 C57 112.6(13) . .
Lu4 Lu15 C57 141.4(11) . .
Lu9 Lu15 C58 105.3(16) . .
Lu13 Lu15 C58 94.3(13) 6 .
Lu5 Lu15 C58 98.3(13) . .
Lu15 Lu15 C58 124.0(7) 6 .
Lu7 Lu15 C58 131.9(13) . .
Lu2 Lu15 C58 110.2(11) . .
Lu13 Lu15 C58 116.0(11) . .
Lu4 Lu15 C58 104.3(11) . .
C57 Lu15 C58 39.4(3) . .
Lu9 Lu15 C56 58.8(19) . .
Lu13 Lu15 C56 99.7(16) 6 .
Lu5 Lu15 C56 141.2(16) . .
Lu15 Lu15 C56 63.1(6) 6 .
Lu7 Lu15 C56 91.8(13) . .
Lu2 Lu15 C56 133.6(13) . .
Lu13 Lu15 C56 77.8(11) . .
Lu4 Lu15 C56 129.9(11) . .
C57 Lu15 C56 35.6(4) . .
C58 Lu15 C56 62.6(5) . .
Lu9 Lu15 C77 117(3) . .
Lu13 Lu15 C77 154.1(14) 6 .
Lu5 Lu15 C77 79.7(12) . .
Lu15 Lu15 C77 102.3(7) 6 .
Lu7 Lu15 C77 70.3(9) . .
Lu2 Lu15 C77 74.7(8) . .
Lu13 Lu15 C77 135.4(15) . .
Lu4 Lu15 C77 157.9(13) . .
C57 Lu15 C77 34.6(3) . .
C58 Lu15 C77 61.8(5) . .
C56 Lu15 C77 61.6(6) . .
Lu3 Lu16 Lu11 114(3) . .
Lu3 Lu16 Lu12 37.5(13) . .
Lu11 Lu16 Lu12 78(2) . .
Lu3 Lu16 Lu16 73.7(17) . 6
Lu11 Lu16 Lu16 155.1(12) . 6
Lu12 Lu16 Lu16 103.0(17) . 6
Lu3 Lu16 Lu3 33.4(12) . 6
Lu11 Lu16 Lu3 143(3) . 6
Lu12 Lu16 Lu3 66.1(18) . 6
Lu16 Lu16 Lu3 40.3(10) 6 6
Lu3 Lu16 Lu6 151(3) . 6
Lu11 Lu16 Lu6 38.6(15) . 6
Lu12 Lu16 Lu6 113(2) . 6
Lu16 Lu16 Lu6 125.7(9) 6 6
Lu3 Lu16 Lu6 157.4(13) 6 6
Lu3 Lu16 Lu10 22.8(10) . .
Lu11 Lu16 Lu10 110(2) . .
Lu12 Lu16 Lu10 35.3(13) . .
Lu16 Lu16 Lu10 67.7(9) 6 .
Lu3 Lu16 Lu10 33.0(8) 6 .
Lu6 Lu16 Lu10 136.6(16) 6 .
Lu3 Lu16 C7 106.7(14) . .
Lu11 Lu16 C7 100(2) . .
Lu12 Lu16 C7 123.7(13) . .
Lu16 Lu16 C7 100.2(9) 6 .
Lu3 Lu16 C7 107.2(14) 6 .
Lu6 Lu16 C7 91.9(15) 6 .
Lu10 Lu16 C7 128.8(15) . .
Lu3 Lu16 Lu14 72.4(17) . 6
Lu11 Lu16 Lu14 49.1(17) . 6
Lu12 Lu16 Lu14 36.0(12) . 6
Lu16 Lu16 Lu14 119.2(11) 6 6
Lu3 Lu16 Lu14 94.4(16) 6 6
Lu6 Lu16 Lu14 78.7(14) 6 6
Lu10 Lu16 Lu14 61.6(12) . 6
C7 Lu16 Lu14 137.3(15) . 6
Lu3 Lu16 Lu12 42.3(15) . 6
Lu11 Lu16 Lu12 137(2) . 6
Lu12 Lu16 Lu12 67.3(19) . 6
Lu16 Lu16 Lu12 35.7(9) 6 6
Lu3 Lu16 Lu12 15.2(5) 6 6
Lu6 Lu16 Lu12 142.2(11) 6 6
Lu10 Lu16 Lu12 32.0(8) . 6
C7 Lu16 Lu12 120.0(15) . 6
Lu14 Lu16 Lu12 88.7(14) 6 6
Lu3 Lu16 C23 73.4(10) . .
Lu11 Lu16 C23 95.5(15) . .
Lu12 Lu16 C23 84.8(12) . .
Lu16 Lu16 C23 109.4(8) 6 .
Lu3 Lu16 C23 89.9(11) 6 .
Lu6 Lu16 C23 112.7(15) 6 .
Lu10 Lu16 C23 96.0(12) . .
C7 Lu16 C23 39.0(3) . .
Lu14 Lu16 C23 107.1(13) 6 .
Lu12 Lu16 C23 105.1(13) 6 .
Lu3 Lu16 C20 110.5(19) . .
Lu11 Lu16 C20 120(2) . .
Lu12 Lu16 C20 142.4(17) . .
Lu16 Lu16 C20 74.1(7) 6 .
Lu3 Lu16 C20 94.5(14) 6 .
Lu6 Lu16 C20 96.7(14) 6 .
Lu10 Lu16 C20 125.9(16) . .
C7 Lu16 C20 29.0(4) . .
Lu14 Lu16 C20 166.1(15) 6 .
Lu12 Lu16 C20 102.4(13) 6 .
C23 Lu16 C20 62.3(5) . .
C9 C1 C5 133.3 . .
C9 C1 C2 123.0 . .
C5 C1 C2 96.9 . .
C9 C1 Lu1 101.12(6) . .
C5 C1 Lu1 75.40(6) . .
C2 C1 Lu1 62.0 . .
C3 C2 C12 109.5 . .
C3 C2 C1 119.6 . .
C12 C2 C1 117.0 . .
C3 C2 Lu1 69.24(7) . .
C12 C2 Lu1 79.55(6) . .
C1 C2 Lu1 83.36(5) . .
C15 C3 C2 128.4 . .
C15 C3 C4 126.6 . .
C2 C3 C4 93.5 . .
C15 C3 Lu1 79.77(6) . .
C2 C3 Lu1 76.41(8) . .
C4 C3 Lu1 80.39(6) . .
C15 C3 Lu4 65.95(14) . .
C2 C3 Lu4 103.41(14) . .
C4 C3 Lu4 73.95(13) . .
Lu1 C3 Lu4 27.43(12) . .
C5 C4 C3 122.5 . .
C5 C4 C18 106.0 . .
C3 C4 C18 125.6 . .
C5 C4 C17 144.7 . .
C3 C4 C17 80.9 . .
C18 C4 C17 44.7 . .
C5 C4 Lu1 85.27(6) . .
C3 C4 Lu1 64.2 . .
C18 C4 Lu1 99.85(7) . .
C17 C4 Lu1 82.51(7) . .
C5 C4 Lu4 101.33(12) . .
C3 C4 Lu4 72.94(12) . .
C18 C4 Lu4 74.81(14) . .
C17 C4 Lu4 57.49(14) . .
Lu1 C4 Lu4 26.87(13) . .
C5 C4 Lu6 87.79(18) . .
C3 C4 Lu6 102.07(17) . .
C18 C4 Lu6 53.76(12) . .
C17 C4 Lu6 59.81(17) . .
Lu1 C4 Lu6 47.67(12) . .
Lu4 C4 Lu6 29.23(19) . .
C4 C5 C20 144.9 . .
C4 C5 C1 106.4 . .
C20 C5 C1 101.8 . .
C4 C5 Lu1 66.59(5) . .
C20 C5 Lu1 103.7 . .
C1 C5 Lu1 72.04(7) . .
C26 C6 C7 136.2 . .
C26 C6 C9 116.7 . .
C7 C6 C9 96.9 . .
C26 C6 Lu11 71.4(6) . .
C7 C6 Lu11 83.4(6) . .
C9 C6 Lu11 88.0(6) . .
C26 C6 Lu16 94.5(7) . .
C7 C6 Lu16 55.2(7) . .
C9 C6 Lu16 91.8(6) . .
Lu11 C6 Lu16 28.2(7) . .
C20 C7 C23 133.8 . .
C20 C7 C6 139.0 . .
C23 C7 C6 86.3 . .
C20 C7 Lu16 91.1(8) . .
C23 C7 Lu16 79.1(7) . .
C6 C7 Lu16 88.7(9) . .
C20 C7 Lu3 95.61(15) . .
C23 C7 Lu3 60.69(13) . .
C6 C7 Lu3 99.36(14) . .
Lu16 C7 Lu3 22.3(8) . .
C20 C7 Lu11 111.2(4) . .
C23 C7 Lu11 78.9(5) . .
C6 C7 Lu11 61.3(5) . .
Lu16 C7 Lu11 27.4(9) . .
Lu3 C7 Lu11 42.6(6) . .
C21 C8 C19 136.5 . .
C21 C8 C20 103.2 . .
C19 C8 C20 109.3 . .
C21 C8 Lu6 105.74(14) . .
C19 C8 Lu6 50.23(12) . .
C20 C8 Lu6 86.14(15) . .
C21 C8 Lu16 70.1(6) . .
C19 C8 Lu16 106.7(4) . .
C20 C8 Lu16 54.6(6) . .
Lu6 C8 Lu16 57.2(4) . .
C1 C9 C10 117.2 . .
C1 C9 C6 122.2 . .
C10 C9 C6 117.6 . .
C1 C9 Lu11 107.6(4) . .
C10 C9 Lu11 89.4(5) . .
C6 C9 Lu11 56.6(4) . .
C11 C10 C28 102.9 . .
C11 C10 C9 124.3 . .
C28 C10 C9 118.8 . .
C10 C11 C30 112.6 . .
C10 C11 C12 114.2 . .
C30 C11 C12 124.2 . .
C10 C11 Lu13 106.3(2) . .
C30 C11 Lu13 70.3(3) . .
C12 C11 Lu13 68.9(3) . .
C2 C12 C13 128.8 . .
C2 C12 C11 120.8 . .
C13 C12 C11 99.3 . .
C2 C12 Lu1 67.2 . .
C13 C12 Lu1 77.0 . .
C11 C12 Lu1 98.90(6) . .
C2 C12 Lu13 98.6(3) . .
C13 C12 Lu13 54.7(2) . .
C11 C12 Lu13 81.5(3) . .
Lu1 C12 Lu13 31.4(3) . .
C12 C13 C32 141.0 . .
C12 C13 C14 109.4 . .
C32 C13 C14 98.1 . .
C12 C13 Lu13 94.7(4) . .
C32 C13 Lu13 60.8(4) . .
C14 C13 Lu13 83.5(3) . .
C12 C13 Lu1 71.05(5) . .
C32 C13 Lu1 93.9 . .
C14 C13 Lu1 70.37(7) . .
Lu13 C13 Lu1 33.8(4) . .
C15 C14 C34 128.9 . .
C15 C14 C13 118.6 . .
C34 C14 C13 101.4 . .
C15 C14 Lu1 69.42(6) . .
C34 C14 Lu1 95.3 . .
C13 C14 Lu1 73.69(7) . .
C15 C14 Lu13 101.7(3) . .
C34 C14 Lu13 71.4(3) . .
C13 C14 Lu13 59.4(3) . .
Lu1 C14 Lu13 32.6(3) . .
C15 C14 Lu4 61.00(10) . .
C34 C14 Lu4 83.86(14) . .
C13 C14 Lu4 98.64(13) . .
Lu1 C14 Lu4 25.85(13) . .
Lu13 C14 Lu4 46.2(3) . .
C15 C14 Lu9 105.1(3) . .
C34 C14 Lu9 53.5(3) . .
C13 C14 Lu9 75.77(10) . .
Lu1 C14 Lu9 43.2(3) . .
Lu13 C14 Lu9 20.2(3) . .
Lu4 C14 Lu9 44.1(3) . .
C16 C15 C14 117.7 . .
C16 C15 C3 109.7 . .
C14 C15 C3 123.9 . .
C16 C15 Lu4 64.23(16) . .
C14 C15 Lu4 91.02(14) . .
C3 C15 Lu4 83.57(17) . .
C16 C15 Lu1 92.49(7) . .
C14 C15 Lu1 81.24(6) . .
C3 C15 Lu1 68.0 . .
Lu4 C15 Lu1 28.63(15) . .
C15 C16 C17 114.4 . .
C15 C16 C36 120.0 . .
C17 C16 C36 118.8 . .
C15 C16 Lu4 83.69(17) . .
C17 C16 Lu4 77.16(16) . .
C36 C16 Lu4 82.93(18) . .
C15 C16 Lu1 60.5 . .
C17 C16 Lu1 84.7 . .
C36 C16 Lu1 98.7 . .
Lu4 C16 Lu1 23.60(16) . .
C15 C16 Lu6 102.42(14) . .
C17 C16 Lu6 54.41(11) . .
C36 C16 Lu6 87.67(15) . .
Lu4 C16 Lu6 24.88(17) . .
Lu1 C16 Lu6 43.39(12) . .
C16 C17 C18 152.0 . .
C16 C17 C38 100.9 . .
C18 C17 C38 94.3 . .
C16 C17 C4 105.6 . .
C18 C17 C4 50.4 . .
C38 C17 C4 139.9 . .
C16 C17 Lu4 68.02(14) . .
C18 C17 Lu4 89.53(16) . .
C38 C17 Lu4 87.32(17) . .
C4 C17 Lu4 75.55(18) . .
C16 C17 Lu6 99.36(17) . .
C18 C17 Lu6 63.87(19) . .
C38 C17 Lu6 70.15(18) . .
C4 C17 Lu6 76.14(19) . .
Lu4 C17 Lu6 33.19(19) . .
C19 C18 C17 140.5 . .
C19 C18 C4 122.3 . .
C17 C18 C4 84.8 . .
C19 C18 Lu6 69.8(2) . .
C17 C18 Lu6 81.9(2) . .
C4 C18 Lu6 92.62(18) . .
C19 C18 Lu4 100.07(10) . .
C17 C18 Lu4 58.87(12) . .
C4 C18 Lu4 71.55(14) . .
Lu6 C18 Lu4 30.8(2) . .
C40 C19 C18 106.2 . .
C40 C19 C8 123.1 . .
C18 C19 C8 126.9 . .
C40 C19 Lu6 78.2(2) . .
C18 C19 Lu6 74.1(2) . .
C8 C19 Lu6 96.3(2) . .
C7 C20 C5 125.9 . .
C7 C20 C8 122.9 . .
C5 C20 C8 108.3 . .
C7 C20 Lu16 59.9(6) . .
C5 C20 Lu16 105.9(6) . .
C8 C20 Lu16 91.6(8) . .
C7 C20 Lu3 60.96(12) . .
C5 C20 Lu3 122.01(10) . .
C8 C20 Lu3 77.11(12) . .
Lu16 C20 Lu3 19.1(7) . .
C22 C21 C8 132.5 . .
C22 C21 C42 121.4 . .
C8 C21 C42 102.4 . .
C22 C21 Lu3 59.37(14) . .
C8 C21 Lu3 102.60(15) . .
C42 C21 Lu3 95.03(14) . .
C22 C21 Lu16 68.2(5) . .
C8 C21 Lu16 83.1(6) . .
C42 C21 Lu16 107.2(6) . .
Lu3 C21 Lu16 21.0(6) . .
C22 C21 Lu10 67.08(19) . .
C8 C21 Lu10 112.0(3) . .
C42 C21 Lu10 75.7(2) . .
Lu3 C21 Lu10 20.1(3) . .
Lu16 C21 Lu10 38.9(7) . .
C21 C22 C45 126.2 . .
C21 C22 C23 124.6 . .
C45 C22 C23 100.0 . .
C21 C22 Lu3 87.29(18) . .
C45 C22 Lu3 75.37(18) . .
C23 C22 Lu3 75.71(16) . .
C21 C22 Lu16 83.5(6) . .
C45 C22 Lu16 94.6(6) . .
C23 C22 Lu16 62.0(7) . .
Lu3 C22 Lu16 21.6(6) . .
C21 C22 Lu12 100.2(3) . .
C45 C22 Lu12 66.7(3) . .
C23 C22 Lu12 69.2(3) . .
Lu3 C22 Lu12 12.9(3) . .
Lu16 C22 Lu12 27.9(7) . .
C21 C22 Lu10 85.5(2) . .
C45 C22 Lu10 61.1(4) . .
C23 C22 Lu10 93.7(2) . .
Lu3 C22 Lu10 20.9(4) . .
Lu16 C22 Lu10 42.1(7) . .
Lu12 C22 Lu10 24.5(4) . .
C7 C23 C22 102.3 . .
C7 C23 C24 138.6 . .
C22 C23 C24 107.2 . .
C7 C23 Lu3 84.15(17) . .
C22 C23 Lu3 64.06(14) . .
C24 C23 Lu3 83.43(17) . .
C7 C23 Lu16 61.8(8) . .
C22 C23 Lu16 83.2(9) . .
C24 C23 Lu16 93.4(7) . .
Lu3 C23 Lu16 25.7(8) . .
C7 C23 Lu12 91.6(3) . .
C22 C23 Lu12 77.3(4) . .
C24 C23 Lu12 67.9(3) . .
Lu3 C23 Lu12 17.2(3) . .
Lu16 C23 Lu12 29.8(8) . .
C7 C23 Lu11 68.5(5) . .
C22 C23 Lu11 106.6(5) . .
C24 C23 Lu11 75.6(5) . .
Lu3 C23 Lu11 43.0(5) . .
Lu16 C23 Lu11 26.1(8) . .
Lu12 C23 Lu11 34.3(6) . .
C25 C24 C46 131.3 . .
C25 C24 C23 111.6 . .
C46 C24 C23 98.2 . .
C25 C24 Lu12 88.1(4) . .
C46 C24 Lu12 61.6(4) . .
C23 C24 Lu12 76.8(3) . .
C25 C24 Lu3 100.68(12) . .
C46 C24 Lu3 61.18(14) . .
C23 C24 Lu3 60.79(13) . .
Lu12 C24 Lu3 17.6(3) . .
C25 C24 Lu11 60.7(5) . .
C46 C24 Lu11 95.7(5) . .
C23 C24 Lu11 72.4(5) . .
Lu12 C24 Lu11 34.2(6) . .
Lu3 C24 Lu11 40.9(5) . .
C25 C24 Lu16 85.0(7) . .
C46 C24 Lu16 82.0(7) . .
C23 C24 Lu16 54.6(5) . .
Lu12 C24 Lu16 26.4(7) . .
Lu3 C24 Lu16 20.9(7) . .
Lu11 C24 Lu16 24.7(7) . .
C24 C25 C49 123.0 . .
C24 C25 C26 122.1 . .
C49 C25 C26 110.3 . .
C24 C25 Lu11 95.5(6) . .
C49 C25 Lu11 87.0(5) . .
C26 C25 Lu11 64.9(6) . .
C24 C25 Lu12 66.8(3) . .
C49 C25 Lu12 86.1(3) . .
C26 C25 Lu12 98.4(3) . .
Lu11 C25 Lu12 35.6(6) . .
C24 C25 Lu16 72.9(6) . .
C49 C25 Lu16 103.1(5) . .
C26 C25 Lu16 74.9(7) . .
Lu11 C25 Lu16 23.1(7) . .
Lu12 C25 Lu16 25.4(7) . .
C6 C26 C27 128.9 . .
C6 C26 C25 117.7 . .
C27 C26 C25 104.2 . .
C6 C26 Lu11 75.3(6) . .
C27 C26 Lu11 85.7(6) . .
C25 C26 Lu11 79.4(6) . .
C6 C26 Lu16 59.5(6) . .
C27 C26 Lu16 107.4(5) . .
C25 C26 Lu16 77.0(6) . .
Lu11 C26 Lu16 21.9(6) . .
C50 C27 C26 110.7 . .
C50 C27 C28 119.2 . .
C26 C27 C28 118.9 . .
C50 C27 Lu11 85.3(5) . .
C26 C27 Lu11 60.3(4) . .
C28 C27 Lu11 90.3(5) . .
C29 C28 C10 116.4 . .
C29 C28 C27 114.4 . .
C10 C28 C27 118.2 . .
C29 C28 Lu11 97.0(3) . .
C10 C28 Lu11 81.7(4) . .
C27 C28 Lu11 59.4(4) . .
C28 C29 C52 129.6 . .
C28 C29 C30 103.7 . .
C52 C29 C30 117.3 . .
C11 C30 C31 127.4 . .
C11 C30 C29 103.5 . .
C31 C30 C29 116.2 . .
C11 C30 Lu13 82.2(3) . .
C31 C30 Lu13 54.6(3) . .
C29 C30 Lu13 107.7(2) . .
C54 C31 C32 117.8 . .
C54 C31 C30 123.9 . .
C32 C31 C30 111.1 . .
C54 C31 Lu13 87.8(4) . .
C32 C31 Lu13 60.5(3) . .
C30 C31 Lu13 93.5(4) . .
C54 C31 Lu9 73.5(5) . .
C32 C31 Lu9 59.0(4) . .
C30 C31 Lu9 113.2(4) . .
Lu13 C31 Lu9 20.2(5) . .
C33 C32 C31 119.4 . .
C33 C32 C13 121.0 . .
C31 C32 C13 111.9 . .
C33 C32 Lu13 79.9(4) . .
C31 C32 Lu13 81.5(4) . .
C13 C32 Lu13 80.9(5) . .
C33 C32 Lu9 55.8(3) . .
C31 C32 Lu9 90.2(3) . .
C13 C32 Lu9 99.2(5) . .
Lu13 C32 Lu9 24.9(5) . .
C32 C33 C56 125.5 . .
C32 C33 C34 101.3 . .
C56 C33 C34 124.8 . .
C32 C33 Lu9 92.0(4) . .
C56 C33 Lu9 65.2(7) . .
C34 C33 Lu9 88.0(5) . .
C32 C33 Lu13 65.1(3) . .
C56 C33 Lu13 87.6(4) . .
C34 C33 Lu13 87.5(4) . .
Lu9 C33 Lu13 27.6(5) . .
C32 C33 Lu15 110.0(4) . .
C56 C33 Lu15 58.7(6) . .
C34 C33 Lu15 80.4(6) . .
Lu9 C33 Lu15 18.6(5) . .
Lu13 C33 Lu15 45.0(5) . .
C14 C34 C33 117.4 . .
C14 C34 C35 107.7 . .
C33 C34 C35 124.4 . .
C14 C34 Lu9 99.1(5) . .
C33 C34 Lu9 55.9(3) . .
C35 C34 Lu9 87.53(18) . .
C14 C34 Lu13 78.1(4) . .
C33 C34 Lu13 59.1(3) . .
C35 C34 Lu13 103.8(3) . .
Lu9 C34 Lu13 23.4(4) . .
C14 C34 Lu15 107.4(4) . .
C33 C34 Lu15 68.7(6) . .
C35 C34 Lu15 68.0(6) . .
Lu9 C34 Lu15 19.8(5) . .
Lu13 C34 Lu15 41.0(5) . .
C14 C34 Lu4 68.25(11) . .
C33 C34 Lu4 100.82(9) . .
C35 C34 Lu4 66.92(14) . .
Lu9 C34 Lu4 46.2(4) . .
Lu13 C34 Lu4 44.7(3) . .
Lu15 C34 Lu4 42.4(5) . .
C36 C35 C58 133.2 . .
C36 C35 C34 123.7 . .
C58 C35 C34 95.9 . .
C36 C35 Lu15 103.1(6) . .
C58 C35 Lu15 57.7(5) . .
C34 C35 Lu15 78.8(6) . .
C36 C35 Lu4 64.65(11) . .
C58 C35 Lu4 102.12(9) . .
C34 C35 Lu4 82.08(14) . .
Lu15 C35 Lu4 45.5(5) . .
C36 C35 Lu9 110.1(3) . .
C58 C35 Lu9 67.0(5) . .
C34 C35 Lu9 59.4(3) . .
Lu15 C35 Lu9 19.7(5) . .
Lu4 C35 Lu9 45.8(4) . .
C35 C36 C16 121.1 . .
C35 C36 C37 118.2 . .
C16 C36 C37 111.1 . .
C35 C36 Lu4 90.34(13) . .
C16 C36 Lu4 61.09(12) . .
C37 C36 Lu4 87.53(14) . .
C60 C37 C36 122.9 . .
C60 C37 C38 131.2 . .
C36 C37 C38 92.7 . .
C60 C37 Lu4 101.31(9) . .
C36 C37 Lu4 60.77(11) . .
C38 C37 Lu4 65.69(12) . .
C60 C37 Lu5 54.58(13) . .
C36 C37 Lu5 87.89(16) . .
C38 C37 Lu5 100.37(13) . .
Lu4 C37 Lu5 46.83(15) . .
C17 C38 C39 136.6 . .
C17 C38 C37 115.5 . .
C39 C38 C37 97.0 . .
C17 C38 Lu6 76.03(18) . .
C39 C38 Lu6 74.37(19) . .
C37 C38 Lu6 92.75(18) . .
C17 C38 Lu4 60.24(12) . .
C39 C38 Lu4 103.25(10) . .
C37 C38 Lu4 77.87(15) . .
Lu6 C38 Lu4 31.1(2) . .
C40 C39 C62 115.9 . .
C40 C39 C38 104.0 . .
C62 C39 C38 129.3 . .
C40 C39 Lu6 68.1(2) . .
C62 C39 Lu6 97.65(15) . .
C38 C39 Lu6 68.72(19) . .
C39 C40 C19 134.1 . .
C39 C40 C41 106.3 . .
C19 C40 C41 110.3 . .
C39 C40 Lu6 81.3(2) . .
C19 C40 Lu6 67.1(2) . .
C41 C40 Lu6 98.06(18) . .
C63 C41 C42 120.9 . .
C63 C41 C40 106.6 . .
C42 C41 C40 117.9 . .
C63 C41 Lu14 60.6(5) . .
C42 C41 Lu14 77.7(6) . .
C40 C41 Lu14 95.4(4) . .
C43 C42 C21 115.2 . .
C43 C42 C41 112.9 . .
C21 C42 C41 128.7 . .
C43 C42 Lu14 76.2(5) . .
C21 C42 Lu14 104.4(4) . .
C41 C42 Lu14 71.0(5) . .
C43 C42 Lu10 65.8(4) . .
C21 C42 Lu10 74.1(4) . .
C41 C42 Lu10 111.8(3) . .
Lu14 C42 Lu10 41.4(5) . .
C43 C42 Lu3 82.13(13) . .
C21 C42 Lu3 54.48(10) . .
C41 C42 Lu3 118.10(11) . .
Lu14 C42 Lu3 54.4(4) . .
Lu10 C42 Lu3 20.3(4) . .
C42 C43 C65 122.8 . .
C42 C43 C44 119.4 . .
C65 C43 C44 96.4 . .
C42 C43 Lu10 84.2(5) . .
C65 C43 Lu10 82.2(5) . .
C44 C43 Lu10 55.1(3) . .
C42 C43 Lu14 74.5(6) . .
C65 C43 Lu14 58.4(5) . .
C44 C43 Lu14 94.8(5) . .
Lu10 C43 Lu14 42.9(5) . .
C67 C44 C45 122.0 . .
C67 C44 C43 112.2 . .
C45 C44 C43 117.6 . .
C67 C44 Lu10 75.5(7) . .
C45 C44 Lu10 77.0(5) . .
C43 C44 Lu10 89.5(2) . .
C67 C44 Lu3 94.80(11) . .
C45 C44 Lu3 56.39(11) . .
C43 C44 Lu3 92.55(14) . .
Lu10 C44 Lu3 22.3(6) . .
C67 C44 Lu12 82.0(3) . .
C45 C44 Lu12 58.4(2) . .
C43 C44 Lu12 105.1(2) . .
Lu10 C44 Lu12 20.3(4) . .
Lu3 C44 Lu12 15.2(2) . .
C46 C45 C22 115.6 . .
C46 C45 C44 113.5 . .
C22 C45 C44 118.0 . .
C46 C45 Lu3 77.39(17) . .
C22 C45 Lu3 66.54(15) . .
C44 C45 Lu3 90.38(15) . .
C46 C45 Lu10 80.7(2) . .
C22 C45 Lu10 87.3(6) . .
C44 C45 Lu10 65.8(4) . .
Lu3 C45 Lu10 26.1(5) . .
C46 C45 Lu12 60.6(3) . .
C22 C45 Lu12 81.7(3) . .
C44 C45 Lu12 91.6(4) . .
Lu3 C45 Lu12 18.0(3) . .
Lu10 C45 Lu12 27.1(4) . .
C45 C46 C24 115.8 . .
C45 C46 C47 138.6 . .
C24 C46 C47 101.6 . .
C45 C46 Lu12 91.5(4) . .
C24 C46 Lu12 82.6(4) . .
C47 C46 Lu12 75.7(4) . .
C45 C46 Lu3 72.63(14) . .
C24 C46 Lu3 85.11(15) . .
C47 C46 Lu3 94.65(13) . .
Lu12 C46 Lu3 20.1(4) . .
C45 C46 Lu10 71.4(3) . .
C24 C46 Lu10 108.3(5) . .
C47 C46 Lu10 80.8(5) . .
Lu12 C46 Lu10 27.7(5) . .
Lu3 C46 Lu10 25.1(5) . .
C48 C47 C46 125.9 . .
C48 C47 C68 120.0 . .
C46 C47 C68 108.4 . .
C48 C47 Lu12 90.9(4) . .
C46 C47 Lu12 66.1(3) . .
C68 C47 Lu12 89.0(4) . .
C48 C47 Lu10 111.7(3) . .
C46 C47 Lu10 66.1(5) . .
C68 C47 Lu10 66.4(5) . .
Lu12 C47 Lu10 25.4(6) . .
C48 C47 Lu3 102.93(12) . .
C46 C47 Lu3 53.94(9) . .
C68 C47 Lu3 88.23(12) . .
Lu12 C47 Lu3 13.4(4) . .
Lu10 C47 Lu3 21.9(5) . .
C47 C48 C49 123.3 . .
C47 C48 C71 131.8 . .
C49 C48 C71 98.0 . .
C47 C48 Lu12 60.6(3) . .
C49 C48 Lu12 87.6(3) . .
C71 C48 Lu12 102.0(3) . .
C48 C49 C25 112.6 . .
C48 C49 C50 129.5 . .
C25 C49 C50 107.0 . .
C48 C49 Lu11 93.6(5) . .
C25 C49 Lu11 62.9(4) . .
C50 C49 Lu11 77.6(5) . .
C48 C49 Lu12 65.0(3) . .
C25 C49 Lu12 65.8(3) . .
C50 C49 Lu12 107.1(3) . .
Lu11 C49 Lu12 32.2(6) . .
C51 C50 C27 124.1 . .
C51 C50 C49 116.5 . .
C27 C50 C49 107.3 . .
C51 C50 Lu11 96.2(3) . .
C27 C50 Lu11 65.9(5) . .
C49 C50 Lu11 71.6(5) . .
C50 C51 C72 122.3 . .
C50 C51 C52 114.1 . .
C72 C51 C52 113.9 . .
C29 C52 C53 124.2 . .
C29 C52 C51 118.2 . .
C53 C52 C51 104.9 . .
C73 C53 C52 104.6 . .
C73 C53 C54 126.0 . .
C52 C53 C54 120.4 . .
C31 C54 C55 125.8 . .
C31 C54 C53 117.1 . .
C55 C54 C53 111.3 . .
C31 C54 Lu13 61.7(3) . .
C55 C54 Lu13 78.9(3) . .
C53 C54 Lu13 111.9(2) . .
C31 C54 Lu9 78.8(5) . .
C55 C54 Lu9 57.1(5) . .
C53 C54 Lu9 118.2(3) . .
Lu13 C54 Lu9 21.9(4) . .
C54 C55 C75 123.8 . .
C54 C55 C56 114.0 . .
C75 C55 C56 118.8 . .
C54 C55 Lu9 92.0(4) . .
C75 C55 Lu9 102.7(5) . .
C56 C55 Lu9 55.1(3) . .
C54 C55 Lu7 113.12(18) . .
C75 C55 Lu7 54.4(3) . .
C56 C55 Lu7 87.0(3) . .
Lu9 C55 Lu7 48.5(6) . .
C54 C55 Lu13 70.6(3) . .
C75 C55 Lu13 113.15(18) . .
C56 C55 Lu13 67.9(3) . .
Lu9 C55 Lu13 21.4(4) . .
Lu7 C55 Lu13 60.3(3) . .
C54 C55 Lu15 110.1(5) . .
C75 C55 Lu15 88.2(5) . .
C56 C55 Lu15 52.7(4) . .
Lu9 C55 Lu15 18.7(6) . .
Lu7 C55 Lu15 37.5(5) . .
Lu13 C55 Lu15 39.7(5) . .
C57 C56 C33 117.8 . .
C57 C56 C55 121.2 . .
C33 C56 C55 116.5 . .
C57 C56 Lu9 91.1(3) . .
C33 C56 Lu9 72.4(7) . .
C55 C56 Lu9 85.1(4) . .
C57 C56 Lu15 66.3(6) . .
C33 C56 Lu15 88.3(6) . .
C55 C56 Lu15 95.0(6) . .
Lu9 C56 Lu15 25.1(6) . .
C57 C56 Lu13 110.6(3) . .
C33 C56 Lu13 59.2(2) . .
C55 C56 Lu13 79.8(3) . .
Lu9 C56 Lu13 20.2(5) . .
Lu15 C56 Lu13 45.2(6) . .
C57 C56 Lu7 75.82(9) . .
C33 C56 Lu7 116.2(2) . .
C55 C56 Lu7 61.41(10) . .
Lu9 C56 Lu7 44.2(8) . .
Lu15 C56 Lu7 37.1(6) . .
Lu13 C56 Lu7 58.0(3) . .
C56 C57 C77 124.3 . .
C56 C57 C58 111.9 . .
C77 C57 C58 115.2 . .
C56 C57 Lu15 78.0(7) . .
C77 C57 Lu15 87.2(6) . .
C58 C57 Lu15 74.7(7) . .
C56 C57 Lu9 54.5(2) . .
C77 C57 Lu9 103.4(5) . .
C58 C57 Lu9 83.5(4) . .
Lu15 C57 Lu9 23.7(7) . .
C56 C57 Lu5 101.50(15) . .
C77 C57 Lu5 67.60(17) . .
C58 C57 Lu5 72.37(19) . .
Lu15 C57 Lu5 24.6(7) . .
Lu9 C57 Lu5 48.2(3) . .
C56 C57 Lu7 77.26(17) . .
C77 C57 Lu7 60.5(2) . .
C58 C57 Lu7 109.31(17) . .
Lu15 C57 Lu7 37.1(7) . .
Lu9 C57 Lu7 44.0(6) . .
Lu5 C57 Lu7 38.8(2) . .
C57 C58 C35 140.5 . .
C57 C58 C59 98.0 . .
C35 C58 C59 108.4 . .
C57 C58 Lu15 65.9(7) . .
C35 C58 Lu15 87.8(7) . .
C59 C58 Lu15 83.9(7) . .
C57 C58 Lu9 63.1(5) . .
C35 C58 Lu9 81.8(5) . .
C59 C58 Lu9 104.3(4) . .
Lu15 C58 Lu9 20.5(6) . .
C57 C58 Lu5 76.2(2) . .
C35 C58 Lu5 93.28(19) . .
C59 C58 Lu5 57.85(16) . .
Lu15 C58 Lu5 26.2(7) . .
Lu9 C58 Lu5 46.6(4) . .
C60 C59 C78 122.1 . .
C60 C59 C58 117.6 . .
C78 C59 C58 109.9 . .
C60 C59 Lu5 80.0(2) . .
C78 C59 Lu5 74.6(2) . .
C58 C59 Lu5 83.1(2) . .
C60 C59 Lu15 96.2(6) . .
C78 C59 Lu15 83.4(6) . .
C58 C59 Lu15 56.6(5) . .
Lu5 C59 Lu15 26.7(5) . .
C60 C59 Lu2 80.88(6) . .
C78 C59 Lu2 61.3 . .
C58 C59 Lu2 97.55(6) . .
Lu5 C59 Lu2 16.88(18) . .
Lu15 C59 Lu2 41.3(5) . .
C37 C60 C59 119.1 . .
C37 C60 C61 119.4 . .
C59 C60 C61 116.9 . .
C37 C60 Lu5 97.67(18) . .
C59 C60 Lu5 65.30(19) . .
C61 C60 Lu5 85.64(19) . .
C37 C60 Lu2 109.9 . .
C59 C60 Lu2 69.5 . .
C61 C60 Lu2 70.42(5) . .
Lu5 C60 Lu2 16.33(17) . .
C80 C61 C62 123.5 . .
C80 C61 C60 115.3 . .
C62 C61 C60 110.4 . .
C80 C61 Lu2 61.6 . .
C62 C61 Lu2 101.4 . .
C60 C61 Lu2 75.94(5) . .
C80 C61 Lu5 76.40(18) . .
C62 C61 Lu5 100.98(15) . .
C60 C61 Lu5 59.67(15) . .
Lu2 C61 Lu5 17.20(15) . .
C61 C62 C39 130.3 . .
C61 C62 C63 113.5 . .
C39 C62 C63 107.8 . .
C61 C62 Lu14 81.6(7) . .
C39 C62 Lu14 98.5(5) . .
C63 C62 Lu14 57.9(5) . .
C64 C63 C41 117.1 . .
C64 C63 C62 128.0 . .
C41 C63 C62 102.9 . .
C64 C63 Lu14 62.8(6) . .
C41 C63 Lu14 86.9(7) . .
C62 C63 Lu14 89.3(6) . .
C63 C64 C65 126.4 . .
C63 C64 C81 115.5 . .
C65 C64 C81 110.4 . .
C63 C64 Lu14 82.0(7) . .
C65 C64 Lu14 83.6(7) . .
C81 C64 Lu14 76.3(9) . .
C66 C65 C64 122.1 . .
C66 C65 C43 113.6 . .
C64 C65 C43 114.6 . .
C66 C65 Lu14 88.8(6) . .
C64 C65 Lu14 61.4(5) . .
C43 C65 Lu14 90.1(7) . .
C66 C65 Lu10 68.0(4) . .
C64 C65 Lu10 105.2(3) . .
C43 C65 Lu10 66.4(4) . .
Lu14 C65 Lu10 44.1(6) . .
C83 C66 C65 134.7 . .
C83 C66 C67 107.1 . .
C65 C66 C67 110.5 . .
C83 C66 Lu10 94.2(4) . .
C65 C66 Lu10 85.0(3) . .
C67 C66 Lu10 57.9(3) . .
C83 C66 Lu14 85.5(7) . .
C65 C66 Lu14 62.9(5) . .
C67 C66 Lu14 101.6(5) . .
Lu10 C66 Lu14 44.0(5) . .
C83 C66 Lu8 53.94(17) . .
C65 C66 Lu8 106.06(12) . .
C67 C66 Lu8 83.68(16) . .
Lu10 C66 Lu8 41.5(4) . .
Lu14 C66 Lu8 43.3(5) . .
C44 C67 C66 107.3 . .
C44 C67 C68 121.2 . .
C66 C67 C68 121.3 . .
C44 C67 Lu10 68.8(5) . .
C66 C67 Lu10 90.3(3) . .
C68 C67 Lu10 79.2(3) . .
C67 C68 C47 115.9 . .
C67 C68 C69 124.9 . .
C47 C68 C69 111.7 . .
C67 C68 Lu10 65.3(2) . .
C47 C68 Lu10 78.4(3) . .
C69 C68 Lu10 100.0(4) . .
C67 C68 Lu12 86.9(4) . .
C47 C68 Lu12 56.5(3) . .
C69 C68 Lu12 97.4(3) . .
Lu10 C68 Lu12 24.5(4) . .
C67 C68 Lu8 86.61(13) . .
C47 C68 Lu8 102.00(12) . .
C69 C68 Lu8 57.17(17) . .
Lu10 C68 Lu8 43.7(5) . .
Lu12 C68 Lu8 51.4(3) . .
C84 C69 C70 126.0 . .
C84 C69 C68 105.7 . .
C70 C69 C68 119.9 . .
C84 C69 Lu8 61.17(14) . .
C70 C69 Lu8 90.53(19) . .
C68 C69 Lu8 89.3(3) . .
C69 C70 C71 123.8 . .
C69 C70 C86 88.4 . .
C71 C70 C86 135.7 . .
C69 C70 C72 155.6 . .
C71 C70 C72 38.8 . .
C86 C70 C72 99.6 . .
C69 C70 Lu8 59.3(2) . .
C71 C70 Lu8 109.35(16) . .
C86 C70 Lu8 58.4(2) . .
C72 C70 Lu8 105.50(17) . .
C72 C71 C70 93.8 . .
C72 C71 C48 143.7 . .
C70 C71 C48 112.2 . .
C71 C72 C51 107.3 . .
C71 C72 C73 140.6 . .
C51 C72 C73 98.3 . .
C71 C72 C70 47.3 . .
C51 C72 C70 148.9 . .
C73 C72 C70 97.1 . .
C53 C73 C74 119.7 . .
C53 C73 C72 118.2 . .
C74 C73 C72 114.6 . .
C86 C74 C75 122.3 . .
C86 C74 C73 115.5 . .
C75 C74 C73 115.6 . .
C86 C74 Lu7 86.2(4) . .
C75 C74 Lu7 52.2(3) . .
C73 C74 Lu7 109.9(2) . .
C86 C74 Lu8 52.90(18) . .
C75 C74 Lu8 85.7(2) . .
C73 C74 Lu8 109.71(15) . .
Lu7 C74 Lu8 35.8(4) . .
C74 C75 C55 123.2 . .
C74 C75 C76 114.2 . .
C55 C75 C76 118.0 . .
C74 C75 Lu7 93.8(4) . .
C55 C75 Lu7 89.8(4) . .
C76 C75 Lu7 64.2(2) . .
C74 C75 Lu9 117.7(2) . .
C55 C75 Lu9 48.9(3) . .
C76 C75 Lu9 85.8(2) . .
Lu7 C75 Lu9 41.1(5) . .
C87 C76 C77 120.2 . .
C87 C76 C75 120.0 . .
C77 C76 C75 115.4 . .
C87 C76 Lu7 88.2(5) . .
C77 C76 Lu7 90.8(4) . .
C75 C76 Lu7 70.09(17) . .
C87 C76 Lu2 73.48(5) . .
C77 C76 Lu2 69.72(6) . .
C75 C76 Lu2 108.10(5) . .
Lu7 C76 Lu2 38.38(10) . .
C87 C76 Lu15 110.7(4) . .
C77 C76 Lu15 56.8(4) . .
C75 C76 Lu15 82.0(5) . .
Lu7 C76 Lu15 34.7(5) . .
Lu2 C76 Lu15 38.2(5) . .
C87 C76 Lu5 89.81(15) . .
C77 C76 Lu5 58.30(12) . .
C75 C76 Lu5 101.38(14) . .
Lu7 C76 Lu5 37.42(19) . .
Lu2 C76 Lu5 16.39(14) . .
Lu15 C76 Lu5 23.2(5) . .
C87 C76 Lu8 54.86(15) . .
C77 C76 Lu8 113.18(12) . .
C75 C76 Lu8 84.39(9) . .
Lu7 C76 Lu8 34.3(5) . .
Lu2 C76 Lu8 43.87(10) . .
Lu15 C76 Lu8 65.3(4) . .
Lu5 C76 Lu8 55.29(17) . .
C57 C77 C78 111.7 . .
C57 C77 C76 121.8 . .
C78 C77 C76 117.3 . .
C57 C77 Lu15 58.3(5) . .
C78 C77 Lu15 89.3(7) . .
C76 C77 Lu15 92.6(5) . .
C57 C77 Lu7 90.2(4) . .
C78 C77 Lu7 101.06(18) . .
C76 C77 Lu7 52.3(3) . .
Lu15 C77 Lu7 41.0(6) . .
C57 C77 Lu5 81.75(18) . .
C78 C77 Lu5 65.47(18) . .
C76 C77 Lu5 91.58(18) . .
Lu15 C77 Lu5 27.5(6) . .
Lu7 C77 Lu5 43.3(2) . .
C57 C77 Lu2 99.6 . .
C78 C77 Lu2 61.94(6) . .
C76 C77 Lu2 78.65(6) . .
Lu15 C77 Lu2 42.7(5) . .
Lu7 C77 Lu2 39.43(15) . .
Lu5 C77 Lu2 18.37(17) . .
C57 C77 Lu9 49.7(3) . .
C78 C77 Lu9 105.47(19) . .
C76 C77 Lu9 87.6(3) . .
Lu15 C77 Lu9 16.4(7) . .
Lu7 C77 Lu9 41.4(5) . .
Lu5 C77 Lu9 43.3(3) . .
Lu2 C77 Lu9 56.5(3) . .
C79 C78 C59 122.5 . .
C79 C78 C77 123.2 . .
C59 C78 C77 105.0 . .
C79 C78 Lu5 89.69(19) . .
C59 C78 Lu5 69.0(2) . .
C77 C78 Lu5 79.3(2) . .
C79 C78 Lu2 70.56(6) . .
C59 C78 Lu2 86.40(6) . .
C77 C78 Lu2 84.46(7) . .
Lu5 C78 Lu2 20.57(17) . .
C79 C78 Lu15 111.3(4) . .
C59 C78 Lu15 66.5(5) . .
C77 C78 Lu15 59.4(6) . .
Lu5 C78 Lu15 23.9(5) . .
Lu2 C78 Lu15 40.8(4) . .
C78 C79 C88 118.2 . .
C78 C79 C80 113.8 . .
C88 C79 C80 112.3 . .
C78 C79 Lu2 73.72(6) . .
C88 C79 Lu2 80.85(7) . .
C80 C79 Lu2 75.17(7) . .
C78 C79 Lu5 58.65(15) . .
C88 C79 Lu5 94.79(18) . .
C80 C79 Lu5 77.8(2) . .
Lu2 C79 Lu5 16.62(13) . .
C61 C80 C79 128.7 . .
C61 C80 C81 126.6 . .
C79 C80 C81 97.6 . .
C61 C80 Lu2 89.70(6) . .
C79 C80 Lu2 67.94(5) . .
C81 C80 Lu2 84.48(6) . .
C61 C80 Lu14 87.3(6) . .
C79 C80 Lu14 98.4(6) . .
C81 C80 Lu14 57.5(4) . .
Lu2 C80 Lu14 37.8(5) . .
C61 C80 Lu5 76.61(19) . .
C79 C80 Lu5 70.90(18) . .
C81 C80 Lu5 99.75(14) . .
Lu2 C80 Lu5 16.06(15) . .
Lu14 C80 Lu5 47.8(5) . .
C82 C81 C64 122.8 . .
C82 C81 C80 115.5 . .
C64 C81 C80 112.4 . .
C82 C81 Lu14 87.3(7) . .
C64 C81 Lu14 66.2(7) . .
C80 C81 Lu14 86.5(7) . .
C82 C81 Lu2 78.06(6) . .
C64 C81 Lu2 101.8 . .
C80 C81 Lu2 59.57(6) . .
Lu14 C81 Lu2 38.0(7) . .
C81 C82 C88 102.6 . .
C81 C82 C83 121.4 . .
C88 C82 C83 130.8 . .
C81 C82 Lu14 61.3(5) . .
C88 C82 Lu14 98.3(6) . .
C83 C82 Lu14 85.6(6) . .
C81 C82 Lu8 108.13(15) . .
C88 C82 Lu8 82.0(3) . .
C83 C82 Lu8 65.0(2) . .
Lu14 C82 Lu8 47.3(5) . .
C81 C82 Lu2 73.20(6) . .
C88 C82 Lu2 62.2 . .
C83 C82 Lu2 108.09(5) . .
Lu14 C82 Lu2 36.1(6) . .
Lu8 C82 Lu2 45.77(19) . .
C66 C83 C84 137.5 . .
C66 C83 C82 107.9 . .
C84 C83 C82 105.5 . .
C66 C83 Lu8 101.6(2) . .
C84 C83 Lu8 59.51(15) . .
C82 C83 Lu8 80.0(2) . .
C66 C83 Lu14 69.5(6) . .
C84 C83 Lu14 104.6(4) . .
C82 C83 Lu14 63.0(6) . .
Lu8 C83 Lu14 45.1(4) . .
C69 C84 C85 104.8 . .
C69 C84 C83 122.9 . .
C85 C84 C83 124.3 . .
C69 C84 Lu8 86.05(16) . .
C85 C84 Lu8 71.2(3) . .
C83 C84 Lu8 84.3(2) . .
C84 C85 C86 102.1 . .
C84 C85 C87 129.6 . .
C86 C85 C87 116.5 . .
C84 C85 Lu8 70.4(3) . .
C86 C85 Lu8 82.34(11) . .
C87 C85 Lu8 83.4(3) . .
C84 C85 Lu7 108.5(2) . .
C86 C85 Lu7 75.75(7) . .
C87 C85 Lu7 56.51(16) . .
Lu8 C85 Lu7 38.2(4) . .
C74 C86 C85 123.9 . .
C74 C86 C70 113.2 . .
C85 C86 C70 118.5 . .
C74 C86 Lu8 99.8(3) . .
C85 C86 Lu8 61.98(14) . .
C70 C86 Lu8 89.1(3) . .
C74 C86 Lu7 64.6(2) . .
C85 C86 Lu7 75.17(18) . .
C70 C86 Lu7 114.71(19) . .
Lu8 C86 Lu7 37.9(4) . .
C76 C87 C85 122.4 . .
C76 C87 C88 120.9 . .
C85 C87 C88 112.7 . .
C76 C87 Lu7 55.4(3) . .
C85 C87 Lu7 92.8(3) . .
C88 C87 Lu7 104.98(13) . .
C76 C87 Lu8 97.2(2) . .
C85 C87 Lu8 60.73(18) . .
C88 C87 Lu8 91.41(13) . .
Lu7 C87 Lu8 42.6(4) . .
C76 C87 Lu2 76.92(6) . .
C85 C87 Lu2 109.09(5) . .
C88 C87 Lu2 66.02(6) . .
Lu7 C87 Lu2 39.02(10) . .
Lu8 C87 Lu2 48.83(15) . .
C79 C88 C87 119.9 . .
C79 C88 C82 111.2 . .
C87 C88 C82 113.4 . .
C79 C88 Lu2 64.66(6) . .
C87 C88 Lu2 81.10(7) . .
C82 C88 Lu2 85.22(5) . .
C79 C88 Lu8 110.76(15) . .
C87 C88 Lu8 57.59(19) . .
C82 C88 Lu8 66.5(2) . .
Lu2 C88 Lu8 46.12(16) . .
N3A Ni1A N3A 177.52(17) . 6
N3A Ni1A N4A 90.18(9) . .
N3A Ni1A N4A 90.17(9) 6 .
N3A Ni1A N2A 89.80(9) . .
N3A Ni1A N2A 89.80(9) 6 .
N4A Ni1A N2A 178.78(17) . .
C2A C1A C18A 113.8(3) . .
C13A N2A C13A 104.2(4) . 6
C13A N2A Ni1A 127.9(2) . .
C13A N2A Ni1A 127.9(2) 6 .
C2A C2A C15A 106.5(2) 6 .
C2A C2A C1A 129.2(2) 6 .
C15A C2A C1A 124.2(4) . .
C11A N3A C4A 104.4(3) . .
C11A N3A Ni1A 128.1(2) . .
C4A N3A Ni1A 127.6(2) . .
C4A C3A C15A 124.2(3) . .
C3A C4A N3A 125.3(3) . .
C3A C4A C5A 123.5(3) . .
N3A C4A C5A 111.2(3) . .
C15A N4A C15A 104.3(4) 6 .
C15A N4A Ni1A 127.9(2) 6 .
C15A N4A Ni1A 127.9(2) . .
C8A C5A C4A 106.5(3) . .
C8A C5A C6A 128.4(4) . .
C4A C5A C6A 125.1(3) . .
C5A C6A C7A 112.8(3) . .
C5A C8A C11A 106.1(3) . .
C5A C8A C9A 128.3(3) . .
C11A C8A C9A 125.6(3) . .
C8A C9A C10A 112.6(4) . .
N3A C11A C12A 125.0(3) . .
N3A C11A C8A 111.8(3) . .
C12A C11A C8A 123.2(3) . .
C13A C12A C11A 124.4(3) . .
C12A C13A N2A 124.9(3) . .
C12A C13A C14A 123.7(3) . .
N2A C13A C14A 111.5(3) . .
C14A C14A C13A 106.4(2) 6 .
C14A C14A C16A 128.5(2) 6 .
C13A C14A C16A 125.1(3) . .
C3A C15A N4A 124.9(3) . .
C3A C15A C2A 123.8(3) . .
N4A C15A C2A 111.3(3) . .
C14A C16A C17A 112.9(3) . .
C2B C1B C2B 121.5(11) . 6
C1B C2B C3B 119.9(8) . .
C2B C3B C4B 121.1(9) . .
C3B C4B C3B 116.4(12) . 6
C2C C3C C3C 118.9(5) . 2_656
C2C C4C C4C 125.2(6) . 2_656
C4C C2C C3C 115.9(8) . .
loop_
_geom_bond_atom_site_label_1
_geom_bond_atom_site_label_2
_geom_bond_distance
_geom_bond_site_symmetry_2
Lu1 Lu4 1.199(6) 6
Lu1 Lu4 1.199(6) .
Lu1 Lu13 1.473(16) 6
Lu1 Lu13 1.473(16) .
Lu1 Lu9 2.07(2) .
Lu1 Lu6 2.147(7) .
Lu1 Lu6 2.147(7) 6
Lu1 C3 2.3104(17) .
Lu1 C2 2.402(2) .
Lu1 Lu15 2.45(2) 6
Lu1 Lu15 2.45(2) .
Lu1 C15 2.452(2) .
Lu2 Lu5 0.829(7) .
Lu2 Lu14 1.70(3) .
Lu2 Lu7 1.721(4) .
Lu2 Lu15 1.85(2) .
Lu2 Lu8 2.140(7) .
Lu2 C79 2.291(2) .
Lu2 C78 2.332(2) .
Lu2 C80 2.390(3) .
Lu2 C88 2.503(2) .
Lu2 Lu11 2.525(17) 6
Lu2 C77 2.630(2) .
Lu2 C59 2.654(3) .
Lu3 Lu12 0.779(13) .
Lu3 Lu3 0.874(11) 6
Lu3 Lu16 1.03(3) .
Lu3 Lu10 1.04(2) .
Lu3 Lu16 1.52(3) 6
Lu3 Lu12 1.542(17) 6
Lu3 Lu11 1.88(3) .
Lu3 Lu14 2.04(3) 6
Lu3 C22 2.103(5) .
Lu3 C45 2.218(5) .
Lu3 C23 2.266(5) .
Lu3 C46 2.268(6) .
Lu4 Lu13 1.204(15) 6
Lu4 Lu6 1.363(9) .
Lu4 Lu15 2.05(3) .
Lu4 Lu13 2.115(15) .
Lu4 Lu9 2.146(18) .
Lu4 C16 2.168(4) .
Lu4 C17 2.279(5) .
Lu4 Lu5 2.292(9) .
Lu4 Lu11 2.32(2) 6
Lu4 Lu4 2.319(12) 6
Lu4 C15 2.393(4) .
Lu5 Lu15 1.17(2) .
Lu5 Lu7 1.823(11) .
Lu5 Lu13 1.982(15) 6
Lu5 Lu9 2.063(14) .
Lu5 C59 2.235(6) .
Lu5 Lu14 2.25(3) .
Lu5 C78 2.308(6) .
Lu5 Lu6 2.420(10) .
Lu5 C60 2.422(8) .
Lu5 C77 2.494(8) .
Lu6 Lu11 1.04(2) 6
Lu6 Lu16 1.66(3) 6
Lu6 C19 2.173(6) .
Lu6 C18 2.227(6) .
Lu6 C40 2.309(6) .
Lu6 Lu13 2.376(15) 6
Lu6 C38 2.380(7) .
Lu6 Lu14 2.41(2) .
Lu6 C17 2.456(7) .
Lu7 Lu15 1.70(3) .
Lu7 Lu15 1.70(3) 6
Lu7 Lu2 1.721(4) 6
Lu7 Lu8 1.740(19) .
Lu7 Lu5 1.823(11) 6
Lu7 C76 1.935(10) .
Lu7 Lu9 1.97(3) .
Lu7 C75 2.021(8) .
Lu7 C87 2.348(12) .
Lu7 C77 2.446(10) .
Lu8 Lu10 2.03(2) .
Lu8 C84 2.130(8) .
Lu8 Lu2 2.140(7) 6
Lu8 C85 2.140(9) .
Lu8 Lu14 2.14(3) .
Lu8 Lu14 2.14(3) 6
Lu8 C86 2.403(7) .
Lu8 C69 2.425(8) .
Lu8 C87 2.437(11) .
Lu8 Lu12 2.447(16) 6
Lu9 Lu15 0.94(2) .
Lu9 Lu15 0.94(2) 6
Lu9 Lu13 1.024(18) .
Lu9 Lu13 1.024(18) 6
Lu9 C56 1.896(16) .
Lu9 C33 1.989(16) .
Lu9 Lu5 2.063(14) 6
Lu9 Lu4 2.146(18) 6
Lu10 Lu3 1.04(2) 6
Lu10 Lu12 1.138(19) 6
Lu10 Lu12 1.138(19) .
Lu10 Lu16 1.91(4) .
Lu10 Lu16 1.91(4) 6
Lu10 Lu14 2.06(3) 6
Lu10 Lu14 2.06(3) .
Lu10 C44 2.205(15) .
Lu10 C67 2.29(2) .
Lu10 C45 2.355(17) .
Lu11 Lu6 1.04(2) 6
Lu11 Lu16 1.21(3) .
Lu11 Lu12 1.57(3) .
Lu11 Lu14 1.60(4) 6
Lu11 C26 2.240(17) .
Lu11 C6 2.285(18) .
Lu11 Lu4 2.32(2) 6
Lu11 C25 2.430(18) .
Lu11 Lu2 2.525(17) 6
Lu11 Lu5 2.556(18) 6
Lu11 C27 2.57(2) .
Lu12 Lu16 1.28(3) .
Lu12 Lu14 1.31(3) 6
Lu12 Lu3 1.542(17) 6
Lu12 Lu12 2.02(3) 6
Lu12 Lu16 2.14(3) 6
Lu12 C46 2.160(10) .
Lu12 C47 2.290(11) .
Lu12 C24 2.436(11) .
Lu13 Lu15 1.17(2) 6
Lu13 Lu4 1.205(15) 6
Lu13 Lu13 1.30(3) 6
Lu13 Lu15 1.86(2) .
Lu13 Lu5 1.982(15) 6
Lu13 C32 2.032(9) .
Lu13 C33 2.206(12) .
Lu13 C13 2.298(11) .
Lu13 C31 2.309(12) .
Lu14 Lu12 1.31(3) 6
Lu14 Lu11 1.60(4) 6
Lu14 Lu3 2.04(3) 6
Lu14 Lu16 2.10(4) 6
Lu14 C64 2.198(17) .
Lu14 C81 2.33(2) .
Lu14 C63 2.45(2) .
Lu15 Lu13 1.17(2) 6
Lu15 Lu15 1.62(5) 6
Lu15 C57 2.063(19) .
Lu15 C58 2.180(17) .
Lu15 C56 2.20(2) .
Lu15 C77 2.42(2) .
Lu16 Lu16 1.45(6) 6
Lu16 Lu3 1.52(3) 6
Lu16 Lu6 1.66(3) 6
Lu16 C7 2.10(2) .
Lu16 Lu14 2.10(4) 6
Lu16 Lu12 2.14(3) 6
Lu16 C23 2.335(18) .
Lu16 C20 2.42(3) .
C1 C9 1.2267 .
C1 C5 1.5282 .
C1 C2 1.5456 .
C2 C3 1.3939 .
C2 C12 1.4267 .
C3 C15 1.3293 .
C3 C4 1.4879 .
C4 C5 1.3001 .
C4 C18 1.5289 .
C4 C17 1.9751 .
C5 C20 1.4038 .
C6 C26 1.2956 .
C6 C7 1.5044 .
C6 C9 1.5838 .
C7 C20 1.1761 .
C7 C23 1.4967 .
C8 C21 1.3490 .
C8 C19 1.5592 .
C8 C20 1.6498 .
C9 C10 1.5506 .
C10 C11 1.3615 .
C10 C28 1.4621 .
C11 C30 1.3848 .
C11 C12 1.4894 .
C12 C13 1.4341 .
C13 C32 1.4435 .
C13 C14 1.6136 .
C14 C15 1.2834 .
C14 C34 1.3776 .
C15 C16 1.2782 .
C16 C17 1.3346 .
C16 C36 1.4550 .
C17 C18 1.3954 .
C17 C38 1.4083 .
C18 C19 1.3643 .
C19 C40 1.3425 .
C21 C22 1.3433 .
C21 C42 1.5219 .
C22 C45 1.4138 .
C22 C23 1.5100 .
C23 C24 1.5176 .
C24 C25 1.1245 .
C24 C46 1.4365 .
C25 C49 1.3670 .
C25 C26 1.4438 .
C26 C27 1.4394 .
C27 C50 1.3570 .
C27 C28 1.5050 .
C28 C29 1.2426 .
C29 C52 1.3096 .
C29 C30 1.5867 .
C30 C31 1.5013 .
C31 C54 1.3306 .
C31 C32 1.4362 .
C32 C33 1.2849 .
C33 C56 1.4076 .
C33 C34 1.4179 .
C34 C35 1.5226 .
C35 C36 1.1497 .
C35 C58 1.4606 .
C36 C37 1.4798 .
C37 C60 1.3843 .
C37 C38 1.7092 .
C38 C39 1.5343 .
C39 C40 1.2694 .
C39 C62 1.4837 .
C40 C41 1.6577 .
C41 C63 1.5107 .
C41 C42 1.5422 .
C42 C43 1.4703 .
C43 C65 1.5280 .
C43 C44 1.5570 .
C44 C67 1.3789 .
C44 C45 1.4592 .
C45 C46 1.1615 .
C46 C47 1.4620 .
C47 C48 1.2536 .
C47 C68 1.5555 .
C48 C49 1.3324 .
C48 C71 1.4675 .
C49 C50 1.4724 .
C50 C51 1.3271 .
C51 C72 1.4224 .
C51 C52 1.5203 .
C52 C53 1.4462 .
C53 C73 1.4000 .
C53 C54 1.5185 .
C54 C55 1.4101 .
C55 C75 1.4547 .
C55 C56 1.4832 .
C56 C57 1.3118 .
C57 C77 1.3751 .
C57 C58 1.4355 .
C58 C59 1.6639 .
C59 C60 1.3992 .
C59 C78 1.4213 .
C60 C61 1.5975 .
C61 C80 1.3053 .
C61 C62 1.3384 .
C62 C63 1.5617 .
C63 C64 1.4237 .
C64 C65 1.4383 .
C64 C81 1.4625 .
C65 C66 1.3257 .
C66 C83 1.2592 .
C66 C67 1.4246 .
C67 C68 1.4649 .
C68 C69 1.5951 .
C69 C84 1.3160 .
C69 C70 1.4150 .
C70 C71 1.4558 .
C70 C86 1.5121 .
C70 C72 1.9753 .
C71 C72 1.2411 .
C72 C73 1.4783 .
C73 C74 1.4670 .
C74 C86 1.3792 .
C74 C75 1.4306 .
C75 C76 1.5401 .
C76 C87 1.3940 .
C76 C77 1.4706 .
C77 C78 1.4624 .
C78 C79 1.4183 .
C79 C88 1.4353 .
C79 C80 1.4839 .
C80 C81 1.6266 .
C81 C82 1.3854 .
C82 C88 1.5226 .
C82 C83 1.5570 .
C83 C84 1.4606 .
C84 C85 1.4050 .
C85 C86 1.4140 .
C85 C87 1.4371 .
C87 C88 1.4868 .
Ni1A N3A 1.963(3) .
Ni1A N3A 1.963(3) 6
Ni1A N4A 1.963(4) .
Ni1A N2A 1.965(4) .
C1A C2A 1.500(5) .
C1A C18A 1.522(6) .
N2A C13A 1.377(4) .
N2A C13A 1.377(4) 6
C2A C2A 1.355(8) 6
C2A C15A 1.448(5) .
N3A C11A 1.369(5) .
N3A C4A 1.380(5) .
C3A C4A 1.377(5) .
C3A C15A 1.379(5) .
C4A C5A 1.445(5) .
N4A C15A 1.381(4) 6
N4A C15A 1.381(4) .
C5A C8A 1.360(5) .
C5A C6A 1.499(5) .
C6A C7A 1.525(6) .
C8A C11A 1.445(5) .
C8A C9A 1.496(5) .
C9A C10A 1.522(6) .
C11A C12A 1.377(5) .
C12A C13A 1.371(5) .
C13A C14A 1.442(5) .
C14A C14A 1.360(8) 6
C14A C16A 1.501(5) .
C16A C17A 1.531(6) .
C1B C2B 1.338(8) .
C1B C2B 1.338(8) 6
C2B C3B 1.368(11) .
C3B C4B 1.393(11) .
C4B C3B 1.393(11) 6
C3C C2C 1.371(12) .
C3C C3C 1.50(2) 2_656
C4C C2C 1.243(12) .
C4C C4C 1.39(2) 2_656
