#------------------------------------------------------------------------------
#$Date: 2018-10-17 01:29:19 +0300 (Wed, 17 Oct 2018) $
#$Revision: 211475 $
#$URL: file:///home/coder/svn-repositories/cod/cif/1/55/00/1550037.cif $
#------------------------------------------------------------------------------
#
# This file is available in the Crystallography Open Database (COD),
# http://www.crystallography.net/
#
# All data on this site have been placed in the public domain by the
# contributors.
#
data_1550037
loop_
_publ_author_name
'Han, Haixiang'
'Wei, Zheng'
'Filatov, Alexander S.'
'Carozza, Jesse C.'
'Alkan, Melisa'
'Rogachev, Andrey Yu'
'Shevtsov, Andrey'
'Abakumov, Artem'
'Pak, Chongin'
'Shatruk, Michael'
'Chen, Yu-Sheng'
'Dikarev, Evgeny V.'
_publ_section_title
;
 Three to Tango Requires a Site-Specific Substitution: Heterotrimetallic
 Molecular Precursors for High-Voltage Rechargeable Batteries
;
_journal_name_full               'Chemical Science'
_journal_paper_doi               10.1039/C8SC03816C
_journal_year                    2019
_chemical_formula_moiety         'C55 H95 Co0.50 Li Mn1.50 O10'
_chemical_formula_sum            'C55 H95 Co0.5 Li Mn1.5 O10'
_chemical_formula_weight         1035.12
_space_group_crystal_system      triclinic
_space_group_IT_number           2
_space_group_name_Hall           '-P 1'
_space_group_name_H-M_alt        'P -1'
_symmetry_space_group_name_Hall  '-P 1'
_symmetry_space_group_name_H-M   'P -1'
_atom_sites_solution_hydrogens   geom
_atom_sites_solution_primary     dual
_atom_sites_solution_secondary   difmap
_audit_creation_method           SHELXL-2018/3
_audit_update_record
;
2018-07-10 deposited with the CCDC.
2018-10-16 downloaded from the CCDC.
;
_cell_angle_alpha                68.6974(7)
_cell_angle_beta                 88.5520(8)
_cell_angle_gamma                80.5081(8)
_cell_formula_units_Z            4
_cell_length_a                   11.5679(4)
_cell_length_b                   20.2647(6)
_cell_length_c                   27.7420(7)
_cell_measurement_reflns_used    9937
_cell_measurement_temperature    100(2)
_cell_measurement_theta_max      15.99
_cell_measurement_theta_min      2.22
_cell_volume                     5971.7(3)
_computing_cell_refinement       'SAINT V.8.38A (Bruker AXS Inc., 2017)'
_computing_data_collection       'APEX2 v.2014.9-0 (Bruker AXS Inc., 2014)'
_computing_data_reduction        'SAINT V.8.38A (Bruker AXS Inc., 2017)'
_computing_molecular_graphics    'Xshell v.6.3.1 (Bruker AXS Inc., 2016)'
_computing_publication_material  'APEX2 v.2014.9-0 (Bruker AXS Inc., 2014)'
_computing_structure_refinement  'SHELXL-2018/3 (Sheldrick, 2018)'
_computing_structure_solution    'SHELXT 2014/5 (Sheldrick, 2014)'
_diffrn_ambient_temperature      100(2)
_diffrn_detector_area_resol_mean 8
_diffrn_measured_fraction_theta_full 0.976
_diffrn_measured_fraction_theta_max 0.972
_diffrn_measurement_device_type  'Bruker D8 fixed-chi'
_diffrn_measurement_method       'phi rotation'
_diffrn_radiation_type           synchrotron
_diffrn_radiation_wavelength     0.41328
_diffrn_reflns_av_R_equivalents  0.0916
_diffrn_reflns_av_unetI/netI     0.0707
_diffrn_reflns_Laue_measured_fraction_full 0.976
_diffrn_reflns_Laue_measured_fraction_max 0.972
_diffrn_reflns_limit_h_max       15
_diffrn_reflns_limit_h_min       -15
_diffrn_reflns_limit_k_max       27
_diffrn_reflns_limit_k_min       -26
_diffrn_reflns_limit_l_max       33
_diffrn_reflns_limit_l_min       -35
_diffrn_reflns_number            170703
_diffrn_reflns_point_group_measured_fraction_full 0.976
_diffrn_reflns_point_group_measured_fraction_max 0.972
_diffrn_reflns_theta_full        14.357
_diffrn_reflns_theta_max         15.996
_diffrn_reflns_theta_min         0.636
_diffrn_source                   synchrotron
_exptl_absorpt_coefficient_mu    0.124
_exptl_absorpt_correction_T_max  1
_exptl_absorpt_correction_T_min  0.9357
_exptl_absorpt_correction_type   multi-scan
_exptl_absorpt_process_details
;
SADABS-2016/2 (Bruker,2016/2) was 
used for absorption correction. 
Krause, L., Herbst-Irmer, R., 
Sheldrick G.M. & Stalke D.,
 J. Appl. Cryst. 48 (2015) 3-10
;
_exptl_crystal_colour            yellow
_exptl_crystal_density_diffrn    1.151
_exptl_crystal_density_meas      ?
_exptl_crystal_density_method    none
_exptl_crystal_description       block
_exptl_crystal_F_000             2236
_exptl_crystal_size_max          0.024
_exptl_crystal_size_mid          0.023
_exptl_crystal_size_min          0.011
_refine_diff_density_max         0.652
_refine_diff_density_min         -0.528
_refine_diff_density_rms         0.059
_refine_ls_extinction_method     none
_refine_ls_goodness_of_fit_ref   1.018
_refine_ls_hydrogen_treatment    constr
_refine_ls_matrix_type           full
_refine_ls_number_parameters     1868
_refine_ls_number_reflns         28845
_refine_ls_number_restraints     3473
_refine_ls_restrained_S_all      0.967
_refine_ls_R_factor_all          0.0735
_refine_ls_R_factor_gt           0.0465
_refine_ls_shift/su_max          0.002
_refine_ls_shift/su_mean         0.000
_refine_ls_structure_factor_coef Fsqd
_refine_ls_weighting_details
'w=1/[\s^2^(Fo^2^)+(0.0434P)^2^+2.8380P] where P=(Fo^2^+2Fc^2^)/3'
_refine_ls_weighting_scheme      calc
_refine_ls_wR_factor_gt          0.1100
_refine_ls_wR_factor_ref         0.1238
_reflns_Friedel_coverage         0.000
_reflns_number_gt                21032
_reflns_number_total             28845
_reflns_threshold_expression     'I > 2\s(I)'
_cod_data_source_file            c8sc03816c3.cif
_cod_data_source_block           LiMnCothd5_2
_cod_depositor_comments
;
The following automatic conversions were performed:

'_exptl_crystal_density_meas' value 'not measured' was changed to '?'
- the value is perceived as not measured.

Automatic conversion script
Id: cif_fix_values 4973 2017-02-22 13:04:09Z antanas 
;
_cod_original_formula_sum        'C55 H95 Co0.50 Li Mn1.50 O10'
_cod_database_code               1550037
_shelx_shelxl_version_number     2018/3
_shelx_space_group_comment
;
The symmetry employed for this shelxl refinement is uniquely defined
by the following loop, which should always be used as a source of
symmetry information in preference to the above space-group names.
They are only intended as comments.
;
_shelx_estimated_absorpt_t_min   0.997
_shelx_estimated_absorpt_t_max   0.999
_shelx_res_file
;
TITL LiMn1.5Co0.5
    LiMn1.5Co0.5(thd)5.res
    created by SHELXL-2018/3 at 00:19:34 on 09-Jun-2018
CELL 0.41328 11.5679 20.2647 27.742 68.6974 88.552 80.5081
ZERR 4 0.0004 0.0006 0.0007 0.0007 0.0008 0.0008
LATT 1
SFAC C H Co Li Mn O
DISP C 0 0.001 5.2
DISP Co 0.216 0.356 870.3
DISP H 0 0 0.6
DISP Li 0 0 1.9
DISP Mn 0.18 0.262 645.5
DISP O 0.002 0.002 10.2
UNIT 220 380 2 4 6 40
DFIX 1.54 0.005 C8X C9X
DFIX 1.54 0.005 C8X C10X
DFIX 1.54 0.005 C8X C24X
DFIX 1.54 0.005 C68 C70A
DFIX 1.54 0.005 C67A C70
DFIX 1.54 0.005 C3X C8X
DFIX 1.54 0.005 C20X C21X
DFIX 1.54 0.005 C20X C23X
DFIX 1.54 0.005 C20X C22X
DFIX 1.54 0.005 C20X C15X
DFIX 1.54 0.005 C107 C108
DFIX 1.54 0.005 C107 C109
DFIX 1.54 0.005 C107 C110
DFIX 1.54 0.005 C107 C106
DFIX 1.54 C99A C96A C98A C96A C97A C96A
SIMU C55 > C77A
RIGU C55 > C77A
ISOR 0.005 0.01 O11A O12 O13A O14
ISOR 0.005 0.01 C68 C69 C70 C71A C72 C73
ISOR 0.005 0.01 C71 C71A
EADP C88 C16X
EADP C101 C20X
EADP O11 O11A
EADP C98A C98
EADP C89 C89A
EADP C60A C60
EADP O13A O13
EADP C72A C72
EADP C71 C71A
EADP C70A C70
EADP O14A O14
EADP C68 C68A
EADP C69 C69A
EADP C67 C67A
EADP C73A C73
EADP Co1 Mn1
EADP Co2 Mn2Y
EADP Co2A Mn2Z
EXYZ Co1 Mn1
EXYZ Co2 Mn2Y
EXYZ Co2A Mn2Z
L.S. 40
PLAN  10
SIZE 0.011 0.023 0.024
TEMP -173.15(2)
FREE Co2A Li2A
FREE Co2A Mn2B
FREE Mn2B Li2A
FREE Mn2A Li2
FREE Co2 Li2
FREE Co2 Li2A
FREE C106 Li2
FREE C3X Li2A
FREE Li1 C7
FREE Li1 Mn2
FREE Li1 Co1
FREE Li1 Mn1
FREE Mn1 Mn2
FREE Co1 Mn2
FREE Li1 O4
FREE C15X Mn2A
FREE Li2A Mn2Z
FREE Li2A Mn2A
FREE Li2A Mn2Y
FREE Li2A O12X
FREE Li2 O16
FREE Mn2B Mn2Y
FREE Mn2B Co2
FREE Mn2B Mn2Z
FREE Mn2B Mn2A
FREE Co2 Mn2B
FREE Mn2Y Mn2B
FREE Mn2A Mn2Z
FREE Mn2A Co2A
FREE Mn2A Mn2Y
FREE Mn2Y Mn2Z
FREE Li2 Mn2Y
BIND Co2 O11
BIND Co2 O12
BIND Co2 O13
BIND Co2 O14
BIND Co2 O15
BIND Co2 O16
BIND Mn2Y O11
BIND Mn2Y O12
BIND Mn2Y O13
BIND Mn2Y O14
BIND Mn2Y O15
BIND Mn2Y O16
BOND $H
fmap 2
acta
OMIT 0 2 2
OMIT 0 4 4
OMIT -2 1 3
OMIT -2 -1 3
OMIT -1 1 2
OMIT 2 2 4
OMIT 1 -1 3
OMIT 1 0 2
OMIT 0 -1 2
OMIT 1 1 2
OMIT -2 1 8
OMIT -1 -1 2
OMIT -2 2 3
OMIT 0 4 2
OMIT 2 7 11
WGHT    0.043400    2.838000
FVAR       0.13606   0.83290
LI1   4    0.291970    0.188757    0.800144    11.00000    0.02043    0.02942 =
         0.02674   -0.00693    0.00080   -0.01189
MN2   5    0.415998    0.256024    0.853018    11.00000    0.01681    0.01910 =
         0.01640   -0.00889    0.00036   -0.00202
CO1   3    0.436568    0.287432    0.734586    10.50000    0.01945    0.01835 =
         0.01580   -0.00714    0.00325   -0.00201
MN1   5    0.436568    0.287432    0.734586    10.50000    0.01945    0.01835 =
         0.01580   -0.00714    0.00325   -0.00201
O1    6    0.276112    0.192844    0.870910    11.00000    0.01843    0.02447 =
         0.02161   -0.00537    0.00552   -0.00609
O2    6    0.201210    0.119814    0.809339    11.00000    0.02672    0.03384 =
         0.02884   -0.00993    0.00466   -0.01565
O3    6    0.295766    0.242236    0.720086    11.00000    0.01985    0.02225 =
         0.02602   -0.01194   -0.00314    0.00063
O4    6    0.302820    0.314412    0.782984    11.00000    0.01472    0.02038 =
         0.01875   -0.00737    0.00020    0.00066
O5    6    0.404437    0.387803    0.679069    11.00000    0.02634    0.02159 =
         0.02209   -0.00951    0.00624   -0.00220
O6    6    0.551787    0.256093    0.688723    11.00000    0.02640    0.02849 =
         0.02739   -0.01545    0.00432    0.00167
O7    6    0.550518    0.298405    0.790345    11.00000    0.01576    0.01811 =
         0.02555   -0.01078    0.00470   -0.00390
O8    6    0.460458    0.183954    0.804874    11.00000    0.01227    0.01702 =
         0.01956   -0.00688    0.00068   -0.00248
O9    6    0.544665    0.195453    0.909734    11.00000    0.02184    0.02466 =
         0.02236   -0.01151   -0.00391   -0.00244
O10   6    0.412069    0.334727    0.883669    11.00000    0.02297    0.02449 =
         0.02163   -0.01323   -0.00061   -0.00232
C4    1    0.202183    0.159601    0.958125    11.00000    0.02787    0.03775 =
         0.02361   -0.01214    0.00682   -0.01387
C5    1    0.213386    0.153123    0.904432    11.00000    0.01679    0.02491 =
         0.02461   -0.00712    0.00201   -0.00230
C6    1    0.154703    0.103745    0.895500    11.00000    0.02427    0.02872 =
         0.02602   -0.00617    0.00657   -0.01202
AFIX  43
H6    2    0.110357    0.077788    0.923096    11.00000   -1.20000
AFIX   0
C7    1    0.153748    0.087907    0.849893    11.00000    0.01615    0.02455 =
         0.02944   -0.00649   -0.00008   -0.00337
C8    1    0.096236    0.024751    0.849270    11.00000    0.02484    0.02289 =
         0.03719   -0.00934    0.00165   -0.00769
C9    1    0.198466   -0.034048    0.849266    11.00000    0.03727    0.02549 =
         0.04873   -0.00922   -0.00080    0.00168
AFIX 137
H9A   2    0.247263   -0.048867    0.880987    11.00000   -1.50000
H9B   2    0.245892   -0.015363    0.819084    11.00000   -1.50000
H9C   2    0.167547   -0.075475    0.847725    11.00000   -1.50000
AFIX   0
C10   1    0.022358    0.048064    0.799123    11.00000    0.02810    0.02505 =
         0.04219   -0.01108   -0.00178   -0.00960
AFIX 137
H10S  2    0.071403    0.065997    0.769403    11.00000   -1.50000
H10T  2   -0.042543    0.086231    0.798411    11.00000   -1.50000
H10U  2   -0.009132    0.006904    0.797417    11.00000   -1.50000
AFIX   0
C11   1    0.019376   -0.003814    0.895276    11.00000    0.03812    0.03342 =
         0.04231   -0.01158    0.00931   -0.02055
AFIX 137
H11D  2   -0.042262    0.035151    0.896186    11.00000   -1.50000
H11E  2    0.067600   -0.022482    0.927431    11.00000   -1.50000
H11F  2   -0.016556   -0.042449    0.891747    11.00000   -1.50000
AFIX   0
C12   1    0.230694    0.268311    0.617682    11.00000    0.03294    0.03650 =
         0.02681   -0.01736    0.00333   -0.00601
AFIX 137
H12A  2    0.255445    0.315284    0.601923    11.00000   -1.50000
H12B  2    0.196060    0.256002    0.590836    11.00000   -1.50000
H12C  2    0.298840    0.231784    0.634346    11.00000   -1.50000
AFIX   0
C13   1    0.032815    0.328212    0.632943    11.00000    0.02928    0.03469 =
         0.02882   -0.01529   -0.00592   -0.00017
AFIX 137
H13A  2   -0.003191    0.315872    0.606432    11.00000   -1.50000
H13B  2    0.057482    0.375163    0.616864    11.00000   -1.50000
H13C  2   -0.024291    0.330141    0.659300    11.00000   -1.50000
AFIX   0
C14   1    0.139555    0.271227    0.658258    11.00000    0.02182    0.02810 =
         0.02049   -0.01045   -0.00018   -0.00662
C15   1    0.101477    0.197797    0.682654    11.00000    0.03351    0.03007 =
         0.03248   -0.01066   -0.00246   -0.01226
AFIX 137
H15A  2    0.169335    0.161641    0.700198    11.00000   -1.50000
H15B  2    0.069352    0.184861    0.655577    11.00000   -1.50000
H15C  2    0.041327    0.199803    0.707832    11.00000   -1.50000
AFIX   0
C16   1    0.200307    0.284990    0.701337    11.00000    0.01921    0.02184 =
         0.02132   -0.00761    0.00246   -0.00502
C17   1    0.152613    0.339658    0.719879    11.00000    0.01770    0.02525 =
         0.02181   -0.00857   -0.00130   -0.00007
AFIX  43
H17   2    0.080986    0.369547    0.704305    11.00000   -1.20000
AFIX   0
C18   1    0.204733    0.352141    0.759681    11.00000    0.01698    0.02039 =
         0.01946   -0.00580    0.00417   -0.00316
C19   1    0.150000    0.410707    0.779576    11.00000    0.01842    0.02282 =
         0.02186   -0.01163   -0.00100    0.00222
C20   1    0.242591    0.456906    0.778683    11.00000    0.02993    0.02322 =
         0.03927   -0.01513   -0.00527   -0.00124
AFIX 137
H20A  2    0.263599    0.481136    0.742860    11.00000   -1.50000
H20B  2    0.312515    0.426306    0.799013    11.00000   -1.50000
H20C  2    0.211019    0.492893    0.793604    11.00000   -1.50000
AFIX   0
C21   1    0.115158    0.371928    0.835496    11.00000    0.02685    0.03903 =
         0.02611   -0.01663    0.00341    0.00291
AFIX 137
H21D  2    0.185215    0.342990    0.856563    11.00000   -1.50000
H21E  2    0.059058    0.340593    0.835489    11.00000   -1.50000
H21F  2    0.079041    0.407536    0.850007    11.00000   -1.50000
AFIX   0
C22   1    0.041218    0.458832    0.747678    11.00000    0.02628    0.03279 =
         0.03411   -0.01707   -0.00425    0.00673
AFIX 137
H22D  2   -0.019691    0.429777    0.749370    11.00000   -1.50000
H22E  2    0.061847    0.481370    0.711570    11.00000   -1.50000
H22F  2    0.011839    0.496166    0.761668    11.00000   -1.50000
AFIX   0
C23   1    0.311025    0.523048    0.625428    11.00000    0.05614    0.02269 =
         0.03462   -0.00639    0.01414    0.00359
AFIX 137
H23D  2    0.278290    0.571288    0.601411    11.00000   -1.50000
H23E  2    0.359167    0.526848    0.652568    11.00000   -1.50000
H23F  2    0.247006    0.497148    0.641206    11.00000   -1.50000
AFIX   0
C24   1    0.486129    0.523486    0.570964    11.00000    0.06628    0.03024 =
         0.04244   -0.01441    0.02628   -0.02148
AFIX 137
H24D  2    0.537193    0.525013    0.598063    11.00000   -1.50000
H24E  2    0.452748    0.572581    0.548624    11.00000   -1.50000
H24F  2    0.531936    0.499131    0.550217    11.00000   -1.50000
AFIX   0
C25   1    0.386706    0.482353    0.596005    11.00000    0.04349    0.02103 =
         0.02509   -0.00768    0.01173   -0.00604
C26   1    0.310514    0.475962    0.553987    11.00000    0.05330    0.03620 =
         0.02860   -0.00565   -0.00347    0.00012
AFIX 137
H26A  2    0.278705    0.524073    0.529505    11.00000   -1.50000
H26B  2    0.245833    0.450914    0.570070    11.00000   -1.50000
H26C  2    0.358311    0.448816    0.535534    11.00000   -1.50000
AFIX   0
C27   1    0.438950    0.406190    0.633129    11.00000    0.02586    0.02283 =
         0.02216   -0.01001    0.00554   -0.00820
C28   1    0.518749    0.362230    0.614357    11.00000    0.03612    0.02857 =
         0.02515   -0.01325    0.01358   -0.00740
AFIX  43
H28   2    0.539459    0.382537    0.579301    11.00000   -1.20000
AFIX   0
C29   1    0.570866    0.291519    0.642069    11.00000    0.02549    0.02984 =
         0.03000   -0.01885    0.00978   -0.00694
C30   1    0.657065    0.249355    0.615991    11.00000    0.03944    0.03733 =
         0.04338   -0.02432    0.01825   -0.00266
C31   1    0.761615    0.207656    0.654161    11.00000    0.03878    0.07516 =
         0.08302   -0.04853    0.01112    0.01137
AFIX 137
H31A  2    0.732556    0.178426    0.687222    11.00000   -1.50000
H31B  2    0.805933    0.241683    0.659739    11.00000   -1.50000
H31C  2    0.812832    0.176343    0.639793    11.00000   -1.50000
AFIX   0
C32   1    0.705266    0.296761    0.567113    11.00000    0.11794    0.05727 =
         0.08074   -0.01931    0.07364    0.00976
AFIX 137
H32A  2    0.733215    0.336080    0.573469    11.00000   -1.50000
H32B  2    0.643433    0.316631    0.539749    11.00000   -1.50000
H32C  2    0.770542    0.268446    0.556290    11.00000   -1.50000
AFIX   0
C33   1    0.592608    0.193868    0.608507    11.00000    0.05832    0.06880 =
         0.08052   -0.06047    0.00620   -0.00200
AFIX 137
H33A  2    0.527049    0.218358    0.583318    11.00000   -1.50000
H33B  2    0.562561    0.165676    0.641653    11.00000   -1.50000
H33C  2    0.646720    0.161849    0.595730    11.00000   -1.50000
AFIX   0
C34   1    0.749855    0.334538    0.827243    11.00000    0.02678    0.03270 =
         0.03860   -0.02270    0.00641   -0.01377
AFIX 137
H34A  2    0.674369    0.366703    0.822491    11.00000   -1.50000
H34B  2    0.813727    0.362534    0.821660    11.00000   -1.50000
H34C  2    0.757353    0.298642    0.862513    11.00000   -1.50000
AFIX   0
C35   1    0.743337    0.352453    0.732702    11.00000    0.02929    0.02746 =
         0.03327   -0.01122    0.00883   -0.01315
AFIX 137
H35A  2    0.807656    0.380194    0.726494    11.00000   -1.50000
H35B  2    0.668242    0.384903    0.728265    11.00000   -1.50000
H35C  2    0.745851    0.327910    0.707985    11.00000   -1.50000
AFIX   0
C36   1    0.874375    0.246806    0.794972    11.00000    0.01642    0.02778 =
         0.05007   -0.01843    0.00797   -0.00920
AFIX 137
H36A  2    0.883439    0.211295    0.830378    11.00000   -1.50000
H36B  2    0.937862    0.275201    0.788524    11.00000   -1.50000
H36C  2    0.877509    0.222053    0.770367    11.00000   -1.50000
AFIX   0
C37   1    0.756301    0.296525    0.788180    11.00000    0.01784    0.02227 =
         0.03022   -0.01342    0.00614   -0.00864
C38   1    0.650907    0.257508    0.795759    11.00000    0.01511    0.02197 =
         0.02004   -0.01063    0.00432   -0.00406
C39   1    0.662920    0.183602    0.806907    11.00000    0.01220    0.01872 =
         0.02562   -0.01072    0.00194   -0.00273
AFIX  43
H39   2    0.739489    0.156096    0.811577    11.00000   -1.20000
AFIX   0
C40   1    0.566263    0.148761    0.811423    11.00000    0.01603    0.01791 =
         0.01673   -0.00753    0.00233   -0.00317
C41   1    0.576169    0.068390    0.823810    11.00000    0.01754    0.01640 =
         0.02784   -0.00988    0.00113   -0.00477
C42   1    0.516079    0.058595    0.778493    11.00000    0.02822    0.02528 =
         0.03566   -0.01774   -0.00169   -0.00527
AFIX 137
H42A  2    0.554628    0.081708    0.746307    11.00000   -1.50000
H42B  2    0.433212    0.080613    0.775318    11.00000   -1.50000
H42C  2    0.522179    0.007235    0.785032    11.00000   -1.50000
AFIX   0
C43   1    0.703235    0.029460    0.830908    11.00000    0.01907    0.02038 =
         0.05005   -0.01554   -0.00100   -0.00089
AFIX 137
H43A  2    0.742090    0.036009    0.859445    11.00000   -1.50000
H43B  2    0.744660    0.049322    0.798954    11.00000   -1.50000
H43C  2    0.704340   -0.021887    0.838872    11.00000   -1.50000
AFIX   0
C44   1    0.511434    0.036931    0.873706    11.00000    0.02969    0.01868 =
         0.03104   -0.00325    0.00406   -0.00725
AFIX 137
H44A  2    0.428896    0.059870    0.868570    11.00000   -1.50000
H44B  2    0.547454    0.045708    0.901929    11.00000   -1.50000
H44C  2    0.516544   -0.014910    0.882536    11.00000   -1.50000
AFIX   0
C45   1    0.620606    0.094402    1.014302    11.00000    0.03443    0.03494 =
         0.03253   -0.00137   -0.00436   -0.00998
AFIX 137
H45A  2    0.678111    0.054043    1.036198    11.00000   -1.50000
H45B  2    0.575269    0.078030    0.992739    11.00000   -1.50000
H45C  2    0.567540    0.113031    1.036216    11.00000   -1.50000
AFIX   0
C46   1    0.769151    0.124221    0.946164    11.00000    0.02275    0.03927 =
         0.03109   -0.01246   -0.00627    0.00360
AFIX 137
H46A  2    0.724972    0.106463    0.925107    11.00000   -1.50000
H46B  2    0.826996    0.084683    0.968673    11.00000   -1.50000
H46C  2    0.809540    0.162241    0.923432    11.00000   -1.50000
AFIX   0
C47   1    0.684870    0.154275    0.979343    11.00000    0.02169    0.02988 =
         0.02174   -0.00776   -0.00287   -0.00509
C48   1    0.754673    0.181071    1.012547    11.00000    0.03126    0.04025 =
         0.03233   -0.01274   -0.01317   -0.00539
AFIX 137
H48A  2    0.817171    0.142369    1.032400    11.00000   -1.50000
H48B  2    0.702260    0.195911    1.036407    11.00000   -1.50000
H48C  2    0.789296    0.222096    0.990101    11.00000   -1.50000
AFIX   0
C49   1    0.590257    0.212829    0.943555    11.00000    0.01671    0.02730 =
         0.01947   -0.00860    0.00234   -0.00691
C50   1    0.557276    0.277937    0.951015    11.00000    0.02408    0.02925 =
         0.01995   -0.01183    0.00025   -0.01042
AFIX  43
H50   2    0.597365    0.284461    0.977996    11.00000   -1.20000
AFIX   0
C51   1    0.470208    0.334236    0.922068    11.00000    0.02263    0.02561 =
         0.01968   -0.01217    0.00676   -0.01097
C52   1    0.305986    0.410974    0.944978    11.00000    0.04095    0.05660 =
         0.06484   -0.04646    0.01349   -0.00781
AFIX 137
H52A  2    0.290038    0.369924    0.975043    11.00000   -1.50000
H52B  2    0.262452    0.413164    0.914435    11.00000   -1.50000
H52C  2    0.281266    0.455411    0.951648    11.00000   -1.50000
AFIX   0
C53   1    0.437522    0.402261    0.935306    11.00000    0.03308    0.02757 =
         0.02836   -0.01632    0.00427   -0.00807
C54   1    0.463247    0.465351    0.888269    11.00000    0.06470    0.02696 =
         0.04177   -0.01252   -0.00033   -0.01359
AFIX 137
H54A  2    0.419559    0.467339    0.857826    11.00000   -1.50000
H54B  2    0.547468    0.459177    0.882161    11.00000   -1.50000
H54C  2    0.439266    0.510135    0.894552    11.00000   -1.50000
AFIX   0
C55   1    0.504560    0.400361    0.982472    11.00000    0.06335    0.03809 =
         0.03769   -0.02492   -0.00329   -0.01301
AFIX 137
H55A  2    0.588574    0.396667    0.975894    11.00000   -1.50000
H55B  2    0.491061    0.358716    1.012630    11.00000   -1.50000
H55C  2    0.477179    0.444477    0.989241    11.00000   -1.50000
AFIX   0

PART 1
CO2   3    0.818323    0.718003    0.767204    10.25000    0.01586    0.01968 =
         0.01862   -0.00944   -0.00089   -0.00337
MN2Y  5    0.818323    0.718003    0.767204    10.25000    0.01586    0.01968 =
         0.01862   -0.00944   -0.00089   -0.00337
MN2A  5    0.787026    0.755431    0.647351    10.50000    0.02087    0.02650 =
         0.02150   -0.01322    0.00449   -0.00254
LI2   4    0.623090    0.819146    0.702927    10.50000    0.01729    0.03053 =
         0.01988   -0.00861    0.00325    0.00260
O14   6    0.791263    0.823334    0.699205    10.50000    0.01658    0.01915 =
         0.02192   -0.00645   -0.00014   -0.00187
C1    1    0.271601    0.213926    0.963772    21.00000    0.03624    0.04042 =
         0.02790   -0.01856    0.00793   -0.01506
AFIX 137
H1A   2    0.259049    0.217514    0.997864    21.00000   -1.50000
H1B   2    0.245330    0.260950    0.936705    21.00000   -1.50000
H1C   2    0.355237    0.198382    0.960393    21.00000   -1.50000
AFIX   0
C2    1    0.070818    0.187380    0.963724    21.00000    0.02513    0.08851 =
         0.05244   -0.04700    0.01412   -0.01306
AFIX 137
H2A   2    0.045855    0.233757    0.935767    21.00000   -1.50000
H2B   2    0.060736    0.193210    0.997213    21.00000   -1.50000
H2C   2    0.023103    0.152673    0.961721    21.00000   -1.50000
AFIX   0
C3    1    0.242307    0.087948    1.001168    21.00000    0.08323    0.03795 =
         0.02388   -0.00575   -0.00206   -0.01818
AFIX 137
H3A   2    0.238105    0.094306    1.034576    21.00000   -1.50000
H3B   2    0.323358    0.069290    0.995850    21.00000   -1.50000
H3C   2    0.191411    0.053901    1.000917    21.00000   -1.50000
AFIX   0
C56   1    0.771980    0.520892    0.944002    10.50000    0.06106    0.03690 =
         0.04077   -0.02259    0.02248   -0.02405
AFIX 137
H56A  2    0.765295    0.472135    0.967411    10.50000   -1.50000
H56B  2    0.695157    0.545813    0.927410    10.50000   -1.50000
H56C  2    0.799280    0.547185    0.963757    10.50000   -1.50000
AFIX   0
C57   1    0.816889    0.477551    0.870509    10.50000    0.04781    0.02442 =
         0.03483   -0.01693   -0.00126   -0.01569
AFIX 137
H57A  2    0.736475    0.499583    0.857292    10.50000   -1.50000
H57B  2    0.818736    0.426942    0.892278    10.50000   -1.50000
H57C  2    0.868311    0.480871    0.841389    10.50000   -1.50000
AFIX   0
C58   1    0.979931    0.477649    0.928158    10.50000    0.04504    0.03474 =
         0.04609   -0.02094   -0.02011    0.00074
AFIX 137
H58A  2    0.976753    0.426496    0.946097    10.50000   -1.50000
H58B  2    1.001338    0.497977    0.953125    10.50000   -1.50000
H58C  2    1.038700    0.483298    0.901515    10.50000   -1.50000
AFIX   0
C59   1    0.859363    0.517072    0.902691    10.50000    0.02456    0.01375 =
         0.02721   -0.00615   -0.00359   -0.00363
C60   1    0.870514    0.593939    0.867413    10.50000    0.01596    0.02250 =
         0.02436   -0.01343   -0.00042    0.00040
C61   1    0.916300    0.636735    0.889309    10.50000    0.02755    0.02154 =
         0.02934   -0.01243    0.00361   -0.00953
AFIX  43
H61   2    0.936937    0.615455    0.925244    10.50000   -1.20000
AFIX   0
O11   6    0.837138    0.614568    0.820564    10.50000    0.02150    0.02020 =
         0.02311   -0.01193   -0.00272   -0.00085
C62   1    0.935158    0.707648    0.864089    10.50000    0.02327    0.02589 =
         0.01976   -0.01069    0.00021   -0.00588
O12   6    0.909281    0.745006    0.816128    10.50000    0.02881    0.02778 =
         0.02463   -0.01337   -0.00192   -0.00967
C63   1    0.989647    0.748740    0.892014    10.50000    0.03820    0.03083 =
         0.02563   -0.01711    0.00152   -0.01648
C64   1    0.900661    0.813289    0.889919    10.50000    0.06246    0.03646 =
         0.03216   -0.02143   -0.00039   -0.01372
AFIX 137
H64A  2    0.834271    0.797279    0.911068    10.50000   -1.50000
H64B  2    0.872814    0.840682    0.853995    10.50000   -1.50000
H64C  2    0.937116    0.843820    0.903333    10.50000   -1.50000
AFIX   0
C65   1    1.097457    0.773735    0.862819    10.50000    0.04794    0.07561 =
         0.06371   -0.04836    0.01538   -0.04020
AFIX 137
H65A  2    1.074109    0.804434    0.826907    10.50000   -1.50000
H65B  2    1.154268    0.731858    0.863307    10.50000   -1.50000
H65C  2    1.133253    0.800969    0.879489    10.50000   -1.50000
AFIX   0
C66   1    1.024297    0.703701    0.948982    10.50000    0.07108    0.04110 =
         0.03761   -0.02204   -0.02231   -0.01413
AFIX 137
H66A  2    1.079672    0.660446    0.951173    10.50000   -1.50000
H66B  2    0.954092    0.689822    0.967890    10.50000   -1.50000
H66C  2    1.061258    0.732069    0.964266    10.50000   -1.50000
AFIX   0
C67   1    1.170675    0.672960    0.678075    10.50000    0.02316    0.03221 =
         0.04973   -0.02351    0.00505   -0.00153
AFIX 137
H67A  2    1.113767    0.641138    0.680460    10.50000   -1.50000
H67B  2    1.250146    0.645058    0.684151    10.50000   -1.50000
H67C  2    1.163986    0.710600    0.643503    10.50000   -1.50000
AFIX   0
C68   1    1.153944    0.651896    0.774730    10.50000    0.02649    0.02701 =
         0.03676   -0.01058   -0.00175    0.00331
AFIX 137
H68A  2    1.233210    0.623736    0.782131    10.50000   -1.50000
H68B  2    1.096915    0.619824    0.778115    10.50000   -1.50000
H68C  2    1.136991    0.676533    0.799297    10.50000   -1.50000
AFIX   0
C69   1    1.236146    0.757444    0.713549    10.50000    0.02040    0.02972 =
         0.05056   -0.01567    0.00256   -0.00156
AFIX 137
H69A  2    1.232642    0.791877    0.677839    10.50000   -1.50000
H69B  2    1.314871    0.728679    0.721956    10.50000   -1.50000
H69C  2    1.218682    0.783477    0.737225    10.50000   -1.50000
AFIX   0
C70A  1    1.145649    0.707774    0.719235    10.50000    0.01975    0.02175 =
         0.03526   -0.01166    0.00047    0.00089
C71   1    1.016053    0.749786    0.702562    10.50000    0.01941    0.02122 =
         0.01974   -0.00930   -0.00036   -0.00255
C72   1    0.993761    0.822110    0.700569    10.50000    0.01708    0.02022 =
         0.02689   -0.01121   -0.00070   -0.00382
AFIX  43
H72   2    1.056769    0.845545    0.703086    10.50000   -1.20000
AFIX   0
C73   1    0.879737    0.857514    0.694948    10.50000    0.01989    0.01888 =
         0.01413   -0.00776   -0.00152   -0.00268
C74   1    0.846675    0.940234    0.682496    10.50000    0.02678    0.01396 =
         0.02144   -0.01245   -0.00723    0.00132
C75   1    0.768756    0.946839    0.726201    10.50000    0.04458    0.02504 =
         0.03309   -0.01388    0.01177    0.00691
AFIX 137
H75A  2    0.812994    0.922914    0.759344    10.50000   -1.50000
H75B  2    0.699972    0.924124    0.726743    10.50000   -1.50000
H75C  2    0.743206    0.997724    0.720616    10.50000   -1.50000
AFIX   0
C76   1    0.950712    0.974724    0.680084    10.50000    0.03111    0.02076 =
         0.04356   -0.01632    0.00854   -0.00357
AFIX 137
H76A  2    1.000307    0.968755    0.652300    10.50000   -1.50000
H76B  2    0.995330    0.952277    0.713205    10.50000   -1.50000
H76C  2    0.925540    1.026030    0.673148    10.50000   -1.50000
AFIX   0
C77   1    0.777835    0.971970    0.630361    10.50000    0.03433    0.02262 =
         0.02977   -0.00771   -0.00823    0.00224
AFIX 137
H77A  2    0.710083    0.947798    0.632561    10.50000   -1.50000
H77B  2    0.828732    0.964931    0.603254    10.50000   -1.50000
H77C  2    0.750710    1.023456    0.621962    10.50000   -1.50000
AFIX   0
C78   1    0.427777    0.677158    0.870782    10.50000    0.02531    0.03135 =
         0.01949   -0.01276    0.00783   -0.00849
AFIX 137
H78A  2    0.372462    0.675540    0.845214    10.50000   -1.50000
H78B  2    0.384204    0.688692    0.898247    10.50000   -1.50000
H78C  2    0.478479    0.630302    0.885797    10.50000   -1.50000
AFIX   0
C79   1    0.423768    0.808885    0.820782    10.50000    0.02433    0.02807 =
         0.02402   -0.00854    0.00606    0.00486
AFIX 137
H79A  2    0.381106    0.821003    0.848226    10.50000   -1.50000
H79B  2    0.367637    0.807645    0.795375    10.50000   -1.50000
H79C  2    0.472875    0.845208    0.803657    10.50000   -1.50000
AFIX   0
C80   1    0.587535    0.738689    0.885153    10.50000    0.02893    0.03647 =
         0.02263   -0.02092    0.00312   -0.00592
AFIX 137
H80A  2    0.639455    0.692373    0.900647    10.50000   -1.50000
H80B  2    0.542436    0.750251    0.912259    10.50000   -1.50000
H80C  2    0.634613    0.776227    0.868177    10.50000   -1.50000
AFIX   0
C81   1    0.502294    0.734285    0.844627    10.50000    0.01949    0.01531 =
         0.01452   -0.00801    0.00292   -0.00194
C82   1    0.574352    0.722699    0.800463    10.50000    0.01223    0.01788 =
         0.01488   -0.00665   -0.00094    0.00104
C83   1    0.558500    0.668753    0.781446    10.50000    0.01395    0.02136 =
         0.02009   -0.01127    0.00336   -0.00514
AFIX  43
H83   2    0.502293    0.638857    0.797068    10.50000   -1.20000
AFIX   0
C84   1    0.621641    0.657256    0.740698    10.50000    0.01012    0.01950 =
         0.01630   -0.00767   -0.00278   -0.00103
C85   1    0.720645    0.553067    0.720056    10.50000    0.03224    0.02983 =
         0.03923   -0.02134    0.01278   -0.00765
AFIX 137
H85A  2    0.760162    0.528096    0.754219    10.50000   -1.50000
H85B  2    0.768180    0.587206    0.697787    10.50000   -1.50000
H85C  2    0.710589    0.517949    0.704469    10.50000   -1.50000
AFIX   0
C86   1    0.551452    0.637507    0.664888    10.50000    0.03157    0.05011 =
         0.02423   -0.02368    0.00429   -0.02059
AFIX 137
H86A  2    0.609152    0.665242    0.644219    10.50000   -1.50000
H86B  2    0.479621    0.670268    0.665753    10.50000   -1.50000
H86C  2    0.533396    0.603845    0.649338    10.50000   -1.50000
AFIX   0
C87   1    0.517992    0.550872    0.752665    10.50000    0.02992    0.03485 =
         0.03234   -0.02397    0.01253   -0.01803
AFIX 137
H87A  2    0.444536    0.583743    0.750955    10.50000   -1.50000
H87B  2    0.543953    0.524510    0.788948    10.50000   -1.50000
H87C  2    0.505318    0.516804    0.736513    10.50000   -1.50000
AFIX   0
C88   1    0.606654    0.591484    0.725522    10.50000    0.02363    0.02373 =
         0.03075   -0.01540    0.00040   -0.00743
O15   6    0.650008    0.763536    0.783280    10.50000    0.01546    0.02040 =
         0.01525   -0.00689   -0.00321    0.00014
O16   6    0.700036    0.695663    0.718361    10.50000    0.02039    0.02696 =
         0.01696   -0.01285    0.00363   -0.00706
C100  1    0.649061    0.893392    0.516571    10.50000    0.04014    0.22695 =
         0.03243   -0.03988    0.00409   -0.01887
AFIX 137
H10A  2    0.650831    0.896932    0.480386    10.50000   -1.50000
H10B  2    0.720206    0.862111    0.535360    10.50000   -1.50000
H10C  2    0.645222    0.941321    0.517993    10.50000   -1.50000
AFIX   0
C101  1    0.545660    0.787667    0.543862    10.50000    0.11039    0.06884 =
         0.03628   -0.02467   -0.02811    0.01320
AFIX 137
H10D  2    0.608111    0.755774    0.568639    10.50000   -1.50000
H10E  2    0.561689    0.785692    0.509513    10.50000   -1.50000
H10F  2    0.470266    0.772190    0.554971    10.50000   -1.50000
AFIX   0
C102  1    0.436869    0.905393    0.505413    10.50000    0.04513    0.06223 =
         0.02507   -0.01531   -0.00909   -0.00227
AFIX 137
H10G  2    0.445708    0.898204    0.472351    10.50000   -1.50000
H10H  2    0.433138    0.956435    0.499446    10.50000   -1.50000
H10I  2    0.364509    0.889675    0.521106    10.50000   -1.50000
AFIX   0
C103  1    0.541021    0.861818    0.541554    10.50000    0.03441    0.06029 =
         0.01830   -0.02381   -0.01108    0.01497
C104  1    0.536857    0.862971    0.596575    10.50000    0.01767    0.02915 =
         0.01769   -0.00882   -0.00038   -0.00327
C105  1    0.450485    0.912109    0.607257    10.50000    0.01688    0.02740 =
         0.01625   -0.00381   -0.00343    0.00138
AFIX  43
H105  2    0.394828    0.940007    0.579916    10.50000   -1.20000
AFIX   0
C106  1    0.436022    0.925221    0.653432    10.50000    0.01288    0.02137 =
         0.02248   -0.00376   -0.00140    0.00089
C107  1    0.346480    0.989550    0.655539    10.50000    0.02036    0.02569 =
         0.02514   -0.00424   -0.00049    0.00613
C108  1    0.416041    1.049539    0.651560    10.50000    0.04513    0.02261 =
         0.04738   -0.00965   -0.00562   -0.00126
AFIX 137
H10J  2    0.455392    1.063406    0.618518    10.50000   -1.50000
H10K  2    0.474770    1.032255    0.680155    10.50000   -1.50000
H10L  2    0.362351    1.091241    0.653468    10.50000   -1.50000
AFIX   0
C109  1    0.291272    0.967601    0.708689    10.50000    0.03693    0.03462 =
         0.03203   -0.01044    0.00644    0.01487
AFIX 137
H10M  2    0.353209    0.951126    0.735912    10.50000   -1.50000
H10N  2    0.247200    0.928670    0.712729    10.50000   -1.50000
H10O  2    0.238108    1.008974    0.711409    10.50000   -1.50000
AFIX   0
C110  1    0.250605    1.016591    0.612822    10.50000    0.02745    0.05520 =
         0.03491   -0.01677   -0.00730    0.02010
AFIX 137
H11A  2    0.211415    0.976770    0.613878    10.50000   -1.50000
H11B  2    0.285642    1.035879    0.579083    10.50000   -1.50000
H11C  2    0.193189    1.054491    0.618074    10.50000   -1.50000
AFIX   0
O19   6    0.615916    0.820407    0.630838    10.50000    0.01773    0.03200 =
         0.01573   -0.01366    0.00275    0.00272
O20   6    0.498772    0.889622    0.694961    10.50000    0.01748    0.03576 =
         0.01616   -0.00893   -0.00223    0.00878

O17   6    0.823271    0.680130    0.612005    10.50000    0.02916    0.03182 =
         0.01825   -0.00889    0.00222   -0.00319
O18   6    0.902160    0.814399    0.595004    10.50000    0.04338    0.02952 =
         0.02200   -0.01875    0.01188   -0.01015
C89   1    0.949602    0.547955    0.606999    10.50000    0.07694    0.04062 =
         0.03535   -0.01397    0.00174    0.00479
AFIX 137
H89A  2    0.961158    0.505756    0.596952    10.50000   -1.50000
H89B  2    0.892927    0.541737    0.634513    10.50000   -1.50000
H89C  2    1.024542    0.553398    0.619584    10.50000   -1.50000
AFIX   0
C90   1    0.775617    0.614185    0.545007    10.50000    0.06943    0.04635 =
         0.05457   -0.03803    0.00853   -0.02068
AFIX 137
H90A  2    0.725970    0.610467    0.574724    10.50000   -1.50000
H90B  2    0.773973    0.572879    0.534756    10.50000   -1.50000
H90C  2    0.746183    0.658630    0.516014    10.50000   -1.50000
AFIX   0
C91   1    0.980764    0.615954    0.514890    10.50000    0.08038    0.03676 =
         0.03398   -0.02264    0.01067   -0.00589
AFIX 137
H91A  2    0.983471    0.571009    0.508830    10.50000   -1.50000
H91B  2    1.060181    0.620808    0.522988    10.50000   -1.50000
H91C  2    0.948771    0.656596    0.483745    10.50000   -1.50000
AFIX   0
C92   1    0.903006    0.615101    0.560040    10.50000    0.04770    0.02577 =
         0.02349   -0.01069    0.00131   -0.00670
C93   1    0.899268    0.680608    0.575536    10.50000    0.04321    0.02637 =
         0.01706   -0.01282    0.00071   -0.00344
C94   1    0.962330    0.735752    0.549532    10.50000    0.03483    0.03031 =
         0.02137   -0.01721    0.00478   -0.01105
AFIX  43
H94   2    1.010336    0.730515    0.522427    10.50000   -1.20000
AFIX   0
C95   1    0.959739    0.798067    0.560598    10.50000    0.03730    0.02761 =
         0.01943   -0.01829   -0.00103   -0.00232
C96   1    1.031029    0.855846    0.526114    10.50000    0.03539    0.03559 =
         0.01868   -0.01626    0.00946   -0.01234
C97   1    1.099233    0.879236    0.559414    10.50000    0.03081    0.03013 =
         0.03323   -0.01139    0.01037   -0.01442
AFIX 137
H97A  2    1.159795    0.839281    0.579415    10.50000   -1.50000
H97B  2    1.046781    0.894350    0.583145    10.50000   -1.50000
H97C  2    1.136403    0.919606    0.537790    10.50000   -1.50000
AFIX   0
C98   1    0.932613    0.919623    0.491132    10.50000    0.07120    0.05063 =
         0.04923   -0.00368    0.00586   -0.01870
AFIX 137
H98A  2    0.877396    0.935766    0.513544    10.50000   -1.50000
H98B  2    0.890336    0.902312    0.469170    10.50000   -1.50000
H98C  2    0.969915    0.959796    0.469288    10.50000   -1.50000
AFIX   0
C99   1    1.112508    0.831607    0.487937    10.50000    0.07007    0.05597 =
         0.05047   -0.02958    0.03901   -0.02591
AFIX 137
H99A  2    1.064708    0.822853    0.462913    10.50000   -1.50000
H99B  2    1.165986    0.787338    0.507360    10.50000   -1.50000
H99C  2    1.158094    0.869379    0.469519    10.50000   -1.50000
AFIX   0
O13   6    0.939536    0.710659    0.707048    10.50000    0.02037    0.01805 =
         0.02205   -0.00931   -0.00013   -0.00280
PART 2
LI2A  4    0.621239    0.822653    0.679392    10.50000    0.01981    0.03641 =
         0.03945   -0.01639    0.00341    0.00132
CO2A  3    0.819616    0.746216    0.645685    10.25000    0.02841    0.02396 =
         0.02058   -0.00814    0.00752   -0.00654
MN2Z  5    0.819616    0.746216    0.645685    10.25000    0.02841    0.02396 =
         0.02058   -0.00814    0.00752   -0.00654
MN2B  5    0.780666    0.722974    0.761923    10.50000    0.02036    0.01675 =
         0.02311   -0.00961   -0.00055   -0.00381
O13A  6    0.941455    0.706616    0.715429    10.50000    0.02037    0.01805 =
         0.02205   -0.00931   -0.00013   -0.00280
C1A   1    0.331435    0.112191    0.985761   -21.00000    0.05383    0.10100 =
         0.02445   -0.01112   -0.00569   -0.02433
AFIX 137
H1AA  2    0.324579    0.092017    1.023406   -21.00000   -1.50000
H1AB  2    0.390789    0.143650    0.977275   -21.00000   -1.50000
H1AC  2    0.354699    0.073117    0.972800   -21.00000   -1.50000
AFIX   0
C2A   1    0.186467    0.225102    0.953936   -21.00000    0.10798    0.04546 =
         0.04725   -0.00232    0.05631    0.00253
AFIX 137
H2AA  2    0.212634    0.254329    0.920200   -21.00000   -1.50000
H2AB  2    0.231700    0.229849    0.981552   -21.00000   -1.50000
H2AC  2    0.102960    0.241595    0.956828   -21.00000   -1.50000
AFIX   0
C3A   1    0.112483    0.115776    0.991695   -21.00000    0.06104    0.09600 =
         0.04399   -0.04164    0.02210   -0.02207
AFIX 137
H3AA  2    0.035063    0.132751    0.973949   -21.00000   -1.50000
H3AB  2    0.108446    0.121957    1.025164   -21.00000   -1.50000
H3AC  2    0.137042    0.064820    0.997264   -21.00000   -1.50000
AFIX   0
C56A  1    0.801609    0.528566    0.946588    10.50000    0.05841    0.04160 =
         0.03328   -0.00726    0.01092    0.00753
AFIX 137
H56D  2    0.802964    0.479224    0.970905    10.50000   -1.50000
H56E  2    0.720909    0.550352    0.933705    10.50000   -1.50000
H56F  2    0.831568    0.556604    0.964289    10.50000   -1.50000
AFIX   0
C57A  1    0.830219    0.483116    0.874531    10.50000    0.03107    0.01721 =
         0.02728   -0.00332   -0.00416    0.00347
AFIX 137
H57D  2    0.751205    0.506741    0.860058    10.50000   -1.50000
H57E  2    0.826643    0.435187    0.900151    10.50000   -1.50000
H57F  2    0.881116    0.478758    0.846690    10.50000   -1.50000
AFIX   0
C58A  1    1.005753    0.491938    0.921551    10.50000    0.03788    0.03892 =
         0.04822   -0.01922   -0.02260    0.02236
AFIX 137
H58D  2    1.006194    0.441565    0.943560    10.50000   -1.50000
H58E  2    1.034077    0.517112    0.941909    10.50000   -1.50000
H58F  2    1.057076    0.494361    0.892517    10.50000   -1.50000
AFIX   0
C59A  1    0.879631    0.527803    0.900557    10.50000    0.03098    0.03180 =
         0.01979   -0.01477   -0.00030    0.00250
C60A  1    0.874575    0.605185    0.863335    10.50000    0.01596    0.02250 =
         0.02436   -0.01343   -0.00042    0.00040
C61A  1    0.927641    0.652472    0.879196    10.50000    0.02120    0.03469 =
         0.03392   -0.02284   -0.01291    0.00222
AFIX  43
H61A  2    0.968071    0.633400    0.911997    10.50000   -1.20000
AFIX   0
O11A  6    0.819415    0.623119    0.819954    10.50000    0.02150    0.02020 =
         0.02311   -0.01193   -0.00272   -0.00085
C62A  1    0.924661    0.724731    0.850136    10.50000    0.02050    0.03323 =
         0.04615   -0.02939   -0.00701   -0.00029
O12A  6    0.873736    0.758760    0.806702    10.50000    0.03014    0.02898 =
         0.03927   -0.02084   -0.00370   -0.00854
C63A  1    0.982176    0.770774    0.873189    10.50000    0.04692    0.06019 =
         0.08552   -0.05722   -0.02014   -0.00034
C64A  1    0.880014    0.823265    0.883346    10.50000    0.06167    0.05492 =
         0.07583   -0.05502   -0.01176    0.00443
AFIX 137
H64D  2    0.825691    0.795865    0.906879    10.50000   -1.50000
H64E  2    0.838362    0.854015    0.850525    10.50000   -1.50000
H64F  2    0.911281    0.853164    0.899067    10.50000   -1.50000
AFIX   0
C65A  1    1.059963    0.813210    0.831251    10.50000    0.06048    0.10282 =
         0.16016   -0.10424    0.02520   -0.04936
AFIX 137
H65D  2    1.014527    0.836877    0.798398    10.50000   -1.50000
H65E  2    1.127926    0.780198    0.826910    10.50000   -1.50000
H65F  2    1.086868    0.849522    0.841793    10.50000   -1.50000
AFIX   0
C66A  1    1.053229    0.728148    0.922753    10.50000    0.11017    0.09515 =
         0.14363   -0.08561   -0.08663    0.02377
AFIX 137
H66D  2    1.119217    0.695948    0.916023    10.50000   -1.50000
H66E  2    1.003539    0.699727    0.948447    10.50000   -1.50000
H66F  2    1.083123    0.761059    0.936012    10.50000   -1.50000
AFIX   0
O1X   6    0.494665    0.896218    0.664311    10.50000    0.02743    0.04045 =
         0.03507   -0.01481    0.00360   -0.00120
O2X   6    0.606574    0.785082    0.756578    10.50000    0.02420    0.02469 =
         0.03698   -0.01704    0.01028   -0.00584
C1X   1    0.523515    0.815545    0.777061    10.50000    0.02126    0.02999 =
         0.03392   -0.01540    0.00231   -0.00595
C2X   1    0.441352    0.875949    0.749728    10.50000    0.02406    0.03151 =
         0.03053   -0.01440   -0.00006    0.00026
AFIX  43
H2X   2    0.385597    0.893963    0.769567    10.50000   -1.20000
AFIX   0
C3X   1    0.433046    0.912844    0.695528    10.50000    0.02774    0.02908 =
         0.03189   -0.01099    0.00010   -0.00959
C4X   1    0.512160    0.782250    0.836415    10.50000    0.02535    0.04367 =
         0.02762   -0.01478    0.00373    0.00285
C5X   1    0.522794    0.840776    0.859686    10.50000    0.05881    0.04619 =
         0.03956   -0.02140   -0.00568    0.00689
AFIX 137
H5XA  2    0.457251    0.880681    0.846323    10.50000   -1.50000
H5XB  2    0.597000    0.858569    0.849803    10.50000   -1.50000
H5XC  2    0.520793    0.819744    0.897512    10.50000   -1.50000
AFIX   0
C6X   1    0.607554    0.719763    0.862171    10.50000    0.03868    0.03742 =
         0.03646   -0.00557   -0.00001    0.00284
AFIX 137
H6XA  2    0.684017    0.735459    0.855196    10.50000   -1.50000
H6XB  2    0.604009    0.681785    0.848519    10.50000   -1.50000
H6XC  2    0.596916    0.701249    0.899612    10.50000   -1.50000
AFIX   0
C7X   1    0.393841    0.759540    0.848029    10.50000    0.03756    0.06193 =
         0.04351   -0.00458    0.00481   -0.00646
AFIX 137
H7XA  2    0.387032    0.722563    0.833775    10.50000   -1.50000
H7XB  2    0.332201    0.801162    0.832278    10.50000   -1.50000
H7XC  2    0.385274    0.740112    0.885594    10.50000   -1.50000
AFIX   0
C8X   1    0.338208    0.980211    0.671284    10.50000    0.02863    0.02512 =
         0.03245   -0.01069   -0.00912    0.00112
C9X   1    0.251890    0.995882    0.710128    10.50000    0.03739    0.04050 =
         0.03424   -0.01170   -0.00467    0.00867
AFIX 137
H9XA  2    0.294779    1.004301    0.736788    10.50000   -1.50000
H9XB  2    0.211643    0.954713    0.726396    10.50000   -1.50000
H9XC  2    0.194055    1.038655    0.692039    10.50000   -1.50000
AFIX   0
C10X  1    0.267456    0.970964    0.628969    10.50000    0.03232    0.04046 =
         0.03644   -0.01560   -0.00578   -0.00165
AFIX 137
H10P  2    0.229059    0.928752    0.644131    10.50000   -1.50000
H10Q  2    0.320125    0.964409    0.602248    10.50000   -1.50000
H10R  2    0.207877    1.013810    0.613432    10.50000   -1.50000
AFIX   0
O11X  6    0.653242    0.802348    0.612427    10.50000    0.03501    0.03011 =
         0.02648   -0.00176   -0.00309   -0.00658
O12X  6    0.702388    0.694657    0.703602    10.50000    0.02009    0.02094 =
         0.02081   -0.01009    0.00103   -0.00676
C13X  1    0.625446    0.665823    0.688073    10.50000    0.02338    0.02943 =
         0.02637   -0.01562    0.00027   -0.00268
C14X  1    0.566096    0.697995    0.640088    10.50000    0.03166    0.03886 =
         0.02781   -0.01225   -0.00361   -0.00645
AFIX  43
H14X  2    0.510784    0.673833    0.631466    10.50000   -1.20000
AFIX   0
C15X  1    0.584254    0.764567    0.603821    10.50000    0.03172    0.03819 =
         0.02772   -0.01450    0.00199    0.00113
C16X  1    0.600209    0.601496    0.720761    10.50000    0.02363    0.02373 =
         0.03075   -0.01540    0.00040   -0.00743
C17X  1    0.555045    0.604671    0.774884    10.50000    0.03586    0.03981 =
         0.03032   -0.00848    0.00357   -0.01428
AFIX 137
H17A  2    0.481634    0.638939    0.769058    10.50000   -1.50000
H17B  2    0.614292    0.620097    0.791167    10.50000   -1.50000
H17C  2    0.541497    0.556926    0.797637    10.50000   -1.50000
AFIX   0
C18X  1    0.519514    0.558581    0.705635    10.50000    0.04378    0.04234 =
         0.05733   -0.02000   -0.01253   -0.01430
AFIX 137
H18A  2    0.548553    0.549505    0.674749    10.50000   -1.50000
H18B  2    0.439808    0.586128    0.698262    10.50000   -1.50000
H18C  2    0.518664    0.512712    0.734236    10.50000   -1.50000
AFIX   0
C19X  1    0.723585    0.543344    0.738749    10.50000    0.02977    0.02537 =
         0.04431   -0.01893   -0.00628   -0.00443
AFIX 137
H19A  2    0.779929    0.563653    0.752681    10.50000   -1.50000
H19B  2    0.756265    0.533128    0.708779    10.50000   -1.50000
H19C  2    0.707755    0.498750    0.765458    10.50000   -1.50000
AFIX   0
C20X  1    0.515192    0.797101    0.552062    10.50000    0.11039    0.06884 =
         0.03628   -0.02467   -0.02811    0.01320
C21X  1    0.440023    0.748283    0.541327    10.50000    0.07635    0.05870 =
         0.03836   -0.02064   -0.02639    0.00150
AFIX 137
H21A  2    0.380238    0.737478    0.567439    10.50000   -1.50000
H21B  2    0.489882    0.703474    0.542797    10.50000   -1.50000
H21C  2    0.401735    0.772585    0.506858    10.50000   -1.50000
AFIX   0
C22X  1    0.609718    0.812639    0.511074    10.50000    0.05373    0.07928 =
         0.05616   -0.01861    0.00320    0.00533
AFIX 137
H22A  2    0.649700    0.767359    0.508804    10.50000   -1.50000
H22B  2    0.666890    0.836552    0.521018    10.50000   -1.50000
H22C  2    0.572630    0.843881    0.477352    10.50000   -1.50000
AFIX   0
C23X  1    0.437258    0.866534    0.549823    10.50000    0.06167    0.04464 =
         0.05666   -0.01317   -0.02617    0.01416
AFIX 137
H23A  2    0.486078    0.899940    0.553176    10.50000   -1.50000
H23B  2    0.382735    0.856087    0.578205    10.50000   -1.50000
H23C  2    0.392788    0.888273    0.516646    10.50000   -1.50000
AFIX   0
C24X  1    0.403748    1.043745    0.645828    10.50000    0.04786    0.03634 =
         0.04942   -0.01689   -0.00394   -0.00865
AFIX 137
H24A  2    0.455768    1.033989    0.619909    10.50000   -1.50000
H24B  2    0.450331    1.050161    0.672330    10.50000   -1.50000
H24C  2    0.346908    1.087568    0.629025    10.50000   -1.50000
AFIX   0
O17A  6    0.847868    0.665319    0.619187    10.50000    0.03733    0.03946 =
         0.01999   -0.01541   -0.00127    0.00031
O18A  6    0.910580    0.800995    0.586705    10.50000    0.05222    0.04056 =
         0.02812   -0.01822    0.01483   -0.02118
C89A  1    0.932277    0.533552    0.611087    10.50000    0.07694    0.04062 =
         0.03535   -0.01397    0.00174    0.00479
AFIX 137
H89D  2    0.919401    0.489498    0.606592    10.50000   -1.50000
H89E  2    0.893157    0.536973    0.642043    10.50000   -1.50000
H89F  2    1.016597    0.532448    0.615045    10.50000   -1.50000
AFIX   0
C90A  1    0.756618    0.594599    0.555182    10.50000    0.03871    0.06283 =
         0.08118   -0.04879   -0.01235    0.00015
AFIX 137
H90D  2    0.710477    0.599397    0.584199    10.50000   -1.50000
H90E  2    0.750636    0.548687    0.551960    10.50000   -1.50000
H90F  2    0.726432    0.634124    0.523121    10.50000   -1.50000
AFIX   0
C91A  1    0.952904    0.594627    0.517092    10.50000    0.07057    0.06439 =
         0.03313   -0.01901    0.00902    0.02263
AFIX 137
H91D  2    0.941532    0.552192    0.509883    10.50000   -1.50000
H91E  2    1.036463    0.592099    0.524076    10.50000   -1.50000
H91F  2    0.924992    0.638057    0.487049    10.50000   -1.50000
AFIX   0
C92A  1    0.883104    0.597044    0.564811    10.50000    0.02525    0.04142 =
         0.02441   -0.02038    0.00274    0.00297
C93A  1    0.887593    0.664259    0.576466    10.50000    0.02147    0.03597 =
         0.02418   -0.00830   -0.00272   -0.00286
C94A  1    0.941586    0.719154    0.543706    10.50000    0.03159    0.03670 =
         0.03269   -0.01128    0.01194   -0.00016
AFIX  43
H94A  2    0.975644    0.712099    0.514061    10.50000   -1.20000
AFIX   0
C95A  1    0.951528    0.783764    0.549417    10.50000    0.03243    0.03742 =
         0.02964   -0.00988    0.01324   -0.00387
C96A  1    1.011634    0.839514    0.508845    10.50000    0.06106    0.05265 =
         0.06354   -0.00779    0.03464   -0.01399
C97A  1    1.138561    0.818138    0.521625    10.50000    0.07283    0.11711 =
         0.09500   -0.03058    0.03274   -0.06322
AFIX 137
H97D  2    1.160735    0.766253    0.530183    10.50000   -1.50000
H97E  2    1.157224    0.830190    0.551377    10.50000   -1.50000
H97F  2    1.182083    0.843762    0.491809    10.50000   -1.50000
AFIX   0
C98A  1    0.950975    0.913499    0.500892    10.50000    0.07120    0.05063 =
         0.04923   -0.00368    0.00586   -0.01870
AFIX 137
H98D  2    0.966050    0.925156    0.531238    10.50000   -1.50000
H98E  2    0.866397    0.916384    0.496098    10.50000   -1.50000
H98F  2    0.980484    0.947735    0.470099    10.50000   -1.50000
AFIX   0
C99A  1    0.995159    0.836318    0.453377    10.50000    0.09449    0.09027 =
         0.05571   -0.00234    0.02772   -0.02175
AFIX 137
H99D  2    0.912637    0.835198    0.447112    10.50000   -1.50000
H99E  2    1.044007    0.792933    0.451626    10.50000   -1.50000
H99F  2    1.018622    0.878842    0.427011    10.50000   -1.50000
AFIX   0
O14A  6    0.784821    0.825442    0.687057    10.50000    0.01658    0.01915 =
         0.02192   -0.00645   -0.00014   -0.00187
C67A  1    1.156142    0.665011    0.675658    10.50000    0.02316    0.03221 =
         0.04973   -0.02351    0.00505   -0.00153
AFIX 137
H67D  2    1.098735    0.632273    0.685697    10.50000   -1.50000
H67E  2    1.235435    0.637076    0.680217    10.50000   -1.50000
H67F  2    1.141434    0.696572    0.639278    10.50000   -1.50000
AFIX   0
C68A  1    1.162766    0.658420    0.765830    10.50000    0.02649    0.02701 =
         0.03676   -0.01058   -0.00175    0.00331
AFIX 137
H68D  2    1.242115    0.630439    0.771070    10.50000   -1.50000
H68E  2    1.105171    0.625882    0.773237    10.50000   -1.50000
H68F  2    1.152515    0.685310    0.789148    10.50000   -1.50000
AFIX   0
C69A  1    1.236277    0.760340    0.698138    10.50000    0.02040    0.02972 =
         0.05056   -0.01567    0.00256   -0.00156
AFIX 137
H69D  2    1.222785    0.795375    0.662666    10.50000   -1.50000
H69E  2    1.314908    0.731829    0.701756    10.50000   -1.50000
H69F  2    1.229828    0.785662    0.722457    10.50000   -1.50000
AFIX   0
C70   1    1.144868    0.710740    0.709876    10.50000    0.01975    0.02175 =
         0.03526   -0.01166    0.00047    0.00089
C71A  1    1.021764    0.747795    0.710716    10.50000    0.01941    0.02122 =
         0.01974   -0.00930   -0.00036   -0.00255
C72A  1    0.986503    0.823193    0.691092    10.50000    0.01708    0.02022 =
         0.02689   -0.01121   -0.00070   -0.00382
AFIX  43
H72A  2    1.046696    0.851799    0.682013    10.50000   -1.20000
AFIX   0
C73A  1    0.870572    0.859302    0.683892    10.50000    0.01989    0.01888 =
         0.01413   -0.00776   -0.00152   -0.00268
C74A  1    0.835213    0.938314    0.670601    10.50000    0.01660    0.01980 =
         0.03322   -0.01898    0.00842   -0.00718
C75A  1    0.759326    0.952337    0.713925    10.50000    0.03431    0.02319 =
         0.03722   -0.01137    0.00753   -0.00360
AFIX 137
H75D  2    0.804212    0.930548    0.746995    10.50000   -1.50000
H75E  2    0.688092    0.931101    0.716597    10.50000   -1.50000
H75F  2    0.737753    1.004217    0.705539    10.50000   -1.50000
AFIX   0
C76A  1    0.944925    0.977821    0.665237    10.50000    0.03111    0.01741 =
         0.04952   -0.01034    0.00462   -0.00766
AFIX 137
H76D  2    0.994890    0.969591    0.638229    10.50000   -1.50000
H76E  2    0.989873    0.958804    0.698278    10.50000   -1.50000
H76F  2    0.917840    1.029491    0.655888    10.50000   -1.50000
AFIX   0
C77A  1    0.763063    0.971414    0.619358    10.50000    0.03308    0.02468 =
         0.03847   -0.00569   -0.00712    0.00367
AFIX 137
H77D  2    0.690158    0.951548    0.623369    10.50000   -1.50000
H77E  2    0.808466    0.960213    0.592190    10.50000   -1.50000
H77F  2    0.744441    1.023642    0.609755    10.50000   -1.50000
PART 0
AFIX   0
HKLF 4




REM  LiMn1.5Co0.5
REM wR2 = 0.1238, GooF = S = 1.018, Restrained GooF = 0.967 for all data
REM R1 = 0.0465 for 21032 Fo > 4sig(Fo) and 0.0735 for all 28845 data
REM 1868 parameters refined using 3473 restraints

END

WGHT      0.0433      2.8435

REM Highest difference peak  0.652,  deepest hole -0.528,  1-sigma level  0.059
Q1    1   0.3691  0.2890  0.7322  11.00000  0.05    0.65
Q2    1   0.5775  0.2383  0.5721  11.00000  0.05    0.61
Q3    1   1.0154  0.9031  0.5317  11.00000  0.05    0.47
Q4    1   0.6240  0.7919  0.5428  11.00000  0.05    0.46
Q5    1   0.2075  0.3422  0.8130  11.00000  0.05    0.44
Q6    1   0.4756  0.2632  0.8490  11.00000  0.05    0.42
Q7    1   0.2541  0.2208  0.7460  11.00000  0.05    0.42
Q8    1   0.1595  0.3084  0.8582  11.00000  0.05    0.41
Q9    1   0.0374  0.0305  0.8672  11.00000  0.05    0.39
Q10   1   0.2038  0.2460  0.8883  11.00000  0.05    0.38
;
_shelx_res_checksum              86372
loop_
_space_group_symop_operation_xyz
'x, y, z'
'-x, -y, -z'
loop_
_atom_site_label
_atom_site_type_symbol
_atom_site_fract_x
_atom_site_fract_y
_atom_site_fract_z
_atom_site_U_iso_or_equiv
_atom_site_adp_type
_atom_site_occupancy
_atom_site_site_symmetry_order
_atom_site_calc_flag
_atom_site_refinement_flags_posn
_atom_site_refinement_flags_adp
_atom_site_refinement_flags_occupancy
_atom_site_disorder_assembly
_atom_site_disorder_group
Li1 Li 0.2920(3) 0.18876(17) 0.80014(13) 0.0255(7) Uani 1 1 d . . . . .
Mn2 Mn 0.41600(2) 0.25602(2) 0.85302(2) 0.01686(6) Uani 1 1 d . . . . .
Co1 Co 0.43657(2) 0.28743(2) 0.73459(2) 0.01779(6) Uani 0.5 1 d . . P . .
Mn1 Mn 0.43657(2) 0.28743(2) 0.73459(2) 0.01779(6) Uani 0.5 1 d . . P . .
O1 O 0.27611(10) 0.19284(7) 0.87091(5) 0.0221(3) Uani 1 1 d . . . . .
O2 O 0.20121(12) 0.11981(7) 0.80934(5) 0.0290(3) Uani 1 1 d . . . . .
O3 O 0.29577(11) 0.24224(7) 0.72009(5) 0.0222(3) Uani 1 1 d . . . . .
O4 O 0.30282(10) 0.31441(6) 0.78298(5) 0.0183(2) Uani 1 1 d . . . . .
O5 O 0.40444(11) 0.38780(7) 0.67907(5) 0.0232(3) Uani 1 1 d . . . . .
O6 O 0.55179(11) 0.25609(7) 0.68872(5) 0.0268(3) Uani 1 1 d . . . . .
O7 O 0.55052(10) 0.29841(6) 0.79034(5) 0.0190(3) Uani 1 1 d . . . . .
O8 O 0.46046(10) 0.18395(6) 0.80487(5) 0.0162(2) Uani 1 1 d . . . . .
O9 O 0.54466(11) 0.19545(7) 0.90973(5) 0.0222(3) Uani 1 1 d . . . . .
O10 O 0.41207(11) 0.33473(7) 0.88367(5) 0.0218(3) Uani 1 1 d . . . . .
C4 C 0.20218(17) 0.15960(11) 0.95813(8) 0.0286(4) Uani 1 1 d . . . . .
C5 C 0.21339(15) 0.15312(10) 0.90443(7) 0.0228(4) Uani 1 1 d . . . . .
C6 C 0.15470(16) 0.10374(10) 0.89550(8) 0.0266(4) Uani 1 1 d . . . . .
H6 H 0.110357 0.077788 0.923096 0.032 Uiso 1 1 calc R U . . .
C7 C 0.15375(15) 0.08791(10) 0.84989(8) 0.0243(4) Uani 1 1 d . . . . .
C8 C 0.09624(17) 0.02475(10) 0.84927(8) 0.0283(4) Uani 1 1 d . . . . .
C9 C 0.1985(2) -0.03405(11) 0.84927(10) 0.0392(5) Uani 1 1 d . . . . .
H9A H 0.247263 -0.048867 0.880987 0.059 Uiso 1 1 calc R U . . .
H9B H 0.245892 -0.015363 0.819084 0.059 Uiso 1 1 calc R U . . .
H9C H 0.167547 -0.075475 0.847725 0.059 Uiso 1 1 calc R U . . .
C10 C 0.02236(18) 0.04806(11) 0.79912(9) 0.0314(5) Uani 1 1 d . . . . .
H10S H 0.071403 0.065997 0.769403 0.047 Uiso 1 1 calc R U . . .
H10T H -0.042543 0.086231 0.798411 0.047 Uiso 1 1 calc R U . . .
H10U H -0.009132 0.006904 0.797417 0.047 Uiso 1 1 calc R U . . .
C11 C 0.0194(2) -0.00381(12) 0.89528(9) 0.0369(5) Uani 1 1 d . . . . .
H11D H -0.042262 0.035151 0.896186 0.055 Uiso 1 1 calc R U . . .
H11E H 0.067600 -0.022482 0.927431 0.055 Uiso 1 1 calc R U . . .
H11F H -0.016556 -0.042449 0.891747 0.055 Uiso 1 1 calc R U . . .
C12 C 0.23069(18) 0.26831(12) 0.61768(8) 0.0304(4) Uani 1 1 d . . . . .
H12A H 0.255445 0.315284 0.601923 0.046 Uiso 1 1 calc R U . . .
H12B H 0.196060 0.256002 0.590836 0.046 Uiso 1 1 calc R U . . .
H12C H 0.298840 0.231784 0.634346 0.046 Uiso 1 1 calc R U . . .
C13 C 0.03282(18) 0.32821(11) 0.63294(8) 0.0304(4) Uani 1 1 d . . . . .
H13A H -0.003191 0.315872 0.606432 0.046 Uiso 1 1 calc R U . . .
H13B H 0.057482 0.375163 0.616864 0.046 Uiso 1 1 calc R U . . .
H13C H -0.024291 0.330141 0.659300 0.046 Uiso 1 1 calc R U . . .
C14 C 0.13955(16) 0.27123(10) 0.65826(7) 0.0227(4) Uani 1 1 d . . . . .
C15 C 0.10148(19) 0.19780(11) 0.68265(8) 0.0313(4) Uani 1 1 d . . . . .
H15A H 0.169335 0.161641 0.700198 0.047 Uiso 1 1 calc R U . . .
H15B H 0.069352 0.184861 0.655577 0.047 Uiso 1 1 calc R U . . .
H15C H 0.041327 0.199803 0.707832 0.047 Uiso 1 1 calc R U . . .
C16 C 0.20031(15) 0.28499(9) 0.70134(7) 0.0207(4) Uani 1 1 d . . . . .
C17 C 0.15261(15) 0.33966(10) 0.71988(7) 0.0220(4) Uani 1 1 d . . . . .
H17 H 0.080986 0.369547 0.704305 0.026 Uiso 1 1 calc R U . . .
C18 C 0.20473(15) 0.35214(9) 0.75968(7) 0.0194(4) Uani 1 1 d . . . . .
C19 C 0.15000(15) 0.41071(10) 0.77958(7) 0.0207(4) Uani 1 1 d . . . . .
C20 C 0.24259(18) 0.45691(10) 0.77868(9) 0.0300(4) Uani 1 1 d . . . . .
H20A H 0.263599 0.481136 0.742860 0.045 Uiso 1 1 calc R U . . .
H20B H 0.312515 0.426306 0.799013 0.045 Uiso 1 1 calc R U . . .
H20C H 0.211019 0.492893 0.793604 0.045 Uiso 1 1 calc R U . . .
C21 C 0.11516(18) 0.37193(12) 0.83550(8) 0.0304(4) Uani 1 1 d . . . . .
H21D H 0.185215 0.342990 0.856563 0.046 Uiso 1 1 calc R U . . .
H21E H 0.059058 0.340593 0.835489 0.046 Uiso 1 1 calc R U . . .
H21F H 0.079041 0.407536 0.850007 0.046 Uiso 1 1 calc R U . . .
C22 C 0.04122(17) 0.45883(11) 0.74768(8) 0.0310(4) Uani 1 1 d . . . . .
H22D H -0.019691 0.429777 0.749370 0.046 Uiso 1 1 calc R U . . .
H22E H 0.061847 0.481370 0.711570 0.046 Uiso 1 1 calc R U . . .
H22F H 0.011839 0.496166 0.761668 0.046 Uiso 1 1 calc R U . . .
C23 C 0.3110(2) 0.52305(11) 0.62543(9) 0.0404(6) Uani 1 1 d . . . . .
H23D H 0.278290 0.571288 0.601411 0.061 Uiso 1 1 calc R U . . .
H23E H 0.359167 0.526848 0.652568 0.061 Uiso 1 1 calc R U . . .
H23F H 0.247006 0.497148 0.641206 0.061 Uiso 1 1 calc R U . . .
C24 C 0.4861(2) 0.52349(12) 0.57096(10) 0.0448(6) Uani 1 1 d . . . . .
H24D H 0.537193 0.525013 0.598063 0.067 Uiso 1 1 calc R U . . .
H24E H 0.452748 0.572581 0.548624 0.067 Uiso 1 1 calc R U . . .
H24F H 0.531936 0.499131 0.550217 0.067 Uiso 1 1 calc R U . . .
C25 C 0.38671(19) 0.48235(10) 0.59600(8) 0.0302(4) Uani 1 1 d . . . . .
C26 C 0.3105(2) 0.47596(13) 0.55399(9) 0.0419(6) Uani 1 1 d . . . . .
H26A H 0.278705 0.524073 0.529505 0.063 Uiso 1 1 calc R U . . .
H26B H 0.245833 0.450914 0.570070 0.063 Uiso 1 1 calc R U . . .
H26C H 0.358311 0.448816 0.535534 0.063 Uiso 1 1 calc R U . . .
C27 C 0.43895(16) 0.40619(10) 0.63313(7) 0.0227(4) Uani 1 1 d . . . . .
C28 C 0.51875(18) 0.36223(11) 0.61436(8) 0.0289(4) Uani 1 1 d . . . . .
H28 H 0.539459 0.382537 0.579301 0.035 Uiso 1 1 calc R U . . .
C29 C 0.57087(17) 0.29152(10) 0.64207(8) 0.0261(4) Uani 1 1 d . . . . .
C30 C 0.6571(2) 0.24935(12) 0.61599(9) 0.0381(5) Uani 1 1 d . . . . .
C31 C 0.7616(2) 0.20766(17) 0.65416(13) 0.0628(8) Uani 1 1 d . . . . .
H31A H 0.732556 0.178426 0.687222 0.094 Uiso 1 1 calc R U . . .
H31B H 0.805933 0.241683 0.659739 0.094 Uiso 1 1 calc R U . . .
H31C H 0.812832 0.176343 0.639793 0.094 Uiso 1 1 calc R U . . .
C32 C 0.7053(4) 0.29676(17) 0.56711(14) 0.0912(14) Uani 1 1 d . . . . .
H32A H 0.733215 0.336080 0.573469 0.137 Uiso 1 1 calc R U . . .
H32B H 0.643433 0.316631 0.539749 0.137 Uiso 1 1 calc R U . . .
H32C H 0.770542 0.268446 0.556290 0.137 Uiso 1 1 calc R U . . .
C33 C 0.5926(3) 0.19387(17) 0.60851(13) 0.0609(8) Uani 1 1 d . . . . .
H33A H 0.527049 0.218358 0.583318 0.091 Uiso 1 1 calc R U . . .
H33B H 0.562561 0.165676 0.641653 0.091 Uiso 1 1 calc R U . . .
H33C H 0.646720 0.161849 0.595730 0.091 Uiso 1 1 calc R U . . .
C34 C 0.74985(17) 0.33454(11) 0.82724(8) 0.0290(4) Uani 1 1 d . . . . .
H34A H 0.674369 0.366703 0.822491 0.043 Uiso 1 1 calc R U . . .
H34B H 0.813727 0.362534 0.821660 0.043 Uiso 1 1 calc R U . . .
H34C H 0.757353 0.298642 0.862513 0.043 Uiso 1 1 calc R U . . .
C35 C 0.74334(18) 0.35245(11) 0.73270(8) 0.0291(4) Uani 1 1 d . . . . .
H35A H 0.807656 0.380194 0.726494 0.044 Uiso 1 1 calc R U . . .
H35B H 0.668242 0.384903 0.728265 0.044 Uiso 1 1 calc R U . . .
H35C H 0.745851 0.327910 0.707985 0.044 Uiso 1 1 calc R U . . .
C36 C 0.87437(16) 0.24681(11) 0.79497(9) 0.0297(4) Uani 1 1 d . . . . .
H36A H 0.883439 0.211295 0.830378 0.045 Uiso 1 1 calc R U . . .
H36B H 0.937862 0.275201 0.788524 0.045 Uiso 1 1 calc R U . . .
H36C H 0.877509 0.222053 0.770367 0.045 Uiso 1 1 calc R U . . .
C37 C 0.75630(15) 0.29653(10) 0.78818(8) 0.0218(4) Uani 1 1 d . . . . .
C38 C 0.65091(14) 0.25751(9) 0.79576(7) 0.0181(3) Uani 1 1 d . . . . .
C39 C 0.66292(14) 0.18360(9) 0.80691(7) 0.0181(3) Uani 1 1 d . . . . .
H39 H 0.739489 0.156096 0.811577 0.022 Uiso 1 1 calc R U . . .
C40 C 0.56626(14) 0.14876(9) 0.81142(7) 0.0165(3) Uani 1 1 d . . . . .
C41 C 0.57617(15) 0.06839(9) 0.82381(7) 0.0198(4) Uani 1 1 d . . . . .
C42 C 0.51608(17) 0.05860(10) 0.77849(8) 0.0277(4) Uani 1 1 d . . . . .
H42A H 0.554628 0.081708 0.746307 0.042 Uiso 1 1 calc R U . . .
H42B H 0.433212 0.080613 0.775318 0.042 Uiso 1 1 calc R U . . .
H42C H 0.522179 0.007235 0.785032 0.042 Uiso 1 1 calc R U . . .
C43 C 0.70323(16) 0.02946(10) 0.83091(9) 0.0293(4) Uani 1 1 d . . . . .
H43A H 0.742090 0.036009 0.859445 0.044 Uiso 1 1 calc R U . . .
H43B H 0.744660 0.049322 0.798954 0.044 Uiso 1 1 calc R U . . .
H43C H 0.704340 -0.021887 0.838872 0.044 Uiso 1 1 calc R U . . .
C44 C 0.51143(17) 0.03693(10) 0.87371(8) 0.0278(4) Uani 1 1 d . . . . .
H44A H 0.428896 0.059870 0.868570 0.042 Uiso 1 1 calc R U . . .
H44B H 0.547454 0.045708 0.901929 0.042 Uiso 1 1 calc R U . . .
H44C H 0.516544 -0.014910 0.882536 0.042 Uiso 1 1 calc R U . . .
C45 C 0.62061(19) 0.09440(12) 1.01430(9) 0.0364(5) Uani 1 1 d . . . . .
H45A H 0.678111 0.054043 1.036198 0.055 Uiso 1 1 calc R U . . .
H45B H 0.575269 0.078030 0.992739 0.055 Uiso 1 1 calc R U . . .
H45C H 0.567540 0.113031 1.036216 0.055 Uiso 1 1 calc R U . . .
C46 C 0.76915(17) 0.12422(12) 0.94616(8) 0.0321(5) Uani 1 1 d . . . . .
H46A H 0.724972 0.106463 0.925107 0.048 Uiso 1 1 calc R U . . .
H46B H 0.826996 0.084683 0.968673 0.048 Uiso 1 1 calc R U . . .
H46C H 0.809540 0.162241 0.923432 0.048 Uiso 1 1 calc R U . . .
C47 C 0.68487(16) 0.15427(10) 0.97934(7) 0.0247(4) Uani 1 1 d . . . . .
C48 C 0.75467(19) 0.18107(12) 1.01255(9) 0.0346(5) Uani 1 1 d . . . . .
H48A H 0.817171 0.142369 1.032400 0.052 Uiso 1 1 calc R U . . .
H48B H 0.702260 0.195911 1.036407 0.052 Uiso 1 1 calc R U . . .
H48C H 0.789296 0.222096 0.990101 0.052 Uiso 1 1 calc R U . . .
C49 C 0.59026(15) 0.21283(10) 0.94356(7) 0.0208(4) Uani 1 1 d . . . . .
C50 C 0.55728(16) 0.27794(10) 0.95101(7) 0.0229(4) Uani 1 1 d . . . . .
H50 H 0.597365 0.284461 0.977996 0.027 Uiso 1 1 calc R U . . .
C51 C 0.47021(16) 0.33424(10) 0.92207(7) 0.0208(4) Uani 1 1 d . . . . .
C52 C 0.3060(2) 0.41097(15) 0.94498(11) 0.0475(6) Uani 1 1 d . . . . .
H52A H 0.290038 0.369924 0.975043 0.071 Uiso 1 1 calc R U . . .
H52B H 0.262452 0.413164 0.914435 0.071 Uiso 1 1 calc R U . . .
H52C H 0.281266 0.455411 0.951648 0.071 Uiso 1 1 calc R U . . .
C53 C 0.43752(18) 0.40226(11) 0.93531(8) 0.0276(4) Uani 1 1 d . . . . .
C54 C 0.4632(2) 0.46535(12) 0.88827(10) 0.0437(6) Uani 1 1 d . . . . .
H54A H 0.419559 0.467339 0.857826 0.066 Uiso 1 1 calc R U . . .
H54B H 0.547468 0.459177 0.882161 0.066 Uiso 1 1 calc R U . . .
H54C H 0.439266 0.510135 0.894552 0.066 Uiso 1 1 calc R U . . .
C55 C 0.5046(2) 0.40036(13) 0.98247(9) 0.0426(6) Uani 1 1 d . . . . .
H55A H 0.588574 0.396667 0.975894 0.064 Uiso 1 1 calc R U . . .
H55B H 0.491061 0.358716 1.012630 0.064 Uiso 1 1 calc R U . . .
H55C H 0.477179 0.444477 0.989241 0.064 Uiso 1 1 calc R U . . .
Co2 Co 0.81832(8) 0.71800(9) 0.76720(6) 0.0173(2) Uani 0.25 1 d . U P A 1
Mn2Y Mn 0.81832(8) 0.71800(9) 0.76720(6) 0.0173(2) Uani 0.25 1 d . U P A 1
Mn2A Mn 0.78703(14) 0.75543(13) 0.64735(11) 0.0219(3) Uani 0.5 1 d . U P A 1
Li2 Li 0.6231(8) 0.8191(5) 0.7029(3) 0.0236(16) Uani 0.5 1 d . U P A 1
O14 O 0.7913(12) 0.8233(8) 0.6992(3) 0.0196(11) Uani 0.5 1 d . U P A 1
C1 C 0.2716(3) 0.21393(16) 0.96377(11) 0.0322(7) Uani 0.833(5) 1 d . U P B 1
H1A H 0.259049 0.217514 0.997864 0.048 Uiso 0.833(5) 1 calc R U P B 1
H1B H 0.245330 0.260950 0.936705 0.048 Uiso 0.833(5) 1 calc R U P B 1
H1C H 0.355237 0.198382 0.960393 0.048 Uiso 0.833(5) 1 calc R U P B 1
C2 C 0.0708(2) 0.1874(2) 0.96372(13) 0.0491(9) Uani 0.833(5) 1 d . U P B 1
H2A H 0.045855 0.233757 0.935767 0.074 Uiso 0.833(5) 1 calc R U P B 1
H2B H 0.060736 0.193210 0.997213 0.074 Uiso 0.833(5) 1 calc R U P B 1
H2C H 0.023103 0.152673 0.961721 0.074 Uiso 0.833(5) 1 calc R U P B 1
C3 C 0.2423(3) 0.08795(16) 1.00117(11) 0.0489(9) Uani 0.833(5) 1 d . U P B 1
H3A H 0.238105 0.094306 1.034576 0.073 Uiso 0.833(5) 1 calc R U P B 1
H3B H 0.323358 0.069290 0.995850 0.073 Uiso 0.833(5) 1 calc R U P B 1
H3C H 0.191411 0.053901 1.000917 0.073 Uiso 0.833(5) 1 calc R U P B 1
C56 C 0.7720(13) 0.5209(9) 0.9440(7) 0.042(3) Uani 0.5 1 d . U P A 1
H56A H 0.765295 0.472135 0.967411 0.063 Uiso 0.5 1 calc R U P A 1
H56B H 0.695157 0.545813 0.927410 0.063 Uiso 0.5 1 calc R U P A 1
H56C H 0.799280 0.547185 0.963757 0.063 Uiso 0.5 1 calc R U P A 1
C57 C 0.8169(19) 0.4776(10) 0.8705(9) 0.033(3) Uani 0.5 1 d . U P A 1
H57A H 0.736475 0.499583 0.857292 0.049 Uiso 0.5 1 calc R U P A 1
H57B H 0.818736 0.426942 0.892278 0.049 Uiso 0.5 1 calc R U P A 1
H57C H 0.868311 0.480871 0.841389 0.049 Uiso 0.5 1 calc R U P A 1
C58 C 0.9799(11) 0.4776(7) 0.9282(7) 0.041(3) Uani 0.5 1 d . U P A 1
H58A H 0.976753 0.426496 0.946097 0.061 Uiso 0.5 1 calc R U P A 1
H58B H 1.001338 0.497977 0.953125 0.061 Uiso 0.5 1 calc R U P A 1
H58C H 1.038700 0.483298 0.901515 0.061 Uiso 0.5 1 calc R U P A 1
C59 C 0.8594(13) 0.5171(7) 0.9027(7) 0.0221(19) Uani 0.5 1 d . U P A 1
C60 C 0.871(3) 0.5939(10) 0.8674(10) 0.0200(14) Uani 0.5 1 d . U P A 1
C61 C 0.9163(13) 0.6367(6) 0.8893(5) 0.0246(18) Uani 0.5 1 d . U P A 1
H61 H 0.936937 0.615455 0.925244 0.030 Uiso 0.5 1 calc R U P A 1
O11 O 0.8371(15) 0.6146(10) 0.8206(8) 0.0207(15) Uani 0.5 1 d . U P A 1
C62 C 0.9352(11) 0.7076(6) 0.8641(4) 0.0221(17) Uani 0.5 1 d . U P A 1
O12 O 0.9093(5) 0.7450(4) 0.8161(3) 0.0253(11) Uani 0.5 1 d . U P A 1
C63 C 0.9896(7) 0.7487(4) 0.8920(2) 0.0283(14) Uani 0.5 1 d . U P A 1
C64 C 0.9007(15) 0.8133(9) 0.8899(7) 0.040(2) Uani 0.5 1 d . U P A 1
H64A H 0.834271 0.797279 0.911068 0.061 Uiso 0.5 1 calc R U P A 1
H64B H 0.872814 0.840682 0.853995 0.061 Uiso 0.5 1 calc R U P A 1
H64C H 0.937116 0.843820 0.903333 0.061 Uiso 0.5 1 calc R U P A 1
C65 C 1.0975(6) 0.7737(4) 0.8628(3) 0.0525(16) Uani 0.5 1 d . U P A 1
H65A H 1.074109 0.804434 0.826907 0.079 Uiso 0.5 1 calc R U P A 1
H65B H 1.154268 0.731858 0.863307 0.079 Uiso 0.5 1 calc R U P A 1
H65C H 1.133253 0.800969 0.879489 0.079 Uiso 0.5 1 calc R U P A 1
C66 C 1.0243(8) 0.7037(4) 0.9490(2) 0.0467(15) Uani 0.5 1 d . U P A 1
H66A H 1.079672 0.660446 0.951173 0.070 Uiso 0.5 1 calc R U P A 1
H66B H 0.954092 0.689822 0.967890 0.070 Uiso 0.5 1 calc R U P A 1
H66C H 1.061258 0.732069 0.964266 0.070 Uiso 0.5 1 calc R U P A 1
C67 C 1.171(2) 0.6730(14) 0.6781(11) 0.0330(19) Uani 0.5 1 d . U P A 1
H67A H 1.113767 0.641138 0.680460 0.050 Uiso 0.5 1 calc R U P A 1
H67B H 1.250146 0.645058 0.684151 0.050 Uiso 0.5 1 calc R U P A 1
H67C H 1.163986 0.710600 0.643503 0.050 Uiso 0.5 1 calc R U P A 1
C68 C 1.154(3) 0.6519(14) 0.7747(7) 0.0313(16) Uani 0.5 1 d D U P A 1
H68A H 1.233210 0.623736 0.782131 0.047 Uiso 0.5 1 calc R U P A 1
H68B H 1.096915 0.619824 0.778115 0.047 Uiso 0.5 1 calc R U P A 1
H68C H 1.136991 0.676533 0.799297 0.047 Uiso 0.5 1 calc R U P A 1
C69 C 1.2361(17) 0.7574(9) 0.7135(4) 0.0336(19) Uani 0.5 1 d . U P A 1
H69A H 1.232642 0.791877 0.677839 0.050 Uiso 0.5 1 calc R U P A 1
H69B H 1.314871 0.728679 0.721956 0.050 Uiso 0.5 1 calc R U P A 1
H69C H 1.218682 0.783477 0.737225 0.050 Uiso 0.5 1 calc R U P A 1
C70A C 1.146(2) 0.7078(10) 0.7192(6) 0.0257(14) Uani 0.5 1 d D U P A 1
C71 C 1.0161(19) 0.7498(11) 0.7026(6) 0.0197(14) Uani 0.5 1 d . U P A 1
C72 C 0.9938(18) 0.8221(11) 0.7006(6) 0.0205(16) Uani 0.5 1 d . U P A 1
H72 H 1.056769 0.845545 0.703086 0.025 Uiso 0.5 1 calc R U P A 1
C73 C 0.8797(14) 0.8575(9) 0.6949(4) 0.0172(14) Uani 0.5 1 d . U P A 1
C74 C 0.8467(11) 0.9402(7) 0.6825(4) 0.0195(18) Uani 0.5 1 d . U P A 1
C75 C 0.7688(18) 0.9468(11) 0.7262(5) 0.035(3) Uani 0.5 1 d . U P A 1
H75A H 0.812994 0.922914 0.759344 0.053 Uiso 0.5 1 calc R U P A 1
H75B H 0.699972 0.924124 0.726743 0.053 Uiso 0.5 1 calc R U P A 1
H75C H 0.743206 0.997724 0.720616 0.053 Uiso 0.5 1 calc R U P A 1
C76 C 0.9507(16) 0.9747(11) 0.6801(5) 0.031(2) Uani 0.5 1 d . U P A 1
H76A H 1.000307 0.968755 0.652300 0.046 Uiso 0.5 1 calc R U P A 1
H76B H 0.995330 0.952277 0.713205 0.046 Uiso 0.5 1 calc R U P A 1
H76C H 0.925540 1.026030 0.673148 0.046 Uiso 0.5 1 calc R U P A 1
C77 C 0.7778(16) 0.9720(11) 0.6304(6) 0.030(2) Uani 0.5 1 d . U P A 1
H77A H 0.710083 0.947798 0.632561 0.045 Uiso 0.5 1 calc R U P A 1
H77B H 0.828732 0.964931 0.603254 0.045 Uiso 0.5 1 calc R U P A 1
H77C H 0.750710 1.023456 0.621962 0.045 Uiso 0.5 1 calc R U P A 1
C78 C 0.4278(3) 0.6772(2) 0.87078(15) 0.0241(8) Uani 0.5 1 d . U P A 1
H78A H 0.372462 0.675540 0.845214 0.036 Uiso 0.5 1 calc R U P A 1
H78B H 0.384204 0.688692 0.898247 0.036 Uiso 0.5 1 calc R U P A 1
H78C H 0.478479 0.630302 0.885797 0.036 Uiso 0.5 1 calc R U P A 1
C79 C 0.4238(3) 0.8089(2) 0.82078(16) 0.0270(8) Uani 0.5 1 d . U P A 1
H79A H 0.381106 0.821003 0.848226 0.040 Uiso 0.5 1 calc R U P A 1
H79B H 0.367637 0.807645 0.795375 0.040 Uiso 0.5 1 calc R U P A 1
H79C H 0.472875 0.845208 0.803657 0.040 Uiso 0.5 1 calc R U P A 1
C80 C 0.5875(4) 0.7387(2) 0.88515(17) 0.0265(8) Uani 0.5 1 d . U P A 1
H80A H 0.639455 0.692373 0.900647 0.040 Uiso 0.5 1 calc R U P A 1
H80B H 0.542436 0.750251 0.912259 0.040 Uiso 0.5 1 calc R U P A 1
H80C H 0.634613 0.776227 0.868177 0.040 Uiso 0.5 1 calc R U P A 1
C81 C 0.5023(3) 0.7343(2) 0.84463(13) 0.0159(6) Uani 0.5 1 d . U P A 1
C82 C 0.5744(3) 0.72270(17) 0.80046(13) 0.0152(6) Uani 0.5 1 d . U P A 1
C83 C 0.5585(3) 0.66875(18) 0.78145(13) 0.0172(7) Uani 0.5 1 d . U P A 1
H83 H 0.502293 0.638857 0.797068 0.021 Uiso 0.5 1 calc R U P A 1
C84 C 0.6216(3) 0.65726(18) 0.74070(13) 0.0151(6) Uani 0.5 1 d . U P A 1
C85 C 0.7206(10) 0.5531(6) 0.7201(3) 0.0312(19) Uani 0.5 1 d . U P A 1
H85A H 0.760162 0.528096 0.754219 0.047 Uiso 0.5 1 calc R U P A 1
H85B H 0.768180 0.587206 0.697787 0.047 Uiso 0.5 1 calc R U P A 1
H85C H 0.710589 0.517949 0.704469 0.047 Uiso 0.5 1 calc R U P A 1
C86 C 0.5515(4) 0.6375(2) 0.66489(15) 0.0308(9) Uani 0.5 1 d . U P A 1
H86A H 0.609152 0.665242 0.644219 0.046 Uiso 0.5 1 calc R U P A 1
H86B H 0.479621 0.670268 0.665753 0.046 Uiso 0.5 1 calc R U P A 1
H86C H 0.533396 0.603845 0.649338 0.046 Uiso 0.5 1 calc R U P A 1
C87 C 0.5180(3) 0.5509(2) 0.75267(16) 0.0277(8) Uani 0.5 1 d . U P A 1
H87A H 0.444536 0.583743 0.750955 0.042 Uiso 0.5 1 calc R U P A 1
H87B H 0.543953 0.524510 0.788948 0.042 Uiso 0.5 1 calc R U P A 1
H87C H 0.505318 0.516804 0.736513 0.042 Uiso 0.5 1 calc R U P A 1
C88 C 0.607(3) 0.5915(12) 0.7255(12) 0.0241(15) Uani 0.5 1 d . U P A 1
O15 O 0.6500(2) 0.76354(14) 0.78328(11) 0.0172(5) Uani 0.5 1 d . U P A 1
O16 O 0.7000(8) 0.6957(5) 0.7184(2) 0.0197(12) Uani 0.5 1 d . U P A 1
C100 C 0.6491(5) 0.8934(6) 0.5166(2) 0.102(3) Uani 0.5 1 d . U P A 1
H10A H 0.650831 0.896932 0.480386 0.154 Uiso 0.5 1 calc R U P A 1
H10B H 0.720206 0.862111 0.535360 0.154 Uiso 0.5 1 calc R U P A 1
H10C H 0.645222 0.941321 0.517993 0.154 Uiso 0.5 1 calc R U P A 1
C101 C 0.5457(9) 0.7877(5) 0.5439(3) 0.0731(17) Uani 0.5 1 d . U P A 1
H10D H 0.608111 0.755774 0.568639 0.110 Uiso 0.5 1 calc R U P A 1
H10E H 0.561689 0.785692 0.509513 0.110 Uiso 0.5 1 calc R U P A 1
H10F H 0.470266 0.772190 0.554971 0.110 Uiso 0.5 1 calc R U P A 1
C102 C 0.4369(4) 0.9054(3) 0.50541(18) 0.0449(12) Uani 0.5 1 d . U P A 1
H10G H 0.445708 0.898204 0.472351 0.067 Uiso 0.5 1 calc R U P A 1
H10H H 0.433138 0.956435 0.499446 0.067 Uiso 0.5 1 calc R U P A 1
H10I H 0.364509 0.889675 0.521106 0.067 Uiso 0.5 1 calc R U P A 1
C103 C 0.5410(4) 0.8618(3) 0.54155(16) 0.0375(10) Uani 0.5 1 d . U P A 1
C104 C 0.5369(3) 0.8630(2) 0.59658(14) 0.0215(7) Uani 0.5 1 d . U P A 1
C105 C 0.4505(3) 0.9121(2) 0.60726(14) 0.0219(7) Uani 0.5 1 d . U P A 1
H105 H 0.394828 0.940007 0.579916 0.026 Uiso 0.5 1 calc R U P A 1
C106 C 0.4360(4) 0.9252(2) 0.65343(16) 0.0205(8) Uani 0.5 1 d D U P A 1
C107 C 0.3465(5) 0.9895(3) 0.6555(2) 0.0263(14) Uani 0.5 1 d D U P A 1
C108 C 0.4160(17) 1.0495(8) 0.6516(7) 0.040(3) Uani 0.5 1 d D U P A 1
H10J H 0.455392 1.063406 0.618518 0.059 Uiso 0.5 1 calc R U P A 1
H10K H 0.474770 1.032255 0.680155 0.059 Uiso 0.5 1 calc R U P A 1
H10L H 0.362351 1.091241 0.653468 0.059 Uiso 0.5 1 calc R U P A 1
C109 C 0.2913(5) 0.9676(3) 0.70869(19) 0.0376(12) Uani 0.5 1 d D U P A 1
H10M H 0.353209 0.951126 0.735912 0.056 Uiso 0.5 1 calc R U P A 1
H10N H 0.247200 0.928670 0.712729 0.056 Uiso 0.5 1 calc R U P A 1
H10O H 0.238108 1.008974 0.711409 0.056 Uiso 0.5 1 calc R U P A 1
C110 C 0.2506(4) 1.0166(3) 0.61282(19) 0.0422(12) Uani 0.5 1 d D U P A 1
H11A H 0.211415 0.976770 0.613878 0.063 Uiso 0.5 1 calc R U P A 1
H11B H 0.285642 1.035879 0.579083 0.063 Uiso 0.5 1 calc R U P A 1
H11C H 0.193189 1.054491 0.618074 0.063 Uiso 0.5 1 calc R U P A 1
O19 O 0.6159(2) 0.82041(16) 0.63084(11) 0.0213(6) Uani 0.5 1 d . U P A 1
O20 O 0.4988(3) 0.88962(17) 0.69496(14) 0.0248(6) Uani 0.5 1 d . U P A 1
O17 O 0.8233(9) 0.6801(6) 0.6120(5) 0.0267(14) Uani 0.5 1 d . U P A 1
O18 O 0.9022(11) 0.8144(5) 0.5950(4) 0.0287(13) Uani 0.5 1 d . U P A 1
C89 C 0.950(3) 0.5480(10) 0.6070(10) 0.053(3) Uani 0.5 1 d . U P A 1
H89A H 0.961158 0.505756 0.596952 0.079 Uiso 0.5 1 calc R U P A 1
H89B H 0.892927 0.541737 0.634513 0.079 Uiso 0.5 1 calc R U P A 1
H89C H 1.024542 0.553398 0.619584 0.079 Uiso 0.5 1 calc R U P A 1
C90 C 0.7756(12) 0.6142(6) 0.5450(6) 0.050(2) Uani 0.5 1 d . U P A 1
H90A H 0.725970 0.610467 0.574724 0.075 Uiso 0.5 1 calc R U P A 1
H90B H 0.773973 0.572879 0.534756 0.075 Uiso 0.5 1 calc R U P A 1
H90C H 0.746183 0.658630 0.516014 0.075 Uiso 0.5 1 calc R U P A 1
C91 C 0.9808(12) 0.6160(5) 0.5149(5) 0.048(2) Uani 0.5 1 d . U P A 1
H91A H 0.983471 0.571009 0.508830 0.072 Uiso 0.5 1 calc R U P A 1
H91B H 1.060181 0.620808 0.522988 0.072 Uiso 0.5 1 calc R U P A 1
H91C H 0.948771 0.656596 0.483745 0.072 Uiso 0.5 1 calc R U P A 1
C92 C 0.9030(11) 0.6151(5) 0.5600(5) 0.0318(18) Uani 0.5 1 d . U P A 1
C93 C 0.8993(13) 0.6806(6) 0.5755(5) 0.0278(19) Uani 0.5 1 d . U P A 1
C94 C 0.9623(8) 0.7358(5) 0.5495(3) 0.0260(14) Uani 0.5 1 d . U P A 1
H94 H 1.010336 0.730515 0.522427 0.031 Uiso 0.5 1 calc R U P A 1
C95 C 0.9597(9) 0.7981(4) 0.5606(3) 0.0257(15) Uani 0.5 1 d . U P A 1
C96 C 1.0310(5) 0.8558(3) 0.52611(19) 0.0275(10) Uani 0.5 1 d . U P A 1
C97 C 1.0992(4) 0.8792(2) 0.55941(17) 0.0305(9) Uani 0.5 1 d . U P A 1
H97A H 1.159795 0.839281 0.579415 0.046 Uiso 0.5 1 calc R U P A 1
H97B H 1.046781 0.894350 0.583145 0.046 Uiso 0.5 1 calc R U P A 1
H97C H 1.136403 0.919606 0.537790 0.046 Uiso 0.5 1 calc R U P A 1
C98 C 0.933(2) 0.9196(11) 0.4911(10) 0.060(2) Uani 0.5 1 d . U P A 1
H98A H 0.877396 0.935766 0.513544 0.090 Uiso 0.5 1 calc R U P A 1
H98B H 0.890336 0.902312 0.469170 0.090 Uiso 0.5 1 calc R U P A 1
H98C H 0.969915 0.959796 0.469288 0.090 Uiso 0.5 1 calc R U P A 1
C99 C 1.1125(6) 0.8316(3) 0.4879(3) 0.0548(16) Uani 0.5 1 d . U P A 1
H99A H 1.064708 0.822853 0.462913 0.082 Uiso 0.5 1 calc R U P A 1
H99B H 1.165986 0.787338 0.507360 0.082 Uiso 0.5 1 calc R U P A 1
H99C H 1.158094 0.869379 0.469519 0.082 Uiso 0.5 1 calc R U P A 1
O13 O 0.940(2) 0.7107(13) 0.7070(6) 0.0196(13) Uani 0.5 1 d . U P A 1
Li2A Li 0.6212(8) 0.8227(5) 0.6794(4) 0.0319(18) Uani 0.5 1 d . U P C 2
Co2A Co 0.81962(13) 0.74622(12) 0.64568(10) 0.0242(3) Uani 0.25 1 d . U P C 2
Mn2Z Mn 0.81962(13) 0.74622(12) 0.64568(10) 0.0242(3) Uani 0.25 1 d . U P C 2
Mn2B Mn 0.78067(9) 0.72297(9) 0.76192(7) 0.0193(2) Uani 0.5 1 d . U P C 2
O13A O 0.941(2) 0.7066(13) 0.7154(6) 0.0196(13) Uani 0.5 1 d . U P C 2
C1A C 0.3314(15) 0.1122(12) 0.9858(6) 0.062(5) Uani 0.167(5) 1 d . U P B 2
H1AA H 0.324579 0.092017 1.023406 0.092 Uiso 0.167(5) 1 calc R U P B 2
H1AB H 0.390789 0.143650 0.977275 0.092 Uiso 0.167(5) 1 calc R U P B 2
H1AC H 0.354699 0.073117 0.972800 0.092 Uiso 0.167(5) 1 calc R U P B 2
C2A C 0.186(2) 0.2251(9) 0.9539(7) 0.074(8) Uani 0.167(5) 1 d . U P B 2
H2AA H 0.212634 0.254329 0.920200 0.111 Uiso 0.167(5) 1 calc R U P B 2
H2AB H 0.231700 0.229849 0.981552 0.111 Uiso 0.167(5) 1 calc R U P B 2
H2AC H 0.102960 0.241595 0.956828 0.111 Uiso 0.167(5) 1 calc R U P B 2
C3A C 0.1125(16) 0.1158(12) 0.9917(7) 0.062(5) Uani 0.167(5) 1 d . U P B 2
H3AA H 0.035063 0.132751 0.973949 0.093 Uiso 0.167(5) 1 calc R U P B 2
H3AB H 0.108446 0.121957 1.025164 0.093 Uiso 0.167(5) 1 calc R U P B 2
H3AC H 0.137042 0.064820 0.997264 0.093 Uiso 0.167(5) 1 calc R U P B 2
C56A C 0.8016(12) 0.5286(8) 0.9466(7) 0.048(3) Uani 0.5 1 d . U P C 2
H56D H 0.802964 0.479224 0.970905 0.073 Uiso 0.5 1 calc R U P C 2
H56E H 0.720909 0.550352 0.933705 0.073 Uiso 0.5 1 calc R U P C 2
H56F H 0.831568 0.556604 0.964289 0.073 Uiso 0.5 1 calc R U P C 2
C57A C 0.8302(16) 0.4831(8) 0.8745(8) 0.027(2) Uani 0.5 1 d . U P C 2
H57D H 0.751205 0.506741 0.860058 0.041 Uiso 0.5 1 calc R U P C 2
H57E H 0.826643 0.435187 0.900151 0.041 Uiso 0.5 1 calc R U P C 2
H57F H 0.881116 0.478758 0.846690 0.041 Uiso 0.5 1 calc R U P C 2
C58A C 1.0058(10) 0.4919(7) 0.9216(7) 0.044(3) Uani 0.5 1 d . U P C 2
H58D H 1.006194 0.441565 0.943560 0.066 Uiso 0.5 1 calc R U P C 2
H58E H 1.034077 0.517112 0.941909 0.066 Uiso 0.5 1 calc R U P C 2
H58F H 1.057076 0.494361 0.892517 0.066 Uiso 0.5 1 calc R U P C 2
C59A C 0.8796(13) 0.5278(8) 0.9006(6) 0.027(2) Uani 0.5 1 d . U P C 2
C60A C 0.875(3) 0.6052(10) 0.8633(10) 0.0200(14) Uani 0.5 1 d . U P C 2
C61A C 0.9276(11) 0.6525(6) 0.8792(5) 0.028(2) Uani 0.5 1 d . U P C 2
H61A H 0.968071 0.633400 0.911997 0.033 Uiso 0.5 1 calc R U P C 2
O11A O 0.8194(15) 0.6231(10) 0.8200(8) 0.0207(15) Uani 0.5 1 d . U P C 2
C62A C 0.9247(11) 0.7247(6) 0.8501(4) 0.029(2) Uani 0.5 1 d . U P C 2
O12A O 0.8737(5) 0.7588(4) 0.8067(3) 0.0299(12) Uani 0.5 1 d . U P C 2
C63A C 0.9822(9) 0.7708(5) 0.8732(4) 0.056(2) Uani 0.5 1 d . U P C 2
C64A C 0.8800(18) 0.8233(10) 0.8833(8) 0.057(4) Uani 0.5 1 d . U P C 2
H64D H 0.825691 0.795865 0.906879 0.085 Uiso 0.5 1 calc R U P C 2
H64E H 0.838362 0.854015 0.850525 0.085 Uiso 0.5 1 calc R U P C 2
H64F H 0.911281 0.853164 0.899067 0.085 Uiso 0.5 1 calc R U P C 2
C65A C 1.0600(7) 0.8132(5) 0.8313(4) 0.088(3) Uani 0.5 1 d . U P C 2
H65D H 1.014527 0.836877 0.798398 0.132 Uiso 0.5 1 calc R U P C 2
H65E H 1.127926 0.780198 0.826910 0.132 Uiso 0.5 1 calc R U P C 2
H65F H 1.086868 0.849522 0.841793 0.132 Uiso 0.5 1 calc R U P C 2
C66A C 1.0532(10) 0.7281(6) 0.9228(5) 0.108(4) Uani 0.5 1 d . U P C 2
H66D H 1.119217 0.695948 0.916023 0.162 Uiso 0.5 1 calc R U P C 2
H66E H 1.003539 0.699727 0.948447 0.162 Uiso 0.5 1 calc R U P C 2
H66F H 1.083123 0.761059 0.936012 0.162 Uiso 0.5 1 calc R U P C 2
O1X O 0.4947(3) 0.8962(2) 0.66431(18) 0.0346(7) Uani 0.5 1 d . U P C 2
O2X O 0.6066(3) 0.78508(15) 0.75658(13) 0.0269(6) Uani 0.5 1 d . U P C 2
C1X C 0.5235(3) 0.8155(2) 0.77706(16) 0.0271(8) Uani 0.5 1 d . U P C 2
C2X C 0.4414(3) 0.8759(2) 0.74973(16) 0.0284(8) Uani 0.5 1 d . U P C 2
H2X H 0.385597 0.893963 0.769567 0.034 Uiso 0.5 1 calc R U P C 2
C3X C 0.4330(4) 0.9128(2) 0.69553(18) 0.0290(8) Uani 0.5 1 d D U P C 2
C4X C 0.5122(4) 0.7823(3) 0.83642(17) 0.0328(9) Uani 0.5 1 d . U P C 2
C5X C 0.5228(5) 0.8408(3) 0.8597(2) 0.0483(12) Uani 0.5 1 d . U P C 2
H5XA H 0.457251 0.880681 0.846323 0.072 Uiso 0.5 1 calc R U P C 2
H5XB H 0.597000 0.858569 0.849803 0.072 Uiso 0.5 1 calc R U P C 2
H5XC H 0.520793 0.819744 0.897512 0.072 Uiso 0.5 1 calc R U P C 2
C6X C 0.6076(4) 0.7198(3) 0.8622(2) 0.0408(11) Uani 0.5 1 d . U P C 2
H6XA H 0.684017 0.735459 0.855196 0.061 Uiso 0.5 1 calc R U P C 2
H6XB H 0.604009 0.681785 0.848519 0.061 Uiso 0.5 1 calc R U P C 2
H6XC H 0.596916 0.701249 0.899612 0.061 Uiso 0.5 1 calc R U P C 2
C7X C 0.3938(4) 0.7595(3) 0.8480(2) 0.0521(13) Uani 0.5 1 d . U P C 2
H7XA H 0.387032 0.722563 0.833775 0.078 Uiso 0.5 1 calc R U P C 2
H7XB H 0.332201 0.801162 0.832278 0.078 Uiso 0.5 1 calc R U P C 2
H7XC H 0.385274 0.740112 0.885594 0.078 Uiso 0.5 1 calc R U P C 2
C8X C 0.3382(5) 0.9802(3) 0.6713(2) 0.0292(15) Uani 0.5 1 d D U P C 2
C9X C 0.2519(5) 0.9959(3) 0.7101(2) 0.0397(12) Uani 0.5 1 d D U P C 2
H9XA H 0.294779 1.004301 0.736788 0.059 Uiso 0.5 1 calc R U P C 2
H9XB H 0.211643 0.954713 0.726396 0.059 Uiso 0.5 1 calc R U P C 2
H9XC H 0.194055 1.038655 0.692039 0.059 Uiso 0.5 1 calc R U P C 2
C10X C 0.2675(4) 0.9710(3) 0.62897(19) 0.0364(10) Uani 0.5 1 d D U P C 2
H10P H 0.229059 0.928752 0.644131 0.055 Uiso 0.5 1 calc R U P C 2
H10Q H 0.320125 0.964409 0.602248 0.055 Uiso 0.5 1 calc R U P C 2
H10R H 0.207877 1.013810 0.613432 0.055 Uiso 0.5 1 calc R U P C 2
O11X O 0.6532(3) 0.80235(17) 0.61243(13) 0.0327(7) Uani 0.5 1 d . U P C 2
O12X O 0.7024(8) 0.6947(5) 0.7036(2) 0.0195(12) Uani 0.5 1 d . U P C 2
C13X C 0.6254(3) 0.6658(2) 0.68807(15) 0.0250(8) Uani 0.5 1 d . U P C 2
C14X C 0.5661(4) 0.6980(2) 0.64009(16) 0.0326(9) Uani 0.5 1 d . U P C 2
H14X H 0.510784 0.673833 0.631466 0.039 Uiso 0.5 1 calc R U P C 2
C15X C 0.5843(4) 0.7646(2) 0.60382(16) 0.0327(9) Uani 0.5 1 d D U P C 2
C16X C 0.600(3) 0.6015(12) 0.7208(12) 0.0241(15) Uani 0.5 1 d . U P C 2
C17X C 0.5550(4) 0.6047(2) 0.77488(17) 0.0356(10) Uani 0.5 1 d . U P C 2
H17A H 0.481634 0.638939 0.769058 0.053 Uiso 0.5 1 calc R U P C 2
H17B H 0.614292 0.620097 0.791167 0.053 Uiso 0.5 1 calc R U P C 2
H17C H 0.541497 0.556926 0.797637 0.053 Uiso 0.5 1 calc R U P C 2
C18X C 0.5195(4) 0.5586(3) 0.7056(2) 0.0462(12) Uani 0.5 1 d . U P C 2
H18A H 0.548553 0.549505 0.674749 0.069 Uiso 0.5 1 calc R U P C 2
H18B H 0.439808 0.586128 0.698262 0.069 Uiso 0.5 1 calc R U P C 2
H18C H 0.518664 0.512712 0.734236 0.069 Uiso 0.5 1 calc R U P C 2
C19X C 0.7236(10) 0.5433(6) 0.7387(3) 0.0313(19) Uani 0.5 1 d . U P C 2
H19A H 0.779929 0.563653 0.752681 0.047 Uiso 0.5 1 calc R U P C 2
H19B H 0.756265 0.533128 0.708779 0.047 Uiso 0.5 1 calc R U P C 2
H19C H 0.707755 0.498750 0.765458 0.047 Uiso 0.5 1 calc R U P C 2
C20X C 0.5152(5) 0.7971(3) 0.5521(2) 0.0731(17) Uani 0.5 1 d D U P C 2
C21X C 0.4400(5) 0.7483(3) 0.5413(2) 0.0580(15) Uani 0.5 1 d D U P C 2
H21A H 0.380238 0.737478 0.567439 0.087 Uiso 0.5 1 calc R U P C 2
H21B H 0.489882 0.703474 0.542797 0.087 Uiso 0.5 1 calc R U P C 2
H21C H 0.401735 0.772585 0.506858 0.087 Uiso 0.5 1 calc R U P C 2
C22X C 0.6097(5) 0.8126(4) 0.5111(2) 0.0668(17) Uani 0.5 1 d D U P C 2
H22A H 0.649700 0.767359 0.508804 0.100 Uiso 0.5 1 calc R U P C 2
H22B H 0.666890 0.836552 0.521018 0.100 Uiso 0.5 1 calc R U P C 2
H22C H 0.572630 0.843881 0.477352 0.100 Uiso 0.5 1 calc R U P C 2
C23X C 0.4373(5) 0.8665(3) 0.5498(2) 0.0581(15) Uani 0.5 1 d D U P C 2
H23A H 0.486078 0.899940 0.553176 0.087 Uiso 0.5 1 calc R U P C 2
H23B H 0.382735 0.856087 0.578205 0.087 Uiso 0.5 1 calc R U P C 2
H23C H 0.392788 0.888273 0.516646 0.087 Uiso 0.5 1 calc R U P C 2
C24X C 0.4037(18) 1.0437(9) 0.6458(7) 0.044(3) Uani 0.5 1 d D U P C 2
H24A H 0.455768 1.033989 0.619909 0.066 Uiso 0.5 1 calc R U P C 2
H24B H 0.450331 1.050161 0.672330 0.066 Uiso 0.5 1 calc R U P C 2
H24C H 0.346908 1.087568 0.629025 0.066 Uiso 0.5 1 calc R U P C 2
O17A O 0.8479(10) 0.6653(6) 0.6192(5) 0.0317(17) Uani 0.5 1 d . U P C 2
O18A O 0.9106(11) 0.8010(5) 0.5867(4) 0.0373(16) Uani 0.5 1 d . U P C 2
C89A C 0.932(3) 0.5336(10) 0.6111(10) 0.053(3) Uani 0.5 1 d . U P C 2
H89D H 0.919401 0.489498 0.606592 0.079 Uiso 0.5 1 calc R U P C 2
H89E H 0.893157 0.536973 0.642043 0.079 Uiso 0.5 1 calc R U P C 2
H89F H 1.016597 0.532448 0.615045 0.079 Uiso 0.5 1 calc R U P C 2
C90A C 0.7566(10) 0.5946(6) 0.5552(6) 0.055(3) Uani 0.5 1 d . U P C 2
H90D H 0.710477 0.599397 0.584199 0.083 Uiso 0.5 1 calc R U P C 2
H90E H 0.750636 0.548687 0.551960 0.083 Uiso 0.5 1 calc R U P C 2
H90F H 0.726432 0.634124 0.523121 0.083 Uiso 0.5 1 calc R U P C 2
C91A C 0.9529(10) 0.5946(5) 0.5171(5) 0.060(3) Uani 0.5 1 d . U P C 2
H91D H 0.941532 0.552192 0.509883 0.090 Uiso 0.5 1 calc R U P C 2
H91E H 1.036463 0.592099 0.524076 0.090 Uiso 0.5 1 calc R U P C 2
H91F H 0.924992 0.638057 0.487049 0.090 Uiso 0.5 1 calc R U P C 2
C92A C 0.8831(9) 0.5970(5) 0.5648(4) 0.0291(17) Uani 0.5 1 d . U P C 2
C93A C 0.8876(12) 0.6643(6) 0.5765(6) 0.0281(19) Uani 0.5 1 d . U P C 2
C94A C 0.9416(7) 0.7192(5) 0.5437(4) 0.0349(17) Uani 0.5 1 d . U P C 2
H94A H 0.975644 0.712099 0.514061 0.042 Uiso 0.5 1 calc R U P C 2
C95A C 0.9515(8) 0.7838(5) 0.5494(3) 0.0343(17) Uani 0.5 1 d . U P C 2
C96A C 1.0116(6) 0.8395(4) 0.5088(3) 0.0629(18) Uani 0.5 1 d D U P C 2
C97A C 1.1386(7) 0.8181(5) 0.5216(4) 0.092(3) Uani 0.5 1 d D U P C 2
H97D H 1.160735 0.766253 0.530183 0.138 Uiso 0.5 1 calc R U P C 2
H97E H 1.157224 0.830190 0.551377 0.138 Uiso 0.5 1 calc R U P C 2
H97F H 1.182083 0.843762 0.491809 0.138 Uiso 0.5 1 calc R U P C 2
C98A C 0.951(2) 0.9135(11) 0.5009(10) 0.060(2) Uani 0.5 1 d D U P C 2
H98D H 0.966050 0.925156 0.531238 0.090 Uiso 0.5 1 calc R U P C 2
H98E H 0.866397 0.916384 0.496098 0.090 Uiso 0.5 1 calc R U P C 2
H98F H 0.980484 0.947735 0.470099 0.090 Uiso 0.5 1 calc R U P C 2
C99A C 0.9952(7) 0.8363(4) 0.4534(3) 0.087(2) Uani 0.5 1 d D U P C 2
H99D H 0.912637 0.835198 0.447112 0.130 Uiso 0.5 1 calc R U P C 2
H99E H 1.044007 0.792933 0.451626 0.130 Uiso 0.5 1 calc R U P C 2
H99F H 1.018622 0.878842 0.427011 0.130 Uiso 0.5 1 calc R U P C 2
O14A O 0.7848(12) 0.8254(8) 0.6871(3) 0.0196(11) Uani 0.5 1 d . U P C 2
C67A C 1.156(2) 0.6650(14) 0.6757(11) 0.0330(19) Uani 0.5 1 d D U P C 2
H67D H 1.098735 0.632273 0.685697 0.050 Uiso 0.5 1 calc R U P C 2
H67E H 1.235435 0.637076 0.680217 0.050 Uiso 0.5 1 calc R U P C 2
H67F H 1.141434 0.696572 0.639278 0.050 Uiso 0.5 1 calc R U P C 2
C68A C 1.163(3) 0.6584(14) 0.7658(7) 0.0313(16) Uani 0.5 1 d . U P C 2
H68D H 1.242115 0.630439 0.771070 0.047 Uiso 0.5 1 calc R U P C 2
H68E H 1.105171 0.625882 0.773237 0.047 Uiso 0.5 1 calc R U P C 2
H68F H 1.152515 0.685310 0.789148 0.047 Uiso 0.5 1 calc R U P C 2
C69A C 1.2363(17) 0.7603(9) 0.6981(4) 0.0336(19) Uani 0.5 1 d . U P C 2
H69D H 1.222785 0.795375 0.662666 0.050 Uiso 0.5 1 calc R U P C 2
H69E H 1.314908 0.731829 0.701756 0.050 Uiso 0.5 1 calc R U P C 2
H69F H 1.229828 0.785662 0.722457 0.050 Uiso 0.5 1 calc R U P C 2
C70 C 1.145(2) 0.7107(10) 0.7099(6) 0.0257(14) Uani 0.5 1 d D U P C 2
C71A C 1.0218(19) 0.7478(11) 0.7107(6) 0.0197(14) Uani 0.5 1 d . U P C 2
C72A C 0.9865(18) 0.8232(11) 0.6911(6) 0.0205(16) Uani 0.5 1 d . U P C 2
H72A H 1.046696 0.851799 0.682013 0.025 Uiso 0.5 1 calc R U P C 2
C73A C 0.8706(14) 0.8593(9) 0.6839(4) 0.0172(14) Uani 0.5 1 d . U P C 2
C74A C 0.8352(10) 0.9383(7) 0.6706(4) 0.0202(19) Uani 0.5 1 d . U P C 2
C75A C 0.7593(17) 0.9523(11) 0.7139(5) 0.032(2) Uani 0.5 1 d . U P C 2
H75D H 0.804212 0.930548 0.746995 0.048 Uiso 0.5 1 calc R U P C 2
H75E H 0.688092 0.931101 0.716597 0.048 Uiso 0.5 1 calc R U P C 2
H75F H 0.737753 1.004217 0.705539 0.048 Uiso 0.5 1 calc R U P C 2
C76A C 0.9449(16) 0.9778(11) 0.6652(5) 0.033(3) Uani 0.5 1 d . U P C 2
H76D H 0.994890 0.969591 0.638229 0.049 Uiso 0.5 1 calc R U P C 2
H76E H 0.989873 0.958804 0.698278 0.049 Uiso 0.5 1 calc R U P C 2
H76F H 0.917840 1.029491 0.655888 0.049 Uiso 0.5 1 calc R U P C 2
C77A C 0.7631(16) 0.9714(12) 0.6194(6) 0.035(2) Uani 0.5 1 d . U P C 2
H77D H 0.690158 0.951548 0.623369 0.052 Uiso 0.5 1 calc R U P C 2
H77E H 0.808466 0.960213 0.592190 0.052 Uiso 0.5 1 calc R U P C 2
H77F H 0.744441 1.023642 0.609755 0.052 Uiso 0.5 1 calc R U P C 2
loop_
_atom_site_aniso_label
_atom_site_aniso_U_11
_atom_site_aniso_U_22
_atom_site_aniso_U_33
_atom_site_aniso_U_23
_atom_site_aniso_U_13
_atom_site_aniso_U_12
Li1 0.0204(15) 0.0294(16) 0.0267(17) -0.0069(13) 0.0008(12) -0.0119(13)
Mn2 0.01681(13) 0.01910(13) 0.01640(14) -0.00889(10) 0.00036(10) -0.00202(10)
Co1 0.01945(13) 0.01835(12) 0.01580(13) -0.00714(10) 0.00325(9) -0.00201(9)
Mn1 0.01945(13) 0.01835(12) 0.01580(13) -0.00714(10) 0.00325(9) -0.00201(9)
O1 0.0184(6) 0.0245(6) 0.0216(7) -0.0054(5) 0.0055(5) -0.0061(5)
O2 0.0267(7) 0.0338(7) 0.0288(8) -0.0099(6) 0.0047(6) -0.0156(6)
O3 0.0198(6) 0.0222(6) 0.0260(7) -0.0119(5) -0.0031(5) 0.0006(5)
O4 0.0147(6) 0.0204(6) 0.0188(6) -0.0074(5) 0.0002(5) 0.0007(5)
O5 0.0263(7) 0.0216(6) 0.0221(7) -0.0095(5) 0.0062(5) -0.0022(5)
O6 0.0264(7) 0.0285(7) 0.0274(7) -0.0154(6) 0.0043(5) 0.0017(5)
O7 0.0158(6) 0.0181(6) 0.0256(7) -0.0108(5) 0.0047(5) -0.0039(5)
O8 0.0123(5) 0.0170(6) 0.0196(6) -0.0069(5) 0.0007(4) -0.0025(4)
O9 0.0218(6) 0.0247(6) 0.0224(7) -0.0115(5) -0.0039(5) -0.0024(5)
O10 0.0230(6) 0.0245(6) 0.0216(7) -0.0132(5) -0.0006(5) -0.0023(5)
C4 0.0279(10) 0.0378(11) 0.0236(10) -0.0121(8) 0.0068(8) -0.0139(8)
C5 0.0168(8) 0.0249(9) 0.0246(10) -0.0071(8) 0.0020(7) -0.0023(7)
C6 0.0243(9) 0.0287(10) 0.0260(10) -0.0062(8) 0.0066(8) -0.0120(8)
C7 0.0162(8) 0.0245(9) 0.0294(10) -0.0065(8) -0.0001(7) -0.0034(7)
C8 0.0248(9) 0.0229(9) 0.0372(12) -0.0093(8) 0.0017(8) -0.0077(7)
C9 0.0373(12) 0.0255(10) 0.0487(14) -0.0092(10) -0.0008(10) 0.0017(9)
C10 0.0281(10) 0.0250(10) 0.0422(13) -0.0111(9) -0.0018(9) -0.0096(8)
C11 0.0381(12) 0.0334(11) 0.0423(13) -0.0116(10) 0.0093(10) -0.0206(9)
C12 0.0329(11) 0.0365(11) 0.0268(11) -0.0174(9) 0.0033(8) -0.0060(9)
C13 0.0293(10) 0.0347(11) 0.0288(11) -0.0153(9) -0.0059(8) -0.0002(8)
C14 0.0218(9) 0.0281(9) 0.0205(9) -0.0105(7) -0.0002(7) -0.0066(7)
C15 0.0335(11) 0.0301(10) 0.0325(11) -0.0107(9) -0.0025(9) -0.0123(8)
C16 0.0192(8) 0.0218(9) 0.0213(9) -0.0076(7) 0.0025(7) -0.0050(7)
C17 0.0177(8) 0.0252(9) 0.0218(9) -0.0086(7) -0.0013(7) -0.0001(7)
C18 0.0170(8) 0.0204(8) 0.0195(9) -0.0058(7) 0.0042(7) -0.0032(6)
C19 0.0184(8) 0.0228(9) 0.0219(9) -0.0116(7) -0.0010(7) 0.0022(7)
C20 0.0299(10) 0.0232(9) 0.0393(12) -0.0151(9) -0.0053(9) -0.0012(8)
C21 0.0269(10) 0.0390(11) 0.0261(11) -0.0166(9) 0.0034(8) 0.0029(8)
C22 0.0263(10) 0.0328(11) 0.0341(12) -0.0171(9) -0.0042(8) 0.0067(8)
C23 0.0561(14) 0.0227(10) 0.0346(12) -0.0064(9) 0.0141(10) 0.0036(9)
C24 0.0663(16) 0.0302(11) 0.0424(14) -0.0144(10) 0.0263(12) -0.0215(11)
C25 0.0435(12) 0.0210(9) 0.0251(10) -0.0077(8) 0.0117(9) -0.0060(8)
C26 0.0533(14) 0.0362(12) 0.0286(12) -0.0057(9) -0.0035(10) 0.0001(10)
C27 0.0259(9) 0.0228(9) 0.0222(10) -0.0100(7) 0.0055(7) -0.0082(7)
C28 0.0361(11) 0.0286(10) 0.0252(10) -0.0133(8) 0.0136(8) -0.0074(8)
C29 0.0255(9) 0.0298(10) 0.0300(11) -0.0188(8) 0.0098(8) -0.0069(8)
C30 0.0394(12) 0.0373(12) 0.0434(13) -0.0243(10) 0.0182(10) -0.0027(9)
C31 0.0388(14) 0.075(2) 0.083(2) -0.0485(18) 0.0111(14) 0.0114(13)
C32 0.118(3) 0.0573(19) 0.081(2) -0.0193(17) 0.074(2) 0.0098(19)
C33 0.0583(17) 0.0688(19) 0.081(2) -0.0605(18) 0.0062(15) -0.0020(14)
C34 0.0268(10) 0.0327(10) 0.0386(12) -0.0227(9) 0.0064(8) -0.0138(8)
C35 0.0293(10) 0.0275(10) 0.0333(11) -0.0112(8) 0.0088(8) -0.0132(8)
C36 0.0164(9) 0.0278(10) 0.0501(13) -0.0184(9) 0.0080(8) -0.0092(7)
C37 0.0178(8) 0.0223(9) 0.0302(10) -0.0134(8) 0.0061(7) -0.0086(7)
C38 0.0151(8) 0.0220(8) 0.0200(9) -0.0106(7) 0.0043(6) -0.0041(6)
C39 0.0122(7) 0.0187(8) 0.0256(9) -0.0107(7) 0.0019(6) -0.0027(6)
C40 0.0160(8) 0.0179(8) 0.0167(8) -0.0075(7) 0.0023(6) -0.0032(6)
C41 0.0175(8) 0.0164(8) 0.0278(10) -0.0099(7) 0.0011(7) -0.0048(6)
C42 0.0282(10) 0.0253(9) 0.0357(11) -0.0177(8) -0.0017(8) -0.0053(8)
C43 0.0191(9) 0.0204(9) 0.0501(13) -0.0155(9) -0.0010(8) -0.0009(7)
C44 0.0297(10) 0.0187(9) 0.0310(11) -0.0032(8) 0.0041(8) -0.0072(7)
C45 0.0344(11) 0.0349(11) 0.0325(12) -0.0014(9) -0.0044(9) -0.0100(9)
C46 0.0227(9) 0.0393(11) 0.0311(11) -0.0125(9) -0.0063(8) 0.0036(8)
C47 0.0217(9) 0.0299(10) 0.0217(10) -0.0078(8) -0.0029(7) -0.0051(7)
C48 0.0313(11) 0.0403(12) 0.0323(12) -0.0127(9) -0.0132(9) -0.0054(9)
C49 0.0167(8) 0.0273(9) 0.0195(9) -0.0086(7) 0.0023(7) -0.0069(7)
C50 0.0241(9) 0.0292(10) 0.0199(9) -0.0118(8) 0.0002(7) -0.0104(7)
C51 0.0226(9) 0.0256(9) 0.0197(9) -0.0122(7) 0.0068(7) -0.0110(7)
C52 0.0410(13) 0.0566(15) 0.0648(17) -0.0465(14) 0.0135(12) -0.0078(11)
C53 0.0331(10) 0.0276(10) 0.0284(11) -0.0163(8) 0.0043(8) -0.0081(8)
C54 0.0647(16) 0.0270(11) 0.0418(14) -0.0125(10) -0.0003(12) -0.0136(11)
C55 0.0633(16) 0.0381(12) 0.0377(13) -0.0249(10) -0.0033(11) -0.0130(11)
Co2 0.0159(5) 0.0197(4) 0.0186(4) -0.0094(3) -0.0009(5) -0.0034(5)
Mn2Y 0.0159(5) 0.0197(4) 0.0186(4) -0.0094(3) -0.0009(5) -0.0034(5)
Mn2A 0.0209(8) 0.0265(6) 0.0215(4) -0.0132(4) 0.0045(6) -0.0025(6)
Li2 0.017(3) 0.031(4) 0.020(3) -0.009(3) 0.003(3) 0.003(2)
O14 0.0166(12) 0.0191(9) 0.022(3) -0.006(3) 0.000(2) -0.0019(9)
C1 0.0362(15) 0.0404(15) 0.0279(14) -0.0186(12) 0.0079(12) -0.0151(13)
C2 0.0251(13) 0.089(3) 0.052(2) -0.0470(19) 0.0141(12) -0.0131(15)
C3 0.083(3) 0.0379(16) 0.0239(15) -0.0058(12) -0.0021(14) -0.0182(16)
C56 0.061(7) 0.037(3) 0.041(4) -0.023(3) 0.022(4) -0.024(4)
C57 0.048(6) 0.024(4) 0.035(5) -0.017(3) -0.001(4) -0.016(3)
C58 0.045(5) 0.035(4) 0.046(5) -0.021(4) -0.020(4) 0.001(3)
C59 0.025(4) 0.014(3) 0.027(3) -0.006(2) -0.004(3) -0.004(2)
C60 0.0160(18) 0.023(4) 0.024(3) -0.013(3) 0.000(2) 0.000(3)
C61 0.028(3) 0.022(4) 0.029(4) -0.012(3) 0.004(3) -0.010(2)
O11 0.022(4) 0.020(3) 0.0231(8) -0.0119(19) -0.003(2) -0.001(3)
C62 0.023(4) 0.026(4) 0.020(3) -0.011(3) 0.000(2) -0.006(3)
O12 0.029(3) 0.028(2) 0.025(2) -0.013(2) -0.002(2) -0.010(2)
C63 0.038(3) 0.031(3) 0.026(3) -0.017(2) 0.002(2) -0.016(3)
C64 0.062(7) 0.036(4) 0.032(4) -0.021(3) 0.000(4) -0.014(4)
C65 0.048(3) 0.076(5) 0.064(4) -0.048(3) 0.015(3) -0.040(3)
C66 0.071(4) 0.041(3) 0.038(3) -0.022(3) -0.022(3) -0.014(3)
C67 0.023(5) 0.032(4) 0.050(2) -0.024(2) 0.005(3) -0.002(3)
C68 0.026(3) 0.027(3) 0.037(4) -0.011(3) -0.002(4) 0.003(2)
C69 0.0204(10) 0.0297(15) 0.051(6) -0.016(4) 0.003(4) -0.0016(10)
C70A 0.0198(9) 0.0217(14) 0.035(4) -0.012(3) 0.000(4) 0.0009(10)
C71 0.0194(16) 0.0212(11) 0.020(4) -0.009(2) 0.000(2) -0.0025(10)
C72 0.0171(19) 0.0202(9) 0.027(4) -0.011(3) -0.001(3) -0.0038(11)
C73 0.0199(19) 0.0189(10) 0.014(4) -0.008(3) -0.002(3) -0.0027(12)
C74 0.027(3) 0.014(2) 0.021(4) -0.012(2) -0.007(2) 0.0013(19)
C75 0.045(5) 0.025(4) 0.033(5) -0.014(4) 0.012(4) 0.007(3)
C76 0.031(3) 0.021(4) 0.044(6) -0.016(5) 0.009(4) -0.004(3)
C77 0.034(5) 0.023(3) 0.030(5) -0.008(4) -0.008(3) 0.002(3)
C78 0.0253(18) 0.0314(19) 0.0195(19) -0.0128(15) 0.0078(14) -0.0085(15)
C79 0.0243(19) 0.0281(19) 0.024(2) -0.0085(16) 0.0061(16) 0.0049(16)
C80 0.029(2) 0.036(2) 0.023(2) -0.0209(18) 0.0031(16) -0.0059(17)
C81 0.0195(17) 0.0153(17) 0.0145(17) -0.0080(13) 0.0029(12) -0.0019(13)
C82 0.0122(14) 0.0179(15) 0.0149(16) -0.0066(12) -0.0009(12) 0.0010(12)
C83 0.0140(15) 0.0214(16) 0.0201(17) -0.0113(13) 0.0034(12) -0.0051(13)
C84 0.0101(14) 0.0195(15) 0.0163(16) -0.0077(13) -0.0028(12) -0.0010(12)
C85 0.032(3) 0.030(4) 0.039(5) -0.021(4) 0.013(4) -0.008(2)
C86 0.032(2) 0.050(3) 0.024(2) -0.0237(18) 0.0043(16) -0.0206(18)
C87 0.030(2) 0.035(2) 0.032(2) -0.0240(18) 0.0125(16) -0.0180(16)
C88 0.024(2) 0.024(5) 0.031(4) -0.015(3) 0.000(2) -0.007(3)
O15 0.0155(12) 0.0204(13) 0.0152(13) -0.0069(11) -0.0032(10) 0.0001(10)
O16 0.0204(17) 0.0270(18) 0.017(3) -0.013(2) 0.004(2) -0.0071(12)
C100 0.040(3) 0.227(9) 0.032(3) -0.040(5) 0.004(2) -0.019(4)
C101 0.110(4) 0.069(3) 0.036(2) -0.0247(19) -0.028(3) 0.013(3)
C102 0.045(3) 0.062(3) 0.025(2) -0.015(2) -0.0091(19) -0.002(2)
C103 0.034(2) 0.060(3) 0.018(2) -0.0238(19) -0.0111(16) 0.015(2)
C104 0.0177(16) 0.0292(18) 0.0177(17) -0.0088(14) -0.0004(13) -0.0033(13)
C105 0.0169(16) 0.0274(18) 0.0162(17) -0.0038(14) -0.0034(13) 0.0014(13)
C106 0.0129(17) 0.0214(18) 0.022(2) -0.0038(15) -0.0014(15) 0.0009(14)
C107 0.020(2) 0.026(3) 0.025(3) -0.004(2) -0.0005(19) 0.0061(18)
C108 0.045(5) 0.023(3) 0.047(6) -0.010(3) -0.006(4) -0.001(3)
C109 0.037(3) 0.035(3) 0.032(3) -0.010(2) 0.006(2) 0.015(2)
C110 0.027(2) 0.055(3) 0.035(3) -0.017(2) -0.0073(19) 0.020(2)
O19 0.0177(13) 0.0320(15) 0.0157(14) -0.0137(12) 0.0027(10) 0.0027(11)
O20 0.0175(15) 0.0358(17) 0.0162(16) -0.0089(14) -0.0022(14) 0.0088(12)
O17 0.029(4) 0.032(4) 0.018(3) -0.009(3) 0.002(3) -0.003(3)
O18 0.043(2) 0.030(3) 0.022(3) -0.0188(17) 0.012(2) -0.010(2)
C89 0.077(8) 0.041(6) 0.035(3) -0.014(4) 0.002(4) 0.005(5)
C90 0.069(5) 0.046(5) 0.055(5) -0.038(4) 0.009(4) -0.021(3)
C91 0.080(6) 0.037(4) 0.034(3) -0.023(3) 0.011(3) -0.006(3)
C92 0.048(5) 0.026(3) 0.023(3) -0.011(3) 0.001(3) -0.007(2)
C93 0.043(5) 0.026(4) 0.017(3) -0.013(3) 0.001(3) -0.003(3)
C94 0.035(3) 0.030(3) 0.021(2) -0.017(2) 0.005(2) -0.011(2)
C95 0.037(3) 0.028(3) 0.019(3) -0.018(2) -0.001(2) -0.002(2)
C96 0.035(2) 0.036(2) 0.019(2) -0.0163(17) 0.0095(17) -0.0123(18)
C97 0.031(2) 0.030(2) 0.033(2) -0.0114(17) 0.0104(17) -0.0144(16)
C98 0.071(7) 0.051(3) 0.049(8) -0.004(4) 0.006(4) -0.019(2)
C99 0.070(4) 0.056(3) 0.050(3) -0.030(3) 0.039(3) -0.026(3)
O13 0.0204(9) 0.018(2) 0.022(4) -0.009(3) 0.000(3) -0.0028(12)
Li2A 0.020(3) 0.036(4) 0.039(4) -0.016(4) 0.003(4) 0.001(3)
Co2A 0.0284(8) 0.0240(6) 0.0206(4) -0.0081(4) 0.0075(7) -0.0065(6)
Mn2Z 0.0284(8) 0.0240(6) 0.0206(4) -0.0081(4) 0.0075(7) -0.0065(6)
Mn2B 0.0204(6) 0.0167(4) 0.0231(5) -0.0096(3) -0.0006(5) -0.0038(5)
O13A 0.0204(9) 0.018(2) 0.022(4) -0.009(3) 0.000(3) -0.0028(12)
C1A 0.054(10) 0.101(14) 0.024(8) -0.011(8) -0.006(7) -0.024(10)
C2A 0.108(18) 0.045(10) 0.047(11) -0.002(8) 0.056(12) 0.003(11)
C3A 0.061(11) 0.096(15) 0.044(10) -0.042(10) 0.022(8) -0.022(10)
C56A 0.058(7) 0.042(6) 0.033(4) -0.007(4) 0.011(4) 0.008(4)
C57A 0.031(4) 0.017(4) 0.027(4) -0.003(3) -0.004(3) 0.003(4)
C58A 0.038(5) 0.039(6) 0.048(5) -0.019(5) -0.023(4) 0.022(4)
C59A 0.031(5) 0.032(5) 0.020(3) -0.015(3) 0.000(3) 0.003(3)
C60A 0.0160(18) 0.023(4) 0.024(3) -0.013(3) 0.000(2) 0.000(3)
C61A 0.021(4) 0.035(5) 0.034(5) -0.023(4) -0.013(4) 0.002(3)
O11A 0.022(4) 0.020(3) 0.0231(8) -0.0119(19) -0.003(2) -0.001(3)
C62A 0.020(3) 0.033(5) 0.046(6) -0.029(4) -0.007(4) 0.000(3)
O12A 0.030(3) 0.029(3) 0.039(3) -0.021(2) -0.004(2) -0.009(2)
C63A 0.047(3) 0.060(6) 0.086(6) -0.057(4) -0.020(4) 0.000(4)
C64A 0.062(6) 0.055(7) 0.076(10) -0.055(7) -0.012(5) 0.004(4)
C65A 0.060(5) 0.103(7) 0.160(8) -0.104(6) 0.025(5) -0.049(5)
C66A 0.110(8) 0.095(8) 0.144(8) -0.086(6) -0.087(8) 0.024(6)
O1X 0.0274(18) 0.040(2) 0.035(2) -0.0148(18) 0.0036(17) -0.0012(15)
O2X 0.0242(15) 0.0247(15) 0.0370(18) -0.0170(13) 0.0103(13) -0.0058(12)
C1X 0.0213(18) 0.0300(19) 0.034(2) -0.0154(16) 0.0023(15) -0.0060(14)
C2X 0.0241(18) 0.032(2) 0.031(2) -0.0144(16) -0.0001(15) 0.0003(15)
C3X 0.028(2) 0.029(2) 0.032(2) -0.0110(17) 0.0001(18) -0.0096(18)
C4X 0.025(2) 0.044(3) 0.028(2) -0.0148(19) 0.0037(16) 0.0028(19)
C5X 0.059(3) 0.046(3) 0.040(3) -0.021(2) -0.006(2) 0.007(2)
C6X 0.039(3) 0.037(3) 0.036(3) -0.006(2) 0.000(2) 0.003(2)
C7X 0.038(3) 0.062(3) 0.044(3) -0.005(3) 0.005(2) -0.006(2)
C8X 0.029(3) 0.025(3) 0.032(4) -0.011(3) -0.009(2) 0.001(2)
C9X 0.037(3) 0.041(3) 0.034(3) -0.012(2) -0.005(2) 0.009(2)
C10X 0.032(2) 0.040(3) 0.036(3) -0.016(2) -0.0058(19) -0.002(2)
O11X 0.0350(18) 0.0301(16) 0.0265(17) -0.0018(13) -0.0031(13) -0.0066(13)
O12X 0.0201(17) 0.0209(17) 0.021(3) -0.010(2) 0.001(2) -0.0068(12)
C13X 0.0234(18) 0.0294(19) 0.0264(19) -0.0156(15) 0.0003(14) -0.0027(14)
C14X 0.032(2) 0.039(2) 0.028(2) -0.0122(17) -0.0036(16) -0.0065(17)
C15X 0.032(2) 0.038(2) 0.028(2) -0.0145(17) 0.0020(16) 0.0011(17)
C16X 0.024(2) 0.024(5) 0.031(4) -0.015(3) 0.000(2) -0.007(3)
C17X 0.036(2) 0.040(2) 0.030(2) -0.0085(18) 0.0036(17) -0.0143(19)
C18X 0.044(3) 0.042(3) 0.057(3) -0.020(2) -0.013(2) -0.014(2)
C19X 0.030(3) 0.025(3) 0.044(5) -0.019(4) -0.006(4) -0.004(2)
C20X 0.110(4) 0.069(3) 0.036(2) -0.0247(19) -0.028(3) 0.013(3)
C21X 0.076(4) 0.059(3) 0.038(3) -0.021(3) -0.026(3) 0.001(3)
C22X 0.054(3) 0.079(4) 0.056(4) -0.019(3) 0.003(3) 0.005(3)
C23X 0.062(4) 0.045(3) 0.057(4) -0.013(3) -0.026(3) 0.014(2)
C24X 0.048(5) 0.036(5) 0.049(6) -0.017(4) -0.004(4) -0.009(3)
O17A 0.037(4) 0.039(4) 0.020(3) -0.015(3) -0.001(3) 0.000(3)
O18A 0.052(3) 0.041(4) 0.028(4) -0.018(2) 0.015(3) -0.021(3)
C89A 0.077(8) 0.041(6) 0.035(3) -0.014(4) 0.002(4) 0.005(5)
C90A 0.039(4) 0.063(7) 0.081(8) -0.049(6) -0.012(4) 0.000(4)
C91A 0.071(6) 0.064(7) 0.033(3) -0.019(5) 0.009(4) 0.023(5)
C92A 0.025(3) 0.041(5) 0.024(3) -0.020(4) 0.003(2) 0.003(3)
C93A 0.021(3) 0.036(5) 0.024(3) -0.008(3) -0.003(2) -0.003(3)
C94A 0.032(4) 0.037(4) 0.033(4) -0.011(3) 0.012(3) 0.000(2)
C95A 0.032(3) 0.037(4) 0.030(4) -0.010(3) 0.013(3) -0.004(3)
C96A 0.061(4) 0.053(3) 0.064(4) -0.008(3) 0.035(3) -0.014(3)
C97A 0.073(4) 0.117(6) 0.095(6) -0.031(6) 0.033(4) -0.063(4)
C98A 0.071(7) 0.051(3) 0.049(8) -0.004(4) 0.006(4) -0.019(2)
C99A 0.094(5) 0.090(5) 0.056(4) -0.002(3) 0.028(4) -0.022(4)
O14A 0.0166(12) 0.0191(9) 0.022(3) -0.006(3) 0.000(2) -0.0019(9)
C67A 0.023(5) 0.032(4) 0.050(2) -0.024(2) 0.005(3) -0.002(3)
C68A 0.026(3) 0.027(3) 0.037(4) -0.011(3) -0.002(4) 0.003(2)
C69A 0.0204(10) 0.0297(15) 0.051(6) -0.016(4) 0.003(4) -0.0016(10)
C70 0.0198(9) 0.0217(14) 0.035(4) -0.012(3) 0.000(4) 0.0009(10)
C71A 0.0194(16) 0.0212(11) 0.020(4) -0.009(2) 0.000(2) -0.0025(10)
C72A 0.0171(19) 0.0202(9) 0.027(4) -0.011(3) -0.001(3) -0.0038(11)
C73A 0.0199(19) 0.0189(10) 0.014(4) -0.008(3) -0.002(3) -0.0027(12)
C74A 0.017(3) 0.020(2) 0.033(5) -0.019(3) 0.008(3) -0.007(2)
C75A 0.034(4) 0.023(4) 0.037(6) -0.011(4) 0.008(4) -0.004(3)
C76A 0.031(3) 0.017(3) 0.050(7) -0.010(5) 0.005(5) -0.008(2)
C77A 0.033(4) 0.025(3) 0.038(6) -0.006(4) -0.007(4) 0.004(3)
loop_
_atom_type_symbol
_atom_type_description
_atom_type_scat_dispersion_real
_atom_type_scat_dispersion_imag
_atom_type_scat_source
C C 0.0000 0.0010 'International Tables Vol C Tables 4.2.6.8 and 6.1.1.4'
H H 0.0000 0.0000 'International Tables Vol C Tables 4.2.6.8 and 6.1.1.4'
Co Co 0.2160 0.3560 'International Tables Vol C Tables 4.2.6.8 and 6.1.1.4'
Li Li 0.0000 0.0000 'International Tables Vol C Tables 4.2.6.8 and 6.1.1.4'
Mn Mn 0.1800 0.2620 'International Tables Vol C Tables 4.2.6.8 and 6.1.1.4'
O O 0.0020 0.0020 'International Tables Vol C Tables 4.2.6.8 and 6.1.1.4'
loop_
_geom_angle_atom_site_label_1
_geom_angle_atom_site_label_2
_geom_angle_atom_site_label_3
_geom_angle
O2 Li1 O8 132.12(19)
O2 Li1 O1 96.88(15)
O8 Li1 O1 90.71(14)
O2 Li1 O3 105.78(16)
O8 Li1 O3 89.19(13)
O1 Li1 O3 149.34(19)
O10 Mn2 O9 86.29(5)
O10 Mn2 O1 118.23(5)
O9 Mn2 O1 103.40(5)
O10 Mn2 O4 100.77(5)
O9 Mn2 O4 169.21(5)
O1 Mn2 O4 80.57(5)
O10 Mn2 O8 163.87(5)
O9 Mn2 O8 93.29(5)
O1 Mn2 O8 77.56(4)
O4 Mn2 O8 77.65(4)
O10 Mn2 O7 95.80(5)
O9 Mn2 O7 93.75(5)
O1 Mn2 O7 142.38(5)
O4 Mn2 O7 77.54(4)
O8 Mn2 O7 68.12(4)
O6 Co1 O5 89.53(5)
O6 Co1 O3 97.52(5)
O5 Co1 O3 101.35(5)
O6 Co1 O7 101.93(5)
O5 Co1 O7 103.71(5)
O3 Co1 O7 148.20(5)
O6 Co1 O4 174.68(5)
O5 Co1 O4 92.60(5)
O3 Co1 O4 77.29(5)
O7 Co1 O4 82.30(5)
O6 Co1 O8 98.79(5)
O5 Co1 O8 171.18(5)
O3 Co1 O8 80.58(5)
O7 Co1 O8 71.80(4)
O4 Co1 O8 79.37(4)
C5 O1 Li1 120.93(15)
C5 O1 Mn2 149.95(13)
Li1 O1 Mn2 87.33(10)
C7 O2 Li1 126.27(17)
C16 O3 Li1 112.31(14)
C16 O3 Co1 117.15(11)
Li1 O3 Co1 87.36(9)
C18 O4 Co1 116.33(11)
C18 O4 Mn2 152.05(12)
Co1 O4 Mn2 91.61(4)
C27 O5 Co1 126.40(12)
C29 O6 Co1 127.24(12)
C38 O7 Co1 112.00(11)
C38 O7 Mn2 115.98(10)
Co1 O7 Mn2 88.38(4)
C40 O8 Li1 151.46(15)
C40 O8 Co1 113.12(10)
Li1 O8 Co1 86.77(10)
C40 O8 Mn2 115.53(10)
Li1 O8 Mn2 84.80(11)
Co1 O8 Mn2 86.11(4)
C49 O9 Mn2 128.74(12)
C51 O10 Mn2 129.57(12)
C3 C4 C1 108.4(2)
C2A C4 C5 110.9(9)
C3 C4 C5 111.42(19)
C1 C4 C5 112.62(18)
C2A C4 C3A 114.5(11)
C5 C4 C3A 112.8(7)
C3 C4 C2 110.2(2)
C1 C4 C2 106.9(2)
C5 C4 C2 107.25(18)
C2A C4 C1A 114.4(15)
C5 C4 C1A 99.9(6)
C3A C4 C1A 103.3(10)
O1 C5 C6 123.99(18)
O1 C5 C4 118.73(17)
C6 C5 C4 117.28(16)
C5 C6 C7 127.22(17)
C5 C6 H6 116.4
C7 C6 H6 116.4
O2 C7 C6 124.55(18)
O2 C7 C8 115.43(18)
C6 C7 C8 119.95(17)
C11 C8 C10 109.04(17)
C11 C8 C9 110.35(17)
C10 C8 C9 108.71(18)
C11 C8 C7 113.82(18)
C10 C8 C7 109.42(16)
C9 C8 C7 105.35(16)
C8 C9 H9A 109.5
C8 C9 H9B 109.5
H9A C9 H9B 109.5
C8 C9 H9C 109.5
H9A C9 H9C 109.5
H9B C9 H9C 109.5
C8 C10 H10S 109.5
C8 C10 H10T 109.5
H10S C10 H10T 109.5
C8 C10 H10U 109.5
H10S C10 H10U 109.5
H10T C10 H10U 109.5
C8 C11 H11D 109.5
C8 C11 H11E 109.5
H11D C11 H11E 109.5
C8 C11 H11F 109.5
H11D C11 H11F 109.5
H11E C11 H11F 109.5
C14 C12 H12A 109.5
C14 C12 H12B 109.5
H12A C12 H12B 109.5
C14 C12 H12C 109.5
H12A C12 H12C 109.5
H12B C12 H12C 109.5
C14 C13 H13A 109.5
C14 C13 H13B 109.5
H13A C13 H13B 109.5
C14 C13 H13C 109.5
H13A C13 H13C 109.5
H13B C13 H13C 109.5
C15 C14 C13 109.52(16)
C15 C14 C16 107.06(15)
C13 C14 C16 113.33(16)
C15 C14 C12 109.14(17)
C13 C14 C12 110.16(16)
C16 C14 C12 107.51(15)
C14 C15 H15A 109.5
C14 C15 H15B 109.5
H15A C15 H15B 109.5
C14 C15 H15C 109.5
H15A C15 H15C 109.5
H15B C15 H15C 109.5
O3 C16 C17 122.45(17)
O3 C16 C14 114.98(16)
C17 C16 C14 122.55(16)
C18 C17 C16 123.60(16)
C18 C17 H17 118.2
C16 C17 H17 118.2
O4 C18 C17 122.54(16)
O4 C18 C19 115.02(15)
C17 C18 C19 122.43(15)
C18 C19 C20 108.09(15)
C18 C19 C22 113.44(16)
C20 C19 C22 109.16(16)
C18 C19 C21 106.39(15)
C20 C19 C21 110.63(16)
C22 C19 C21 109.11(16)
C19 C20 H20A 109.5
C19 C20 H20B 109.5
H20A C20 H20B 109.5
C19 C20 H20C 109.5
H20A C20 H20C 109.5
H20B C20 H20C 109.5
C19 C21 H21D 109.5
C19 C21 H21E 109.5
H21D C21 H21E 109.5
C19 C21 H21F 109.5
H21D C21 H21F 109.5
H21E C21 H21F 109.5
C19 C22 H22D 109.5
C19 C22 H22E 109.5
H22D C22 H22E 109.5
C19 C22 H22F 109.5
H22D C22 H22F 109.5
H22E C22 H22F 109.5
C25 C23 H23D 109.5
C25 C23 H23E 109.5
H23D C23 H23E 109.5
C25 C23 H23F 109.5
H23D C23 H23F 109.5
H23E C23 H23F 109.5
C25 C24 H24D 109.5
C25 C24 H24E 109.5
H24D C24 H24E 109.5
C25 C24 H24F 109.5
H24D C24 H24F 109.5
H24E C24 H24F 109.5
C23 C25 C26 109.2(2)
C23 C25 C24 109.26(18)
C26 C25 C24 109.78(19)
C23 C25 C27 110.29(16)
C26 C25 C27 108.69(17)
C24 C25 C27 109.65(18)
C25 C26 H26A 109.5
C25 C26 H26B 109.5
H26A C26 H26B 109.5
C25 C26 H26C 109.5
H26A C26 H26C 109.5
H26B C26 H26C 109.5
O5 C27 C28 124.60(17)
O5 C27 C25 116.35(16)
C28 C27 C25 119.05(17)
C29 C28 C27 126.39(18)
C29 C28 H28 116.8
C27 C28 H28 116.8
O6 C29 C28 125.00(17)
O6 C29 C30 114.40(17)
C28 C29 C30 120.59(18)
C32 C30 C33 114.0(3)
C32 C30 C31 107.6(3)
C33 C30 C31 107.0(2)
C32 C30 C29 113.3(2)
C33 C30 C29 106.22(19)
C31 C30 C29 108.4(2)
C30 C31 H31A 109.5
C30 C31 H31B 109.5
H31A C31 H31B 109.5
C30 C31 H31C 109.5
H31A C31 H31C 109.5
H31B C31 H31C 109.5
C30 C32 H32A 109.5
C30 C32 H32B 109.5
H32A C32 H32B 109.5
C30 C32 H32C 109.5
H32A C32 H32C 109.5
H32B C32 H32C 109.5
C30 C33 H33A 109.5
C30 C33 H33B 109.5
H33A C33 H33B 109.5
C30 C33 H33C 109.5
H33A C33 H33C 109.5
H33B C33 H33C 109.5
C37 C34 H34A 109.5
C37 C34 H34B 109.5
H34A C34 H34B 109.5
C37 C34 H34C 109.5
H34A C34 H34C 109.5
H34B C34 H34C 109.5
C37 C35 H35A 109.5
C37 C35 H35B 109.5
H35A C35 H35B 109.5
C37 C35 H35C 109.5
H35A C35 H35C 109.5
H35B C35 H35C 109.5
C37 C36 H36A 109.5
C37 C36 H36B 109.5
H36A C36 H36B 109.5
C37 C36 H36C 109.5
H36A C36 H36C 109.5
H36B C36 H36C 109.5
C36 C37 C38 113.54(15)
C36 C37 C34 109.79(16)
C38 C37 C34 107.90(14)
C36 C37 C35 109.11(16)
C38 C37 C35 106.55(15)
C34 C37 C35 109.87(16)
O7 C38 C39 122.89(15)
O7 C38 C37 114.55(15)
C39 C38 C37 122.55(15)
C40 C39 C38 122.32(15)
C40 C39 H39 118.8
C38 C39 H39 118.8
O8 C40 C39 121.14(15)
O8 C40 C41 115.18(14)
C39 C40 C41 123.69(15)
C40 C41 C43 112.99(14)
C40 C41 C44 107.88(15)
C43 C41 C44 109.36(16)
C40 C41 C42 107.46(14)
C43 C41 C42 109.18(16)
C44 C41 C42 109.93(15)
C41 C42 H42A 109.5
C41 C42 H42B 109.5
H42A C42 H42B 109.5
C41 C42 H42C 109.5
H42A C42 H42C 109.5
H42B C42 H42C 109.5
C41 C43 H43A 109.5
C41 C43 H43B 109.5
H43A C43 H43B 109.5
C41 C43 H43C 109.5
H43A C43 H43C 109.5
H43B C43 H43C 109.5
C41 C44 H44A 109.5
C41 C44 H44B 109.5
H44A C44 H44B 109.5
C41 C44 H44C 109.5
H44A C44 H44C 109.5
H44B C44 H44C 109.5
C47 C45 H45A 109.5
C47 C45 H45B 109.5
H45A C45 H45B 109.5
C47 C45 H45C 109.5
H45A C45 H45C 109.5
H45B C45 H45C 109.5
C47 C46 H46A 109.5
C47 C46 H46B 109.5
H46A C46 H46B 109.5
C47 C46 H46C 109.5
H46A C46 H46C 109.5
H46B C46 H46C 109.5
C46 C47 C48 109.14(17)
C46 C47 C49 108.66(16)
C48 C47 C49 113.52(16)
C46 C47 C45 109.01(18)
C48 C47 C45 110.01(17)
C49 C47 C45 106.39(15)
C47 C48 H48A 109.5
C47 C48 H48B 109.5
H48A C48 H48B 109.5
C47 C48 H48C 109.5
H48A C48 H48C 109.5
H48B C48 H48C 109.5
O9 C49 C50 125.09(17)
O9 C49 C47 114.65(16)
C50 C49 C47 120.21(17)
C51 C50 C49 125.47(17)
C51 C50 H50 117.3
C49 C50 H50 117.3
O10 C51 C50 124.73(17)
O10 C51 C53 114.32(16)
C50 C51 C53 120.95(17)
C53 C52 H52A 109.5
C53 C52 H52B 109.5
H52A C52 H52B 109.5
C53 C52 H52C 109.5
H52A C52 H52C 109.5
H52B C52 H52C 109.5
C54 C53 C55 108.97(18)
C54 C53 C52 110.0(2)
C55 C53 C52 109.24(19)
C54 C53 C51 107.15(17)
C55 C53 C51 114.13(17)
C52 C53 C51 107.33(16)
C53 C54 H54A 109.5
C53 C54 H54B 109.5
H54A C54 H54B 109.5
C53 C54 H54C 109.5
H54A C54 H54C 109.5
H54B C54 H54C 109.5
C53 C55 H55A 109.5
C53 C55 H55B 109.5
H55A C55 H55B 109.5
C53 C55 H55C 109.5
H55A C55 H55C 109.5
H55B C55 H55C 109.5
O12 Co2 O11 89.2(7)
O12 Co2 O15 96.3(2)
O11 Co2 O15 102.0(5)
O12 Co2 O16 172.3(3)
O11 Co2 O16 92.2(7)
O15 Co2 O16 76.1(2)
O12 Co2 O13 105.5(7)
O11 Co2 O13 104.3(8)
O15 Co2 O13 145.9(6)
O16 Co2 O13 81.5(7)
O12 Co2 O14 99.7(4)
O11 Co2 O14 170.6(8)
O15 Co2 O14 80.3(4)
O16 Co2 O14 79.4(4)
O13 Co2 O14 70.5(7)
O17 Mn2A O18 86.9(4)
O17 Mn2A O19 116.2(3)
O18 Mn2A O19 107.1(3)
O17 Mn2A O16 101.9(4)
O18 Mn2A O16 164.0(4)
O19 Mn2A O16 81.2(3)
O17 Mn2A O13 97.6(7)
O18 Mn2A O13 87.7(7)
O19 Mn2A O13 143.3(6)
O16 Mn2A O13 78.0(6)
O17 Mn2A O14 165.1(4)
O18 Mn2A O14 91.4(4)
O19 Mn2A O14 78.4(3)
O16 Mn2A O14 76.6(4)
O13 Mn2A O14 67.5(7)
O20 Li2 O14 130.1(7)
O20 Li2 O19 96.3(4)
O14 Li2 O19 91.6(4)
O20 Li2 O15 105.9(4)
O14 Li2 O15 88.0(4)
O19 Li2 O15 151.2(5)
C73 O14 Li2 151.9(13)
C73 O14 Co2 111.7(8)
Li2 O14 Co2 87.2(6)
C73 O14 Mn2A 117.6(10)
Li2 O14 Mn2A 82.8(5)
Co2 O14 Mn2A 86.6(5)
C4 C1 H1A 109.5
C4 C1 H1B 109.5
H1A C1 H1B 109.5
C4 C1 H1C 109.5
H1A C1 H1C 109.5
H1B C1 H1C 109.5
C4 C2 H2A 109.5
C4 C2 H2B 109.5
H2A C2 H2B 109.5
C4 C2 H2C 109.5
H2A C2 H2C 109.5
H2B C2 H2C 109.5
C4 C3 H3A 109.5
C4 C3 H3B 109.5
H3A C3 H3B 109.5
C4 C3 H3C 109.5
H3A C3 H3C 109.5
H3B C3 H3C 109.5
C59 C56 H56A 109.5
C59 C56 H56B 109.5
H56A C56 H56B 109.5
C59 C56 H56C 109.5
H56A C56 H56C 109.5
H56B C56 H56C 109.5
C59 C57 H57A 109.5
C59 C57 H57B 109.5
H57A C57 H57B 109.5
C59 C57 H57C 109.5
H57A C57 H57C 109.5
H57B C57 H57C 109.5
C59 C58 H58A 109.5
C59 C58 H58B 109.5
H58A C58 H58B 109.5
C59 C58 H58C 109.5
H58A C58 H58C 109.5
H58B C58 H58C 109.5
C56 C59 C57 110.3(12)
C56 C59 C60 108.5(16)
C57 C59 C60 109.7(16)
C56 C59 C58 110.0(13)
C57 C59 C58 109.4(13)
C60 C59 C58 108.9(14)
O11 C60 C61 124.2(16)
O11 C60 C59 117.9(19)
C61 C60 C59 117.9(17)
C60 C61 C62 127.2(13)
C60 C61 H61 116.4
C62 C61 H61 116.4
C60 O11 Co2 126.4(18)
O12 C62 C61 124.6(11)
O12 C62 C63 112.9(8)
C61 C62 C63 122.5(8)
C62 O12 Co2 126.6(7)
C64 C63 C65 109.5(8)
C64 C63 C66 108.3(9)
C65 C63 C66 109.9(6)
C64 C63 C62 108.1(11)
C65 C63 C62 107.7(7)
C66 C63 C62 113.3(6)
C63 C64 H64A 109.5
C63 C64 H64B 109.5
H64A C64 H64B 109.5
C63 C64 H64C 109.5
H64A C64 H64C 109.5
H64B C64 H64C 109.5
C63 C65 H65A 109.5
C63 C65 H65B 109.5
H65A C65 H65B 109.5
C63 C65 H65C 109.5
H65A C65 H65C 109.5
H65B C65 H65C 109.5
C63 C66 H66A 109.5
C63 C66 H66B 109.5
H66A C66 H66B 109.5
C63 C66 H66C 109.5
H66A C66 H66C 109.5
H66B C66 H66C 109.5
C70A C67 H67A 109.5
C70A C67 H67B 109.5
H67A C67 H67B 109.5
C70A C67 H67C 109.5
H67A C67 H67C 109.5
H67B C67 H67C 109.5
C70A C68 H68A 109.5
C70A C68 H68B 109.5
H68A C68 H68B 109.5
C70A C68 H68C 109.5
H68A C68 H68C 109.5
H68B C68 H68C 109.5
C70A C69 H69A 109.5
C70A C69 H69B 109.5
H69A C69 H69B 109.5
C70A C69 H69C 109.5
H69A C69 H69C 109.5
H69B C69 H69C 109.5
C67 C70A C71 101.4(19)
C67 C70A C69 107.4(16)
C71 C70A C69 113.4(16)
C67 C70A C68 112.6(18)
C71 C70A C68 112.1(19)
C69 C70A C68 109.6(17)
O13 C71 C72 125(2)
O13 C71 C70A 115(2)
C72 C71 C70A 116.3(19)
C73 C72 C71 119.1(18)
C73 C72 H72 120.4
C71 C72 H72 120.4
O14 C73 C72 121.3(16)
O14 C73 C74 115.6(13)
C72 C73 C74 123.2(14)
C76 C74 C75 111.0(12)
C76 C74 C77 110.7(11)
C75 C74 C77 111.1(12)
C76 C74 C73 112.5(13)
C75 C74 C73 104.8(12)
C77 C74 C73 106.5(10)
C74 C75 H75A 109.5
C74 C75 H75B 109.5
H75A C75 H75B 109.5
C74 C75 H75C 109.5
H75A C75 H75C 109.5
H75B C75 H75C 109.5
C74 C76 H76A 109.5
C74 C76 H76B 109.5
H76A C76 H76B 109.5
C74 C76 H76C 109.5
H76A C76 H76C 109.5
H76B C76 H76C 109.5
C74 C77 H77A 109.5
C74 C77 H77B 109.5
H77A C77 H77B 109.5
C74 C77 H77C 109.5
H77A C77 H77C 109.5
H77B C77 H77C 109.5
C81 C78 H78A 109.5
C81 C78 H78B 109.5
H78A C78 H78B 109.5
C81 C78 H78C 109.5
H78A C78 H78C 109.5
H78B C78 H78C 109.5
C81 C79 H79A 109.5
C81 C79 H79B 109.5
H79A C79 H79B 109.5
C81 C79 H79C 109.5
H79A C79 H79C 109.5
H79B C79 H79C 109.5
C81 C80 H80A 109.5
C81 C80 H80B 109.5
H80A C80 H80B 109.5
C81 C80 H80C 109.5
H80A C80 H80C 109.5
H80B C80 H80C 109.5
C78 C81 C82 114.6(3)
C78 C81 C79 110.3(3)
C82 C81 C79 106.2(3)
C78 C81 C80 109.8(3)
C82 C81 C80 108.3(3)
C79 C81 C80 107.4(3)
O15 C82 C83 123.0(3)
O15 C82 C81 115.4(3)
C83 C82 C81 121.6(3)
C84 C83 C82 123.1(3)
C84 C83 H83 118.4
C82 C83 H83 118.4
O16 C84 C83 121.2(4)
O16 C84 C88 118.9(12)
C83 C84 C88 119.6(12)
C88 C85 H85A 109.5
C88 C85 H85B 109.5
H85A C85 H85B 109.5
C88 C85 H85C 109.5
H85A C85 H85C 109.5
H85B C85 H85C 109.5
C88 C86 H86A 109.5
C88 C86 H86B 109.5
H86A C86 H86B 109.5
C88 C86 H86C 109.5
H86A C86 H86C 109.5
H86B C86 H86C 109.5
C88 C87 H87A 109.5
C88 C87 H87B 109.5
H87A C87 H87B 109.5
C88 C87 H87C 109.5
H87A C87 H87C 109.5
H87B C87 H87C 109.5
C87 C88 C85 118.9(16)
C87 C88 C84 115(2)
C85 C88 C84 110(2)
C87 C88 C86 105.8(19)
C85 C88 C86 106(2)
C84 C88 C86 98.2(11)
C82 O15 Li2 110.4(3)
C82 O15 Co2 118.3(2)
Li2 O15 Co2 87.2(3)
C84 O16 Co2 117.5(4)
C84 O16 Mn2A 150.6(5)
Co2 O16 Mn2A 91.9(4)
C103 C100 H10A 109.5
C103 C100 H10B 109.5
H10A C100 H10B 109.5
C103 C100 H10C 109.5
H10A C100 H10C 109.5
H10B C100 H10C 109.5
C103 C101 H10D 109.5
C103 C101 H10E 109.5
H10D C101 H10E 109.5
C103 C101 H10F 109.5
H10D C101 H10F 109.5
H10E C101 H10F 109.5
C103 C102 H10G 109.5
C103 C102 H10H 109.5
H10G C102 H10H 109.5
C103 C102 H10I 109.5
H10G C102 H10I 109.5
H10H C102 H10I 109.5
C101 C103 C102 105.2(5)
C101 C103 C100 112.1(6)
C102 C103 C100 106.4(5)
C101 C103 C104 109.6(5)
C102 C103 C104 116.2(4)
C100 C103 C104 107.5(4)
O19 C104 C105 122.3(3)
O19 C104 C103 119.0(3)
C105 C104 C103 118.7(3)
C104 C105 C106 127.8(3)
C104 C105 H105 116.1
C106 C105 H105 116.1
O20 C106 C105 124.2(4)
O20 C106 C107 115.3(4)
C105 C106 C107 120.3(4)
C110 C107 C109 109.9(5)
C110 C107 C108 110.3(8)
C109 C107 C108 107.4(9)
C110 C107 C106 113.6(4)
C109 C107 C106 108.6(4)
C108 C107 C106 106.9(9)
C107 C108 H10J 109.5
C107 C108 H10K 109.5
H10J C108 H10K 109.5
C107 C108 H10L 109.5
H10J C108 H10L 109.5
H10K C108 H10L 109.5
C107 C109 H10M 109.5
C107 C109 H10N 109.5
H10M C109 H10N 109.5
C107 C109 H10O 109.5
H10M C109 H10O 109.5
H10N C109 H10O 109.5
C107 C110 H11A 109.5
C107 C110 H11B 109.5
H11A C110 H11B 109.5
C107 C110 H11C 109.5
H11A C110 H11C 109.5
H11B C110 H11C 109.5
C104 O19 Li2 122.8(4)
C104 O19 Mn2A 148.3(3)
Li2 O19 Mn2A 87.0(3)
C106 O20 Li2 126.5(4)
C93 O17 Mn2A 126.9(9)
C95 O18 Mn2A 127.9(7)
C92 C89 H89A 109.5
C92 C89 H89B 109.5
H89A C89 H89B 109.5
C92 C89 H89C 109.5
H89A C89 H89C 109.5
H89B C89 H89C 109.5
C92 C90 H90A 109.5
C92 C90 H90B 109.5
H90A C90 H90B 109.5
C92 C90 H90C 109.5
H90A C90 H90C 109.5
H90B C90 H90C 109.5
C92 C91 H91A 109.5
C92 C91 H91B 109.5
H91A C91 H91B 109.5
C92 C91 H91C 109.5
H91A C91 H91C 109.5
H91B C91 H91C 109.5
C91 C92 C93 114.0(7)
C91 C92 C89 108.3(14)
C93 C92 C89 107.9(13)
C91 C92 C90 109.1(10)
C93 C92 C90 106.7(10)
C89 C92 C90 110.8(13)
O17 C93 C94 126.4(10)
O17 C93 C92 111.6(10)
C94 C93 C92 121.8(10)
C95 C94 C93 124.7(8)
C95 C94 H94 117.7
C93 C94 H94 117.7
O18 C95 C94 126.9(8)
O18 C95 C96 115.0(7)
C94 C95 C96 118.0(7)
C97 C96 C95 109.5(4)
C97 C96 C99 110.5(5)
C95 C96 C99 114.5(5)
C97 C96 C98 111.9(9)
C95 C96 C98 104.0(13)
C99 C96 C98 106.4(11)
C96 C97 H97A 109.5
C96 C97 H97B 109.5
H97A C97 H97B 109.5
C96 C97 H97C 109.5
H97A C97 H97C 109.5
H97B C97 H97C 109.5
C96 C98 H98A 109.5
C96 C98 H98B 109.5
H98A C98 H98B 109.5
C96 C98 H98C 109.5
H98A C98 H98C 109.5
H98B C98 H98C 109.5
C96 C99 H99A 109.5
C96 C99 H99B 109.5
H99A C99 H99B 109.5
C96 C99 H99C 109.5
H99A C99 H99C 109.5
H99B C99 H99C 109.5
C71 O13 Co2 110.8(17)
C71 O13 Mn2A 116.6(14)
Co2 O13 Mn2A 89.6(10)
O1X Li2A O14A 129.3(7)
O1X Li2A O2X 96.9(5)
O14A Li2A O2X 90.9(5)
O1X Li2A O11X 106.3(5)
O14A Li2A O11X 90.0(5)
O2X Li2A O11X 149.0(5)
O18A Co2A O17A 87.9(4)
O18A Co2A O11X 95.5(4)
O17A Co2A O11X 103.1(3)
O18A Co2A O12X 173.0(5)
O17A Co2A O12X 93.2(5)
O11X Co2A O12X 77.5(3)
O18A Co2A O13A 105.6(7)
O17A Co2A O13A 103.1(7)
O11X Co2A O13A 146.7(7)
O12X Co2A O13A 80.9(7)
O18A Co2A O14A 99.6(4)
O17A Co2A O14A 171.7(5)
O11X Co2A O14A 79.8(3)
O12X Co2A O14A 79.8(4)
O13A Co2A O14A 71.6(7)
O12A Mn2B O11A 86.2(7)
O12A Mn2B O12X 169.7(3)
O11A Mn2B O12X 100.2(7)
O12A Mn2B O2X 102.9(2)
O11A Mn2B O2X 118.9(5)
O12X Mn2B O2X 81.2(3)
O12A Mn2B O13A 91.7(7)
O11A Mn2B O13A 94.9(8)
O12X Mn2B O13A 79.7(7)
O2X Mn2B O13A 143.6(5)
O12A Mn2B O14A 93.7(3)
O11A Mn2B O14A 164.2(7)
O12X Mn2B O14A 77.9(4)
O2X Mn2B O14A 76.5(4)
O13A Mn2B O14A 69.4(6)
C71A O13A Co2A 112.3(13)
C71A O13A Mn2B 117.9(17)
Co2A O13A Mn2B 87.1(9)
C4 C1A H1AA 109.5
C4 C1A H1AB 109.5
H1AA C1A H1AB 109.5
C4 C1A H1AC 109.5
H1AA C1A H1AC 109.5
H1AB C1A H1AC 109.5
C4 C2A H2AA 109.5
C4 C2A H2AB 109.5
H2AA C2A H2AB 109.5
C4 C2A H2AC 109.5
H2AA C2A H2AC 109.5
H2AB C2A H2AC 109.5
C4 C3A H3AA 109.5
C4 C3A H3AB 109.5
H3AA C3A H3AB 109.5
C4 C3A H3AC 109.5
H3AA C3A H3AC 109.5
H3AB C3A H3AC 109.5
C59A C56A H56D 109.5
C59A C56A H56E 109.5
H56D C56A H56E 109.5
C59A C56A H56F 109.5
H56D C56A H56F 109.5
H56E C56A H56F 109.5
C59A C57A H57D 109.5
C59A C57A H57E 109.5
H57D C57A H57E 109.5
C59A C57A H57F 109.5
H57D C57A H57F 109.5
H57E C57A H57F 109.5
C59A C58A H58D 109.5
C59A C58A H58E 109.5
H58D C58A H58E 109.5
C59A C58A H58F 109.5
H58D C58A H58F 109.5
H58E C58A H58F 109.5
C60A C59A C57A 111.0(14)
C60A C59A C58A 111.9(14)
C57A C59A C58A 109.4(12)
C60A C59A C56A 108.1(16)
C57A C59A C56A 107.5(12)
C58A C59A C56A 108.9(12)
O11A C60A C61A 124.5(16)
O11A C60A C59A 116.8(18)
C61A C60A C59A 118.7(17)
C62A C61A C60A 124.5(12)
C62A C61A H61A 117.8
C60A C61A H61A 117.8
C60A O11A Mn2B 129.1(17)
O12A C62A C61A 126.1(11)
O12A C62A C63A 114.8(9)
C61A C62A C63A 119.0(9)
C62A O12A Mn2B 129.5(7)
C66A C63A C65A 110.5(8)
C66A C63A C62A 114.2(8)
C65A C63A C62A 106.9(8)
C66A C63A C64A 109.6(11)
C65A C63A C64A 109.8(10)
C62A C63A C64A 105.8(12)
C63A C64A H64D 109.5
C63A C64A H64E 109.5
H64D C64A H64E 109.5
C63A C64A H64F 109.5
H64D C64A H64F 109.5
H64E C64A H64F 109.5
C63A C65A H65D 109.5
C63A C65A H65E 109.5
H65D C65A H65E 109.5
C63A C65A H65F 109.5
H65D C65A H65F 109.5
H65E C65A H65F 109.5
C63A C66A H66D 109.5
C63A C66A H66E 109.5
H66D C66A H66E 109.5
C63A C66A H66F 109.5
H66D C66A H66F 109.5
H66E C66A H66F 109.5
C3X O1X Li2A 126.2(5)
C1X O2X Li2A 119.7(4)
C1X O2X Mn2B 150.2(3)
Li2A O2X Mn2B 87.4(3)
O2X C1X C2X 125.1(4)
O2X C1X C4X 117.7(4)
C2X C1X C4X 117.2(4)
C1X C2X C3X 126.4(4)
C1X C2X H2X 116.8
C3X C2X H2X 116.8
O1X C3X C2X 125.6(5)
O1X C3X C8X 114.3(5)
C2X C3X C8X 120.1(4)
C6X C4X C7X 110.2(4)
C6X C4X C1X 112.8(4)
C7X C4X C1X 109.3(4)
C6X C4X C5X 106.9(4)
C7X C4X C5X 109.2(4)
C1X C4X C5X 108.3(4)
C4X C5X H5XA 109.5
C4X C5X H5XB 109.5
H5XA C5X H5XB 109.5
C4X C5X H5XC 109.5
H5XA C5X H5XC 109.5
H5XB C5X H5XC 109.5
C4X C6X H6XA 109.5
C4X C6X H6XB 109.5
H6XA C6X H6XB 109.5
C4X C6X H6XC 109.5
H6XA C6X H6XC 109.5
H6XB C6X H6XC 109.5
C4X C7X H7XA 109.5
C4X C7X H7XB 109.5
H7XA C7X H7XB 109.5
C4X C7X H7XC 109.5
H7XA C7X H7XC 109.5
H7XB C7X H7XC 109.5
C10X C8X C9X 107.9(5)
C10X C8X C24X 108.3(8)
C9X C8X C24X 110.4(10)
C10X C8X C3X 109.5(4)
C9X C8X C3X 114.0(5)
C24X C8X C3X 106.6(9)
C8X C9X H9XA 109.5
C8X C9X H9XB 109.5
H9XA C9X H9XB 109.5
C8X C9X H9XC 109.5
H9XA C9X H9XC 109.5
H9XB C9X H9XC 109.5
C8X C10X H10P 109.5
C8X C10X H10Q 109.5
H10P C10X H10Q 109.5
C8X C10X H10R 109.5
H10P C10X H10R 109.5
H10Q C10X H10R 109.5
C15X O11X Li2A 113.8(4)
C15X O11X Co2A 115.7(3)
Li2A O11X Co2A 87.6(3)
C13X O12X Co2A 115.6(4)
C13X O12X Mn2B 152.1(5)
Co2A O12X Mn2B 92.3(4)
O12X C13X C16X 118.4(15)
O12X C13X C14X 123.2(5)
C16X C13X C14X 118.3(14)
C13X C14X C15X 123.0(4)
C13X C14X H14X 118.5
C15X C14X H14X 118.5
O11X C15X C14X 123.3(4)
O11X C15X C20X 116.4(4)
C14X C15X C20X 120.2(4)
C13X C16X C18X 124(2)
C13X C16X C17X 112(2)
C18X C16X C17X 105.3(17)
C13X C16X C19X 109(2)
C18X C16X C19X 102.4(16)
C17X C16X C19X 101.8(16)
C16X C17X H17A 109.5
C16X C17X H17B 109.5
H17A C17X H17B 109.5
C16X C17X H17C 109.5
H17A C17X H17C 109.5
H17B C17X H17C 109.5
C16X C18X H18A 109.5
C16X C18X H18B 109.5
H18A C18X H18B 109.5
C16X C18X H18C 109.5
H18A C18X H18C 109.5
H18B C18X H18C 109.5
C16X C19X H19A 109.5
C16X C19X H19B 109.5
H19A C19X H19B 109.5
C16X C19X H19C 109.5
H19A C19X H19C 109.5
H19B C19X H19C 109.5
C23X C20X C15X 108.5(4)
C23X C20X C21X 109.2(5)
C15X C20X C21X 115.1(5)
C23X C20X C22X 110.7(5)
C15X C20X C22X 104.5(5)
C21X C20X C22X 108.7(5)
C20X C21X H21A 109.5
C20X C21X H21B 109.5
H21A C21X H21B 109.5
C20X C21X H21C 109.5
H21A C21X H21C 109.5
H21B C21X H21C 109.5
C20X C22X H22A 109.5
C20X C22X H22B 109.5
H22A C22X H22B 109.5
C20X C22X H22C 109.5
H22A C22X H22C 109.5
H22B C22X H22C 109.5
C20X C23X H23A 109.5
C20X C23X H23B 109.5
H23A C23X H23B 109.5
C20X C23X H23C 109.5
H23A C23X H23C 109.5
H23B C23X H23C 109.5
C8X C24X H24A 109.5
C8X C24X H24B 109.5
H24A C24X H24B 109.5
C8X C24X H24C 109.5
H24A C24X H24C 109.5
H24B C24X H24C 109.5
C93A O17A Co2A 129.8(10)
C95A O18A Co2A 128.5(7)
C92A C89A H89D 109.5
C92A C89A H89E 109.5
H89D C89A H89E 109.5
C92A C89A H89F 109.5
H89D C89A H89F 109.5
H89E C89A H89F 109.5
C92A C90A H90D 109.5
C92A C90A H90E 109.5
H90D C90A H90E 109.5
C92A C90A H90F 109.5
H90D C90A H90F 109.5
H90E C90A H90F 109.5
C92A C91A H91D 109.5
C92A C91A H91E 109.5
H91D C91A H91E 109.5
C92A C91A H91F 109.5
H91D C91A H91F 109.5
H91E C91A H91F 109.5
C89A C92A C90A 109.7(13)
C89A C92A C93A 108.0(12)
C90A C92A C93A 108.1(9)
C89A C92A C91A 109.0(14)
C90A C92A C91A 108.8(10)
C93A C92A C91A 113.3(8)
O17A C93A C94A 121.7(11)
O17A C93A C92A 117.0(10)
C94A C93A C92A 121.2(10)
C93A C94A C95A 127.2(8)
C93A C94A H94A 116.4
C95A C94A H94A 116.4
O18A C95A C94A 123.8(8)
O18A C95A C96A 115.6(8)
C94A C95A C96A 120.5(7)
C97A C96A C98A 121.1(13)
C97A C96A C95A 106.6(6)
C98A C96A C95A 110.9(14)
C97A C96A C99A 105.5(6)
C98A C96A C99A 101.5(11)
C95A C96A C99A 110.8(6)
C96A C97A H97D 109.5
C96A C97A H97E 109.5
H97D C97A H97E 109.5
C96A C97A H97F 109.5
H97D C97A H97F 109.5
H97E C97A H97F 109.5
C96A C98A H98D 109.5
C96A C98A H98E 109.5
H98D C98A H98E 109.5
C96A C98A H98F 109.5
H98D C98A H98F 109.5
H98E C98A H98F 109.5
C96A C99A H99D 109.5
C96A C99A H99E 109.5
H99D C99A H99E 109.5
C96A C99A H99F 109.5
H99D C99A H99F 109.5
H99E C99A H99F 109.5
C73A O14A Li2A 152.0(13)
C73A O14A Co2A 111.9(10)
Li2A O14A Co2A 86.4(6)
C73A O14A Mn2B 117.0(8)
Li2A O14A Mn2B 84.5(6)
Co2A O14A Mn2B 84.8(5)
C70 C67A H67D 109.5
C70 C67A H67E 109.5
H67D C67A H67E 109.5
C70 C67A H67F 109.5
H67D C67A H67F 109.5
H67E C67A H67F 109.5
C70 C68A H68D 109.5
C70 C68A H68E 109.5
H68D C68A H68E 109.5
C70 C68A H68F 109.5
H68D C68A H68F 109.5
H68E C68A H68F 109.5
C70 C69A H69D 109.5
C70 C69A H69E 109.5
H69D C69A H69E 109.5
C70 C69A H69F 109.5
H69D C69A H69F 109.5
H69E C69A H69F 109.5
C68A C70 C71A 100.6(18)
C68A C70 C69A 109.3(18)
C71A C70 C69A 114.0(17)
C68A C70 C67A 106.7(19)
C71A C70 C67A 113(2)
C69A C70 C67A 112.2(16)
O13A C71A C72A 119(2)
O13A C71A C70 114(2)
C72A C71A C70 124(2)
C73A C72A C71A 125.6(19)
C73A C72A H72A 117.2
C71A C72A H72A 117.2
O14A C73A C72A 120.8(16)
O14A C73A C74A 114.4(13)
C72A C73A C74A 124.7(14)
C73A C74A C77A 109.9(11)
C73A C74A C75A 109.6(11)
C77A C74A C75A 108.9(11)
C73A C74A C76A 112.2(12)
C77A C74A C76A 108.5(11)
C75A C74A C76A 107.6(11)
C74A C75A H75D 109.5
C74A C75A H75E 109.5
H75D C75A H75E 109.5
C74A C75A H75F 109.5
H75D C75A H75F 109.5
H75E C75A H75F 109.5
C74A C76A H76D 109.5
C74A C76A H76E 109.5
H76D C76A H76E 109.5
C74A C76A H76F 109.5
H76D C76A H76F 109.5
H76E C76A H76F 109.5
C74A C77A H77D 109.5
C74A C77A H77E 109.5
H77D C77A H77E 109.5
C74A C77A H77F 109.5
H77D C77A H77F 109.5
H77E C77A H77F 109.5
loop_
_geom_bond_atom_site_label_1
_geom_bond_atom_site_label_2
_geom_bond_distance
Li1 O2 1.825(3)
Li1 O8 1.941(3)
Li1 O1 1.997(4)
Li1 O3 2.091(4)
Mn2 O10 2.0563(13)
Mn2 O9 2.0761(12)
Mn2 O1 2.1645(12)
Mn2 O4 2.1991(12)
Mn2 O8 2.3057(12)
Mn2 O7 2.3240(12)
Co1 O6 2.0052(13)
Co1 O5 2.0373(13)
Co1 O3 2.1087(13)
Co1 O7 2.1516(13)
Co1 O4 2.1552(12)
Co1 O8 2.2674(12)
O1 C5 1.286(2)
O2 C7 1.242(2)
O3 C16 1.275(2)
O4 C18 1.297(2)
O5 C27 1.265(2)
O6 C29 1.266(2)
O7 C38 1.288(2)
O8 C40 1.292(2)
O9 C49 1.268(2)
O10 C51 1.270(2)
C4 C2A 1.272(18)
C4 C3 1.515(3)
C4 C1 1.518(3)
C4 C5 1.543(3)
C4 C3A 1.545(18)
C4 C2 1.556(3)
C4 C1A 1.672(17)
C5 C6 1.391(3)
C6 C7 1.415(3)
C6 H6 0.9500
C7 C8 1.542(3)
C8 C11 1.526(3)
C8 C10 1.529(3)
C8 C9 1.534(3)
C9 H9A 0.9800
C9 H9B 0.9800
C9 H9C 0.9800
C10 H10S 0.9800
C10 H10T 0.9800
C10 H10U 0.9800
C11 H11D 0.9800
C11 H11E 0.9800
C11 H11F 0.9800
C12 C14 1.533(3)
C12 H12A 0.9800
C12 H12B 0.9800
C12 H12C 0.9800
C13 C14 1.528(3)
C13 H13A 0.9800
C13 H13B 0.9800
C13 H13C 0.9800
C14 C15 1.528(3)
C14 C16 1.533(3)
C15 H15A 0.9800
C15 H15B 0.9800
C15 H15C 0.9800
C16 C17 1.412(3)
C17 C18 1.391(3)
C17 H17 0.9500
C18 C19 1.525(2)
C19 C20 1.529(3)
C19 C22 1.530(2)
C19 C21 1.541(3)
C20 H20A 0.9800
C20 H20B 0.9800
C20 H20C 0.9800
C21 H21D 0.9800
C21 H21E 0.9800
C21 H21F 0.9800
C22 H22D 0.9800
C22 H22E 0.9800
C22 H22F 0.9800
C23 C25 1.526(3)
C23 H23D 0.9800
C23 H23E 0.9800
C23 H23F 0.9800
C24 C25 1.535(3)
C24 H24D 0.9800
C24 H24E 0.9800
C24 H24F 0.9800
C25 C26 1.533(3)
C25 C27 1.542(3)
C26 H26A 0.9800
C26 H26B 0.9800
C26 H26C 0.9800
C27 C28 1.399(3)
C28 C29 1.395(3)
C28 H28 0.9500
C29 C30 1.543(3)
C30 C32 1.505(4)
C30 C33 1.522(4)
C30 C31 1.541(4)
C31 H31A 0.9800
C31 H31B 0.9800
C31 H31C 0.9800
C32 H32A 0.9800
C32 H32B 0.9800
C32 H32C 0.9800
C33 H33A 0.9800
C33 H33B 0.9800
C33 H33C 0.9800
C34 C37 1.535(3)
C34 H34A 0.9800
C34 H34B 0.9800
C34 H34C 0.9800
C35 C37 1.538(3)
C35 H35A 0.9800
C35 H35B 0.9800
C35 H35C 0.9800
C36 C37 1.529(3)
C36 H36A 0.9800
C36 H36B 0.9800
C36 H36C 0.9800
C37 C38 1.530(2)
C38 C39 1.398(2)
C39 C40 1.398(2)
C39 H39 0.9500
C40 C41 1.522(2)
C41 C43 1.530(2)
C41 C44 1.532(3)
C41 C42 1.541(3)
C42 H42A 0.9800
C42 H42B 0.9800
C42 H42C 0.9800
C43 H43A 0.9800
C43 H43B 0.9800
C43 H43C 0.9800
C44 H44A 0.9800
C44 H44B 0.9800
C44 H44C 0.9800
C45 C47 1.540(3)
C45 H45A 0.9800
C45 H45B 0.9800
C45 H45C 0.9800
C46 C47 1.528(3)
C46 H46A 0.9800
C46 H46B 0.9800
C46 H46C 0.9800
C47 C48 1.530(3)
C47 C49 1.537(2)
C48 H48A 0.9800
C48 H48B 0.9800
C48 H48C 0.9800
C49 C50 1.399(3)
C50 C51 1.399(3)
C50 H50 0.9500
C51 C53 1.539(3)
C52 C53 1.531(3)
C52 H52A 0.9800
C52 H52B 0.9800
C52 H52C 0.9800
C53 C54 1.523(3)
C53 C55 1.523(3)
C54 H54A 0.9800
C54 H54B 0.9800
C54 H54C 0.9800
C55 H55A 0.9800
C55 H55B 0.9800
C55 H55C 0.9800
Co2 O12 2.013(7)
Co2 O11 2.060(18)
Co2 O15 2.122(3)
Co2 O16 2.158(8)
Co2 O13 2.18(2)
Co2 O14 2.258(12)
Mn2A O17 2.079(14)
Mn2A O18 2.116(11)
Mn2A O19 2.147(3)
Mn2A O16 2.220(8)
Mn2A O13 2.28(2)
Mn2A O14 2.330(12)
Li2 O20 1.807(9)
Li2 O14 1.960(16)
Li2 O19 1.994(9)
Li2 O15 2.105(9)
O14 C73 1.307(19)
C1 H1A 0.9800
C1 H1B 0.9800
C1 H1C 0.9800
C2 H2A 0.9800
C2 H2B 0.9800
C2 H2C 0.9800
C3 H3A 0.9800
C3 H3B 0.9800
C3 H3C 0.9800
C56 C59 1.52(2)
C56 H56A 0.9800
C56 H56B 0.9800
C56 H56C 0.9800
C57 C59 1.533(16)
C57 H57A 0.9800
C57 H57B 0.9800
C57 H57C 0.9800
C58 C59 1.535(18)
C58 H58A 0.9800
C58 H58B 0.9800
C58 H58C 0.9800
C59 C60 1.534(16)
C60 O11 1.26(3)
C60 C61 1.40(2)
C61 C62 1.403(10)
C61 H61 0.9500
C62 O12 1.283(8)
C62 C63 1.535(14)
C63 C64 1.509(17)
C63 C65 1.525(9)
C63 C66 1.534(8)
C64 H64A 0.9800
C64 H64B 0.9800
C64 H64C 0.9800
C65 H65A 0.9800
C65 H65B 0.9800
C65 H65C 0.9800
C66 H66A 0.9800
C66 H66B 0.9800
C66 H66C 0.9800
C67 C70A 1.545(10)
C67 H67A 0.9800
C67 H67B 0.9800
C67 H67C 0.9800
C68 C70A 1.538(5)
C68 H68A 0.9800
C68 H68B 0.9800
C68 H68C 0.9800
C69 C70A 1.54(3)
C69 H69A 0.9800
C69 H69B 0.9800
C69 H69C 0.9800
C70A C71 1.59(4)
C71 O13 1.26(3)
C71 C72 1.43(3)
C72 C73 1.38(2)
C72 H72 0.9500
C73 C74 1.57(2)
C74 C76 1.48(2)
C74 C75 1.524(17)
C74 C77 1.534(11)
C75 H75A 0.9800
C75 H75B 0.9800
C75 H75C 0.9800
C76 H76A 0.9800
C76 H76B 0.9800
C76 H76C 0.9800
C77 H77A 0.9800
C77 H77B 0.9800
C77 H77C 0.9800
C78 C81 1.516(5)
C78 H78A 0.9800
C78 H78B 0.9800
C78 H78C 0.9800
C79 C81 1.549(5)
C79 H79A 0.9800
C79 H79B 0.9800
C79 H79C 0.9800
C80 C81 1.550(5)
C80 H80A 0.9800
C80 H80B 0.9800
C80 H80C 0.9800
C81 C82 1.531(5)
C82 O15 1.269(4)
C82 C83 1.413(5)
C83 C84 1.400(5)
C83 H83 0.9500
C84 O16 1.291(10)
C84 C88 1.57(3)
C85 C88 1.45(3)
C85 H85A 0.9800
C85 H85B 0.9800
C85 H85C 0.9800
C86 C88 1.68(3)
C86 H86A 0.9800
C86 H86B 0.9800
C86 H86C 0.9800
C87 C88 1.44(3)
C87 H87A 0.9800
C87 H87B 0.9800
C87 H87C 0.9800
C100 C103 1.533(9)
C100 H10A 0.9800
C100 H10B 0.9800
C100 H10C 0.9800
C101 C103 1.473(10)
C101 H10D 0.9800
C101 H10E 0.9800
C101 H10F 0.9800
C102 C103 1.518(6)
C102 H10G 0.9800
C102 H10H 0.9800
C102 H10I 0.9800
C103 C104 1.534(5)
C104 O19 1.293(4)
C104 C105 1.396(5)
C105 C106 1.400(6)
C105 H105 0.9500
C106 O20 1.281(5)
C106 C107 1.544(4)
C107 C110 1.526(4)
C107 C109 1.533(4)
C107 C108 1.536(5)
C108 H10J 0.9800
C108 H10K 0.9800
C108 H10L 0.9800
C109 H10M 0.9800
C109 H10N 0.9800
C109 H10O 0.9800
C110 H11A 0.9800
C110 H11B 0.9800
C110 H11C 0.9800
O17 C93 1.322(18)
O18 C95 1.261(9)
C89 C92 1.53(2)
C89 H89A 0.9800
C89 H89B 0.9800
C89 H89C 0.9800
C90 C92 1.546(14)
C90 H90A 0.9800
C90 H90B 0.9800
C90 H90C 0.9800
C91 C92 1.520(16)
C91 H91A 0.9800
C91 H91B 0.9800
C91 H91C 0.9800
C92 C93 1.531(11)
C93 C94 1.399(11)
C94 C95 1.399(7)
C94 H94 0.9500
C95 C96 1.559(11)
C96 C97 1.476(6)
C96 C99 1.558(7)
C96 C98 1.602(16)
C97 H97A 0.9800
C97 H97B 0.9800
C97 H97C 0.9800
C98 H98A 0.9800
C98 H98B 0.9800
C98 H98C 0.9800
C99 H99A 0.9800
C99 H99B 0.9800
C99 H99C 0.9800
Li2A O1X 1.844(10)
Li2A O14A 1.922(16)
Li2A O2X 2.008(11)
Li2A O11X 2.056(11)
Co2A O18A 1.999(11)
Co2A O17A 2.005(14)
Co2A O11X 2.111(4)
Co2A O12X 2.156(8)
Co2A O13A 2.24(2)
Co2A O14A 2.271(13)
Mn2B O12A 2.051(7)
Mn2B O11A 2.063(18)
Mn2B O12X 2.165(7)
Mn2B O2X 2.169(3)
Mn2B O13A 2.28(2)
Mn2B O14A 2.350(12)
O13A C71A 1.32(3)
C1A H1AA 0.9800
C1A H1AB 0.9800
C1A H1AC 0.9800
C2A H2AA 0.9800
C2A H2AB 0.9800
C2A H2AC 0.9800
C3A H3AA 0.9800
C3A H3AB 0.9800
C3A H3AC 0.9800
C56A C59A 1.55(2)
C56A H56D 0.9800
C56A H56E 0.9800
C56A H56F 0.9800
C57A C59A 1.528(15)
C57A H57D 0.9800
C57A H57E 0.9800
C57A H57F 0.9800
C58A C59A 1.543(18)
C58A H58D 0.9800
C58A H58E 0.9800
C58A H58F 0.9800
C59A C60A 1.525(17)
C60A O11A 1.28(3)
C60A C61A 1.42(2)
C61A C62A 1.386(11)
C61A H61A 0.9500
C62A O12A 1.254(10)
C62A C63A 1.543(14)
C63A C66A 1.507(11)
C63A C65A 1.542(13)
C63A C64A 1.547(18)
C64A H64D 0.9800
C64A H64E 0.9800
C64A H64F 0.9800
C65A H65D 0.9800
C65A H65E 0.9800
C65A H65F 0.9800
C66A H66D 0.9800
C66A H66E 0.9800
C66A H66F 0.9800
O1X C3X 1.214(6)
O2X C1X 1.288(5)
C1X C2X 1.398(5)
C1X C4X 1.548(6)
C2X C3X 1.413(6)
C2X H2X 0.9500
C3X C8X 1.548(4)
C4X C6X 1.501(6)
C4X C7X 1.506(7)
C4X C5X 1.564(7)
C5X H5XA 0.9800
C5X H5XB 0.9800
C5X H5XC 0.9800
C6X H6XA 0.9800
C6X H6XB 0.9800
C6X H6XC 0.9800
C7X H7XA 0.9800
C7X H7XB 0.9800
C7X H7XC 0.9800
C8X C10X 1.530(4)
C8X C9X 1.533(4)
C8X C24X 1.538(5)
C9X H9XA 0.9800
C9X H9XB 0.9800
C9X H9XC 0.9800
C10X H10P 0.9800
C10X H10Q 0.9800
C10X H10R 0.9800
O11X C15X 1.274(5)
O12X C13X 1.301(9)
C13X C16X 1.36(2)
C13X C14X 1.392(6)
C14X C15X 1.405(6)
C14X H14X 0.9500
C15X C20X 1.527(5)
C16X C18X 1.54(3)
C16X C17X 1.60(3)
C16X C19X 1.65(3)
C17X H17A 0.9800
C17X H17B 0.9800
C17X H17C 0.9800
C18X H18A 0.9800
C18X H18B 0.9800
C18X H18C 0.9800
C19X H19A 0.9800
C19X H19B 0.9800
C19X H19C 0.9800
C20X C23X 1.522(5)
C20X C21X 1.528(5)
C20X C22X 1.542(5)
C21X H21A 0.9800
C21X H21B 0.9800
C21X H21C 0.9800
C22X H22A 0.9800
C22X H22B 0.9800
C22X H22C 0.9800
C23X H23A 0.9800
C23X H23B 0.9800
C23X H23C 0.9800
C24X H24A 0.9800
C24X H24B 0.9800
C24X H24C 0.9800
O17A C93A 1.266(18)
O18A C95A 1.265(8)
C89A C92A 1.49(2)
C89A H89D 0.9800
C89A H89E 0.9800
C89A H89F 0.9800
C90A C92A 1.506(12)
C90A H90D 0.9800
C90A H90E 0.9800
C90A H90F 0.9800
C91A C92A 1.545(14)
C91A H91D 0.9800
C91A H91E 0.9800
C91A H91F 0.9800
C92A C93A 1.519(11)
C93A C94A 1.385(11)
C94A C95A 1.398(9)
C94A H94A 0.9500
C95A C96A 1.524(10)
C96A C97A 1.474(10)
C96A C98A 1.486(16)
C96A C99A 1.581(10)
C97A H97D 0.9800
C97A H97E 0.9800
C97A H97F 0.9800
C98A H98D 0.9800
C98A H98E 0.9800
C98A H98F 0.9800
C99A H99D 0.9800
C99A H99E 0.9800
C99A H99F 0.9800
O14A C73A 1.280(19)
C67A C70 1.539(5)
C67A H67D 0.9800
C67A H67E 0.9800
C67A H67F 0.9800
C68A C70 1.525(8)
C68A H68D 0.9800
C68A H68E 0.9800
C68A H68F 0.9800
C69A C70 1.53(3)
C69A H69D 0.9800
C69A H69E 0.9800
C69A H69F 0.9800
C70 C71A 1.50(4)
C71A C72A 1.41(3)
C72A C73A 1.40(2)
C72A H72A 0.9500
C73A C74A 1.49(2)
C74A C77A 1.533(12)
C74A C75A 1.552(16)
C74A C76A 1.585(19)
C75A H75D 0.9800
C75A H75E 0.9800
C75A H75F 0.9800
C76A H76D 0.9800
C76A H76E 0.9800
C76A H76F 0.9800
C77A H77D 0.9800
C77A H77E 0.9800
C77A H77F 0.9800
