#------------------------------------------------------------------------------
#$Date: 2018-11-07 01:37:41 +0200 (Wed, 07 Nov 2018) $
#$Revision: 211811 $
#$URL: file:///home/coder/svn-repositories/cod/cif/1/55/01/1550195.cif $
#------------------------------------------------------------------------------
#
# This file is available in the Crystallography Open Database (COD),
# http://www.crystallography.net/
#
# All data on this site have been placed in the public domain by the
# contributors.
#
data_1550195
loop_
_publ_author_name
'Chang, Mu-Chieh'
'Jesse, Kate A.'
'Filatov, Alexander S.'
'Anderson, John S.'
_publ_section_title
;
 Reversible Homolytic Activation of Water via Metal-Ligand Cooperativity
 in a T-Shaped Ni(II) Complex
;
_journal_name_full               'Chemical Science'
_journal_paper_doi               10.1039/C8SC03719A
_journal_year                    2019
_chemical_formula_moiety         'C64 H54 N10 Ni2 O'
_chemical_formula_sum            'C64 H54 N10 Ni2 O'
_chemical_formula_weight         1096.59
_space_group_crystal_system      triclinic
_space_group_IT_number           2
_space_group_name_Hall           '-P 1'
_space_group_name_H-M_alt        'P -1'
_symmetry_space_group_name_Hall  '-P 1'
_symmetry_space_group_name_H-M   'P -1'
_atom_sites_solution_hydrogens   mixed
_atom_sites_solution_primary     dual
_atom_sites_solution_secondary   difmap
_audit_creation_date             2018-07-18
_audit_creation_method
;
Olex2 1.2
(compiled 2018.05.29 svn.r3508 for OlexSys, GUI svn.r5506)
;
_audit_update_record
;
2018-08-07 deposited with the CCDC.
2018-11-06 downloaded from the CCDC.
;
_cell_angle_alpha                76.493(3)
_cell_angle_beta                 81.913(3)
_cell_angle_gamma                81.444(3)
_cell_formula_units_Z            4
_cell_length_a                   12.0657(16)
_cell_length_b                   23.067(3)
_cell_length_c                   23.079(3)
_cell_measurement_reflns_used    9702
_cell_measurement_temperature    100(2)
_cell_measurement_theta_max      14.74
_cell_measurement_theta_min      2.24
_cell_volume                     6138.6(14)
_computing_cell_refinement       'APEX3 v.2015.9-0 (Bruker AXS Inc., 2015)'
_computing_data_collection       'APEX3 v.2015.9-0 (Bruker AXS Inc., 2015)'
_computing_data_reduction        'APEX3 v.2015.9-0 (Bruker AXS Inc., 2015)'
_computing_molecular_graphics    'Olex2 (Dolomanov et al., 2009)'
_computing_publication_material  'Olex2 (Dolomanov et al., 2009)'
_computing_structure_refinement  'ShelXL (Sheldrick, 2015)'
_computing_structure_solution    'ShelXT (Sheldrick, 2015)'
_diffrn_ambient_temperature      100(2)
_diffrn_detector                 'Pilatus1M(CdTe) pixel array detector'
_diffrn_detector_area_resol_mean 30
_diffrn_detector_type            'CMOS pixel array detector'
_diffrn_measured_fraction_theta_full 0.967
_diffrn_measured_fraction_theta_max 0.943
_diffrn_measurement_device_type  'three-circle diffractometer'
_diffrn_measurement_method       'phi rotation'
_diffrn_radiation_collimation    '0.2 mm sinlge-pinhole'
_diffrn_radiation_monochromator  'Si(111) & Si(311)'
_diffrn_radiation_probe          x-ray
_diffrn_radiation_type           synchrotron
_diffrn_radiation_wavelength     0.41328
_diffrn_reflns_av_R_equivalents  0.0749
_diffrn_reflns_av_unetI/netI     0.0497
_diffrn_reflns_Laue_measured_fraction_full 0.967
_diffrn_reflns_Laue_measured_fraction_max 0.943
_diffrn_reflns_limit_h_max       14
_diffrn_reflns_limit_h_min       -14
_diffrn_reflns_limit_k_max       28
_diffrn_reflns_limit_k_min       -28
_diffrn_reflns_limit_l_max       28
_diffrn_reflns_limit_l_min       -28
_diffrn_reflns_number            135413
_diffrn_reflns_point_group_measured_fraction_full 0.967
_diffrn_reflns_point_group_measured_fraction_max 0.943
_diffrn_reflns_theta_full        14.357
_diffrn_reflns_theta_max         14.761
_diffrn_reflns_theta_min         0.998
_diffrn_source                   synchrotron
_diffrn_source_type
'Insertion Device, Station 15 ID-B, APS, Argonne Nat'l Lab'
_diffrn_standards_number         0
_exptl_absorpt_coefficient_mu    0.160
_exptl_absorpt_correction_T_max  0.7438
_exptl_absorpt_correction_T_min  0.5499
_exptl_absorpt_correction_type   multi-scan
_exptl_absorpt_process_details
;
SADABS-2016/2 (Bruker,2016/2) was used for absorption correction. 
wR2(int) was 0.1065 before and 0.0634 after correction. 
The Ratio of minimum to maximum transmission is 0.7393. 
;
_exptl_crystal_colour            violet
_exptl_crystal_colour_primary    violet
_exptl_crystal_density_diffrn    1.187
_exptl_crystal_description       block
_exptl_crystal_F_000             2288
_exptl_crystal_size_max          0.02
_exptl_crystal_size_mid          0.02
_exptl_crystal_size_min          0.02
_refine_diff_density_max         1.132
_refine_diff_density_min         -1.005
_refine_diff_density_rms         0.083
_refine_ls_extinction_method     none
_refine_ls_goodness_of_fit_ref   1.094
_refine_ls_hydrogen_treatment    mixed
_refine_ls_matrix_type           full
_refine_ls_number_parameters     1576
_refine_ls_number_reflns         22723
_refine_ls_number_restraints     307
_refine_ls_restrained_S_all      1.087
_refine_ls_R_factor_all          0.0866
_refine_ls_R_factor_gt           0.0680
_refine_ls_shift/su_max          0.001
_refine_ls_shift/su_mean         0.000
_refine_ls_structure_factor_coef Fsqd
_refine_ls_weighting_details
'w=1/[\s^2^(Fo^2^)+(0.0453P)^2^+20.3719P] where P=(Fo^2^+2Fc^2^)/3'
_refine_ls_weighting_scheme      calc
_refine_ls_wR_factor_gt          0.1575
_refine_ls_wR_factor_ref         0.1680
_reflns_Friedel_coverage         0.000
_reflns_number_gt                17677
_reflns_number_total             22723
_reflns_threshold_expression     'I > 2\s(I)'
_cod_data_source_file            c8sc03719a2.cif
_cod_data_source_block           mu2_h2o
_cod_database_code               1550195
_shelx_shelxl_version_number     2018/3
_shelx_space_group_comment
;
The symmetry employed for this shelxl refinement is uniquely defined
by the following loop, which should always be used as a source of
symmetry information in preference to the above space-group names.
They are only intended as comments.
;
_shelx_estimated_absorpt_t_max   0.997
_shelx_estimated_absorpt_t_min   0.997
_olex2_refinement_description
;
1. Fixed Uiso
 At 1.2 times of:
  All C(H) groups, All N(H) groups, All O(H) groups
 At 1.5 times of:
  All C(H,H,H) groups
2. Restrained distances
 C54-C53 \\sim C53-C52 \\sim C57-C52 \\sim C57-C56 \\sim C56-C55 \\sim C55-C54
 with sigma of 0.02
 C57A-C52A \\sim C53A-C52A \\sim C54A-C53A \\sim C55A-C54A \\sim C56A-C55A
\\sim C57A-C56A
 with sigma of 0.02
 C52A-C51 \\sim C52-C51 \\sim C52B-C51
 with sigma of 0.005
 C58A-C55A \\sim C58-C55 \\sim C58B-C55B
 with sigma of 0.005
 C6X-C1X \\sim C2X-C1X \\sim C3X-C2X \\sim C4X-C3X \\sim C5X-C4X \\sim C6X-C5X
 with sigma of 0.005
 C117-C116 \\sim C118-C117 \\sim C119-C118 \\sim C120-C119 \\sim C121-C120
\\sim C121-C116
 with sigma of 0.02
 C7X-C4X \\sim C122-C119
 with sigma of 0.005
3. Restrained planarity
 C51, C52A, C53A, C54A, C55A, C56A, C57A, C58A
 with sigma of 0.1
 C51, C52B, C53B, C54B, C55B, C56B, C57B, C58B
 with sigma of 0.1
 C51, C52, C53, C54, C55, C56, C57, C58
 with sigma of 0.1
4. Uiso/Uaniso restraints and constraints
Uanis(C52A) = Uanis(C52)
Uanis(C52B) = Uanis(C52)
Uanis(C1X) = Uanis(C116)
Uanis(C7X) = Uanis(C122)
5. Rigid body (RIGU) restrains
 C52, C53, C54, C55, C56, C57, C58, C52A, C53A, C54A, C55A, C56A, C57A, C58A,
 C52B, C53B, C54B, C55B, C56B, C57B, C58B
 with sigma for 1-2 distances of 0.004 and sigma for 1-3 distances of 0.004
 C116, C117, C118, C119, C120, C121, C122, H4CA, C7X, C4X, C5X, C6X, C2X, C3X,
 C1X
 with sigma for 1-2 distances of 0.004 and sigma for 1-3 distances of 0.004
6. Others
 Sof(C1X)=Sof(C2X)=Sof(H7CA)=Sof(C3X)=Sof(H8CA)=Sof(C4X)=Sof(C5X)=Sof(H9CA)=
 Sof(C6X)=Sof(H0DA)=Sof(C122)=Sof(H1DA)=Sof(H2DA)=Sof(H3DA)=1-FVAR(1)
 Sof(C116)=Sof(C117)=Sof(H0CA)=Sof(C118)=Sof(H1CA)=Sof(C119)=Sof(C120)=
 Sof(H2CA)=Sof(C121)=Sof(H3CA)=Sof(C7X)=Sof(H4CA)=Sof(H5CA)=Sof(H6CA)=FVAR(1)
 Fixed Sof: C52(0.36) C53(0.36) H53(0.36) C54(0.36) H54(0.36) C55(0.36)
 C56(0.36) H56(0.36) C57(0.36) H57(0.36) C58(0.36) H58A(0.36) H58B(0.36)
 H58C(0.36) C52A(0.32) C53A(0.32) H53A(0.32) C54A(0.32) H54A(0.32) C55A(0.32)
 C56A(0.32) H56A(0.32) C57A(0.32) H57A(0.32) C58A(0.32) H58D(0.32) H58E(0.32)
 H58F(0.32) C52B(0.32) C53B(0.32) H53B(0.32) C54B(0.32) H54B(0.32) C55B(0.32)
 C56B(0.32) H56B(0.32) C57B(0.32) H57B(0.32) C58B(0.32) H58G(0.32) H58H(0.32)
 H58I(0.32)
7.a Aromatic/amide H refined with riding coordinates:
 C2(H2), C3(H3), C4(H4), C5(H5), C6(H6), C9(H9), C10(H10), C12(H12), C13(H13),
 C16(H16), C17(H17), C21(H21), C22(H22), C24(H24), C25(H25), C28(H28), C29(H29),
  C30(H30), C31(H31), C32(H32), C34(H34), C35(H35), C36(H36), C37(H37),
 C38(H38), C41(H41), C42(H42), C44(H44), C45(H45), C48(H48), C49(H49), C60(H60),
  C61(H61), C62(H62), C63(H63), C64(H64), C53(H53), C54(H54), C56(H56),
 C57(H57), C53A(H53A), C54A(H54A), C56A(H56A), C57A(H57A), C53B(H53B),
 C54B(H54B), C56B(H56B), C57B(H57B), C66(HB), C67(HC), C68(HD), C69(HE),
 C70(HF), C73(HG), C74(HH), C76(HI), C77(HJ), C80(HN), C81(HO), C85(HP),
 C86(HQ), C88(HR), C89(HS), C92(HW), C93(HX), C94(HY), C95(HZ), C96(H0AA),
 C98(H1AA), C99(H2AA), C100(H3AA), C101(H4AA), C102(H5AA), C105(H6AA),
 C106(H7AA), C108(H8AA), C109(H9AA), C112(H3BA), C113(H4BA), C124(H5BA),
 C125(H6BA), C126(H7BA), C127(H8BA), C128(H9BA), C117(H0CA), C118(H1CA),
 C120(H2CA), C121(H3CA), C2X(H7CA), C3X(H8CA), C5X(H9CA), C6X(H0DA)
7.b Idealised Me refined as rotating group:
 C14(H14A,H14B,H14C), C26(H26A,H26B,H26C), C46(H46A,H46B,H46C), C58(H58A,H58B,
 H58C), C58A(H58D,H58E,H58F), C58B(H58G,H58H,H58I), C78(HK,HL,HM), C90(HT,HU,
 HV), C110(H0BA,H1BA,H2BA), C7X(H4CA,H5CA,H6CA), C122(H1DA,H2DA,H3DA)
;
_shelx_res_file
;
TITL mu2_h2o
    mu2_h2o.res
    created by SHELXL-2018/3 at 14:16:29 on 18-Jul-2018
CELL 0.41328 12.0657 23.0668 23.0792 76.493 81.913 81.444
ZERR 4 0.0016 0.0032 0.0031 0.003 0.003 0.003
LATT 1
SFAC C H N Ni O
DISP C -0.0001 0.0005 5.2
DISP H 0 0 0.6
DISP N 0.0005 0.001 7.2
DISP Ni 0.2306 0.4106 1001.3
DISP O 0.0017 0.0018 10.2
UNIT 256 216 40 8 4
SADI C54 C53 C53 C52 C57 C52 C57 C56 C56 C55 C55 C54
SADI C57A C52A C53A C52A C54A C53A C55A C54A C56A C55A C57A C56A
SADI 0.005 C52A C51 C52 C51 C52B C51
SADI 0.005 C58A C55A C58 C55 C58B C55B
SADI 0.005 C6X C1X C2X C1X C3X C2X C4X C3X C5X C4X C6X C5X
SADI C117 C116 C118 C117 C119 C118 C120 C119 C121 C120 C121 C116
SADI 0.005 C7X C4X C122 C119
FLAT C51 C52A C53A C54A C55A C56A C57A C58A
FLAT C51 C52B C53B C54B C55B C56B C57B C58B
FLAT C51 C52 C53 C54 C55 C56 C57 C58
RIGU C52 > C58B
RIGU C116 C117 C118 C119 C120 C121 C122 H4CA C7X C4X C5X C6X C2X C3X C1X
EADP C52A C52
EADP C52B C52
EADP C1X C116
EADP C7X C122

L.S. 16
PLAN  10
SIZE 0.02 0.02 0.02
TEMP -173(2)
BOND $H
ABIN
fmap 2 53
acta
OMIT 7 1 1
OMIT 3 -2 1
REM <olex2.extras>
REM <HklSrc "%.\\Mu2_H2O.hkl">
REM </olex2.extras>

WGHT    0.045300   20.371899
FVAR       0.25053   0.74907
NI1   4    0.311856    0.716366    0.101260    11.00000    0.02451    0.02583 =
         0.02160    0.00852   -0.00146   -0.00072
NI2   4    0.178085    0.847208    0.012113    11.00000    0.02291    0.02825 =
         0.01732    0.00887    0.00142    0.00152
O1    5    0.208858    0.788390    0.082379    11.00000    0.02318    0.03446 =
         0.01996    0.01058    0.00223   -0.00093
H1    2    0.155642    0.783219    0.105645    11.00000   -1.20000
N1    3    0.116076    0.720064    0.193511    11.00000    0.02646    0.03259 =
         0.02464    0.00609    0.00309   -0.00072
H1A   2    0.063393    0.697310    0.204512    11.00000   -1.20000
N2    3    0.209376    0.684519    0.168387    11.00000    0.02999    0.02987 =
         0.02252    0.00753   -0.00051   -0.00030
N3    3    0.376199    0.638061    0.114780    11.00000    0.02932    0.02838 =
         0.02802    0.00435    0.00092   -0.00452
N4    3    0.523740    0.702230    0.022400    11.00000    0.02630    0.02960 =
         0.02914    0.00327   -0.00112   -0.00198
N5    3    0.437745    0.738478    0.045793    11.00000    0.02801    0.02512 =
         0.02814    0.00442   -0.00032   -0.00188
N6    3    0.202693    0.791081   -0.037177    11.00000    0.03611    0.02906 =
         0.01934    0.00389    0.00195    0.00137
N7    3    0.225827    0.797293   -0.095262    11.00000    0.03753    0.03882 =
         0.02160    0.00334   -0.00152    0.00480
N8    3    0.191707    0.910641   -0.054286    11.00000    0.02230    0.03366 =
         0.02112    0.00835    0.00293    0.00235
N9    3    0.109829    0.958566    0.052938    11.00000    0.02532    0.02700 =
         0.02529    0.00764    0.00042   -0.00171
N10   3    0.107553    0.901023    0.059844    11.00000    0.01876    0.03239 =
         0.01917    0.00919    0.00411   -0.00034
C1    1    0.143022    0.750756    0.236041    11.00000    0.03072    0.03073 =
         0.02184    0.00736   -0.00407    0.00789
C2    1    0.073323    0.750923    0.289924    11.00000    0.03669    0.03303 =
         0.02543    0.00979    0.00427    0.00386
AFIX  43
H2    2    0.011286    0.728105    0.299508    11.00000   -1.20000
AFIX   0
C3    1    0.093890    0.784025    0.329415    11.00000    0.04544    0.04342 =
         0.02518    0.00171   -0.00130    0.01324
AFIX  43
H3    2    0.046155    0.783464    0.365926    11.00000   -1.20000
AFIX   0
C4    1    0.184565    0.818356    0.315962    11.00000    0.04626    0.04672 =
         0.03518   -0.00667   -0.01224    0.00996
AFIX  43
H4    2    0.198607    0.841064    0.343033    11.00000   -1.20000
AFIX   0
C5    1    0.253859    0.818580    0.262077    11.00000    0.03600    0.03932 =
         0.03791    0.00179   -0.01078    0.00360
AFIX  43
H5    2    0.314918    0.842083    0.252275    11.00000   -1.20000
AFIX   0
C6    1    0.234787    0.785120    0.222909    11.00000    0.03191    0.03817 =
         0.02392    0.00654   -0.00411    0.00596
AFIX  43
H6    2    0.283665    0.785158    0.186839    11.00000   -1.20000
AFIX   0
C7    1    0.220224    0.623987    0.186336    11.00000    0.02786    0.03746 =
         0.02203    0.00345   -0.00297    0.00274
C8    1    0.138731    0.588600    0.231288    11.00000    0.03091    0.03428 =
         0.02747    0.00518   -0.00257    0.00067
C9    1    0.109892    0.597418    0.289577    11.00000    0.03201    0.03229 =
         0.02969    0.00828   -0.00500   -0.00018
AFIX  43
H9    2    0.144053    0.625911    0.302708    11.00000   -1.20000
AFIX   0
C10   1    0.030923    0.564477    0.328710    11.00000    0.03015    0.04146 =
         0.02483    0.00569   -0.00121    0.00236
AFIX  43
H10   2    0.012041    0.571261    0.368150    11.00000   -1.20000
AFIX   0
C11   1   -0.020967    0.521945    0.311565    11.00000    0.02678    0.04051 =
         0.02801    0.00964    0.00055    0.00037
C12   1    0.010818    0.512270    0.253197    11.00000    0.04277    0.04645 =
         0.04085    0.00139   -0.00129   -0.01702
AFIX  43
H12   2   -0.022098    0.483251    0.240186    11.00000   -1.20000
AFIX   0
C13   1    0.090739    0.545101    0.213983    11.00000    0.04680    0.04999 =
         0.02552   -0.00012    0.00303   -0.00719
AFIX  43
H13   2    0.112265    0.537410    0.175024    11.00000   -1.20000
AFIX   0
C14   1   -0.112056    0.488398    0.352668    11.00000    0.03659    0.05396 =
         0.03781    0.00948    0.00170   -0.00876
AFIX 137
H14A  2   -0.079390    0.462476    0.387703    11.00000   -1.50000
H14B  2   -0.142713    0.463776    0.330883    11.00000   -1.50000
H14C  2   -0.172629    0.517374    0.365843    11.00000   -1.50000
AFIX   0
C15   1    0.317332    0.596828    0.156375    11.00000    0.03485    0.03314 =
         0.02194    0.00589   -0.00266   -0.00288
C16   1    0.373469    0.538261    0.155263    11.00000    0.03858    0.02935 =
         0.03250    0.00639   -0.00015   -0.00712
AFIX  43
H16   2    0.352142    0.501437    0.179453    11.00000   -1.20000
AFIX   0
C17   1    0.465300    0.545442    0.112009    11.00000    0.04350    0.02868 =
         0.03396    0.00544   -0.00261   -0.00128
AFIX  43
H17   2    0.518879    0.514250    0.100897    11.00000   -1.20000
AFIX   0
C18   1    0.464793    0.608733    0.086963    11.00000    0.03579    0.02490 =
         0.02492    0.00498    0.00051   -0.00258
C19   1    0.537573    0.642875    0.040696    11.00000    0.02799    0.03085 =
         0.02816    0.00269    0.00078   -0.00206
C20   1    0.642429    0.612424    0.011077    11.00000    0.03612    0.02702 =
         0.02913    0.00529   -0.00233   -0.00144
C21   1    0.635475    0.570569   -0.022260    11.00000    0.03928    0.04117 =
         0.05348   -0.00325   -0.00656   -0.00191
AFIX  43
H21   2    0.564741    0.557741   -0.023478    11.00000   -1.20000
AFIX   0
C22   1    0.733849    0.546853   -0.054573    11.00000    0.05312    0.04557 =
         0.05349   -0.01555   -0.00316   -0.00553
AFIX  43
H22   2    0.728371    0.519301   -0.078578    11.00000   -1.20000
AFIX   0
C23   1    0.840365    0.564132   -0.051167    11.00000    0.04355    0.03965 =
         0.05497   -0.01102    0.00532   -0.00515
C24   1    0.843672    0.604468   -0.016780    11.00000    0.04402    0.04652 =
         0.06039   -0.00895    0.00023   -0.00718
AFIX  43
H24   2    0.913914    0.616975   -0.013986    11.00000   -1.20000
AFIX   0
C25   1    0.744561    0.628059    0.014821    11.00000    0.04767    0.04149 =
         0.03546   -0.00782   -0.00370   -0.00286
AFIX  43
H25   2    0.749824    0.655379    0.039114    11.00000   -1.20000
AFIX   0
C26   1    0.948042    0.540755   -0.085868    11.00000    0.06644    0.05130 =
         0.10661   -0.03505    0.03187   -0.01005
AFIX 137
H26A  2    0.994870    0.573401   -0.101820    11.00000   -1.50000
H26B  2    0.928746    0.525692   -0.119061    11.00000   -1.50000
H26C  2    0.989781    0.508133   -0.059046    11.00000   -1.50000
AFIX   0
C27   1    0.445259    0.799876    0.013488    11.00000    0.02111    0.02752 =
         0.03281    0.00687    0.00112    0.00174
C28   1    0.413817    0.847172    0.043070    11.00000    0.02020    0.03057 =
         0.04010    0.00169    0.00065   -0.00417
AFIX  43
H28   2    0.387177    0.839057    0.084552    11.00000   -1.20000
AFIX   0
C29   1    0.421509    0.906844    0.011560    11.00000    0.02594    0.02767 =
         0.05542    0.00415   -0.00544    0.00230
AFIX  43
H29   2    0.398027    0.938873    0.031673    11.00000   -1.20000
AFIX   0
C30   1    0.463666    0.919356   -0.049413    11.00000    0.02741    0.03645 =
         0.05279    0.01919   -0.00068   -0.00049
AFIX  43
H30   2    0.471141    0.959506   -0.070314    11.00000   -1.20000
AFIX   0
C31   1    0.493901    0.872760   -0.078363    11.00000    0.02420    0.04469 =
         0.04405    0.01759    0.00541    0.00321
AFIX  43
H31   2    0.522074    0.880977   -0.119635    11.00000   -1.20000
AFIX   0
C32   1    0.483898    0.813309   -0.048059    11.00000    0.02591    0.03498 =
         0.04052    0.00554    0.00213    0.00261
AFIX  43
H32   2    0.503323    0.781829   -0.069183    11.00000   -1.20000
AFIX   0
C33   1    0.031176    0.879762    0.113537    11.00000    0.02287    0.02769 =
         0.01925    0.01164    0.00655    0.00150
C34   1    0.030836    0.899461    0.165945    11.00000    0.02611    0.02865 =
         0.02793    0.00866   -0.00188    0.00272
AFIX  43
H34   2    0.082927    0.925652    0.168422    11.00000   -1.20000
AFIX   0
C35   1   -0.047376    0.880238    0.215252    11.00000    0.03364    0.03621 =
         0.01623    0.00355    0.00539    0.00528
AFIX  43
H35   2   -0.049065    0.893688    0.251294    11.00000   -1.20000
AFIX   0
C36   1   -0.122597    0.841335    0.211179    11.00000    0.02567    0.03455 =
         0.02504    0.01176    0.00264    0.00057
AFIX  43
H36   2   -0.173906    0.827379    0.245013    11.00000   -1.20000
AFIX   0
C37   1   -0.123298    0.822893    0.158518    11.00000    0.02108    0.03658 =
         0.03052    0.00953    0.00299    0.00010
AFIX  43
H37   2   -0.176576    0.797428    0.155845    11.00000   -1.20000
AFIX   0
C38   1   -0.045169    0.841762    0.108751    11.00000    0.02308    0.03136 =
         0.02110    0.00528    0.00005    0.00349
AFIX  43
H38   2   -0.044479    0.828819    0.072516    11.00000   -1.20000
AFIX   0
C39   1    0.159248    0.991678    0.001182    11.00000    0.01934    0.03074 =
         0.02634    0.01016    0.00042    0.00217
C40   1    0.170156    1.053001    0.006463    11.00000    0.02335    0.03431 =
         0.02706    0.00886   -0.00450    0.00407
C41   1    0.091321    1.081099    0.045402    11.00000    0.02569    0.03787 =
         0.02991    0.00680   -0.00740   -0.00173
AFIX  43
H41   2    0.029309    1.061251    0.066553    11.00000   -1.20000
AFIX   0
C42   1    0.103679    1.138028    0.053157    11.00000    0.03248    0.04474 =
         0.04624   -0.00464   -0.01430    0.00477
AFIX  43
H42   2    0.048993    1.156847    0.078926    11.00000   -1.20000
AFIX   0
C43   1    0.195662    1.167697    0.023423    11.00000    0.03889    0.04313 =
         0.07481    0.00311   -0.02920   -0.00970
C44   1    0.273692    1.139889   -0.014430    11.00000    0.02266    0.05123 =
         0.06163    0.01594   -0.00998   -0.00658
AFIX  43
H44   2    0.336196    1.159716   -0.034892    11.00000   -1.20000
AFIX   0
C45   1    0.262555    1.083655   -0.023126    11.00000    0.02481    0.03902 =
         0.03925    0.01404   -0.00454   -0.00209
AFIX  43
H45   2    0.317573    1.065480   -0.049246    11.00000   -1.20000
AFIX   0
C46   1    0.209294    1.228947    0.033626    11.00000    0.05857    0.06170 =
         0.14209   -0.01954   -0.02681   -0.01804
AFIX 137
H46A  2    0.284570    1.239427    0.016385    11.00000   -1.50000
H46B  2    0.200043    1.227684    0.076758    11.00000   -1.50000
H46C  2    0.152053    1.259189    0.014308    11.00000   -1.50000
AFIX   0
C47   1    0.188418    0.970154   -0.051657    11.00000    0.01859    0.03168 =
         0.02349    0.01084    0.00334    0.00349
C48   1    0.209808    1.005041   -0.112229    11.00000    0.02747    0.03719 =
         0.03050    0.01851    0.00548    0.00566
AFIX  43
H48   2    0.209783    1.047377   -0.123432    11.00000   -1.20000
AFIX   0
C49   1    0.229567    0.967327   -0.149579    11.00000    0.03726    0.04233 =
         0.02451    0.01402    0.00808    0.00739
AFIX  43
H49   2    0.245473    0.978082   -0.191945    11.00000   -1.20000
AFIX   0
C50   1    0.222264    0.906363   -0.113367    11.00000    0.02788    0.04183 =
         0.01898    0.01016    0.00455    0.00651
C51   1    0.242240    0.852222   -0.131726    11.00000    0.03392    0.04117 =
         0.02294    0.01100    0.00482    0.00987
C59   1    0.184517    0.729034   -0.010909    11.00000    0.04003    0.03498 =
         0.02640    0.00479   -0.00861   -0.00540
C60   1    0.265432    0.683354   -0.024131    11.00000    0.04403    0.03430 =
         0.04152    0.00401   -0.01088   -0.00655
AFIX  43
H60   2    0.332150    0.692522   -0.049843    11.00000   -1.20000
AFIX   0
C61   1    0.247845    0.622856    0.001015    11.00000    0.05799    0.03798 =
         0.06396    0.00201   -0.02421   -0.00459
AFIX  43
H61   2    0.302657    0.590869   -0.007192    11.00000   -1.20000
AFIX   0
C62   1    0.147866    0.611157    0.038268    11.00000    0.08421    0.04020 =
         0.05219    0.00970   -0.02322   -0.02988
AFIX  43
H62   2    0.135281    0.570661    0.055081    11.00000   -1.20000
AFIX   0
C63   1    0.067741    0.656432    0.051146    11.00000    0.06688    0.05628 =
         0.04116    0.00398   -0.00526   -0.03172
AFIX  43
H63   2    0.000842    0.647206    0.076665    11.00000   -1.20000
AFIX   0
C64   1    0.084933    0.716657    0.026421    11.00000    0.04515    0.04817 =
         0.03441    0.00140   -0.00197   -0.01382
AFIX  43
H64   2    0.029869    0.748430    0.034909    11.00000   -1.20000
AFIX   0
PART 1
C52   1    0.267378    0.845852   -0.196327    10.36000    0.03564    0.02792 =
         0.02472    0.00573    0.00331   -0.00393
C53   1    0.352577    0.877545   -0.234352    10.36000    0.02872    0.03229 =
         0.03479    0.01065   -0.00192   -0.00199
AFIX  43
H53   2    0.391062    0.901654   -0.217586    10.36000   -1.20000
AFIX   0
C54   1    0.383707    0.875567   -0.295243    10.36000    0.05258    0.04373 =
         0.02964    0.01056   -0.00343    0.00744
AFIX  43
H54   2    0.440949    0.897663   -0.318829    10.36000   -1.20000
AFIX   0
C55   1    0.326170    0.839334   -0.319687    10.36000    0.04893    0.05082 =
         0.02566   -0.00137   -0.00529    0.02185
C56   1    0.240797    0.805919   -0.284159    10.36000    0.05996    0.06115 =
         0.03310   -0.01469   -0.00558    0.00010
AFIX  43
H56   2    0.203171    0.781620   -0.301150    10.36000   -1.20000
AFIX   0
C57   1    0.212639    0.809301   -0.223313    10.36000    0.05677    0.03917 =
         0.02837    0.00214    0.00032   -0.01412
AFIX  43
H57   2    0.156003    0.786785   -0.199688    10.36000   -1.20000
AFIX   0
C58   1    0.358324    0.837031   -0.386034    10.36000    0.06787    0.12068 =
         0.03343   -0.01709    0.00544    0.01718
AFIX 137
H58A  2    0.396003    0.872176   -0.406795    10.36000   -1.50000
H58B  2    0.290076    0.837102   -0.404607    10.36000   -1.50000
H58C  2    0.409391    0.800348   -0.389001    10.36000   -1.50000
AFIX   0
PART 0
PART 2
C52A  1    0.268005    0.844228   -0.195763    10.32000    0.03564    0.02792 =
         0.02472    0.00573    0.00331   -0.00393
C53A  1    0.212388    0.882720   -0.241887    10.32000    0.08135    0.04331 =
         0.02583   -0.00613   -0.00372    0.01114
AFIX  43
H53A  2    0.157060    0.914639   -0.234046    10.32000   -1.20000
AFIX   0
C54A  1    0.241004    0.872680   -0.300478    10.32000    0.07108    0.06764 =
         0.02413   -0.00645   -0.00114    0.00581
AFIX  43
H54A  2    0.204318    0.899473   -0.331871    10.32000   -1.20000
AFIX   0
C55A  1    0.319456    0.826123   -0.315505    10.32000    0.06170    0.05810 =
         0.02180   -0.01082    0.01001   -0.00480
C56A  1    0.374852    0.789204   -0.268371    10.32000    0.06729    0.05596 =
         0.03762   -0.01197    0.00361    0.00561
AFIX  43
H56A  2    0.430180    0.757283   -0.276207    10.32000   -1.20000
AFIX   0
C57A  1    0.350143    0.798488   -0.209735    10.32000    0.05749    0.04287 =
         0.03109   -0.00439    0.00025    0.00000
AFIX  43
H57A  2    0.390123    0.773121   -0.178803    10.32000   -1.20000
AFIX   0
C58A  1    0.340403    0.819863   -0.381149    10.32000    0.08111    0.07092 =
         0.03293   -0.02537    0.00220   -0.01173
AFIX 137
H58D  2    0.275804    0.840601   -0.402244    10.32000   -1.50000
H58E  2    0.350088    0.777240   -0.382501    10.32000   -1.50000
H58F  2    0.408671    0.837759   -0.400547    10.32000   -1.50000
AFIX   0
PART 0
PART 3
C52B  1    0.296236    0.858213   -0.195881    10.32000    0.03564    0.02792 =
         0.02472    0.00573    0.00331   -0.00393
C53B  1    0.386283    0.888259   -0.225326    10.32000    0.03862    0.02319 =
         0.02309    0.00426    0.01128   -0.00249
AFIX  43
H53B  2    0.425816    0.908507   -0.204827    10.32000   -1.20000
AFIX   0
C54B  1    0.416266    0.888056   -0.283484    10.32000    0.06233    0.03744 =
         0.02235    0.00677    0.01273    0.02935
AFIX  43
H54B  2    0.476587    0.909725   -0.303827    10.32000   -1.20000
AFIX   0
C55B  1    0.365666    0.858823   -0.314818    10.32000    0.08551    0.04035 =
         0.01638    0.00545    0.00597    0.02702
C56B  1    0.277354    0.823801   -0.286012    10.32000    0.08476    0.05049 =
         0.01982   -0.00715   -0.00447    0.01924
AFIX  43
H56B  2    0.243379    0.801006   -0.306486    10.32000   -1.20000
AFIX   0
C57B  1    0.242886    0.825168   -0.223862    10.32000    0.04548    0.03230 =
         0.01827    0.00455    0.00128   -0.00184
AFIX  43
H57B  2    0.183611    0.803379   -0.202242    10.32000   -1.20000
AFIX   0
C58B  1    0.401821    0.857333   -0.381057    10.32000    0.14183    0.07240 =
         0.01599   -0.00002    0.01409    0.05183
AFIX 137
H58G  2    0.464480    0.881326   -0.396308    10.32000   -1.50000
H58H  2    0.338068    0.873976   -0.404360    10.32000   -1.50000
H58I  2    0.425974    0.815747   -0.384750    10.32000   -1.50000
AFIX   0

PART 0
NI3   4    0.723862    0.776745    0.382371    11.00000    0.02893    0.02924 =
         0.02405    0.00747    0.00110    0.00454
NI4   4    0.609189    0.651389    0.478624    11.00000    0.02456    0.02768 =
         0.01562    0.00688    0.00005    0.00304
O2    5    0.645464    0.706474    0.405900    11.00000    0.03380    0.02898 =
         0.01745    0.00992   -0.00279   -0.00114
H2O   2    0.598447    0.708849    0.377998    11.00000   -1.20000
N11   3    0.570765    0.771428    0.295936    11.00000    0.03536    0.04010 =
         0.02442    0.00437   -0.00527    0.00089
H11N  2    0.509021    0.794214    0.277904    11.00000   -1.20000
N12   3    0.635271    0.806818    0.317458    11.00000    0.03146    0.03990 =
         0.02443    0.01330   -0.00364   -0.00375
N13   3    0.758805    0.854361    0.363070    11.00000    0.03843    0.02847 =
         0.03032    0.00241   -0.00187   -0.00044
N14   3    0.892880    0.792412    0.455930    11.00000    0.03859    0.03823 =
         0.03583   -0.00297   -0.00040    0.01156
N15   3    0.832338    0.756110    0.437807    11.00000    0.03429    0.03524 =
         0.02830    0.00186    0.00015    0.00429
N16   3    0.582128    0.711689    0.523085    11.00000    0.03084    0.02612 =
         0.02184    0.00402   -0.00207    0.00442
N17   3    0.582446    0.709053    0.580492    11.00000    0.03610    0.03756 =
         0.01748    0.00155   -0.00056    0.00433
N18   3    0.621208    0.591279    0.548053    11.00000    0.02544    0.02996 =
         0.01895    0.00535    0.00189    0.00418
N19   3    0.621168    0.536105    0.445579    11.00000    0.02176    0.03142 =
         0.02026    0.00704   -0.00040    0.00090
N20   3    0.592566    0.593859    0.434743    11.00000    0.02141    0.02532 =
         0.01959    0.00699   -0.00191    0.00262
C65   1    0.634857    0.739781    0.253262    11.00000    0.03894    0.02809 =
         0.02152    0.00719    0.00520   -0.00628
C66   1    0.589568    0.739878    0.200946    11.00000    0.03801    0.03951 =
         0.02446    0.00686    0.00001   -0.00709
AFIX  43
HB    2    0.520578    0.764108    0.192163    11.00000   -1.20000
AFIX   0
C67   1    0.644140    0.704957    0.161505    11.00000    0.04686    0.04434 =
         0.02614   -0.00005   -0.00403   -0.01362
AFIX  43
HC    2    0.611401    0.705120    0.126354    11.00000   -1.20000
AFIX   0
C68   1    0.746100    0.669732    0.172746    11.00000    0.04848    0.04745 =
         0.02943   -0.00562    0.00409   -0.00858
AFIX  43
HD    2    0.783264    0.645917    0.145639    11.00000   -1.20000
AFIX   0
C69   1    0.792935    0.670105    0.224976    11.00000    0.03589    0.04273 =
         0.03170   -0.00096    0.00623   -0.00700
AFIX  43
HE    2    0.862648    0.646404    0.233254    11.00000   -1.20000
AFIX   0
C70   1    0.738299    0.704815    0.264699    11.00000    0.04171    0.03625 =
         0.01926    0.00609    0.00101   -0.00982
AFIX  43
HF    2    0.771106    0.704884    0.299764    11.00000   -1.20000
AFIX   0
C71   1    0.620605    0.868168    0.298784    11.00000    0.03502    0.03812 =
         0.02388    0.00444    0.00878    0.00185
C72   1    0.540638    0.902475    0.256834    11.00000    0.03656    0.03628 =
         0.03241    0.00465    0.00064   -0.00112
C73   1    0.547205    0.894800    0.198181    11.00000    0.03777    0.04106 =
         0.02956    0.00864    0.00138    0.00158
AFIX  43
HG    2    0.605203    0.867142    0.184091    11.00000   -1.20000
AFIX   0
C74   1    0.468949    0.927582    0.160221    11.00000    0.04210    0.04334 =
         0.03234    0.00904   -0.00600   -0.00760
AFIX  43
HH    2    0.474564    0.921861    0.120414    11.00000   -1.20000
AFIX   0
C75   1    0.381810    0.968952    0.179408    11.00000    0.03596    0.03934 =
         0.03090    0.00974   -0.00635   -0.00148
C76   1    0.377846    0.976678    0.237572    11.00000    0.05236    0.06094 =
         0.04414    0.00253   -0.00469    0.02070
AFIX  43
HI    2    0.320029    1.004134    0.252124    11.00000   -1.20000
AFIX   0
C77   1    0.458143    0.944439    0.274993    11.00000    0.05674    0.05438 =
         0.03459    0.00584   -0.01417    0.01409
AFIX  43
HJ    2    0.455556    0.951764    0.314022    11.00000   -1.20000
AFIX   0
C78   1    0.294865    1.002810    0.138967    11.00000    0.04153    0.05518 =
         0.04646    0.01336   -0.01233    0.00373
AFIX 137
HK    2    0.328103    1.035180    0.109290    11.00000   -1.50000
HL    2    0.230259    1.019957    0.162983    11.00000   -1.50000
HM    2    0.269714    0.975302    0.118340    11.00000   -1.50000
AFIX   0
C79   1    0.691459    0.894985    0.324410    11.00000    0.03668    0.03370 =
         0.02691    0.00173    0.00249    0.00324
C80   1    0.717104    0.953732    0.323165    11.00000    0.05076    0.03573 =
         0.03156    0.00103   -0.00186    0.00694
AFIX  43
HN    2    0.684253    0.990431    0.300302    11.00000   -1.20000
AFIX   0
C81   1    0.798753    0.947241    0.361478    11.00000    0.05170    0.03919 =
         0.03924   -0.00689   -0.00949    0.00269
AFIX  43
HO    2    0.832196    0.978690    0.369931    11.00000   -1.20000
AFIX   0
C82   1    0.823675    0.883901    0.386198    11.00000    0.04494    0.04071 =
         0.03481   -0.00536   -0.00061    0.00983
C83   1    0.893044    0.851013    0.431822    11.00000    0.04429    0.04391 =
         0.03768   -0.01187   -0.00386    0.01267
C84   1    0.974904    0.882636    0.452562    11.00000    0.05343    0.04526 =
         0.05767   -0.01934   -0.00949    0.02283
C85   1    1.040540    0.922053    0.411528    11.00000    0.05888    0.04612 =
         0.07463   -0.02092   -0.01097    0.00991
AFIX  43
HP    2    1.032655    0.928998    0.370005    11.00000   -1.20000
AFIX   0
C86   1    1.117774    0.951542    0.430437    11.00000    0.06513    0.05646 =
         0.10623   -0.04184   -0.02346    0.02018
AFIX  43
HQ    2    1.162164    0.977698    0.401581    11.00000   -1.20000
AFIX   0
C87   1    1.130152    0.942983    0.490780    11.00000    0.06736    0.06781 =
         0.12701   -0.06236   -0.04250    0.03680
C88   1    1.067012    0.903176    0.531271    11.00000    0.07679    0.07067 =
         0.08709   -0.04548   -0.03627    0.03721
AFIX  43
HR    2    1.076048    0.895945    0.572681    11.00000   -1.20000
AFIX   0
C89   1    0.989744    0.873062    0.512916    11.00000    0.07622    0.06402 =
         0.06787   -0.03315   -0.03373    0.03419
AFIX  43
HS    2    0.947351    0.845989    0.541888    11.00000   -1.20000
AFIX   0
C90   1    1.212630    0.976555    0.510629    11.00000    0.12226    0.10091 =
         0.17934   -0.10472   -0.07972    0.06289
AFIX 137
HT    2    1.270389    0.988318    0.477247    11.00000   -1.50000
HU    2    1.248646    0.950399    0.544476    11.00000   -1.50000
HV    2    1.171885    1.012535    0.522926    11.00000   -1.50000
AFIX   0
C91   1    0.853003    0.695154    0.472435    11.00000    0.02344    0.03913 =
         0.02673    0.00492   -0.00383    0.00532
C92   1    0.861950    0.646655    0.445021    11.00000    0.02799    0.03352 =
         0.02614    0.00660    0.00105    0.00463
AFIX  43
HW    2    0.851832    0.653526    0.403779    11.00000   -1.20000
AFIX   0
C93   1    0.885976    0.587270    0.478088    11.00000    0.02406    0.03594 =
         0.03277    0.00567    0.00212    0.00383
AFIX  43
HX    2    0.891523    0.554250    0.459338    11.00000   -1.20000
AFIX   0
C94   1    0.901625    0.577540    0.539176    11.00000    0.02651    0.04065 =
         0.03078    0.01394    0.00116    0.00313
AFIX  43
HY    2    0.917305    0.537825    0.561934    11.00000   -1.20000
AFIX   0
C95   1    0.894099    0.625809    0.565739    11.00000    0.02806    0.05205 =
         0.02502    0.00636   -0.00093    0.00410
AFIX  43
HZ    2    0.906269    0.619049    0.606690    11.00000   -1.20000
AFIX   0
C96   1    0.868806    0.684707    0.533409    11.00000    0.03253    0.05090 =
         0.02650    0.00201    0.00190    0.00534
AFIX  43
H0AA  2    0.862354    0.717469    0.552601    11.00000   -1.20000
AFIX   0
C97   1    0.535165    0.612470    0.380506    11.00000    0.02238    0.03097 =
         0.01669    0.00800   -0.00191   -0.00358
C98   1    0.573677    0.588110    0.330518    11.00000    0.02219    0.03183 =
         0.02561    0.00560   -0.00408   -0.00085
AFIX  43
H1AA  2    0.640888    0.560825    0.330164    11.00000   -1.20000
AFIX   0
C99   1    0.512654    0.604134    0.280917    11.00000    0.03767    0.03366 =
         0.01773    0.00090   -0.00077   -0.00723
AFIX  43
H2AA  2    0.538086    0.587521    0.246709    11.00000   -1.20000
AFIX   0
C100  1    0.414128    0.644604    0.281481    11.00000    0.03063    0.03745 =
         0.02316    0.01118   -0.00606   -0.00595
AFIX  43
H3AA  2    0.373220    0.655832    0.247480    11.00000   -1.20000
AFIX   0
C101  1    0.376013    0.668419    0.331793    11.00000    0.02575    0.03194 =
         0.02469    0.01115   -0.00317   -0.00104
AFIX  43
H4AA  2    0.308611    0.695562    0.332164    11.00000   -1.20000
AFIX   0
C102  1    0.436207    0.652686    0.381825    11.00000    0.02804    0.02733 =
         0.01992    0.00324    0.00271   -0.00094
AFIX  43
H5AA  2    0.410383    0.669021    0.416171    11.00000   -1.20000
AFIX   0
C103  1    0.659145    0.505715    0.498648    11.00000    0.02104    0.02859 =
         0.02259    0.01018   -0.00014    0.00115
C104  1    0.705889    0.441736    0.497984    11.00000    0.02012    0.03283 =
         0.01801    0.00473    0.00468   -0.00040
C105  1    0.661959    0.410872    0.462974    11.00000    0.02157    0.03312 =
         0.02480    0.00851    0.00438    0.00382
AFIX  43
H6AA  2    0.602735    0.430463    0.439674    11.00000   -1.20000
AFIX   0
C106  1    0.704547    0.351081    0.461880    11.00000    0.02807    0.03821 =
         0.03098   -0.00047    0.00213    0.00012
AFIX  43
H7AA  2    0.673986    0.330556    0.437769    11.00000   -1.20000
AFIX   0
C107  1    0.792247    0.321175    0.496216    11.00000    0.02506    0.03775 =
         0.04194    0.00798    0.00857    0.00702
C108  1    0.837156    0.353070    0.529572    11.00000    0.02096    0.04203 =
         0.03207    0.00811   -0.00098    0.00457
AFIX  43
H8AA  2    0.897624    0.333895    0.552139    11.00000   -1.20000
AFIX   0
C109  1    0.795712    0.412447    0.530735    11.00000    0.02822    0.03072 =
         0.02432    0.00713    0.00118   -0.00176
AFIX  43
H9AA  2    0.828269    0.433291    0.553770    11.00000   -1.20000
AFIX   0
C110  1    0.837013    0.255978    0.495583    11.00000    0.04309    0.03970 =
         0.07232   -0.00218    0.00049    0.00984
AFIX 137
H0BA  2    0.919640    0.251422    0.490469    11.00000   -1.50000
H1BA  2    0.809712    0.244476    0.462324    11.00000   -1.50000
H2BA  2    0.810489    0.230089    0.533551    11.00000   -1.50000
AFIX   0
C111  1    0.647764    0.530147    0.548628    11.00000    0.01628    0.03054 =
         0.02352    0.00845   -0.00084   -0.00222
C112  1    0.657577    0.498663    0.610914    11.00000    0.02970    0.03284 =
         0.02164    0.01066   -0.00157    0.00192
AFIX  43
H3BA  2    0.673434    0.456496    0.624951    11.00000   -1.20000
AFIX   0
C113  1    0.640100    0.540171    0.644784    11.00000    0.04074    0.03879 =
         0.01870    0.00665   -0.00129    0.00055
AFIX  43
H4BA  2    0.640315    0.532385    0.687050    11.00000   -1.20000
AFIX   0
C114  1    0.620815    0.599101    0.605175    11.00000    0.02435    0.03637 =
         0.01726    0.00423    0.00238    0.00344
C115  1    0.607219    0.655256    0.619727    11.00000    0.03761    0.03945 =
         0.02277    0.00244    0.00009    0.00649
C123  1    0.546224    0.774157    0.494741    11.00000    0.03460    0.03386 =
         0.02152    0.00318    0.00092    0.00845
C124  1    0.455258    0.787444    0.461671    11.00000    0.03989    0.04018 =
         0.03132    0.00282   -0.00278    0.00885
AFIX  43
H5BA  2    0.417946    0.756213    0.455612    11.00000   -1.20000
AFIX   0
C125  1    0.418516    0.848115    0.436998    11.00000    0.06095    0.04939 =
         0.02772    0.00379   -0.00590    0.02531
AFIX  43
H6BA  2    0.354633    0.857881    0.415198    11.00000   -1.20000
AFIX   0
C126  1    0.474930    0.893357    0.444378    11.00000    0.07551    0.03581 =
         0.02968    0.00480    0.00675    0.02042
AFIX  43
H7BA  2    0.450508    0.934021    0.427025    11.00000   -1.20000
AFIX   0
C127  1    0.566550    0.879728    0.476831    11.00000    0.06806    0.03585 =
         0.03615   -0.00365    0.01582    0.00057
AFIX  43
H8BA  2    0.605448    0.910913    0.481645    11.00000   -1.20000
AFIX   0
C128  1    0.602169    0.819701    0.502719    11.00000    0.04774    0.03816 =
         0.02831    0.00091    0.00696    0.00307
AFIX  43
H9BA  2    0.664466    0.810208    0.525675    11.00000   -1.20000
AFIX   0
PART 1
C116  1    0.615018    0.664241    0.681784    21.00000    0.06328    0.03360 =
         0.02200   -0.00014   -0.00258    0.00261
C117  1    0.700313    0.631849    0.716081    21.00000    0.06147    0.04794 =
         0.03255   -0.00372   -0.00551    0.00969
AFIX  43
H0CA  2    0.753933    0.603083    0.700702    21.00000   -1.20000
AFIX   0
C118  1    0.706343    0.641970    0.773057    21.00000    0.08722    0.06015 =
         0.04070   -0.00505   -0.01560    0.00905
AFIX  43
H1CA  2    0.763505    0.619278    0.796281    21.00000   -1.20000
AFIX   0
C119  1    0.630156    0.684656    0.796308    21.00000    0.12807    0.04943 =
         0.02749   -0.00393   -0.01165    0.00833
C120  1    0.547440    0.717917    0.761564    21.00000    0.14322    0.07524 =
         0.03818   -0.02318   -0.01840    0.04729
AFIX  43
H2CA  2    0.496877    0.748278    0.776217    21.00000   -1.20000
AFIX   0
C121  1    0.537707    0.707197    0.705095    21.00000    0.12063    0.06449 =
         0.02757   -0.00233   -0.01152    0.04237
AFIX  43
H3CA  2    0.478775    0.729025    0.682660    21.00000   -1.20000
AFIX   0
PART 0
PART 2
C7X   1    0.656345    0.701088    0.854332    21.00000    0.13426    0.05968 =
         0.03520   -0.01200   -0.01767    0.00535
AFIX 137
H4CA  2    0.707790    0.669350    0.876409    21.00000   -1.50000
H5CA  2    0.581451    0.702516    0.877151    21.00000   -1.50000
H6CA  2    0.685025    0.739847    0.848587    21.00000   -1.50000
AFIX   0
C1X   1    0.624636    0.661247    0.679756   -21.00000    0.06328    0.03360 =
         0.02200   -0.00014   -0.00258    0.00261
C2X   1    0.577008    0.628225    0.734357   -21.00000    0.06637    0.01997 =
         0.01904    0.00241   -0.01468    0.00234
AFIX  43
H7CA  2    0.536383    0.596060    0.734047   -21.00000   -1.20000
AFIX   0
C3X   1    0.588195    0.641770    0.789374   -21.00000    0.05928    0.03151 =
         0.01124    0.00898   -0.01370   -0.00599
AFIX  43
H8CA  2    0.553665    0.618660    0.825127   -21.00000   -1.20000
AFIX   0
C4X   1    0.648264    0.688032    0.793823   -21.00000    0.04341    0.03970 =
         0.03395   -0.01280   -0.00852   -0.00345
C5X   1    0.696764    0.721459    0.739676   -21.00000    0.05242    0.03673 =
         0.03387   -0.01251   -0.00637   -0.00400
AFIX  43
H9CA  2    0.737947    0.753404    0.739996   -21.00000   -1.20000
AFIX   0
C6X   1    0.684079    0.707424    0.685048   -21.00000    0.05995    0.02810 =
         0.02383   -0.00132   -0.00903    0.00631
AFIX  43
H0DA  2    0.718016    0.730753    0.649251   -21.00000   -1.20000
AFIX   0
PART 0
PART 1
C122  1    0.617941    0.695312    0.859317   -21.00000    0.13426    0.05968 =
         0.03520   -0.01200   -0.01767    0.00535
AFIX 137
H1DA  2    0.607526    0.738594    0.857683   -21.00000   -1.50000
H2DA  2    0.686021    0.676872    0.878420   -21.00000   -1.50000
H3DA  2    0.552368    0.677367    0.882627   -21.00000   -1.50000
AFIX   0
HKLF 4




REM  mu2_h2o
REM wR2 = 0.1680, GooF = S = 1.094, Restrained GooF = 1.087 for all data
REM R1 = 0.0680 for 17677 Fo > 4sig(Fo) and 0.0866 for all 22723 data
REM 1576 parameters refined using 307 restraints

END

WGHT      0.0453     20.3713

REM Highest difference peak  1.132,  deepest hole -1.005,  1-sigma level  0.083
Q1    1   0.1852  0.8225 -0.0155  11.00000  0.05    1.13
Q2    1   0.7544  0.8018  0.3997  11.00000  0.05    0.97
Q3    1   0.3027  0.6916  0.0723  11.00000  0.05    0.89
Q4    1   0.7231  0.7643  0.3471  11.00000  0.05    0.86
Q5    1   0.6112  0.6375  0.4443  11.00000  0.05    0.85
Q6    1   0.1977  0.8641  0.0415  11.00000  0.05    0.79
Q7    1   0.3121  0.7364  0.1406  11.00000  0.05    0.63
Q8    1   0.6291  0.6804  0.5016  11.00000  0.05    0.56
Q9    1   0.7207  0.5763  0.0538  11.00000  0.05    0.49
Q10   1   0.8287  0.5467  0.0216  11.00000  0.05    0.48
;
_shelx_res_checksum              65317
_shelx_fab_file
;
-14 -9 1 1.2983 -0.0360
-14 -8 1 0.3028 -0.0708
-14 -8 2 -0.1860 -0.0348
-14 -7 1 0.6996 -0.0268
-14 -7 2 1.8260 0.0662
-14 -7 3 -0.3003 0.0204
-14 -6 1 0.7684 0.0988
-14 -6 2 -0.1772 0.0301
-14 -6 3 -2.4091 -0.0282
-14 -5 1 1.1221 0.0844
-14 -5 2 0.1502 -0.0495
-14 -5 3 0.4413 -0.0064
-14 -5 4 0.0222 -0.0041
-14 -4 1 0.6577 -0.1155
-14 -4 2 -0.6311 -0.0356
-14 -4 3 -1.4177 0.0251
-14 -4 4 -1.1462 0.0085
-14 -3 1 -0.8608 -0.0287
-14 -3 2 -0.0087 0.0899
-14 -3 3 -1.3049 -0.0110
-14 -3 4 0.4086 -0.0051
-14 -2 1 1.1089 0.1510
-14 -2 2 0.0539 -0.0594
-14 -2 3 -0.4305 -0.0429
-14 -2 4 3.0670 -0.0257
-14 -1 1 1.9506 -0.0981
-14 -1 2 0.2198 -0.1145
-14 -1 3 0.0437 0.0502
-14 -1 4 -1.0608 0.0264
-14 0 1 0.7937 -0.1728
-14 0 2 -1.5628 0.0989
-14 0 3 -0.8234 0.0368
-14 0 4 0.4087 -0.0185
-14 1 1 -0.4410 0.1727
-14 1 2 -0.2613 0.0761
-14 1 3 -0.3017 -0.0599
-14 1 4 0.3260 0.0354
-14 2 1 -0.1225 0.1549
-14 2 2 -0.2592 -0.0558
-14 2 3 0.3156 0.0255
-14 3 1 -0.0298 -0.0126
-14 3 2 -0.4569 -0.0525
-14 4 1 -1.4782 0.0601
-13 -14 1 0.8407 -0.0980
-13 -13 1 -2.2135 -0.1512
-13 -13 2 0.2084 0.0780
-13 -13 3 0.0399 0.0138
-13 -12 1 0.3924 0.1677
-13 -12 2 2.1159 0.0796
-13 -12 3 -1.0814 -0.0584
-13 -12 4 -0.3637 -0.0055
-13 -11 1 -1.4905 0.0413
-13 -11 2 0.5368 -0.1505
-13 -11 3 1.0056 -0.0044
-13 -11 4 1.6346 -0.0086
-13 -11 5 -1.1082 0.0192
-13 -10 1 0.2323 -0.1877
-13 -10 2 2.3316 -0.0321
-13 -10 3 -0.0422 0.0254
-13 -10 4 -2.2941 -0.0013
-13 -10 5 -0.9978 0.1158
-13 -10 6 2.2881 -0.0334
-13 -9 1 1.3750 -0.0100
-13 -9 2 2.6754 0.1043
-13 -9 3 0.5587 0.0139
-13 -9 4 -0.6299 0.0463
-13 -9 5 0.6034 -0.0279
-13 -9 6 -1.2107 -0.0798
-13 -9 7 -2.8975 0.0459
-13 -8 1 0.4028 0.1234
-13 -8 2 1.1255 -0.0457
-13 -8 3 -3.1327 -0.0527
-13 -8 4 -3.6204 0.0167
-13 -8 5 -0.1235 0.0215
-13 -8 6 0.1122 0.0529
-13 -8 7 3.2782 -0.0437
-13 -7 1 0.1477 -0.0443
-13 -7 2 0.8411 -0.0743
-13 -7 3 -2.3011 0.0638
-13 -7 4 1.0534 0.0015
-13 -7 5 2.1890 -0.0024
-13 -7 6 1.3495 -0.0269
-13 -7 7 1.4207 -0.0440
-13 -7 8 -3.5669 -0.0253
-13 -6 1 0.3732 -0.0905
-13 -6 2 0.7751 0.0598
-13 -6 3 -1.9261 0.0044
-13 -6 4 0.4544 -0.0154
-13 -6 5 0.9402 0.0436
-13 -6 6 0.6139 -0.0309
-13 -6 7 -1.5560 -0.0733
-13 -6 8 -2.1769 -0.0090
-13 -5 1 1.2319 0.0720
-13 -5 2 -0.2925 0.0577
-13 -5 3 -2.1810 -0.0242
-13 -5 4 1.3357 0.0190
-13 -5 5 -0.3143 -0.0269
-13 -5 6 -1.1271 -0.0316
-13 -5 7 -0.2246 0.0253
-13 -5 8 0.7459 0.0892
-13 -4 1 0.9446 0.0419
-13 -4 2 -2.1363 -0.0536
-13 -4 3 -0.6101 -0.0269
-13 -4 4 0.5382 -0.0142
-13 -4 5 0.5912 -0.0447
-13 -4 6 2.1670 0.0113
-13 -4 7 0.2415 0.0046
-13 -4 8 -1.3477 0.0073
-13 -4 9 -0.2413 0.0232
-13 -3 1 -0.9489 -0.0773
-13 -3 2 -0.8923 -0.0256
-13 -3 3 0.4986 0.0309
-13 -3 4 0.4691 -0.0172
-13 -3 5 1.0690 0.0057
-13 -3 6 -1.6932 0.0699
-13 -3 7 -1.7710 0.0254
-13 -3 8 -0.0954 0.0257
-13 -3 9 1.5409 -0.0201
-13 -2 1 -0.8232 0.0211
-13 -2 2 0.4356 0.0474
-13 -2 3 -0.2783 0.0020
-13 -2 4 1.9285 -0.0256
-13 -2 5 0.6295 0.0330
-13 -2 6 -0.4706 0.0363
-13 -2 7 1.0564 -0.0232
-13 -2 8 -0.3873 -0.0283
-13 -2 9 0.4859 -0.0470
-13 -1 1 2.3459 0.0238
-13 -1 2 1.1653 -0.0261
-13 -1 3 1.2159 -0.0149
-13 -1 4 -0.5632 0.0180
-13 -1 5 -4.7056 0.0437
-13 -1 6 -0.9118 -0.0157
-13 -1 7 0.5263 -0.0559
-13 -1 8 -0.2291 -0.0222
-13 -1 9 1.4250 0.0054
-13 0 1 0.0978 -0.0901
-13 0 2 -2.8826 -0.0149
-13 0 3 -1.7684 0.0132
-13 0 4 -2.5728 0.0183
-13 0 5 2.0750 -0.0232
-13 0 6 6.3671 -0.0412
-13 0 7 0.2213 -0.0004
-13 0 8 -1.6975 0.0210
-13 0 9 0.0788 -0.0209
-13 1 1 -2.0209 0.0078
-13 1 2 0.6817 0.0739
-13 1 3 2.1745 -0.0021
-13 1 4 0.1465 -0.0133
-13 1 5 1.1222 -0.0052
-13 1 6 -1.7968 0.0123
-13 1 7 -4.2088 0.0059
-13 1 8 0.3105 0.0005
-13 1 9 1.6222 0.0220
-13 2 1 -0.3890 0.1640
-13 2 2 0.4357 0.0001
-13 2 3 -1.3165 -0.0588
-13 2 4 -1.3530 0.0338
-13 2 5 1.4690 0.0163
-13 2 6 1.5270 -0.0221
-13 2 7 0.4867 0.0020
-13 2 8 0.4775 -0.0158
-13 2 9 -0.3358 0.0343
-13 3 1 1.0663 0.0243
-13 3 2 -0.7529 -0.1451
-13 3 3 1.3311 -0.0583
-13 3 4 0.2455 -0.0085
-13 3 5 -0.2936 -0.0464
-13 3 6 -1.3537 0.0195
-13 3 7 -1.3995 0.0060
-13 3 8 0.3665 0.0071
-13 4 1 -1.1888 -0.1563
-13 4 2 -0.2092 -0.0465
-13 4 3 0.9085 0.0190
-13 4 4 -2.6156 0.0849
-13 4 5 1.1753 0.0713
-13 4 6 1.5062 0.0343
-13 4 7 0.3625 -0.0162
-13 4 8 0.0161 0.0309
-13 5 1 0.8697 0.0066
-13 5 2 -0.4740 0.0554
-13 5 3 0.1276 0.0326
-13 5 4 0.3106 0.0542
-13 5 5 2.1770 -0.0466
-13 5 6 -2.2262 -0.0145
-13 5 7 -0.4850 -0.0032
-13 6 1 -1.2160 0.1176
-13 6 2 -0.0262 0.0013
-13 6 3 1.1590 -0.0215
-13 6 4 -0.4928 -0.0054
-13 6 5 -1.0105 -0.0782
-13 6 6 -1.2462 0.0139
-13 6 7 2.0874 -0.0408
-13 7 1 -0.9869 -0.0909
-13 7 2 -0.5799 -0.1046
-13 7 3 0.1577 -0.0061
-13 7 4 0.7416 -0.0391
-13 7 5 0.4008 0.0064
-13 7 6 -0.0886 0.1494
-13 8 1 -0.1419 -0.0802
-13 8 2 0.3555 0.0812
-13 8 3 2.0104 0.0405
-13 8 4 0.2094 0.0473
-13 9 1 -0.6902 0.1504
-13 9 2 -0.0278 0.0700
-12 -17 1 -0.4214 0.0229
-12 -17 2 -0.3586 -0.0805
-12 -16 1 0.1298 -0.1290
-12 -16 2 1.7005 -0.0085
-12 -16 3 0.4559 -0.0127
-12 -15 1 -0.2823 0.0162
-12 -15 2 -1.4380 0.0759
-12 -15 3 -1.4031 0.0070
-12 -15 4 0.4838 -0.0359
-12 -15 5 1.7403 -0.0556
-12 -14 1 -1.1606 0.1481
-12 -14 2 2.2135 -0.0205
-12 -14 3 1.7505 -0.0088
-12 -14 4 0.9716 -0.0045
-12 -14 5 -0.3065 0.0573
-12 -14 6 -1.3510 0.0110
-12 -13 1 1.9742 -0.0422
-12 -13 2 -0.3551 -0.1110
-12 -13 3 -0.5263 0.0130
-12 -13 4 -0.0077 -0.0688
-12 -13 5 -0.4074 0.0259
-12 -13 6 0.0915 0.0163
-12 -13 7 0.0204 -0.0231
-12 -12 1 -0.7883 -0.1291
-12 -12 2 1.4445 0.0572
-12 -12 3 0.8564 0.0631
-12 -12 4 -0.9540 -0.0099
-12 -12 5 -0.5677 0.0904
-12 -12 6 -0.6188 -0.0410
-12 -12 7 -1.4672 -0.0504
-12 -12 8 0.4758 0.0257
-12 -11 1 -0.8242 0.0794
-12 -11 2 0.2485 0.0715
-12 -11 3 -0.1889 -0.0430
-12 -11 4 0.5904 0.0080
-12 -11 5 0.1281 0.0121
-12 -11 6 -0.3343 -0.0474
-12 -11 7 0.7916 -0.0038
-12 -11 8 1.5654 0.0222
-12 -11 9 0.5738 0.0412
-12 -10 1 2.4253 0.0523
-12 -10 2 3.0843 -0.0913
-12 -10 3 0.5789 -0.0115
-12 -10 4 -2.3295 -0.0155
-12 -10 5 -1.8875 -0.0119
-12 -10 6 1.4401 0.0074
-12 -10 7 0.2467 -0.0220
-12 -10 8 -0.7915 0.0324
-12 -10 9 0.3353 0.0001
-12 -9 1 0.2301 -0.0995
-12 -9 2 0.0737 -0.0306
-12 -9 3 -1.5976 0.0447
-12 -9 4 -1.2344 0.0277
-12 -9 5 1.9855 0.0611
-12 -9 6 1.1986 -0.0318
-12 -9 7 -2.4958 -0.0237
-12 -9 8 0.2912 0.0344
-12 -9 9 1.8563 0.0008
-12 -9 10 -0.8151 0.0067
-12 -8 1 2.4470 0.0104
-12 -8 2 0.8860 0.0635
-12 -8 3 -2.0139 0.0167
-12 -8 4 -2.4296 -0.0090
-12 -8 5 -0.1171 -0.0270
-12 -8 6 0.2584 -0.0062
-12 -8 7 0.7239 -0.0096
-12 -8 8 2.4076 -0.0233
-12 -8 9 -0.6472 0.0209
-12 -8 10 -2.3917 0.0067
-12 -7 1 -0.5411 0.0578
-12 -7 2 -1.6807 -0.0281
-12 -7 3 -2.5037 -0.0262
-12 -7 4 0.5983 -0.0212
-12 -7 5 3.9337 0.0255
-12 -7 6 2.0812 -0.0051
-12 -7 7 -1.1397 -0.0719
-12 -7 8 -2.3127 0.0650
-12 -7 9 -1.3895 0.0665
-12 -7 10 1.9229 -0.0149
-12 -7 11 1.7269 -0.0506
-12 -6 1 1.8770 -0.1068
-12 -6 2 0.1570 -0.0195
-12 -6 3 0.5369 -0.0120
-12 -6 4 2.0147 0.0156
-12 -6 5 0.5583 0.0409
-12 -6 6 -1.3010 -0.0298
-12 -6 7 -2.2314 -0.0115
-12 -6 8 0.3595 0.0478
-12 -6 9 2.2599 -0.0051
-12 -6 10 0.3773 -0.0202
-12 -6 11 -2.5133 -0.0520
-12 -5 1 3.7350 -0.0117
-12 -5 2 -0.6700 0.0810
-12 -5 3 -0.3722 0.0098
-12 -5 4 -1.4824 0.0308
-12 -5 5 -0.4716 -0.0231
-12 -5 6 -0.7077 -0.0152
-12 -5 7 -1.4081 0.0065
-12 -5 8 1.1673 0.0711
-12 -5 9 -0.1831 0.0040
-12 -5 10 -0.1158 -0.0788
-12 -5 11 0.5443 -0.0320
-12 -5 12 0.8582 0.0309
-12 -4 1 -0.9761 0.1506
-12 -4 2 -3.0320 0.0162
-12 -4 3 -1.1820 -0.0381
-12 -4 4 -0.2294 -0.0323
-12 -4 5 1.4622 -0.0147
-12 -4 6 0.5353 0.0203
-12 -4 7 1.8610 -0.0028
-12 -4 8 1.5993 0.0015
-12 -4 9 -0.2974 -0.1081
-12 -4 10 0.7205 0.0113
-12 -4 11 -2.1134 0.0443
-12 -4 12 -1.1034 0.0331
-12 -3 1 1.2331 0.0266
-12 -3 2 -0.1904 -0.1130
-12 -3 3 1.9545 -0.0298
-12 -3 4 1.1343 -0.0134
-12 -3 5 0.9006 0.0313
-12 -3 6 -0.4835 0.0425
-12 -3 7 -1.2052 -0.0075
-12 -3 8 -2.6169 -0.0167
-12 -3 9 -0.9138 -0.0002
-12 -3 10 0.1257 0.0451
-12 -3 11 -0.4247 -0.0212
-12 -3 12 2.1474 0.0852
-12 -2 1 -2.7180 -0.1478
-12 -2 2 0.2032 -0.0138
-12 -2 3 -0.4939 0.0650
-12 -2 4 -1.7550 0.0144
-12 -2 5 -1.1810 0.0637
-12 -2 6 0.3180 -0.0193
-12 -2 7 1.4269 -0.0575
-12 -2 8 0.7129 0.0222
-12 -2 9 1.7443 -0.0234
-12 -2 10 0.5026 0.0111
-12 -2 11 -0.5366 0.0681
-12 -2 12 -0.4075 -0.0083
-12 -1 1 1.7787 -0.0296
-12 -1 2 2.3443 0.1254
-12 -1 3 -0.6316 -0.0043
-12 -1 4 0.2062 0.0029
-12 -1 5 0.4861 -0.0049
-12 -1 6 1.9164 -0.0813
-12 -1 7 -1.7344 0.0256
-12 -1 8 -2.3385 -0.0006
-12 -1 9 -0.0551 -0.0382
-12 -1 10 -0.5736 0.0754
-12 -1 11 -0.3081 -0.0250
-12 -1 12 0.5548 -0.0489
-12 0 1 2.6649 0.1422
-12 0 2 -3.8295 -0.0236
-12 0 3 -2.5494 -0.0715
-12 0 4 -2.3325 0.0013
-12 0 5 0.5641 -0.0623
-12 0 6 3.2597 0.0220
-12 0 7 -0.4068 0.0464
-12 0 8 0.3551 -0.0125
-12 0 9 0.8758 0.0422
-12 0 10 0.3506 0.0061
-12 0 11 -0.1508 -0.0374
-12 0 12 0.4787 0.0237
-12 0 13 0.0840 -0.0594
-12 1 1 -3.6959 -0.0080
-12 1 2 -0.6414 -0.1208
-12 1 3 2.9326 0.0486
-12 1 4 1.4572 0.0034
-12 1 5 4.6820 0.0242
-12 1 6 -0.1461 0.0497
-12 1 7 -6.3198 -0.0313
-12 1 8 -1.6805 0.0135
-12 1 9 2.2296 -0.0215
-12 1 10 0.6037 0.0023
-12 1 11 -0.7903 0.0307
-12 1 12 0.5125 -0.0071
-12 2 1 0.3553 -0.1372
-12 2 2 2.1677 0.0572
-12 2 3 -1.5085 0.0466
-12 2 4 -2.2265 -0.0308
-12 2 5 0.0087 0.0580
-12 2 6 -3.1256 -0.0373
-12 2 7 0.5586 0.0130
-12 2 8 5.0699 0.0102
-12 2 9 0.7740 -0.0154
-12 2 10 -1.9911 0.0291
-12 2 11 -0.1496 -0.1132
-12 2 12 0.2801 -0.0299
-12 3 1 0.2361 0.0816
-12 3 2 -0.4811 0.0684
-12 3 3 -0.7184 -0.0864
-12 3 4 1.7094 0.0350
-12 3 5 1.8291 -0.0217
-12 3 6 -0.5428 -0.0562
-12 3 7 0.7164 0.0260
-12 3 8 -1.4031 -0.0466
-12 3 9 -1.3192 0.0203
-12 3 10 0.9157 -0.0732
-12 3 11 -0.5214 -0.0023
-12 3 12 -0.6349 0.2054
-12 4 1 -1.5067 0.0375
-12 4 2 0.4028 -0.0972
-12 4 3 0.8961 -0.0158
-12 4 4 -0.3696 0.0366
-12 4 5 -1.7417 -0.0237
-12 4 6 -0.3966 0.0704
-12 4 7 1.3976 -0.0053
-12 4 8 -0.5162 0.0083
-12 4 9 0.4775 0.0048
-12 4 10 -0.5357 -0.0224
-12 4 11 -0.2898 0.1524
-12 4 12 1.2663 -0.0468
-12 5 1 -0.0464 -0.0405
-12 5 2 1.9014 -0.0321
-12 5 3 -1.8773 0.0466
-12 5 4 -0.6769 -0.0007
-12 5 5 1.4198 0.0289
-12 5 6 1.3366 -0.0081
-12 5 7 -0.6032 -0.0307
-12 5 8 -1.4082 0.0078
-12 5 9 0.8394 -0.0621
-12 5 10 0.4567 0.0831
-12 5 11 0.0313 -0.0193
-12 5 12 -0.8674 -0.1340
-12 6 1 -1.1487 -0.0025
-12 6 2 -0.5436 0.0516
-12 6 3 0.4009 0.0023
-12 6 4 3.3138 -0.0165
-12 6 5 -1.6412 0.0264
-12 6 6 -2.3032 -0.0261
-12 6 7 0.6714 -0.0163
-12 6 8 0.0845 -0.0675
-12 6 9 0.0857 0.0426
-12 6 10 -0.1791 0.0762
-12 6 11 -0.0351 -0.1153
-12 7 1 -0.5447 0.0437
-12 7 2 1.9952 -0.0447
-12 7 3 0.5089 -0.0465
-12 7 4 -0.9123 0.0024
-12 7 5 -3.7373 0.0008
-12 7 6 2.7213 -0.0064
-12 7 7 1.9638 0.0081
-12 7 8 -1.1950 0.0166
-12 7 9 0.7405 0.0879
-12 7 10 -0.2475 -0.0249
-12 7 11 -0.0804 -0.0180
-12 8 1 1.2012 -0.0809
-12 8 2 0.2566 0.0058
-12 8 3 0.8615 0.0344
-12 8 4 -0.4055 0.0046
-12 8 5 -1.3612 0.0689
-12 8 6 1.8555 0.0130
-12 8 7 -1.1227 -0.0384
-12 8 8 0.0756 -0.0066
-12 8 9 -0.3540 -0.0142
-12 8 10 -0.9452 -0.0328
-12 9 1 -0.2476 -0.0004
-12 9 2 0.3389 0.1165
-12 9 3 -0.4216 0.0063
-12 9 4 -2.1494 0.0100
-12 9 5 -0.0649 -0.0075
-12 9 6 1.3448 -0.1159
-12 9 7 0.0939 0.0144
-12 9 8 0.3962 -0.0209
-12 9 9 -1.1933 -0.0146
-12 10 1 -0.3345 0.1975
-12 10 2 0.1668 0.0461
-12 10 3 -0.5748 -0.1305
-12 10 4 0.2472 -0.0558
-12 10 5 0.4274 -0.0228
-12 10 6 -0.4539 0.0354
-12 10 7 1.2056 0.0875
-12 10 8 0.5950 -0.0440
-12 11 1 -1.3406 -0.0185
-12 11 2 0.0654 -0.0958
-12 11 3 -0.3892 -0.0329
-12 11 4 1.0707 0.0759
-12 11 5 -0.6288 0.0363
-12 11 6 0.5438 0.0173
-12 11 7 1.1887 -0.0197
-12 12 1 1.2580 -0.0978
-12 12 2 -0.4605 0.0491
-12 12 3 0.5822 -0.1114
-12 12 4 0.1587 0.0005
-11 -19 1 1.6852 0.0465
-11 -19 2 0.6288 -0.2297
-11 -18 1 1.1911 -0.2193
-11 -18 2 -1.1390 0.0175
-11 -18 3 -0.2302 0.0936
-11 -18 4 -0.2088 -0.0219
-11 -17 1 0.9631 0.0357
-11 -17 2 -2.3944 0.0979
-11 -17 3 -0.5255 -0.0356
-11 -17 4 1.7846 0.0566
-11 -17 5 1.3068 -0.0150
-11 -17 6 -1.2279 -0.0760
-11 -16 1 -3.4194 0.0847
-11 -16 2 -0.4665 -0.0170
-11 -16 3 3.4322 -0.0584
-11 -16 4 0.7858 -0.0021
-11 -16 5 -3.2404 -0.0019
-11 -16 6 -0.0018 0.0205
-11 -16 7 1.6968 -0.0247
-11 -15 1 1.6782 -0.0232
-11 -15 2 1.3827 -0.0470
-11 -15 3 -1.5070 0.0101
-11 -15 4 -1.3539 0.0276
-11 -15 5 0.5195 -0.0181
-11 -15 6 2.6860 -0.0331
-11 -15 7 -2.0210 0.0141
-11 -15 8 -1.0732 0.0505
-11 -14 1 -3.5582 0.0110
-11 -14 2 -1.2100 0.0329
-11 -14 3 2.8964 0.0147
-11 -14 4 2.6084 -0.0366
-11 -14 5 -1.5590 0.0743
-11 -14 6 -0.3485 0.0421
-11 -14 7 -1.6058 -0.0752
-11 -14 8 1.3313 -0.0236
-11 -14 9 0.7471 0.0062
-11 -13 1 3.4652 0.0325
-11 -13 2 3.1544 0.0135
-11 -13 3 0.3376 -0.0404
-11 -13 4 -3.5719 -0.0209
-11 -13 5 -1.7645 0.0233
-11 -13 6 2.5765 -0.1319
-11 -13 7 -1.2503 -0.0028
-11 -13 8 1.0156 0.1085
-11 -13 9 0.5292 0.0314
-11 -13 10 -1.2123 0.0160
-11 -12 1 0.0464 -0.0785
-11 -12 2 -1.5347 -0.0289
-11 -12 3 0.0277 -0.0194
-11 -12 4 -0.3718 0.0305
-11 -12 5 1.6201 0.0256
-11 -12 6 0.9003 -0.0034
-11 -12 7 -3.0586 0.0813
-11 -12 8 0.8411 -0.0165
-11 -12 9 0.0994 -0.0255
-11 -12 10 -0.4128 -0.0443
-11 -12 11 0.9817 -0.0074
-11 -11 1 -0.4977 -0.0815
-11 -11 2 -0.2190 0.0993
-11 -11 3 -0.3993 0.0122
-11 -11 4 -1.2966 0.0117
-11 -11 5 0.4146 -0.0098
-11 -11 6 -0.3196 -0.0232
-11 -11 7 -1.0478 0.0177
-11 -11 8 2.9562 -0.0217
-11 -11 9 1.3731 0.0082
-11 -11 10 -1.1133 0.0033
-11 -11 11 -0.4727 0.0046
-11 -10 1 0.9315 0.1553
-11 -10 2 1.7347 0.0387
-11 -10 3 1.4346 -0.0593
-11 -10 4 -0.2417 0.0084
-11 -10 5 0.5602 -0.0449
-11 -10 6 1.2148 0.0021
-11 -10 7 -0.7628 0.0189
-11 -10 8 0.2882 -0.0247
-11 -10 9 -1.0257 0.0234
-11 -10 10 -2.1073 -0.0180
-11 -10 11 0.9372 -0.0361
-11 -10 12 0.2731 0.0186
-11 -9 1 2.0032 0.0535
-11 -9 2 -0.2664 -0.1395
-11 -9 3 -2.0627 -0.0175
-11 -9 4 -1.7828 -0.0175
-11 -9 5 1.6860 0.0206
-11 -9 6 -0.2476 0.0646
-11 -9 7 -4.1831 -0.0206
-11 -9 8 1.2338 0.0004
-11 -9 9 1.5636 0.0147
-11 -9 10 -0.1136 -0.0260
-11 -9 11 1.5582 0.0045
-11 -9 12 -1.1073 0.0087
-11 -8 1 0.6806 -0.2196
-11 -8 2 -1.6093 -0.0156
-11 -8 3 -0.8546 0.0600
-11 -8 4 -0.3969 0.0327
-11 -8 5 0.1883 0.0709
-11 -8 6 -1.8601 -0.0464
-11 -8 7 0.9398 -0.0325
-11 -8 8 5.6000 0.0168
-11 -8 9 -0.1916 -0.0170
-11 -8 10 -2.1434 0.0026
-11 -8 11 -0.9798 0.0006
-11 -8 12 -1.6572 0.0225
-11 -8 13 2.0484 0.0420
-11 -7 1 0.8204 -0.0110
-11 -7 2 -0.4607 0.1398
-11 -7 3 0.4448 -0.0013
-11 -7 4 0.1108 0.0309
-11 -7 5 2.4003 -0.0317
-11 -7 6 2.1673 -0.0698
-11 -7 7 0.8415 0.0167
-11 -7 8 -2.1410 -0.0113
-11 -7 9 -4.6523 0.0179
-11 -7 10 0.0667 0.0335
-11 -7 11 2.0001 -0.0237
-11 -7 12 1.0415 -0.0073
-11 -7 13 1.4572 -0.0022
-11 -7 14 -1.5843 -0.0506
-11 -6 1 1.4243 0.1806
-11 -6 2 0.2855 -0.0172
-11 -6 3 -0.7064 -0.0582
-11 -6 4 -0.3108 -0.0114
-11 -6 5 0.6630 -0.0440
-11 -6 6 -2.5530 0.0261
-11 -6 7 -2.2530 0.0380
-11 -6 8 0.1220 -0.0004
-11 -6 9 3.0173 0.0282
-11 -6 10 3.6442 -0.0209
-11 -6 11 -1.6325 -0.0524
-11 -6 12 -2.8472 0.0271
-11 -6 13 0.4611 0.0275
-11 -6 14 -0.4003 -0.0379
-11 -5 1 2.4422 -0.0266
-11 -5 2 0.1708 -0.1267
-11 -5 3 -0.8131 0.0157
-11 -5 4 0.0076 0.0199
-11 -5 5 -0.9399 0.0273
-11 -5 6 0.6215 0.0366
-11 -5 7 2.2864 -0.0239
-11 -5 8 0.2049 -0.0299
-11 -5 9 -0.6051 0.0099
-11 -5 10 -2.5267 -0.0235
-11 -5 11 -2.7309 0.0046
-11 -5 12 1.6639 0.0370
-11 -5 13 2.7871 -0.0068
-11 -5 14 -0.6557 0.0046
-11 -4 1 -1.7214 -0.1126
-11 -4 2 -3.4731 0.0440
-11 -4 3 -1.8676 0.0669
-11 -4 4 -1.2832 -0.0164
-11 -4 5 0.7509 0.0299
-11 -4 6 2.0716 -0.0283
-11 -4 7 -0.7596 -0.0574
-11 -4 8 -1.3328 0.0028
-11 -4 9 1.0619 0.0090
-11 -4 10 0.8828 0.0136
-11 -4 11 0.8451 0.0335
-11 -4 12 0.8819 0.0012
-11 -4 13 0.0615 0.0146
-11 -4 14 -0.9791 -0.0550
-11 -4 15 0.0114 -0.0534
-11 -3 1 -2.5663 0.0473
-11 -3 2 2.1022 0.0734
-11 -3 3 0.5139 -0.0488
-11 -3 4 1.8759 -0.0179
-11 -3 5 1.7834 -0.0068
-11 -3 6 1.0923 -0.0680
-11 -3 7 -0.3665 0.0411
-11 -3 8 -1.4732 0.0248
-11 -3 9 -0.5518 0.0258
-11 -3 10 -1.0869 0.0477
-11 -3 11 -0.4765 -0.0410
-11 -3 12 0.2336 -0.0163
-11 -3 13 0.1926 -0.0428
-11 -3 14 -0.4786 -0.0886
-11 -3 15 0.2433 0.1384
-11 -2 1 1.6030 0.0741
-11 -2 2 -1.0531 -0.0610
-11 -2 3 -1.1888 -0.0365
-11 -2 4 0.3626 0.0243
-11 -2 5 -1.7038 -0.0258
-11 -2 6 0.0559 0.0417
-11 -2 7 -2.4018 0.0472
-11 -2 8 -1.0239 -0.0227
-11 -2 9 2.7126 0.0454
-11 -2 10 1.4654 -0.0504
-11 -2 11 0.8260 -0.0289
-11 -2 12 -0.5217 0.0142
-11 -2 13 0.2139 -0.0811
-11 -2 14 0.0689 0.0934
-11 -2 15 -0.1989 0.1487
-11 -1 1 -2.2133 -0.0982
-11 -1 2 0.2084 -0.0406
-11 -1 3 0.9181 0.0580
-11 -1 4 -0.6172 -0.0160
-11 -1 5 0.3927 0.0106
-11 -1 6 3.1016 0.0384
-11 -1 7 -0.4291 -0.0146
-11 -1 8 0.7790 -0.0018
-11 -1 9 -0.4271 -0.0456
-11 -1 10 -1.7929 -0.0490
-11 -1 11 -0.8701 0.0322
-11 -1 12 -0.4147 -0.0521
-11 -1 13 0.7867 0.0519
-11 -1 14 -0.9009 0.1128
-11 -1 15 0.3223 -0.0671
-11 0 1 4.5563 -0.0228
-11 0 2 -0.2420 0.0738
-11 0 3 -1.3463 -0.0017
-11 0 4 -0.8324 -0.0200
-11 0 5 1.4228 0.0163
-11 0 6 -0.1304 -0.0144
-11 0 7 -3.1656 -0.0006
-11 0 8 -0.2734 -0.0398
-11 0 9 0.7663 -0.0096
-11 0 10 1.7608 0.0490
-11 0 11 0.4717 0.0090
-11 0 12 0.4129 0.0415
-11 0 13 0.1337 0.0273
-11 0 14 -0.2864 -0.0777
-11 0 15 0.7990 0.0308
-11 1 1 -2.9957 0.0698
-11 1 2 -3.6442 -0.0055
-11 1 3 1.3577 -0.0275
-11 1 4 1.1450 0.0050
-11 1 5 1.9691 0.0030
-11 1 6 0.2514 0.0238
-11 1 7 -0.8121 -0.0134
-11 1 8 -0.1539 -0.0144
-11 1 9 0.7413 0.0395
-11 1 10 0.0968 -0.0194
-11 1 11 -1.4857 0.0120
-11 1 12 -0.0220 0.0012
-11 1 13 -0.4468 -0.0435
-11 1 14 -0.2495 0.0725
-11 1 15 -0.1373 0.0010
-11 2 1 -0.6647 -0.0641
-11 2 2 3.7279 -0.0474
-11 2 3 0.6573 0.0311
-11 2 4 -0.8120 0.0106
-11 2 5 -0.7923 0.0204
-11 2 6 -2.6001 -0.0149
-11 2 7 -1.4298 -0.0135
-11 2 8 2.3160 0.0242
-11 2 9 2.6045 -0.0161
-11 2 10 -1.6010 -0.0107
-11 2 11 -1.3382 0.0210
-11 2 12 0.9003 -0.0191
-11 2 13 -0.0582 0.0117
-11 2 14 0.0617 -0.0547
-11 2 15 0.9630 -0.0735
-11 3 1 0.1345 -0.0672
-11 3 2 -1.8346 0.0898
-11 3 3 -1.4822 -0.0039
-11 3 4 0.6141 -0.0026
-11 3 5 -0.0610 -0.0120
-11 3 6 1.9669 -0.0364
-11 3 7 2.5543 0.0071
-11 3 8 -0.8636 -0.0299
-11 3 9 -2.9684 -0.0026
-11 3 10 -0.7078 0.0013
-11 3 11 1.2903 -0.0042
-11 3 12 0.6072 0.0343
-11 3 13 -0.1978 0.0113
-11 3 14 0.9025 -0.0039
-11 3 15 0.4458 0.0777
-11 4 1 0.8309 0.1486
-11 4 2 0.3122 0.0028
-11 4 3 1.2209 -0.0492
-11 4 4 0.2702 0.0226
-11 4 5 -0.5620 -0.0469
-11 4 6 0.5833 0.0350
-11 4 7 -2.7657 0.0173
-11 4 8 -1.8725 0.0049
-11 4 9 3.2030 0.0352
-11 4 10 1.0712 -0.0047
-11 4 11 -1.8928 0.0601
-11 4 12 0.5420 0.0031
-11 4 13 0.6752 -0.0548
-11 4 14 -0.0926 -0.0485
-11 4 15 -1.4588 -0.0411
-11 5 1 -1.8005 0.0862
-11 5 2 -0.8656 -0.1413
-11 5 3 0.7851 0.0096
-11 5 4 -1.0258 -0.0160
-11 5 5 -1.1169 0.0203
-11 5 6 1.1987 0.0461
-11 5 7 -0.9034 -0.0508
-11 5 8 1.5110 0.0193
-11 5 9 0.8504 -0.0102
-11 5 10 -1.9906 0.0047
-11 5 11 1.0408 -0.0265
-11 5 12 1.3700 -0.0871
-11 5 13 -0.9352 0.0317
-11 5 14 -0.3676 -0.0032
-11 5 15 -0.8720 0.0567
-11 6 1 1.1058 -0.1927
-11 6 2 0.6064 -0.0440
-11 6 3 0.4390 0.0798
-11 6 4 -0.8544 -0.0051
-11 6 5 0.7442 0.0508
-11 6 6 0.3666 -0.0350
-11 6 7 -1.0943 -0.0055
-11 6 8 1.6990 0.0004
-11 6 9 -0.4466 -0.0220
-11 6 10 -0.1835 0.0262
-11 6 11 -0.1229 -0.0710
-11 6 12 -1.1738 0.0696
-11 6 13 0.1030 0.0887
-11 6 14 -0.1432 -0.0824
-11 7 1 -1.0273 -0.0230
-11 7 2 -0.4608 0.1354
-11 7 3 0.9170 -0.0143
-11 7 4 -1.2724 0.0101
-11 7 5 -2.0340 0.0068
-11 7 6 0.6323 -0.0440
-11 7 7 2.5739 0.0124
-11 7 8 -0.0092 -0.0352
-11 7 9 -1.9487 0.0472
-11 7 10 0.5314 -0.0035
-11 7 11 -0.4781 -0.0121
-11 7 12 0.5230 0.1202
-11 7 13 0.7014 -0.0920
-11 7 14 -0.2588 -0.0910
-11 8 1 0.4947 0.1703
-11 8 2 0.3424 -0.0015
-11 8 3 0.5564 -0.0406
-11 8 4 -1.3846 0.0053
-11 8 5 1.3996 -0.0691
-11 8 6 3.6048 0.0254
-11 8 7 -1.5265 0.0059
-11 8 8 -2.7256 -0.0167
-11 8 9 0.0742 0.0621
-11 8 10 0.4234 -0.0168
-11 8 11 -0.0125 0.0031
-11 8 12 1.1920 -0.0297
-11 8 13 -0.5629 -0.0920
-11 8 14 -0.6819 0.0586
-11 9 1 0.9427 -0.0001
-11 9 2 -0.0699 -0.1182
-11 9 3 -0.1465 -0.0116
-11 9 4 -1.6364 -0.0168
-11 9 5 0.2885 0.0344
-11 9 6 -1.2404 0.0599
-11 9 7 -0.8412 -0.0430
-11 9 8 1.5464 0.0081
-11 9 9 -0.3301 0.0165
-11 9 10 0.8499 -0.0369
-11 9 11 0.9095 -0.0343
-11 9 12 -0.8183 0.0193
-11 9 13 -1.3494 0.0386
-11 10 1 -0.3347 -0.0966
-11 10 2 -1.7973 0.0287
-11 10 3 0.1894 0.0398
-11 10 4 1.3718 -0.0014
-11 10 5 0.8670 0.0164
-11 10 6 0.5971 -0.0217
-11 10 7 1.4319 -0.0286
-11 10 8 -1.4698 0.0069
-11 10 9 -0.4401 0.0549
-11 10 10 1.2454 -0.0035
-11 10 11 -1.6371 -0.0468
-11 10 12 -0.1617 0.0883
-11 11 1 -0.2925 0.0768
-11 11 2 0.1555 0.0425
-11 11 3 2.7230 -0.0468
-11 11 4 -0.4194 0.0348
-11 11 5 -2.1585 0.0077
-11 11 6 0.1035 0.0094
-11 11 7 -0.1611 -0.0079
-11 11 8 -0.2434 0.0173
-11 11 9 0.5401 0.0305
-11 11 10 -1.6253 -0.1297
-11 11 11 0.3941 0.0169
-11 12 1 0.3555 0.0588
-11 12 2 0.8607 -0.0967
-11 12 3 0.4868 -0.0170
-11 12 4 -1.5894 -0.0069
-11 12 5 -0.6650 -0.0494
-11 12 6 1.3446 0.0323
-11 12 7 0.0313 -0.0517
-11 12 8 0.0998 0.0336
-11 12 9 -1.0956 -0.0008
-11 12 10 0.1557 -0.0670
-11 13 1 1.2976 -0.0304
-11 13 2 -1.5071 -0.0926
-11 13 3 0.9263 0.0503
-11 13 4 -1.0612 0.0293
-11 13 5 0.3381 0.0733
-11 13 6 1.0446 0.0199
-11 13 7 -0.8575 -0.0358
-11 13 8 0.4954 0.0807
-11 13 9 -0.2702 -0.0837
-11 14 1 -1.7232 -0.0206
-11 14 2 0.7967 -0.0069
-11 14 3 1.1161 0.0992
-11 14 4 -1.0867 -0.0225
-11 14 5 0.5567 0.0149
-11 14 6 -1.1859 -0.0449
-11 14 7 0.0526 -0.0340
-11 14 8 1.7288 -0.0299
-11 15 1 -1.0807 0.0364
-11 15 2 0.4889 0.0647
-11 15 3 0.0952 -0.0148
-11 15 4 -0.3859 -0.0426
-11 15 5 -0.9367 0.0464
-10 -21 1 1.7242 -0.0324
-10 -21 2 1.0464 -0.0378
-10 -20 1 0.1382 -0.0265
-10 -20 2 -2.0790 -0.0180
-10 -20 3 -0.3288 0.0962
-10 -20 4 -1.6599 -0.0101
-10 -19 1 0.3254 0.0570
-10 -19 2 -0.1408 -0.0068
-10 -19 3 0.8717 -0.0042
-10 -19 4 -0.1838 -0.0105
-10 -19 5 1.1109 -0.0236
-10 -19 6 -1.6547 -0.0218
-10 -18 1 -1.0752 -0.0993
-10 -18 2 -1.7876 -0.0953
-10 -18 3 0.8227 0.0788
-10 -18 4 -0.4745 0.0431
-10 -18 5 0.6561 -0.0531
-10 -18 6 0.4296 -0.0656
-10 -18 7 -0.3371 0.0125
-10 -17 1 -2.3993 -0.0675
-10 -17 2 0.8251 0.0942
-10 -17 3 0.4824 0.0144
-10 -17 4 -1.3778 -0.0168
-10 -17 5 2.6563 0.0004
-10 -17 6 -1.4611 -0.0403
-10 -17 7 -1.3720 0.0785
-10 -17 8 2.1308 0.0396
-10 -16 1 -3.5305 0.1708
-10 -16 2 -0.0381 0.0100
-10 -16 3 0.2436 -0.0304
-10 -16 4 1.9864 0.0180
-10 -16 5 0.0786 -0.0772
-10 -16 6 -3.6399 -0.0002
-10 -16 7 2.2601 0.0674
-10 -16 8 0.7562 -0.0180
-10 -16 9 -1.5834 0.0206
-10 -15 1 -0.2157 0.0802
-10 -15 2 4.6127 -0.1405
-10 -15 3 0.5426 -0.0107
-10 -15 4 -2.2969 -0.0386
-10 -15 5 -1.0299 0.0466
-10 -15 6 2.0282 0.0525
-10 -15 7 0.9997 -0.0501
-10 -15 8 -1.6492 -0.0007
-10 -15 9 0.3634 -0.0051
-10 -15 10 -0.5188 -0.0084
-10 -14 1 1.1523 -0.1669
-10 -14 2 -1.8546 -0.0283
-10 -14 3 -2.6441 0.0424
-10 -14 4 1.0792 0.0121
-10 -14 5 2.9975 0.0672
-10 -14 6 -1.1410 -0.0438
-10 -14 7 -1.5702 -0.0035
-10 -14 8 1.3523 0.0231
-10 -14 9 -0.6708 0.0079
-10 -14 10 -0.3614 -0.0210
-10 -14 11 1.3673 -0.0619
-10 -13 1 -0.8394 -0.0460
-10 -13 2 2.3883 0.1131
-10 -13 3 2.7075 0.0037
-10 -13 4 -0.9250 0.0100
-10 -13 5 -0.4810 -0.0116
-10 -13 6 -1.4923 -0.0676
-10 -13 7 0.1193 -0.0107
-10 -13 8 -0.6892 0.0091
-10 -13 9 -0.1869 0.0184
-10 -13 10 1.3537 -0.0011
-10 -13 11 -0.8089 0.0440
-10 -13 12 0.6501 -0.0318
-10 -12 1 1.8746 0.1725
-10 -12 2 0.0768 0.0204
-10 -12 3 -3.9189 -0.0702
-10 -12 4 -1.1064 -0.0088
-10 -12 5 2.7672 -0.0356
-10 -12 6 -1.9418 0.0331
-10 -12 7 0.1886 0.0584
-10 -12 8 1.8769 0.0007
-10 -12 9 0.8176 0.0099
-10 -12 10 -1.6006 -0.0001
-10 -12 11 0.8585 -0.0634
-10 -12 12 1.1108 -0.0120
-10 -12 13 -2.6927 0.0867
-10 -11 1 -2.9241 -0.0065
-10 -11 2 -1.3985 -0.1234
-10 -11 3 0.2451 0.0158
-10 -11 4 2.6669 -0.0091
-10 -11 5 0.0616 0.0057
-10 -11 6 -1.7658 0.0713
-10 -11 7 1.8072 -0.0386
-10 -11 8 -0.9106 -0.0129
-10 -11 9 -0.8254 0.0146
-10 -11 10 0.6826 -0.0430
-10 -11 11 0.9249 -0.0045
-10 -11 12 -1.8836 0.0137
-10 -11 13 0.2263 -0.0219
-10 -10 1 0.3237 -0.1551
-10 -10 2 2.3675 0.0264
-10 -10 3 1.2710 0.0441
-10 -10 4 0.1916 -0.0187
-10 -10 5 -0.7440 0.0743
-10 -10 6 -0.9235 -0.0081
-10 -10 7 -0.8161 -0.0545
-10 -10 8 0.9705 0.0045
-10 -10 9 2.3702 -0.0388
-10 -10 10 -1.3393 0.0254
-10 -10 11 -0.7327 -0.0035
-10 -10 12 0.0094 0.0059
-10 -10 13 0.4790 0.0962
-10 -10 14 -0.9983 -0.0318
-10 -9 1 0.2652 0.0321
-10 -9 2 0.6035 0.1022
-10 -9 3 -1.2218 -0.0281
-10 -9 4 -1.5632 0.0240
-10 -9 5 -0.1655 -0.0072
-10 -9 6 -0.3214 -0.0602
-10 -9 7 1.3986 0.0093
-10 -9 8 2.1755 -0.0062
-10 -9 9 -2.7598 0.0290
-10 -9 10 -2.2184 0.0239
-10 -9 11 1.3396 -0.0407
-10 -9 12 -0.3254 0.0781
-10 -9 13 0.7355 -0.0486
-10 -9 14 -0.0097 -0.0703
-10 -9 15 0.5169 0.0679
-10 -8 1 1.5781 0.0929
-10 -8 2 -0.4377 -0.0612
-10 -8 3 -1.4670 -0.0206
-10 -8 4 -0.4338 0.0243
-10 -8 5 0.9430 -0.0473
-10 -8 6 -1.3110 0.0188
-10 -8 7 0.1061 0.0124
-10 -8 8 0.0537 0.0006
-10 -8 9 -0.7662 0.0289
-10 -8 10 2.8556 -0.0143
-10 -8 11 0.1787 0.0229
-10 -8 12 -1.0337 0.0110
-10 -8 13 0.9933 -0.0679
-10 -8 14 -0.7507 0.0435
-10 -8 15 0.6907 -0.0417
-10 -7 1 -3.8631 -0.0938
-10 -7 2 -0.6091 -0.0442
-10 -7 3 0.5541 0.0508
-10 -7 4 0.1760 -0.0048
-10 -7 5 0.7451 0.0022
-10 -7 6 0.5952 0.0304
-10 -7 7 3.6836 -0.0195
-10 -7 8 0.2323 -0.0007
-10 -7 9 -2.1424 -0.0016
-10 -7 10 -1.0172 -0.0045
-10 -7 11 -2.5073 -0.0163
-10 -7 12 1.6602 -0.0249
-10 -7 13 2.0083 -0.0168
-10 -7 14 -1.5483 -0.0071
-10 -7 15 -0.3037 0.0122
-10 -7 16 -0.1564 0.1048
-10 -6 1 4.2120 -0.0223
-10 -6 2 4.3785 0.0810
-10 -6 3 -1.7479 0.0375
-10 -6 4 -1.8175 -0.0165
-10 -6 5 1.2191 -0.0107
-10 -6 6 0.4417 -0.0163
-10 -6 7 -1.5102 -0.0183
-10 -6 8 -4.6675 -0.0036
-10 -6 9 0.4016 0.0177
-10 -6 10 3.6487 0.0138
-10 -6 11 0.8019 -0.0167
-10 -6 12 0.9534 0.0087
-10 -6 13 -1.9115 -0.0067
-10 -6 14 -1.4917 0.0332
-10 -6 15 1.9500 0.0544
-10 -6 16 -0.7031 0.0245
-10 -5 1 -2.1677 0.1173
-10 -5 2 -2.8060 0.0067
-10 -5 3 -3.8614 -0.0621
-10 -5 4 1.4929 -0.0301
-10 -5 5 1.6424 0.0028
-10 -5 6 -1.0376 0.0047
-10 -5 7 -0.1184 -0.0089
-10 -5 8 1.2493 0.0141
-10 -5 9 3.2169 0.0443
-10 -5 10 -1.0560 -0.0125
-10 -5 11 -4.0063 -0.0275
-10 -5 12 -0.2488 0.0128
-10 -5 13 1.0339 -0.0107
-10 -5 14 1.2872 0.0242
-10 -5 15 -0.7307 0.0148
-10 -5 16 -1.1060 -0.0480
-10 -4 1 1.5278 -0.0740
-10 -4 2 -0.3967 -0.0781
-10 -4 3 -0.3113 -0.0058
-10 -4 4 1.0136 0.0259
-10 -4 5 -0.5566 0.0142
-10 -4 6 0.7389 0.0060
-10 -4 7 0.6134 -0.0007
-10 -4 8 -0.9580 0.0234
-10 -4 9 -0.8578 0.0068
-10 -4 10 -0.8666 -0.0398
-10 -4 11 0.5525 -0.0047
-10 -4 12 2.2001 0.0009
-10 -4 13 1.1536 -0.0076
-10 -4 14 -0.6836 0.0322
-10 -4 15 -0.2238 -0.0283
-10 -4 16 1.3242 -0.0293
-10 -4 17 -0.8093 0.0349
-10 -3 1 -2.8085 -0.0862
-10 -3 2 -1.0078 0.0563
-10 -3 3 1.3613 0.0264
-10 -3 4 0.3066 0.0123
-10 -3 5 1.1254 -0.0059
-10 -3 6 0.3147 -0.0240
-10 -3 7 -0.2427 0.0030
-10 -3 8 -0.3575 0.0211
-10 -3 9 -0.2839 -0.0158
-10 -3 10 0.6662 -0.0085
-10 -3 11 -0.5810 -0.0033
-10 -3 12 0.6326 -0.0050
-10 -3 13 0.1830 0.0094
-10 -3 14 -2.0652 -0.0061
-10 -3 15 -0.5421 0.0240
-10 -3 16 -1.2471 0.0489
-10 -3 17 -0.3571 -0.0809
-10 -2 1 1.8935 0.1412
-10 -2 2 2.6940 0.0609
-10 -2 3 -0.6942 -0.0415
-10 -2 4 -0.9094 -0.0134
-10 -2 5 -0.0168 -0.0306
-10 -2 6 -0.1239 0.0311
-10 -2 7 0.2005 0.0549
-10 -2 8 -2.5941 -0.0291
-10 -2 9 0.2144 -0.0107
-10 -2 10 2.4237 -0.0022
-10 -2 11 -0.2825 -0.0275
-10 -2 12 0.3246 0.0285
-10 -2 13 -1.3104 -0.0086
-10 -2 14 -0.3521 0.0390
-10 -2 15 1.6447 0.0624
-10 -2 16 0.0550 -0.1087
-10 -2 17 1.7916 -0.0616
-10 -1 1 2.1926 0.0717
-10 -1 2 -1.9534 -0.1288
-10 -1 3 -0.3709 -0.0252
-10 -1 4 -0.3606 0.0066
-10 -1 5 0.2257 0.0190
-10 -1 6 0.7566 0.0708
-10 -1 7 0.5030 -0.0386
-10 -1 8 0.3860 -0.0472
-10 -1 9 1.9502 0.0081
-10 -1 10 -0.9159 -0.0467
-10 -1 11 -2.9346 0.0301
-10 -1 12 -0.0490 0.0290
-10 -1 13 0.4570 -0.0118
-10 -1 14 0.9634 0.0753
-10 -1 15 0.0946 -0.0721
-10 -1 16 -0.7816 -0.0968
-10 -1 17 0.3174 0.0600
-10 0 1 -1.0214 -0.1948
-10 0 2 0.6934 -0.0266
-10 0 3 0.3774 0.0681
-10 0 4 -0.8862 0.0057
-10 0 5 1.7086 0.0604
-10 0 6 0.3527 -0.0271
-10 0 7 -0.4068 -0.0741
-10 0 8 -3.2597 0.0064
-10 0 9 -1.2927 -0.0134
-10 0 10 1.1058 0.0274
-10 0 11 1.0838 0.0604
-10 0 12 2.0880 -0.0030
-10 0 13 -0.0067 0.0250
-10 0 14 0.2361 -0.0496
-10 0 15 0.0347 -0.0792
-10 0 16 -1.1045 0.0366
-10 0 17 0.3811 0.0338
-10 1 1 3.1657 -0.0505
-10 1 2 -1.9184 0.1703
-10 1 3 -1.8642 0.0093
-10 1 4 0.8667 0.0211
-10 1 5 0.3848 -0.0252
-10 1 6 -0.7637 -0.0855
-10 1 7 0.5488 0.0342
-10 1 8 -0.5590 0.0127
-10 1 9 3.5891 0.0186
-10 1 10 0.0047 0.0402
-10 1 11 -2.0825 -0.0071
-10 1 12 0.0650 0.0049
-10 1 13 -0.5551 -0.0670
-10 1 14 0.5698 -0.0297
-10 1 15 -1.5158 0.0728
-10 1 16 -0.7320 -0.0338
-10 1 17 0.6071 0.0546
-10 2 1 -4.6206 0.2204
-10 2 2 -1.6346 0.0123
-10 2 3 2.9474 -0.0857
-10 2 4 1.6200 -0.0011
-10 2 5 -0.8071 -0.0749
-10 2 6 0.0981 0.0363
-10 2 7 -1.6468 0.0508
-10 2 8 -1.7180 -0.0123
-10 2 9 1.9485 0.0358
-10 2 10 -1.3950 -0.0303
-10 2 11 0.9078 -0.0093
-10 2 12 1.1527 -0.0131
-10 2 13 -0.3669 -0.0344
-10 2 14 -1.1712 0.0460
-10 2 15 -0.9414 -0.0486
-10 2 16 1.9004 0.0166
-10 2 17 0.3480 0.1117
-10 3 1 -0.4673 0.0044
-10 3 2 -0.0444 -0.1438
-10 3 3 0.9410 0.0170
-10 3 4 -1.5740 -0.0099
-10 3 5 -1.5215 -0.0012
-10 3 6 0.3040 0.0726
-10 3 7 0.8406 -0.0260
-10 3 8 2.9551 -0.0154
-10 3 9 0.7303 -0.0145
-10 3 10 -3.4500 -0.0388
-10 3 11 -0.0690 0.0214
-10 3 12 0.2906 0.0042
-10 3 13 0.0817 -0.0046
-10 3 14 0.2326 -0.0142
-10 3 15 2.0727 0.0513
-10 3 16 -0.0919 0.0675
-10 3 17 -2.3565 -0.0971
-10 4 1 -4.0585 -0.1653
-10 4 2 1.6982 0.0228
-10 4 3 2.2464 0.0432
-10 4 4 -1.6280 -0.0047
-10 4 5 0.4862 0.0507
-10 4 6 1.1243 -0.0127
-10 4 7 -1.0456 -0.0393
-10 4 8 -1.8478 0.0152
-10 4 9 -0.7866 0.0007
-10 4 10 0.8206 0.0147
-10 4 11 2.4046 0.0270
-10 4 12 0.4468 0.0170
-10 4 13 -0.2130 -0.0204
-10 4 14 -1.2100 0.0117
-10 4 15 -1.6077 0.0206
-10 4 16 -1.4861 -0.0885
-10 4 17 1.3397 0.0476
-10 5 1 0.2409 0.0600
-10 5 2 0.8892 0.1069
-10 5 3 -1.9728 -0.0331
-10 5 4 -1.0370 0.0104
-10 5 5 0.8243 -0.0103
-10 5 6 -1.0566 -0.0395
-10 5 7 -0.1464 0.0135
-10 5 8 2.6707 0.0106
-10 5 9 1.4292 0.0120
-10 5 10 -2.4057 -0.0037
-10 5 11 -0.6396 -0.0206
-10 5 12 0.1372 0.0026
-10 5 13 -0.2626 -0.0448
-10 5 14 -1.5457 -0.0073
-10 5 15 1.4372 0.0025
-10 5 16 2.6374 0.0469
-10 5 17 0.1387 0.0549
-10 6 1 -3.2266 0.0934
-10 6 2 0.5154 -0.0739
-10 6 3 0.4283 -0.0427
-10 6 4 -0.0924 0.0276
-10 6 5 -0.5777 -0.0297
-10 6 6 0.7250 0.0097
-10 6 7 2.5180 0.0239
-10 6 8 -0.0015 -0.0059
-10 6 9 -2.8143 -0.0050
-10 6 10 -0.4072 -0.0325
-10 6 11 2.1997 0.0111
-10 6 12 -0.5286 0.0295
-10 6 13 -0.6052 -0.0274
-10 6 14 -0.2707 0.0439
-10 6 15 2.3271 0.0470
-10 6 16 -0.5287 -0.0156
-10 6 17 -1.9192 -0.0908
-10 7 1 1.6635 -0.0902
-10 7 2 1.6454 -0.0448
-10 7 3 -0.3731 0.0324
-10 7 4 0.1938 -0.0031
-10 7 5 0.9553 0.0022
-10 7 6 1.1828 0.0310
-10 7 7 0.0420 -0.0066
-10 7 8 -3.2263 -0.0159
-10 7 9 -0.8231 0.0147
-10 7 10 1.4256 -0.0001
-10 7 11 -0.2259 0.0110
-10 7 12 -0.0200 0.0204
-10 7 13 1.3701 -0.0284
-10 7 14 -0.4112 0.0030
-10 7 15 0.1455 -0.0043
-10 7 16 -1.9997 -0.0558
-10 7 17 -0.1205 0.0008
-10 8 1 0.3704 -0.0254
-10 8 2 -0.7960 0.0786
-10 8 3 -0.8956 0.0057
-10 8 4 0.2464 0.0145
-10 8 5 -0.3354 -0.0009
-10 8 6 1.1277 -0.0146
-10 8 7 -0.7809 -0.0143
-10 8 8 -2.2584 -0.0165
-10 8 9 2.4756 0.0155
-10 8 10 0.7924 -0.0176
-10 8 11 -0.5802 0.0135
-10 8 12 0.5273 0.0093
-10 8 13 -0.7505 -0.0724
-10 8 14 -1.4160 0.0590
-10 8 15 1.3378 0.0281
-10 8 16 0.6979 -0.0787
-10 9 1 2.1120 0.0750
-10 9 2 0.8771 -0.0166
-10 9 3 1.9198 -0.0580
-10 9 4 0.8862 -0.0038
-10 9 5 -0.5399 -0.0177
-10 9 6 -1.1168 0.0216
-10 9 7 -3.0529 -0.0049
-10 9 8 0.6609 0.0158
-10 9 9 2.6280 0.0420
-10 9 10 -1.2066 -0.0331
-10 9 11 0.7160 0.0090
-10 9 12 0.5182 -0.0046
-10 9 13 -0.7094 -0.0058
-10 9 14 0.4176 0.0607
-10 9 15 0.5772 -0.0837
-10 9 16 -1.9108 -0.0008
-10 10 1 0.6525 -0.0424
-10 10 2 -1.9384 -0.0546
-10 10 3 -1.2786 0.0200
-10 10 4 -1.9426 0.0395
-10 10 5 -1.4692 0.0133
-10 10 6 0.4981 0.0010
-10 10 7 3.3177 -0.0087
-10 10 8 2.4557 0.0134
-10 10 9 -0.7447 -0.0254
-10 10 10 -0.9596 -0.0447
-10 10 11 -0.3132 0.0286
-10 10 12 -2.1097 0.0115
-10 10 13 -0.0715 -0.0152
-10 10 14 0.8403 0.0055
-10 10 15 0.1886 0.0130
-10 11 1 -0.5916 -0.0642
-10 11 2 0.3917 0.0755
-10 11 3 2.2513 0.0331
-10 11 4 0.7145 0.0179
-10 11 5 -0.0891 -0.0104
-10 11 6 1.5328 -0.0207
-10 11 7 -0.0566 0.0084
-10 11 8 -2.9539 -0.0049
-10 11 9 -0.6905 -0.0108
-10 11 10 -1.0574 -0.0092
-10 11 11 0.0088 0.0662
-10 11 12 2.3513 0.0247
-10 11 13 1.6987 -0.0681
-10 11 14 -0.9489 0.0071
-10 11 15 -0.7585 0.0032
-10 12 1 -0.6093 0.1902
-10 12 2 1.0291 0.0222
-10 12 3 -0.6969 -0.0686
-10 12 4 -2.1335 -0.0040
-10 12 5 -0.6673 -0.0614
-10 12 6 0.6344 -0.0067
-10 12 7 -0.1720 0.0132
-10 12 8 0.1427 -0.0193
-10 12 9 0.1736 0.0028
-10 12 10 -0.0150 0.0080
-10 12 11 3.0314 0.0482
-10 12 12 -0.8527 -0.0895
-10 12 13 -3.0473 -0.0529
-10 12 14 -0.0437 0.1066
-10 13 1 0.8264 0.0250
-10 13 2 -0.2541 -0.1717
-10 13 3 -1.2316 0.0055
-10 13 4 0.3781 0.0230
-10 13 5 0.1393 0.0230
-10 13 6 0.9623 0.0502
-10 13 7 0.8059 -0.0087
-10 13 8 -0.6706 0.0305
-10 13 9 0.0584 0.0190
-10 13 10 0.8482 -0.0029
-10 13 11 -0.3881 0.0233
-10 13 12 -1.9130 -0.0472
-10 13 13 1.3139 0.0489
-10 14 1 -0.8563 -0.1630
-10 14 2 -0.4947 -0.0126
-10 14 3 1.5000 0.0643
-10 14 4 0.4129 0.0269
-10 14 5 -0.1678 0.0285
-10 14 6 0.4921 -0.0633
-10 14 7 -0.6953 0.0021
-10 14 8 -0.3765 -0.0002
-10 14 9 0.6685 -0.0528
-10 14 10 -1.3248 0.0168
-10 14 11 -0.4257 -0.0282
-10 14 12 0.4063 -0.0570
-10 15 1 -1.3317 -0.0157
-10 15 2 1.0891 0.1135
-10 15 3 -0.1423 -0.0088
-10 15 4 -1.0749 0.0505
-10 15 5 -1.1651 -0.0297
-10 15 6 0.2268 -0.0551
-10 15 7 1.4460 0.0300
-10 15 8 0.3325 -0.0255
-10 15 9 -1.3213 0.0665
-10 15 10 -1.4684 0.0158
-10 15 11 1.9503 -0.0560
-10 16 1 0.1026 0.1716
-10 16 2 2.0553 -0.0414
-10 16 3 -0.2597 -0.0961
-10 16 4 -0.9546 0.0356
-10 16 5 0.3986 -0.0885
-10 16 6 1.9413 -0.0119
-10 16 7 -0.5612 0.0493
-10 16 8 -1.4778 0.0297
-10 16 9 0.0742 0.0257
-10 17 1 0.8252 0.0055
-10 17 2 -0.2553 -0.1807
-10 17 3 -1.5526 0.0318
-10 17 4 0.8347 0.1037
-10 17 5 1.3014 -0.0042
-10 17 6 -0.5818 0.0825
-9 -23 1 0.9880 -0.1706
-9 -22 1 0.6022 0.0859
-9 -22 2 -0.8056 0.1617
-9 -22 3 -0.0010 0.0431
-9 -21 1 -0.9813 0.0726
-9 -21 2 1.3286 -0.0787
-9 -21 3 0.3528 0.0628
-9 -21 4 -0.4051 0.0135
-9 -21 5 2.4341 -0.0551
-9 -20 1 -0.8454 -0.1399
-9 -20 2 -0.4364 -0.0121
-9 -20 3 -2.3847 0.0543
-9 -20 4 -0.0237 -0.0844
-9 -20 5 -0.0677 -0.0247
-9 -20 6 -1.2490 0.0203
-9 -20 7 2.3280 0.0830
-9 -19 1 -2.2329 -0.1101
-9 -19 2 0.7177 0.1064
-9 -19 3 -0.0826 0.0218
-9 -19 4 1.4783 0.0141
-9 -19 5 0.6702 -0.0206
-9 -19 6 -0.5492 -0.0826
-9 -19 7 0.3937 0.1126
-9 -19 8 -0.3566 0.0616
-9 -18 1 -0.5436 0.1435
-9 -18 2 -0.1893 0.0117
-9 -18 3 -2.4103 -0.0588
-9 -18 4 2.0015 0.0354
-9 -18 5 0.1809 -0.0757
-9 -18 6 -0.9202 -0.0050
-9 -18 7 1.4440 0.1070
-9 -18 8 -0.7348 -0.0782
-9 -18 9 -1.2786 -0.0328
-9 -17 1 -1.1456 0.0317
-9 -17 2 -0.0123 -0.1412
-9 -17 3 0.9324 0.0316
-9 -17 4 2.8434 -0.0079
-9 -17 5 -1.4479 -0.0392
-9 -17 6 -1.1010 0.0621
-9 -17 7 0.2762 0.0490
-9 -17 8 -0.2141 0.0173
-9 -17 9 0.6286 -0.0300
-9 -17 10 -0.4757 -0.0994
-9 -16 1 0.8812 -0.1740
-9 -16 2 -0.0404 0.0004
-9 -16 3 -1.6107 0.0586
-9 -16 4 1.2119 0.0127
-9 -16 5 -1.3864 0.0657
-9 -16 6 -1.2263 -0.0322
-9 -16 7 1.8113 -0.0153
-9 -16 8 -0.0292 -0.0522
-9 -16 9 -1.4413 -0.0376
-9 -16 10 -0.0018 0.0760
-9 -16 11 1.8960 0.0036
-9 -15 1 2.5660 0.0412
-9 -15 2 -1.4783 0.1084
-9 -15 3 1.0196 -0.0353
-9 -15 4 2.4860 0.0181
-9 -15 5 -2.9366 -0.0202
-9 -15 6 1.8426 -0.0513
-9 -15 7 2.2937 0.0066
-9 -15 8 -2.5142 -0.0060
-9 -15 9 0.7393 0.0782
-9 -15 10 0.4571 -0.0466
-9 -15 11 -0.5023 -0.0142
-9 -15 12 -0.4851 0.0924
-9 -14 1 1.7144 0.1015
-9 -14 2 -1.9483 -0.0498
-9 -14 3 0.9478 -0.0547
-9 -14 4 -0.7149 0.0391
-9 -14 5 -0.4690 -0.0116
-9 -14 6 1.8075 -0.0117
-9 -14 7 -3.2169 0.0068
-9 -14 8 -0.2244 0.0450
-9 -14 9 1.6004 0.0170
-9 -14 10 -2.3064 -0.0459
-9 -14 11 1.8985 0.0202
-9 -14 12 1.2694 -0.0724
-9 -14 13 -0.9128 0.0293
-9 -13 1 -1.1039 -0.0631
-9 -13 2 -1.7957 -0.0681
-9 -13 3 1.4740 0.0271
-9 -13 4 -0.1724 0.0300
-9 -13 5 -0.5082 -0.0281
-9 -13 6 -0.6083 0.0024
-9 -13 7 1.0548 -0.0026
-9 -13 8 1.5659 -0.0031
-9 -13 9 -2.4563 -0.0064
-9 -13 10 0.3863 -0.0228
-9 -13 11 2.8431 0.0028
-9 -13 12 -2.4616 0.0239
-9 -13 13 -1.1807 0.0215
-9 -13 14 0.8777 -0.0694
-9 -12 1 0.7843 -0.0268
-9 -12 2 1.3363 0.0631
-9 -12 3 0.1686 0.0352
-9 -12 4 -1.0049 -0.0368
-9 -12 5 0.2907 0.0059
-9 -12 6 1.3052 0.0275
-9 -12 7 -0.9814 -0.0154
-9 -12 8 -2.2591 0.0218
-9 -12 9 1.4118 -0.0003
-9 -12 10 1.8527 0.0040
-9 -12 11 -0.4505 0.0032
-9 -12 12 -0.8665 -0.0385
-9 -12 13 0.9021 0.0354
-9 -12 14 0.1491 0.0327
-9 -11 1 0.0025 0.0840
-9 -11 2 -3.8565 0.0212
-9 -11 3 -1.0084 -0.0454
-9 -11 4 1.3403 -0.0125
-9 -11 5 -0.5323 0.0312
-9 -11 6 -0.2071 -0.0188
-9 -11 7 -0.1766 -0.0139
-9 -11 8 2.4097 -0.0003
-9 -11 9 0.3075 0.0137
-9 -11 10 -1.9617 0.0118
-9 -11 11 0.6320 -0.0438
-9 -11 12 -1.6171 0.0260
-9 -11 13 -0.1329 0.0069
-9 -11 14 0.9765 -0.0332
-9 -11 15 -0.5714 0.0530
-9 -10 1 -1.5293 -0.0479
-9 -10 2 1.3423 -0.0543
-9 -10 3 5.3242 -0.0150
-9 -10 4 -0.4010 0.0185
-9 -10 5 -0.7441 0.0156
-9 -10 6 2.6049 -0.0029
-9 -10 7 -1.4568 -0.0046
-9 -10 8 -1.6487 0.0043
-9 -10 9 -1.4058 0.0011
-9 -10 10 1.6002 -0.0386
-9 -10 11 0.6393 0.0225
-9 -10 12 -0.3874 -0.0003
-9 -10 13 2.6670 -0.0210
-9 -10 14 -2.0141 0.0567
-9 -10 15 -1.4417 -0.0701
-9 -10 16 1.7103 -0.0176
-9 -9 1 2.0579 -0.1084
-9 -9 2 0.0522 0.0628
-9 -9 3 -1.2633 0.0392
-9 -9 4 -3.6519 0.0199
-9 -9 5 0.8566 -0.0115
-9 -9 6 -1.9756 -0.0331
-9 -9 7 -2.4070 0.0071
-9 -9 8 4.4622 0.0074
-9 -9 9 1.0744 -0.0099
-9 -9 10 -1.0842 0.0311
-9 -9 11 -1.3324 0.0088
-9 -9 12 0.0629 -0.0411
-9 -9 13 -1.2148 0.0374
-9 -9 14 -1.3324 -0.0272
-9 -9 15 3.1601 0.0368
-9 -9 16 0.2464 0.0908
-9 -8 1 -1.8970 0.1514
-9 -8 2 0.6772 0.0756
-9 -8 3 0.5355 -0.0337
-9 -8 4 -0.6684 -0.0075
-9 -8 5 0.5620 -0.0544
-9 -8 6 0.3190 0.0068
-9 -8 7 3.7764 0.0289
-9 -8 8 -0.5452 -0.0147
-9 -8 9 -5.4240 0.0168
-9 -8 10 1.4314 0.0047
-9 -8 11 2.1160 -0.0137
-9 -8 12 0.6216 0.0039
-9 -8 13 -0.0543 -0.0089
-9 -8 14 0.9369 0.0091
-9 -8 15 0.1083 0.0492
-9 -8 16 -1.6790 -0.1027
-9 -8 17 0.7664 -0.0099
-9 -7 1 0.3003 0.1089
-9 -7 2 -0.7768 -0.1253
-9 -7 3 -2.0937 -0.0142
-9 -7 4 -0.4585 -0.0368
-9 -7 5 1.2375 -0.0123
-9 -7 6 0.4373 0.0782
-9 -7 7 -0.9308 -0.0013
-9 -7 8 -1.6735 0.0047
-9 -7 9 2.5265 0.0045
-9 -7 10 2.3764 -0.0179
-9 -7 11 -2.7688 -0.0056
-9 -7 12 -1.0630 -0.0389
-9 -7 13 0.2374 0.0171
-9 -7 14 0.7429 0.0128
-9 -7 15 -0.7996 -0.0002
-9 -7 16 -0.7558 0.0048
-9 -7 17 1.2675 -0.0321
-9 -6 1 -1.0406 -0.2002
-9 -6 2 2.0892 -0.0608
-9 -6 3 0.9076 0.0567
-9 -6 4 0.4123 -0.0098
-9 -6 5 -0.7369 0.0823
-9 -6 6 0.3484 -0.0112
-9 -6 7 0.9955 -0.0516
-9 -6 8 -0.0413 0.0113
-9 -6 9 -1.3851 -0.0339
-9 -6 10 -0.9092 -0.0041
-9 -6 11 0.8811 -0.0017
-9 -6 12 1.7093 0.0087
-9 -6 13 -0.0904 0.0320
-9 -6 14 -1.2248 -0.0053
-9 -6 15 -1.2568 0.0605
-9 -6 16 1.4494 -0.0723
-9 -6 17 1.2558 -0.0526
-9 -6 18 -2.4775 0.1282
-9 -5 1 3.6629 -0.0853
-9 -5 2 -1.6937 0.1682
-9 -5 3 -2.8236 0.0092
-9 -5 4 -0.7881 0.0172
-9 -5 5 1.0950 0.0068
-9 -5 6 1.8084 -0.0803
-9 -5 7 -1.1443 0.0262
-9 -5 8 -1.0154 0.0051
-9 -5 9 1.0952 -0.0101
-9 -5 10 1.2101 0.0411
-9 -5 11 -2.3920 -0.0002
-9 -5 12 -1.5486 0.0045
-9 -5 13 0.4978 0.0138
-9 -5 14 0.9891 0.0037
-9 -5 15 -0.0436 -0.0104
-9 -5 16 -0.0593 -0.0735
-9 -5 17 0.3875 0.0542
-9 -5 18 -0.2934 0.0416
-9 -4 1 -3.9995 0.2186
-9 -4 2 -0.6554 0.0115
-9 -4 3 1.3342 -0.0867
-9 -4 4 1.1915 0.0101
-9 -4 5 -0.0940 -0.0749
-9 -4 6 -1.1324 0.0053
-9 -4 7 -0.4139 0.0614
-9 -4 8 0.7292 -0.0086
-9 -4 9 -0.9944 0.0229
-9 -4 10 -0.9446 -0.0063
-9 -4 11 0.2585 -0.0341
-9 -4 12 3.1542 0.0075
-9 -4 13 1.4754 -0.0042
-9 -4 14 -1.1825 -0.0267
-9 -4 15 -1.6552 0.0045
-9 -4 16 3.2226 -0.0304
-9 -4 17 1.5576 0.0313
-9 -4 18 -3.8397 0.0405
-9 -3 1 2.9050 0.0165
-9 -3 2 1.6206 -0.1708
-9 -3 3 -0.5309 0.0130
-9 -3 4 -1.1862 -0.0031
-9 -3 5 -1.0476 0.0162
-9 -3 6 1.8714 0.0937
-9 -3 7 2.3711 -0.0177
-9 -3 8 -0.6493 -0.0257
-9 -3 9 -0.7435 -0.0119
-9 -3 10 1.5204 -0.0341
-9 -3 11 -0.8275 0.0061
-9 -3 12 -0.1276 0.0091
-9 -3 13 -0.3964 0.0037
-9 -3 14 -1.4247 0.0151
-9 -3 15 0.0247 0.0201
-9 -3 16 0.8417 -0.0010
-9 -3 17 -4.9738 0.0562
-9 -3 18 -1.3898 -0.0601
-9 -3 19 4.4550 -0.0725
-9 -2 1 -1.0435 -0.1948
-9 -2 2 -0.1136 0.0165
-9 -2 3 -0.6887 0.0900
-9 -2 4 -0.7675 -0.0097
-9 -2 5 1.0171 0.0638
-9 -2 6 2.5555 -0.0288
-9 -2 7 -0.8556 -0.0563
-9 -2 8 -3.9989 0.0033
-9 -2 9 -1.0063 -0.0262
-9 -2 10 0.6210 0.0221
-9 -2 11 -0.1985 0.0235
-9 -2 12 2.7013 0.0103
-9 -2 13 -0.9275 0.0214
-9 -2 14 -1.4146 -0.0176
-9 -2 15 0.8146 0.0056
-9 -2 16 0.1202 -0.0362
-9 -2 17 0.7476 -0.0531
-9 -2 18 4.2501 0.0103
-9 -2 19 0.7696 0.0991
-9 -1 1 4.9441 0.0502
-9 -1 2 1.0694 0.1435
-9 -1 3 -2.1422 -0.0340
-9 -1 4 0.4666 0.0047
-9 -1 5 0.3940 0.0022
-9 -1 6 0.4732 -0.0727
-9 -1 7 -1.6977 0.0187
-9 -1 8 -0.3935 0.0003
-9 -1 9 3.3215 0.0171
-9 -1 10 1.4341 0.0341
-9 -1 11 -0.6349 -0.0106
-9 -1 12 -1.1177 0.0142
-9 -1 13 -2.3065 -0.0264
-9 -1 14 2.0996 -0.0157
-9 -1 15 0.4613 0.0187
-9 -1 16 -0.0357 -0.0570
-9 -1 17 0.4304 0.0660
-9 -1 18 -1.5631 0.0604
-9 -1 19 -2.2867 -0.1069
-9 0 1 -1.7186 0.1198
-9 0 2 -5.7676 -0.0645
-9 0 3 0.4198 -0.0551
-9 0 4 1.7005 0.0184
-9 0 5 -0.1845 -0.0591
-9 0 6 1.3183 0.0181
-9 0 7 -0.5770 0.0303
-9 0 8 -1.1110 -0.0080
-9 0 9 -1.9556 0.0135
-9 0 10 -1.7798 -0.0192
-9 0 11 0.2158 0.0103
-9 0 12 1.7593 -0.0141
-9 0 13 2.2777 -0.0296
-9 0 14 1.3383 0.0185
-9 0 15 -2.3467 -0.0203
-9 0 16 -0.4687 -0.0041
-9 0 17 -1.0793 0.0597
-9 0 18 0.3330 -0.0564
-9 0 19 1.7139 0.0180
-9 1 1 -1.0765 -0.0949
-9 1 2 1.4305 -0.0739
-9 1 3 3.2669 0.0584
-9 1 4 -0.3545 -0.0089
-9 1 5 -2.0966 0.0068
-9 1 6 -0.5709 0.0407
-9 1 7 -0.9347 -0.0131
-9 1 8 0.4485 0.0150
-9 1 9 2.5353 -0.0211
-9 1 10 2.8080 0.0071
-9 1 11 0.7240 0.0157
-9 1 12 -0.1419 -0.0165
-9 1 13 -1.6136 0.0200
-9 1 14 -2.2861 -0.0031
-9 1 15 -2.1404 0.0170
-9 1 16 0.6151 0.0138
-9 1 17 0.7930 0.0060
-9 1 18 1.8849 0.0070
-9 1 19 0.0475 -0.0270
-9 2 1 -3.8295 -0.0502
-9 2 2 -1.9200 0.0952
-9 2 3 1.5341 0.0239
-9 2 4 -1.4167 -0.0283
-9 2 5 -1.1151 0.0181
-9 2 6 3.1933 -0.0100
-9 2 7 0.7741 -0.0051
-9 2 8 -0.7622 -0.0166
-9 2 9 -1.7521 -0.0140
-9 2 10 -1.8612 0.0334
-9 2 11 0.0121 -0.0094
-9 2 12 0.8228 -0.0003
-9 2 13 -0.7858 -0.0315
-9 2 14 -1.2817 -0.0097
-9 2 15 0.5463 0.0115
-9 2 16 2.6540 -0.0197
-9 2 17 0.9380 0.0497
-9 2 18 1.7456 -0.0629
-9 2 19 -1.0193 -0.0540
-9 3 1 -4.1821 0.1132
-9 3 2 3.4755 0.0128
-9 3 3 2.2715 -0.0478
-9 3 4 -2.3371 -0.0067
-9 3 5 0.2186 -0.0046
-9 3 6 0.0853 0.0006
-9 3 7 -2.4216 -0.0069
-9 3 8 2.0279 0.0048
-9 3 9 1.9814 0.0187
-9 3 10 1.0140 -0.0086
-9 3 11 -0.4869 -0.0044
-9 3 12 -1.1414 -0.0137
-9 3 13 -2.0183 -0.0106
-9 3 14 0.4232 0.0440
-9 3 15 4.2543 0.0032
-9 3 16 0.2274 0.0248
-9 3 17 -2.1585 -0.0233
-9 3 18 -0.3622 -0.0541
-9 3 19 -3.3256 0.0924
-9 4 1 -3.4703 -0.0356
-9 4 2 2.6640 -0.0909
-9 4 3 -0.5409 -0.0045
-9 4 4 -1.7842 0.0051
-9 4 5 0.1149 0.0197
-9 4 6 0.5706 -0.0018
-9 4 7 2.1828 -0.0100
-9 4 8 0.9432 0.0314
-9 4 9 -4.7656 -0.0198
-9 4 10 -2.4890 -0.0055
-9 4 11 1.0592 0.0040
-9 4 12 2.9518 -0.0075
-9 4 13 0.1883 0.0243
-9 4 14 1.4376 -0.0004
-9 4 15 -0.4616 -0.0047
-9 4 16 -4.7662 -0.0089
-9 4 17 1.0214 -0.0089
-9 4 18 2.4596 0.0395
-9 4 19 -0.6723 -0.0639
-9 5 1 1.6240 -0.0983
-9 5 2 2.3742 0.0478
-9 5 3 -1.9710 0.0596
-9 5 4 -0.3961 0.0148
-9 5 5 1.6294 0.0029
-9 5 6 0.8952 -0.0296
-9 5 7 -0.5689 0.0228
-9 5 8 -1.2385 -0.0000
-9 5 9 -0.0792 -0.0313
-9 5 10 2.9115 0.0212
-9 5 11 1.2249 -0.0027
-9 5 12 -0.3663 0.0132
-9 5 13 -3.0795 -0.0025
-9 5 14 -0.3528 -0.0039
-9 5 15 0.2141 -0.0042
-9 5 16 0.8757 -0.0138
-9 5 17 2.9982 0.0279
-9 5 18 -1.5503 -0.0683
-9 5 19 -2.6157 -0.0203
-9 6 1 0.3769 0.1189
-9 6 2 -1.3837 0.0609
-9 6 3 0.0180 -0.0331
-9 6 4 1.2599 -0.0234
-9 6 5 -0.7519 -0.0363
-9 6 6 -1.4515 -0.0043
-9 6 7 0.2682 0.0320
-9 6 8 0.7640 -0.0126
-9 6 9 -1.0172 0.0056
-9 6 10 -0.4282 -0.0032
-9 6 11 -0.1609 -0.0038
-9 6 12 0.7985 0.0063
-9 6 13 -1.5159 -0.0184
-9 6 14 1.6930 0.0116
-9 6 15 1.2583 -0.0097
-9 6 16 -1.1844 0.0178
-9 6 17 -0.0095 -0.0216
-9 6 18 -1.4806 -0.0388
-9 6 19 0.3013 0.0958
-9 7 1 -1.6296 0.1089
-9 7 2 -0.0593 -0.1151
-9 7 3 2.0156 -0.0222
-9 7 4 0.0524 -0.0157
-9 7 5 0.5988 0.0006
-9 7 6 2.0298 0.0580
-9 7 7 0.7916 0.0020
-9 7 8 -1.8339 -0.0246
-9 7 9 -1.0788 -0.0046
-9 7 10 0.8086 0.0055
-9 7 11 -0.2570 0.0174
-9 7 12 0.8746 -0.0204
-9 7 13 -0.4449 0.0170
-9 7 14 2.1420 0.0181
-9 7 15 -1.4612 -0.0209
-9 7 16 -2.3311 -0.0144
-9 7 17 0.7491 -0.0260
-9 7 18 -0.9125 0.0770
-9 7 19 1.6914 0.0418
-9 8 1 1.9930 -0.2171
-9 8 2 3.0061 -0.0599
-9 8 3 0.5134 0.0653
-9 8 4 -1.8809 0.0038
-9 8 5 -0.7350 0.0538
-9 8 6 -2.6010 -0.0047
-9 8 7 -3.0628 -0.0300
-9 8 8 0.4011 0.0008
-9 8 9 2.8319 -0.0086
-9 8 10 0.7509 0.0038
-9 8 11 0.3853 -0.0118
-9 8 12 1.4331 0.0034
-9 8 13 -2.6665 0.0135
-9 8 14 -1.5201 -0.0240
-9 8 15 -1.9652 0.0007
-9 8 16 2.5104 -0.0293
-9 8 17 3.3092 0.0346
-9 8 18 -0.5204 0.0731
-9 9 1 -0.2878 -0.0714
-9 9 2 -1.6854 0.1560
-9 9 3 -1.8655 0.0120
-9 9 4 0.1179 0.0085
-9 9 5 0.3248 -0.0120
-9 9 6 0.0641 -0.0439
-9 9 7 2.8546 0.0062
-9 9 8 2.7046 -0.0273
-9 9 9 -0.7981 0.0121
-9 9 10 -2.4678 0.0268
-9 9 11 -0.9870 0.0097
-9 9 12 -0.0794 0.0145
-9 9 13 -0.5668 -0.0103
-9 9 14 2.9619 0.0165
-9 9 15 1.7060 -0.0337
-9 9 16 0.7859 -0.0151
-9 9 17 -2.9320 0.1156
-9 9 18 -2.7843 -0.0318
-9 10 1 -0.8980 0.2045
-9 10 2 -0.4247 0.0375
-9 10 3 0.5865 -0.0440
-9 10 4 -1.3383 0.0061
-9 10 5 -1.2519 -0.0685
-9 10 6 0.9494 0.0196
-9 10 7 0.9995 0.0238
-9 10 8 -0.6417 0.0083
-9 10 9 -0.8559 0.0351
-9 10 10 -0.2766 -0.0107
-9 10 11 1.4096 0.0024
-9 10 12 1.9483 -0.0365
-9 10 13 -1.6716 -0.0338
-9 10 14 -1.5417 -0.0061
-9 10 15 -1.8282 0.0107
-9 10 16 0.0702 0.0770
-9 10 17 0.6123 -0.0534
-9 10 18 1.4754 -0.0989
-9 11 1 -2.3481 0.0444
-9 11 2 0.2932 -0.1556
-9 11 3 -0.1020 -0.0035
-9 11 4 0.1251 -0.0324
-9 11 5 2.4042 -0.0069
-9 11 6 1.6163 0.0777
-9 11 7 0.0671 -0.0136
-9 11 8 -1.3586 -0.0102
-9 11 9 -1.6919 -0.0098
-9 11 10 -0.6607 -0.0147
-9 11 11 0.6642 -0.0101
-9 11 12 -0.6426 -0.0129
-9 11 13 -1.5851 0.0411
-9 11 14 2.9137 0.0467
-9 11 15 1.8303 0.0319
-9 11 16 0.1703 -0.0925
-9 11 17 -1.1020 -0.0620
-9 12 1 -0.4753 -0.1607
-9 12 2 1.1171 0.0058
-9 12 3 -0.3719 0.0774
-9 12 4 -0.0708 -0.0031
-9 12 5 -0.5296 0.0422
-9 12 6 0.0295 -0.0080
-9 12 7 -1.3203 -0.0415
-9 12 8 -1.7476 0.0094
-9 12 9 0.7776 -0.0061
-9 12 10 1.5891 0.0008
-9 12 11 1.8164 0.0086
-9 12 12 0.3861 0.0025
-9 12 13 -1.0114 -0.0159
-9 12 14 0.2002 -0.0024
-9 12 15 -1.5888 -0.0301
-9 12 16 -0.3453 -0.0567
-9 13 1 0.5832 0.0019
-9 13 2 0.4080 0.0788
-9 13 3 -0.2111 -0.0164
-9 13 4 -0.0475 0.0002
-9 13 5 0.3297 -0.0206
-9 13 6 -0.0184 -0.0251
-9 13 7 -1.8668 0.0190
-9 13 8 1.8046 0.0145
-9 13 9 2.0668 0.0056
-9 13 10 -0.1346 0.0014
-9 13 11 -0.6488 -0.0007
-9 13 12 -2.4703 0.0187
-9 13 13 -0.6372 0.0105
-9 13 14 2.6155 0.0168
-9 13 15 0.0235 -0.0116
-9 13 16 -0.4675 0.0027
-9 14 1 -0.5619 0.0987
-9 14 2 -0.8172 -0.0296
-9 14 3 0.7048 -0.0221
-9 14 4 -0.5548 0.0179
-9 14 5 -0.1192 -0.0271
-9 14 6 0.8033 0.0263
-9 14 7 1.2293 0.0063
-9 14 8 1.7166 0.0034
-9 14 9 -2.6019 -0.0058
-9 14 10 -2.0712 -0.0291
-9 14 11 0.5037 0.0056
-9 14 12 0.4845 -0.0106
-9 14 13 0.9656 -0.0396
-9 14 14 0.1813 0.0177
-9 14 15 -1.4165 -0.0082
-9 15 1 -0.2689 -0.0738
-9 15 2 1.2479 -0.0793
-9 15 3 0.7720 0.0324
-9 15 4 -1.8423 0.0275
-9 15 5 0.8018 -0.0107
-9 15 6 0.0857 0.0176
-9 15 7 -0.9479 -0.0122
-9 15 8 -0.6046 0.0086
-9 15 9 -1.9729 -0.0160
-9 15 10 1.4232 -0.0107
-9 15 11 1.7155 0.0156
-9 15 12 -0.7344 0.0245
-9 15 13 0.5627 0.0285
-9 15 14 0.9127 -0.0020
-9 16 1 -0.6009 0.0152
-9 16 2 1.6572 0.0286
-9 16 3 -0.7996 0.0537
-9 16 4 -1.3638 0.0108
-9 16 5 1.4055 -0.0212
-9 16 6 0.4861 -0.0111
-9 16 7 0.5370 -0.0338
-9 16 8 -0.4460 0.0025
-9 16 9 -1.2157 -0.0032
-9 16 10 2.0032 -0.0069
-9 16 11 0.9686 0.0176
-9 16 12 0.0285 0.0165
-9 16 13 -0.3709 -0.0428
-9 17 1 2.7531 0.0384
-9 17 2 -0.1218 -0.0438
-9 17 3 -1.7576 -0.0152
-9 17 4 0.4074 -0.0055
-9 17 5 2.1995 -0.0274
-9 17 6 -0.8806 0.0007
-9 17 7 -1.0675 0.0076
-9 17 8 -0.1255 0.0519
-9 17 9 0.2195 0.0309
-9 17 10 0.9417 -0.0000
-9 17 11 -0.5960 0.0028
-9 17 12 -1.4271 -0.0121
-9 18 1 0.3179 -0.0751
-9 18 2 -0.8290 -0.0640
-9 18 3 1.0305 0.0706
-9 18 4 0.8631 0.0447
-9 18 5 -0.8631 -0.0102
-9 18 6 -1.6109 0.0105
-9 18 7 0.4341 -0.0312
-9 18 8 -0.1342 0.0195
-9 18 9 -0.6678 -0.0240
-9 18 10 0.9697 -0.0769
-9 19 1 1.1676 -0.0193
-9 19 2 -0.4219 0.0344
-9 19 3 -0.0448 0.0428
-9 19 4 -1.0451 -0.0630
-9 19 5 -0.0377 -0.0370
-9 19 6 0.0730 -0.0091
-9 19 7 0.2302 -0.0099
-9 19 8 0.9203 0.0680
-8 -24 1 -0.3132 0.0954
-8 -23 1 0.0276 0.1480
-8 -23 2 0.0692 -0.1031
-8 -23 3 -1.4652 -0.0216
-8 -22 1 1.2836 -0.1947
-8 -22 2 1.1584 0.0338
-8 -22 3 -0.3276 0.1182
-8 -22 4 0.6653 -0.1403
-8 -22 5 -2.2332 -0.0714
-8 -21 1 -1.0318 -0.0262
-8 -21 2 -1.2233 0.1288
-8 -21 3 -1.3507 -0.0786
-8 -21 4 0.4026 0.0042
-8 -21 5 -0.6583 0.0591
-8 -21 6 2.3896 -0.0059
-8 -21 7 1.7977 0.0350
-8 -20 1 0.1608 0.0759
-8 -20 2 -0.4261 -0.0101
-8 -20 3 -0.6804 -0.0114
-8 -20 4 1.5917 0.0306
-8 -20 5 -0.6852 -0.1300
-8 -20 6 0.0862 0.0212
-8 -20 7 -0.2360 0.1219
-8 -20 8 -0.4750 -0.0306
-8 -20 9 -1.7752 -0.0818
-8 -19 1 -1.1331 -0.0569
-8 -19 2 -2.2482 -0.0768
-8 -19 3 1.2340 0.0246
-8 -19 4 2.2032 0.0106
-8 -19 5 -1.5358 -0.0278
-8 -19 6 1.2873 0.0722
-8 -19 7 -0.2886 0.0090
-8 -19 8 -0.9733 -0.0372
-8 -19 9 1.1411 -0.0201
-8 -19 10 1.6994 -0.0083
-8 -18 1 2.2430 -0.0553
-8 -18 2 -0.0139 0.0305
-8 -18 3 1.3253 0.0803
-8 -18 4 0.0199 0.0009
-8 -18 5 -1.1304 -0.0319
-8 -18 6 0.1206 0.0082
-8 -18 7 -0.5375 0.0252
-8 -18 8 2.0579 -0.0222
-8 -18 9 -1.0620 -0.0794
-8 -18 10 -2.8901 0.0321
-8 -18 11 0.5355 0.0925
-8 -17 1 -0.5946 0.0772
-8 -17 2 -2.7266 0.0275
-8 -17 3 1.3160 -0.0169
-8 -17 4 1.6980 -0.0200
-8 -17 5 -1.5067 -0.0233
-8 -17 6 -0.2597 -0.0034
-8 -17 7 0.9928 0.0036
-8 -17 8 -0.7211 -0.0077
-8 -17 9 -2.4817 0.0547
-8 -17 10 2.2242 0.0068
-8 -17 11 2.2362 -0.0559
-8 -17 12 -1.1408 0.0269
-8 -16 1 0.6824 -0.0519
-8 -16 2 -0.1185 -0.0862
-8 -16 3 1.8842 0.0050
-8 -16 4 -1.5502 0.0318
-8 -16 5 -2.3957 0.0113
-8 -16 6 1.1906 -0.0064
-8 -16 7 0.6699 -0.0053
-8 -16 8 -0.0247 0.0418
-8 -16 9 0.0042 -0.0317
-8 -16 10 0.0283 -0.0739
-8 -16 11 -0.5163 0.0765
-8 -16 12 0.4661 -0.0032
-8 -16 13 0.5173 -0.0694
-8 -15 1 1.1869 -0.1230
-8 -15 2 -0.5632 0.0728
-8 -15 3 -0.7110 0.0425
-8 -15 4 -0.6169 0.0350
-8 -15 5 0.1517 -0.0176
-8 -15 6 2.0188 -0.0648
-8 -15 7 0.9984 0.0205
-8 -15 8 -1.0384 0.0222
-8 -15 9 -1.8023 -0.0283
-8 -15 10 1.3994 0.0202
-8 -15 11 2.1867 0.0005
-8 -15 12 -0.9390 -0.0008
-8 -15 13 -1.5338 0.0612
-8 -15 14 -0.6414 -0.0482
-8 -14 1 0.0406 0.1453
-8 -14 2 -2.7979 0.0646
-8 -14 3 -0.1898 -0.0314
-8 -14 4 0.4467 0.0123
-8 -14 5 1.0520 -0.0880
-8 -14 6 2.8022 0.0018
-8 -14 7 -2.1678 0.0486
-8 -14 8 -2.6982 0.0083
-8 -14 9 0.9480 0.0203
-8 -14 10 1.7217 -0.0188
-8 -14 11 -1.7578 0.0159
-8 -14 12 -1.4000 -0.0016
-8 -14 13 1.3482 -0.0540
-8 -14 14 0.6372 0.0504
-8 -13 1 -2.7326 0.1251
-8 -13 2 0.3367 -0.1182
-8 -13 3 0.9910 -0.0183
-8 -13 4 -0.2480 -0.0405
-8 -13 5 1.0990 -0.0085
-8 -13 6 -1.2269 0.0843
-8 -13 7 -3.1966 -0.0205
-8 -13 8 1.9927 -0.0036
-8 -13 9 0.8618 -0.0075
-8 -13 10 -0.6526 -0.0177
-8 -13 11 0.3306 -0.0118
-8 -13 12 1.3640 -0.0377
-8 -13 13 -0.3738 0.0583
-8 -13 14 -0.9586 -0.0393
-8 -13 15 -0.5587 -0.0716
-8 -12 1 -0.2866 -0.1875
-8 -12 2 0.9008 -0.0695
-8 -12 3 -1.4896 0.0420
-8 -12 4 1.0354 -0.0107
-8 -12 5 1.4172 0.0747
-8 -12 6 0.2219 -0.0025
-8 -12 7 1.1760 -0.0543
-8 -12 8 -1.4133 0.0347
-8 -12 9 -2.1876 0.0086
-8 -12 10 2.9015 -0.0160
-8 -12 11 0.4705 -0.0123
-8 -12 12 -1.0122 0.0188
-8 -12 13 0.5860 0.0020
-8 -12 14 0.3158 0.0229
-8 -12 15 -1.3159 0.0832
-8 -12 16 1.3230 -0.0715
-8 -11 1 3.3732 -0.0879
-8 -11 2 -0.5256 0.1515
-8 -11 3 -1.1924 0.0252
-8 -11 4 1.9130 0.0243
-8 -11 5 -0.5679 0.0213
-8 -11 6 -1.1077 -0.0724
-8 -11 7 -3.6472 0.0079
-8 -11 8 -1.1532 0.0265
-8 -11 9 5.8426 -0.0261
-8 -11 10 1.6528 0.0126
-8 -11 11 -4.1057 0.0069
-8 -11 12 0.3713 -0.0246
-8 -11 13 -0.7122 0.0239
-8 -11 14 -2.6047 0.0351
-8 -11 15 0.7070 -0.0616
-8 -11 16 3.2205 0.0180
-8 -11 17 -1.2271 0.0099
-8 -10 1 -4.1254 0.1953
-8 -10 2 -2.4174 0.0515
-8 -10 3 3.0252 -0.0790
-8 -10 4 1.7113 -0.0042
-8 -10 5 -1.9585 -0.0735
-8 -10 6 -0.3038 0.0044
-8 -10 7 1.5554 0.0608
-8 -10 8 4.1094 -0.0261
-8 -10 9 -1.3992 0.0067
-8 -10 10 -5.3057 -0.0010
-8 -10 11 0.7576 -0.0428
-8 -10 12 3.0731 0.0015
-8 -10 13 -0.3347 0.0203
-8 -10 14 1.5402 0.0073
-8 -10 15 1.0639 -0.0225
-8 -10 16 -0.6422 -0.0385
-8 -10 17 -2.2290 -0.0295
-8 -9 1 3.5802 0.0537
-8 -9 2 4.9576 -0.1589
-8 -9 3 0.5303 -0.0023
-8 -9 4 -3.6397 -0.0077
-8 -9 5 -1.1314 -0.0177
-8 -9 6 1.1157 0.0911
-8 -9 7 -0.4036 -0.0182
-8 -9 8 -2.4623 -0.0194
-8 -9 9 -0.8574 0.0088
-8 -9 10 3.5546 -0.0230
-8 -9 11 1.9675 0.0293
-8 -9 12 -1.8936 -0.0066
-8 -9 13 -3.0635 0.0279
-8 -9 14 -1.1202 0.0424
-8 -9 15 0.2012 -0.0341
-8 -9 16 1.8002 0.0497
-8 -9 17 -0.5573 -0.0174
-8 -9 18 0.6799 -0.0892
-8 -8 1 -2.9723 -0.1770
-8 -8 2 -2.7683 -0.0045
-8 -8 3 -2.4458 0.0780
-8 -8 4 0.1868 -0.0300
-8 -8 5 -0.7192 0.0677
-8 -8 6 -0.2910 0.0237
-8 -8 7 2.6741 -0.0535
-8 -8 8 1.4571 -0.0015
-8 -8 9 -0.2161 -0.0306
-8 -8 10 -2.0059 0.0238
-8 -8 11 -1.1696 0.0061
-8 -8 12 0.1171 -0.0117
-8 -8 13 0.7703 0.0434
-8 -8 14 3.8437 -0.0456
-8 -8 15 0.9746 -0.0151
-8 -8 16 -1.6576 -0.0395
-8 -8 17 -1.6409 -0.0848
-8 -8 18 1.3801 0.1751
-8 -7 1 1.0172 0.0066
-8 -7 2 2.7756 0.1180
-8 -7 3 0.4527 -0.0196
-8 -7 4 -1.3372 0.0085
-8 -7 5 -0.7968 0.0122
-8 -7 6 5.0248 -0.0652
-8 -7 7 1.3070 0.0022
-8 -7 8 -5.3563 0.0091
-8 -7 9 -0.2869 0.0115
-8 -7 10 3.1991 0.0272
-8 -7 11 1.2430 -0.0092
-8 -7 12 -1.9643 0.0087
-8 -7 13 0.2981 -0.0271
-8 -7 14 0.3255 -0.0019
-8 -7 15 -3.3984 0.0126
-8 -7 16 0.4290 -0.0378
-8 -7 17 0.4804 0.0724
-8 -7 18 0.3184 0.0187
-8 -7 19 -0.9050 -0.1108
-8 -6 1 -0.2802 0.1386
-8 -6 2 -1.8263 -0.0384
-8 -6 3 -0.6988 -0.0391
-8 -6 4 0.0470 0.0246
-8 -6 5 1.4309 -0.0478
-8 -6 6 1.0756 0.0077
-8 -6 7 -3.0290 0.0273
-8 -6 8 -0.3559 -0.0140
-8 -6 9 2.3741 -0.0036
-8 -6 10 -2.2499 -0.0100
-8 -6 11 -1.7943 0.0061
-8 -6 12 1.3144 -0.0162
-8 -6 13 2.3039 -0.0067
-8 -6 14 -1.5272 0.0212
-8 -6 15 -1.3917 -0.0125
-8 -6 16 2.0301 0.0131
-8 -6 17 0.1011 0.0108
-8 -6 18 1.0810 0.0088
-8 -6 19 -0.8123 0.0105
-8 -5 1 1.7094 -0.0702
-8 -5 2 3.3835 -0.0962
-8 -5 3 1.4043 0.0535
-8 -5 4 -1.8635 -0.0136
-8 -5 5 -0.4740 -0.0141
-8 -5 6 0.6131 0.0448
-8 -5 7 0.8424 -0.0032
-8 -5 8 -0.5886 -0.0022
-8 -5 9 -0.4103 -0.0043
-8 -5 10 1.2726 0.0107
-8 -5 11 1.4778 0.0130
-8 -5 12 -1.0130 -0.0161
-8 -5 13 -1.3887 0.0150
-8 -5 14 -1.2733 0.0055
-8 -5 15 0.8924 -0.0054
-8 -5 16 2.2975 -0.0052
-8 -5 17 -1.0610 0.0338
-8 -5 18 -1.6212 -0.0056
-8 -5 19 -0.2401 -0.0783
-8 -5 20 1.6268 0.0799
-8 -4 1 3.2420 -0.0731
-8 -4 2 -1.0441 0.0779
-8 -4 3 -3.7940 0.0441
-8 -4 4 -1.5174 -0.0271
-8 -4 5 2.2571 0.0248
-8 -4 6 1.1302 -0.0110
-8 -4 7 0.4823 -0.0222
-8 -4 8 -2.5067 -0.0046
-8 -4 9 -0.3950 -0.0026
-8 -4 10 -1.8905 0.0197
-8 -4 11 -1.3172 -0.0109
-8 -4 12 2.1564 -0.0096
-8 -4 13 2.3975 0.0112
-8 -4 14 -0.5243 -0.0149
-8 -4 15 0.0207 0.0047
-8 -4 16 1.9700 0.0208
-8 -4 17 -1.6519 -0.0176
-8 -4 18 0.5925 -0.0913
-8 -4 19 1.5073 0.0208
-8 -4 20 -1.7200 0.0524
-8 -3 1 0.7393 0.1182
-8 -3 2 0.4589 0.0337
-8 -3 3 -1.0315 -0.0548
-8 -3 4 2.0883 -0.0171
-8 -3 5 -0.9650 -0.0010
-8 -3 6 -1.0196 -0.0025
-8 -3 7 1.0255 0.0110
-8 -3 8 -2.2444 -0.0032
-8 -3 9 2.1705 0.0174
-8 -3 10 1.9165 -0.0025
-8 -3 11 3.4229 -0.0209
-8 -3 12 0.6000 0.0091
-8 -3 13 -2.1097 -0.0058
-8 -3 14 -2.4539 -0.0027
-8 -3 15 0.9178 0.0260
-8 -3 16 0.6571 -0.0215
-8 -3 17 -4.7445 -0.0115
-8 -3 18 -0.0030 0.0165
-8 -3 19 -0.8603 0.0540
-8 -3 20 -0.3210 0.0621
-8 -2 1 5.6560 -0.0154
-8 -2 2 -4.3230 -0.1059
-8 -2 3 -1.5766 -0.0154
-8 -2 4 0.1653 0.0238
-8 -2 5 -0.8345 0.0178
-8 -2 6 5.0351 0.0061
-8 -2 7 1.8398 -0.0110
-8 -2 8 -3.1696 0.0131
-8 -2 9 -0.0743 0.0024
-8 -2 10 -3.0816 -0.0259
-8 -2 11 -0.4682 0.0081
-8 -2 12 -0.6420 0.0053
-8 -2 13 -0.1605 0.0025
-8 -2 14 -1.6193 0.0233
-8 -2 15 1.2778 -0.0145
-8 -2 16 -0.5603 -0.0251
-8 -2 17 -0.7639 0.0135
-8 -2 18 5.5109 -0.0405
-8 -2 19 1.5185 0.0615
-8 -2 20 2.1871 0.0234
-8 -1 1 1.1809 -0.1512
-8 -1 2 -1.5904 0.0441
-8 -1 3 3.0772 0.0612
-8 -1 4 0.6887 0.0284
-8 -1 5 0.7654 0.0055
-8 -1 6 -0.0306 -0.0285
-8 -1 7 -4.4421 -0.0053
-8 -1 8 -3.1483 -0.0007
-8 -1 9 1.8880 -0.0215
-8 -1 10 2.6958 0.0151
-8 -1 11 4.6058 0.0115
-8 -1 12 -1.0695 -0.0002
-8 -1 13 -1.9112 0.0161
-8 -1 14 -0.0538 -0.0163
-8 -1 15 3.0681 -0.0126
-8 -1 16 -0.7779 0.0206
-8 -1 17 1.1898 0.0061
-8 -1 18 1.2638 0.0212
-8 -1 19 -4.4873 0.0460
-8 -1 20 -2.2184 -0.1351
-8 0 1 0.1983 0.1237
-8 0 2 -4.0567 0.1024
-8 0 3 -0.4918 -0.0280
-8 0 4 -0.7364 -0.0128
-8 0 5 -1.6848 -0.0623
-8 0 6 0.6290 -0.0067
-8 0 7 2.5673 0.0365
-8 0 8 0.7535 -0.0051
-8 0 9 0.9119 0.0111
-8 0 10 -1.4030 0.0133
-8 0 11 -2.0538 -0.0163
-8 0 12 -2.8986 0.0052
-8 0 13 2.3356 -0.0176
-8 0 14 1.4929 -0.0148
-8 0 15 -1.0417 0.0052
-8 0 16 -2.4547 -0.0261
-8 0 17 1.0678 0.0088
-8 0 18 -1.0073 -0.0060
-8 0 19 -0.8451 -0.0540
-8 0 20 2.9453 0.0335
-8 0 21 1.4640 0.1307
-8 1 1 -5.4812 0.1353
-8 1 2 -0.0759 -0.1216
-8 1 3 4.0565 -0.0393
-8 1 4 -0.0944 -0.0242
-8 1 5 -0.4672 -0.0066
-8 1 6 2.0602 0.0763
-8 1 7 -1.5194 -0.0150
-8 1 8 -3.8642 -0.0162
-8 1 9 0.6850 0.0099
-8 1 10 1.7079 -0.0178
-8 1 11 3.4791 -0.0039
-8 1 12 1.3134 0.0043
-8 1 13 0.3465 -0.0022
-8 1 14 -3.6058 0.0267
-8 1 15 -1.1816 0.0031
-8 1 16 1.0058 0.0249
-8 1 17 2.0620 0.0396
-8 1 18 0.0291 -0.0385
-8 1 19 0.2247 0.0343
-8 1 20 -0.7455 0.0356
-8 1 21 -1.6586 -0.0944
-8 2 1 1.1620 -0.2074
-8 2 2 2.3797 -0.0705
-8 2 3 0.8438 0.0703
-8 2 4 -1.7424 -0.0009
-8 2 5 -1.8991 0.0778
-8 2 6 0.7495 -0.0025
-8 2 7 1.5376 -0.0474
-8 2 8 1.1199 0.0125
-8 2 9 1.2671 -0.0190
-8 2 10 -0.6131 0.0097
-8 2 11 -1.1119 0.0144
-8 2 12 -3.8933 0.0063
-8 2 13 -1.3862 0.0076
-8 2 14 -0.7582 -0.0119
-8 2 15 2.4840 -0.0254
-8 2 16 0.9403 -0.0039
-8 2 17 1.2819 -0.0243
-8 2 18 0.7642 -0.0265
-8 2 19 -0.7976 -0.0051
-8 2 20 -1.7412 -0.0312
-8 2 21 0.6930 0.0515
-8 3 1 -2.9770 -0.0937
-8 3 2 -0.0513 0.1797
-8 3 3 -0.8791 0.0188
-8 3 4 -1.8099 0.0201
-8 3 5 0.7684 -0.0067
-8 3 6 3.7564 -0.0943
-8 3 7 -1.3010 0.0183
-8 3 8 -3.4039 0.0084
-8 3 9 0.6691 0.0098
-8 3 10 0.6240 0.0179
-8 3 11 -0.3356 -0.0175
-8 3 12 -0.0218 0.0023
-8 3 13 1.7892 -0.0225
-8 3 14 0.7684 -0.0056
-8 3 15 3.1853 0.0145
-8 3 16 -0.3555 0.0149
-8 3 17 0.4083 0.0107
-8 3 18 -2.5508 -0.0083
-8 3 19 -5.0691 0.0191
-8 3 20 -0.2243 0.0843
-8 3 21 3.8667 -0.0048
-8 4 1 1.6939 0.2357
-8 4 2 1.1894 0.0436
-8 4 3 1.7668 -0.0863
-8 4 4 2.3850 -0.0070
-8 4 5 -0.2277 -0.0834
-8 4 6 -2.2623 0.0204
-8 4 7 -1.2657 0.0575
-8 4 8 2.9183 -0.0142
-8 4 9 0.3563 0.0139
-8 4 10 -4.3465 -0.0146
-8 4 11 0.3023 -0.0041
-8 4 12 2.5156 -0.0017
-8 4 13 0.5145 0.0067
-8 4 14 0.7010 0.0235
-8 4 15 -1.0122 -0.0160
-8 4 16 -5.3204 0.0074
-8 4 17 0.3606 0.0165
-8 4 18 -0.6275 -0.0263
-8 4 19 2.2056 -0.0068
-8 4 20 5.0387 0.0008
-8 4 21 0.4158 -0.0774
-8 5 1 1.1790 0.0450
-8 5 2 -1.1247 -0.1818
-8 5 3 0.2392 -0.0004
-8 5 4 -3.1478 -0.0127
-8 5 5 -3.0374 0.0049
-8 5 6 1.7654 0.0876
-8 5 7 2.6716 0.0011
-8 5 8 -0.6288 -0.0116
-8 5 9 -2.9981 -0.0073
-8 5 10 1.2898 -0.0224
-8 5 11 5.5150 0.0011
-8 5 12 -0.3072 0.0140
-8 5 13 -2.8360 0.0140
-8 5 14 -1.3477 -0.0229
-8 5 15 -1.6985 -0.0025
-8 5 16 2.0706 0.0203
-8 5 17 4.6398 -0.0306
-8 5 18 -1.3654 -0.0517
-8 5 19 -0.1992 0.0415
-8 5 20 -1.6191 0.0688
-8 5 21 -1.2842 -0.0163
-8 6 1 0.9452 -0.2048
-8 6 2 0.3299 0.0118
-8 6 3 2.0131 0.0799
-8 6 4 0.3095 -0.0181
-8 6 5 1.3915 0.0708
-8 6 6 0.3795 -0.0072
-8 6 7 -0.4028 -0.0622
-8 6 8 -0.4601 -0.0216
-8 6 9 -0.3080 -0.0021
-8 6 10 -0.0430 0.0152
-8 6 11 0.2363 0.0168
-8 6 12 -1.8319 0.0096
-8 6 13 -0.4572 -0.0107
-8 6 14 1.1786 -0.0037
-8 6 15 0.6867 0.0027
-8 6 16 0.2035 -0.0171
-8 6 17 -1.1351 0.0008
-8 6 18 -1.5633 0.0303
-8 6 19 1.3019 0.0361
-8 6 20 0.1384 -0.0280
-8 6 21 0.5581 -0.0611
-8 7 1 -0.8535 -0.0056
-8 7 2 -0.5069 0.1560
-8 7 3 -1.6073 -0.0375
-8 7 4 -1.8906 0.0072
-8 7 5 -0.9267 0.0020
-8 7 6 0.5726 -0.0661
-8 7 7 2.0307 0.0157
-8 7 8 0.1076 0.0193
-8 7 9 -0.9327 0.0185
-8 7 10 -0.5102 0.0075
-8 7 11 2.0704 -0.0076
-8 7 12 -0.6520 -0.0104
-8 7 13 -0.9581 -0.0071
-8 7 14 0.0582 -0.0030
-8 7 15 -0.6562 -0.0145
-8 7 16 1.4132 0.0034
-8 7 17 0.4767 0.0208
-8 7 18 -1.2336 -0.0058
-8 7 19 1.0152 -0.0100
-8 7 20 -0.4004 0.0364
-8 8 1 1.1559 0.1442
-8 8 2 0.9667 -0.0387
-8 8 3 1.1850 -0.0782
-8 8 4 2.1177 0.0196
-8 8 5 0.2814 -0.0480
-8 8 6 -0.1629 0.0130
-8 8 7 -1.2165 0.0305
-8 8 8 -1.6456 -0.0011
-8 8 9 -1.0583 0.0150
-8 8 10 -0.2841 -0.0128
-8 8 11 2.7129 -0.0140
-8 8 12 -0.4223 -0.0024
-8 8 13 0.0093 0.0092
-8 8 14 -0.4376 0.0050
-8 8 15 -0.3033 0.0056
-8 8 16 1.0379 0.0036
-8 8 17 -1.5274 0.0135
-8 8 18 1.6150 0.0188
-8 8 19 1.7164 -0.0040
-8 8 20 -2.7953 -0.0311
-8 9 1 1.9835 -0.0684
-8 9 2 -1.8155 -0.0906
-8 9 3 -2.3997 0.0448
-8 9 4 -1.3792 0.0027
-8 9 5 -2.1356 0.0012
-8 9 6 0.6041 0.0540
-8 9 7 1.6258 -0.0012
-8 9 8 2.1007 -0.0199
-8 9 9 0.1398 -0.0187
-8 9 10 0.4346 -0.0073
-8 9 11 1.4749 -0.0010
-8 9 12 -3.3257 0.0035
-8 9 13 -1.1337 0.0126
-8 9 14 0.4733 0.0088
-8 9 15 2.1567 -0.0084
-8 9 16 1.4381 -0.0267
-8 9 17 -1.3360 0.0405
-8 9 18 -0.5281 -0.0046
-8 9 19 -2.0556 -0.0884
-8 9 20 0.0418 0.0265
-8 10 1 0.1038 -0.0710
-8 10 2 -3.3662 0.0748
-8 10 3 1.4408 0.0431
-8 10 4 1.9900 -0.0289
-8 10 5 0.6051 0.0241
-8 10 6 2.7905 -0.0022
-8 10 7 -0.1010 -0.0318
-8 10 8 -2.0850 -0.0032
-8 10 9 -2.2227 0.0198
-8 10 10 0.1840 0.0096
-8 10 11 0.4795 0.0028
-8 10 12 -0.0016 0.0128
-8 10 13 3.0034 -0.0051
-8 10 14 -0.7997 -0.0038
-8 10 15 -1.4768 -0.0129
-8 10 16 -1.0120 -0.0040
-8 10 17 -1.4023 0.0150
-8 10 18 1.2087 -0.0603
-8 10 19 1.5184 0.0277
-8 11 1 -1.7078 0.1113
-8 11 2 0.1996 0.0475
-8 11 3 2.3664 -0.0490
-8 11 4 -0.6714 -0.0303
-8 11 5 0.9657 0.0094
-8 11 6 0.5619 -0.0127
-8 11 7 -3.5459 0.0006
-8 11 8 -0.2210 0.0039
-8 11 9 0.7818 -0.0040
-8 11 10 0.8603 -0.0004
-8 11 11 1.5162 -0.0079
-8 11 12 -1.2931 -0.0258
-8 11 13 -2.9175 0.0039
-8 11 14 -1.3155 0.0272
-8 11 15 3.5628 -0.0037
-8 11 16 1.5152 -0.0409
-8 11 17 -1.4241 0.0027
-8 11 18 0.6033 0.0831
-8 11 19 0.2650 0.0466
-8 12 1 1.6787 -0.0207
-8 12 2 0.9459 -0.0843
-8 12 3 -0.3648 -0.0164
-8 12 4 -0.3250 0.0160
-8 12 5 -0.4512 0.0262
-8 12 6 -2.3837 0.0013
-8 12 7 -0.4249 0.0126
-8 12 8 2.1910 0.0058
-8 12 9 -0.3772 -0.0023
-8 12 10 1.3740 -0.0087
-8 12 11 -0.0062 -0.0052
-8 12 12 -2.8782 0.0266
-8 12 13 3.1393 0.0146
-8 12 14 2.9732 -0.0097
-8 12 15 -1.7524 -0.0203
-8 12 16 -2.3485 -0.0443
-8 12 17 0.0289 0.0883
-8 12 18 1.6412 0.0490
-8 12 19 -0.3898 -0.1384
-8 13 1 0.6049 -0.1181
-8 13 2 -0.2753 0.0386
-8 13 3 -0.2615 0.0476
-8 13 4 -0.6665 0.0103
-8 13 5 0.2440 0.0006
-8 13 6 1.6939 -0.0247
-8 13 7 0.1102 0.0032
-8 13 8 -0.0961 -0.0168
-8 13 9 0.1788 -0.0184
-8 13 10 0.9968 0.0101
-8 13 11 -1.5087 0.0235
-8 13 12 -0.4270 -0.0032
-8 13 13 1.3879 -0.0207
-8 13 14 -3.5687 0.0166
-8 13 15 0.4126 -0.0153
-8 13 16 2.8810 -0.0092
-8 13 17 -1.6487 0.0961
-8 13 18 -0.7996 -0.0593
-8 14 1 1.6340 0.1149
-8 14 2 -1.0511 0.0965
-8 14 3 -0.0972 -0.0111
-8 14 4 -0.1471 -0.0068
-8 14 5 0.9586 -0.0198
-8 14 6 -1.2814 -0.0030
-8 14 7 -0.0019 0.0204
-8 14 8 2.1975 -0.0096
-8 14 9 -1.5092 0.0142
-8 14 10 -0.9604 0.0211
-8 14 11 -0.7527 -0.0014
-8 14 12 0.1490 -0.0230
-8 14 13 1.2928 -0.0137
-8 14 14 0.0698 0.0053
-8 14 15 1.7167 -0.0074
-8 14 16 -1.7282 0.0104
-8 14 17 -1.6681 0.0204
-8 15 1 0.0571 0.0910
-8 15 2 0.6004 -0.1261
-8 15 3 0.0981 -0.0414
-8 15 4 -1.0148 -0.0193
-8 15 5 0.8318 -0.0115
-8 15 6 0.7689 0.0099
-8 15 7 0.9364 -0.0124
-8 15 8 -3.0546 0.0092
-8 15 9 -2.1013 0.0108
-8 15 10 3.3039 -0.0148
-8 15 11 0.6165 -0.0189
-8 15 12 -0.3465 -0.0130
-8 15 13 -0.0276 0.0337
-8 15 14 -1.0638 0.0221
-8 15 15 1.2378 -0.0218
-8 15 16 -0.4964 -0.0024
-8 16 1 0.8878 -0.1676
-8 16 2 1.0992 -0.0490
-8 16 3 -1.5328 0.0796
-8 16 4 0.3050 0.0178
-8 16 5 1.3089 0.0552
-8 16 6 -1.2022 -0.0124
-8 16 7 -1.0409 0.0062
-8 16 8 -0.3172 0.0313
-8 16 9 2.4368 -0.0314
-8 16 10 1.2014 -0.0016
-8 16 11 -2.3173 -0.0095
-8 16 12 0.4706 0.0139
-8 16 13 1.2306 0.0245
-8 16 14 -0.1924 -0.0487
-8 16 15 0.0681 0.0068
-8 17 1 3.6896 -0.0973
-8 17 2 -0.2516 0.1253
-8 17 3 -2.4849 0.0257
-8 17 4 1.0474 0.0041
-8 17 5 0.6037 -0.0191
-8 17 6 -0.2501 -0.0866
-8 17 7 0.2684 0.0185
-8 17 8 -0.0536 -0.0107
-8 17 9 0.8912 -0.0138
-8 17 10 -0.2701 0.0223
-8 17 11 -0.4448 -0.0204
-8 17 12 0.3470 0.0489
-8 17 13 -2.5000 0.0035
-8 17 14 -0.7489 -0.0338
-8 18 1 -0.3524 0.2050
-8 18 2 -2.4309 0.0228
-8 18 3 0.2744 -0.0544
-8 18 4 2.6450 -0.0004
-8 18 5 -0.9930 -0.0472
-8 18 6 -1.6833 0.0075
-8 18 7 0.0579 0.0672
-8 18 8 0.7684 0.0188
-8 18 9 -0.8601 0.0254
-8 18 10 -1.4160 -0.0149
-8 18 11 0.8150 -0.0298
-8 18 12 0.0142 0.0231
-8 18 13 0.1963 -0.0422
-8 18 14 3.0445 -0.0184
-8 19 1 -0.4955 0.0041
-8 19 2 0.2762 -0.1499
-8 19 3 0.4672 0.0280
-8 19 4 -0.4927 -0.0270
-8 19 5 -1.8459 0.0027
-8 19 6 0.6845 0.0208
-8 19 7 1.4926 -0.0060
-8 19 8 0.2214 -0.0057
-8 19 9 -0.7826 -0.0404
-8 19 10 1.8216 -0.0406
-8 19 11 1.1030 -0.0008
-8 19 12 -1.7635 0.0479
-8 20 1 0.2575 -0.2228
-8 20 2 -0.1242 -0.0082
-8 20 3 -0.5133 0.0758
-8 20 4 0.4112 -0.0175
-8 20 5 -0.0379 0.0833
-8 20 6 0.6690 -0.0255
-8 20 7 1.1881 0.0505
-8 20 8 -0.4696 0.0050
-8 20 9 -1.8415 -0.0478
-8 20 10 0.2584 0.0349
-8 21 1 -1.5925 0.0052
-8 21 2 -0.3116 0.2755
-8 21 3 0.6867 -0.0048
-8 21 4 0.6788 -0.0169
-8 21 5 -0.6196 -0.0003
-8 21 6 0.7803 -0.0732
-8 21 7 0.0393 0.0113
-7 -25 1 0.5119 -0.0135
-7 -24 1 -1.0936 0.0235
-7 -24 2 1.5376 0.0799
-7 -24 3 -0.0508 0.0590
-7 -23 1 1.3126 0.0830
-7 -23 2 0.3609 0.0036
-7 -23 3 -2.5963 -0.0457
-7 -23 4 0.6208 -0.0825
-7 -23 5 1.3680 -0.0544
-7 -22 1 0.1327 -0.0236
-7 -22 2 -0.4761 -0.0823
-7 -22 3 1.3698 0.0057
-7 -22 4 1.5229 -0.0245
-7 -22 5 -1.2255 0.0244
-7 -22 6 -1.8030 0.0841
-7 -22 7 0.6571 -0.0030
-7 -21 1 0.3014 -0.1519
-7 -21 2 -0.3701 0.0392
-7 -21 3 -1.1388 0.0552
-7 -21 4 -0.8421 0.0090
-7 -21 5 -0.6433 0.0211
-7 -21 6 0.5018 -0.0045
-7 -21 7 2.1455 0.0105
-7 -21 8 -0.7926 -0.0330
-7 -20 1 -2.2810 0.1140
-7 -20 2 -0.5705 0.0944
-7 -20 3 1.8187 0.0257
-7 -20 4 1.4550 -0.0044
-7 -20 5 -0.2399 -0.0809
-7 -20 6 0.0063 0.0039
-7 -20 7 0.2867 0.0485
-7 -20 8 -0.5093 -0.0324
-7 -20 9 0.1103 -0.0026
-7 -20 10 -1.2689 -0.0020
-7 -19 1 -0.2130 0.1461
-7 -19 2 1.0274 -0.0777
-7 -19 3 -0.2840 -0.0047
-7 -19 4 -1.0315 -0.0712
-7 -19 5 -0.5760 -0.0296
-7 -19 6 -0.3924 0.0698
-7 -19 7 1.4870 0.0080
-7 -19 8 -0.7881 -0.0296
-7 -19 9 -1.5602 -0.0189
-7 -19 10 1.2935 0.0129
-7 -19 11 1.5824 0.0300
-7 -18 1 1.7772 -0.1403
-7 -18 2 0.1401 -0.0917
-7 -18 3 1.1447 0.0410
-7 -18 4 1.4839 -0.0174
-7 -18 5 -0.7023 0.0572
-7 -18 6 -0.6697 0.0065
-7 -18 7 1.3050 -0.0116
-7 -18 8 -1.0368 0.0081
-7 -18 9 1.1550 -0.0159
-7 -18 10 0.3039 -0.0111
-7 -18 11 -1.8601 0.0258
-7 -18 12 0.0286 0.0437
-7 -17 1 -0.9468 -0.1457
-7 -17 2 -0.8712 0.1182
-7 -17 3 -0.8364 0.0388
-7 -17 4 -1.4981 0.0190
-7 -17 5 -1.6029 0.0133
-7 -17 6 1.2251 -0.0826
-7 -17 7 2.6019 0.0248
-7 -17 8 -1.7650 0.0254
-7 -17 9 -2.1610 -0.0283
-7 -17 10 -0.7233 0.0215
-7 -17 11 2.1266 0.0239
-7 -17 12 1.0415 -0.0363
-7 -17 13 -0.4183 -0.0077
-7 -16 1 -0.5451 0.1543
-7 -16 2 -0.5991 0.0769
-7 -16 3 -0.9055 -0.0636
-7 -16 4 0.2350 0.0329
-7 -16 5 0.8985 -0.0865
-7 -16 6 1.9747 -0.0273
-7 -16 7 -0.8585 0.0884
-7 -16 8 -3.7270 -0.0197
-7 -16 9 2.0058 -0.0128
-7 -16 10 3.2779 -0.0068
-7 -16 11 -0.3981 -0.0211
-7 -16 12 -1.7131 0.0267
-7 -16 13 0.1622 -0.0311
-7 -16 14 -0.2095 -0.0459
-7 -15 1 0.7304 0.1139
-7 -15 2 -1.6215 -0.1396
-7 -15 3 -1.0852 0.0003
-7 -15 4 1.6063 -0.0147
-7 -15 5 2.2943 -0.0534
-7 -15 6 0.6094 0.0895
-7 -15 7 -1.9613 0.0117
-7 -15 8 -0.5174 -0.0058
-7 -15 9 2.2435 0.0081
-7 -15 10 -1.3086 -0.0293
-7 -15 11 -1.1271 0.0148
-7 -15 12 1.1603 -0.0023
-7 -15 13 0.4537 0.0205
-7 -15 14 -1.1028 0.0529
-7 -15 15 -0.7545 -0.0558
-7 -14 1 1.1561 -0.1645
-7 -14 2 -2.9372 -0.0407
-7 -14 3 -0.1522 0.0587
-7 -14 4 2.4083 -0.0263
-7 -14 5 0.6671 0.0693
-7 -14 6 -1.5109 0.0136
-7 -14 7 -2.0660 -0.0440
-7 -14 8 0.1487 0.0016
-7 -14 9 1.7653 -0.0231
-7 -14 10 -0.4192 0.0071
-7 -14 11 -0.5436 -0.0088
-7 -14 12 -0.1775 0.0241
-7 -14 13 -0.5599 0.0128
-7 -14 14 -0.7522 -0.0700
-7 -14 15 1.6920 0.0523
-7 -14 16 2.4435 0.0492
-7 -13 1 -1.8697 -0.0192
-7 -13 2 -2.7227 0.1218
-7 -13 3 3.2362 -0.0169
-7 -13 4 2.1411 0.0077
-7 -13 5 0.1875 0.0172
-7 -13 6 -1.3798 -0.0542
-7 -13 7 -2.0657 -0.0059
-7 -13 8 0.5599 0.0184
-7 -13 9 1.4913 0.0276
-7 -13 10 -1.7062 -0.0173
-7 -13 11 0.2704 -0.0239
-7 -13 12 2.4027 0.0178
-7 -13 13 -0.2394 -0.0220
-7 -13 14 -0.7118 0.0110
-7 -13 15 0.5873 -0.0170
-7 -13 16 -1.8044 -0.0382
-7 -13 17 -2.1831 0.1065
-7 -12 1 -0.0567 0.1440
-7 -12 2 0.7888 -0.0358
-7 -12 3 2.2559 -0.0679
-7 -12 4 -1.5952 0.0197
-7 -12 5 -0.6425 -0.0230
-7 -12 6 -1.9372 -0.0075
-7 -12 7 -0.5331 0.0213
-7 -12 8 2.9252 0.0242
-7 -12 9 0.6732 -0.0059
-7 -12 10 -1.9375 -0.0264
-7 -12 11 1.9763 -0.0076
-7 -12 12 -0.3689 0.0073
-7 -12 13 -1.8127 0.0316
-7 -12 14 0.5186 0.0062
-7 -12 15 0.4170 0.0518
-7 -12 16 0.9471 0.0189
-7 -12 17 1.0605 -0.1320
-7 -11 1 2.8873 -0.0598
-7 -11 2 1.7396 -0.0928
-7 -11 3 -0.0694 0.0459
-7 -11 4 -1.7488 0.0254
-7 -11 5 -0.1419 0.0010
-7 -11 6 -0.3551 0.0364
-7 -11 7 0.7515 0.0083
-7 -11 8 -0.3310 -0.0143
-7 -11 9 -0.7922 -0.0228
-7 -11 10 2.0894 -0.0108
-7 -11 11 1.7196 -0.0048
-7 -11 12 -2.4884 0.0348
-7 -11 13 0.0088 0.0163
-7 -11 14 -1.9220 0.0084
-7 -11 15 -0.0784 -0.0253
-7 -11 16 1.2683 -0.0947
-7 -11 17 -2.0771 0.1116
-7 -11 18 0.4266 0.0238
-7 -10 1 -1.7307 -0.0630
-7 -10 2 -5.3289 0.0738
-7 -10 3 -1.0235 0.0594
-7 -10 4 -0.7203 -0.0392
-7 -10 5 1.3927 0.0016
-7 -10 6 1.3349 0.0027
-7 -10 7 -0.3732 -0.0289
-7 -10 8 1.7291 -0.0225
-7 -10 9 1.8607 -0.0012
-7 -10 10 -2.6426 0.0236
-7 -10 11 -3.5764 0.0024
-7 -10 12 -0.3640 0.0046
-7 -10 13 1.4854 0.0058
-7 -10 14 0.7114 -0.0200
-7 -10 15 4.9311 -0.0531
-7 -10 16 -1.4131 0.0078
-7 -10 17 -1.9719 -0.0583
-7 -10 18 2.1355 -0.0734
-7 -10 19 -1.2345 0.3114
-7 -9 1 -3.7675 0.1014
-7 -9 2 4.6329 0.0454
-7 -9 3 6.1614 -0.0645
-7 -9 4 -2.3198 -0.0370
-7 -9 5 -0.0219 0.0204
-7 -9 6 0.3261 -0.0015
-7 -9 7 0.1119 -0.0120
-7 -9 8 -0.9889 -0.0108
-7 -9 9 -4.6360 0.0283
-7 -9 10 1.3242 0.0111
-7 -9 11 5.4476 -0.0160
-7 -9 12 0.3107 0.0181
-7 -9 13 -1.0217 -0.0067
-7 -9 14 -0.4632 -0.0041
-7 -9 15 -1.3902 0.0241
-7 -9 16 -4.1607 0.0044
-7 -9 17 2.4936 0.0516
-7 -9 18 1.4948 0.1370
-7 -9 19 -1.5815 -0.0771
-7 -8 1 2.9030 -0.0173
-7 -8 2 2.3318 -0.0894
-7 -8 3 -4.5641 -0.0248
-7 -8 4 -6.4188 0.0309
-7 -8 5 2.2641 0.0291
-7 -8 6 1.9561 0.0086
-7 -8 7 -0.6085 -0.0075
-7 -8 8 -1.5251 0.0161
-7 -8 9 2.3648 0.0121
-7 -8 10 3.9491 -0.0165
-7 -8 11 -4.9555 0.0116
-7 -8 12 -4.5264 -0.0083
-7 -8 13 2.5398 -0.0082
-7 -8 14 1.4305 0.0081
-7 -8 15 1.0464 -0.0381
-7 -8 16 0.1344 -0.0111
-7 -8 17 1.9433 0.0060
-7 -8 18 -0.9088 -0.0283
-7 -8 19 -1.1044 0.0158
-7 -8 20 0.8333 0.0005
-7 -7 1 -4.8240 -0.1303
-7 -7 2 0.2825 0.0292
-7 -7 3 -0.6730 0.0613
-7 -7 4 -0.0034 0.0338
-7 -7 5 4.5827 -0.0013
-7 -7 6 1.9040 -0.0428
-7 -7 7 -1.1731 -0.0043
-7 -7 8 -1.8436 0.0038
-7 -7 9 -0.9139 -0.0268
-7 -7 10 -0.2678 0.0174
-7 -7 11 0.4978 0.0067
-7 -7 12 3.7699 -0.0185
-7 -7 13 2.1229 0.0049
-7 -7 14 -1.7262 -0.0112
-7 -7 15 -1.8217 0.0195
-7 -7 16 -1.5122 0.0234
-7 -7 17 1.7202 -0.0037
-7 -7 18 -1.3552 0.0097
-7 -7 19 -1.1834 -0.0736
-7 -7 20 0.8636 -0.0678
-7 -6 1 4.5435 0.1041
-7 -6 2 4.2597 0.1030
-7 -6 3 -0.8684 -0.0065
-7 -6 4 -1.3645 -0.0181
-7 -6 5 1.9966 -0.0591
-7 -6 6 -1.2356 -0.0069
-7 -6 7 -2.8732 0.0425
-7 -6 8 0.2022 -0.0148
-7 -6 9 2.6762 0.0015
-7 -6 10 1.7781 0.0188
-7 -6 11 -2.5722 -0.0131
-7 -6 12 -1.4449 -0.0028
-7 -6 13 -0.1975 -0.0024
-7 -6 14 -2.5251 0.0062
-7 -6 15 -0.2101 0.0052
-7 -6 16 1.4033 -0.0001
-7 -6 17 0.7390 0.0089
-7 -6 18 -0.3064 -0.0155
-7 -6 19 1.7350 0.0374
-7 -6 20 0.7104 0.0586
-7 -5 1 -0.8968 0.1508
-7 -5 2 1.8856 -0.1019
-7 -5 3 -1.8202 -0.0397
-7 -5 4 -1.3300 -0.0386
-7 -5 5 1.3401 -0.0212
-7 -5 6 -0.2389 0.0622
-7 -5 7 0.6695 0.0094
-7 -5 8 0.2843 -0.0124
-7 -5 9 -2.7556 0.0094
-7 -5 10 -1.0648 0.0006
-7 -5 11 1.4724 -0.0045
-7 -5 12 3.2359 -0.0071
-7 -5 13 -1.4258 0.0034
-7 -5 14 -1.8128 0.0019
-7 -5 15 3.5727 0.0129
-7 -5 16 1.1770 0.0096
-7 -5 17 0.5937 -0.0496
-7 -5 18 -0.4844 -0.0115
-7 -5 19 -2.8593 -0.0018
-7 -5 20 -1.0461 -0.0305
-7 -5 21 0.7297 0.1097
-7 -4 1 7.5870 -0.1857
-7 -4 2 1.8521 -0.0872
-7 -4 3 -6.0873 0.0454
-7 -4 4 -1.4857 -0.0163
-7 -4 5 0.6700 0.0898
-7 -4 6 0.7937 0.0215
-7 -4 7 1.2751 -0.0452
-7 -4 8 -1.0654 0.0003
-7 -4 9 -0.3951 -0.0135
-7 -4 10 2.7186 -0.0069
-7 -4 11 -0.4657 -0.0059
-7 -4 12 -1.8589 0.0167
-7 -4 13 -1.3723 0.0080
-7 -4 14 1.6639 0.0005
-7 -4 15 1.3685 0.0157
-7 -4 16 -1.8073 -0.0199
-7 -4 17 -1.5410 -0.0108
-7 -4 18 -2.0097 0.0149
-7 -4 19 1.5612 0.0156
-7 -4 20 3.4916 0.0536
-7 -4 21 -0.0089 -0.0605
-7 -3 1 -2.5672 -0.1602
-7 -3 2 -6.2414 0.1598
-7 -3 3 -1.7235 0.0113
-7 -3 4 4.8780 0.0390
-7 -3 5 1.1210 0.0319
-7 -3 6 2.1296 -0.1039
-7 -3 7 -1.1046 0.0054
-7 -3 8 -4.1128 0.0127
-7 -3 9 -1.3923 -0.0133
-7 -3 10 2.0835 0.0184
-7 -3 11 1.9315 0.0056
-7 -3 12 2.2910 0.0072
-7 -3 13 -0.7193 -0.0163
-7 -3 14 -1.5266 -0.0032
-7 -3 15 1.0122 -0.0262
-7 -3 16 -0.2771 -0.0097
-7 -3 17 -1.3137 -0.0009
-7 -3 18 1.6544 0.0043
-7 -3 19 0.8104 0.0458
-7 -3 20 -2.0710 -0.0250
-7 -3 21 -1.5007 -0.0090
-7 -2 1 3.6411 0.2293
-7 -2 2 -0.0428 0.0818
-7 -2 3 1.6055 -0.0814
-7 -2 4 -0.8385 0.0373
-7 -2 5 -3.4992 -0.0933
-7 -2 6 2.7424 -0.0244
-7 -2 7 -1.2161 0.0636
-7 -2 8 1.1607 -0.0069
-7 -2 9 2.6608 0.0225
-7 -2 10 1.9479 0.0042
-7 -2 11 -1.4502 -0.0149
-7 -2 12 -2.8839 0.0104
-7 -2 13 -3.3214 -0.0025
-7 -2 14 0.5003 -0.0062
-7 -2 15 1.8860 0.0038
-7 -2 16 -3.2597 0.0439
-7 -2 17 0.2498 -0.0084
-7 -2 18 2.2755 0.0125
-7 -2 19 -0.9806 -0.0095
-7 -2 20 2.7970 -0.0311
-7 -2 21 1.5520 0.0247
-7 -2 22 -0.4200 -0.0875
-7 -1 1 -2.1358 0.1080
-7 -1 2 -4.6714 -0.1850
-7 -1 3 1.8222 -0.0045
-7 -1 4 0.0259 -0.0142
-7 -1 5 2.9132 -0.0357
-7 -1 6 3.6679 0.1004
-7 -1 7 -3.5140 0.0123
-7 -1 8 -1.9487 -0.0176
-7 -1 9 -4.5112 -0.0120
-7 -1 10 1.3992 -0.0316
-7 -1 11 1.6009 -0.0019
-7 -1 12 0.0295 0.0057
-7 -1 13 -0.7238 -0.0057
-7 -1 14 2.1120 0.0013
-7 -1 15 1.2063 0.0036
-7 -1 16 0.0991 0.0124
-7 -1 17 3.9947 -0.0247
-7 -1 18 -0.1322 -0.0019
-7 -1 19 -0.4090 -0.0081
-7 -1 20 -0.3910 0.0087
-7 -1 21 -5.5431 0.0024
-7 -1 22 -1.5233 0.0105
-7 0 1 -2.1484 -0.2146
-7 0 2 1.1529 -0.0310
-7 0 3 1.7392 0.0928
-7 0 4 -0.6093 -0.0276
-7 0 5 -0.7406 0.0768
-7 0 6 -2.6765 0.0071
-7 0 7 -1.6854 -0.0651
-7 0 8 1.2984 -0.0010
-7 0 9 2.3424 -0.0096
-7 0 10 6.1840 0.0143
-7 0 11 -3.9656 0.0154
-7 0 12 -3.0074 0.0206
-7 0 13 1.3820 0.0088
-7 0 14 3.0295 -0.0128
-7 0 15 -1.6035 0.0007
-7 0 16 -2.0274 0.0053
-7 0 17 -0.7799 -0.0494
-7 0 18 -2.8930 0.0105
-7 0 19 -0.5548 0.0029
-7 0 20 -1.0293 -0.0010
-7 0 21 1.2133 0.0569
-7 0 22 3.9766 -0.0220
-7 1 1 -7.0924 -0.0156
-7 1 2 -1.2091 0.1661
-7 1 3 0.9530 -0.0188
-7 1 4 -0.4333 -0.0028
-7 1 5 -2.0522 0.0243
-7 1 6 3.1172 -0.0838
-7 1 7 1.7850 0.0039
-7 1 8 -1.5743 0.0061
-7 1 9 -1.4598 0.0029
-7 1 10 -1.0347 0.0188
-7 1 11 -2.8339 -0.0096
-7 1 12 5.1110 0.0072
-7 1 13 1.6651 -0.0255
-7 1 14 -2.8551 -0.0123
-7 1 15 -3.9466 0.0072
-7 1 16 2.5070 -0.0085
-7 1 17 2.7080 0.0114
-7 1 18 0.4604 0.0475
-7 1 19 0.9010 -0.0154
-7 1 20 -0.1754 0.0639
-7 1 21 0.3613 -0.0123
-7 1 22 -0.6108 -0.1410
-7 2 1 2.6324 0.1682
-7 2 2 3.6188 -0.0334
-7 2 3 3.2628 -0.0739
-7 2 4 0.0504 0.0240
-7 2 5 0.6757 -0.0495
-7 2 6 0.6779 -0.0075
-7 2 7 -3.8608 0.0548
-7 2 8 0.3118 0.0054
-7 2 9 2.3661 0.0247
-7 2 10 2.9573 -0.0131
-7 2 11 -0.0094 -0.0008
-7 2 12 -0.3528 0.0051
-7 2 13 -4.3929 -0.0149
-7 2 14 -1.3733 0.0205
-7 2 15 2.1843 -0.0034
-7 2 16 3.5016 0.0116
-7 2 17 -2.3965 0.0047
-7 2 18 -1.2308 -0.0239
-7 2 19 -0.3145 0.0038
-7 2 20 -0.1258 -0.0121
-7 2 21 1.5682 -0.1133
-7 2 22 0.1419 0.0690
-7 3 1 -0.4807 -0.0689
-7 3 2 -0.8520 -0.1031
-7 3 3 0.2401 0.0412
-7 3 4 -4.4146 0.0019
-7 3 5 -4.5579 -0.0029
-7 3 6 0.6001 0.0434
-7 3 7 3.6039 -0.0027
-7 3 8 1.8464 -0.0185
-7 3 9 -1.7347 -0.0113
-7 3 10 -1.7666 -0.0142
-7 3 11 -4.3503 0.0079
-7 3 12 1.5064 -0.0157
-7 3 13 1.2827 0.0113
-7 3 14 2.1291 -0.0061
-7 3 15 1.2155 -0.0199
-7 3 16 -0.0366 0.0158
-7 3 17 -0.3372 -0.0253
-7 3 18 1.7509 0.0045
-7 3 19 -3.0773 0.0058
-7 3 20 -0.9762 -0.0157
-7 3 21 1.0003 0.0642
-7 3 22 -0.7947 0.0583
-7 4 1 -0.9896 -0.0930
-7 4 2 0.1487 0.0807
-7 4 3 1.1165 0.0468
-7 4 4 -1.0247 -0.0213
-7 4 5 4.2360 0.0171
-7 4 6 4.6404 -0.0039
-7 4 7 -2.1851 -0.0173
-7 4 8 -2.2405 -0.0111
-7 4 9 -0.3007 -0.0041
-7 4 10 -2.5098 0.0097
-7 4 11 1.3491 -0.0010
-7 4 12 7.0646 0.0058
-7 4 13 -1.9856 0.0061
-7 4 14 -0.9394 -0.0183
-7 4 15 -1.0694 0.0241
-7 4 16 -1.4588 0.0165
-7 4 17 -1.3905 0.0040
-7 4 18 -1.7323 0.0142
-7 4 19 -0.7293 -0.0038
-7 4 20 5.5447 0.0343
-7 4 21 1.8434 -0.0191
-7 4 22 -1.6755 -0.0733
-7 5 1 0.5056 0.1299
-7 5 2 1.0772 0.0495
-7 5 3 0.5625 -0.0651
-7 5 4 -3.6058 -0.0238
-7 5 5 -2.2922 0.0018
-7 5 6 -3.0150 -0.0217
-7 5 7 0.2265 -0.0077
-7 5 8 2.4602 0.0157
-7 5 9 -3.0615 0.0315
-7 5 10 -0.1963 0.0092
-7 5 11 7.8505 -0.0077
-7 5 12 0.0472 0.0027
-7 5 13 -7.5302 -0.0057
-7 5 14 0.2827 0.0100
-7 5 15 -1.3961 0.0055
-7 5 16 1.4388 -0.0107
-7 5 17 2.6509 -0.0228
-7 5 18 2.2949 -0.0459
-7 5 19 0.6556 0.0249
-7 5 20 -1.4861 0.0036
-7 5 21 -3.5194 -0.0563
-7 5 22 0.0350 0.0341
-7 6 1 -1.8429 0.0042
-7 6 2 -0.8195 -0.1009
-7 6 3 -2.3458 -0.0300
-7 6 4 -1.0367 0.0310
-7 6 5 4.5939 0.0195
-7 6 6 3.4833 0.0051
-7 6 7 2.5544 0.0189
-7 6 8 -0.9665 0.0159
-7 6 9 -2.1161 -0.0125
-7 6 10 2.5109 -0.0298
-7 6 11 0.4183 -0.0137
-7 6 12 -6.1145 -0.0012
-7 6 13 -1.3106 0.0085
-7 6 14 4.1143 0.0056
-7 6 15 1.2443 -0.0190
-7 6 16 2.3467 0.0017
-7 6 17 -1.6415 -0.0118
-7 6 18 -0.9669 0.0310
-7 6 19 -2.2384 0.0596
-7 6 20 -0.0681 -0.0310
-7 6 21 2.4273 0.0154
-7 6 22 0.1928 0.0211
-7 7 1 -2.1909 -0.1326
-7 7 2 0.9627 0.0064
-7 7 3 -0.7029 0.0432
-7 7 4 2.0676 0.0342
-7 7 5 0.6601 -0.0062
-7 7 6 -2.3458 -0.0196
-7 7 7 -0.8703 0.0083
-7 7 8 -2.1960 -0.0016
-7 7 9 -2.2317 -0.0192
-7 7 10 0.6708 -0.0015
-7 7 11 2.1868 0.0079
-7 7 12 0.3605 0.0133
-7 7 13 1.0549 0.0167
-7 7 14 0.6376 -0.0114
-7 7 15 -1.9032 -0.0155
-7 7 16 -0.7734 0.0038
-7 7 17 -0.0409 0.0016
-7 7 18 0.6456 0.0152
-7 7 19 -2.4133 -0.0184
-7 7 20 1.4108 -0.0078
-7 7 21 0.9062 -0.0120
-7 7 22 -0.8725 -0.0652
-7 8 1 1.0391 0.0996
-7 8 2 -0.6999 0.0974
-7 8 3 -0.6130 -0.0017
-7 8 4 2.8926 -0.0079
-7 8 5 0.2227 -0.0461
-7 8 6 -0.6940 0.0012
-7 8 7 -0.1746 0.0112
-7 8 8 -0.2606 -0.0205
-7 8 9 -0.0943 0.0014
-7 8 10 2.1775 0.0130
-7 8 11 1.3157 -0.0016
-7 8 12 -3.1942 0.0081
-7 8 13 -0.8083 0.0000
-7 8 14 0.6943 -0.0096
-7 8 15 0.4506 -0.0085
-7 8 16 1.3863 0.0137
-7 8 17 -0.8744 0.0241
-7 8 18 -0.0292 -0.0087
-7 8 19 1.6026 0.0243
-7 8 20 2.0088 0.0030
-7 8 21 -1.3639 -0.0752
-7 8 22 -1.0811 0.0452
-7 9 1 -2.3097 0.1430
-7 9 2 -1.9894 -0.1123
-7 9 3 2.5150 -0.0577
-7 9 4 0.5148 -0.0253
-7 9 5 -3.7095 -0.0029
-7 9 6 -1.5613 0.0590
-7 9 7 1.1895 0.0065
-7 9 8 0.0145 -0.0023
-7 9 9 -0.6725 0.0043
-7 9 10 2.4055 -0.0057
-7 9 11 0.3258 0.0011
-7 9 12 -1.1662 -0.0036
-7 9 13 1.2263 0.0017
-7 9 14 -0.2975 0.0030
-7 9 15 -0.4067 -0.0170
-7 9 16 -0.2084 0.0125
-7 9 17 0.2763 -0.0090
-7 9 18 0.9739 -0.0104
-7 9 19 -2.6583 0.0138
-7 9 20 -1.9616 -0.0853
-7 9 21 0.2460 0.0212
-7 10 1 -2.1379 -0.1667
-7 10 2 1.9598 -0.0857
-7 10 3 1.1725 0.0608
-7 10 4 -2.3995 0.0171
-7 10 5 0.8596 0.0591
-7 10 6 2.8900 0.0097
-7 10 7 0.5373 -0.0496
-7 10 8 -0.7183 -0.0133
-7 10 9 0.9976 0.0040
-7 10 10 0.9356 0.0109
-7 10 11 -2.0733 -0.0114
-7 10 12 -1.1209 0.0018
-7 10 13 0.1812 0.0216
-7 10 14 -0.4776 -0.0081
-7 10 15 0.3861 -0.0125
-7 10 16 0.6339 0.0008
-7 10 17 -0.8029 -0.0003
-7 10 18 -1.4293 0.0190
-7 10 19 1.5994 -0.0105
-7 10 20 2.6034 0.0053
-7 10 21 -0.8406 0.0779
-7 11 1 -3.1979 -0.1239
-7 11 2 1.3831 0.1452
-7 11 3 -0.3392 0.0286
-7 11 4 0.0533 0.0237
-7 11 5 1.7990 0.0050
-7 11 6 -1.6386 -0.0609
-7 11 7 -1.0352 -0.0127
-7 11 8 -0.4283 0.0044
-7 11 9 -0.5919 0.0066
-7 11 10 -0.3945 0.0018
-7 11 11 -0.3060 0.0018
-7 11 12 0.9961 0.0114
-7 11 13 -0.3007 -0.0117
-7 11 14 -1.5301 -0.0038
-7 11 15 1.8678 -0.0290
-7 11 16 1.5805 -0.0105
-7 11 17 -1.6976 0.0489
-7 11 18 1.0188 0.0181
-7 11 19 1.3271 -0.0046
-7 11 20 -3.1188 -0.0243
-7 11 21 -0.4977 -0.0312
-7 12 1 0.4938 0.2127
-7 12 2 3.1412 0.0718
-7 12 3 -1.3854 -0.0675
-7 12 4 -0.3518 0.0013
-7 12 5 0.1002 -0.0874
-7 12 6 -1.4221 -0.0067
-7 12 7 0.1142 0.0342
-7 12 8 -1.0163 0.0201
-7 12 9 1.7903 0.0371
-7 12 10 2.0726 -0.0020
-7 12 11 -0.5109 -0.0103
-7 12 12 -1.1247 -0.0109
-7 12 13 -0.6344 0.0025
-7 12 14 2.5134 -0.0008
-7 12 15 2.7710 -0.0162
-7 12 16 -3.4251 0.0605
-7 12 17 -2.3631 0.0219
-7 12 18 2.7592 -0.0350
-7 12 19 -0.1758 -0.0299
-7 12 20 -1.5501 -0.0475
-7 13 1 0.0075 0.1062
-7 13 2 0.6203 -0.1537
-7 13 3 -1.7118 -0.0230
-7 13 4 0.1804 -0.0125
-7 13 5 -0.4386 -0.0189
-7 13 6 0.0263 0.0927
-7 13 7 1.4821 0.0072
-7 13 8 0.5398 -0.0073
-7 13 9 2.0261 -0.0198
-7 13 10 -1.3552 -0.0346
-7 13 11 -2.6108 -0.0036
-7 13 12 0.8380 -0.0071
-7 13 13 1.6370 0.0026
-7 13 14 -1.1977 0.0152
-7 13 15 -1.9906 0.0068
-7 13 16 -0.5111 -0.0081
-7 13 17 2.0033 -0.0195
-7 13 18 0.4404 0.0098
-7 13 19 -2.1087 -0.0366
-7 13 20 -0.2135 0.0009
-7 14 1 2.2037 -0.1965
-7 14 2 0.5618 -0.0551
-7 14 3 -2.1248 0.0792
-7 14 4 0.2484 -0.0013
-7 14 5 1.9333 0.0528
-7 14 6 1.1296 0.0262
-7 14 7 -0.4837 -0.0533
-7 14 8 -1.4798 -0.0019
-7 14 9 0.1684 -0.0042
-7 14 10 -1.4651 -0.0005
-7 14 11 -0.4261 0.0081
-7 14 12 1.1606 0.0196
-7 14 13 -1.3897 0.0256
-7 14 14 0.7427 -0.0011
-7 14 15 3.9040 -0.0324
-7 14 16 -1.8728 0.0182
-7 14 17 -2.3300 0.0215
-7 14 18 0.9673 -0.0394
-7 14 19 1.2654 -0.0194
-7 15 1 0.8803 -0.0111
-7 15 2 0.0028 0.1585
-7 15 3 -0.7042 0.0128
-7 15 4 1.3078 -0.0002
-7 15 5 -0.1426 -0.0071
-7 15 6 -1.4059 -0.0623
-7 15 7 -0.4782 -0.0155
-7 15 8 -1.6384 0.0137
-7 15 9 1.1898 0.0016
-7 15 10 0.5652 -0.0003
-7 15 11 0.6245 0.0050
-7 15 12 1.3788 0.0039
-7 15 13 -0.1229 -0.0231
-7 15 14 1.0805 -0.0141
-7 15 15 -2.3858 -0.0025
-7 15 16 -3.8183 0.0201
-7 15 17 3.5491 -0.0284
-7 15 18 1.9408 -0.0027
-7 16 1 0.7751 0.1429
-7 16 2 -0.2246 -0.0216
-7 16 3 -2.6688 -0.0777
-7 16 4 0.6894 0.0059
-7 16 5 0.3923 -0.0487
-7 16 6 0.5753 0.0155
-7 16 7 -0.7605 0.0391
-7 16 8 0.2753 0.0092
-7 16 9 3.8426 0.0174
-7 16 10 -1.6170 -0.0117
-7 16 11 -1.4578 0.0022
-7 16 12 -0.3802 0.0093
-7 16 13 -1.6705 0.0020
-7 16 14 1.6870 0.0054
-7 16 15 0.4224 -0.0063
-7 16 16 0.2156 0.0300
-7 16 17 1.5245 -0.0060
-7 16 18 -1.4334 0.0084
-7 17 1 1.2512 -0.0180
-7 17 2 -0.7272 -0.1134
-7 17 3 -0.6426 0.0271
-7 17 4 2.2383 0.0246
-7 17 5 -0.2368 -0.0061
-7 17 6 0.0595 0.0381
-7 17 7 -0.2236 0.0049
-7 17 8 0.5009 -0.0043
-7 17 9 -1.0404 -0.0092
-7 17 10 -2.6823 -0.0410
-7 17 11 2.6397 -0.0011
-7 17 12 1.1231 0.0081
-7 17 13 -0.5265 -0.0057
-7 17 14 1.1110 -0.0117
-7 17 15 -2.8952 0.0096
-7 17 16 -0.8042 0.0246
-7 17 17 2.0482 -0.0477
-7 18 1 0.4988 -0.0507
-7 18 2 -2.4143 0.0463
-7 18 3 -0.0543 0.0568
-7 18 4 1.7207 -0.0038
-7 18 5 -0.3942 -0.0091
-7 18 6 -0.8816 -0.0036
-7 18 7 -1.1233 -0.0144
-7 18 8 0.5248 -0.0302
-7 18 9 0.1559 0.0086
-7 18 10 0.1796 0.0030
-7 18 11 1.4267 0.0372
-7 18 12 -2.5662 0.0217
-7 18 13 -1.0856 -0.0116
-7 18 14 2.2895 -0.0031
-7 18 15 0.0531 0.0086
-7 18 16 1.5669 -0.0036
-7 19 1 -1.7380 0.0568
-7 19 2 -0.4742 0.0132
-7 19 3 1.9965 -0.0337
-7 19 4 0.5477 -0.0057
-7 19 5 -2.2166 -0.0205
-7 19 6 -0.2662 0.0086
-7 19 7 2.1046 0.0140
-7 19 8 0.1851 -0.0070
-7 19 9 -1.8665 0.0400
-7 19 10 1.1944 -0.0324
-7 19 11 1.8635 -0.0048
-7 19 12 -1.6912 -0.0168
-7 19 13 1.1897 -0.0164
-7 19 14 0.9442 -0.0034
-7 19 15 -2.6008 -0.0011
-7 20 1 0.9876 -0.0211
-7 20 2 0.9113 -0.0240
-7 20 3 0.7728 -0.0361
-7 20 4 -0.9066 0.0152
-7 20 5 -0.5020 -0.0134
-7 20 6 1.3373 0.0286
-7 20 7 0.3278 -0.0003
-7 20 8 -1.7860 -0.0047
-7 20 9 0.5616 0.0258
-7 20 10 1.5579 -0.0525
-7 20 11 -1.2772 0.0389
-7 20 12 -1.8381 0.0070
-7 20 13 0.8953 0.0059
-7 21 1 0.7606 -0.0865
-7 21 2 -0.7119 0.0839
-7 21 3 -0.1011 0.0362
-7 21 4 0.3513 0.0811
-7 21 5 -0.5382 -0.0050
-7 21 6 0.0607 0.0419
-7 21 7 0.4203 -0.0182
-7 21 8 -1.0423 -0.0748
-7 21 9 -0.0145 -0.0305
-7 21 10 0.0061 0.0055
-7 21 11 0.4213 0.0651
-7 21 12 -0.1335 -0.0463
-7 22 1 0.1641 0.3789
-7 22 2 -0.6919 0.0737
-7 22 3 1.2826 -0.1152
-7 22 4 -1.0061 -0.0245
-7 22 5 -1.4890 -0.1129
-7 22 6 1.2703 0.0056
-7 22 7 -0.1311 -0.0975
-7 22 8 -1.0471 0.0001
-7 22 9 1.0497 0.1593
-6 -25 1 0.5769 0.1669
-6 -25 2 1.2649 -0.0672
-6 -25 3 1.3691 0.0381
-6 -24 1 1.6251 -0.0943
-6 -24 2 -0.9999 -0.0703
-6 -24 3 -0.6813 0.0404
-6 -24 4 -1.3665 -0.0603
-6 -24 5 2.4098 0.0740
-6 -23 1 -0.9446 -0.1491
-6 -23 2 -0.9050 0.0647
-6 -23 3 0.4311 -0.0043
-6 -23 4 0.1027 0.0115
-6 -23 5 1.8101 0.0244
-6 -23 6 -2.0452 -0.0247
-6 -23 7 0.1544 0.0348
-6 -22 1 -0.5544 0.0955
-6 -22 2 -0.1266 0.1002
-6 -22 3 1.2465 -0.0249
-6 -22 4 1.5026 0.0175
-6 -22 5 -0.4930 -0.0532
-6 -22 6 -2.8817 0.0383
-6 -22 7 1.4409 -0.0082
-6 -22 8 0.7062 -0.0472
-6 -21 1 -0.1568 0.1262
-6 -21 2 1.9464 -0.0931
-6 -21 3 0.5582 -0.0140
-6 -21 4 -1.3077 -0.0081
-6 -21 5 -2.1672 -0.0276
-6 -21 6 -0.4710 0.0544
-6 -21 7 3.3497 -0.0401
-6 -21 8 -0.4342 0.0205
-6 -21 9 -1.6624 -0.0147
-6 -21 10 -0.0702 -0.0138
-6 -20 1 0.3504 -0.1155
-6 -20 2 -1.4339 -0.0393
-6 -20 3 -1.6478 0.0604
-6 -20 4 1.8834 -0.0447
-6 -20 5 -0.8055 0.0136
-6 -20 6 1.3195 0.0270
-6 -20 7 2.1109 -0.0172
-6 -20 8 -2.6515 0.0109
-6 -20 9 0.4347 -0.0144
-6 -20 10 1.0254 0.0380
-6 -20 11 -1.1850 -0.0248
-6 -19 1 -0.6872 -0.0365
-6 -19 2 0.3450 0.1013
-6 -19 3 2.4580 -0.0118
-6 -19 4 -0.3967 -0.0164
-6 -19 5 -3.4875 0.0293
-6 -19 6 2.0025 -0.0239
-6 -19 7 -0.1133 -0.0112
-6 -19 8 -1.2912 0.0160
-6 -19 9 0.5395 -0.0091
-6 -19 10 -1.1657 -0.0129
-6 -19 11 0.4548 0.0130
-6 -19 12 1.0893 0.0040
-6 -18 1 4.3951 0.0871
-6 -18 2 -1.5446 -0.0099
-6 -18 3 -1.2445 -0.0674
-6 -18 4 0.0802 0.0237
-6 -18 5 0.9715 -0.0320
-6 -18 6 3.0144 -0.0177
-6 -18 7 -0.6933 0.0484
-6 -18 8 -1.5930 0.0145
-6 -18 9 -0.1934 -0.0261
-6 -18 10 1.7732 0.0139
-6 -18 11 0.4706 0.0060
-6 -18 12 -0.9602 -0.0205
-6 -18 13 0.2049 0.0306
-6 -18 14 -0.6519 -0.0133
-6 -17 1 -1.2540 -0.0281
-6 -17 2 -4.2834 -0.0861
-6 -17 3 2.6792 0.0185
-6 -17 4 0.1105 0.0288
-6 -17 5 -1.4202 -0.0266
-6 -17 6 1.1156 0.0483
-6 -17 7 -2.5261 0.0117
-6 -17 8 -0.2600 -0.0129
-6 -17 9 2.2081 -0.0021
-6 -17 10 -0.6754 -0.0156
-6 -17 11 -2.1784 -0.0034
-6 -17 12 0.9287 0.0089
-6 -17 13 0.5116 -0.0227
-6 -17 14 0.0666 0.0207
-6 -16 1 -3.8121 -0.0707
-6 -16 2 0.1556 0.0287
-6 -16 3 1.0743 0.0629
-6 -16 4 -0.5644 -0.0093
-6 -16 5 3.0537 0.0039
-6 -16 6 0.2587 -0.0002
-6 -16 7 -3.6760 -0.0182
-6 -16 8 1.3561 0.0205
-6 -16 9 0.1045 -0.0450
-6 -16 10 -0.5922 -0.0188
-6 -16 11 1.6600 0.0139
-6 -16 12 1.0959 -0.0068
-6 -16 13 -0.8835 0.0202
-6 -16 14 0.0352 -0.0078
-6 -16 15 -1.4004 -0.0391
-6 -15 1 1.7527 0.0953
-6 -15 2 -0.5565 0.0479
-6 -15 3 -0.2495 -0.0334
-6 -15 4 2.0278 -0.0324
-6 -15 5 0.4059 -0.0048
-6 -15 6 -3.7398 -0.0088
-6 -15 7 -0.3077 0.0095
-6 -15 8 3.7060 -0.0053
-6 -15 9 0.5102 0.0048
-6 -15 10 -0.1225 0.0236
-6 -15 11 -0.8063 -0.0049
-6 -15 12 -0.6266 0.0430
-6 -15 13 -0.2433 0.0027
-6 -15 14 0.0355 0.0098
-6 -15 15 -0.7653 0.0445
-6 -15 16 1.4713 -0.0907
-6 -14 1 1.1256 0.0020
-6 -14 2 -2.2563 -0.0925
-6 -14 3 1.6866 -0.0353
-6 -14 5 -0.9487 0.0405
-6 -14 6 -1.6700 0.0088
-6 -14 7 0.3082 -0.0080
-6 -14 8 1.6412 0.0330
-6 -14 9 -0.8146 -0.0036
-6 -14 10 -1.8630 -0.0527
-6 -14 11 -0.6415 0.0124
-6 -14 12 0.5827 0.0122
-6 -14 13 -0.4305 -0.0243
-6 -14 14 -0.0864 -0.0025
-6 -14 15 0.5976 -0.0730
-6 -14 16 2.0276 0.0405
-6 -14 17 -0.9624 0.1042
-6 -13 1 -3.4911 -0.1612
-6 -13 2 0.0100 0.0171
-6 -13 3 2.4853 0.0383
-6 -13 4 -1.0047 0.0478
-6 -13 5 -1.5210 0.0312
-6 -13 6 -1.0466 -0.0542
-6 -13 7 1.2421 -0.0018
-6 -13 8 2.0808 0.0034
-6 -13 9 -3.8400 -0.0335
-6 -13 10 -1.5337 0.0065
-6 -13 11 3.3285 0.0108
-6 -13 12 2.1019 0.0042
-6 -13 13 0.0766 0.0090
-6 -13 14 0.4532 -0.0158
-6 -13 15 0.0950 0.0104
-6 -13 16 -1.3596 0.0110
-6 -13 17 -3.3013 -0.0720
-6 -13 18 0.9027 0.0857
-6 -12 1 2.1493 0.1007
-6 -12 2 2.5871 0.1045
-6 -12 3 -2.7067 -0.0106
-6 -12 4 -1.7337 0.0183
-6 -12 5 1.4122 -0.0669
-6 -12 6 -0.1746 -0.0304
-6 -12 7 0.3868 0.0316
-6 -12 8 -1.3738 -0.0027
-6 -12 9 -0.5185 0.0090
-6 -12 10 5.7760 -0.0085
-6 -12 11 0.5100 0.0111
-6 -12 12 -4.1355 0.0202
-6 -12 13 -1.6744 0.0011
-6 -12 14 -0.2688 0.0157
-6 -12 15 -0.3731 -0.0070
-6 -12 16 0.2844 0.0209
-6 -12 17 1.5980 0.0137
-6 -12 18 2.7784 -0.0619
-6 -11 1 -1.3394 0.1793
-6 -11 2 -0.3596 -0.0884
-6 -11 3 -1.8558 -0.0221
-6 -11 4 2.3990 -0.0438
-6 -11 5 1.5022 -0.0229
-6 -11 6 -1.1467 0.0806
-6 -11 7 0.1867 0.0073
-6 -11 8 0.2545 -0.0101
-6 -11 9 0.4951 0.0060
-6 -11 10 -0.4379 0.0045
-6 -11 11 -3.8613 -0.0039
-6 -11 12 1.3783 -0.0130
-6 -11 13 3.0109 0.0195
-6 -11 14 -0.3500 -0.0315
-6 -11 15 0.0085 -0.0233
-6 -11 16 -0.0935 -0.0045
-6 -11 17 -1.0369 -0.0448
-6 -11 18 -0.6478 0.1294
-6 -11 19 -0.1117 0.0598
-6 -10 1 3.3802 -0.1567
-6 -10 2 -0.3070 -0.1023
-6 -10 3 -4.5180 0.0329
-6 -10 4 0.5039 -0.0226
-6 -10 5 0.5262 0.0935
-6 -10 6 0.3466 0.0134
-6 -10 7 0.4171 -0.0692
-6 -10 8 -1.9972 -0.0078
-6 -10 9 1.3817 0.0016
-6 -10 10 2.8658 -0.0133
-6 -10 11 -2.7264 -0.0054
-6 -10 12 0.3880 0.0283
-6 -10 13 -1.0502 -0.0058
-6 -10 14 -1.1597 -0.0144
-6 -10 15 1.6073 0.0073
-6 -10 16 -0.5948 -0.0189
-6 -10 17 1.0600 0.0160
-6 -10 18 1.5841 -0.0337
-6 -10 19 -0.3374 -0.1047
-6 -10 20 -1.5074 0.1536
-6 -9 1 -4.9927 -0.1821
-6 -9 2 -2.9352 0.1396
-6 -9 3 3.7142 0.0273
-6 -9 4 5.2255 0.0218
-6 -9 5 0.7084 0.0343
-6 -9 6 -0.5321 -0.0962
-6 -9 7 -1.9880 -0.0069
-6 -9 8 -1.3022 0.0286
-6 -9 9 2.5874 0.0019
-6 -9 10 -3.0336 0.0124
-6 -9 11 -2.6828 0.0171
-6 -9 12 5.7522 -0.0138
-6 -9 13 -0.5546 -0.0078
-6 -9 14 0.7538 0.0012
-6 -9 15 -0.5384 -0.0072
-6 -9 16 -2.1220 0.0383
-6 -9 17 2.4028 0.0186
-6 -9 18 -1.3623 0.0910
-6 -9 19 -0.8745 0.0709
-6 -9 20 0.1175 -0.1783
-6 -8 1 4.1813 0.1971
-6 -8 2 10.3155 0.0953
-6 -8 3 -0.3324 -0.0758
-6 -8 4 -6.5485 0.0276
-6 -8 5 -2.8956 -0.0728
-6 -8 6 0.4043 -0.0214
-6 -8 7 -0.5615 0.0735
-6 -8 8 -0.4440 -0.0059
-6 -8 9 2.4266 0.0075
-6 -8 10 0.8858 0.0115
-6 -8 11 1.7209 -0.0111
-6 -8 12 -1.2804 -0.0128
-6 -8 13 -4.0215 0.0070
-6 -8 14 2.5557 -0.0089
-6 -8 15 -2.1929 0.0189
-6 -8 16 1.3896 -0.0112
-6 -8 17 2.1200 -0.0279
-6 -8 18 -2.7803 -0.0073
-6 -8 19 0.7334 -0.1717
-6 -8 20 -0.8024 0.0475
-6 -8 21 1.1415 0.2868
-6 -7 1 2.4024 0.1290
-6 -7 2 -2.9177 -0.1750
-6 -7 3 -9.5626 -0.0081
-6 -7 4 -0.4606 -0.0086
-6 -7 5 6.2116 -0.0391
-6 -7 6 3.4709 0.0939
-6 -7 7 -1.0861 0.0086
-6 -7 8 -0.7090 -0.0298
-6 -7 9 1.7235 -0.0099
-6 -7 10 -3.3996 -0.0245
-6 -7 11 -1.8661 -0.0017
-6 -7 12 2.1158 -0.0037
-6 -7 13 2.3215 0.0095
-6 -7 14 0.6679 0.0052
-6 -7 15 -2.6147 0.0217
-6 -7 16 2.6290 -0.0064
-6 -7 17 -0.4068 -0.0132
-6 -7 18 -1.3630 -0.0129
-6 -7 19 0.6224 0.0015
-6 -7 20 0.1211 0.0864
-6 -7 21 1.7736 -0.0595
-6 -6 1 1.7289 -0.2021
-6 -6 2 3.3263 -0.0504
-6 -6 3 -0.2230 0.1014
-6 -6 4 5.1072 -0.0357
-6 -6 5 1.7756 0.0625
-6 -6 6 -3.8316 0.0236
-6 -6 7 -3.6731 -0.0564
-6 -6 8 -0.4753 -0.0173
-6 -6 9 1.3030 -0.0199
-6 -6 10 0.9878 0.0275
-6 -6 11 4.6541 0.0192
-6 -6 12 -0.6105 0.0066
-6 -6 13 -4.3229 0.0083
-6 -6 14 -0.7195 -0.0188
-6 -6 15 -0.0133 0.0062
-6 -6 16 0.9739 -0.0390
-6 -6 17 -1.8629 -0.0125
-6 -6 18 -0.8264 0.0513
-6 -6 19 1.2359 0.0260
-6 -6 20 1.3094 0.0777
-6 -6 21 -0.5935 0.0091
-6 -5 1 7.7314 -0.0453
-6 -5 2 -0.5884 0.1502
-6 -5 3 -4.1366 -0.0121
-6 -5 4 -1.3055 -0.0061
-6 -5 5 -2.6865 0.0368
-6 -5 6 1.4541 -0.0718
-6 -5 7 3.7406 -0.0116
-6 -5 8 0.7717 0.0143
-6 -5 9 -0.3934 0.0177
-6 -5 10 -1.3823 0.0235
-6 -5 11 -1.2689 0.0012
-6 -5 12 -3.0973 0.0080
-6 -5 13 0.1251 -0.0328
-6 -5 14 2.4888 -0.0108
-6 -5 15 0.6757 0.0260
-6 -5 16 0.7219 -0.0115
-6 -5 17 1.0848 0.0213
-6 -5 18 1.8358 0.0022
-6 -5 19 0.0941 -0.0416
-6 -5 20 -1.6295 -0.0254
-6 -5 21 -0.9146 -0.0993
-6 -5 22 0.3614 0.0215
-6 -4 1 6.0232 0.1478
-6 -4 2 -1.0203 -0.0006
-6 -4 3 -3.5540 -0.0702
-6 -4 4 0.3303 0.0326
-6 -4 5 2.9872 -0.0482
-6 -4 6 1.9655 -0.0186
-6 -4 7 -3.0199 0.0514
-6 -4 8 -4.8297 0.0099
-6 -4 9 -0.0067 -0.0058
-6 -4 10 3.0117 -0.0083
-6 -4 11 3.3233 -0.0032
-6 -4 12 -1.4982 -0.0204
-6 -4 13 -0.9106 -0.0167
-6 -4 14 3.1517 0.0221
-6 -4 15 0.5865 0.0156
-6 -4 16 -1.6407 -0.0094
-6 -4 17 -0.9154 0.0118
-6 -4 18 -3.2939 0.0071
-6 -4 19 -1.2604 -0.0072
-6 -4 20 2.3310 0.0571
-6 -4 21 0.8739 0.0372
-6 -4 22 -0.7071 -0.0509
-6 -3 1 1.0162 -0.0190
-6 -3 2 -9.9817 -0.1125
-6 -3 3 -3.7280 0.0295
-6 -3 4 3.7975 0.0172
-6 -3 5 1.2243 -0.0224
-6 -3 6 0.0653 0.0429
-6 -3 7 1.0833 0.0073
-6 -3 8 -0.5511 -0.0178
-6 -3 9 1.9568 -0.0163
-6 -3 10 1.0255 0.0006
-6 -3 11 -1.6475 0.0083
-6 -3 12 -2.9924 0.0045
-6 -3 13 2.6219 0.0025
-6 -3 14 1.8367 0.0001
-6 -3 15 -4.7872 0.0033
-6 -3 16 -1.2196 -0.0149
-6 -3 17 1.2573 -0.0009
-6 -3 18 0.5257 -0.0290
-6 -3 19 5.1317 -0.0233
-6 -3 20 -0.1249 0.0322
-6 -3 21 -4.2130 -0.0774
-6 -3 22 0.0493 -0.0191
-6 -2 1 -1.6680 -0.1100
-6 -2 2 -0.1846 0.0484
-6 -2 3 8.2141 0.0591
-6 -2 4 2.4747 -0.0307
-6 -2 5 -1.7160 0.0107
-6 -2 6 0.5828 0.0095
-6 -2 7 -2.6865 -0.0253
-6 -2 8 -4.0665 -0.0111
-6 -2 9 3.1110 -0.0034
-6 -2 10 2.3314 0.0162
-6 -2 11 0.3107 0.0014
-6 -2 12 -1.3823 0.0004
-6 -2 13 -0.8873 0.0035
-6 -2 14 -2.1383 -0.0016
-6 -2 15 0.8363 0.0069
-6 -2 16 3.3447 0.0115
-6 -2 17 -0.7159 0.0016
-6 -2 18 -0.2271 -0.0185
-6 -2 19 0.6864 0.0401
-6 -2 20 -4.3410 0.0433
-6 -2 21 0.5416 -0.0087
-6 -2 22 3.5082 0.0349
-6 -2 23 0.1228 -0.0521
-6 -1 1 1.9975 0.1011
-6 -1 2 -2.2372 0.0770
-6 -1 3 -1.4049 -0.0462
-6 -1 4 -4.2450 -0.0188
-6 -1 5 0.4948 0.0127
-6 -1 6 0.7121 -0.0210
-6 -1 7 0.2959 -0.0040
-6 -1 8 1.8341 0.0143
-6 -1 9 1.8230 0.0161
-6 -1 10 -2.9018 0.0056
-6 -1 11 -2.5681 -0.0112
-6 -1 12 -1.6308 0.0094
-6 -1 13 1.7812 -0.0145
-6 -1 14 2.9595 -0.0180
-6 -1 15 0.7116 0.0223
-6 -1 16 -2.4325 -0.0190
-6 -1 17 -0.0553 -0.0281
-6 -1 18 2.2821 0.0218
-6 -1 19 1.0525 0.0129
-6 -1 20 -1.4585 -0.0176
-6 -1 21 0.4609 -0.0293
-6 -1 22 -0.6860 -0.0551
-6 -1 23 -1.5204 0.0038
-6 0 1 -5.9529 0.0422
-6 0 2 -1.6866 -0.1019
-6 0 3 4.5078 -0.0494
-6 0 4 2.4942 0.0190
-6 0 5 1.1288 0.0101
-6 0 6 -0.9315 0.0022
-6 0 7 0.1665 0.0076
-6 0 8 -4.5778 0.0041
-6 0 9 -0.2812 0.0052
-6 0 10 2.2827 -0.0189
-6 0 11 1.4550 -0.0039
-6 0 12 0.8771 0.0120
-6 0 13 2.1507 -0.0082
-6 0 14 -1.0188 0.0188
-6 0 15 -2.1002 0.0026
-6 0 16 1.2494 -0.0306
-6 0 17 1.0749 0.0300
-6 0 18 -2.1937 0.0098
-6 0 19 -1.5844 -0.0146
-6 0 20 -2.8187 0.0198
-6 0 21 1.0897 -0.0226
-6 0 22 2.1179 0.0060
-6 0 23 0.9319 0.0762
-6 1 1 -2.0363 -0.1690
-6 1 2 3.3546 -0.0038
-6 1 3 2.4424 0.0616
-6 1 4 -3.6265 0.0411
-6 1 5 -4.4717 0.0092
-6 1 6 -0.2971 -0.0183
-6 1 7 0.8019 -0.0060
-6 1 8 -0.8265 0.0050
-6 1 9 6.0291 -0.0123
-6 1 10 -2.1449 -0.0166
-6 1 11 -2.6961 0.0141
-6 1 12 2.3322 -0.0020
-6 1 13 0.3392 0.0007
-6 1 14 -3.6758 -0.0040
-6 1 15 -0.2650 -0.0164
-6 1 16 0.5177 0.0082
-6 1 17 -1.2516 0.0174
-6 1 18 1.3939 0.0020
-6 1 19 1.9606 0.0021
-6 1 20 -0.1118 -0.0208
-6 1 21 2.2668 -0.0037
-6 1 22 -0.9108 0.0302
-6 1 23 -1.0431 -0.0416
-6 2 1 1.8683 0.0721
-6 2 2 2.3178 0.1282
-6 2 3 -0.2553 0.0007
-6 2 4 -3.9573 -0.0040
-6 2 5 1.5108 -0.0573
-6 2 6 5.5457 -0.0267
-6 2 7 0.1051 0.0192
-6 2 8 -1.4247 -0.0001
-6 2 9 1.3954 0.0073
-6 2 10 -3.6312 0.0199
-6 2 11 4.2086 0.0075
-6 2 12 1.5777 0.0040
-6 2 13 -4.8152 0.0066
-6 2 14 -2.2715 -0.0173
-6 2 15 3.5151 0.0114
-6 2 16 1.4520 -0.0013
-6 2 17 0.9255 0.0084
-6 2 18 0.1177 0.0043
-6 2 19 -2.5526 -0.0327
-6 2 20 -0.6796 0.0035
-6 2 21 1.7144 0.0127
-6 2 22 -0.2223 -0.0094
-6 2 23 0.4104 0.0132
-6 3 1 5.4645 0.1870
-6 3 2 -0.9857 -0.0791
-6 3 3 -1.6265 -0.0564
-6 3 4 -2.1556 -0.0387
-6 3 5 1.2374 -0.0308
-6 3 6 -1.5174 0.0697
-6 3 7 -2.2030 0.0179
-6 3 8 2.0533 -0.0027
-6 3 9 1.4948 0.0102
-6 3 10 -3.9291 -0.0210
-6 3 11 0.9630 -0.0160
-6 3 12 -2.3396 -0.0040
-6 3 13 -1.3507 -0.0106
-6 3 14 2.8347 0.0010
-6 3 15 3.1408 0.0111
-6 3 16 -1.8178 -0.0133
-6 3 17 0.2642 0.0081
-6 3 18 -0.4023 -0.0203
-6 3 19 -0.7742 -0.0083
-6 3 20 1.2534 0.0136
-6 3 21 -0.5276 0.0176
-6 3 22 -2.6252 0.0285
-6 3 23 -0.2599 -0.0668
-6 4 1 -5.5894 -0.1734
-6 4 2 -4.3370 -0.1214
-6 4 3 -2.2347 0.0337
-6 4 4 -1.6671 0.0012
-6 4 5 3.2540 0.0735
-6 4 6 4.7307 0.0243
-6 4 7 1.6068 -0.0453
-6 4 8 -0.9877 0.0018
-6 4 9 -3.3491 -0.0171
-6 4 10 -3.5325 -0.0103
-6 4 11 5.7444 0.0042
-6 4 12 1.6503 0.0065
-6 4 13 -0.2276 0.0121
-6 4 14 0.7420 -0.0012
-6 4 15 -0.7736 -0.0011
-6 4 16 -2.0650 -0.0076
-6 4 17 1.6284 0.0033
-6 4 18 -2.9463 0.0180
-6 4 19 -1.4968 0.0185
-6 4 20 2.0299 0.0049
-6 4 21 1.3318 0.0184
-6 4 22 1.5161 -0.0439
-6 4 23 1.3994 -0.0333
-6 5 1 -0.0823 -0.1662
-6 5 2 0.5132 0.1505
-6 5 3 1.0329 0.0382
-6 5 4 2.7804 0.0311
-6 5 5 4.6050 0.0191
-6 5 6 -4.5784 -0.0829
-6 5 7 -6.3376 -0.0101
-6 5 8 1.4274 0.0053
-6 5 9 -1.9601 0.0014
-6 5 10 0.5791 0.0148
-6 5 11 8.1086 0.0013
-6 5 12 -3.2940 0.0267
-6 5 13 -3.3869 0.0012
-6 5 14 0.0176 -0.0043
-6 5 15 -0.3952 0.0078
-6 5 16 -0.2036 -0.0135
-6 5 17 2.0088 0.0097
-6 5 18 -0.7270 0.0072
-6 5 19 2.2540 -0.0177
-6 5 20 0.9833 -0.0064
-6 5 21 -1.5368 -0.0297
-6 5 22 -2.1847 -0.0440
-6 5 23 -1.7619 0.0306
-6 6 1 -3.5613 0.2153
-6 6 2 -2.4837 0.0806
-6 6 3 -2.3095 -0.0819
-6 6 4 1.8464 0.0209
-6 6 5 -0.4673 -0.0810
-6 6 6 -3.8550 -0.0134
-6 6 7 4.9987 0.0680
-6 6 8 3.9773 0.0076
-6 6 9 -3.5984 0.0204
-6 6 10 5.3546 -0.0129
-6 6 11 2.0383 -0.0016
-6 6 12 -9.3056 -0.0040
-6 6 13 0.2908 -0.0227
-6 6 14 2.5623 -0.0025
-6 6 15 0.2325 -0.0207
-6 6 16 0.4123 -0.0069
-6 6 17 1.9282 0.0122
-6 6 18 -2.5517 0.0003
-6 6 19 -1.3195 -0.0042
-6 6 20 0.3876 -0.0126
-6 6 21 1.5590 -0.0059
-6 6 22 0.1228 0.0677
-6 6 23 0.0918 0.0653
-6 7 1 -1.6586 0.1121
-6 7 2 -1.0938 -0.1812
-6 7 3 3.3797 -0.0143
-6 7 4 5.3917 -0.0024
-6 7 5 -0.7695 -0.0326
-6 7 6 -1.6920 0.0887
-6 7 7 2.0563 0.0017
-6 7 8 -2.4188 -0.0253
-6 7 9 -4.2951 -0.0089
-6 7 10 1.2103 -0.0321
-6 7 11 -3.0958 0.0060
-6 7 12 -0.7635 0.0016
-6 7 13 5.9787 0.0196
-6 7 14 0.0922 -0.0131
-6 7 15 -1.2340 0.0044
-6 7 16 -0.1951 0.0265
-6 7 17 0.9135 -0.0072
-6 7 18 -1.9893 0.0069
-6 7 19 0.8505 0.0114
-6 7 20 1.0746 0.0092
-6 7 21 -1.1074 0.0057
-6 7 22 -2.5704 -0.0020
-6 7 23 0.5504 -0.0830
-6 8 1 -2.5172 -0.2070
-6 8 2 1.0093 -0.0563
-6 8 3 2.3691 0.1011
-6 8 4 -0.4762 -0.0135
-6 8 5 -4.5070 0.0696
-6 8 6 -1.4827 0.0178
-6 8 7 1.5817 -0.0597
-6 8 8 -1.8856 -0.0104
-6 8 9 -0.8956 -0.0135
-6 8 10 5.7897 0.0144
-6 8 11 1.8287 0.0201
-6 8 12 -0.1333 0.0102
-6 8 13 -1.0021 -0.0009
-6 8 14 -2.6590 -0.0230
-6 8 15 -0.0631 0.0293
-6 8 16 0.3817 -0.0190
-6 8 17 0.6957 -0.0025
-6 8 18 -2.2714 0.0272
-6 8 19 1.2465 -0.0098
-6 8 20 2.2802 -0.0269
-6 8 21 -0.0747 -0.0262
-6 8 22 -0.2475 0.0125
-6 8 23 1.7238 0.0132
-6 9 1 1.2505 -0.0547
-6 9 2 -1.0773 0.1697
-6 9 3 1.7705 -0.0045
-6 9 4 -0.7939 -0.0132
-6 9 5 -1.9126 0.0170
-6 9 6 0.8560 -0.0915
-6 9 7 1.4456 -0.0045
-6 9 8 -0.5709 0.0248
-6 9 9 1.3408 0.0285
-6 9 10 2.3416 0.0164
-6 9 11 -3.9272 -0.0096
-6 9 12 -1.6273 0.0063
-6 9 13 0.8469 -0.0184
-6 9 14 0.4180 -0.0023
-6 9 15 0.1201 0.0058
-6 9 16 0.4806 -0.0200
-6 9 17 1.4262 0.0233
-6 9 18 0.2094 -0.0171
-6 9 19 1.9057 -0.0122
-6 9 20 -2.4295 -0.0123
-6 9 21 -4.2276 0.0067
-6 9 22 0.3684 0.0363
-6 9 23 1.3855 -0.0092
-6 10 1 -5.1096 0.1554
-6 10 2 1.6135 0.0035
-6 10 3 2.2335 -0.0921
-6 10 4 -4.0423 0.0340
-6 10 5 -0.8799 -0.0440
-6 10 6 2.4719 -0.0113
-6 10 7 0.9641 0.0633
-6 10 8 -0.4523 0.0050
-6 10 9 1.0314 0.0075
-6 10 10 0.4795 -0.0229
-6 10 11 -1.7889 -0.0093
-6 10 12 1.0949 -0.0102
-6 10 13 -0.4637 -0.0095
-6 10 14 -1.4353 0.0071
-6 10 15 1.1681 -0.0051
-6 10 16 1.9772 0.0086
-6 10 17 -1.3729 0.0057
-6 10 18 -2.9146 0.0046
-6 10 19 -0.7954 0.0193
-6 10 20 -0.7380 -0.0082
-6 10 21 2.2299 0.0366
-6 10 22 3.8066 -0.0237
-6 11 1 2.1272 -0.0164
-6 11 2 3.4372 -0.1216
-6 11 3 -2.1547 0.0249
-6 11 4 -1.5973 0.0111
-6 11 5 4.7945 -0.0242
-6 11 6 0.9729 0.0551
-6 11 7 -2.0332 0.0182
-6 11 8 -0.0426 -0.0181
-6 11 9 -0.5982 -0.0164
-6 11 10 -1.3689 -0.0258
-6 11 11 -1.6492 0.0010
-6 11 12 0.0510 0.0101
-6 11 13 -0.0745 0.0142
-6 11 14 1.3950 -0.0022
-6 11 15 2.0902 0.0122
-6 11 16 -2.2706 0.0003
-6 11 17 -2.3091 0.0029
-6 11 18 3.0422 0.0142
-6 11 19 2.7879 -0.0337
-6 11 20 -0.4688 -0.0108
-6 11 21 -0.5812 -0.0168
-6 11 22 0.2169 -0.0491
-6 12 1 1.4047 -0.1050
-6 12 2 0.6807 0.0508
-6 12 3 -1.7910 0.0652
-6 12 4 -0.0058 -0.0304
-6 12 5 0.4448 0.0220
-6 12 6 -2.4721 0.0082
-6 12 7 -0.4347 -0.0351
-6 12 8 -0.8045 -0.0243
-6 12 9 -0.4628 0.0020
-6 12 10 2.2253 0.0130
-6 12 11 0.3550 0.0150
-6 12 12 1.6989 0.0154
-6 12 13 0.2382 -0.0083
-6 12 14 0.0822 -0.0076
-6 12 15 0.3420 0.0059
-6 12 16 -1.9334 -0.0018
-6 12 17 1.9366 0.0086
-6 12 18 1.6753 -0.0266
-6 12 19 -2.9203 -0.0081
-6 12 20 -2.1980 0.0372
-6 12 21 0.1108 -0.0226
-6 12 22 1.6814 0.0269
-6 13 1 3.4067 0.0731
-6 13 2 0.3135 0.0822
-6 13 3 -1.8044 -0.0490
-6 13 4 0.3959 -0.0318
-6 13 5 1.8873 0.0284
-6 13 6 0.3499 -0.0177
-6 13 7 -1.4116 0.0019
-6 13 8 0.8238 0.0192
-6 13 9 3.6904 0.0098
-6 13 10 0.0123 -0.0034
-6 13 11 -2.5165 0.0041
-6 13 12 0.0154 -0.0039
-6 13 13 -1.1898 -0.0223
-6 13 14 1.4759 0.0079
-6 13 15 -0.7436 0.0166
-6 13 16 -2.6564 -0.0171
-6 13 17 1.6321 -0.0211
-6 13 18 -0.5470 0.0197
-6 13 19 -1.3532 0.0128
-6 13 20 0.6628 -0.0332
-6 13 21 1.4768 -0.0165
-6 14 1 2.7037 0.0512
-6 14 2 -0.1803 -0.0722
-6 14 3 -2.1205 -0.0525
-6 14 4 -0.4874 0.0257
-6 14 5 0.6618 0.0099
-6 14 6 -0.6516 -0.0161
-6 14 7 0.0115 0.0200
-6 14 8 2.3781 -0.0052
-6 14 9 -1.6471 -0.0080
-6 14 10 -2.7780 -0.0066
-6 14 11 0.1116 -0.0151
-6 14 12 0.7618 0.0019
-6 14 13 -0.5682 0.0066
-6 14 14 0.4971 0.0140
-6 14 15 -1.0954 -0.0014
-6 14 16 1.2189 -0.0175
-6 14 17 2.3190 0.0307
-6 14 18 -1.1745 0.0026
-6 14 19 -0.0521 -0.0499
-6 14 20 1.1818 0.0476
-6 14 21 0.1803 0.0365
-6 15 1 2.0397 -0.1354
-6 15 2 -2.8348 -0.0078
-6 15 3 -1.5927 0.0612
-6 15 4 2.1470 0.0273
-6 15 5 2.7045 0.0045
-6 15 6 -0.1854 -0.0004
-6 15 7 -1.4614 -0.0027
-6 15 8 -1.4112 -0.0161
-6 15 9 -1.3381 -0.0026
-6 15 10 1.9348 -0.0032
-6 15 11 0.9213 0.0229
-6 15 12 -0.1632 0.0273
-6 15 13 0.6117 -0.0200
-6 15 14 2.6154 -0.0003
-6 15 15 -0.9722 -0.0053
-6 15 16 -1.7851 -0.0138
-6 15 17 -0.0984 0.0103
-6 15 18 -0.5543 -0.0266
-6 15 19 0.5573 0.0223
-6 15 20 -0.0321 0.0356
-6 16 1 1.0789 0.0591
-6 16 2 -0.7724 0.1096
-6 16 3 -0.0549 -0.0045
-6 16 4 0.7572 -0.0275
-6 16 5 -0.5129 -0.0263
-6 16 6 -2.0472 -0.0193
-6 16 7 -1.4322 0.0063
-6 16 8 1.7905 -0.0023
-6 16 9 2.5427 0.0067
-6 16 10 1.0814 0.0151
-6 16 11 -1.2812 -0.0058
-6 16 12 -1.2386 -0.0204
-6 16 13 -0.4413 -0.0146
-6 16 14 -0.6765 0.0066
-6 16 15 -2.9960 -0.0051
-6 16 16 2.7085 0.0245
-6 16 17 2.7316 0.0182
-6 16 18 -1.5588 -0.0284
-6 16 19 0.0305 0.0174
-6 16 20 -0.1540 0.0009
-6 17 1 -0.6659 0.1653
-6 17 2 -3.0177 -0.0681
-6 17 3 0.2900 -0.0583
-6 17 4 1.8346 -0.0263
-6 17 5 0.5811 -0.0026
-6 17 6 -0.3696 0.0272
-6 17 7 1.1196 0.0021
-6 17 8 2.2197 0.0117
-6 17 9 -2.6193 0.0286
-6 17 10 -2.3120 -0.0103
-6 17 11 0.0823 -0.0196
-6 17 12 0.0237 0.0123
-6 17 13 1.7336 -0.0015
-6 17 14 1.8514 0.0060
-6 17 15 -0.0562 0.0215
-6 17 16 0.9863 0.0086
-6 17 17 -3.0448 -0.0398
-6 17 18 -1.7177 -0.0214
-6 17 19 1.6175 0.0352
-6 18 1 1.2779 -0.1688
-6 18 2 0.6296 -0.1217
-6 18 3 2.4762 0.0299
-6 18 4 -0.1651 0.0202
-6 18 5 -1.0067 0.0612
-6 18 6 -1.0611 0.0134
-6 18 7 -0.3200 -0.0117
-6 18 8 -1.4976 0.0055
-6 18 9 -1.7150 -0.0373
-6 18 10 3.7594 -0.0198
-6 18 11 1.5095 -0.0024
-6 18 12 -1.8505 0.0055
-6 18 13 0.6086 0.0064
-6 18 14 -1.3158 0.0081
-6 18 15 -2.0299 0.0003
-6 18 16 1.4535 -0.0175
-6 18 17 -0.2207 -0.0191
-6 18 18 0.9114 0.0114
-6 19 1 -0.2383 -0.1255
-6 19 2 -1.8419 0.1258
-6 19 3 -0.1205 0.0455
-6 19 4 -0.7416 0.0320
-6 19 5 -0.5696 -0.0005
-6 19 6 -0.6726 -0.0511
-6 19 7 1.6817 -0.0170
-6 19 8 1.2276 -0.0037
-6 19 9 0.1944 0.0058
-6 19 10 1.1198 0.0281
-6 19 11 -1.7348 -0.0182
-6 19 12 -1.0842 0.0271
-6 19 13 1.7830 0.0026
-6 19 14 -0.6492 -0.0198
-6 19 15 0.6259 0.0147
-6 19 16 0.9457 0.0023
-6 19 17 -2.1922 -0.0036
-6 20 1 -0.0532 0.1742
-6 20 2 0.4597 0.0691
-6 20 3 2.1626 -0.0356
-6 20 4 -0.1317 0.0026
-6 20 5 -0.7832 -0.0612
-6 20 6 1.3839 0.0036
-6 20 7 1.3719 -0.0119
-6 20 8 -2.6645 -0.0000
-6 20 9 -1.4426 0.0154
-6 20 10 2.0086 0.0170
-6 20 11 -0.4999 -0.0106
-6 20 12 -0.7804 0.0124
-6 20 13 0.5399 -0.0255
-6 20 14 -1.2018 0.0277
-6 20 15 0.8497 0.0212
-6 20 16 0.1735 -0.0411
-6 21 1 0.4094 0.1465
-6 21 2 -0.0950 -0.1920
-6 21 3 0.1187 -0.0170
-6 21 4 -1.7151 -0.0374
-6 21 5 0.0230 0.0092
-6 21 6 0.6797 0.0655
-6 21 7 -1.5279 -0.0164
-6 21 8 -0.6374 0.0586
-6 21 9 1.8539 -0.0067
-6 21 10 1.2896 -0.0063
-6 21 11 -1.0610 -0.0469
-6 21 12 -0.6626 0.0023
-6 21 13 0.3328 0.0222
-6 21 14 0.0232 0.0055
-6 21 15 0.9312 -0.0528
-6 22 1 -0.6211 -0.1965
-6 22 2 -0.8484 -0.0252
-6 22 3 0.7458 0.1486
-6 22 4 -0.5886 -0.0135
-6 22 5 0.0280 0.0764
-6 22 6 0.3994 -0.0492
-6 22 7 0.3322 -0.0735
-6 22 8 0.4568 -0.0223
-6 22 9 -0.5817 -0.0368
-6 22 10 0.4399 0.0750
-6 22 11 -0.7803 -0.0385
-6 22 12 -0.6111 0.0394
-6 22 13 1.5458 0.0021
-6 23 1 -1.2677 0.0017
-6 23 2 0.7141 0.0694
-6 23 3 1.1455 -0.0164
-6 23 4 -1.2892 -0.0859
-6 23 5 1.4163 -0.0144
-6 23 6 0.4322 -0.0527
-6 23 7 -1.2857 0.0509
-6 23 8 -0.1322 0.0582
-6 23 9 0.5707 0.0733
-6 23 10 1.2457 -0.0001
-5 -26 1 -1.4217 -0.0728
-5 -26 2 0.6877 -0.2617
-5 -25 1 -0.9847 -0.1359
-5 -25 2 0.5915 0.0991
-5 -25 3 0.1512 0.1241
-5 -25 4 -0.1716 -0.0532
-5 -24 1 -1.6256 0.0593
-5 -24 2 1.4981 0.0350
-5 -24 3 -0.5678 -0.0715
-5 -24 4 -0.1781 0.0061
-5 -24 5 0.7887 0.0341
-5 -24 6 0.6603 -0.0195
-5 -23 1 -1.2900 -0.0171
-5 -23 2 0.1171 -0.0486
-5 -23 3 -0.6075 0.0026
-5 -23 4 1.8748 0.0377
-5 -23 5 -0.4107 -0.0208
-5 -23 6 -2.3581 -0.0087
-5 -23 7 0.5607 0.0043
-5 -23 8 1.4359 0.0268
-5 -22 1 -2.6712 -0.0241
-5 -22 2 2.3882 0.0245
-5 -22 3 0.1272 0.0401
-5 -22 4 1.6776 0.0064
-5 -22 5 -2.6492 -0.0266
-5 -22 6 -0.6688 0.0012
-5 -22 7 2.6981 -0.0297
-5 -22 8 -1.1662 0.0165
-5 -22 9 -0.6107 0.0194
-5 -22 10 0.7561 -0.0113
-5 -21 1 1.3995 0.0842
-5 -21 2 1.5819 0.0067
-5 -21 3 0.0349 -0.0062
-5 -21 4 0.8913 -0.0444
-5 -21 5 -4.4386 -0.0134
-5 -21 6 2.0403 0.0159
-5 -21 7 2.2261 -0.0069
-5 -21 8 -1.6473 0.0502
-5 -21 9 0.9107 -0.0178
-5 -21 10 -0.6763 -0.0005
-5 -21 11 -1.1961 0.0230
-5 -20 1 1.8905 -0.0098
-5 -20 2 -0.2314 -0.0684
-5 -20 3 -1.4804 -0.0197
-5 -20 4 -1.5143 -0.0336
-5 -20 5 -1.3352 0.0441
-5 -20 6 4.9591 0.0066
-5 -20 7 -0.5181 -0.0026
-5 -20 8 -2.5648 0.0144
-5 -20 9 0.4426 -0.0298
-5 -20 10 0.0050 0.0261
-5 -20 11 0.4910 -0.0432
-5 -20 12 0.6599 -0.0309
-5 -19 1 -1.0626 -0.1447
-5 -19 2 -3.3472 0.0139
-5 -19 3 1.4993 0.0189
-5 -19 4 2.3844 0.0422
-5 -19 5 0.2943 0.0346
-5 -19 6 1.1106 -0.0439
-5 -19 7 -3.9955 0.0153
-5 -19 8 -0.6496 0.0081
-5 -19 9 2.7254 -0.0010
-5 -19 10 0.0599 -0.0059
-5 -19 11 -1.0764 -0.0268
-5 -19 12 0.1628 0.0273
-5 -19 13 0.2194 0.0028
-5 -18 1 -0.4624 0.0627
-5 -18 3 2.8881 -0.0040
-5 -18 4 -1.7804 0.0124
-5 -18 5 -0.9075 -0.0569
-5 -18 6 0.0469 -0.0039
-5 -18 7 -0.6336 0.0335
-5 -18 8 3.1779 -0.0042
-5 -18 9 0.3920 -0.0179
-5 -18 10 -2.1341 -0.0188
-5 -18 11 -0.1457 0.0199
-5 -18 12 0.8437 -0.0100
-5 -18 13 0.1403 0.0246
-5 -18 14 -0.6076 0.0330
-5 -17 1 1.2119 0.1699
-5 -17 2 -1.2220 -0.0732
-5 -17 3 0.3048 -0.0190
-5 -17 4 0.4619 -0.0261
-5 -17 5 0.3599 -0.0226
-5 -17 6 -1.1873 0.0458
-5 -17 7 -0.1838 0.0080
-5 -17 8 -0.1745 -0.0021
-5 -17 9 -0.7478 -0.0262
-5 -17 10 -0.0542 0.0083
-5 -17 11 -0.1571 -0.0011
-5 -17 12 0.3344 0.0018
-5 -17 13 0.3615 0.0384
-5 -17 14 -0.0894 -0.0331
-5 -17 15 0.7329 0.0184
-5 -16 1 -6.6283 -0.1138
-5 -16 2 0.8640 -0.1223
-5 -16 3 1.8344 0.0374
-5 -16 4 -0.7950 -0.0223
-5 -16 5 -0.0459 0.0607
-5 -16 6 -1.1084 0.0268
-5 -16 7 0.0225 -0.0327
-5 -16 8 1.7629 -0.0095
-5 -16 9 0.5933 -0.0133
-5 -16 10 -1.9535 -0.0007
-5 -16 11 0.8925 0.0049
-5 -16 12 1.2588 0.0289
-5 -16 13 -0.2893 -0.0243
-5 -16 14 -0.4874 -0.0055
-5 -16 15 -0.8976 -0.0323
-5 -16 16 -0.7464 -0.0739
-5 -15 1 2.5122 -0.1844
-5 -15 2 4.9355 0.1031
-5 -15 3 -2.4799 0.0378
-5 -15 4 1.2873 0.0151
-5 -15 5 -0.6909 0.0518
-5 -15 6 -3.8496 -0.0822
-5 -15 7 3.3565 -0.0118
-5 -15 8 2.3827 0.0275
-5 -15 9 -2.5508 -0.0188
-5 -15 10 -0.4356 0.0097
-5 -15 11 1.9899 0.0270
-5 -15 12 -1.5614 0.0040
-5 -15 13 0.3771 0.0037
-5 -15 14 -0.0964 0.0108
-5 -15 15 -0.1720 -0.0141
-5 -15 16 1.3129 0.0750
-5 -15 17 -0.1212 -0.0072
-5 -14 1 5.1692 0.1277
-5 -14 2 -3.3850 0.1171
-5 -14 3 -3.6085 -0.0703
-5 -14 4 2.9801 0.0397
-5 -14 5 -2.5691 -0.0566
-5 -14 6 2.2370 -0.0485
-5 -14 7 4.5879 0.0655
-5 -14 8 -4.3873 -0.0043
-5 -14 9 -2.0128 0.0083
-5 -14 10 2.3277 0.0108
-5 -14 11 -0.3648 -0.0096
-5 -14 12 -1.5601 0.0002
-5 -14 13 1.2763 -0.0294
-5 -14 14 -1.6427 -0.0228
-5 -14 15 0.8989 -0.0065
-5 -14 16 0.3174 -0.0270
-5 -14 17 -1.5637 0.0116
-5 -14 18 1.0514 0.0617
-5 -13 1 -2.6335 0.1726
-5 -13 2 -5.0363 -0.1425
-5 -13 3 2.4580 -0.0349
-5 -13 4 3.5212 0.0072
-5 -13 5 -1.0634 -0.0582
-5 -13 6 1.4968 0.0778
-5 -13 7 -2.8517 0.0170
-5 -13 8 -1.9677 -0.0191
-5 -13 9 2.8357 -0.0027
-5 -13 10 -1.2242 -0.0354
-5 -13 11 -2.1056 0.0099
-5 -13 12 2.1215 -0.0119
-5 -13 13 2.9457 0.0037
-5 -13 14 -0.5518 0.0262
-5 -13 15 1.0523 -0.0186
-5 -13 16 -2.1660 0.0411
-5 -13 17 -0.9993 0.0155
-5 -13 18 2.0727 -0.0864
-5 -13 19 -0.0202 0.0822
-5 -12 1 1.2238 -0.1586
-5 -12 2 3.1117 -0.0889
-5 -12 3 0.4150 0.0777
-5 -12 4 -0.9483 -0.0274
-5 -12 5 -0.7985 0.0576
-5 -12 6 -1.0774 0.0411
-5 -12 7 -1.3225 -0.0620
-5 -12 8 -0.1778 -0.0054
-5 -12 9 0.1840 -0.0074
-5 -12 10 2.4634 0.0053
-5 -12 11 3.1122 0.0066
-5 -12 12 0.4487 0.0129
-5 -12 13 -2.5713 0.0304
-5 -12 14 -3.6666 -0.0203
-5 -12 15 -0.2940 0.0201
-5 -12 16 -0.4713 0.0184
-5 -12 17 2.3061 -0.0293
-5 -12 18 2.2751 0.0337
-5 -12 19 -1.2168 -0.0199
-5 -11 1 3.8958 -0.0935
-5 -11 2 -7.7718 0.1281
-5 -11 3 -2.8360 0.0151
-5 -11 4 5.6592 0.0021
-5 -11 5 -0.0600 0.0453
-5 -11 6 -0.6114 -0.0567
-5 -11 7 0.1929 -0.0318
-5 -11 8 0.7616 0.0191
-5 -11 9 5.6017 0.0157
-5 -11 10 -1.4186 0.0115
-5 -11 11 -7.4546 0.0100
-5 -11 12 -0.4530 0.0110
-5 -11 13 1.8152 -0.0229
-5 -11 14 0.6562 -0.0086
-5 -11 15 2.1177 -0.0149
-5 -11 16 0.3877 -0.0297
-5 -11 17 0.3336 0.0072
-5 -11 18 -0.9255 -0.0336
-5 -11 19 -1.8258 0.0294
-5 -11 20 -0.2289 0.1026
-5 -10 1 -4.9982 0.1584
-5 -10 2 -0.0609 0.0322
-5 -10 3 8.6112 -0.0734
-5 -10 4 -0.5491 0.0119
-5 -10 5 -4.5883 -0.0264
-5 -10 6 1.4616 -0.0275
-5 -10 7 -2.1908 0.0260
-5 -10 8 0.4398 0.0219
-5 -10 9 0.2703 0.0033
-5 -10 10 -5.9971 -0.0151
-5 -10 11 3.6239 -0.0140
-5 -10 12 6.0136 -0.0142
-5 -10 13 -2.5788 -0.0042
-5 -10 14 -1.6416 0.0038
-5 -10 15 0.1759 0.0060
-5 -10 16 -0.3651 0.0115
-5 -10 17 0.3246 -0.0183
-5 -10 18 0.3291 0.0112
-5 -10 19 0.1596 0.0030
-5 -10 20 -0.2767 -0.0733
-5 -10 21 0.4631 0.0529
-5 -9 1 2.3005 -0.0246
-5 -9 2 0.9942 -0.1254
-5 -9 3 -1.9406 0.0101
-5 -9 4 -2.9455 0.0255
-5 -9 5 3.0899 -0.0186
-5 -9 6 0.3624 0.0340
-5 -9 7 -2.6289 0.0107
-5 -9 8 3.6909 -0.0223
-5 -9 9 1.6403 -0.0116
-5 -9 10 -1.3642 -0.0046
-5 -9 11 1.4608 0.0096
-5 -9 12 -2.4051 0.0013
-5 -9 13 -1.2953 0.0027
-5 -9 14 1.6824 0.0241
-5 -9 15 -0.1932 -0.0057
-5 -9 16 1.0447 -0.0118
-5 -9 17 0.0955 0.0475
-5 -9 18 -0.5997 0.0199
-5 -9 19 -1.4024 0.0170
-5 -9 20 -0.1847 0.0916
-5 -9 21 1.6798 -0.0812
-5 -8 1 -2.3811 -0.1137
-5 -8 2 5.7724 0.0512
-5 -8 3 2.5257 0.0727
-5 -8 4 -2.2239 -0.0148
-5 -8 5 -0.8299 0.0123
-5 -8 6 -0.4493 0.0241
-5 -8 7 0.1495 -0.0313
-5 -8 8 1.2845 -0.0136
-5 -8 9 -3.5337 0.0051
-5 -8 10 -2.5665 0.0142
-5 -8 11 4.2970 0.0186
-5 -8 12 -0.0930 -0.0069
-5 -8 13 -0.9698 0.0147
-5 -8 14 0.3516 0.0035
-5 -8 15 -0.1755 -0.0243
-5 -8 16 1.1824 0.0096
-5 -8 17 -1.8517 -0.0371
-5 -8 18 -0.8561 -0.0558
-5 -8 19 0.3152 0.0055
-5 -8 20 2.0738 -0.0764
-5 -8 21 0.0224 -0.0438
-5 -8 22 -1.4971 0.2077
-5 -7 1 11.8691 0.1139
-5 -7 2 1.9181 0.0756
-5 -7 3 -12.4140 -0.0370
-5 -7 4 -3.6685 -0.0331
-5 -7 5 6.3150 -0.0034
-5 -7 6 1.5729 -0.0101
-5 -7 7 -2.6923 -0.0205
-5 -7 8 0.2788 0.0035
-5 -7 9 0.2205 0.0152
-5 -7 10 4.1410 0.0176
-5 -7 11 1.1637 -0.0116
-5 -7 12 -6.1841 -0.0214
-5 -7 13 2.7016 -0.0043
-5 -7 14 1.7002 -0.0088
-5 -7 15 -1.6923 0.0018
-5 -7 16 0.3911 -0.0096
-5 -7 17 -1.6121 0.0007
-5 -7 18 2.0097 0.0521
-5 -7 19 1.0591 0.0290
-5 -7 20 0.2444 0.0437
-5 -7 21 -1.5057 0.0234
-5 -7 22 -0.1884 -0.0889
-5 -6 1 1.0641 0.0147
-5 -6 2 -7.2626 -0.1017
-5 -6 3 -1.4320 -0.0470
-5 -6 4 10.1957 0.0132
-5 -6 5 4.2113 0.0299
-5 -6 6 -4.5405 0.0101
-5 -6 7 -2.2687 -0.0103
-5 -6 8 1.3631 0.0145
-5 -6 9 -1.1411 -0.0001
-5 -6 10 0.8267 -0.0111
-5 -6 11 -1.4381 0.0014
-5 -6 12 -0.2934 0.0030
-5 -6 13 3.3526 -0.0006
-5 -6 14 -3.3456 0.0097
-5 -6 15 -0.3211 -0.0050
-5 -6 16 0.7496 -0.0074
-5 -6 17 -0.6177 0.0136
-5 -6 18 1.3727 0.0029
-5 -6 19 -1.7289 0.0040
-5 -6 20 0.6987 -0.0123
-5 -6 21 -1.0280 -0.0775
-5 -6 22 0.1186 0.0683
-5 -5 1 11.2221 -0.1657
-5 -5 2 0.5975 0.0030
-5 -5 3 -0.3801 0.0563
-5 -5 4 -0.2101 0.0542
-5 -5 5 -5.6611 0.0045
-5 -5 6 -2.4553 -0.0335
-5 -5 7 2.4601 0.0009
-5 -5 8 1.4476 0.0077
-5 -5 9 0.0831 -0.0186
-5 -5 10 4.0425 0.0113
-5 -5 11 -1.7654 0.0168
-5 -5 12 -3.9804 -0.0100
-5 -5 13 0.4506 -0.0044
-5 -5 14 0.7854 0.0060
-5 -5 15 1.0125 0.0012
-5 -5 16 -0.6835 0.0103
-5 -5 17 0.6966 0.0055
-5 -5 18 1.0188 -0.0084
-5 -5 19 0.9751 -0.0118
-5 -5 20 0.5717 -0.0141
-5 -5 21 -3.2206 -0.0255
-5 -5 22 1.3219 0.0318
-5 -5 23 0.2823 -0.0617
-5 -4 1 2.8375 0.0776
-5 -4 2 -10.1423 0.1231
-5 -4 3 -1.3248 0.0165
-5 -4 4 1.6339 -0.0043
-5 -4 5 3.6266 -0.0681
-5 -4 6 4.8637 -0.0141
-5 -4 7 -1.4586 0.0189
-5 -4 8 -4.0334 -0.0054
-5 -4 9 -0.7836 -0.0028
-5 -4 10 1.2284 0.0168
-5 -4 11 -3.9648 0.0043
-5 -4 12 0.9471 -0.0218
-5 -4 13 4.7440 -0.0106
-5 -4 14 -0.5577 0.0057
-5 -4 15 -1.5080 -0.0026
-5 -4 16 1.3687 -0.0029
-5 -4 17 0.5033 0.0005
-5 -4 18 -0.5707 -0.0066
-5 -4 19 -1.2801 0.0183
-5 -4 20 -3.0702 0.0158
-5 -4 21 0.3849 -0.0003
-5 -4 22 3.5979 0.0608
-5 -4 23 -1.1447 -0.0563
-5 -3 1 -4.6595 0.1754
-5 -3 2 -2.3142 -0.0765
-5 -3 3 1.2244 -0.0549
-5 -3 4 1.0514 -0.0470
-5 -3 5 -0.8004 -0.0189
-5 -3 6 -5.1856 0.0585
-5 -3 7 -2.8101 0.0125
-5 -3 8 2.8211 -0.0014
-5 -3 9 3.7745 -0.0028
-5 -3 10 2.4817 0.0063
-5 -3 11 -2.1027 -0.0078
-5 -3 12 -0.0288 -0.0107
-5 -3 13 0.8736 0.0199
-5 -3 14 -0.5606 0.0063
-5 -3 15 0.0626 0.0041
-5 -3 16 -0.6237 0.0131
-5 -3 17 -3.1979 -0.0137
-5 -3 18 0.9007 -0.0175
-5 -3 19 1.4589 0.0064
-5 -3 20 0.4999 -0.0111
-5 -3 21 1.3128 -0.0200
-5 -3 22 -0.5109 -0.0424
-5 -3 23 -1.7414 -0.0569
-5 -2 1 -7.0110 -0.1344
-5 -2 2 -2.8203 -0.1136
-5 -2 3 3.0806 0.0333
-5 -2 4 4.4716 -0.0111
-5 -2 5 -0.9655 0.0700
-5 -2 6 3.5659 0.0173
-5 -2 7 3.4628 -0.0370
-5 -2 8 -2.6618 -0.0070
-5 -2 9 -1.7489 -0.0037
-5 -2 10 -0.4607 -0.0015
-5 -2 11 -2.4518 -0.0093
-5 -2 12 2.7690 0.0138
-5 -2 13 1.6308 0.0030
-5 -2 14 -4.2289 -0.0098
-5 -2 15 -2.0037 0.0025
-5 -2 16 1.6367 -0.0242
-5 -2 17 0.9392 -0.0052
-5 -2 18 3.9413 0.0149
-5 -2 19 -1.0057 0.0085
-5 -2 20 -3.3605 0.0210
-5 -2 21 -0.0411 0.0058
-5 -2 22 2.3354 0.0259
-5 -2 23 0.0434 0.0671
-5 -2 24 0.0210 0.0294
-5 -1 1 5.5648 -0.1921
-5 -1 2 6.9189 0.1285
-5 -1 3 4.7595 0.0294
-5 -1 4 -4.6516 0.0311
-5 -1 5 -4.6411 0.0499
-5 -1 6 1.4131 -0.0829
-5 -1 7 -5.6762 -0.0150
-5 -1 8 -0.6652 0.0192
-5 -1 9 5.1198 0.0049
-5 -1 10 0.8129 0.0017
-5 -1 11 -1.4408 0.0192
-5 -1 12 -0.2016 0.0129
-5 -1 13 -4.1181 -0.0155
-5 -1 14 0.5538 -0.0080
-5 -1 15 7.2178 -0.0199
-5 -1 16 0.0077 0.0053
-5 -1 17 -3.6968 0.0394
-5 -1 18 2.5258 -0.0045
-5 -1 19 -2.2211 0.0128
-5 -1 20 -0.6679 -0.0017
-5 -1 21 3.1337 -0.0381
-5 -1 22 -0.2109 -0.0066
-5 -1 23 -4.0332 -0.0717
-5 -1 24 0.7011 -0.0373
-5 0 1 -4.6845 0.2076
-5 0 2 -4.2235 0.1164
-5 0 3 -4.1338 -0.0741
-5 0 4 -2.8117 0.0323
-5 0 5 2.9335 -0.0857
-5 0 6 4.0833 -0.0524
-5 0 7 -0.2340 0.0708
-5 0 8 2.5605 0.0140
-5 0 9 -2.1437 0.0036
-5 0 10 -3.1743 -0.0057
-5 0 11 0.2221 -0.0071
-5 0 12 2.3261 -0.0218
-5 0 13 2.0947 -0.0062
-5 0 14 3.4504 -0.0021
-5 0 15 -3.1448 0.0059
-5 0 16 -6.0903 0.0351
-5 0 17 2.9580 0.0040
-5 0 18 3.4308 -0.0230
-5 0 19 -5.0962 -0.0265
-5 0 20 0.0485 -0.0297
-5 0 21 0.9230 0.0278
-5 0 22 -1.2521 -0.0063
-5 0 23 0.7240 -0.0029
-5 0 24 3.5106 0.1407
-5 1 1 2.0961 0.1934
-5 1 2 5.2096 -0.1791
-5 1 3 4.1183 -0.0212
-5 1 4 -1.3720 -0.0138
-5 1 5 -0.0684 -0.0589
-5 1 6 1.3562 0.1002
-5 1 7 -5.7021 0.0339
-5 1 8 -1.5523 -0.0264
-5 1 9 2.0041 -0.0097
-5 1 10 2.4729 -0.0279
-5 1 11 1.5624 0.0009
-5 1 12 0.5948 0.0047
-5 1 13 -2.9980 0.0149
-5 1 14 -3.2427 0.0018
-5 1 15 -1.3691 0.0105
-5 1 16 3.7661 -0.0012
-5 1 17 1.8472 -0.0119
-5 1 18 -2.4922 -0.0131
-5 1 19 -0.5537 -0.0077
-5 1 20 3.8656 0.0421
-5 1 21 0.1775 0.0241
-5 1 22 -0.4507 -0.0090
-5 1 23 -0.4112 0.0311
-5 1 24 -0.0688 -0.0344
-5 2 1 1.4721 -0.2113
-5 2 2 0.3894 -0.1046
-5 2 3 -6.8984 0.0980
-5 2 4 -5.9744 -0.0448
-5 2 5 4.2513 0.0811
-5 2 6 1.4398 0.0499
-5 2 7 -3.3175 -0.0689
-5 2 8 7.1116 -0.0172
-5 2 9 1.0632 -0.0219
-5 2 10 -2.8098 0.0054
-5 2 11 0.9723 0.0244
-5 2 12 -1.1488 0.0161
-5 2 13 -3.4669 0.0214
-5 2 14 1.6450 -0.0105
-5 2 15 3.0789 -0.0061
-5 2 16 0.3755 -0.0183
-5 2 17 -1.7020 0.0035
-5 2 18 1.3016 0.0015
-5 2 19 -0.4154 0.0014
-5 2 20 -1.4899 0.0098
-5 2 21 -1.7188 -0.0045
-5 2 22 0.2808 -0.0290
-5 2 23 0.9721 -0.0640
-5 2 24 1.6848 0.0357
-5 3 1 6.8604 -0.1267
-5 3 2 -5.0452 0.1748
-5 3 3 -4.2061 0.0187
-5 3 4 5.6904 -0.0118
-5 3 5 6.6853 0.0557
-5 3 6 -3.2155 -0.0885
-5 3 7 -1.6461 -0.0238
-5 3 8 4.2476 0.0184
-5 3 9 -5.1995 0.0145
-5 3 10 -1.2055 0.0330
-5 3 11 0.1910 -0.0016
-5 3 12 -3.1013 0.0064
-5 3 13 0.7092 -0.0285
-5 3 14 3.8991 -0.0285
-5 3 15 -0.1602 -0.0050
-5 3 16 -0.6789 -0.0150
-5 3 17 0.5938 0.0336
-5 3 18 -0.5028 0.0063
-5 3 19 -1.9389 -0.0119
-5 3 20 2.0845 0.0015
-5 3 21 1.0192 0.0144
-5 3 22 0.0333 -0.0203
-5 3 23 -0.4411 0.0277
-5 3 24 -0.7135 0.0641
-5 4 1 -11.8973 0.1644
-5 4 2 -7.7163 0.0436
-5 4 3 0.9372 -0.0931
-5 4 4 4.2806 0.0289
-5 4 5 -0.6759 -0.0444
-5 4 6 -4.3532 -0.0415
-5 4 7 2.0415 0.0503
-5 4 8 2.2238 0.0125
-5 4 9 -6.9022 0.0108
-5 4 10 1.1022 -0.0162
-5 4 11 3.6462 -0.0068
-5 4 12 1.9344 -0.0064
-5 4 13 1.7501 -0.0253
-5 4 14 0.0912 0.0202
-5 4 15 -2.0626 0.0007
-5 4 16 0.4920 0.0148
-5 4 17 -0.9053 0.0354
-5 4 18 -2.1954 -0.0134
-5 4 19 0.1199 -0.0087
-5 4 20 1.2400 -0.0052
-5 4 21 -1.5818 0.0008
-5 4 22 0.7854 -0.0283
-5 4 23 1.0749 0.0287
-5 4 24 0.1611 -0.0026
-5 5 1 0.5479 -0.0056
-5 5 2 1.3929 -0.1364
-5 5 3 3.9705 0.0142
-5 5 4 6.5777 0.0149
-5 5 5 0.1640 -0.0340
-5 5 6 -4.5973 0.0564
-5 5 7 0.6326 0.0259
-5 5 8 -0.3976 -0.0113
-5 5 9 -3.7255 -0.0139
-5 5 10 6.7302 -0.0119
-5 5 11 1.5922 0.0048
-5 5 12 -3.5529 -0.0112
-5 5 13 -0.8180 0.0181
-5 5 14 -0.5661 0.0189
-5 5 15 -1.6513 -0.0027
-5 5 16 0.7891 0.0128
-5 5 17 -0.9334 -0.0033
-5 5 18 1.0973 -0.0162
-5 5 19 2.5218 -0.0225
-5 5 20 1.0189 -0.0039
-5 5 21 0.4674 0.0352
-5 5 22 0.1106 0.0125
-5 5 23 -3.3893 0.0064
-5 5 24 -0.5444 -0.0818
-5 6 1 -2.8571 -0.1347
-5 6 2 -3.6648 0.0478
-5 6 3 2.2162 0.0815
-5 6 4 1.2675 -0.0180
-5 6 5 -7.9300 0.0199
-5 6 6 -5.1303 0.0127
-5 6 7 7.2349 -0.0360
-5 6 8 0.9252 -0.0122
-5 6 9 -2.5309 -0.0070
-5 6 10 5.4794 0.0140
-5 6 11 -2.4743 0.0118
-5 6 12 -1.7062 0.0123
-5 6 13 0.7229 0.0021
-5 6 14 -0.8730 -0.0212
-5 6 15 -0.1568 -0.0037
-5 6 16 1.9765 -0.0121
-5 6 17 0.6497 -0.0092
-5 6 18 0.4291 -0.0070
-5 6 19 -2.1653 -0.0046
-5 6 20 -0.5928 0.0183
-5 6 21 -0.5504 0.0045
-5 6 22 -2.4241 -0.0350
-5 6 23 0.6229 -0.0108
-5 6 24 4.7441 0.0160
-5 7 1 -3.3313 0.1090
-5 7 2 -1.9398 0.0862
-5 7 3 4.7246 -0.0401
-5 7 4 2.9807 -0.0310
-5 7 5 -3.5827 -0.0023
-5 7 6 4.1221 -0.0184
-5 7 7 6.1601 -0.0118
-5 7 8 -5.6226 0.0161
-5 7 9 -0.1195 0.0122
-5 7 10 2.2718 0.0104
-5 7 11 -5.5902 -0.0116
-5 7 12 0.1674 -0.0109
-5 7 13 1.5920 -0.0201
-5 7 14 0.6250 0.0047
-5 7 15 -0.9380 0.0135
-5 7 16 0.8760 -0.0086
-5 7 17 -0.3386 0.0101
-5 7 18 -1.1256 0.0049
-5 7 19 0.9989 0.0233
-5 7 20 2.6078 0.0170
-5 7 21 -1.7370 -0.0030
-5 7 22 -0.5088 0.0009
-5 7 23 2.1109 0.0101
-5 7 24 -0.0682 -0.0410
-5 8 1 -4.9748 0.0641
-5 8 2 1.8327 -0.1030
-5 8 3 5.8779 -0.0485
-5 8 4 -3.1853 0.0045
-5 8 5 -5.7646 0.0068
-5 8 6 1.3351 -0.0004
-5 8 7 -0.6047 0.0158
-5 8 8 -4.7674 0.0365
-5 8 9 0.7488 -0.0121
-5 8 10 0.4198 -0.0122
-5 8 11 1.2431 -0.0089
-5 8 12 3.6822 0.0021
-5 8 13 -0.5388 -0.0020
-5 8 14 -2.2643 0.0213
-5 8 15 -0.8200 0.0009
-5 8 16 3.3162 -0.0072
-5 8 17 -0.0666 0.0066
-5 8 18 -0.2764 0.0093
-5 8 19 -0.7518 0.0188
-5 8 20 -1.7698 -0.0421
-5 8 21 -1.2089 -0.0219
-5 8 22 1.8566 -0.0043
-5 8 23 0.7223 -0.0193
-5 8 24 -0.1071 0.0105
-5 9 1 -0.6009 -0.1561
-5 9 2 2.8323 -0.0324
-5 9 3 -0.7585 0.0553
-5 9 4 -3.9725 0.0397
-5 9 5 -0.0728 0.0132
-5 9 6 4.1518 -0.0005
-5 9 7 0.8045 0.0188
-5 9 8 -1.6396 -0.0145
-5 9 9 4.8184 -0.0390
-5 9 10 2.5254 0.0065
-5 9 11 -1.8217 0.0011
-5 9 12 -2.3908 0.0128
-5 9 13 -1.3624 0.0026
-5 9 14 0.6719 0.0107
-5 9 15 1.2284 -0.0142
-5 9 16 0.4710 0.0002
-5 9 17 -2.2006 -0.0013
-5 9 18 -0.5241 0.0079
-5 9 19 0.7903 -0.0091
-5 9 20 2.0192 -0.0339
-5 9 21 -0.7211 0.0108
-5 9 22 0.1334 -0.0253
-5 9 23 -0.5226 0.0424
-5 9 24 -0.3273 0.0508
-5 10 1 -2.2061 0.0415
-5 10 2 2.1910 0.1081
-5 10 3 0.3786 0.0167
-5 10 4 -1.5886 -0.0080
-5 10 5 1.1421 -0.0438
-5 10 6 1.2071 -0.0011
-5 10 7 -2.5704 0.0018
-5 10 8 0.3910 -0.0202
-5 10 9 2.6031 0.0034
-5 10 10 -4.7963 0.0173
-5 10 11 -1.7925 0.0081
-5 10 12 1.8602 -0.0006
-5 10 13 1.2814 -0.0183
-5 10 14 -1.0241 0.0043
-5 10 15 -1.2655 -0.0127
-5 10 16 1.7992 0.0059
-5 10 17 0.6294 -0.0083
-5 10 18 0.3675 0.0065
-5 10 19 -0.0469 -0.0110
-5 10 20 -3.5641 0.0014
-5 10 21 -1.7286 0.0102
-5 10 22 4.0890 0.0318
-5 10 23 0.1051 0.0801
-5 10 24 0.3868 -0.0819
-5 11 1 1.8598 0.1613
-5 11 2 5.0162 -0.0703
-5 11 3 -4.1162 -0.0502
-5 11 4 -1.5275 -0.0360
-5 11 5 2.8212 -0.0158
-5 11 6 1.1260 0.0482
-5 11 7 0.6223 -0.0086
-5 11 8 1.0278 0.0053
-5 11 9 -1.9112 0.0036
-5 11 10 -1.8066 0.0045
-5 11 11 2.6255 0.0002
-5 11 12 0.0796 -0.0179
-5 11 13 -1.4506 0.0007
-5 11 14 -0.8168 0.0101
-5 11 15 3.4406 0.0054
-5 11 16 0.8164 0.0243
-5 11 17 -3.7508 -0.0159
-5 11 18 0.1053 0.0150
-5 11 19 0.0145 0.0102
-5 11 20 -0.1146 0.0007
-5 11 21 4.9394 -0.0335
-5 11 22 1.6163 0.0035
-5 11 23 -3.8166 -0.0017
-5 12 1 5.3916 -0.1398
-5 12 2 0.4624 -0.1127
-5 12 3 -3.6701 0.0362
-5 12 4 2.4779 0.0063
-5 12 5 1.5427 0.0689
-5 12 6 -1.6010 0.0244
-5 12 7 -2.7250 -0.0335
-5 12 8 -2.9559 0.0013
-5 12 9 0.2364 -0.0184
-5 12 10 1.6563 0.0105
-5 12 11 1.0309 -0.0092
-5 12 12 -0.0788 -0.0074
-5 12 13 0.1807 0.0174
-5 12 14 1.6413 0.0085
-5 12 15 -0.6132 0.0086
-5 12 16 -4.0989 -0.0230
-5 12 17 2.7560 -0.0345
-5 12 18 3.3726 0.0202
-5 12 19 -1.5013 -0.0190
-5 12 20 -0.7983 -0.0084
-5 12 21 -0.4285 -0.0111
-5 12 22 -2.5314 0.0471
-5 12 23 -1.0261 0.0207
-5 13 1 3.5767 -0.1362
-5 13 2 -0.9168 0.1174
-5 13 3 -4.3762 0.0495
-5 13 4 1.0294 0.0244
-5 13 5 0.4830 0.0117
-5 13 6 -0.2597 -0.0664
-5 13 7 -0.4165 -0.0248
-5 13 8 1.5506 0.0085
-5 13 9 4.0014 0.0059
-5 13 10 0.5214 0.0109
-5 13 11 0.0161 -0.0024
-5 13 12 -1.7278 0.0156
-5 13 13 -1.5844 -0.0021
-5 13 14 0.5510 -0.0074
-5 13 15 -1.0808 -0.0051
-5 13 16 3.1557 -0.0191
-5 13 17 1.9956 0.0208
-5 13 18 -5.2117 0.0289
-5 13 19 -1.6773 0.0014
-5 13 20 -0.5214 0.0071
-5 13 21 1.7921 -0.0354
-5 13 22 2.4523 0.0550
-5 13 23 -0.0296 0.0077
-5 14 1 2.3362 0.1833
-5 14 2 -2.2890 0.0998
-5 14 3 -1.5845 -0.0516
-5 14 4 3.8578 -0.0029
-5 14 5 0.2497 -0.0670
-5 14 6 -1.0740 -0.0213
-5 14 7 -0.7754 0.0376
-5 14 8 1.2719 0.0275
-5 14 9 0.1775 0.0079
-5 14 10 -2.5765 -0.0006
-5 14 11 -1.3056 0.0041
-5 14 12 -2.1332 -0.0172
-5 14 13 2.3428 -0.0101
-5 14 14 1.6695 0.0016
-5 14 15 -1.5095 -0.0051
-5 14 16 -0.0018 0.0128
-5 14 17 -3.3939 0.0161
-5 14 18 0.7210 -0.0287
-5 14 19 3.1991 -0.0204
-5 14 20 0.3091 0.0023
-5 14 21 3.5247 0.0149
-5 14 22 -1.6520 0.0369
-5 15 1 2.2489 0.1516
-5 15 2 -3.8978 -0.1629
-5 15 3 -1.4628 -0.0404
-5 15 4 1.2702 -0.0214
-5 15 5 -0.5883 -0.0288
-5 15 6 0.5649 0.0833
-5 15 7 0.6518 0.0280
-5 15 8 -0.7615 -0.0083
-5 15 9 -1.0093 -0.0213
-5 15 10 0.4763 -0.0193
-5 15 11 0.3750 -0.0084
-5 15 12 0.2118 -0.0087
-5 15 13 2.1650 0.0123
-5 15 14 -1.1869 0.0016
-5 15 15 0.1404 0.0290
-5 15 16 2.0204 0.0045
-5 15 17 0.3050 -0.0300
-5 15 18 0.8909 -0.0064
-5 15 19 -1.2690 0.0430
-5 15 20 -0.0890 0.0128
-5 15 21 -0.4181 -0.0388
-5 15 22 -3.0749 -0.0121
-5 16 1 -2.4265 -0.1818
-5 16 2 -1.5084 -0.0850
-5 16 3 2.8445 0.0903
-5 16 4 2.3720 -0.0124
-5 16 5 -0.4021 0.0746
-5 16 6 -0.6010 0.0313
-5 16 7 -1.4986 -0.0612
-5 16 8 -1.3399 -0.0176
-5 16 9 2.4974 -0.0117
-5 16 10 1.1738 0.0050
-5 16 11 -1.1781 0.0104
-5 16 12 -0.2448 0.0044
-5 16 13 1.1104 0.0175
-5 16 14 -0.5585 -0.0004
-5 16 15 -1.0471 -0.0026
-5 16 16 -0.7257 -0.0228
-5 16 17 -1.5501 0.0095
-5 16 18 -0.6674 -0.0069
-5 16 19 1.2156 -0.0055
-5 16 20 0.1567 -0.0180
-5 16 21 -0.5157 -0.0011
-5 17 1 0.5234 -0.1076
-5 17 2 -0.5378 0.1455
-5 17 3 -1.0618 0.0197
-5 17 4 -0.8534 0.0044
-5 17 5 -1.2223 0.0258
-5 17 6 0.1571 -0.0819
-5 17 7 0.6057 -0.0221
-5 17 8 1.2995 0.0104
-5 17 9 1.4384 0.0218
-5 17 10 -2.5289 0.0077
-5 17 11 -1.1944 -0.0009
-5 17 12 0.8566 0.0123
-5 17 13 0.9345 -0.0008
-5 17 14 -1.5031 -0.0166
-5 17 15 0.6129 0.0204
-5 17 16 2.5189 0.0013
-5 17 17 -1.5012 -0.0254
-5 17 18 0.3222 -0.0203
-5 17 19 1.5370 0.0501
-5 17 20 -1.0851 0.0079
-5 18 1 -2.7610 0.1534
-5 18 2 -0.9045 0.0323
-5 18 3 2.7339 -0.0878
-5 18 4 1.8041 0.0180
-5 18 5 -0.7376 -0.0528
-5 18 6 0.9684 -0.0173
-5 18 7 0.2506 0.0498
-5 18 8 -1.9539 0.0266
-5 18 9 -1.4732 0.0231
-5 18 10 0.3914 -0.0320
-5 18 11 2.8239 0.0044
-5 18 12 0.2400 -0.0179
-5 18 13 -0.9646 -0.0072
-5 18 14 -1.0252 0.0113
-5 18 15 0.9693 0.0008
-5 18 16 -1.1331 -0.0279
-5 18 17 -2.4257 0.0044
-5 18 18 2.5121 0.0182
-5 18 19 0.7734 0.0075
-5 18 20 -1.1870 -0.0197
-5 19 1 0.9102 -0.0093
-5 19 2 1.3852 -0.1271
-5 19 3 -0.0178 0.0155
-5 19 4 -2.5240 0.0496
-5 19 5 -1.0911 -0.0232
-5 19 6 1.2765 0.0431
-5 19 7 -1.5113 0.0083
-5 19 8 -0.4782 -0.0222
-5 19 9 2.8801 -0.0102
-5 19 10 1.6981 -0.0273
-5 19 11 -1.2893 -0.0032
-5 19 12 -2.6294 0.0002
-5 19 13 0.0346 0.0466
-5 19 14 0.2295 -0.0134
-5 19 15 1.4138 0.0008
-5 19 16 0.3640 0.0047
-5 19 17 -0.2312 -0.0020
-5 19 18 1.5588 -0.0201
-5 19 19 -0.5335 0.0175
-5 20 1 -2.9905 -0.0860
-5 20 2 -0.6460 0.0016
-5 20 3 0.6744 0.0837
-5 20 4 1.3626 -0.0102
-5 20 5 1.2119 -0.0066
-5 20 6 -0.2347 0.0196
-5 20 7 -0.4460 -0.0260
-5 20 8 1.2238 -0.0227
-5 20 9 -0.7962 0.0046
-5 20 10 -1.0732 -0.0132
-5 20 11 -0.4073 0.0300
-5 20 12 -0.1878 0.0217
-5 20 13 0.6365 -0.0087
-5 20 14 0.5510 -0.0127
-5 20 15 1.3822 0.0221
-5 20 16 -1.3852 -0.0352
-5 20 17 -1.0746 -0.0101
-5 21 1 -0.0890 0.0693
-5 21 2 2.8293 0.0895
-5 21 3 1.4153 0.0090
-5 21 4 -0.9968 -0.0310
-5 21 5 -2.4003 -0.0079
-5 21 6 -0.1670 -0.0434
-5 21 7 0.5263 -0.0252
-5 21 8 -1.0933 -0.0011
-5 21 9 0.3808 0.0642
-5 21 10 2.2320 0.0189
-5 21 11 -1.4040 0.0002
-5 21 12 -0.3506 -0.0237
-5 21 13 1.4563 0.0185
-5 21 14 0.2547 -0.0076
-5 21 15 -0.8907 -0.0486
-5 21 16 -1.2407 -0.0168
-5 21 17 0.5169 0.0350
-5 22 1 -0.7236 0.0070
-5 22 2 0.3015 -0.0573
-5 22 3 -0.6986 -0.0771
-5 22 4 -1.3789 -0.0056
-5 22 5 0.2447 0.0070
-5 22 6 1.1003 0.0197
-5 22 7 -0.4700 0.0518
-5 22 8 0.8493 0.0044
-5 22 9 1.6950 0.0373
-5 22 10 -1.4929 -0.0748
-5 22 11 -1.9111 -0.0123
-5 22 12 1.9273 0.0044
-5 22 13 -0.3231 -0.0278
-5 22 14 -1.5138 -0.0347
-5 22 15 0.3953 0.0597
-5 23 1 -1.5189 -0.1017
-5 23 2 2.5428 0.0539
-5 23 3 0.1017 0.0168
-5 23 4 -0.5698 0.0758
-5 23 5 0.3882 -0.0232
-5 23 6 -0.0120 0.0003
-5 23 7 0.4376 -0.0176
-5 23 8 0.4096 -0.0576
-5 23 9 -1.0478 0.0384
-5 23 10 -0.9735 -0.0416
-5 23 11 0.8353 0.0601
-5 23 12 1.5171 -0.0313
-5 23 13 -1.3326 0.0042
-5 23 14 -0.5286 0.0870
-5 24 1 1.0415 0.1744
-5 24 2 1.6401 0.0800
-5 24 3 -2.0379 -0.0327
-5 24 4 0.2314 -0.0146
-5 24 5 0.0932 -0.0565
-5 24 6 -0.7725 0.0764
-5 24 7 -0.0968 -0.0616
-5 24 8 0.2083 -0.0019
-5 24 9 0.2099 0.0839
-5 24 10 -0.4474 -0.0381
-5 24 11 0.3729 0.0417
-4 -26 1 -3.5024 -0.0203
-4 -26 2 -1.0401 -0.0998
-4 -26 3 3.0034 -0.0280
-4 -25 1 -0.9234 -0.1262
-4 -25 2 2.5256 0.0052
-4 -25 3 0.7860 0.1154
-4 -25 4 -1.2590 0.0499
-4 -25 5 -0.0783 -0.0901
-4 -24 1 -1.0477 0.0313
-4 -24 2 -0.6392 0.0926
-4 -24 3 0.5426 -0.0028
-4 -24 4 0.3564 -0.0128
-4 -24 5 -0.6335 -0.0367
-4 -24 6 0.6626 -0.0329
-4 -24 7 -0.0108 -0.0032
-4 -23 1 -0.7515 0.1943
-4 -23 2 1.3379 -0.0570
-4 -23 3 1.9214 0.0028
-4 -23 4 -0.9784 -0.0204
-4 -23 5 -1.0868 -0.0617
-4 -23 6 0.0437 0.0208
-4 -23 7 -1.3760 0.0571
-4 -23 8 0.7379 0.0063
-4 -23 9 1.4542 -0.0403
-4 -22 1 0.0157 -0.0662
-4 -22 2 0.3906 -0.1082
-4 -22 3 0.0738 0.0306
-4 -22 4 -1.6946 -0.0587
-4 -22 5 -0.0260 0.0550
-4 -22 6 1.2229 0.0327
-4 -22 7 0.3489 -0.0163
-4 -22 8 0.9759 -0.0069
-4 -22 9 -0.6388 0.0184
-4 -22 10 -1.2939 -0.0077
-4 -21 1 0.5384 -0.1883
-4 -21 2 -0.4422 0.0548
-4 -21 3 1.0328 0.0191
-4 -21 4 0.4381 0.0047
-4 -21 5 0.0623 0.0637
-4 -21 6 -0.2863 -0.0537
-4 -21 7 -1.0187 0.0051
-4 -21 8 0.0404 0.0039
-4 -21 9 0.5195 -0.0120
-4 -21 10 0.4486 -0.0075
-4 -21 11 -0.4085 0.0151
-4 -21 12 0.8689 0.0275
-4 -20 1 0.9514 0.0727
-4 -20 2 -0.6670 0.1169
-4 -20 3 2.4999 -0.0384
-4 -20 4 -2.3707 0.0251
-4 -20 5 -1.2121 -0.0233
-4 -20 6 1.3568 -0.0535
-4 -20 7 -0.1759 0.0329
-4 -20 8 0.7555 -0.0170
-4 -20 9 0.5913 0.0105
-4 -20 10 -1.4548 0.0178
-4 -20 11 -0.7412 -0.0336
-4 -20 12 1.2791 -0.0252
-4 -20 13 -0.8412 0.0436
-4 -19 2 -0.6997 -0.0818
-4 -19 3 1.0039 -0.0484
-4 -19 4 -1.0356 0.0100
-4 -19 5 2.2472 -0.0381
-4 -19 6 -0.7545 0.0278
-4 -19 7 -1.8463 0.0371
-4 -19 8 1.4869 -0.0123
-4 -19 9 -0.1429 0.0244
-4 -19 10 -0.7280 -0.0083
-4 -19 11 0.8059 -0.0156
-4 -19 12 0.3465 0.0262
-4 -19 13 -0.8784 0.0039
-4 -19 14 0.5531 -0.0228
-4 -18 1 -1.1892 -0.0894
-4 -18 2 0.5689 -0.0923
-4 -18 3 3.6232 0.0535
-4 -18 4 -0.8024 -0.0128
-4 -18 5 -2.1161 0.0130
-4 -18 6 -2.0346 0.0484
-4 -18 7 2.0422 -0.0055
-4 -18 8 2.7206 -0.0228
-4 -18 9 -0.8746 -0.0086
-4 -18 10 -0.9355 -0.0178
-4 -18 11 -0.4659 -0.0046
-4 -18 12 0.2094 -0.0082
-4 -18 13 0.0542 0.0155
-4 -18 14 0.6391 0.0306
-4 -18 15 -0.2869 -0.0341
-4 -17 2 3.3423 0.0789
-4 -17 3 0.7888 0.0226
-4 -17 4 -3.4907 -0.0199
-4 -17 5 -0.2895 0.0521
-4 -17 6 1.6326 -0.0202
-4 -17 7 2.5981 -0.0483
-4 -17 8 -0.5262 -0.0075
-4 -17 9 -3.5352 0.0014
-4 -17 10 -0.6575 0.0106
-4 -17 11 0.9329 0.0089
-4 -17 12 0.5930 0.0081
-4 -17 13 -0.1962 0.0144
-4 -17 14 1.2634 -0.0190
-4 -17 15 -0.2358 -0.0071
-4 -17 16 -0.2185 0.0349
-4 -16 1 0.8803 0.0817
-4 -16 2 -1.3694 0.0191
-4 -16 3 -1.3888 -0.0619
-4 -16 4 -1.3671 0.0101
-4 -16 5 0.4450 0.0006
-4 -16 6 1.1472 -0.0540
-4 -16 7 -0.2079 0.0304
-4 -16 8 -2.5073 0.0137
-4 -16 9 -1.0414 -0.0020
-4 -16 10 2.8794 0.0254
-4 -16 11 1.3290 -0.0030
-4 -16 12 0.0517 0.0051
-4 -16 13 0.4172 -0.0104
-4 -16 14 0.1139 -0.0114
-4 -16 15 -3.1938 -0.0061
-4 -16 16 -0.8410 -0.0312
-4 -16 17 0.9745 0.0073
-4 -15 1 -0.8409 -0.0249
-4 -15 2 0.5287 -0.0681
-4 -15 3 -0.2181 -0.0063
-4 -15 4 -0.2163 0.0390
-4 -15 5 1.8858 -0.0130
-4 -15 6 -0.2412 0.0126
-4 -15 7 -1.1142 0.0239
-4 -15 8 1.2291 -0.0201
-4 -15 9 1.6876 0.0269
-4 -15 10 1.6297 -0.0100
-4 -15 11 -2.4984 -0.0146
-4 -15 12 -1.8520 -0.0061
-4 -15 13 0.4503 -0.0306
-4 -15 14 -0.2976 0.0296
-4 -15 15 -0.3240 0.0107
-4 -15 16 3.2808 0.0370
-4 -15 17 0.4986 0.0276
-4 -15 18 -1.2608 -0.0621
-4 -14 1 5.4920 -0.0631
-4 -14 2 -3.4075 0.0228
-4 -14 3 -0.9468 0.0491
-4 -14 4 2.8323 0.0031
-4 -14 5 -0.2099 -0.0041
-4 -14 6 -1.1116 0.0079
-4 -14 7 1.7859 -0.0098
-4 -14 8 -0.4571 0.0042
-4 -14 9 -2.7293 -0.0124
-4 -14 10 -0.4781 -0.0182
-4 -14 11 -1.6387 0.0155
-4 -14 12 2.9715 -0.0189
-4 -14 13 1.6971 0.0273
-4 -14 14 -1.7069 0.0151
-4 -14 15 -0.2511 -0.0215
-4 -14 16 -0.4197 0.0159
-4 -14 17 -2.1479 -0.0800
-4 -14 18 1.5844 -0.0015
-4 -14 19 1.1218 0.0668
-4 -13 1 -2.2670 0.0752
-4 -13 2 -7.8758 0.0495
-4 -13 3 4.5720 -0.0321
-4 -13 4 1.6398 -0.0324
-4 -13 5 -1.4550 0.0042
-4 -13 6 0.4614 -0.0076
-4 -13 7 -2.7012 -0.0030
-4 -13 8 -1.9573 -0.0106
-4 -13 9 3.9813 0.0001
-4 -13 10 2.5026 0.0137
-4 -13 11 -2.5442 -0.0178
-4 -13 12 1.2761 0.0044
-4 -13 13 -1.4969 0.0121
-4 -13 14 0.1933 -0.0169
-4 -13 15 1.4123 0.0211
-4 -13 16 -0.7971 -0.0285
-4 -13 17 0.8877 -0.0240
-4 -13 18 1.8096 0.0639
-4 -13 19 -2.1465 -0.0172
-4 -12 1 -7.9765 0.0113
-4 -12 2 0.8909 -0.0807
-4 -12 3 9.2892 -0.0383
-4 -12 4 -2.3033 0.0131
-4 -12 5 -0.9251 0.0353
-4 -12 6 -2.3735 0.0039
-4 -12 7 -1.2032 -0.0101
-4 -12 8 5.7030 0.0027
-4 -12 9 0.3010 0.0181
-4 -12 10 -6.1974 -0.0108
-4 -12 11 0.2744 0.0020
-4 -12 12 5.4894 0.0195
-4 -12 13 -1.5155 0.0089
-4 -12 14 -1.0707 0.0111
-4 -12 15 -2.2155 -0.0132
-4 -12 16 -0.4920 0.0060
-4 -12 17 1.9528 0.0197
-4 -12 18 0.2817 -0.0039
-4 -12 19 -1.5603 0.0357
-4 -12 20 0.6018 -0.0165
-4 -11 1 3.6612 -0.1478
-4 -11 2 5.3277 0.0065
-4 -11 3 -1.5460 0.0337
-4 -11 4 -5.4765 0.0459
-4 -11 5 1.2871 0.0356
-4 -11 6 -1.9392 -0.0355
-4 -11 7 2.7225 -0.0086
-4 -11 8 1.6187 0.0048
-4 -11 9 -2.8791 -0.0031
-4 -11 10 2.2494 -0.0055
-4 -11 11 2.9588 0.0020
-4 -11 12 -3.2350 0.0037
-4 -11 13 -4.0444 -0.0054
-4 -11 14 1.6856 -0.0209
-4 -11 15 1.4986 -0.0033
-4 -11 16 2.5756 -0.0155
-4 -11 17 0.0256 -0.0391
-4 -11 18 -1.2269 0.0344
-4 -11 19 -1.4496 -0.0133
-4 -11 20 0.6019 -0.0512
-4 -11 21 0.5455 0.0853
-4 -10 1 -6.8306 0.0522
-4 -10 2 -4.1871 0.1175
-4 -10 3 2.4735 0.0114
-4 -10 4 1.1664 0.0261
-4 -10 5 0.1994 -0.0579
-4 -10 6 -0.6428 -0.0461
-4 -10 7 2.6205 0.0129
-4 -10 8 0.1516 -0.0025
-4 -10 9 -1.4468 0.0156
-4 -10 10 -3.0465 0.0031
-4 -10 11 -1.8336 0.0038
-4 -10 12 2.3251 -0.0052
-4 -10 13 2.5527 -0.0027
-4 -10 14 0.4870 0.0114
-4 -10 15 -0.7259 -0.0150
-4 -10 16 -0.7388 0.0034
-4 -10 17 -1.8888 0.0255
-4 -10 18 0.0206 -0.0002
-4 -10 19 0.2174 0.0110
-4 -10 20 2.2160 0.0457
-4 -10 21 -0.2661 -0.0626
-4 -9 1 -1.0572 0.2149
-4 -9 2 12.7253 -0.0583
-4 -9 3 -1.1221 -0.0451
-4 -9 4 -6.6841 -0.0455
-4 -9 5 3.9555 -0.0474
-4 -9 6 -0.0920 0.0581
-4 -9 7 -0.8923 0.0251
-4 -9 8 -0.9841 -0.0038
-4 -9 9 -2.3960 0.0029
-4 -9 10 3.1447 -0.0002
-4 -9 11 4.7703 -0.0116
-4 -9 12 -1.9153 -0.0215
-4 -9 13 -2.6090 0.0227
-4 -9 14 -0.2814 -0.0113
-4 -9 15 0.4835 -0.0057
-4 -9 16 0.1644 0.0226
-4 -9 17 0.6181 -0.0202
-4 -9 18 1.2735 0.0525
-4 -9 19 0.3162 0.0255
-4 -9 20 -0.3801 -0.0727
-4 -9 21 -3.0304 -0.0044
-4 -9 22 0.7889 0.0797
-4 -8 1 13.1712 -0.1298
-4 -8 2 -1.9505 -0.1381
-4 -8 3 -9.7908 0.0326
-4 -8 4 6.6931 -0.0217
-4 -8 5 3.6763 0.0768
-4 -8 6 -5.7685 0.0496
-4 -8 7 2.9625 -0.0447
-4 -8 8 -0.4770 -0.0170
-4 -8 9 -0.3624 0.0085
-4 -8 10 2.2088 0.0012
-4 -8 11 -4.0845 -0.0226
-4 -8 12 -1.3328 0.0243
-4 -8 13 3.1728 0.0273
-4 -8 14 -0.2358 -0.0141
-4 -8 15 0.4223 0.0164
-4 -8 16 -0.3834 -0.0140
-4 -8 17 -0.7201 0.0013
-4 -8 18 -1.4704 -0.0028
-4 -8 19 -0.9366 -0.0681
-4 -8 20 0.5734 0.0014
-4 -8 21 0.7724 -0.0128
-4 -8 22 2.7513 -0.0202
-4 -7 1 4.3518 -0.2459
-4 -7 2 -4.1470 0.1234
-4 -7 3 -0.9233 0.0392
-4 -7 4 1.6278 0.0299
-4 -7 5 -3.5588 0.0549
-4 -7 6 -0.0116 -0.0878
-4 -7 7 0.0858 -0.0406
-4 -7 8 -4.3136 0.0136
-4 -7 9 2.7866 0.0047
-4 -7 10 2.6536 0.0028
-4 -7 11 0.0426 0.0100
-4 -7 12 0.5693 0.0163
-4 -7 13 -1.0903 -0.0213
-4 -7 14 -0.5233 -0.0121
-4 -7 15 0.6687 -0.0089
-4 -7 16 -1.6428 -0.0195
-4 -7 17 0.3327 0.0052
-4 -7 18 0.8065 0.0083
-4 -7 19 3.7196 0.0330
-4 -7 20 0.9691 -0.0135
-4 -7 21 -2.3975 0.0313
-4 -7 22 -0.7130 0.0965
-4 -7 23 -2.0725 -0.0623
-4 -6 1 1.4149 0.1681
-4 -6 2 -10.4972 0.1429
-4 -6 3 -3.2426 -0.0642
-4 -6 4 6.7434 0.0329
-4 -6 5 3.6612 -0.0793
-4 -6 6 -1.9130 -0.0480
-4 -6 7 -0.4733 0.0639
-4 -6 8 2.9284 0.0165
-4 -6 9 3.7143 0.0124
-4 -6 10 -1.2618 0.0096
-4 -6 11 -4.9862 -0.0085
-4 -6 12 -1.2481 -0.0110
-4 -6 13 3.6468 -0.0099
-4 -6 14 0.0539 0.0014
-4 -6 15 -1.7427 0.0019
-4 -6 16 -0.7828 0.0108
-4 -6 17 1.7375 0.0175
-4 -6 18 1.1819 0.0128
-4 -6 19 -0.2205 -0.0130
-4 -6 20 -5.0768 -0.0065
-4 -6 21 -0.8344 0.0337
-4 -6 22 2.1955 -0.1041
-4 -6 23 0.0040 -0.0295
-4 -5 1 -3.1094 0.2123
-4 -5 2 1.5474 -0.1629
-4 -5 3 10.7522 -0.0353
-4 -5 4 3.5379 -0.0006
-4 -5 5 -7.5834 -0.0574
-4 -5 6 -4.8577 0.0778
-4 -5 7 1.4124 0.0310
-4 -5 8 -0.1406 -0.0192
-4 -5 9 -0.2650 -0.0092
-4 -5 10 -1.3796 -0.0179
-4 -5 11 -0.3305 -0.0036
-4 -5 12 3.6569 -0.0010
-4 -5 13 -0.6446 0.0005
-4 -5 14 -4.0222 0.0135
-4 -5 15 1.3553 0.0117
-4 -5 16 1.7388 0.0007
-4 -5 17 1.8103 -0.0016
-4 -5 18 -1.3984 -0.0138
-4 -5 19 -0.9744 -0.0078
-4 -5 20 0.3408 -0.0081
-4 -5 21 3.0710 -0.0084
-4 -5 22 -0.2296 0.0012
-4 -5 23 -0.9212 0.0594
-4 -5 24 0.8864 -0.0389
-4 -4 1 2.5436 -0.1841
-4 -4 2 -3.4160 -0.1074
-4 -4 3 -6.1814 0.1076
-4 -4 4 -6.4238 -0.0271
-4 -4 5 -0.0910 0.0473
-4 -4 6 5.4342 0.0525
-4 -4 7 4.5710 -0.0445
-4 -4 8 -0.6086 -0.0303
-4 -4 9 -0.0948 -0.0188
-4 -4 10 -0.6310 0.0138
-4 -4 11 -1.4741 0.0119
-4 -4 12 -0.6637 0.0092
-4 -4 13 0.1520 0.0077
-4 -4 14 2.3768 -0.0071
-4 -4 15 1.9447 -0.0125
-4 -4 16 -1.9984 -0.0143
-4 -4 17 -0.8269 -0.0070
-4 -4 18 0.0125 0.0008
-4 -4 19 1.3140 0.0216
-4 -4 20 -2.9151 0.0015
-4 -4 21 -0.8598 0.0194
-4 -4 22 -0.1716 -0.0416
-4 -4 23 1.0772 0.0077
-4 -4 24 0.8868 0.0625
-4 -3 1 -13.1949 -0.0972
-4 -3 2 -0.5125 0.1476
-4 -3 3 5.9121 0.0218
-4 -3 4 6.2313 -0.0314
-4 -3 5 2.1041 0.0472
-4 -3 6 -2.6443 -0.0644
-4 -3 7 -4.5508 -0.0409
-4 -3 8 -4.0735 0.0115
-4 -3 9 2.4584 0.0261
-4 -3 10 0.9972 0.0211
-4 -3 11 -0.0311 0.0010
-4 -3 12 2.2453 0.0096
-4 -3 13 -0.0804 -0.0272
-4 -3 14 -1.8716 -0.0112
-4 -3 15 -0.0290 0.0067
-4 -3 16 -0.8533 0.0114
-4 -3 17 1.2390 0.0220
-4 -3 18 0.3149 0.0049
-4 -3 19 -2.4902 -0.0038
-4 -3 20 -0.8132 -0.0179
-4 -3 21 5.3798 0.0077
-4 -3 22 0.1952 -0.0385
-4 -3 23 -0.9274 0.0565
-4 -3 24 -0.6770 -0.0407
-4 -2 1 1.7484 0.1457
-4 -2 2 8.1610 0.0414
-4 -2 3 -2.8103 -0.0906
-4 -2 4 -4.9837 0.0173
-4 -2 5 -4.4305 -0.0224
-4 -2 6 2.5083 -0.0441
-4 -2 7 3.9240 0.0495
-4 -2 8 1.2895 0.0262
-4 -2 9 2.6476 0.0059
-4 -2 10 -1.9400 -0.0083
-4 -2 11 -1.1216 0.0015
-4 -2 12 -0.0395 -0.0127
-4 -2 13 -0.5555 -0.0217
-4 -2 14 2.2559 0.0157
-4 -2 15 0.4975 -0.0001
-4 -2 16 -4.7019 0.0087
-4 -2 17 1.1756 -0.0057
-4 -2 18 1.2867 -0.0192
-4 -2 19 0.0186 -0.0065
-4 -2 20 1.4961 0.0053
-4 -2 21 -0.3103 0.0123
-4 -2 22 -3.4658 -0.0418
-4 -2 23 0.9496 0.0583
-4 -2 24 0.5179 0.0104
-4 -1 1 15.7094 0.0149
-4 -1 2 1.9379 -0.1227
-4 -1 3 -0.3685 -0.0087
-4 -1 4 -0.2677 0.0369
-4 -1 5 3.0514 -0.0243
-4 -1 6 5.3802 0.0432
-4 -1 7 -7.4132 0.0331
-4 -1 8 -4.8221 -0.0208
-4 -1 9 4.2866 -0.0140
-4 -1 10 -0.4068 -0.0143
-4 -1 11 0.5349 -0.0024
-4 -1 12 0.0742 -0.0039
-4 -1 13 -2.5030 0.0026
-4 -1 14 -1.2340 0.0049
-4 -1 15 -1.0262 0.0001
-4 -1 16 0.8019 0.0150
-4 -1 17 5.8385 0.0073
-4 -1 18 -0.9403 -0.0086
-4 -1 19 -1.5336 0.0005
-4 -1 20 -0.4826 0.0322
-4 -1 21 0.7139 -0.0104
-4 -1 22 0.5489 -0.0234
-4 -1 23 -0.3093 0.0661
-4 -1 24 -0.7140 -0.0637
-4 -1 25 0.7356 -0.0580
-4 0 1 -1.5189 -0.1015
-4 0 2 -8.2501 0.0119
-4 0 3 -5.9416 0.0792
-4 0 4 -7.3256 -0.0116
-4 0 5 6.0985 0.0015
-4 0 6 -0.5699 0.0282
-4 0 7 -6.7488 -0.0361
-4 0 8 8.1780 -0.0243
-4 0 9 3.6512 -0.0026
-4 0 10 -5.9733 0.0080
-4 0 11 -0.3421 0.0127
-4 0 12 -1.3857 0.0002
-4 0 13 1.2095 -0.0013
-4 0 14 6.3504 0.0076
-4 0 15 0.9430 -0.0045
-4 0 16 -2.7732 0.0136
-4 0 17 0.2094 -0.0036
-4 0 18 -2.3136 -0.0352
-4 0 19 -0.1861 0.0157
-4 0 20 -0.8841 -0.0075
-4 0 21 0.3480 -0.0361
-4 0 22 -2.5347 0.0073
-4 0 23 0.4809 -0.0075
-4 0 24 3.0554 -0.0390
-4 0 25 0.0754 0.0989
-4 1 1 -4.1607 0.0611
-4 1 2 5.4536 0.0903
-4 1 3 -0.8349 -0.0217
-4 1 4 4.7172 -0.0393
-4 1 5 10.3703 0.0180
-4 1 6 -6.6432 -0.0139
-4 1 7 -2.4656 -0.0305
-4 1 8 3.6670 0.0099
-4 1 9 -3.4627 0.0142
-4 1 10 -0.0313 0.0085
-4 1 11 3.2791 -0.0038
-4 1 12 -0.1995 0.0049
-4 1 13 2.1895 0.0042
-4 1 14 -2.4224 -0.0050
-4 1 15 -6.7137 -0.0073
-4 1 16 0.9279 0.0135
-4 1 17 3.9345 -0.0270
-4 1 18 -2.2140 -0.0005
-4 1 19 0.4626 0.0198
-4 1 20 1.0937 -0.0156
-4 1 21 0.9250 0.0349
-4 1 22 -0.1027 0.0007
-4 1 23 3.8853 0.0337
-4 1 24 -0.7083 0.0628
-4 1 25 -2.8352 -0.0162
-4 2 1 8.9424 0.0704
-4 2 2 -2.9637 -0.0644
-4 2 3 -8.5741 -0.0643
-4 2 4 1.2216 0.0102
-4 2 5 0.7192 0.0128
-4 2 6 -8.2336 -0.0073
-4 2 7 1.9742 0.0048
-4 2 8 5.2879 0.0208
-4 2 9 0.6563 0.0076
-4 2 10 -1.5836 -0.0054
-4 2 11 -1.1288 -0.0004
-4 2 12 -0.2220 0.0026
-4 2 13 -0.6934 -0.0099
-4 2 14 -2.3410 0.0026
-4 2 15 3.1680 -0.0052
-4 2 16 4.1145 -0.0038
-4 2 17 -1.9036 0.0070
-4 2 18 -1.3801 0.0240
-4 2 19 3.0379 -0.0198
-4 2 20 -2.0704 0.0095
-4 2 21 -1.5804 0.0194
-4 2 22 0.1796 -0.0270
-4 2 23 0.6403 0.0061
-4 2 24 -2.6063 -0.0937
-4 2 25 0.0292 -0.0378
-4 3 1 -1.1796 -0.1475
-4 3 2 -7.1779 -0.0320
-4 3 3 -3.4285 0.0449
-4 3 4 11.1674 0.0405
-4 3 5 4.3739 0.0015
-4 3 6 -5.5308 -0.0066
-4 3 7 5.2324 -0.0045
-4 3 8 1.6551 0.0038
-4 3 9 -5.0609 -0.0083
-4 3 10 -0.9775 -0.0025
-4 3 11 1.7107 0.0092
-4 3 12 -1.8526 0.0003
-4 3 13 -0.9294 -0.0035
-4 3 14 2.8338 -0.0031
-4 3 15 2.5232 -0.0220
-4 3 16 -2.7575 0.0110
-4 3 17 -1.4233 0.0144
-4 3 18 0.8486 -0.0146
-4 3 19 -0.8991 -0.0160
-4 3 20 -2.1745 0.0160
-4 3 21 2.3902 -0.0082
-4 3 22 1.6892 -0.0093
-4 3 23 0.8764 -0.0043
-4 3 24 -1.0836 -0.0015
-4 3 25 0.1592 0.1035
-4 4 1 -3.8565 0.0057
-4 4 2 -10.3883 0.1256
-4 4 3 7.2940 0.0209
-4 4 4 9.2099 -0.0083
-4 4 5 -10.6235 -0.0428
-4 4 6 -6.2588 -0.0111
-4 4 7 7.0799 0.0050
-4 4 8 -2.8100 0.0065
-4 4 9 -3.2425 -0.0034
-4 4 10 0.3872 0.0046
-4 4 11 -0.3170 0.0006
-4 4 12 1.9406 -0.0185
-4 4 13 4.4573 -0.0111
-4 4 14 0.3713 -0.0005
-4 4 15 -3.8134 0.0014
-4 4 16 -1.7423 0.0306
-4 4 17 1.6507 0.0048
-4 4 18 -0.4051 -0.0009
-4 4 19 0.6036 -0.0028
-4 4 20 0.9272 0.0012
-4 4 21 1.0179 0.0095
-4 4 22 -0.9830 -0.0009
-4 4 23 -1.6742 -0.0233
-4 4 24 -1.5636 0.0055
-4 4 25 1.1144 0.0603
-4 5 1 -8.6405 0.2155
-4 5 2 2.0753 -0.0333
-4 5 3 7.9232 -0.0609
-4 5 4 -1.2976 -0.0503
-4 5 5 -5.2733 -0.0380
-4 5 6 4.8944 0.0486
-4 5 7 3.1041 0.0206
-4 5 8 -6.6158 0.0074
-4 5 9 0.5656 0.0008
-4 5 10 4.4892 0.0078
-4 5 11 3.5851 -0.0093
-4 5 12 0.2708 -0.0130
-4 5 13 -2.8205 0.0171
-4 5 14 -3.4587 0.0151
-4 5 15 -0.3635 0.0127
-4 5 16 2.1107 0.0055
-4 5 17 0.1056 -0.0205
-4 5 18 -0.5934 -0.0016
-4 5 19 1.5556 -0.0223
-4 5 20 -0.5535 0.0113
-4 5 21 0.1656 0.0138
-4 5 22 -0.6740 -0.0058
-4 5 23 -0.6358 -0.0087
-4 5 24 1.4798 0.0117
-4 5 25 1.3027 0.0168
-4 6 1 1.8457 -0.1207
-4 6 2 -4.7930 -0.1504
-4 6 3 5.7981 0.0212
-4 6 4 0.4780 -0.0100
-4 6 5 -7.1620 0.0846
-4 6 6 -1.3788 0.0525
-4 6 7 1.2212 -0.0328
-4 6 8 -0.2646 -0.0165
-4 6 9 4.8891 -0.0180
-4 6 10 0.3226 -0.0087
-4 6 11 -3.5357 -0.0148
-4 6 12 -2.1132 0.0133
-4 6 13 0.2386 0.0149
-4 6 14 -0.5634 -0.0002
-4 6 15 -0.2804 -0.0060
-4 6 16 0.7211 -0.0281
-4 6 17 1.5660 -0.0077
-4 6 18 1.5538 0.0079
-4 6 19 -0.4936 -0.0003
-4 6 20 -1.5521 0.0235
-4 6 21 -0.1271 -0.0236
-4 6 22 -2.4084 -0.0092
-4 6 23 -0.0299 -0.0485
-4 6 24 3.2118 0.0182
-4 6 25 -0.2481 0.0888
-4 7 1 -18.0198 -0.2175
-4 7 2 0.9897 0.1184
-4 7 3 7.3476 0.0475
-4 7 4 -7.0801 0.0291
-4 7 5 -2.9939 0.0387
-4 7 6 8.5203 -0.0849
-4 7 7 3.1653 -0.0281
-4 7 8 -2.8885 -0.0012
-4 7 9 0.9756 0.0103
-4 7 10 -2.5162 0.0149
-4 7 11 -0.5220 0.0065
-4 7 12 0.8665 0.0161
-4 7 13 -0.3793 -0.0098
-4 7 14 -0.3215 -0.0038
-4 7 15 1.7628 -0.0189
-4 7 16 2.7890 -0.0074
-4 7 17 0.3107 0.0248
-4 7 18 -4.1635 0.0192
-4 7 19 -1.5332 0.0097
-4 7 20 1.7780 -0.0152
-4 7 21 -0.1837 -0.0140
-4 7 22 0.0024 0.0213
-4 7 23 4.1697 -0.0096
-4 7 24 1.1019 0.1156
-4 7 25 -4.1533 -0.0129
-4 8 1 -5.1435 0.1868
-4 8 2 8.6231 0.1177
-4 8 3 4.0514 -0.0580
-4 8 4 -1.9044 0.0204
-4 8 5 1.6620 -0.0725
-4 8 6 1.1791 -0.0366
-4 8 7 -4.7862 0.0457
-4 8 8 -1.3396 0.0127
-4 8 9 0.7957 0.0312
-4 8 10 -3.4947 -0.0100
-4 8 11 1.7183 0.0055
-4 8 12 1.7943 -0.0079
-4 8 13 0.8561 -0.0216
-4 8 14 -1.1922 0.0054
-4 8 15 -1.0309 -0.0034
-4 8 16 0.5864 0.0226
-4 8 17 -1.2712 0.0098
-4 8 18 -0.1994 0.0032
-4 8 19 4.0688 -0.0149
-4 8 20 -1.0895 -0.0298
-4 8 21 -2.4564 -0.0013
-4 8 22 1.5722 0.0251
-4 8 23 -0.3128 0.0086
-4 8 24 -2.4773 0.0005
-4 8 25 -0.5982 -0.1136
-4 9 1 -0.8526 0.1745
-4 9 2 8.3713 -0.1636
-4 9 3 -2.0417 -0.0302
-4 9 4 -7.4413 -0.0137
-4 9 5 -1.7810 -0.0352
-4 9 6 0.8779 0.0789
-4 9 7 -0.0364 0.0396
-4 9 8 1.8941 -0.0052
-4 9 9 0.3005 -0.0123
-4 9 10 1.9650 -0.0328
-4 9 11 3.9946 -0.0006
-4 9 12 -1.7313 -0.0284
-4 9 13 -2.8432 0.0180
-4 9 14 -1.5770 0.0162
-4 9 15 3.6382 0.0016
-4 9 16 2.7788 0.0154
-4 9 17 -1.2762 -0.0204
-4 9 18 -1.5728 -0.0021
-4 9 19 -1.4697 -0.0147
-4 9 20 -2.3957 -0.0013
-4 9 21 2.6375 0.0180
-4 9 22 1.5553 0.0183
-4 9 23 -1.0262 -0.0507
-4 9 24 1.5772 -0.0030
-4 9 25 -0.2120 0.0418
-4 10 1 5.3062 -0.1941
-4 10 2 2.1413 -0.0942
-4 10 3 -4.8026 0.0902
-4 10 4 -0.1174 -0.0158
-4 10 5 4.8271 0.0606
-4 10 6 2.9671 0.0324
-4 10 7 -0.7279 -0.0559
-4 10 8 0.5649 -0.0395
-4 10 9 0.1319 -0.0114
-4 10 10 -1.4786 0.0054
-4 10 11 -2.5316 0.0168
-4 10 12 -1.7068 0.0067
-4 10 13 1.2304 0.0241
-4 10 14 2.0789 -0.0131
-4 10 15 0.2862 0.0155
-4 10 16 -3.4479 -0.0163
-4 10 17 -2.2263 -0.0292
-4 10 18 0.5735 0.0210
-4 10 19 3.0385 -0.0026
-4 10 20 0.0984 -0.0039
-4 10 21 0.0397 -0.0138
-4 10 22 -1.1261 0.0250
-4 10 23 0.1528 0.0027
-4 10 24 1.0406 0.0538
-4 10 25 -2.0696 -0.0284
-4 11 1 3.6424 -0.1266
-4 11 2 2.5431 0.1562
-4 11 3 -3.0001 0.0233
-4 11 4 -1.2956 -0.0141
-4 11 5 1.5377 0.0354
-4 11 6 -1.4694 -0.0726
-4 11 7 -1.7922 -0.0260
-4 11 8 1.7505 0.0165
-4 11 9 -2.7194 0.0288
-4 11 10 -1.2004 0.0168
-4 11 11 2.9807 0.0028
-4 11 12 1.6345 -0.0029
-4 11 13 -0.9593 -0.0035
-4 11 14 -2.5582 -0.0071
-4 11 15 -0.2162 0.0012
-4 11 16 2.8875 -0.0308
-4 11 17 1.9421 0.0183
-4 11 18 0.9151 0.0127
-4 11 19 -1.2718 0.0019
-4 11 20 -3.6681 0.0083
-4 11 21 3.2025 0.0005
-4 11 22 1.8794 0.0381
-4 11 23 0.3907 -0.0392
-4 11 24 -1.1854 -0.0017
-4 12 1 6.9162 0.1387
-4 12 2 -3.3805 0.0543
-4 12 3 -4.4997 -0.1043
-4 12 4 2.4268 0.0161
-4 12 5 3.2058 -0.0372
-4 12 6 -0.1468 -0.0317
-4 12 7 -0.1581 0.0576
-4 12 8 -2.3415 0.0246
-4 12 9 -2.1098 0.0199
-4 12 10 4.5529 -0.0202
-4 12 11 1.1004 -0.0107
-4 12 12 -2.9472 -0.0169
-4 12 13 -2.1106 -0.0108
-4 12 14 3.1555 0.0102
-4 12 15 4.3486 0.0049
-4 12 16 -2.2503 0.0040
-4 12 17 -3.2429 0.0121
-4 12 18 -0.1995 -0.0060
-4 12 19 -0.8702 0.0177
-4 12 20 1.4964 -0.0379
-4 12 21 2.7371 -0.0114
-4 12 22 -3.3342 0.0259
-4 12 23 -1.9220 -0.0469
-4 12 24 -1.5951 0.0079
-4 13 1 1.1731 0.0546
-4 13 2 -2.4155 -0.1208
-4 13 3 -0.5938 0.0031
-4 13 4 -0.5064 0.0399
-4 13 5 0.7224 -0.0290
-4 13 6 -1.4368 0.0562
-4 13 7 -2.7903 0.0296
-4 13 8 0.7972 -0.0231
-4 13 9 4.6480 -0.0297
-4 13 10 1.8287 -0.0295
-4 13 11 -3.0867 0.0059
-4 13 12 -1.5255 -0.0053
-4 13 13 2.1082 0.0238
-4 13 14 2.3341 0.0056
-4 13 15 -5.1962 -0.0021
-4 13 16 -1.4275 0.0039
-4 13 17 4.0233 -0.0128
-4 13 18 -0.2051 -0.0025
-4 13 19 -0.8387 0.0058
-4 13 20 0.0472 -0.0226
-4 13 21 -0.4758 0.0298
-4 13 22 -0.1396 0.0089
-4 13 23 1.1969 -0.0097
-4 13 24 0.7979 0.0575
-4 14 1 -0.5786 -0.1157
-4 14 2 -4.1483 -0.0107
-4 14 3 -2.2145 0.0805
-4 14 4 3.3325 -0.0371
-4 14 5 3.6772 0.0149
-4 14 6 -2.0301 0.0347
-4 14 7 0.1867 -0.0363
-4 14 8 2.5461 -0.0299
-4 14 9 -0.2481 -0.0100
-4 14 10 -2.1370 0.0169
-4 14 11 -2.4223 0.0148
-4 14 12 -0.0139 0.0128
-4 14 13 2.0212 0.0061
-4 14 14 -1.9816 -0.0013
-4 14 15 0.1998 0.0173
-4 14 16 4.9598 -0.0128
-4 14 17 -4.2782 -0.0141
-4 14 18 -2.4165 -0.0030
-4 14 19 2.1138 0.0047
-4 14 20 -0.1082 -0.0061
-4 14 21 2.1162 0.0234
-4 14 22 0.0805 0.0026
-4 14 23 -1.1985 -0.0301
-4 15 1 -1.3733 0.0297
-4 15 2 -1.3438 0.1089
-4 15 3 2.4380 -0.0172
-4 15 4 0.6758 -0.0350
-4 15 5 -2.1302 0.0406
-4 15 6 -1.4174 -0.0306
-4 15 7 0.7784 -0.0221
-4 15 8 -0.8663 0.0099
-4 15 9 -0.3999 0.0186
-4 15 10 -0.1776 0.0154
-4 15 11 -0.7530 0.0025
-4 15 12 2.6161 -0.0022
-4 15 13 0.5703 -0.0243
-4 15 14 -1.6236 0.0038
-4 15 15 1.9049 -0.0117
-4 15 16 -2.6111 -0.0114
-4 15 17 -1.1435 -0.0092
-4 15 18 5.6859 0.0030
-4 15 19 -0.9858 0.0403
-4 15 20 0.1909 -0.0074
-4 15 21 0.9712 -0.0056
-4 15 22 -3.1485 -0.0297
-4 15 23 -0.1964 0.0073
-4 16 1 -3.7914 0.0466
-4 16 2 -1.3366 -0.0416
-4 16 3 1.1443 -0.0564
-4 16 4 0.3115 0.0206
-4 16 5 2.1051 0.0070
-4 16 6 0.6291 -0.0239
-4 16 7 -1.2412 0.0191
-4 16 8 -0.4594 0.0086
-4 16 9 1.6599 -0.0048
-4 16 10 -0.4287 -0.0149
-4 16 11 0.2114 -0.0098
-4 16 12 0.9790 -0.0067
-4 16 13 -2.0964 0.0030
-4 16 14 0.7171 0.0317
-4 16 15 0.9866 -0.0068
-4 16 16 -0.2345 0.0064
-4 16 17 2.1130 -0.0040
-4 16 18 -2.8464 0.0163
-4 16 19 -2.1720 -0.0125
-4 16 20 1.4413 -0.0276
-4 16 21 -2.9330 0.0325
-4 16 22 0.2083 0.0003
-4 17 1 -1.0454 -0.0971
-4 17 2 4.1082 -0.0144
-4 17 3 0.8747 0.0293
-4 17 4 -1.5277 0.0224
-4 17 5 -1.1015 -0.0126
-4 17 6 -1.7577 -0.0009
-4 17 7 -0.7776 0.0139
-4 17 8 1.5026 -0.0077
-4 17 9 0.9050 -0.0099
-4 17 10 -1.0683 0.0011
-4 17 11 0.7244 0.0100
-4 17 12 -0.7787 0.0153
-4 17 13 -0.4875 0.0073
-4 17 14 1.2280 0.0027
-4 17 15 -0.5375 -0.0261
-4 17 16 -0.0381 0.0133
-4 17 17 -2.3529 -0.0194
-4 17 18 -0.7935 -0.0136
-4 17 19 3.6013 0.0116
-4 17 20 -0.3586 0.0346
-4 17 21 0.6404 -0.0089
-4 17 22 2.2141 -0.0429
-4 18 1 -0.5068 -0.0146
-4 18 2 -1.6674 0.0820
-4 18 3 -1.8578 0.0238
-4 18 4 0.9741 -0.0085
-4 18 5 1.8076 -0.0314
-4 18 6 0.6696 0.0050
-4 18 7 0.7335 -0.0102
-4 18 8 0.8669 0.0009
-4 18 9 -1.8105 0.0066
-4 18 10 -0.6396 0.0100
-4 18 11 1.0820 0.0132
-4 18 12 -0.4975 -0.0040
-4 18 13 0.6569 -0.0182
-4 18 14 -0.2784 -0.0041
-4 18 15 -0.2248 -0.0275
-4 18 16 -0.4939 0.0209
-4 18 17 -0.7745 -0.0142
-4 18 18 3.3516 0.0136
-4 18 19 0.6787 0.0103
-4 18 20 -2.0793 0.0011
-4 18 21 -0.3711 0.0024
-4 19 1 -0.1152 0.1504
-4 19 2 3.0625 -0.0226
-4 19 3 3.3021 -0.0428
-4 19 4 -0.2649 -0.0446
-4 19 5 -2.0215 0.0107
-4 19 6 -1.4740 0.0364
-4 19 7 -0.4120 -0.0013
-4 19 8 -0.5553 0.0279
-4 19 9 -0.1017 -0.0219
-4 19 10 3.1255 0.0000
-4 19 11 0.3273 -0.0276
-4 19 12 -2.4638 -0.0240
-4 19 13 -0.9946 0.0167
-4 19 14 -0.2162 0.0140
-4 19 15 1.8115 0.0100
-4 19 16 0.5073 0.0495
-4 19 17 0.2955 -0.0441
-4 19 18 0.2832 -0.0028
-4 19 19 -2.0676 0.0134
-4 19 20 -0.5875 0.0259
-4 20 1 1.2324 -0.1002
-4 20 2 0.5071 -0.1213
-4 20 3 -2.4251 0.0304
-4 20 4 -2.1259 0.0133
-4 20 5 1.2023 0.0443
-4 20 6 0.8664 -0.0174
-4 20 7 1.1544 -0.0259
-4 20 8 0.9395 -0.0007
-4 20 9 -0.3502 -0.0266
-4 20 10 -1.0476 0.0251
-4 20 11 -2.8473 -0.0063
-4 20 12 0.3186 0.0406
-4 20 13 2.4877 0.0083
-4 20 14 1.4890 0.0006
-4 20 15 0.7485 -0.0090
-4 20 16 -2.2550 -0.0328
-4 20 17 -1.1958 -0.0466
-4 20 18 0.2874 0.0513
-4 20 19 0.4968 0.0037
-4 21 1 -1.2183 -0.1851
-4 21 2 1.1814 0.0837
-4 21 3 1.2487 0.0773
-4 21 4 1.3992 0.0106
-4 21 5 -1.2737 0.0346
-4 21 6 -2.2219 -0.0359
-4 21 7 1.4955 -0.0122
-4 21 8 -1.2868 0.0084
-4 21 9 -1.0741 -0.0066
-4 21 10 2.1189 0.0309
-4 21 11 1.1501 -0.0202
-4 21 12 1.0433 -0.0108
-4 21 13 -0.5407 -0.0042
-4 21 14 -1.4411 0.0146
-4 21 15 -0.9420 -0.0429
-4 21 16 -0.6372 0.0179
-4 21 17 1.3452 0.0202
-4 21 18 0.2378 0.0226
-4 21 19 0.0426 -0.0249
-4 22 1 3.5658 0.1438
-4 22 2 1.1007 0.1449
-4 22 3 -1.5063 -0.0310
-4 22 4 -2.2835 -0.0158
-4 22 5 -1.1332 -0.0656
-4 22 6 3.1004 -0.0642
-4 22 7 1.5456 0.0090
-4 22 8 -2.0049 0.0272
-4 22 9 2.4722 0.0208
-4 22 10 -0.7347 0.0357
-4 22 11 -2.4256 -0.0356
-4 22 12 1.4188 0.0080
-4 22 13 -0.7656 -0.0140
-4 22 14 -2.1288 -0.0140
-4 22 15 1.2945 0.0350
-4 22 16 1.9209 0.0300
-4 22 17 -0.1488 -0.0602
-4 23 1 -0.9285 0.1533
-4 23 2 -0.6357 -0.1548
-4 23 3 0.3075 -0.0599
-4 23 4 0.4039 -0.0260
-4 23 5 1.2164 0.0054
-4 23 6 -0.6391 0.0770
-4 23 7 -2.4106 0.0109
-4 23 8 1.4007 0.0415
-4 23 9 1.0192 -0.0112
-4 23 10 -3.1538 -0.0212
-4 23 11 2.6329 -0.0462
-4 23 12 0.6156 -0.0200
-4 23 13 -4.0540 0.0042
-4 23 14 1.3863 0.1063
-4 23 15 4.7346 -0.0111
-4 23 16 -0.9343 -0.1122
-4 24 1 2.7035 -0.2061
-4 24 2 1.3282 -0.0805
-4 24 3 -2.1030 0.1204
-4 24 4 -0.4039 -0.0080
-4 24 5 0.1090 0.0705
-4 24 6 -0.8318 -0.0252
-4 24 7 1.6654 -0.0589
-4 24 8 1.8365 0.0301
-4 24 9 -2.0006 -0.0796
-4 24 10 -0.9335 0.0421
-4 24 11 1.7014 -0.0154
-4 24 12 -1.7957 -0.0029
-4 24 13 0.7032 0.0760
-4 24 14 2.5831 0.0194
-4 25 1 2.6972 -0.0130
-4 25 2 -2.6209 0.1849
-4 25 3 0.1871 0.0084
-4 25 4 1.8898 -0.0642
-4 25 5 -1.1297 0.0460
-4 25 6 -0.9713 -0.1203
-4 25 7 1.0141 -0.0055
-4 25 8 0.3004 0.0547
-4 25 9 -1.0812 -0.0045
-4 25 10 -0.0740 0.0957
-4 25 11 1.0844 -0.0837
-3 -27 1 -1.8772 -0.1264
-3 -26 1 -1.9215 0.0360
-3 -26 2 0.5951 0.0784
-3 -26 3 1.0462 0.0285
-3 -26 4 0.3342 0.0356
-3 -25 1 -2.3181 0.1916
-3 -25 2 2.0846 -0.0411
-3 -25 3 1.0201 0.0036
-3 -25 4 0.0906 -0.0011
-3 -25 5 -0.8956 -0.0812
-3 -25 6 1.1942 0.0326
-3 -24 1 2.1836 -0.0171
-3 -24 2 1.1286 -0.1372
-3 -24 3 -0.9920 0.0541
-3 -24 4 -0.2111 -0.0658
-3 -24 5 -0.6370 -0.0013
-3 -24 6 0.1252 0.0540
-3 -24 7 -1.3279 -0.0172
-3 -24 8 1.8252 0.0273
-3 -23 1 -2.0506 -0.0835
-3 -23 2 -1.2915 0.0502
-3 -23 3 1.1870 0.0564
-3 -23 4 0.8780 -0.0298
-3 -23 5 0.1470 0.0689
-3 -23 6 -0.6458 -0.0156
-3 -23 7 -1.3505 -0.0060
-3 -23 8 0.8508 -0.0176
-3 -23 9 -0.3057 -0.0309
-3 -23 10 0.1396 -0.0086
-3 -22 1 0.2200 0.0520
-3 -22 2 2.6383 0.0477
-3 -22 3 0.6437 -0.0550
-3 -22 4 -1.1417 -0.0017
-3 -22 5 -1.5951 0.0206
-3 -22 6 -1.3435 -0.0402
-3 -22 7 1.3018 -0.0087
-3 -22 8 2.7607 -0.0125
-3 -22 9 1.1213 0.0584
-3 -22 10 -0.9685 0.0081
-3 -22 11 -1.9795 -0.0163
-3 -21 1 1.0641 -0.0032
-3 -21 2 -1.0990 -0.0483
-3 -21 3 -0.6394 -0.0237
-3 -21 4 0.7438 0.0517
-3 -21 5 0.5334 -0.0229
-3 -21 6 0.1420 -0.0189
-3 -21 7 0.6149 0.0099
-3 -21 8 -0.1145 0.0154
-3 -21 9 -1.5267 0.0172
-3 -21 10 -2.0870 -0.0301
-3 -21 11 0.1295 0.0018
-3 -21 12 1.9717 -0.0072
-3 -20 1 -1.4965 -0.0367
-3 -20 2 1.6199 0.0093
-3 -20 3 2.7046 0.0322
-3 -20 4 -0.6694 0.0050
-3 -20 5 -2.8169 -0.0277
-3 -20 6 -1.0782 0.0212
-3 -20 7 2.1833 -0.0158
-3 -20 8 0.7597 0.0043
-3 -20 9 -0.2301 0.0031
-3 -20 10 -0.0050 0.0058
-3 -20 11 0.6493 -0.0006
-3 -20 12 0.4762 -0.0381
-3 -20 13 -0.6784 -0.0015
-3 -20 14 -1.4029 0.0040
-3 -19 1 0.7642 0.0846
-3 -19 2 2.7712 0.0248
-3 -19 3 -1.2678 -0.0152
-3 -19 4 -2.2627 -0.0278
-3 -19 5 -0.1001 -0.0064
-3 -19 6 1.8888 0.0071
-3 -19 7 1.4238 0.0007
-3 -19 8 -1.7266 0.0253
-3 -19 9 -0.8191 0.0083
-3 -19 10 -0.5622 0.0199
-3 -19 11 0.6151 -0.0409
-3 -19 12 -0.0397 -0.0163
-3 -19 13 -0.4358 0.0513
-3 -19 14 0.3042 0.0163
-3 -19 15 0.2357 -0.0296
-3 -18 1 1.5058 0.0104
-3 -18 2 1.4043 -0.0664
-3 -18 3 -1.2846 -0.0266
-3 -18 4 -0.3848 -0.0017
-3 -18 5 -1.0695 0.0425
-3 -18 6 1.0322 0.0274
-3 -18 7 1.5211 -0.0113
-3 -18 8 -1.4200 -0.0131
-3 -18 9 -0.0926 -0.0017
-3 -18 10 1.0961 -0.0171
-3 -18 11 0.1484 -0.0342
-3 -18 12 -1.5079 0.0217
-3 -18 13 1.4975 0.0060
-3 -18 14 0.9563 0.0089
-3 -18 15 -0.4853 0.0139
-3 -18 16 -0.3252 -0.0272
-3 -17 1 1.2355 -0.1543
-3 -17 2 0.3976 0.0078
-3 -17 3 -1.5610 0.0152
-3 -17 4 -1.1207 0.0431
-3 -17 5 1.1204 0.0290
-3 -17 6 2.6575 -0.0452
-3 -17 7 -0.7928 -0.0299
-3 -17 8 -2.6639 0.0017
-3 -17 9 1.2895 0.0039
-3 -17 10 0.6525 -0.0020
-3 -17 11 -1.8790 0.0062
-3 -17 12 0.2042 0.0118
-3 -17 13 1.9621 0.0063
-3 -17 14 -1.7716 0.0159
-3 -17 15 -0.9753 -0.0263
-3 -17 16 0.6071 -0.0213
-3 -17 17 0.9219 0.0328
-3 -16 1 0.2379 0.0450
-3 -16 2 -0.0779 0.0981
-3 -16 3 -2.3883 -0.0046
-3 -16 4 1.6161 0.0267
-3 -16 5 1.7461 -0.0538
-3 -16 6 -1.0991 -0.0314
-3 -16 7 -1.1814 0.0147
-3 -16 8 -1.1439 0.0135
-3 -16 9 1.0621 0.0144
-3 -16 10 -0.4362 0.0079
-3 -16 11 -0.5403 0.0139
-3 -16 12 2.1782 -0.0106
-3 -16 13 1.3801 -0.0151
-3 -16 14 -1.0520 0.0207
-3 -16 15 -0.1022 -0.0060
-3 -16 16 -0.8566 -0.0206
-3 -16 17 -1.0327 0.0065
-3 -16 18 -0.1952 0.0060
-3 -15 1 -1.2845 0.1875
-3 -15 2 -1.9879 -0.0500
-3 -15 3 -0.2634 -0.0310
-3 -15 4 2.7430 -0.0171
-3 -15 5 -1.2323 -0.0335
-3 -15 6 -2.0709 0.0384
-3 -15 7 -0.4953 0.0209
-3 -15 8 -0.4165 0.0146
-3 -15 9 4.1468 -0.0014
-3 -15 10 1.4261 0.0014
-3 -15 11 -0.7228 -0.0138
-3 -15 12 -0.5183 -0.0348
-3 -15 13 -1.9448 0.0201
-3 -15 14 -2.5129 0.0163
-3 -15 15 0.0546 -0.0192
-3 -15 16 1.6715 0.0124
-3 -15 17 2.6581 -0.0039
-3 -15 18 0.9039 -0.0229
-3 -14 1 -2.0654 -0.0748
-3 -14 2 -0.6308 -0.1202
-3 -14 3 1.0848 0.0219
-3 -14 4 2.7156 -0.0194
-3 -14 5 -1.6674 0.0329
-3 -14 6 -1.4497 0.0375
-3 -14 7 2.6572 -0.0145
-3 -14 8 2.8607 -0.0100
-3 -14 9 1.2343 -0.0145
-3 -14 10 -6.2274 -0.0101
-3 -14 11 -3.7199 -0.0227
-3 -14 12 1.9885 0.0084
-3 -14 13 2.3048 0.0214
-3 -14 14 1.1252 0.0052
-3 -14 15 1.9930 0.0113
-3 -14 16 -0.7173 -0.0326
-3 -14 17 -2.0498 -0.0192
-3 -14 18 -1.7054 0.0528
-3 -14 19 0.1372 0.0227
-3 -13 1 -3.6120 -0.2219
-3 -13 2 0.6176 0.0728
-3 -13 3 3.4724 0.0408
-3 -13 4 1.1427 0.0052
-3 -13 5 -4.8822 0.0617
-3 -13 6 -0.2627 -0.0405
-3 -13 7 2.8595 -0.0377
-3 -13 8 -3.3296 0.0003
-3 -13 9 -2.5925 -0.0054
-3 -13 10 -0.2640 0.0027
-3 -13 11 5.7150 0.0081
-3 -13 12 2.9007 0.0280
-3 -13 13 -3.0172 0.0062
-3 -13 14 -1.5954 -0.0070
-3 -13 15 -0.0089 -0.0238
-3 -13 16 -1.9020 -0.0197
-3 -13 17 2.2165 0.0235
-3 -13 18 1.7323 -0.0029
-3 -13 19 -0.5865 -0.0046
-3 -13 20 -0.6529 0.0048
-3 -12 1 -6.0482 0.0858
-3 -12 2 3.6377 0.1535
-3 -12 3 0.9346 -0.0688
-3 -12 4 -1.8003 0.0374
-3 -12 5 -2.6519 -0.0301
-3 -12 6 2.2442 -0.0676
-3 -12 7 1.4356 0.0307
-3 -12 8 0.1587 0.0112
-3 -12 9 4.3488 0.0153
-3 -12 10 -1.7332 0.0061
-3 -12 11 -2.3345 0.0103
-3 -12 12 -2.0399 0.0100
-3 -12 13 0.9517 -0.0264
-3 -12 14 2.5278 0.0035
-3 -12 15 -1.1719 0.0017
-3 -12 16 -0.9526 0.0032
-3 -12 17 2.0118 0.0280
-3 -12 18 -2.2792 0.0170
-3 -12 19 -0.7321 0.0084
-3 -12 20 1.3121 -0.0285
-3 -12 21 0.1418 -0.0181
-3 -11 1 1.9863 0.2174
-3 -11 2 9.8460 -0.1004
-3 -11 3 -0.3821 -0.0465
-3 -11 4 -1.7381 0.0317
-3 -11 5 -1.9213 -0.0746
-3 -11 6 2.7112 0.0478
-3 -11 7 2.2284 0.0318
-3 -11 8 -2.5498 0.0049
-3 -11 9 -4.7513 0.0128
-3 -11 10 -2.5484 -0.0167
-3 -11 11 6.6879 0.0059
-3 -11 12 1.9203 -0.0297
-3 -11 13 -2.0486 -0.0070
-3 -11 14 -2.8312 0.0043
-3 -11 15 -1.1921 -0.0255
-3 -11 16 2.1653 0.0247
-3 -11 17 1.6607 -0.0043
-3 -11 18 -1.2152 -0.0375
-3 -11 19 1.4597 0.0108
-3 -11 20 -0.1852 -0.0295
-3 -11 21 -1.3314 -0.0327
-3 -10 1 9.8514 -0.0937
-3 -10 2 -2.8311 -0.1302
-3 -10 3 -11.1221 0.0801
-3 -10 4 1.1151 -0.0308
-3 -10 5 1.3533 0.0182
-3 -10 6 2.2598 0.0652
-3 -10 7 -2.1593 -0.0369
-3 -10 8 -3.9588 -0.0082
-3 -10 9 4.8035 -0.0281
-3 -10 10 5.5450 -0.0088
-3 -10 11 -2.8668 -0.0119
-3 -10 12 -6.3397 -0.0041
-3 -10 13 1.9774 0.0357
-3 -10 14 2.5443 -0.0053
-3 -10 15 2.2043 0.0225
-3 -10 16 0.5383 0.0082
-3 -10 17 -1.8108 -0.0257
-3 -10 18 -2.1745 0.0196
-3 -10 19 0.6303 -0.0045
-3 -10 20 -1.1487 -0.0143
-3 -10 21 0.3019 0.0897
-3 -10 22 2.1661 0.0358
-3 -9 1 -12.2106 -0.1478
-3 -9 2 -3.6831 0.1172
-3 -9 3 5.8530 0.0441
-3 -9 4 8.1292 -0.0408
-3 -9 5 -3.3219 0.0521
-3 -9 6 0.1707 -0.0316
-3 -9 7 -1.2821 -0.0434
-3 -9 8 0.7852 0.0097
-3 -9 9 2.0641 0.0073
-3 -9 10 -4.9514 0.0159
-3 -9 11 -0.9024 0.0013
-3 -9 12 5.5498 0.0257
-3 -9 13 0.9682 -0.0019
-3 -9 14 -3.5179 -0.0148
-3 -9 15 -0.9207 -0.0032
-3 -9 16 -2.1589 -0.0123
-3 -9 17 -0.0423 0.0123
-3 -9 18 1.4733 -0.0099
-3 -9 19 2.9524 0.0219
-3 -9 20 -0.3433 0.0319
-3 -9 21 0.3463 -0.0615
-3 -9 22 0.2010 -0.0772
-3 -8 1 19.1763 0.1103
-3 -8 2 8.6603 0.0790
-3 -8 3 -4.6310 -0.0823
-3 -8 4 -2.0280 0.0116
-3 -8 5 -2.8449 0.0063
-3 -8 6 1.6560 -0.0408
-3 -8 7 -1.3700 0.0181
-3 -8 8 0.0806 0.0232
-3 -8 9 1.3568 0.0033
-3 -8 10 1.3611 0.0004
-3 -8 11 1.0003 0.0005
-3 -8 12 -3.1589 -0.0012
-3 -8 13 -2.8818 -0.0055
-3 -8 14 2.5338 -0.0020
-3 -8 15 2.1412 0.0000
-3 -8 16 0.8255 0.0008
-3 -8 17 1.5304 -0.0099
-3 -8 18 -1.3169 0.0054
-3 -8 19 -0.2735 0.0092
-3 -8 20 -3.3683 -0.0453
-3 -8 21 0.2249 0.0129
-3 -8 22 1.2785 0.0545
-3 -8 23 -1.4922 -0.0225
-3 -7 1 -2.9230 0.0269
-3 -7 2 -20.0415 -0.0923
-3 -7 3 2.4196 -0.0258
-3 -7 4 7.8837 0.0304
-3 -7 5 -4.5323 -0.0299
-3 -7 6 -0.5896 0.0138
-3 -7 7 -2.3351 0.0216
-3 -7 8 1.2648 -0.0107
-3 -7 9 2.4726 -0.0117
-3 -7 10 -2.8305 -0.0055
-3 -7 11 -1.3088 -0.0045
-3 -7 12 2.6658 -0.0032
-3 -7 13 1.4221 -0.0034
-3 -7 14 0.5721 0.0001
-3 -7 15 -2.2192 0.0002
-3 -7 16 -1.7458 -0.0067
-3 -7 17 -2.0199 0.0193
-3 -7 18 -0.1320 -0.0058
-3 -7 19 3.3918 -0.0057
-3 -7 20 0.0410 0.0130
-3 -7 21 2.8252 -0.0199
-3 -7 22 -1.2582 -0.0264
-3 -7 23 -2.7230 0.0491
-3 -6 1 -20.2004 -0.1190
-3 -6 2 8.2456 -0.0107
-3 -6 3 7.7753 0.0609
-3 -6 4 -7.3373 0.0040
-3 -6 5 -3.9299 -0.0042
-3 -6 6 2.7084 0.0244
-3 -6 7 2.2540 -0.0159
-3 -6 8 6.8886 -0.0066
-3 -6 9 -2.1473 0.0015
-3 -6 10 -2.3322 0.0104
-3 -6 11 2.6714 0.0148
-3 -6 12 -2.6970 -0.0034
-3 -6 13 -1.7341 0.0063
-3 -6 14 2.1343 0.0059
-3 -6 15 -1.4501 -0.0153
-3 -6 16 0.8815 0.0124
-3 -6 17 1.2811 -0.0008
-3 -6 18 3.5200 -0.0239
-3 -6 19 0.9779 0.0348
-3 -6 20 -4.3655 -0.0123
-3 -6 21 -1.8135 0.0101
-3 -6 22 -2.9361 0.0439
-3 -6 23 1.7276 -0.0272
-3 -6 24 3.1236 -0.0562
-3 -5 1 10.5919 0.0979
-3 -5 2 6.5835 0.0854
-3 -5 3 -2.9053 0.0086
-3 -5 4 6.4036 -0.0352
-3 -5 5 2.3287 0.0070
-3 -5 6 -0.6394 0.0029
-3 -5 7 1.8505 -0.0129
-3 -5 8 -4.8234 0.0041
-3 -5 9 -6.6134 -0.0034
-3 -5 10 4.1206 0.0121
-3 -5 11 -0.9233 -0.0066
-3 -5 12 -0.2808 -0.0166
-3 -5 13 3.7403 0.0066
-3 -5 14 -2.0023 -0.0139
-3 -5 15 -2.6473 -0.0017
-3 -5 16 2.3524 0.0100
-3 -5 17 0.7796 -0.0214
-3 -5 18 0.3459 0.0203
-3 -5 19 -4.3349 0.0213
-3 -5 20 -2.1404 -0.0202
-3 -5 21 2.8008 -0.0052
-3 -5 22 2.2187 -0.0343
-3 -5 23 3.2314 0.0198
-3 -5 24 -0.1717 0.0249
-3 -4 1 13.9444 0.0539
-3 -4 2 -2.4155 -0.0914
-3 -4 3 -0.0628 -0.0527
-3 -4 4 -5.9202 -0.0147
-3 -4 5 -11.0566 0.0305
-3 -4 6 2.2957 -0.0060
-3 -4 7 1.8622 -0.0057
-3 -4 8 -1.2111 0.0038
-3 -4 9 5.1088 -0.0027
-3 -4 10 2.4116 -0.0005
-3 -4 11 -3.1910 -0.0086
-3 -4 12 1.0190 0.0053
-3 -4 13 -3.0680 0.0057
-3 -4 14 0.8982 -0.0053
-3 -4 15 4.3349 0.0124
-3 -4 16 0.5475 0.0043
-3 -4 17 -2.5013 0.0055
-3 -4 18 -0.9578 0.0171
-3 -4 19 -0.0708 -0.0095
-3 -4 20 2.5323 -0.0203
-3 -4 21 0.5594 -0.0159
-3 -4 22 -0.6957 0.0159
-3 -4 23 -0.7917 -0.0136
-3 -4 24 -1.4755 -0.0300
-3 -3 1 -9.7026 -0.2148
-3 -3 2 -7.9632 -0.0249
-3 -3 3 -2.6612 0.0448
-3 -3 4 0.0073 0.0547
-3 -3 5 8.3621 0.0379
-3 -3 6 9.3470 -0.0335
-3 -3 7 -3.2400 -0.0052
-3 -3 8 -4.6866 -0.0051
-3 -3 9 0.5393 -0.0060
-3 -3 10 -0.2136 0.0093
-3 -3 11 -1.4174 0.0175
-3 -3 12 0.2668 0.0075
-3 -3 13 1.5863 -0.0094
-3 -3 14 4.1162 -0.0087
-3 -3 15 -5.2045 0.0018
-3 -3 16 -4.0809 -0.0039
-3 -3 17 2.0092 -0.0094
-3 -3 18 2.7710 -0.0014
-3 -3 19 -1.7214 -0.0071
-3 -3 20 -1.2034 -0.0070
-3 -3 21 0.7084 0.0088
-3 -3 22 0.9775 0.0138
-3 -3 23 -0.0591 0.0095
-3 -3 24 0.0405 0.0629
-3 -3 25 -0.3844 -0.0215
-3 -2 1 9.3757 0.0529
-3 -2 2 7.1541 0.1547
-3 -2 3 2.6850 0.0249
-3 -2 4 -0.9760 0.0120
-3 -2 5 -0.2627 -0.0595
-3 -2 6 -3.2292 -0.0457
-3 -2 7 -9.3730 0.0150
-3 -2 8 2.7617 0.0018
-3 -2 9 8.7905 0.0152
-3 -2 10 -2.2960 0.0119
-3 -2 11 -3.5295 0.0085
-3 -2 12 1.9510 -0.0225
-3 -2 13 0.3114 -0.0191
-3 -2 14 -0.4818 0.0067
-3 -2 15 -2.4547 0.0067
-3 -2 16 3.8792 0.0058
-3 -2 17 1.8158 0.0077
-3 -2 18 -2.6413 0.0035
-3 -2 19 -1.3336 -0.0038
-3 -2 20 3.8581 0.0051
-3 -2 21 0.1872 -0.0094
-3 -2 22 -2.1878 0.0052
-3 -2 23 -0.7400 -0.0155
-3 -2 24 0.2682 -0.0166
-3 -2 25 0.2880 0.0121
-3 -1 1 8.6254 0.2084
-3 -1 2 -1.8486 -0.0551
-3 -1 3 -7.2060 -0.0701
-3 -1 4 -3.8513 -0.0443
-3 -1 5 8.7640 -0.0320
-3 -1 6 0.9406 0.0454
-3 -1 7 -4.9274 0.0238
-3 -1 8 7.6347 0.0123
-3 -1 9 0.2872 0.0074
-3 -1 10 -6.3475 -0.0022
-3 -1 11 2.3014 -0.0116
-3 -1 12 1.7972 -0.0339
-3 -1 13 -1.0054 0.0170
-3 -1 14 0.3964 0.0036
-3 -1 15 -3.8816 -0.0001
-3 -1 16 0.7022 0.0235
-3 -1 17 0.4865 -0.0076
-3 -1 18 0.9868 -0.0115
-3 -1 19 1.5129 0.0031
-3 -1 20 -0.7363 -0.0077
-3 -1 21 -3.2710 -0.0057
-3 -1 22 0.8553 0.0177
-3 -1 23 1.1629 -0.0154
-3 -1 24 0.6399 0.0797
-3 -1 25 0.2016 -0.0001
-3 0 1 8.4740 -0.1122
-3 0 2 -8.4698 -0.1261
-3 0 3 -9.6004 0.0181
-3 0 4 3.5167 0.0038
-3 0 5 8.9651 0.0683
-3 0 6 -10.9774 0.0289
-3 0 7 -4.7582 -0.0227
-3 0 8 10.3007 -0.0142
-3 0 9 -0.7441 -0.0198
-3 0 10 -4.8418 -0.0058
-3 0 11 -0.5986 -0.0207
-3 0 12 -0.9190 0.0167
-3 0 13 0.6503 0.0301
-3 0 14 0.7955 -0.0087
-3 0 15 0.0612 0.0227
-3 0 16 5.7910 -0.0123
-3 0 17 -0.6261 -0.0315
-3 0 18 -1.9679 0.0013
-3 0 19 -1.2877 -0.0038
-3 0 20 -0.9782 -0.0022
-3 0 21 0.0523 0.0141
-3 0 22 1.2116 0.0096
-3 0 23 -0.0134 -0.0006
-3 0 24 0.8949 0.0060
-3 0 25 -0.4757 -0.1236
-3 0 26 -1.3434 0.0228
-3 1 1 -23.4824 -0.1725
-3 1 2 -1.3401 0.1194
-3 1 3 -0.0265 0.0421
-3 1 4 11.8889 0.0256
-3 1 5 5.7339 0.0344
-3 1 6 -10.5088 -0.0716
-3 1 7 5.8575 -0.0333
-3 1 8 6.2077 -0.0065
-3 1 9 -10.4868 0.0193
-3 1 10 -2.6294 0.0055
-3 1 11 6.6590 0.0110
-3 1 12 2.8731 0.0309
-3 1 13 0.7025 -0.0173
-3 1 14 -0.6868 -0.0072
-3 1 15 -1.5392 -0.0145
-3 1 16 -0.3230 -0.0147
-3 1 17 -4.3216 0.0208
-3 1 18 1.3298 0.0041
-3 1 19 0.4981 0.0081
-3 1 20 -0.1823 0.0095
-3 1 21 0.0537 0.0090
-3 1 22 1.2056 -0.0031
-3 1 23 1.2180 -0.0343
-3 1 24 -0.0819 0.0034
-3 1 25 -1.6055 0.0451
-3 1 26 -0.4068 0.0795
-3 2 1 40.4812 0.1664
-3 2 2 7.8091 0.1244
-3 2 3 -9.2800 -0.0859
-3 2 4 8.8979 0.0180
-3 2 5 -8.1606 -0.0680
-3 2 6 -11.6452 -0.0490
-3 2 7 6.3476 0.0430
-3 2 8 -0.0477 0.0340
-3 2 9 -0.7708 0.0310
-3 2 10 6.5598 -0.0071
-3 2 11 -1.0258 0.0183
-3 2 12 -3.9906 -0.0239
-3 2 13 -0.4820 -0.0213
-3 2 14 -1.2020 -0.0010
-3 2 15 0.1481 -0.0146
-3 2 16 1.0086 0.0289
-3 2 17 -0.9768 -0.0030
-3 2 18 2.7732 0.0016
-3 2 19 -0.4068 0.0049
-3 2 20 0.0310 -0.0148
-3 2 21 -0.2000 0.0110
-3 2 22 2.1721 -0.0216
-3 2 23 -0.5741 -0.0113
-3 2 24 -2.3349 0.0569
-3 2 25 -0.7252 -0.0193
-3 2 26 0.2024 -0.0926
-3 3 1 -6.8133 0.2205
-3 3 2 -33.3788 -0.1530
-3 3 3 0.1198 -0.0500
-3 3 4 9.0606 0.0015
-3 3 5 -6.8950 -0.0577
-3 3 6 6.3543 0.0869
-3 3 7 9.0768 0.0452
-3 3 8 -1.9226 -0.0013
-3 3 9 -3.3166 -0.0227
-3 3 10 -3.6423 -0.0263
-3 3 11 -0.6925 -0.0115
-3 3 12 2.7577 -0.0331
-3 3 13 -0.8062 0.0261
-3 3 14 -0.3328 0.0031
-3 3 15 1.6761 0.0191
-3 3 16 -0.1144 0.0155
-3 3 17 0.1356 -0.0187
-3 3 18 2.3215 0.0097
-3 3 19 -2.1695 -0.0258
-3 3 20 -1.3157 0.0075
-3 3 21 0.4054 0.0092
-3 3 22 1.2527 -0.0217
-3 3 23 -2.8104 0.0120
-3 3 24 0.3388 0.0056
-3 3 25 1.3685 -0.0416
-3 3 26 0.4604 0.0233
-3 4 1 -6.8805 -0.1749
-3 4 2 -1.1714 -0.1602
-3 4 3 15.4763 0.0918
-3 4 4 5.8640 -0.0360
-3 4 5 -4.2389 0.0653
-3 4 6 -1.5687 0.0689
-3 4 7 -5.1152 -0.0565
-3 4 8 -3.8641 -0.0293
-3 4 9 1.2208 -0.0242
-3 4 10 4.0790 0.0081
-3 4 11 0.7482 -0.0007
-3 4 12 -2.9164 0.0163
-3 4 13 1.8188 0.0244
-3 4 14 3.9405 -0.0148
-3 4 15 -2.2030 0.0025
-3 4 16 -2.3419 -0.0281
-3 4 17 0.0244 0.0071
-3 4 18 -0.1981 0.0131
-3 4 19 -1.6571 -0.0081
-3 4 20 1.6878 0.0134
-3 4 21 1.4172 -0.0170
-3 4 22 -0.1000 0.0056
-3 4 23 -1.4802 -0.0058
-3 4 24 1.1364 0.0157
-3 4 25 -0.4007 0.0487
-3 4 26 -0.2647 0.0098
-3 5 1 -16.0888 -0.2185
-3 5 2 -5.2447 0.1606
-3 5 3 10.9715 0.0581
-3 5 4 -6.0749 -0.0226
-3 5 5 -10.1561 0.0826
-3 5 6 4.3357 -0.0750
-3 5 7 3.9580 -0.0496
-3 5 8 0.9316 0.0038
-3 5 9 0.4421 0.0129
-3 5 10 -1.0559 0.0255
-3 5 11 -1.4246 0.0047
-3 5 12 3.6265 0.0188
-3 5 13 2.5916 -0.0096
-3 5 14 -6.4635 -0.0028
-3 5 15 -4.2136 -0.0023
-3 5 16 4.5334 -0.0013
-3 5 17 2.4033 0.0262
-3 5 18 0.3097 -0.0066
-3 5 19 -0.0716 -0.0068
-3 5 20 0.5377 -0.0117
-3 5 21 -1.1434 0.0143
-3 5 22 -1.5534 0.0150
-3 5 23 -0.6456 -0.0251
-3 5 24 2.5933 0.0638
-3 5 25 0.4619 -0.0360
-3 5 26 -0.8112 -0.1297
-3 6 1 -6.9718 0.1539
-3 6 2 7.8319 0.1309
-3 6 3 4.3969 -0.0938
-3 6 4 -5.9322 0.0236
-3 6 5 3.9809 -0.0270
-3 6 6 3.6490 -0.0749
-3 6 7 -6.2326 0.0468
-3 6 8 -0.1398 0.0245
-3 6 9 3.7911 0.0296
-3 6 10 1.5382 -0.0082
-3 6 11 -0.7836 -0.0098
-3 6 12 -1.0505 -0.0078
-3 6 13 -3.0761 -0.0237
-3 6 14 -1.7009 -0.0012
-3 6 15 5.0078 -0.0069
-3 6 16 2.2678 0.0100
-3 6 17 -3.6025 0.0062
-3 6 18 -0.5222 -0.0084
-3 6 19 0.1732 -0.0190
-3 6 20 -0.1141 -0.0087
-3 6 21 -1.4440 0.0175
-3 6 22 -0.1438 -0.0319
-3 6 23 2.0938 0.0072
-3 6 24 1.5088 0.0271
-3 6 25 -2.7253 -0.1049
-3 6 26 -0.9684 0.0614
-3 7 1 -16.5610 0.0880
-3 7 2 2.5200 -0.1223
-3 7 3 7.4976 -0.0437
-3 7 4 -2.9965 0.0249
-3 7 5 -4.3340 -0.0553
-3 7 6 -1.7312 0.0306
-3 7 7 2.9720 0.0417
-3 7 8 5.7451 -0.0091
-3 7 9 -1.8338 -0.0085
-3 7 10 -4.5297 -0.0260
-3 7 11 -1.7939 0.0067
-3 7 12 1.7526 -0.0146
-3 7 13 0.1748 0.0064
-3 7 14 -1.0493 0.0232
-3 7 15 1.2280 0.0024
-3 7 16 0.6361 0.0025
-3 7 17 1.0210 -0.0023
-3 7 18 0.7711 -0.0060
-3 7 19 -2.0156 -0.0041
-3 7 20 -1.1850 0.0158
-3 7 21 -0.0402 0.0136
-3 7 22 2.1727 0.0061
-3 7 23 2.1252 0.0131
-3 7 24 -0.4305 -0.0070
-3 7 25 -2.1107 0.0245
-3 7 26 0.3511 0.0737
-3 8 1 0.5557 -0.1356
-3 8 2 18.4468 -0.0285
-3 8 3 -1.7352 0.0726
-3 8 4 -8.9688 -0.0033
-3 8 5 3.1610 0.0008
-3 8 6 5.6222 0.0480
-3 8 7 0.5916 -0.0123
-3 8 8 -2.1744 -0.0140
-3 8 9 -4.1730 -0.0033
-3 8 10 -0.2543 0.0002
-3 8 11 1.6619 0.0052
-3 8 12 1.6461 0.0054
-3 8 13 -0.7329 0.0197
-3 8 14 0.7149 -0.0124
-3 8 15 3.6757 -0.0085
-3 8 16 -0.0743 0.0047
-3 8 17 -4.6172 -0.0058
-3 8 18 -2.6156 -0.0059
-3 8 19 2.1074 0.0063
-3 8 20 2.3823 0.0044
-3 8 21 0.5317 0.0081
-3 8 22 0.3043 -0.0161
-3 8 23 -1.1113 -0.0024
-3 8 24 -2.8744 0.0305
-3 8 25 -1.2242 -0.0557
-3 8 26 1.7325 -0.0689
-3 9 1 10.2231 0.0821
-3 9 2 3.2846 0.1053
-3 9 3 -4.6967 0.0019
-3 9 4 -0.6528 -0.0349
-3 9 5 -0.0514 0.0137
-3 9 6 -2.0092 -0.0056
-3 9 7 -1.9484 -0.0293
-3 9 8 -0.7262 0.0169
-3 9 9 -1.0165 0.0088
-3 9 10 2.6274 0.0006
-3 9 11 3.1585 -0.0016
-3 9 12 1.1560 -0.0092
-3 9 13 -2.5843 -0.0157
-3 9 14 -0.9795 -0.0016
-3 9 15 0.1166 0.0142
-3 9 16 -2.6936 -0.0048
-3 9 17 -0.0148 -0.0013
-3 9 18 5.4264 0.0152
-3 9 19 0.7070 0.0051
-3 9 20 -4.4259 -0.0128
-3 9 21 -0.8193 -0.0067
-3 9 22 0.6544 -0.0215
-3 9 23 0.3561 0.0077
-3 9 24 0.8353 -0.0291
-3 9 25 1.7920 -0.0115
-3 9 26 0.3591 0.1082
-3 10 1 10.4372 0.0767
-3 10 2 0.3571 -0.0733
-3 10 3 -6.9386 -0.0732
-3 10 4 -5.6776 -0.0074
-3 10 5 3.1635 0.0100
-3 10 6 5.1945 -0.0070
-3 10 7 1.8953 0.0102
-3 10 8 0.5172 0.0211
-3 10 9 -0.2921 -0.0208
-3 10 10 1.9939 -0.0136
-3 10 11 -0.9060 -0.0138
-3 10 12 -3.5720 0.0031
-3 10 13 -2.0075 0.0175
-3 10 14 3.0112 0.0127
-3 10 15 1.9268 0.0046
-3 10 16 -0.6397 -0.0067
-3 10 17 0.0959 -0.0036
-3 10 18 -1.1075 -0.0086
-3 10 19 -4.0037 -0.0080
-3 10 20 1.5496 -0.0025
-3 10 21 3.7746 0.0092
-3 10 22 -0.4991 0.0082
-3 10 23 0.3782 0.0202
-3 10 24 -1.1949 0.0162
-3 10 25 -1.3849 0.0343
-3 11 1 2.5825 -0.1780
-3 11 2 -4.8068 -0.0614
-3 11 3 -2.6766 0.0230
-3 11 4 4.0661 0.0473
-3 11 5 6.0333 0.0219
-3 11 6 -1.6904 0.0069
-3 11 7 -4.0711 0.0112
-3 11 8 -2.2756 -0.0030
-3 11 9 -0.8822 -0.0257
-3 11 10 0.7379 0.0084
-3 11 11 -0.9678 0.0062
-3 11 12 0.5111 0.0189
-3 11 13 1.8938 0.0051
-3 11 14 0.1682 0.0019
-3 11 15 -2.8534 -0.0067
-3 11 16 -1.4179 -0.0165
-3 11 17 0.7957 0.0035
-3 11 18 2.4061 0.0026
-3 11 19 0.9501 0.0091
-3 11 20 0.8836 -0.0060
-3 11 21 -1.4163 0.0053
-3 11 22 -0.3078 -0.0131
-3 11 23 1.4095 -0.0050
-3 11 24 -2.1455 0.0161
-3 11 25 0.8160 -0.0121
-3 12 1 3.5072 -0.0095
-3 12 2 -2.9266 0.1190
-3 12 3 -3.5670 0.0401
-3 12 4 0.7990 0.0164
-3 12 5 1.8065 -0.0292
-3 12 6 -2.1555 -0.0106
-3 12 7 -0.2380 -0.0070
-3 12 8 0.2846 -0.0256
-3 12 9 0.3308 -0.0002
-3 12 10 1.8676 0.0262
-3 12 11 1.2596 -0.0038
-3 12 12 -0.1107 0.0022
-3 12 13 -2.8531 -0.0144
-3 12 14 -0.8960 -0.0096
-3 12 15 3.3336 -0.0099
-3 12 16 2.8395 0.0057
-3 12 17 0.4658 0.0033
-3 12 18 -0.7123 -0.0024
-3 12 19 -3.2762 0.0091
-3 12 20 0.3685 -0.0077
-3 12 21 0.5665 0.0144
-3 12 22 0.3911 -0.0054
-3 12 23 -1.6939 0.0350
-3 12 24 -2.5842 -0.0218
-3 12 25 2.5067 -0.0615
-3 13 1 -2.4280 0.1747
-3 13 2 -3.9204 -0.0349
-3 13 3 1.1102 -0.0513
-3 13 4 3.8323 -0.0338
-3 13 5 0.6795 -0.0233
-3 13 6 -2.6078 0.0347
-3 13 7 -1.6068 -0.0064
-3 13 8 -0.2684 0.0104
-3 13 9 3.3667 0.0144
-3 13 10 1.9010 -0.0077
-3 13 11 -2.0836 -0.0132
-3 13 12 -3.3403 -0.0078
-3 13 13 0.7374 0.0014
-3 13 14 5.2700 0.0146
-3 13 15 -0.5080 0.0110
-3 13 16 -4.6718 0.0106
-3 13 17 -1.3707 -0.0104
-3 13 18 0.0227 -0.0077
-3 13 19 -0.2341 -0.0027
-3 13 20 1.0996 0.0088
-3 13 21 -0.7337 0.0060
-3 13 22 0.9147 -0.0192
-3 13 23 -0.5892 0.0023
-3 13 24 1.5930 -0.0391
-3 13 25 3.1200 0.0675
-3 14 1 -0.6164 -0.0852
-3 14 2 -1.3161 -0.1084
-3 14 3 -2.5531 0.0314
-3 14 4 1.4582 -0.0105
-3 14 5 2.0134 0.0628
-3 14 6 -1.3682 0.0214
-3 14 7 -0.0129 -0.0230
-3 14 8 3.1779 0.0002
-3 14 9 1.1421 -0.0291
-3 14 10 -3.5658 0.0118
-3 14 11 -2.0014 -0.0087
-3 14 12 1.1589 0.0019
-3 14 13 3.1832 0.0249
-3 14 14 -3.0569 0.0009
-3 14 15 -4.2026 0.0129
-3 14 16 3.6127 -0.0203
-3 14 17 2.0263 -0.0249
-3 14 18 -0.2337 0.0095
-3 14 19 -0.0878 0.0199
-3 14 20 0.6874 0.0030
-3 14 21 1.1941 -0.0169
-3 14 22 -0.2737 0.0071
-3 14 23 -1.0643 -0.0096
-3 14 24 1.4878 -0.0174
-3 15 1 -2.7482 -0.1485
-3 15 2 -1.7060 0.1134
-3 15 3 4.0649 0.0410
-3 15 4 5.5323 0.0294
-3 15 5 -3.9420 0.0363
-3 15 6 -4.0700 -0.0734
-3 15 7 1.1979 -0.0116
-3 15 8 0.9834 -0.0215
-3 15 9 -1.9853 0.0102
-3 15 10 -1.3157 0.0251
-3 15 11 1.9145 -0.0094
-3 15 12 1.4228 0.0388
-3 15 13 -1.8319 -0.0032
-3 15 14 -1.7988 -0.0160
-3 15 15 5.8207 -0.0156
-3 15 16 0.5378 -0.0390
-3 15 17 -4.0194 0.0220
-3 15 18 1.6154 0.0020
-3 15 19 -1.3499 0.0055
-3 15 20 0.1675 0.0087
-3 15 21 0.4597 -0.0018
-3 15 22 -0.8989 -0.0142
-3 15 23 0.9728 -0.0043
-3 15 24 -0.7931 0.0641
-3 16 1 0.1220 0.1692
-3 16 2 1.8495 0.1073
-3 16 3 0.5787 -0.0693
-3 16 4 -4.1456 -0.0000
-3 16 5 -2.2858 -0.0849
-3 16 6 4.2049 -0.0220
-3 16 7 1.7346 0.0373
-3 16 8 0.2450 0.0045
-3 16 9 -0.5522 0.0418
-3 16 10 0.3533 -0.0144
-3 16 11 1.2105 0.0071
-3 16 12 -2.0512 -0.0141
-3 16 13 -1.0325 -0.0342
-3 16 14 3.2814 -0.0001
-3 16 15 0.2002 -0.0003
-3 16 16 -4.3296 0.0292
-3 16 17 2.3711 0.0266
-3 16 18 0.1646 -0.0172
-3 16 19 -2.2585 0.0166
-3 16 20 3.7230 -0.0117
-3 16 21 -1.4816 -0.0023
-3 16 22 -1.5332 0.0100
-3 16 23 0.3884 0.0034
-3 17 1 0.6318 0.1305
-3 17 2 1.2603 -0.1374
-3 17 3 0.8533 -0.0500
-3 17 4 1.2446 -0.0150
-3 17 5 0.8012 -0.0286
-3 17 6 -1.2740 0.0795
-3 17 7 -2.0349 0.0202
-3 17 8 0.1082 0.0114
-3 17 9 -2.0373 -0.0122
-3 17 10 0.4171 -0.0160
-3 17 11 1.1337 0.0069
-3 17 12 -0.3851 -0.0322
-3 17 13 1.9570 0.0237
-3 17 14 -0.6851 -0.0000
-3 17 15 -1.7837 0.0226
-3 17 16 1.9745 0.0093
-3 17 17 -0.4200 -0.0289
-3 17 18 -2.8109 -0.0309
-3 17 19 2.1035 0.0176
-3 17 20 -0.0049 0.0290
-3 17 21 -2.2430 -0.0028
-3 17 22 2.9220 -0.0530
-3 17 23 0.7104 -0.0138
-3 18 1 2.1495 -0.1376
-3 18 2 -0.5105 -0.1108
-3 18 3 -1.7627 0.0623
-3 18 4 -3.2519 0.0034
-3 18 5 -1.4940 0.0684
-3 18 6 2.4807 0.0522
-3 18 7 2.6274 -0.0334
-3 18 8 0.6091 -0.0359
-3 18 9 -0.8607 -0.0267
-3 18 10 2.5693 0.0051
-3 18 11 -0.6037 -0.0190
-3 18 12 -2.2837 0.0125
-3 18 13 -0.2998 0.0331
-3 18 14 -0.4304 -0.0096
-3 18 15 2.4284 0.0252
-3 18 16 -1.4519 -0.0400
-3 18 17 -3.1496 -0.0058
-3 18 18 3.1549 -0.0028
-3 18 19 1.5611 0.0251
-3 18 20 -0.1072 -0.0058
-3 18 21 1.1318 -0.0191
-3 18 22 -1.2895 0.0143
-3 19 1 -1.2453 -0.1476
-3 19 2 -1.0830 0.1206
-3 19 3 2.2439 0.0661
-3 19 4 2.2072 0.0043
-3 19 5 2.5996 0.0281
-3 19 6 0.0375 -0.0723
-3 19 7 -2.5470 -0.0477
-3 19 8 -2.6870 0.0058
-3 19 9 -1.1785 0.0330
-3 19 10 1.6575 0.0108
-3 19 11 -0.4800 0.0056
-3 19 12 1.2962 0.0119
-3 19 13 0.2794 -0.0111
-3 19 14 -1.5942 -0.0102
-3 19 15 0.5080 -0.0011
-3 19 16 -0.7393 -0.0212
-3 19 17 2.8614 0.0237
-3 19 18 1.7005 -0.0269
-3 19 19 -2.8563 0.0415
-3 19 20 -0.4403 0.0284
-3 19 21 -1.7205 -0.0048
-3 20 1 1.1174 0.1298
-3 20 2 2.7283 0.0903
-3 20 3 -0.0526 -0.0708
-3 20 4 -3.7975 0.0217
-3 20 5 -2.9286 -0.0365
-3 20 6 -0.4260 -0.0556
-3 20 7 1.8157 0.0476
-3 20 8 1.4848 0.0080
-3 20 9 1.8707 0.0061
-3 20 10 1.3062 -0.0189
-3 20 11 -2.2583 -0.0029
-3 20 12 -2.2025 0.0028
-3 20 13 -1.8059 0.0176
-3 20 14 3.5575 0.0052
-3 20 15 4.3624 0.0020
-3 20 16 -2.2083 -0.0224
-3 20 17 -2.3355 0.0095
-3 20 18 -2.1956 0.0003
-3 20 19 0.2190 0.0231
-3 20 20 2.0048 -0.0343
-3 21 1 -1.2243 0.0772
-3 21 2 -2.3168 -0.1099
-3 21 3 -1.2485 -0.0119
-3 21 4 1.5708 0.0249
-3 21 5 2.5835 -0.0879
-3 21 6 1.3227 0.0420
-3 21 7 -0.8333 0.0471
-3 21 8 -1.9062 -0.0105
-3 21 9 -1.2156 0.0337
-3 21 10 -0.5625 -0.0180
-3 21 11 0.5777 0.0098
-3 21 12 2.6065 -0.0228
-3 21 13 1.9120 0.0091
-3 21 14 0.2755 0.0030
-3 21 15 -4.6589 -0.0243
-3 21 16 -3.5768 -0.0229
-3 21 17 2.8853 0.0456
-3 21 18 2.3156 -0.0314
-3 21 19 1.1963 -0.0005
-3 21 20 -0.4020 0.0391
-3 22 1 1.0622 -0.0730
-3 22 2 2.3484 -0.0328
-3 22 3 2.4099 0.0754
-3 22 4 -1.5072 -0.0040
-3 22 5 -3.3425 0.0133
-3 22 6 -0.6596 0.0566
-3 22 7 1.1352 -0.0286
-3 22 8 1.7886 -0.0228
-3 22 9 1.6933 -0.0168
-3 22 10 0.6458 -0.0249
-3 22 11 -1.2236 0.0060
-3 22 12 -1.6827 -0.0106
-3 22 13 -2.1421 0.0461
-3 22 14 -0.6556 -0.0304
-3 22 15 1.5176 0.0062
-3 22 16 3.3435 0.0172
-3 22 17 0.9209 0.0035
-3 22 18 -1.9753 -0.0293
-3 22 19 -0.6015 0.0548
-3 23 1 1.2399 0.0323
-3 23 2 -1.1947 0.0684
-3 23 3 -1.4452 0.0192
-3 23 4 -0.7268 -0.0254
-3 23 5 1.8176 -0.0218
-3 23 6 1.5707 -0.0274
-3 23 7 -0.4823 -0.0184
-3 23 8 0.5377 -0.0091
-3 23 9 -1.7382 0.0504
-3 23 10 -3.0805 0.0186
-3 23 11 0.5131 -0.0110
-3 23 12 2.8152 -0.0066
-3 23 13 -0.5243 0.0130
-3 23 14 0.3076 0.0449
-3 23 15 1.4581 0.0171
-3 23 16 -0.5815 -0.1279
-3 23 17 -1.7828 0.0142
-3 24 1 -0.8752 0.0711
-3 24 2 0.1641 -0.0522
-3 24 3 0.6125 -0.0646
-3 24 4 -0.7463 -0.0091
-3 24 5 -1.6947 0.0032
-3 24 6 -1.5005 0.0008
-3 24 7 2.0854 0.0228
-3 24 8 2.3662 0.0361
-3 24 9 -3.3052 0.0276
-3 24 10 -0.1617 -0.0739
-3 24 11 2.9205 0.0036
-3 24 12 -0.7855 -0.0140
-3 24 13 -2.0257 0.0352
-3 24 14 2.8024 0.0014
-3 24 15 0.4445 -0.1471
-3 24 16 -1.7574 0.0014
-3 25 1 0.8378 -0.1322
-3 25 2 -1.0525 -0.0183
-3 25 3 -0.3129 0.0294
-3 25 4 0.4624 0.0776
-3 25 5 0.5796 -0.0134
-3 25 6 1.2625 -0.0047
-3 25 7 2.0022 0.0229
-3 25 8 -1.6498 -0.0613
-3 25 9 -3.1673 -0.0243
-3 25 10 2.0695 0.0089
-3 25 11 1.4218 0.0365
-3 25 12 0.0372 -0.0343
-3 25 13 -0.2216 0.0631
-3 25 14 -0.7444 -0.0137
-3 26 1 -0.8620 0.2129
-3 26 2 -0.6233 0.0443
-3 26 3 1.4642 -0.0226
-3 26 4 -1.1810 -0.0077
-3 26 5 -1.1182 -0.0961
-3 26 6 0.4629 0.0211
-3 26 7 0.7356 -0.0049
-3 26 8 -1.0696 -0.0018
-3 26 9 -0.6097 0.1171
-3 26 10 1.1482 -0.0158
-2 -27 1 -0.9642 0.0111
-2 -27 2 -2.0295 -0.0581
-2 -26 1 -2.0874 0.0035
-2 -26 2 1.9698 0.0282
-2 -26 3 3.1958 0.0452
-2 -26 4 -1.5220 0.0200
-2 -25 1 -0.0598 0.0351
-2 -25 2 0.0149 0.0022
-2 -25 3 -1.4124 -0.0509
-2 -25 4 -0.3935 -0.0171
-2 -25 5 1.4786 0.0030
-2 -25 6 -0.7692 0.0142
-2 -24 1 0.1183 -0.0192
-2 -24 2 0.5634 -0.0513
-2 -24 3 3.0636 -0.0074
-2 -24 4 1.2484 0.0530
-2 -24 5 -2.0397 -0.0103
-2 -24 6 -2.4296 -0.0115
-2 -24 7 -0.0811 -0.0315
-2 -24 8 0.7410 -0.0228
-2 -23 1 0.4762 -0.0948
-2 -23 2 0.1285 0.0184
-2 -23 3 0.3656 0.0355
-2 -23 4 -3.3914 0.0255
-2 -23 5 -0.6036 -0.0110
-2 -23 6 1.4534 0.0082
-2 -23 7 1.6786 -0.0176
-2 -23 8 1.1204 0.0295
-2 -23 9 -0.0609 -0.0231
-2 -23 10 -3.8026 -0.0761
-2 -22 1 -1.5610 0.0176
-2 -22 2 1.1394 0.0868
-2 -22 3 0.6229 -0.0085
-2 -22 4 0.0076 0.0166
-2 -22 5 0.8256 -0.0412
-2 -22 6 -1.9499 -0.0241
-2 -22 7 -0.6198 -0.0181
-2 -22 8 1.2676 0.0311
-2 -22 9 0.8082 0.0129
-2 -22 10 -1.6479 0.0667
-2 -22 11 1.8156 0.0097
-2 -21 1 3.6544 0.1481
-2 -21 2 1.5070 -0.0323
-2 -21 3 -0.7246 -0.0319
-2 -21 4 -1.6672 0.0017
-2 -21 5 -1.1324 -0.0453
-2 -21 6 1.6030 0.0206
-2 -21 7 2.8667 0.0018
-2 -21 8 0.7347 0.0303
-2 -21 9 -2.0615 -0.0178
-2 -21 10 -2.9767 0.0057
-2 -21 11 0.7585 -0.0550
-2 -21 12 -0.1612 -0.0286
-2 -21 13 1.2585 0.0995
-2 -20 1 -1.1377 -0.0492
-2 -20 2 -1.6660 -0.1225
-2 -20 3 0.0047 0.0246
-2 -20 4 -0.5747 -0.0286
-2 -20 5 0.9734 0.0021
-2 -20 6 0.6132 0.0418
-2 -20 7 -1.4316 -0.0010
-2 -20 8 -1.2824 0.0204
-2 -20 9 -0.8824 -0.0037
-2 -20 10 1.2853 0.0164
-2 -20 11 2.5613 -0.0663
-2 -20 12 0.2644 0.0130
-2 -20 13 0.2464 0.0425
-2 -20 14 -2.0852 -0.0334
-2 -19 1 1.1265 -0.2308
-2 -19 2 3.0297 0.0524
-2 -19 3 -0.8240 0.0508
-2 -19 4 -1.4151 -0.0067
-2 -19 5 0.6044 0.0717
-2 -19 6 1.1275 -0.0140
-2 -19 7 0.0799 -0.0283
-2 -19 8 -0.9447 0.0011
-2 -19 9 0.6381 -0.0144
-2 -19 10 1.1085 -0.0057
-2 -19 11 -1.3942 -0.0125
-2 -19 12 -1.1227 0.0373
-2 -19 13 0.2760 -0.0063
-2 -19 14 -0.6254 0.0377
-2 -19 15 0.7853 0.0089
-2 -18 1 2.3627 0.0812
-2 -18 2 -2.4326 0.1728
-2 -18 3 -2.5391 -0.0347
-2 -18 4 1.1353 0.0439
-2 -18 5 0.6188 -0.0053
-2 -18 6 0.3561 -0.0653
-2 -18 7 -2.0722 0.0167
-2 -18 8 -0.1398 -0.0108
-2 -18 9 2.4826 0.0067
-2 -18 10 -0.2683 0.0067
-2 -18 11 -1.4536 -0.0062
-2 -18 12 0.3730 0.0034
-2 -18 13 0.7028 0.0145
-2 -18 14 0.2000 0.0138
-2 -18 15 0.8622 -0.0675
-2 -18 16 0.3287 0.0007
-2 -17 1 0.7403 0.2136
-2 -17 2 -2.4406 -0.0721
-2 -17 3 1.3381 -0.0644
-2 -17 4 0.7870 0.0110
-2 -17 5 0.0958 -0.0919
-2 -17 6 0.8158 0.0024
-2 -17 7 -1.9473 0.0109
-2 -17 8 1.0650 0.0010
-2 -17 9 1.1213 0.0329
-2 -17 10 -1.6452 -0.0063
-2 -17 11 -1.1466 0.0160
-2 -17 12 1.6242 -0.0253
-2 -17 13 1.3706 -0.0075
-2 -17 14 -1.1766 0.0066
-2 -17 15 -1.3909 -0.0113
-2 -17 16 -1.0156 0.0118
-2 -17 17 -0.5259 0.0122
-2 -16 1 -2.0944 -0.0688
-2 -16 2 -2.6800 -0.1402
-2 -16 3 1.8530 0.0471
-2 -16 4 0.8494 -0.0168
-2 -16 5 -0.0380 -0.0083
-2 -16 6 -1.5068 0.0703
-2 -16 7 -1.1137 0.0114
-2 -16 8 2.7372 0.0142
-2 -16 9 0.2672 -0.0121
-2 -16 10 -1.9455 -0.0007
-2 -16 11 -0.1158 -0.0064
-2 -16 12 1.4832 -0.0289
-2 -16 13 -1.1573 0.0416
-2 -16 14 -0.6999 -0.0027
-2 -16 15 1.6407 -0.0105
-2 -16 16 0.9305 0.0103
-2 -16 17 -0.0616 0.0005
-2 -16 18 0.4535 -0.0225
-2 -15 1 -1.6092 -0.0800
-2 -15 2 0.3064 0.0629
-2 -15 3 4.1162 0.0627
-2 -15 4 0.5992 -0.0356
-2 -15 5 -2.8389 0.0439
-2 -15 6 -1.0762 0.0216
-2 -15 7 0.7634 -0.0380
-2 -15 8 0.7475 -0.0083
-2 -15 9 -1.1486 0.0008
-2 -15 10 -0.2428 0.0003
-2 -15 11 2.2899 -0.0127
-2 -15 12 1.0476 -0.0003
-2 -15 13 -1.5292 0.0049
-2 -15 14 0.0577 0.0013
-2 -15 15 -1.1215 0.0140
-2 -15 16 -1.9068 -0.0150
-2 -15 17 0.8778 -0.0010
-2 -15 18 2.1639 0.0097
-2 -15 19 -1.0116 -0.0010
-2 -14 1 1.3168 0.0616
-2 -14 2 1.5889 0.0465
-2 -14 3 2.3385 -0.0528
-2 -14 4 -4.0765 -0.0130
-2 -14 5 -4.1535 0.0238
-2 -14 6 2.5203 -0.0436
-2 -14 7 2.3575 -0.0121
-2 -14 8 2.1065 0.0191
-2 -14 9 0.5920 -0.0113
-2 -14 10 -0.5235 0.0012
-2 -14 11 -2.0326 0.0099
-2 -14 12 -3.9679 -0.0033
-2 -14 13 -0.2989 0.0074
-2 -14 14 3.2997 -0.0084
-2 -14 15 0.9195 -0.0100
-2 -14 16 1.3291 -0.0007
-2 -14 17 1.5360 -0.0058
-2 -14 18 -2.1064 0.0123
-2 -14 19 -2.7703 0.0051
-2 -14 20 1.7878 -0.0083
-2 -13 1 -1.5450 -0.0446
-2 -13 2 -1.9868 -0.0656
-2 -13 3 0.7233 -0.0293
-2 -13 4 -2.3675 0.0366
-2 -13 5 1.7911 -0.0049
-2 -13 6 5.3384 -0.0011
-2 -13 7 -0.3684 0.0233
-2 -13 8 -2.4021 -0.0083
-2 -13 9 -4.4290 -0.0005
-2 -13 10 -2.6180 0.0073
-2 -13 11 1.3666 -0.0046
-2 -13 12 4.8519 -0.0008
-2 -13 13 4.3642 -0.0145
-2 -13 14 -0.5361 0.0073
-2 -13 15 -4.3687 0.0296
-2 -13 16 -2.0565 -0.0202
-2 -13 17 -0.2283 0.0154
-2 -13 18 0.0048 0.0084
-2 -13 19 1.6095 -0.0485
-2 -13 20 1.0313 0.0217
-2 -12 2 4.5540 0.0448
-2 -12 3 2.7749 0.0544
-2 -12 4 -2.7515 0.0177
-2 -12 5 0.2287 -0.0269
-2 -12 6 1.0574 -0.0017
-2 -12 7 -4.8120 -0.0049
-2 -12 8 -1.7101 -0.0002
-2 -12 9 2.9955 0.0069
-2 -12 10 5.5323 -0.0054
-2 -12 11 2.0753 0.0146
-2 -12 12 -3.5941 -0.0127
-2 -12 13 -3.9877 -0.0064
-2 -12 14 -0.7925 0.0288
-2 -12 15 -0.8130 -0.0105
-2 -12 16 3.2649 0.0070
-2 -12 17 2.9362 0.0061
-2 -12 18 -0.9166 -0.0447
-2 -12 19 -1.0884 0.0336
-2 -12 20 -0.6220 0.0239
-2 -12 21 0.8214 -0.0348
-2 -11 1 3.9540 0.1321
-2 -11 2 -0.7225 0.0223
-2 -11 3 -1.6383 -0.0293
-2 -11 4 -0.8242 -0.0421
-2 -11 5 1.7735 -0.0216
-2 -11 6 1.1575 0.0308
-2 -11 7 -2.5992 0.0036
-2 -11 8 4.1337 -0.0002
-2 -11 9 1.4099 0.0027
-2 -11 10 -4.7902 0.0023
-2 -11 11 -3.7777 0.0017
-2 -11 12 1.8478 -0.0182
-2 -11 13 4.7425 0.0163
-2 -11 14 -0.3906 -0.0038
-2 -11 15 -2.6284 -0.0066
-2 -11 16 2.4343 -0.0040
-2 -11 17 -2.2441 -0.0406
-2 -11 18 -1.8235 0.0194
-2 -11 19 1.3671 0.0183
-2 -11 20 0.2285 -0.0094
-2 -11 21 0.8550 0.0317
-2 -11 22 -0.9175 -0.0748
-2 -10 1 7.7469 0.0141
-2 -10 2 -1.3012 -0.0958
-2 -10 3 1.2543 -0.0214
-2 -10 4 -4.1288 -0.0144
-2 -10 5 -0.7689 0.0365
-2 -10 6 0.4735 0.0271
-2 -10 7 -2.9053 -0.0194
-2 -10 8 1.4160 0.0093
-2 -10 9 -1.7316 -0.0077
-2 -10 10 3.0394 -0.0114
-2 -10 11 4.2997 -0.0141
-2 -10 12 -2.1633 -0.0044
-2 -10 13 -4.2680 0.0136
-2 -10 14 -1.8255 -0.0088
-2 -10 15 3.2759 0.0174
-2 -10 16 3.1443 -0.0016
-2 -10 17 -2.2538 0.0005
-2 -10 18 1.4094 0.0117
-2 -10 19 -0.0051 -0.0040
-2 -10 20 -1.2393 0.0129
-2 -10 21 1.1580 -0.0519
-2 -10 22 -0.6459 -0.0140
-2 -9 1 -14.5104 -0.1376
-2 -9 2 -12.6273 0.0024
-2 -9 3 2.6076 0.0374
-2 -9 4 3.7395 0.0296
-2 -9 5 5.5102 0.0439
-2 -9 6 -1.7070 -0.0260
-2 -9 7 -2.2650 -0.0150
-2 -9 8 5.3780 -0.0124
-2 -9 9 1.1921 -0.0107
-2 -9 10 -2.5949 0.0071
-2 -9 11 -6.5262 0.0047
-2 -9 12 0.3022 0.0326
-2 -9 13 6.3184 -0.0006
-2 -9 14 2.4583 -0.0066
-2 -9 15 -1.1183 0.0104
-2 -9 16 -3.2914 -0.0243
-2 -9 17 -3.6277 0.0011
-2 -9 18 1.6406 0.0148
-2 -9 19 0.2994 0.0084
-2 -9 20 0.6042 0.0019
-2 -9 21 1.9320 -0.0072
-2 -9 22 -1.5289 0.0133
-2 -9 23 -1.6198 0.0040
-2 -8 1 -1.2658 0.0274
-2 -8 2 21.2938 0.1098
-2 -8 3 14.9981 0.0038
-2 -8 4 -6.6649 0.0203
-2 -8 5 -8.8243 -0.0434
-2 -8 6 -4.3019 -0.0380
-2 -8 7 4.5502 0.0043
-2 -8 8 3.8859 0.0001
-2 -8 9 -6.6112 0.0250
-2 -8 10 -0.9804 -0.0004
-2 -8 11 6.1288 0.0188
-2 -8 12 2.8472 -0.0040
-2 -8 13 -4.8953 -0.0272
-2 -8 14 -3.9163 0.0127
-2 -8 15 0.2326 -0.0179
-2 -8 16 1.3844 -0.0024
-2 -8 17 1.9264 0.0173
-2 -8 18 3.8962 -0.0178
-2 -8 19 -0.4530 -0.0054
-2 -8 20 -0.7553 0.0045
-2 -8 21 -0.7608 -0.0323
-2 -8 22 -3.3026 0.0185
-2 -8 23 0.4475 0.0733
-2 -7 1 24.4665 0.2111
-2 -7 2 -9.4867 -0.0485
-2 -7 3 -17.2800 -0.0431
-2 -7 4 -7.9863 -0.0364
-2 -7 5 5.7396 -0.0579
-2 -7 6 6.7009 0.0394
-2 -7 7 4.2374 0.0240
-2 -7 8 -5.1385 0.0157
-2 -7 9 -4.4772 0.0003
-2 -7 10 5.9125 0.0018
-2 -7 11 -1.4402 -0.0013
-2 -7 12 -5.6941 -0.0411
-2 -7 13 3.1479 0.0124
-2 -7 14 5.1345 -0.0046
-2 -7 15 0.1020 -0.0028
-2 -7 16 -1.4368 0.0323
-2 -7 17 -2.2349 -0.0142
-2 -7 18 0.2986 0.0047
-2 -7 19 -1.3903 0.0104
-2 -7 20 -1.2338 -0.0136
-2 -7 21 -0.3992 -0.0073
-2 -7 22 0.2205 0.0330
-2 -7 23 2.5012 -0.0222
-2 -7 24 1.5989 -0.0773
-2 -6 1 -32.8217 -0.0886
-2 -6 2 -8.3182 -0.1776
-2 -6 3 16.7440 0.0253
-2 -6 4 5.5428 -0.0252
-2 -6 5 -2.0966 0.0581
-2 -6 6 -2.6615 0.0634
-2 -6 7 -1.6044 -0.0103
-2 -6 8 -2.3960 -0.0178
-2 -6 9 3.5143 -0.0150
-2 -6 10 3.4041 0.0019
-2 -6 11 -2.2038 -0.0378
-2 -6 12 1.0244 0.0150
-2 -6 13 1.9828 0.0324
-2 -6 14 -3.8485 -0.0070
-2 -6 15 -2.8373 0.0235
-2 -6 16 0.2417 -0.0201
-2 -6 17 1.2720 -0.0170
-2 -6 18 4.1729 0.0102
-2 -6 19 -0.9640 -0.0129
-2 -6 20 -0.9352 0.0278
-2 -6 21 0.9294 0.0094
-2 -6 22 -0.3892 0.0085
-2 -6 23 1.0757 -0.0098
-2 -6 24 0.6244 -0.0359
-2 -5 1 20.4999 -0.2881
-2 -5 2 24.4230 0.0869
-2 -5 3 -5.1344 0.0893
-2 -5 4 -11.1222 0.0261
-2 -5 5 0.9743 0.0776
-2 -5 6 5.5174 -0.0477
-2 -5 7 3.8205 -0.0414
-2 -5 8 -3.6615 -0.0155
-2 -5 9 -1.6935 0.0072
-2 -5 10 2.1465 -0.0044
-2 -5 11 -2.1752 0.0050
-2 -5 12 -2.3942 0.0465
-2 -5 13 1.8622 -0.0174
-2 -5 14 -0.4190 -0.0013
-2 -5 15 1.1231 -0.0070
-2 -5 16 1.2697 -0.0243
-2 -5 17 0.9902 0.0128
-2 -5 18 0.5263 0.0020
-2 -5 19 -4.2234 0.0081
-2 -5 20 -0.8328 0.0062
-2 -5 21 -0.1780 -0.0331
-2 -5 22 0.4351 0.0002
-2 -5 23 2.5709 -0.0295
-2 -5 24 -1.1061 0.0041
-2 -5 25 -1.9106 0.0985
-2 -4 1 29.7448 0.1486
-2 -4 2 -25.3563 0.2124
-2 -4 3 -4.6321 -0.0415
-2 -4 4 4.6670 0.0321
-2 -4 5 -0.2321 -0.0598
-2 -4 6 1.5023 -0.0925
-2 -4 7 -7.4911 0.0189
-2 -4 8 -6.2244 0.0054
-2 -4 9 10.9490 0.0187
-2 -4 10 2.6618 0.0005
-2 -4 11 -7.4512 0.0213
-2 -4 12 1.5043 -0.0050
-2 -4 13 1.9748 -0.0327
-2 -4 14 -2.1242 0.0026
-2 -4 15 2.8415 -0.0208
-2 -4 16 0.0710 0.0088
-2 -4 17 -0.7138 0.0215
-2 -4 18 -1.7351 0.0202
-2 -4 19 -1.9171 0.0059
-2 -4 20 2.5376 -0.0055
-2 -4 21 1.9343 -0.0160
-2 -4 22 1.7616 -0.0111
-2 -4 23 -0.7711 -0.0153
-2 -4 24 -1.8290 0.0410
-2 -4 25 0.3434 0.0338
-2 -3 1 -50.6138 0.3004
-2 -3 2 -11.0853 -0.1517
-2 -3 3 15.6471 -0.0716
-2 -3 4 -11.7372 0.0005
-2 -3 5 5.2588 -0.0925
-2 -3 6 4.8768 0.0522
-2 -3 7 -6.5878 0.0495
-2 -3 8 10.3934 0.0109
-2 -3 9 4.8500 0.0120
-2 -3 10 -13.1896 -0.0081
-2 -3 11 0.3718 0.0125
-2 -3 12 5.1594 -0.0248
-2 -3 13 0.2413 -0.0014
-2 -3 14 2.3984 0.0161
-2 -3 15 -1.1628 0.0068
-2 -3 16 -5.2332 0.0200
-2 -3 17 0.4831 -0.0028
-2 -3 18 1.1857 -0.0095
-2 -3 19 1.5920 -0.0332
-2 -3 20 1.2990 -0.0141
-2 -3 21 -0.6500 -0.0115
-2 -3 22 -2.0870 0.0166
-2 -3 23 -1.2256 0.0280
-2 -3 24 0.9276 0.0541
-2 -3 25 -1.0603 0.0057
-2 -2 1 -0.4413 -0.1587
-2 -2 2 39.8347 -0.1673
-2 -2 3 -5.8652 0.1043
-2 -2 4 -4.4348 -0.0265
-2 -2 5 17.0442 0.0274
-2 -2 6 -11.7438 0.0647
-2 -2 7 -6.8128 -0.0174
-2 -2 8 7.6947 -0.0072
-2 -2 9 -5.1346 -0.0268
-2 -2 10 -1.8857 0.0056
-2 -2 11 5.7505 -0.0088
-2 -2 12 -1.9442 -0.0172
-2 -2 13 0.8055 0.0170
-2 -2 14 -2.9292 -0.0069
-2 -2 15 -4.0333 0.0034
-2 -2 16 3.8681 -0.0064
-2 -2 17 4.9202 -0.0105
-2 -2 18 -1.6293 0.0019
-2 -2 19 -1.4155 -0.0105
-2 -2 20 0.3533 0.0227
-2 -2 21 -1.2950 0.0048
-2 -2 22 -1.1353 0.0077
-2 -2 23 2.5175 0.0087
-2 -2 24 0.0285 0.0201
-2 -2 25 -0.4255 -0.0380
-2 -2 26 2.2085 -0.0838
-2 -1 1 26.6526 -0.1972
-2 -1 2 -8.3033 0.1358
-2 -1 3 -24.5780 0.0424
-2 -1 4 7.2889 -0.0255
-2 -1 5 3.8345 0.0514
-2 -1 6 -13.8170 -0.0300
-2 -1 7 7.5163 -0.0347
-2 -1 8 11.1258 -0.0132
-2 -1 9 -5.2947 0.0131
-2 -1 10 -4.5885 0.0146
-2 -1 11 2.2887 -0.0172
-2 -1 12 1.5162 0.0238
-2 -1 13 0.2492 -0.0044
-2 -1 14 -2.9562 -0.0039
-2 -1 15 3.4194 0.0083
-2 -1 16 1.9630 -0.0164
-2 -1 17 -3.6847 0.0140
-2 -1 18 -2.4154 0.0024
-2 -1 19 3.2684 0.0049
-2 -1 20 -0.1410 0.0221
-2 -1 21 -2.6611 -0.0112
-2 -1 22 1.8846 0.0095
-2 -1 23 1.3071 -0.0055
-2 -1 24 -1.4660 0.0011
-2 -1 25 1.0277 -0.0492
-2 -1 26 -0.8627 -0.0730
-2 0 1 7.4727 0.1067
-2 0 2 2.5592 0.0942
-2 0 3 -5.1341 -0.0902
-2 0 4 12.9126 0.0125
-2 0 5 2.7984 -0.0105
-2 0 6 -10.5831 -0.0398
-2 0 7 6.1804 0.0060
-2 0 8 0.2501 0.0324
-2 0 9 -9.2756 0.0120
-2 0 10 3.9356 -0.0183
-2 0 11 5.2648 0.0087
-2 0 12 -4.9775 0.0029
-2 0 13 -1.7544 -0.0171
-2 0 14 0.8759 0.0149
-2 0 15 2.3778 -0.0034
-2 0 16 -1.0757 0.0051
-2 0 17 -0.0826 0.0053
-2 0 18 2.0830 -0.0132
-2 0 19 0.2186 -0.0018
-2 0 20 -3.7963 -0.0184
-2 0 21 0.8315 -0.0169
-2 0 22 2.3083 -0.0119
-2 0 23 -0.3627 -0.0005
-2 0 24 0.5139 0.0304
-2 0 25 -0.2800 -0.0390
-2 0 26 -1.8994 0.0203
-2 1 1 18.1037 0.0455
-2 1 2 -21.6013 -0.0888
-2 1 3 -17.6849 -0.0361
-2 1 4 15.1039 0.0584
-2 1 5 -5.5205 -0.0181
-2 1 6 -6.7640 0.0016
-2 1 7 13.1851 0.0251
-2 1 8 0.9605 0.0040
-2 1 9 -4.8979 -0.0220
-2 1 10 -0.3412 0.0048
-2 1 11 -2.0189 -0.0011
-2 1 12 0.9602 -0.0076
-2 1 13 4.8009 0.0026
-2 1 14 -0.1901 -0.0037
-2 1 15 0.4897 -0.0094
-2 1 16 -2.2658 -0.0019
-2 1 17 -1.4178 0.0044
-2 1 18 0.2347 0.0102
-2 1 19 -0.3004 -0.0018
-2 1 20 -0.4730 0.0151
-2 1 21 1.9776 0.0074
-2 1 22 0.6179 0.0103
-2 1 23 -0.4918 0.0425
-2 1 24 -1.1801 -0.0152
-2 1 25 -1.2911 -0.0267
-2 1 26 0.0796 0.0208
-2 2 1 15.0804 -0.0584
-2 2 2 -6.8196 -0.0157
-2 2 3 11.0174 0.0611
-2 2 4 16.6664 0.0118
-2 2 5 -7.7671 -0.0388
-2 2 6 0.1188 0.0230
-2 2 7 -0.1261 -0.0059
-2 2 8 -11.9374 -0.0220
-2 2 9 -2.0546 0.0080
-2 2 10 9.9278 0.0088
-2 2 11 5.6326 0.0018
-2 2 12 -2.9753 0.0059
-2 2 13 -2.9373 -0.0034
-2 2 14 -1.1909 0.0098
-2 2 15 0.5785 0.0024
-2 2 16 -2.8340 0.0097
-2 2 17 1.7347 0.0065
-2 2 18 2.2232 -0.0171
-2 2 19 -0.7356 0.0003
-2 2 20 -0.7965 -0.0037
-2 2 21 1.2239 -0.0261
-2 2 22 0.0736 0.0189
-2 2 23 -1.0262 -0.0252
-2 2 24 0.0822 -0.0376
-2 2 25 0.4345 0.0182
-2 2 26 0.0782 -0.0251
-2 3 1 15.4029 0.0733
-2 3 2 -41.7085 0.0475
-2 3 3 -2.2379 0.0083
-2 3 4 2.5192 -0.0540
-2 3 5 -10.8978 -0.0048
-2 3 6 0.2443 0.0239
-2 3 7 1.9395 -0.0303
-2 3 8 5.9172 0.0297
-2 3 9 11.2451 0.0175
-2 3 10 -1.4986 -0.0070
-2 3 11 -12.7915 -0.0061
-2 3 12 -2.7290 -0.0221
-2 3 13 5.7255 0.0089
-2 3 14 0.0956 -0.0093
-2 3 15 -2.2411 -0.0123
-2 3 16 -0.7049 0.0145
-2 3 17 4.2384 -0.0123
-2 3 18 -0.0722 0.0056
-2 3 19 -1.0574 0.0029
-2 3 20 0.0219 -0.0228
-2 3 21 0.5724 0.0152
-2 3 22 -0.5972 0.0195
-2 3 23 -1.0025 -0.0069
-2 3 24 0.2551 0.0448
-2 3 25 -0.0109 -0.0125
-2 3 26 0.2500 -0.0133
-2 4 1 -66.6993 0.0487
-2 4 2 -7.2795 -0.0647
-2 4 3 32.6862 -0.0391
-2 4 4 2.8233 -0.0205
-2 4 5 1.4252 0.0570
-2 4 6 5.3314 -0.0011
-2 4 7 -3.6301 -0.0067
-2 4 8 -1.8369 0.0229
-2 4 9 -3.8772 -0.0377
-2 4 10 -6.6346 0.0003
-2 4 11 2.3273 -0.0149
-2 4 12 6.8824 0.0060
-2 4 13 0.3910 0.0239
-2 4 14 -2.6796 -0.0165
-2 4 15 1.4944 0.0270
-2 4 16 2.8771 -0.0078
-2 4 17 0.8559 -0.0087
-2 4 18 -3.5676 0.0185
-2 4 19 -0.7343 -0.0221
-2 4 20 -0.2630 0.0078
-2 4 21 0.5488 0.0206
-2 4 22 -0.6108 -0.0042
-2 4 23 0.0899 -0.0064
-2 4 24 1.4504 -0.0333
-2 4 25 -0.3446 -0.0269
-2 4 26 -0.8484 0.0654
-2 4 27 0.3681 -0.0030
-2 5 1 -5.6278 -0.1275
-2 5 2 20.8417 -0.0190
-2 5 3 5.0852 0.0405
-2 5 4 -5.5815 0.0296
-2 5 5 -4.4432 0.0220
-2 5 6 -9.5607 -0.0422
-2 5 7 -0.8659 0.0097
-2 5 8 6.1501 -0.0120
-2 5 9 2.9998 -0.0112
-2 5 10 -0.2316 0.0169
-2 5 11 -0.9160 -0.0048
-2 5 12 1.6892 0.0321
-2 5 13 1.8393 -0.0086
-2 5 14 -3.0624 -0.0053
-2 5 15 -2.0291 0.0087
-2 5 16 -0.4524 -0.0241
-2 5 17 -0.7481 0.0265
-2 5 18 -0.1457 -0.0147
-2 5 19 1.9670 -0.0110
-2 5 20 -0.1450 0.0218
-2 5 21 -0.3362 -0.0095
-2 5 22 -0.2716 0.0141
-2 5 23 1.0658 -0.0084
-2 5 24 0.2184 -0.0016
-2 5 25 -0.4964 0.0432
-2 5 26 0.2999 -0.0272
-2 5 27 0.9724 -0.0712
-2 6 1 -15.7994 0.0053
-2 6 2 12.0999 0.1278
-2 6 3 7.9458 0.0106
-2 6 4 -9.6485 -0.0066
-2 6 5 -6.7362 -0.0370
-2 6 6 6.3675 -0.0266
-2 6 7 5.8166 0.0135
-2 6 8 0.0422 -0.0057
-2 6 9 -0.5705 0.0224
-2 6 10 -3.3545 0.0129
-2 6 11 0.8347 0.0113
-2 6 12 3.0567 -0.0106
-2 6 13 -4.9399 -0.0239
-2 6 14 -4.3363 0.0013
-2 6 15 5.9736 -0.0149
-2 6 16 3.8390 0.0079
-2 6 17 -0.9130 0.0085
-2 6 18 -1.4383 -0.0165
-2 6 19 -0.1739 0.0260
-2 6 20 -0.8782 -0.0211
-2 6 21 0.3493 -0.0077
-2 6 22 0.9590 -0.0009
-2 6 23 0.4516 -0.0406
-2 6 24 -0.1582 0.0236
-2 6 25 -1.0039 -0.0167
-2 6 26 -1.4276 -0.0151
-2 6 27 0.5414 0.0776
-2 7 1 1.8873 0.1775
-2 7 2 13.4647 -0.0268
-2 7 3 -7.1513 -0.0844
-2 7 4 -7.0193 -0.0503
-2 7 5 6.9517 -0.0440
-2 7 6 1.6069 0.0417
-2 7 7 -2.8554 0.0330
-2 7 8 2.7180 0.0171
-2 7 9 -1.0415 -0.0007
-2 7 10 -5.1593 -0.0127
-2 7 11 1.2108 -0.0187
-2 7 12 1.2856 -0.0294
-2 7 13 -0.3462 0.0124
-2 7 14 3.2234 0.0012
-2 7 15 1.4860 0.0203
-2 7 16 -5.3321 0.0157
-2 7 17 -1.9521 -0.0176
-2 7 18 1.8843 0.0065
-2 7 19 1.6677 -0.0019
-2 7 20 -1.5256 -0.0143
-2 7 21 -0.3518 0.0286
-2 7 22 1.1623 -0.0057
-2 7 23 0.1609 0.0298
-2 7 24 -0.6373 0.0118
-2 7 25 -0.7674 -0.0239
-2 7 26 0.9905 0.0796
-2 7 27 1.6730 -0.0240
-2 8 1 4.8066 -0.0889
-2 8 2 13.9675 -0.1613
-2 8 3 -1.6189 -0.0097
-2 8 4 -6.0105 0.0041
-2 8 5 -2.2783 0.0748
-2 8 6 2.0232 0.0661
-2 8 7 4.9359 -0.0098
-2 8 8 -0.7898 -0.0120
-2 8 9 -5.8393 -0.0248
-2 8 10 -0.2808 -0.0007
-2 8 11 5.3887 -0.0213
-2 8 12 0.9166 0.0170
-2 8 13 -3.2692 0.0332
-2 8 14 -1.3947 -0.0020
-2 8 15 1.0589 0.0151
-2 8 16 1.7008 -0.0242
-2 8 17 2.5313 -0.0040
-2 8 18 -1.1807 0.0013
-2 8 19 -2.2547 -0.0059
-2 8 20 -0.4953 0.0079
-2 8 21 3.4450 -0.0056
-2 8 22 1.2609 -0.0062
-2 8 23 -2.1825 0.0112
-2 8 24 -1.1957 -0.0162
-2 8 25 0.0072 0.0394
-2 8 26 0.4864 -0.0426
-2 9 1 17.2887 -0.2419
-2 9 2 0.8757 0.0907
-2 9 3 -15.6676 0.0803
-2 9 4 -2.7661 0.0522
-2 9 5 10.7314 0.0591
-2 9 6 4.6216 -0.0486
-2 9 7 -5.6884 -0.0426
-2 9 8 -6.3822 -0.0241
-2 9 9 -0.2785 -0.0029
-2 9 10 4.3138 -0.0012
-2 9 11 3.6705 -0.0004
-2 9 12 -2.5984 0.0404
-2 9 13 -1.9669 -0.0157
-2 9 14 3.7907 -0.0151
-2 9 15 1.1352 -0.0074
-2 9 16 -4.2206 -0.0173
-2 9 17 -2.7027 0.0108
-2 9 18 0.8292 0.0034
-2 9 19 3.1244 0.0280
-2 9 20 0.8125 -0.0056
-2 9 21 -1.4163 -0.0085
-2 9 22 -2.9786 -0.0046
-2 9 23 -0.7226 -0.0152
-2 9 24 1.5497 -0.0114
-2 9 25 1.4081 -0.0209
-2 9 26 0.4065 -0.0259
-2 10 1 3.4553 0.1655
-2 10 2 -4.8224 0.1557
-2 10 3 -3.7443 -0.0506
-2 10 4 3.2991 0.0195
-2 10 5 1.3880 -0.0726
-2 10 6 -4.6362 -0.0645
-2 10 7 -1.5367 0.0079
-2 10 8 3.9303 0.0199
-2 10 9 3.6805 0.0264
-2 10 10 1.9482 -0.0096
-2 10 11 -0.8850 0.0209
-2 10 12 -4.8273 -0.0055
-2 10 13 0.2577 -0.0169
-2 10 14 1.6583 0.0056
-2 10 15 -3.4304 -0.0021
-2 10 16 -0.1802 0.0311
-2 10 17 5.3718 0.0019
-2 10 18 1.7902 -0.0097
-2 10 19 -3.5624 -0.0121
-2 10 20 -3.0754 -0.0321
-2 10 21 1.1186 0.0034
-2 10 22 2.4222 -0.0027
-2 10 23 1.2899 0.0445
-2 10 24 0.0466 0.0408
-2 10 25 -0.5461 0.0125
-2 10 26 -1.2011 -0.0123
-2 11 1 -0.0645 0.2490
-2 11 2 -5.7689 -0.1561
-2 11 3 -5.8680 -0.0416
-2 11 4 4.9551 -0.0199
-2 11 5 7.0499 -0.0541
-2 11 6 0.0547 0.0649
-2 11 7 -1.0894 0.0343
-2 11 8 -2.1547 0.0252
-2 11 9 -2.1953 -0.0123
-2 11 10 0.6244 -0.0114
-2 11 11 -0.5436 0.0066
-2 11 12 -1.8940 -0.0233
-2 11 13 1.9309 0.0179
-2 11 14 0.1098 -0.0038
-2 11 15 -0.2277 0.0182
-2 11 16 2.2900 -0.0003
-2 11 17 -0.7853 -0.0379
-2 11 18 -4.0252 0.0044
-2 11 19 0.3972 0.0003
-2 11 20 3.2853 0.0205
-2 11 21 0.5808 0.0164
-2 11 22 -0.4711 0.0038
-2 11 23 -1.0131 0.0000
-2 11 24 -0.9129 -0.0498
-2 11 25 -0.1871 -0.0196
-2 11 26 0.3547 -0.0094
-2 12 1 -1.8955 -0.1764
-2 12 2 -2.9979 -0.1615
-2 12 3 2.1069 0.0941
-2 12 4 6.5132 -0.0214
-2 12 5 -3.4957 0.0774
-2 12 6 -6.7127 0.0400
-2 12 7 -0.5947 -0.0209
-2 12 8 2.0098 -0.0210
-2 12 9 2.7806 -0.0396
-2 12 10 1.1015 0.0092
-2 12 11 -1.5204 -0.0134
-2 12 12 -1.2382 0.0095
-2 12 13 1.1816 0.0264
-2 12 14 0.4695 -0.0148
-2 12 15 0.4488 0.0074
-2 12 16 -0.3846 -0.0204
-2 12 17 0.2447 -0.0120
-2 12 18 1.7582 -0.0027
-2 12 19 1.0743 0.0176
-2 12 20 -2.3932 0.0236
-2 12 21 -0.6899 -0.0153
-2 12 22 1.5833 -0.0055
-2 12 23 -1.8975 -0.0002
-2 12 24 -0.3736 0.0266
-2 12 25 1.5615 -0.0025
-2 12 26 0.5246 -0.0542
-2 13 1 -3.4085 -0.2099
-2 13 2 -2.6014 0.1496
-2 13 3 2.5535 0.0447
-2 13 4 2.4240 -0.0153
-2 13 5 -1.8058 0.0418
-2 13 6 0.1906 -0.0715
-2 13 7 1.2711 -0.0327
-2 13 8 0.4986 -0.0277
-2 13 9 -0.6644 0.0313
-2 13 10 -0.1995 0.0187
-2 13 11 0.3633 -0.0071
-2 13 12 -1.1865 0.0284
-2 13 13 0.4320 -0.0102
-2 13 14 1.3347 -0.0124
-2 13 15 0.1354 0.0002
-2 13 16 -0.2494 -0.0144
-2 13 17 0.5107 0.0027
-2 13 18 -2.0870 0.0215
-2 13 19 -2.1020 0.0232
-2 13 20 -0.2893 -0.0162
-2 13 21 1.2624 -0.0129
-2 13 22 -0.4176 -0.0135
-2 13 23 -0.3011 -0.0145
-2 13 24 2.7134 0.0040
-2 13 25 -0.0718 -0.0030
-2 14 1 -1.4674 0.1334
-2 14 2 2.4688 0.0979
-2 14 3 2.0827 -0.0801
-2 14 4 -1.4097 0.0261
-2 14 5 -3.4645 -0.0259
-2 14 6 -1.4376 -0.0344
-2 14 7 2.0625 0.0274
-2 14 8 3.2153 0.0339
-2 14 9 -0.3402 0.0358
-2 14 10 -0.5192 -0.0248
-2 14 11 -1.4449 0.0083
-2 14 12 -1.3457 -0.0072
-2 14 13 2.8711 -0.0155
-2 14 14 -0.0230 0.0041
-2 14 15 -2.5605 -0.0060
-2 14 16 -0.1108 0.0173
-2 14 17 -0.0875 0.0035
-2 14 18 -1.1141 -0.0011
-2 14 19 0.8934 0.0107
-2 14 20 1.1911 -0.0035
-2 14 21 2.2653 -0.0084
-2 14 22 0.8755 -0.0039
-2 14 23 -0.1358 0.0144
-2 14 24 -0.7771 0.0118
-2 14 25 -1.7686 -0.0163
-2 15 1 -2.1199 0.1347
-2 15 2 -0.5593 -0.0906
-2 15 3 1.3366 -0.0261
-2 15 4 1.5613 0.0273
-2 15 5 -0.5214 -0.0288
-2 15 6 1.0317 0.0253
-2 15 7 2.4139 0.0274
-2 15 8 -1.8921 -0.0013
-2 15 9 -4.6381 -0.0303
-2 15 10 0.0167 -0.0198
-2 15 11 0.6485 -0.0012
-2 15 12 1.9003 -0.0084
-2 15 13 0.2844 0.0180
-2 15 14 -3.4562 0.0036
-2 15 15 2.0957 0.0018
-2 15 16 2.4120 0.0109
-2 15 17 -0.3596 -0.0293
-2 15 18 0.1805 0.0003
-2 15 19 0.3507 -0.0089
-2 15 20 1.0134 -0.0215
-2 15 21 -0.5574 0.0158
-2 15 22 -2.7606 -0.0210
-2 15 23 0.4335 -0.0242
-2 15 24 -0.3263 0.0522
-2 15 25 -0.9656 0.0497
-2 16 1 0.6423 -0.0844
-2 16 2 4.9168 -0.0580
-2 16 3 2.2462 0.0524
-2 16 4 -6.2609 -0.0034
-2 16 5 -4.5734 -0.0234
-2 16 6 2.3471 0.0305
-2 16 7 1.9080 -0.0119
-2 16 8 -0.9706 -0.0315
-2 16 9 0.3102 -0.0017
-2 16 10 3.4425 0.0194
-2 16 11 1.4971 0.0093
-2 16 12 -1.0352 0.0080
-2 16 13 -3.9603 -0.0017
-2 16 14 1.8993 -0.0061
-2 16 15 4.4695 -0.0025
-2 16 16 -2.7541 0.0034
-2 16 17 -1.1374 -0.0291
-2 16 18 -2.0653 0.0222
-2 16 19 -0.7658 0.0213
-2 16 20 2.3979 0.0300
-2 16 21 -0.9762 0.0032
-2 16 22 0.0609 -0.0250
-2 16 23 0.6616 0.0689
-2 16 24 -1.8714 0.0146
-2 17 1 0.8541 -0.0224
-2 17 2 -0.0642 0.0454
-2 17 3 -4.9288 0.0101
-2 17 4 -2.0241 -0.0444
-2 17 5 7.2577 0.0275
-2 17 6 3.9706 0.0286
-2 17 7 -1.2542 -0.0426
-2 17 8 -2.8610 0.0176
-2 17 9 -1.9265 0.0178
-2 17 10 0.5346 0.0009
-2 17 11 -2.0132 -0.0070
-2 17 12 -1.8107 -0.0060
-2 17 13 2.2956 0.0006
-2 17 14 4.5735 0.0061
-2 17 15 -2.9453 -0.0034
-2 17 16 -3.6792 0.0061
-2 17 17 1.1045 -0.0144
-2 17 18 -0.5544 0.0290
-2 17 19 4.6086 -0.0217
-2 17 20 0.6630 0.0044
-2 17 21 -4.5105 -0.0160
-2 17 22 0.5476 -0.0304
-2 17 23 1.6882 -0.0230
-2 18 1 -0.5826 0.0504
-2 18 2 0.8069 0.0079
-2 18 3 0.0929 -0.0191
-2 18 4 0.6726 0.0076
-2 18 5 -1.0348 0.0411
-2 18 6 -3.7737 -0.0359
-2 18 7 -0.4815 0.0072
-2 18 8 -0.4930 0.0354
-2 18 9 2.0268 -0.0300
-2 18 10 3.2346 0.0011
-2 18 11 0.8196 -0.0236
-2 18 12 1.0019 0.0019
-2 18 13 -1.9148 0.0091
-2 18 14 -2.3268 0.0070
-2 18 15 -0.5961 -0.0031
-2 18 16 2.2594 0.0102
-2 18 17 0.8540 -0.0205
-2 18 18 -0.6544 0.0026
-2 18 19 0.7197 -0.0095
-2 18 20 -3.0803 0.0227
-2 18 21 0.8615 -0.0315
-2 18 22 3.3280 0.0172
-2 18 23 -0.8931 0.0482
-2 19 1 -1.0940 -0.0433
-2 19 2 -0.3704 -0.0131
-2 19 3 -2.5361 0.0037
-2 19 4 -0.1449 0.0241
-2 19 5 3.8904 -0.0094
-2 19 6 2.9990 -0.0225
-2 19 7 0.6875 0.0207
-2 19 8 -1.7856 -0.0397
-2 19 9 -0.0079 -0.0228
-2 19 10 -1.0794 0.0041
-2 19 11 -2.2424 -0.0007
-2 19 12 -2.1559 0.0474
-2 19 13 0.2953 0.0038
-2 19 14 5.1887 0.0098
-2 19 15 -0.3054 -0.0252
-2 19 16 -3.1800 -0.0007
-2 19 17 0.1080 -0.0253
-2 19 18 0.7219 0.0066
-2 19 19 1.4477 -0.0009
-2 19 20 0.4791 0.0516
-2 19 21 -0.6694 0.0221
-2 19 22 -1.6253 -0.0307
-2 20 1 -0.4327 -0.0295
-2 20 2 2.5006 0.0571
-2 20 3 1.6284 0.0129
-2 20 4 2.5178 -0.0059
-2 20 5 -2.4013 -0.0367
-2 20 6 -5.6455 -0.0023
-2 20 7 -0.8713 0.0065
-2 20 8 0.8271 -0.0007
-2 20 9 1.4566 0.0214
-2 20 10 0.9790 0.0215
-2 20 11 0.8395 0.0202
-2 20 12 0.1380 -0.0040
-2 20 13 0.4009 -0.0144
-2 20 14 -0.4635 -0.0140
-2 20 15 -2.8873 -0.0455
-2 20 16 2.9124 0.0348
-2 20 17 2.4423 -0.0142
-2 20 18 -2.4225 0.0311
-2 20 19 -0.0698 0.0161
-2 20 20 -1.5219 0.0213
-2 20 21 -1.2958 -0.0784
-2 20 22 2.2295 -0.0470
-2 21 1 0.5858 0.0858
-2 21 2 -0.5069 0.0003
-2 21 3 -3.3872 -0.0494
-2 21 4 -1.8845 -0.0239
-2 21 5 -1.4036 -0.0129
-2 21 6 4.1086 0.0283
-2 21 7 4.7717 0.0086
-2 21 8 -1.3387 0.0025
-2 21 9 -1.5805 -0.0022
-2 21 10 -0.9295 0.0040
-2 21 11 -0.9680 -0.0279
-2 21 12 -0.0880 -0.0114
-2 21 13 2.5173 0.0004
-2 21 14 1.9365 -0.0082
-2 21 15 -2.4917 0.0208
-2 21 16 -1.3494 0.0310
-2 21 17 -1.5143 -0.0275
-2 21 18 0.0460 0.0176
-2 21 19 2.1652 -0.0515
-2 21 20 -0.9175 0.0408
-2 21 21 0.5419 0.0101
-2 22 1 0.2627 -0.0626
-2 22 2 -0.2436 -0.0810
-2 22 3 3.0276 0.0118
-2 22 4 2.7321 0.0173
-2 22 5 -1.3027 0.0354
-2 22 6 -0.6873 0.0156
-2 22 7 -1.3656 -0.0117
-2 22 8 -1.4381 0.0128
-2 22 9 1.1849 -0.0180
-2 22 10 0.9096 0.0074
-2 22 11 0.9073 -0.0190
-2 22 12 0.8209 0.0164
-2 22 13 -1.6855 0.0266
-2 22 14 -4.6628 0.0162
-2 22 15 -1.6577 -0.0301
-2 22 16 6.1734 -0.0236
-2 22 17 2.7659 -0.0042
-2 22 18 -1.7274 0.0094
-2 22 19 -0.9985 0.0196
-2 22 20 -0.9091 0.0862
-2 23 1 0.2193 -0.1304
-2 23 2 1.0379 0.0563
-2 23 3 -0.9608 0.0509
-2 23 4 -4.2821 0.0247
-2 23 5 -1.6455 0.0212
-2 23 6 3.4057 -0.0489
-2 23 7 2.5929 0.0089
-2 23 8 -0.7343 -0.0176
-2 23 9 -1.2369 -0.0220
-2 23 10 -1.8518 0.0336
-2 23 11 0.0369 -0.0429
-2 23 12 0.5515 0.0331
-2 23 13 -0.6940 0.0004
-2 23 14 1.7462 -0.0121
-2 23 15 3.8324 -0.0161
-2 23 16 1.1297 -0.0020
-2 23 17 -5.1834 0.0120
-2 23 18 -2.4522 0.0413
-2 23 19 1.6930 -0.0119
-2 24 1 -0.9847 0.0783
-2 24 2 -0.6914 0.1429
-2 24 3 -0.8070 -0.0164
-2 24 4 1.7665 -0.0011
-2 24 5 0.9023 -0.0629
-2 24 6 0.2302 -0.0488
-2 24 7 -0.4288 0.0151
-2 24 8 -1.5877 -0.0136
-2 24 9 -0.7359 0.0508
-2 24 10 0.1937 0.0028
-2 24 11 3.6544 -0.0200
-2 24 12 0.0342 0.0388
-2 24 13 -2.8958 -0.0150
-2 24 14 0.0650 0.0429
-2 24 15 0.1730 -0.0877
-2 24 16 0.0064 -0.0274
-2 24 17 -1.4358 0.0894
-2 25 1 -0.9679 0.1292
-2 25 2 -0.1779 -0.1231
-2 25 3 1.0200 -0.1068
-2 25 4 -0.8175 -0.0073
-2 25 5 -1.8390 -0.0327
-2 25 6 2.5457 0.0450
-2 25 7 0.6716 0.0473
-2 25 8 -2.1595 0.0246
-2 25 9 -0.1540 -0.0095
-2 25 10 1.5054 -0.0121
-2 25 11 1.7966 -0.0105
-2 25 12 -3.4134 -0.0313
-2 25 13 -0.1033 0.0275
-2 25 14 2.7118 -0.0120
-2 25 15 0.2277 -0.0820
-2 26 1 0.7251 -0.1310
-2 26 2 1.0787 -0.0698
-2 26 3 0.2621 0.0958
-2 26 4 -0.8969 0.0304
-2 26 5 0.7176 0.0143
-2 26 6 0.9423 0.0289
-2 26 7 -1.6763 -0.0288
-2 26 8 0.3840 -0.0175
-2 26 9 1.4769 0.0134
-2 26 10 -0.1978 0.0291
-2 26 11 -0.6385 -0.0779
-2 26 12 -2.1381 0.0305
-2 26 13 1.4168 0.0607
-2 27 3 -1.0592 0.0050
-2 27 4 -0.3769 -0.0408
-2 27 5 0.3067 0.0386
-2 27 6 0.0787 -0.0289
-2 27 7 -0.2459 -0.0127
-2 27 8 0.2892 0.0456
-1 -27 1 0.3584 0.1325
-1 -26 1 -0.0975 -0.0344
-1 -26 2 -0.3801 -0.0616
-1 -26 3 1.6845 0.0726
-1 -26 4 1.7127 0.0370
-1 -25 1 2.9499 -0.1373
-1 -25 2 1.2632 0.0264
-1 -25 3 -0.6078 -0.0112
-1 -25 4 -2.8046 -0.0256
-1 -25 5 -1.3105 -0.0595
-1 -25 6 1.2205 0.0285
-1 -25 7 1.0938 0.0680
-1 -24 1 -0.2470 -0.0196
-1 -24 2 -1.8571 0.0713
-1 -24 3 0.0756 -0.0070
-1 -24 4 2.2233 0.0599
-1 -24 5 0.9813 -0.0008
-1 -24 6 -0.6399 0.0335
-1 -24 7 -1.1035 -0.0370
-1 -24 8 0.3880 -0.0597
-1 -23 1 0.9797 0.1415
-1 -23 2 1.7107 -0.0070
-1 -23 3 1.2996 -0.0079
-1 -23 4 -2.3615 0.0230
-1 -23 5 -2.9110 -0.0613
-1 -23 6 0.5867 -0.0048
-1 -23 7 1.8393 -0.0132
-1 -23 8 2.4137 0.0272
-1 -23 9 -1.0359 0.0336
-1 -23 10 -2.1027 0.0049
-1 -22 1 0.4573 0.0464
-1 -22 2 -0.6278 -0.0848
-1 -22 3 -3.2990 0.0514
-1 -22 4 -0.6173 -0.0157
-1 -22 5 3.3593 -0.0375
-1 -22 6 1.5108 0.0177
-1 -22 7 -2.1626 0.0118
-1 -22 8 -0.5134 0.0039
-1 -22 9 -1.8105 0.0026
-1 -22 10 -0.5148 0.0542
-1 -22 11 1.8598 -0.0120
-1 -22 12 1.2670 -0.0112
-1 -21 1 0.4140 -0.0599
-1 -21 2 -0.5314 0.0033
-1 -21 3 0.5787 0.0457
-1 -21 4 2.5071 -0.0568
-1 -21 5 -0.3965 0.0174
-1 -21 6 -2.5424 0.0232
-1 -21 7 0.3689 0.0095
-1 -21 8 3.3078 -0.0205
-1 -21 9 -1.2713 0.0127
-1 -21 10 0.7800 -0.0231
-1 -21 11 0.8617 -0.1148
-1 -21 12 -1.3414 0.0376
-1 -21 13 -0.7298 0.0745
-1 -20 1 0.4882 -0.0052
-1 -20 2 -0.8932 0.0410
-1 -20 3 -1.0225 -0.0319
-1 -20 4 -1.0034 -0.0167
-1 -20 5 0.0873 0.0399
-1 -20 6 0.7423 -0.0259
-1 -20 7 0.7432 -0.0028
-1 -20 8 -1.4437 -0.0134
-1 -20 9 -2.3039 0.0254
-1 -20 10 1.8165 -0.0039
-1 -20 11 -1.4797 0.0191
-1 -20 12 0.9512 0.0684
-1 -20 13 0.9915 -0.0330
-1 -20 14 -1.0855 -0.0189
-1 -19 1 -2.4667 -0.0131
-1 -19 2 -0.0828 -0.0228
-1 -19 3 0.8229 -0.0089
-1 -19 4 1.6629 0.0452
-1 -19 5 0.7956 -0.0020
-1 -19 6 -0.9733 -0.0240
-1 -19 7 -0.9080 0.0193
-1 -19 8 -0.8285 -0.0204
-1 -19 9 2.3152 0.0159
-1 -19 10 1.3923 -0.0134
-1 -19 11 -1.9296 -0.0033
-1 -19 12 1.5478 0.0044
-1 -19 13 -1.7194 -0.0230
-1 -19 14 0.6436 -0.0120
-1 -19 15 1.0558 -0.0065
-1 -18 1 2.0428 0.0012
-1 -18 2 0.9564 0.0529
-1 -18 3 -1.1459 0.0463
-1 -18 4 -0.4962 0.0033
-1 -18 5 -0.7105 -0.0252
-1 -18 6 -0.6591 -0.0113
-1 -18 7 -0.8171 0.0071
-1 -18 8 1.3536 -0.0114
-1 -18 9 2.7683 0.0239
-1 -18 10 -2.1885 0.0068
-1 -18 11 -1.3662 0.0151
-1 -18 12 1.1814 -0.0219
-1 -18 13 -1.0790 -0.0177
-1 -18 14 1.1521 0.0296
-1 -18 15 -1.6263 0.0173
-1 -18 16 -0.0069 -0.0035
-1 -17 1 -1.1816 0.1248
-1 -17 2 -2.0321 0.0224
-1 -17 3 0.7137 -0.0455
-1 -17 4 1.4951 -0.0385
-1 -17 5 -0.2090 -0.0492
-1 -17 6 -0.5598 -0.0055
-1 -17 7 0.7494 0.0185
-1 -17 8 1.9310 -0.0105
-1 -17 9 -1.1449 0.0294
-1 -17 10 -2.8263 0.0074
-1 -17 11 0.5269 -0.0262
-1 -17 12 0.6301 -0.0296
-1 -17 13 0.6753 0.0200
-1 -17 14 1.5318 -0.0087
-1 -17 15 -0.9739 -0.0185
-1 -17 16 0.3836 0.0217
-1 -17 17 -0.4321 -0.0128
-1 -16 1 -1.0564 0.0129
-1 -16 2 1.0096 -0.1165
-1 -16 3 2.1406 -0.0351
-1 -16 4 -0.7397 -0.0215
-1 -16 5 -1.7427 0.0285
-1 -16 6 0.0970 0.0693
-1 -16 7 1.1935 0.0087
-1 -16 8 -0.6006 0.0085
-1 -16 9 -0.9618 0.0125
-1 -16 10 1.0127 -0.0279
-1 -16 11 1.5361 -0.0201
-1 -16 12 -0.1789 0.0086
-1 -16 13 -1.0067 0.0195
-1 -16 14 -0.9418 0.0009
-1 -16 15 -0.9297 0.0362
-1 -16 16 0.5294 0.0036
-1 -16 17 0.9925 -0.0148
-1 -16 18 0.5635 0.0142
-1 -15 1 -1.1526 -0.1673
-1 -15 2 1.7183 -0.0035
-1 -15 3 0.4145 0.0564
-1 -15 4 -2.0694 0.0426
-1 -15 5 -0.3288 0.0657
-1 -15 6 1.7686 -0.0242
-1 -15 7 -0.0775 -0.0239
-1 -15 8 -1.5026 -0.0134
-1 -15 9 0.9482 -0.0207
-1 -15 10 0.1573 0.0051
-1 -15 11 -1.6997 -0.0008
-1 -15 12 -1.2844 0.0132
-1 -15 13 2.1186 -0.0134
-1 -15 14 2.9212 -0.0043
-1 -15 15 -1.0941 0.0153
-1 -15 16 -1.5145 -0.0242
-1 -15 17 0.6217 -0.0047
-1 -15 18 -0.4464 -0.0214
-1 -15 19 -0.8076 -0.0048
-1 -14 1 -0.8783 0.0351
-1 -14 2 3.7618 0.1438
-1 -14 3 -0.0892 0.0050
-1 -14 4 -1.5572 0.0185
-1 -14 5 -0.0330 -0.0399
-1 -14 6 -0.0465 -0.0532
-1 -14 7 -1.2010 -0.0036
-1 -14 8 0.9009 -0.0161
-1 -14 9 1.8698 0.0173
-1 -14 10 -0.1219 0.0019
-1 -14 11 0.1360 0.0138
-1 -14 12 0.0212 0.0001
-1 -14 13 0.3177 -0.0255
-1 -14 14 -2.2893 0.0415
-1 -14 15 -3.0401 -0.0049
-1 -14 16 2.2587 -0.0149
-1 -14 17 3.7459 0.0120
-1 -14 18 -1.3219 -0.0145
-1 -14 19 -1.6154 0.0125
-1 -14 20 1.1444 0.0104
-1 -13 1 2.4194 0.2439
-1 -13 2 -1.2585 -0.0574
-1 -13 3 -6.3828 -0.0536
-1 -13 4 -2.3031 -0.0311
-1 -13 5 2.7600 -0.0592
-1 -13 6 2.7322 0.0149
-1 -13 7 0.4091 0.0226
-1 -13 8 0.2086 0.0313
-1 -13 9 -0.0576 0.0105
-1 -13 10 -2.1721 0.0139
-1 -13 11 -3.9078 0.0050
-1 -13 12 -0.0984 -0.0487
-1 -13 13 5.0530 0.0166
-1 -13 14 1.7809 0.0116
-1 -13 15 -0.4857 -0.0204
-1 -13 16 0.7760 0.0253
-1 -13 17 -1.6669 -0.0251
-1 -13 18 -3.9569 -0.0140
-1 -13 19 1.1496 0.0191
-1 -13 20 2.5803 0.0117
-1 -13 21 -0.9028 0.0120
-1 -12 1 -8.1854 -0.0694
-1 -12 2 -1.1599 -0.1566
-1 -12 3 4.6548 0.0275
-1 -12 4 7.6089 -0.0393
-1 -12 5 2.2958 0.0468
-1 -12 6 -4.5171 0.0424
-1 -12 7 -4.6069 0.0218
-1 -12 8 -0.0094 -0.0043
-1 -12 9 1.0199 -0.0244
-1 -12 10 -0.9888 0.0054
-1 -12 11 3.5253 -0.0409
-1 -12 12 6.1313 0.0080
-1 -12 13 -1.7233 0.0253
-1 -12 14 -7.4661 -0.0063
-1 -12 15 -2.7486 0.0273
-1 -12 16 2.0954 -0.0182
-1 -12 17 1.7448 -0.0175
-1 -12 18 1.1779 0.0276
-1 -12 19 1.7264 0.0018
-1 -12 20 -0.5771 0.0161
-1 -12 21 -0.8283 -0.0222
-1 -11 1 5.9002 -0.2921
-1 -11 2 7.3047 0.0750
-1 -11 3 -1.4726 0.0276
-1 -11 4 -5.1385 0.0090
-1 -11 5 -5.4743 0.0613
-1 -11 6 -1.7464 -0.0198
-1 -11 7 3.1463 -0.0055
-1 -11 8 5.6131 -0.0422
-1 -11 9 1.8794 0.0078
-1 -11 10 -1.5416 -0.0050
-1 -11 11 -2.0840 -0.0063
-1 -11 12 -5.1739 0.0362
-1 -11 13 -1.5484 -0.0134
-1 -11 14 3.2396 0.0076
-1 -11 15 4.4650 -0.0118
-1 -11 16 2.6859 -0.0167
-1 -11 17 -1.9596 0.0123
-1 -11 18 -2.8057 -0.0138
-1 -11 19 -0.9096 0.0056
-1 -11 20 0.7111 0.0008
-1 -11 21 0.5013 -0.0324
-1 -11 22 -1.0833 0.0281
-1 -10 1 0.7982 0.0560
-1 -10 2 -4.5731 0.1678
-1 -10 3 0.2218 -0.0532
-1 -10 4 2.4614 0.0442
-1 -10 5 -0.1677 -0.0171
-1 -10 6 -0.2120 -0.0338
-1 -10 7 2.6180 -0.0213
-1 -10 8 1.2875 0.0012
-1 -10 9 -5.4853 0.0275
-1 -10 10 -3.9300 -0.0170
-1 -10 11 2.3993 0.0335
-1 -10 12 5.7190 -0.0029
-1 -10 13 2.8972 -0.0271
-1 -10 14 -4.1222 0.0048
-1 -10 15 -1.0002 -0.0059
-1 -10 16 -1.7083 0.0120
-1 -10 17 -2.3722 -0.0061
-1 -10 18 2.5250 0.0031
-1 -10 19 1.5441 -0.0029
-1 -10 20 0.7435 -0.0105
-1 -10 21 -0.7200 0.0054
-1 -10 22 -1.0656 0.0191
-1 -10 23 0.6602 0.0166
-1 -9 1 -2.4696 0.2721
-1 -9 2 0.3952 -0.0587
-1 -9 3 0.7063 -0.0422
-1 -9 4 -5.6839 0.0223
-1 -9 5 -1.4344 -0.0591
-1 -9 6 4.9453 0.0031
-1 -9 7 4.9691 0.0161
-1 -9 8 -3.3519 0.0351
-1 -9 9 -3.3395 -0.0134
-1 -9 10 4.6936 0.0070
-1 -9 11 1.3488 0.0083
-1 -9 12 -4.3716 -0.0401
-1 -9 13 -3.4403 0.0074
-1 -9 14 2.3697 0.0085
-1 -9 15 4.0976 0.0047
-1 -9 16 -2.4695 0.0179
-1 -9 17 1.3521 -0.0013
-1 -9 18 1.2670 -0.0094
-1 -9 19 -2.2912 0.0074
-1 -9 20 0.7033 0.0335
-1 -9 21 -1.0659 -0.0133
-1 -9 22 -0.4535 0.0322
-1 -9 23 0.5566 -0.0053
-1 -8 1 -3.0093 -0.0373
-1 -8 2 7.9367 -0.1565
-1 -8 3 6.0198 0.0653
-1 -8 4 2.4104 -0.0342
-1 -8 5 1.5492 -0.0108
-1 -8 6 -0.8547 0.0499
-1 -8 7 -3.4626 0.0143
-1 -8 8 -5.4381 -0.0080
-1 -8 9 1.7360 -0.0205
-1 -8 10 2.1166 0.0120
-1 -8 11 -1.8293 -0.0272
-1 -8 12 3.2509 0.0001
-1 -8 13 3.2837 0.0214
-1 -8 14 -2.0591 0.0034
-1 -8 15 -3.7052 0.0152
-1 -8 16 -1.4528 -0.0072
-1 -8 17 2.5472 -0.0288
-1 -8 18 -0.1886 -0.0126
-1 -8 19 0.3956 0.0031
-1 -8 20 0.7435 -0.0126
-1 -8 21 -1.5793 -0.0057
-1 -8 22 0.5081 0.0333
-1 -8 23 0.1293 -0.0929
-1 -8 24 1.1002 -0.0149
-1 -7 1 27.4096 -0.1771
-1 -7 2 3.4787 0.0622
-1 -7 3 -10.5489 0.0576
-1 -7 4 -11.9220 -0.0754
-1 -7 5 -4.3727 0.0440
-1 -7 6 5.2789 0.0132
-1 -7 7 4.3759 -0.0272
-1 -7 8 -2.0747 -0.0142
-1 -7 9 1.7921 0.0003
-1 -7 10 2.9135 0.0014
-1 -7 11 -0.5695 -0.0108
-1 -7 12 -3.6080 0.0218
-1 -7 13 -4.1235 0.0072
-1 -7 14 1.8147 -0.0039
-1 -7 15 4.1360 -0.0119
-1 -7 16 0.0172 -0.0094
-1 -7 17 0.3451 0.0017
-1 -7 18 0.0642 0.0006
-1 -7 19 -0.7798 0.0248
-1 -7 20 -1.3161 0.0276
-1 -7 21 -0.7806 -0.0076
-1 -7 22 0.6892 -0.0313
-1 -7 23 0.8458 -0.0350
-1 -7 24 1.2753 0.1197
-1 -6 1 -25.6620 -0.0159
-1 -6 2 -28.4308 0.0921
-1 -6 3 2.7320 -0.0713
-1 -6 4 8.9316 -0.0084
-1 -6 5 9.2943 0.0669
-1 -6 6 6.3226 -0.0271
-1 -6 7 -8.1395 0.0002
-1 -6 8 -9.3585 0.0150
-1 -6 9 7.2903 -0.0007
-1 -6 10 3.5089 -0.0006
-1 -6 11 -6.4861 0.0012
-1 -6 12 0.1429 0.0107
-1 -6 13 5.9192 -0.0063
-1 -6 14 1.3489 -0.0045
-1 -6 15 -4.4579 0.0001
-1 -6 16 -2.6963 -0.0032
-1 -6 17 2.7185 -0.0084
-1 -6 18 0.0674 0.0053
-1 -6 19 -1.5235 0.0212
-1 -6 20 0.1739 -0.0148
-1 -6 21 0.9452 -0.0149
-1 -6 22 1.2777 0.0139
-1 -6 23 0.4280 0.0069
-1 -6 24 -0.6598 0.0222
-1 -6 25 -1.5949 -0.0897
-1 -5 1 -25.0408 0.0288
-1 -5 2 29.1770 -0.0109
-1 -5 3 20.5862 -0.0240
-1 -5 4 -8.2736 0.0708
-1 -5 5 -5.3030 -0.0080
-1 -5 6 -4.9087 -0.0307
-1 -5 7 -8.1916 0.0233
-1 -5 8 9.0467 -0.0205
-1 -5 9 11.4977 -0.0147
-1 -5 10 -8.2409 0.0013
-1 -5 11 -4.7966 0.0021
-1 -5 12 4.6591 0.0080
-1 -5 13 -0.8633 -0.0039
-1 -5 14 -2.7488 0.0045
-1 -5 15 0.7918 -0.0103
-1 -5 16 2.1437 -0.0008
-1 -5 17 1.0513 0.0213
-1 -5 18 -1.7772 0.0018
-1 -5 19 0.1316 0.0019
-1 -5 20 1.1839 -0.0104
-1 -5 21 -0.4749 -0.0194
-1 -5 22 -0.5254 -0.0201
-1 -5 23 0.0228 0.0076
-1 -5 24 -0.6074 0.0596
-1 -5 25 -0.5117 -0.0015
-1 -4 1 28.3753 -0.0393
-1 -4 2 9.9578 0.0151
-1 -4 3 -19.0522 0.0467
-1 -4 4 -11.2315 0.0133
-1 -4 5 7.2917 -0.0549
-1 -4 6 1.8836 -0.0027
-1 -4 7 2.2824 -0.0070
-1 -4 8 5.9587 -0.0179
-1 -4 9 -6.1556 0.0148
-1 -4 10 -5.7061 0.0048
-1 -4 11 3.6536 0.0152
-1 -4 12 0.7488 -0.0037
-1 -4 13 -1.4591 -0.0033
-1 -4 14 1.2644 0.0024
-1 -4 15 0.3157 -0.0185
-1 -4 16 -0.4695 0.0134
-1 -4 17 0.6913 -0.0020
-1 -4 18 -0.4271 -0.0165
-1 -4 19 -0.0524 0.0192
-1 -4 20 -0.7053 -0.0131
-1 -4 21 -1.0271 0.0018
-1 -4 22 1.0709 0.0188
-1 -4 23 0.6619 0.0100
-1 -4 24 -0.7911 -0.0010
-1 -4 25 0.7427 -0.0822
-1 -3 1 -33.0491 0.0786
-1 -3 2 -12.1995 0.0465
-1 -3 3 0.9297 -0.0113
-1 -3 4 2.2251 -0.0501
-1 -3 5 6.7877 -0.0433
-1 -3 6 -5.8377 0.0308
-1 -3 7 -2.7946 0.0105
-1 -3 8 5.2962 0.0172
-1 -3 9 0.9146 0.0079
-1 -3 10 -3.1966 0.0101
-1 -3 11 -1.9883 0.0089
-1 -3 12 1.8941 -0.0212
-1 -3 13 2.3362 0.0090
-1 -3 14 1.9743 -0.0127
-1 -3 15 -0.8188 -0.0033
-1 -3 16 -1.2661 0.0187
-1 -3 17 -0.8059 -0.0101
-1 -3 18 -1.5790 0.0095
-1 -3 19 1.2183 0.0067
-1 -3 20 0.9986 -0.0261
-1 -3 21 -0.0263 0.0036
-1 -3 22 0.5954 -0.0084
-1 -3 23 -0.1262 0.0277
-1 -3 24 -0.0831 0.0380
-1 -3 25 -0.1291 -0.0213
-1 -3 26 -1.4434 0.0180
-1 -2 1 -16.0257 0.0603
-1 -2 2 58.9372 -0.1066
-1 -2 3 -8.3578 -0.0286
-1 -2 4 -2.4553 -0.0351
-1 -2 5 11.0150 0.0450
-1 -2 6 -10.3087 0.0457
-1 -2 7 6.9089 -0.0130
-1 -2 8 5.6709 0.0161
-1 -2 9 -14.7648 -0.0137
-1 -2 10 -3.0680 -0.0049
-1 -2 11 11.1315 -0.0244
-1 -2 12 2.7478 -0.0103
-1 -2 13 -3.5595 0.0141
-1 -2 14 -2.2635 -0.0135
-1 -2 15 -3.3720 0.0184
-1 -2 16 1.0204 -0.0018
-1 -2 17 1.7730 -0.0006
-1 -2 18 1.5349 0.0125
-1 -2 19 1.7075 -0.0090
-1 -2 20 -1.9493 -0.0110
-1 -2 21 -2.1700 0.0084
-1 -2 22 0.4934 0.0020
-1 -2 23 1.2519 0.0073
-1 -2 24 -0.6353 -0.0236
-1 -2 25 -0.6973 -0.0409
-1 -2 26 0.9012 -0.0173
-1 -1 2 -4.4642 -0.0120
-1 -1 3 -62.3147 0.0341
-1 -1 4 18.5713 0.0494
-1 -1 5 -3.9253 0.0846
-1 -1 6 -14.2173 -0.0431
-1 -1 7 14.2487 -0.0073
-1 -1 8 -5.4080 -0.0171
-1 -1 9 -2.6156 -0.0338
-1 -1 10 14.2022 0.0106
-1 -1 11 -2.0321 -0.0038
-1 -1 12 -9.1903 0.0324
-1 -1 13 -0.4517 -0.0015
-1 -1 14 1.9510 -0.0034
-1 -1 15 2.3985 0.0136
-1 -1 16 2.4479 -0.0241
-1 -1 17 -1.9338 0.0073
-1 -1 18 -0.8600 -0.0102
-1 -1 19 -0.5019 -0.0090
-1 -1 20 -1.7783 0.0000
-1 -1 21 0.1841 0.0184
-1 -1 22 3.3602 0.0148
-1 -1 23 0.2258 0.0134
-1 -1 24 -2.4215 0.0249
-1 -1 25 0.9867 -0.0393
-1 -1 26 0.1988 -0.0448
-1 0 2 -85.0941 0.2968
-1 0 3 8.3966 0.0191
-1 0 4 39.2652 0.0885
-1 0 5 -9.9729 -0.0797
-1 0 6 9.5243 -0.0744
-1 0 7 7.1194 0.0034
-1 0 8 -12.3057 -0.0227
-1 0 9 0.3473 0.0414
-1 0 10 -1.4215 0.0062
-1 0 11 -4.0910 0.0182
-1 0 12 3.4956 0.0113
-1 0 13 1.3729 -0.0364
-1 0 14 1.5013 0.0156
-1 0 15 0.1209 -0.0181
-1 0 16 -2.7515 -0.0007
-1 0 17 -1.3265 0.0302
-1 0 18 2.5530 -0.0071
-1 0 19 0.3478 0.0169
-1 0 20 -1.8097 -0.0116
-1 0 21 1.6600 0.0047
-1 0 22 1.7194 -0.0215
-1 0 23 -2.7903 -0.0198
-1 0 24 0.5454 -0.0162
-1 0 25 1.5163 -0.0759
-1 0 26 -1.8442 0.0660
-1 1 2 -2.1217 -0.0565
-1 1 3 14.2004 -0.0663
-1 1 4 1.7582 -0.0623
-1 1 5 -12.5361 -0.1141
-1 1 6 -3.5828 0.0453
-1 1 7 -8.2358 0.0121
-1 1 8 1.2129 0.0436
-1 1 9 9.1567 0.0194
-1 1 10 2.3940 -0.0100
-1 1 11 -1.8322 0.0166
-1 1 12 -2.9439 -0.0534
-1 1 13 1.4423 0.0026
-1 1 14 3.4015 0.0099
-1 1 15 -3.1265 -0.0159
-1 1 16 -1.4687 0.0348
-1 1 17 1.6378 -0.0159
-1 1 18 1.3174 -0.0119
-1 1 19 -2.1200 -0.0054
-1 1 20 0.1086 -0.0205
-1 1 21 2.0662 0.0293
-1 1 22 -1.3153 -0.0113
-1 1 23 -0.9002 0.0233
-1 1 24 0.7480 0.0128
-1 1 25 -1.8108 0.0276
-1 1 26 -0.4259 0.0948
-1 1 27 1.7167 -0.0717
-1 2 1 -20.0099 -0.1028
-1 2 2 -55.3250 -0.2620
-1 2 3 12.3242 0.0100
-1 2 4 21.0032 -0.0607
-1 2 5 -4.1062 0.0713
-1 2 6 4.1976 0.0547
-1 2 7 3.1965 0.0234
-1 2 8 0.3567 0.0142
-1 2 9 -3.7546 -0.0344
-1 2 10 -4.3814 -0.0048
-1 2 11 0.7475 -0.0400
-1 2 12 4.7677 -0.0012
-1 2 13 1.7212 0.0376
-1 2 14 -3.7614 -0.0132
-1 2 15 -3.3439 0.0326
-1 2 16 1.8886 0.0027
-1 2 17 1.7224 -0.0225
-1 2 18 0.1198 0.0139
-1 2 19 -0.8894 -0.0070
-1 2 20 0.5320 0.0121
-1 2 21 -0.6951 0.0059
-1 2 22 -0.1835 -0.0042
-1 2 23 0.3814 0.0133
-1 2 24 0.1604 -0.0226
-1 2 25 0.6917 -0.0219
-1 2 26 0.6626 -0.0804
-1 2 27 0.3953 -0.0453
-1 3 1 -28.7680 -0.1889
-1 3 2 0.4875 0.1027
-1 3 3 37.6350 0.0575
-1 3 4 -6.5151 0.0384
-1 3 5 -13.3889 0.0598
-1 3 6 -5.2455 -0.0355
-1 3 7 -10.1543 -0.0228
-1 3 8 4.8662 -0.0528
-1 3 9 11.0637 0.0135
-1 3 10 3.8240 -0.0108
-1 3 11 -5.6102 0.0047
-1 3 12 -4.7730 0.0457
-1 3 13 -0.3921 -0.0110
-1 3 14 1.1793 0.0074
-1 3 15 0.2567 -0.0032
-1 3 16 1.7574 -0.0435
-1 3 17 0.7458 0.0022
-1 3 18 -1.0681 0.0009
-1 3 19 -0.7952 0.0000
-1 3 20 0.2592 -0.0039
-1 3 21 0.2287 0.0056
-1 3 22 0.0817 0.0005
-1 3 23 -0.4471 -0.0414
-1 3 24 0.7247 0.0042
-1 3 25 -0.8728 0.0162
-1 3 26 -0.4438 0.0680
-1 3 27 0.8840 0.1009
-1 4 1 -63.5006 0.1665
-1 4 2 1.1586 0.0639
-1 4 3 17.5675 -0.0524
-1 4 4 -8.7119 0.0018
-1 4 5 -2.2869 -0.0501
-1 4 6 -0.4017 -0.0261
-1 4 7 8.8051 -0.0073
-1 4 8 14.4045 0.0319
-1 4 9 -5.1404 0.0324
-1 4 10 -17.3337 -0.0228
-1 4 11 -4.0830 0.0401
-1 4 12 11.6134 -0.0171
-1 4 13 3.8946 -0.0223
-1 4 14 -4.3317 -0.0034
-1 4 15 -0.9260 -0.0246
-1 4 16 4.3395 0.0149
-1 4 17 -0.9454 0.0189
-1 4 18 -2.4054 0.0133
-1 4 19 0.8906 0.0129
-1 4 20 0.0388 -0.0090
-1 4 21 -0.4089 0.0150
-1 4 22 0.3959 -0.0134
-1 4 23 0.7519 0.0133
-1 4 24 0.1853 0.0326
-1 4 25 -0.5915 -0.0062
-1 4 26 0.3783 0.0049
-1 4 27 -0.5254 -0.1168
-1 5 1 -6.9457 0.1857
-1 5 2 51.6735 -0.1310
-1 5 3 5.8500 -0.0301
-1 5 4 -14.0139 -0.0073
-1 5 5 0.1572 -0.0137
-1 5 6 1.0883 0.0294
-1 5 7 2.2501 0.0265
-1 5 8 -3.5003 0.0276
-1 5 9 -10.9196 -0.0301
-1 5 10 0.2176 -0.0006
-1 5 11 11.8646 -0.0058
-1 5 12 3.9204 -0.0333
-1 5 13 -6.2061 0.0163
-1 5 14 -0.7493 0.0002
-1 5 15 3.3647 0.0217
-1 5 16 -1.0895 0.0139
-1 5 17 -5.5408 -0.0028
-1 5 18 1.6673 0.0093
-1 5 19 2.2641 -0.0214
-1 5 20 -1.5182 -0.0196
-1 5 21 0.2149 0.0032
-1 5 22 0.2633 -0.0087
-1 5 23 -0.1894 0.0025
-1 5 24 -0.1870 -0.0097
-1 5 25 -0.5642 0.0068
-1 5 26 -0.1717 -0.0260
-1 5 27 0.9862 -0.0250
-1 6 1 26.4786 -0.1649
-1 6 2 9.0397 -0.1517
-1 6 3 -14.1580 0.0639
-1 6 4 -5.0121 -0.0183
-1 6 5 -2.6920 0.0324
-1 6 6 -0.6326 0.0395
-1 6 7 2.0851 -0.0004
-1 6 8 0.5063 -0.0365
-1 6 9 1.6521 -0.0215
-1 6 10 4.6618 0.0133
-1 6 11 1.9403 -0.0124
-1 6 12 -2.3514 0.0231
-1 6 13 -4.6215 0.0061
-1 6 14 -1.9728 0.0056
-1 6 15 -0.2991 0.0079
-1 6 16 0.7872 -0.0247
-1 6 17 2.9024 -0.0006
-1 6 18 2.7687 -0.0071
-1 6 19 -2.7790 -0.0111
-1 6 20 -1.4735 -0.0023
-1 6 21 1.7040 0.0090
-1 6 22 1.1715 0.0146
-1 6 23 0.1711 -0.0058
-1 6 24 -0.7094 -0.0106
-1 6 25 -0.2079 -0.0016
-1 6 26 0.3862 0.0109
-1 6 27 -0.1156 0.0451
-1 7 1 13.9695 -0.3294
-1 7 2 5.8019 0.1009
-1 7 3 -12.9265 0.0397
-1 7 4 -11.6211 -0.0194
-1 7 5 8.0800 0.0563
-1 7 6 10.0847 -0.0216
-1 7 7 -0.1970 -0.0355
-1 7 8 0.9350 -0.0132
-1 7 9 -2.8511 0.0301
-1 7 10 -4.2027 0.0018
-1 7 11 -1.0080 -0.0059
-1 7 12 -1.4464 0.0133
-1 7 13 -0.7214 -0.0197
-1 7 14 5.3454 0.0045
-1 7 15 3.6835 -0.0187
-1 7 16 -0.3467 0.0015
-1 7 17 -3.7181 0.0048
-1 7 18 -3.0187 0.0007
-1 7 19 0.7269 0.0113
-1 7 20 2.2689 -0.0083
-1 7 21 1.0670 0.0232
-1 7 22 -1.1638 -0.0018
-1 7 23 -2.1879 -0.0099
-1 7 24 0.1339 0.0277
-1 7 25 0.6509 0.0166
-1 7 26 -0.3265 -0.0021
-1 7 27 0.3327 -0.0523
-1 8 1 11.7571 0.0677
-1 8 2 -6.1901 0.2143
-1 8 3 -11.0877 -0.0702
-1 8 4 10.5504 0.0491
-1 8 5 10.6406 0.0059
-1 8 6 -7.8567 -0.0413
-1 8 7 -3.9199 0.0064
-1 8 8 -0.4310 0.0177
-1 8 9 -4.7358 0.0153
-1 8 10 4.3869 -0.0234
-1 8 11 4.8975 0.0087
-1 8 12 0.4851 0.0023
-1 8 13 -0.4895 -0.0127
-1 8 14 -1.4572 0.0165
-1 8 15 -4.0476 0.0032
-1 8 16 -0.7835 0.0167
-1 8 17 1.3519 -0.0068
-1 8 18 3.9015 0.0172
-1 8 19 1.2206 -0.0115
-1 8 20 -2.3325 -0.0090
-1 8 21 -0.2782 0.0069
-1 8 22 -0.3559 -0.0233
-1 8 23 0.0590 0.0209
-1 8 24 1.3163 -0.0073
-1 8 25 -0.1016 -0.0175
-1 8 26 0.2309 -0.0043
-1 8 27 0.2750 -0.0233
-1 9 1 13.9096 0.2814
-1 9 2 -6.5256 -0.0812
-1 9 3 -4.5014 -0.0463
-1 9 4 1.7717 0.0617
-1 9 5 -0.7956 -0.0623
-1 9 6 1.2309 0.0010
-1 9 7 2.5184 0.0204
-1 9 8 -4.2554 0.0022
-1 9 9 0.5127 -0.0161
-1 9 10 5.3486 -0.0198
-1 9 11 -2.2321 0.0113
-1 9 12 -3.8310 -0.0041
-1 9 13 -1.7097 0.0011
-1 9 14 2.9056 0.0095
-1 9 15 2.7829 -0.0027
-1 9 16 1.7526 -0.0050
-1 9 17 -1.4789 -0.0229
-1 9 18 -1.6902 -0.0022
-1 9 19 -2.2309 -0.0092
-1 9 20 0.6535 0.0162
-1 9 21 1.9183 -0.0141
-1 9 22 -1.5911 0.0163
-1 9 23 -0.3580 0.0210
-1 9 24 1.0211 -0.0342
-1 9 25 0.0723 -0.0109
-1 9 26 -0.3335 -0.0380
-1 9 27 -1.2175 0.0243
-1 10 1 -1.8206 -0.0390
-1 10 2 -12.5089 -0.0966
-1 10 3 0.3651 0.0672
-1 10 4 9.0674 -0.0281
-1 10 5 3.4664 -0.0480
-1 10 6 -6.5367 0.0296
-1 10 7 -6.4974 -0.0100
-1 10 8 1.2191 -0.0127
-1 10 9 7.0782 -0.0036
-1 10 10 2.5507 0.0049
-1 10 11 -4.2080 0.0165
-1 10 12 -2.9112 0.0031
-1 10 13 2.9948 0.0056
-1 10 14 3.2599 0.0036
-1 10 15 -4.2488 -0.0096
-1 10 16 -2.1080 -0.0043
-1 10 17 0.2244 0.0001
-1 10 18 2.3840 0.0149
-1 10 19 1.0411 0.0086
-1 10 20 -0.4150 0.0008
-1 10 21 -1.6654 -0.0107
-1 10 22 -0.0670 0.0169
-1 10 23 1.7120 -0.0246
-1 10 24 -0.3071 0.0157
-1 10 25 -0.3953 0.0270
-1 10 26 0.1069 0.0185
-1 10 27 0.0331 0.0575
-1 11 1 -3.8824 0.0785
-1 11 2 -4.5351 0.0214
-1 11 3 5.5811 0.0327
-1 11 4 2.0750 -0.0536
-1 11 5 -5.4525 0.0069
-1 11 6 -1.3261 0.0282
-1 11 7 7.1638 -0.0113
-1 11 8 3.6257 0.0239
-1 11 9 -2.2541 0.0090
-1 11 10 -4.5834 0.0056
-1 11 11 -4.0811 0.0035
-1 11 12 2.6615 -0.0048
-1 11 13 5.1013 -0.0020
-1 11 14 -3.0303 -0.0140
-1 11 15 -3.5490 0.0075
-1 11 16 4.2476 0.0061
-1 11 17 1.2243 -0.0177
-1 11 18 -1.2081 0.0078
-1 11 19 -2.5661 0.0096
-1 11 20 -0.3749 -0.0068
-1 11 21 1.7555 -0.0138
-1 11 22 1.5573 0.0006
-1 11 23 -0.7666 0.0078
-1 11 24 0.2117 0.0097
-1 11 25 1.2429 -0.0661
-1 11 26 -0.9587 -0.0020
-1 12 1 -4.4158 0.0236
-1 12 2 -0.0620 -0.1039
-1 12 3 7.0654 -0.0303
-1 12 4 0.7144 -0.0601
-1 12 5 -2.9214 0.0638
-1 12 6 -0.4119 0.0009
-1 12 7 -1.4784 0.0069
-1 12 8 -3.9330 0.0258
-1 12 9 0.8240 -0.0273
-1 12 10 2.4772 -0.0084
-1 12 11 1.2226 -0.0254
-1 12 12 1.5446 0.0048
-1 12 13 -2.1856 -0.0012
-1 12 14 -2.8343 0.0054
-1 12 15 2.9051 0.0110
-1 12 16 2.2407 -0.0239
-1 12 17 -2.4584 0.0060
-1 12 18 0.2307 0.0059
-1 12 19 1.0893 -0.0124
-1 12 20 0.6418 0.0064
-1 12 21 -0.2422 0.0071
-1 12 22 0.2141 0.0076
-1 12 23 -0.7187 0.0056
-1 12 24 -1.0397 0.0175
-1 12 25 -1.4585 0.0127
-1 12 26 -0.2701 0.0246
-1 13 1 -1.3259 -0.4498
-1 13 2 2.7213 0.0038
-1 13 3 2.8254 0.0022
-1 13 4 -5.8070 0.0679
-1 13 5 -2.6959 0.0650
-1 13 6 2.9464 -0.0478
-1 13 7 3.6626 0.0275
-1 13 8 1.8896 -0.0438
-1 13 9 -0.1318 -0.0247
-1 13 10 -2.1466 0.0026
-1 13 11 -1.6075 -0.0040
-1 13 12 -0.2572 0.0405
-1 13 13 1.0244 -0.0071
-1 13 14 1.8324 0.0123
-1 13 15 0.2535 -0.0142
-1 13 16 -0.8082 -0.0065
-1 13 17 0.0190 0.0032
-1 13 18 -0.1587 -0.0040
-1 13 19 -2.3027 0.0399
-1 13 20 -0.6224 0.0066
-1 13 21 1.1133 -0.0231
-1 13 22 0.0132 -0.0189
-1 13 23 -1.5709 -0.0083
-1 13 24 1.1973 -0.0108
-1 13 25 2.2739 -0.0511
-1 13 26 0.4360 0.0008
-1 14 1 -0.3738 0.0117
-1 14 2 5.1833 0.2475
-1 14 3 1.0215 0.0067
-1 14 4 -3.7361 0.1005
-1 14 5 1.1226 -0.0759
-1 14 6 0.1936 -0.0189
-1 14 7 -0.8758 -0.0038
-1 14 8 -2.3800 -0.0335
-1 14 9 -0.9127 0.0430
-1 14 10 1.9251 0.0003
-1 14 11 1.6053 0.0261
-1 14 12 0.5267 0.0080
-1 14 13 -0.3567 -0.0216
-1 14 14 -1.5526 0.0068
-1 14 15 -0.3624 -0.0265
-1 14 16 1.1712 0.0160
-1 14 17 -1.2084 0.0073
-1 14 18 -2.3349 0.0147
-1 14 19 1.0798 -0.0073
-1 14 20 2.1276 -0.0263
-1 14 21 -0.2931 -0.0069
-1 14 22 1.1556 -0.0145
-1 14 23 1.5598 0.0329
-1 14 24 -0.5930 0.0457
-1 14 25 -2.2715 0.0271
-1 14 26 -0.8909 -0.0002
-1 15 1 2.1951 0.4465
-1 15 2 1.6545 -0.0220
-1 15 3 -5.3501 -0.0192
-1 15 4 -4.2311 -0.0398
-1 15 5 1.6323 -0.0983
-1 15 6 3.2461 0.0464
-1 15 7 4.3885 -0.0181
-1 15 8 -0.9634 0.0401
-1 15 9 -1.7467 0.0121
-1 15 10 -0.2032 -0.0117
-1 15 11 -0.9077 -0.0034
-1 15 12 -1.5868 -0.0298
-1 15 13 -0.4604 0.0055
-1 15 14 1.1292 -0.0041
-1 15 15 1.5289 0.0041
-1 15 16 -0.3888 0.0222
-1 15 17 -2.1399 -0.0203
-1 15 18 0.9691 -0.0036
-1 15 19 3.3178 -0.0124
-1 15 20 -0.1274 0.0032
-1 15 21 0.0662 -0.0016
-1 15 22 0.6537 0.0143
-1 15 23 -3.4738 0.0074
-1 15 24 -1.3606 -0.0316
-1 15 25 1.4834 -0.0214
-1 16 1 1.4068 -0.0980
-1 16 2 1.6680 -0.2092
-1 16 3 -1.4414 -0.0116
-1 16 4 0.7404 -0.0758
-1 16 5 3.0680 0.0576
-1 16 6 0.4998 0.0377
-1 16 7 -3.2317 -0.0024
-1 16 8 -5.5147 0.0112
-1 16 9 0.9376 -0.0443
-1 16 10 3.3930 -0.0014
-1 16 11 1.6179 -0.0117
-1 16 12 0.3353 0.0161
-1 16 13 0.0508 0.0193
-1 16 14 0.0534 0.0053
-1 16 15 -0.1328 0.0139
-1 16 16 -0.4000 -0.0216
-1 16 17 0.6663 -0.0151
-1 16 18 1.1532 0.0006
-1 16 19 -0.4354 0.0022
-1 16 20 -2.3087 0.0328
-1 16 21 -1.1817 0.0003
-1 16 22 -0.8191 -0.0083
-1 16 23 0.5890 -0.0001
-1 16 24 1.6859 0.0509
-1 16 25 -1.0099 0.0159
-1 17 1 4.1025 -0.2494
-1 17 2 -1.3350 0.0790
-1 17 3 -6.2469 0.0390
-1 17 4 -1.1126 0.0465
-1 17 5 2.7072 0.0587
-1 17 6 0.5905 -0.0305
-1 17 7 1.2644 0.0054
-1 17 8 1.4589 -0.0308
-1 17 9 1.5804 0.0087
-1 17 10 -0.3797 0.0197
-1 17 11 -1.5592 -0.0016
-1 17 12 -3.9616 0.0223
-1 17 13 -0.6038 -0.0008
-1 17 14 3.8502 -0.0115
-1 17 15 0.7115 -0.0180
-1 17 16 -1.7085 -0.0200
-1 17 17 -1.8644 0.0127
-1 17 18 -1.3709 0.0131
-1 17 19 1.8292 0.0243
-1 17 20 0.4866 0.0019
-1 17 21 -0.1402 -0.0155
-1 17 22 1.3199 0.0091
-1 17 23 0.8989 -0.0458
-1 17 24 -0.9667 -0.0301
-1 18 1 -3.0429 0.1893
-1 18 2 -3.3661 0.1025
-1 18 3 0.2091 -0.0182
-1 18 4 6.3876 0.0212
-1 18 5 1.9736 -0.0454
-1 18 6 -2.6879 -0.0173
-1 18 7 -1.5570 -0.0086
-1 18 8 -3.3501 -0.0123
-1 18 9 -0.6864 0.0263
-1 18 10 1.3578 -0.0220
-1 18 11 0.1065 0.0183
-1 18 12 0.9917 0.0044
-1 18 13 5.4366 -0.0181
-1 18 14 -1.2414 -0.0101
-1 18 15 -6.6599 0.0036
-1 18 16 0.6465 0.0086
-1 18 17 3.1693 0.0220
-1 18 18 2.1935 -0.0173
-1 18 19 0.6425 0.0021
-1 18 20 -3.6570 -0.0051
-1 18 21 -0.1489 -0.0157
-1 18 22 2.5262 -0.0370
-1 18 23 -0.0499 -0.0128
-1 18 24 -1.8983 0.1126
-1 19 1 1.8092 0.1050
-1 19 2 1.1450 -0.1204
-1 19 3 0.2888 -0.0206
-1 19 4 -0.2418 -0.0361
-1 19 5 -3.7235 -0.0280
-1 19 6 0.2379 0.0247
-1 19 7 2.8544 0.0110
-1 19 8 0.4957 0.0222
-1 19 9 1.3217 -0.0035
-1 19 10 0.3517 -0.0111
-1 19 11 -0.0731 0.0172
-1 19 12 -0.8489 -0.0308
-1 19 13 -2.2371 0.0077
-1 19 14 -3.6458 -0.0018
-1 19 15 3.4149 0.0170
-1 19 16 5.5077 0.0031
-1 19 17 -2.8742 -0.0162
-1 19 18 -3.2380 -0.0256
-1 19 19 -0.1158 0.0282
-1 19 20 0.9415 -0.0057
-1 19 21 2.7710 0.0313
-1 19 22 -0.4138 0.0123
-1 19 23 -2.7844 -0.0147
-1 20 1 -0.3539 -0.1614
-1 20 2 -2.2141 -0.1020
-1 20 3 0.7599 0.0294
-1 20 4 2.8171 -0.0119
-1 20 5 0.4861 0.0506
-1 20 6 0.3701 0.0301
-1 20 7 -1.8247 -0.0061
-1 20 8 -2.8146 -0.0245
-1 20 9 0.2971 -0.0212
-1 20 10 1.4361 0.0027
-1 20 11 -0.8174 0.0123
-1 20 12 -1.1202 0.0062
-1 20 13 2.6897 0.0274
-1 20 14 0.8208 -0.0140
-1 20 15 -0.4115 0.0081
-1 20 16 -1.5695 -0.0355
-1 20 17 -1.0665 -0.0008
-1 20 18 2.6334 0.0014
-1 20 19 1.3211 0.0416
-1 20 20 -1.5465 0.0325
-1 20 21 -1.6662 -0.0134
-1 20 22 -0.8709 -0.1152
-1 20 23 0.8393 0.0065
-1 21 1 -0.4567 -0.1618
-1 21 2 0.7005 0.0937
-1 21 3 2.1889 0.0723
-1 21 4 -2.4333 0.0159
-1 21 5 -5.4862 0.0234
-1 21 6 0.4141 -0.0324
-1 21 7 3.4495 -0.0227
-1 21 8 1.3807 -0.0034
-1 21 9 0.6276 0.0267
-1 21 10 -0.7541 0.0067
-1 21 11 -1.1976 0.0030
-1 21 12 1.8205 -0.0093
-1 21 13 -0.0310 -0.0068
-1 21 14 -3.4449 -0.0254
-1 21 15 2.2795 0.0065
-1 21 16 2.5964 -0.0080
-1 21 17 -1.4993 0.0300
-1 21 18 -1.8743 -0.0023
-1 21 19 -1.2249 0.0385
-1 21 20 -0.4627 -0.0515
-1 21 21 1.5181 -0.0633
-1 21 22 2.1724 0.0160
-1 22 1 -0.8476 0.1257
-1 22 2 -0.1913 0.0967
-1 22 3 0.0534 -0.0316
-1 22 4 -1.2251 0.0034
-1 22 5 2.1431 -0.0242
-1 22 6 5.0412 -0.0281
-1 22 7 -0.7991 0.0005
-1 22 8 -4.1426 0.0120
-1 22 9 0.2175 0.0046
-1 22 10 0.9465 -0.0345
-1 22 11 0.4818 0.0186
-1 22 12 0.1842 0.0041
-1 22 13 -1.7329 0.0122
-1 22 14 -0.0308 0.0042
-1 22 15 1.2362 -0.0039
-1 22 16 -1.6866 -0.0132
-1 22 17 -0.2471 0.0317
-1 22 18 0.9850 -0.0348
-1 22 19 0.4293 0.0016
-1 22 20 0.6449 0.0096
-1 22 21 1.4303 0.0493
-1 23 1 1.5767 0.2421
-1 23 2 1.3829 -0.0823
-1 23 3 1.6840 0.0126
-1 23 4 -2.4141 -0.0112
-1 23 5 -1.7146 -0.0583
-1 23 6 0.3697 0.0155
-1 23 7 -0.6761 0.0272
-1 23 8 0.4242 0.0263
-1 23 9 1.1678 -0.0040
-1 23 10 -2.0736 -0.0002
-1 23 11 -0.3229 0.0241
-1 23 12 0.3646 -0.0327
-1 23 13 -0.6128 0.0272
-1 23 14 0.3114 -0.0221
-1 23 15 1.9997 -0.0290
-1 23 16 2.2516 0.0208
-1 23 17 -1.0088 0.0032
-1 23 18 -3.0541 -0.0309
-1 23 19 0.6188 0.0827
-1 23 20 1.1309 -0.0200
-1 24 1 -1.1986 -0.0525
-1 24 2 -0.5090 -0.1486
-1 24 3 -2.1020 0.0615
-1 24 4 -2.2017 -0.0527
-1 24 5 3.2363 0.0214
-1 24 6 2.7665 0.0488
-1 24 7 -1.6667 -0.0128
-1 24 8 -1.4954 -0.0248
-1 24 9 -0.2496 -0.0193
-1 24 10 0.4973 -0.0214
-1 24 11 2.9837 -0.0053
-1 24 12 -0.5151 0.0031
-1 24 13 -1.0240 0.0264
-1 24 14 0.8214 -0.0389
-1 24 15 0.8608 0.0056
-1 24 16 -1.7706 0.0030
-1 24 17 -2.9687 0.0257
-1 24 18 0.7444 0.0356
-1 25 1 0.8401 -0.0852
-1 25 2 0.1846 0.0303
-1 25 3 1.0482 0.0432
-1 25 4 0.7704 -0.0439
-1 25 5 -0.2093 0.0161
-1 25 6 -0.8473 -0.0173
-1 25 7 -0.3740 -0.0407
-1 25 8 0.7864 0.0208
-1 25 9 0.0439 0.0285
-1 25 10 0.4156 0.0029
-1 25 11 -0.1233 0.0360
-1 25 12 -2.9791 -0.0160
-1 25 13 0.8823 0.0479
-1 25 14 1.0505 0.0059
-1 25 15 0.1235 -0.0502
-1 25 16 -0.2666 0.0041
-1 25 17 -0.5021 0.0591
-1 26 1 0.1279 -0.0099
-1 26 2 -0.0001 -0.0330
-1 26 3 0.1888 0.0053
-1 26 4 -2.6596 -0.0148
-1 26 5 1.2398 0.0128
-1 26 6 1.5516 0.0048
-1 26 7 -1.6700 0.0067
-1 26 8 0.2276 0.0711
-1 26 9 0.6482 0.0057
-1 26 10 0.3403 -0.0288
-1 26 11 -1.0722 -0.0251
-1 26 12 0.1143 -0.0176
-1 26 13 2.5302 0.0454
-1 26 14 -1.3814 -0.1215
-1 27 1 0.0586 -0.0368
-1 27 2 -0.0118 -0.0185
-1 27 3 -1.1933 0.0334
-1 27 4 -0.2676 -0.0162
-1 27 5 2.3592 0.0332
-1 27 6 -1.8250 0.0182
-1 27 7 0.3978 0.0088
-1 27 8 2.3213 0.0173
-1 27 9 -2.1823 -0.0805
-1 27 10 -1.3213 -0.0634
-1 27 11 -0.2268 0.0148
0 -27 1 -0.6453 0.0515
0 -26 1 1.4349 -0.0296
0 -26 2 0.2181 -0.0145
0 -26 3 -2.0198 -0.0165
0 -26 4 -0.6796 -0.1267
0 -25 1 1.0427 -0.2547
0 -25 2 -0.7754 0.0429
0 -25 3 0.3278 -0.0355
0 -25 4 0.3418 0.0149
0 -25 5 -0.9497 0.0612
0 -25 6 -0.4180 -0.0339
0 -24 1 -0.9778 -0.0225
0 -24 2 -1.0098 0.1333
0 -24 3 -0.6139 0.0056
0 -24 4 -0.4625 0.0720
0 -24 5 1.8812 -0.0100
0 -24 6 1.0940 -0.0120
0 -24 7 -0.1631 -0.0333
0 -24 8 -0.8330 -0.0036
0 -23 1 -2.2794 0.2666
0 -23 2 1.2767 0.0196
0 -23 3 0.2854 -0.0013
0 -23 4 1.1154 -0.0236
0 -23 5 -0.0476 -0.0538
0 -23 6 -2.9961 -0.0089
0 -23 7 0.2439 -0.0071
0 -23 8 1.0985 0.0369
0 -23 9 -0.2971 0.0334
0 -23 10 0.0336 0.0319
0 -22 1 1.1010 0.0850
0 -22 2 0.8549 -0.1227
0 -22 3 -1.8083 0.0160
0 -22 4 -0.1879 -0.0449
0 -22 5 -0.3761 -0.0001
0 -22 6 0.6711 0.0139
0 -22 7 1.8147 0.0097
0 -22 8 -1.6551 0.0050
0 -22 9 -0.5274 -0.0027
0 -22 10 0.8782 -0.0555
0 -22 11 -0.3426 -0.0178
0 -22 12 -0.4779 0.1583
0 -21 1 -0.2908 -0.1331
0 -21 2 -1.5362 -0.0281
0 -21 3 0.0389 0.0344
0 -21 4 1.5584 -0.0336
0 -21 5 0.5869 0.0439
0 -21 6 -0.8794 0.0129
0 -21 7 -1.1706 -0.0025
0 -21 8 0.6701 -0.0101
0 -21 9 1.8588 -0.0028
0 -21 10 -0.6269 -0.0125
0 -21 11 -0.2043 0.0523
0 -21 12 0.5462 0.0004
0 -21 13 -0.1985 -0.1097
0 -20 1 0.0684 -0.1080
0 -20 2 1.7820 0.0601
0 -20 3 0.1784 -0.0107
0 -20 4 -1.3755 0.0088
0 -20 5 -0.2876 0.0149
0 -20 6 -0.7383 -0.0282
0 -20 7 1.6957 -0.0256
0 -20 8 0.4885 -0.0001
0 -20 9 -1.0011 0.0149
0 -20 10 -0.4741 0.0074
0 -20 11 -0.9489 0.0357
0 -20 12 -0.1248 -0.0219
0 -20 13 0.9785 -0.0326
0 -20 14 -0.2983 0.0227
0 -19 1 -0.7208 0.0987
0 -19 2 -0.8271 0.0477
0 -19 3 -2.2620 -0.0024
0 -19 4 1.6902 0.0276
0 -19 5 1.8335 -0.0145
0 -19 6 0.2149 -0.0113
0 -19 7 -0.1207 -0.0057
0 -19 8 -2.9378 0.0323
0 -19 9 1.4587 -0.0020
0 -19 10 -0.2233 0.0178
0 -19 11 -0.5243 0.0022
0 -19 12 2.5406 -0.0527
0 -19 13 -1.1117 -0.0057
0 -19 14 -0.7361 0.0189
0 -19 15 1.1959 0.0155
0 -18 1 2.7044 0.0546
0 -18 2 1.3086 -0.0821
0 -18 3 1.1856 0.0240
0 -18 4 0.5390 -0.0320
0 -18 5 -1.8813 -0.0310
0 -18 6 -1.1665 -0.0018
0 -18 7 -2.3599 0.0172
0 -18 8 1.3602 0.0180
0 -18 9 4.7287 -0.0073
0 -18 10 -2.0757 0.0201
0 -18 11 0.5165 -0.0521
0 -18 12 -0.3581 0.0014
0 -18 13 -1.0321 0.0092
0 -18 14 1.9133 -0.0081
0 -18 15 -2.3381 0.0430
0 -18 16 -0.5071 0.0040
0 -17 1 -0.1482 -0.2480
0 -17 2 -1.5407 0.0441
0 -17 3 -1.4687 0.0129
0 -17 4 -0.8735 -0.0398
0 -17 5 0.6381 0.0352
0 -17 6 0.7583 0.0116
0 -17 7 0.8428 0.0132
0 -17 8 3.4640 -0.0167
0 -17 9 -1.7991 0.0016
0 -17 10 -3.9473 -0.0139
0 -17 11 0.5052 -0.0171
0 -17 12 -1.4939 0.0365
0 -17 13 1.6832 -0.0337
0 -17 14 0.0978 0.0355
0 -17 15 -0.9444 0.0193
0 -17 16 3.5927 -0.0340
0 -17 17 -0.8993 -0.0061
0 -16 1 -0.5375 0.0483
0 -16 2 -0.6055 0.1614
0 -16 3 1.1853 -0.0630
0 -16 4 0.8796 0.0542
0 -16 5 0.3274 0.0027
0 -16 6 -0.0787 -0.0047
0 -16 7 -0.5133 -0.0115
0 -16 8 -1.5713 -0.0143
0 -16 9 -1.7227 0.0170
0 -16 10 1.9002 -0.0197
0 -16 11 1.2099 0.0201
0 -16 12 1.1151 0.0002
0 -16 13 2.6997 -0.0109
0 -16 14 -2.1412 0.0266
0 -16 15 -1.2284 -0.0258
0 -16 16 -0.2659 0.0146
0 -16 17 -1.8418 -0.0050
0 -16 18 1.4946 -0.0055
0 -15 1 0.3088 0.3282
0 -15 2 1.7432 -0.0746
0 -15 3 1.2161 -0.0277
0 -15 4 -1.7963 0.0312
0 -15 5 -0.7851 -0.0567
0 -15 6 -0.3110 0.0032
0 -15 7 -1.4183 -0.0256
0 -15 8 0.8234 0.0335
0 -15 9 3.1076 -0.0025
0 -15 10 0.7634 0.0066
0 -15 11 -2.6617 0.0306
0 -15 12 -1.6289 -0.0294
0 -15 13 -0.8515 -0.0048
0 -15 14 -0.3165 -0.0019
0 -15 15 1.4458 0.0104
0 -15 16 0.7693 0.0125
0 -15 17 0.8232 -0.0180
0 -15 18 0.3260 -0.0134
0 -15 19 -1.5476 -0.0232
0 -14 1 -1.1103 -0.1166
0 -14 2 -1.6319 -0.1643
0 -14 3 -1.9793 0.0655
0 -14 4 -0.6933 -0.0380
0 -14 5 2.3310 -0.0206
0 -14 6 -0.4513 0.0161
0 -14 7 -0.7259 0.0181
0 -14 8 3.0693 0.0150
0 -14 9 0.1858 -0.0220
0 -14 10 -3.9780 0.0220
0 -14 11 -1.6426 -0.0356
0 -14 12 3.8564 -0.0198
0 -14 13 4.0282 0.0141
0 -14 14 -1.3382 -0.0016
0 -14 15 -3.6800 0.0185
0 -14 16 -0.0608 -0.0008
0 -14 17 1.6107 -0.0089
0 -14 18 -0.5707 -0.0235
0 -14 19 -0.4985 0.0261
0 -14 20 1.1043 0.0272
0 -13 1 0.7329 -0.1133
0 -13 2 1.4362 0.0743
0 -13 3 0.5205 0.0428
0 -13 4 0.2501 -0.0481
0 -13 5 -1.0405 0.0172
0 -13 6 -3.0259 0.0250
0 -13 7 2.1655 -0.0024
0 -13 8 2.8847 -0.0145
0 -13 9 -2.1962 0.0099
0 -13 10 -0.6081 -0.0033
0 -13 11 1.7242 -0.0077
0 -13 12 0.1767 0.0215
0 -13 13 -3.4876 -0.0078
0 -13 14 -2.5388 0.0130
0 -13 15 2.8789 0.0118
0 -13 16 4.1130 -0.0199
0 -13 17 -0.3388 -0.0169
0 -13 18 -3.0944 -0.0047
0 -13 19 -0.6621 0.0181
0 -13 20 1.2455 -0.0073
0 -13 21 0.0395 0.0402
0 -12 1 -2.1904 0.0526
0 -12 2 -5.2839 0.0112
0 -12 3 0.7998 -0.0394
0 -12 4 3.8716 -0.0463
0 -12 5 1.0757 0.0428
0 -12 6 0.0432 0.0015
0 -12 7 2.1126 -0.0145
0 -12 8 -1.1156 0.0221
0 -12 9 -2.5587 -0.0001
0 -12 10 -2.1289 -0.0067
0 -12 11 -0.8896 -0.0002
0 -12 12 3.7762 -0.0066
0 -12 13 3.1183 0.0019
0 -12 14 0.2672 -0.0037
0 -12 15 -1.8260 -0.0008
0 -12 16 -2.2036 0.0096
0 -12 17 -1.6026 0.0063
0 -12 18 0.1129 0.0101
0 -12 19 2.7304 -0.0015
0 -12 20 1.2598 0.0121
0 -12 21 -0.8403 0.0144
0 -11 1 2.2800 -0.3040
0 -11 2 8.7251 -0.0078
0 -11 3 7.9773 -0.0526
0 -11 4 -5.4690 0.0551
0 -11 5 -8.6404 0.0689
0 -11 6 -0.9927 -0.0364
0 -11 7 2.9529 0.0231
0 -11 8 1.1278 -0.0132
0 -11 9 -0.8386 -0.0211
0 -11 10 0.8117 0.0024
0 -11 11 5.4007 -0.0031
0 -11 12 -0.1416 0.0130
0 -11 13 -7.8980 -0.0207
0 -11 14 -2.8085 0.0018
0 -11 15 2.9086 0.0268
0 -11 16 3.7627 -0.0242
0 -11 17 1.3759 -0.0002
0 -11 18 -0.3261 -0.0063
0 -11 19 -0.9030 -0.0280
0 -11 20 -1.2938 0.0259
0 -11 21 -0.2495 -0.0084
0 -11 22 -0.4983 -0.0332
0 -10 1 7.2023 0.0322
0 -10 2 -4.8422 0.1918
0 -10 3 -9.2364 0.0194
0 -10 4 -5.7924 0.1187
0 -10 5 7.5343 -0.0877
0 -10 6 7.9223 -0.0266
0 -10 7 0.5647 0.0013
0 -10 8 -3.1382 -0.0315
0 -10 9 -3.3181 0.0340
0 -10 10 0.1808 -0.0104
0 -10 11 -1.6764 0.0110
0 -10 12 -3.0853 -0.0081
0 -10 13 4.5436 -0.0148
0 -10 14 6.1493 0.0383
0 -10 15 -0.3772 -0.0077
0 -10 16 -3.2723 0.0045
0 -10 17 -2.9846 0.0155
0 -10 18 -1.0250 -0.0444
0 -10 19 0.7940 0.0138
0 -10 20 1.2643 0.0269
0 -10 21 0.3743 -0.0304
0 -10 22 -0.4270 0.0217
0 -10 23 0.5344 0.0293
0 -9 1 -7.6044 0.5288
0 -9 2 -2.2642 -0.0308
0 -9 3 6.4067 0.0029
0 -9 4 2.9262 -0.0728
0 -9 5 0.2562 -0.1077
0 -9 6 -3.7910 0.0645
0 -9 7 -1.9685 -0.0239
0 -9 8 -1.9935 0.0415
0 -9 9 0.3718 0.0030
0 -9 10 4.1180 -0.0106
0 -9 11 2.5736 0.0194
0 -9 12 2.1420 -0.0309
0 -9 13 -2.8503 0.0232
0 -9 14 -5.2763 -0.0004
0 -9 15 -1.1759 -0.0157
0 -9 16 0.9643 0.0056
0 -9 17 2.5331 -0.0313
0 -9 18 1.9002 0.0109
0 -9 19 0.0265 0.0282
0 -9 20 -0.2627 -0.0038
0 -9 21 -0.0506 0.0281
0 -9 22 -0.7240 0.0038
0 -9 23 -0.2829 -0.0367
0 -8 1 -0.9488 -0.0052
0 -8 2 3.9991 -0.2724
0 -8 3 -0.5606 -0.0121
0 -8 4 -4.8328 -0.1277
0 -8 5 2.9717 0.0795
0 -8 6 4.1086 0.0489
0 -8 7 -2.2910 0.0088
0 -8 8 -4.3509 0.0330
0 -8 9 4.7383 -0.0370
0 -8 10 3.0094 0.0125
0 -8 11 -5.0508 -0.0365
0 -8 12 -4.1421 0.0064
0 -8 13 0.9059 0.0240
0 -8 14 5.3571 -0.0215
0 -8 15 0.8336 0.0251
0 -8 16 -0.9339 -0.0043
0 -8 17 0.5246 0.0024
0 -8 18 -2.2346 0.0072
0 -8 19 -0.5034 -0.0180
0 -8 20 0.4611 0.0175
0 -8 21 -0.4440 -0.0300
0 -8 22 -0.6496 -0.0328
0 -8 23 0.6722 0.0323
0 -8 24 0.7797 -0.0198
0 -7 1 -4.0828 -0.4127
0 -7 2 -0.9398 0.0079
0 -7 3 1.2341 0.0287
0 -7 4 -0.5506 0.0300
0 -7 5 1.1410 0.1244
0 -7 6 -4.3617 -0.0329
0 -7 7 -5.8594 0.0091
0 -7 8 4.2563 -0.0511
0 -7 9 7.9494 -0.0165
0 -7 10 -3.9627 -0.0058
0 -7 11 -4.2160 -0.0093
0 -7 12 3.5167 0.0451
0 -7 13 1.5604 -0.0212
0 -7 14 -2.1987 0.0085
0 -7 15 -1.6254 0.0066
0 -7 16 1.1712 -0.0272
0 -7 17 -0.6296 0.0101
0 -7 18 -0.0528 -0.0161
0 -7 19 1.8861 0.0043
0 -7 20 -0.9168 -0.0021
0 -7 21 0.2517 -0.0114
0 -7 22 0.0478 0.0366
0 -7 23 -0.1706 -0.0236
0 -7 24 0.6869 0.0045
0 -6 1 -32.6763 -0.0852
0 -6 2 -0.7487 0.1960
0 -6 3 5.0842 -0.0075
0 -6 4 -4.3302 0.0773
0 -6 5 0.9227 -0.0281
0 -6 6 1.8423 -0.0480
0 -6 7 2.7664 -0.0061
0 -6 8 4.0096 -0.0315
0 -6 9 -1.3819 0.0407
0 -6 10 -5.9263 -0.0085
0 -6 11 -0.2011 0.0349
0 -6 12 1.5830 0.0063
0 -6 13 0.6968 -0.0181
0 -6 14 2.4480 0.0154
0 -6 15 -1.3639 -0.0270
0 -6 16 -2.4627 0.0041
0 -6 17 1.5870 0.0105
0 -6 18 1.8777 -0.0120
0 -6 19 -1.2269 0.0174
0 -6 20 -1.1357 0.0095
0 -6 21 0.8572 0.0161
0 -6 22 -1.0906 -0.0015
0 -6 23 0.8605 0.0366
0 -6 24 0.9844 0.0262
0 -6 25 -1.4710 -0.1353
0 -5 1 -20.2770 0.2615
0 -5 2 39.5107 0.0397
0 -5 3 5.9085 -0.0424
0 -5 4 -6.9239 0.0042
0 -5 5 3.4199 -0.0782
0 -5 6 -2.8299 0.0181
0 -5 7 -5.9038 0.0016
0 -5 8 0.6515 0.0280
0 -5 9 3.3549 0.0107
0 -5 10 -1.3658 -0.0108
0 -5 11 -0.0665 0.0169
0 -5 12 2.0782 -0.0417
0 -5 13 0.7699 0.0078
0 -5 14 -2.6785 -0.0029
0 -5 15 -2.2123 -0.0079
0 -5 16 4.1806 0.0254
0 -5 17 1.3746 -0.0045
0 -5 18 -3.4079 -0.0071
0 -5 19 -0.0184 0.0022
0 -5 20 0.9008 -0.0047
0 -5 21 -0.4023 -0.0148
0 -5 22 -0.2124 -0.0081
0 -5 23 1.3615 -0.0095
0 -5 24 -0.5482 -0.0966
0 -5 25 -0.4843 0.0356
0 -4 1 36.0485 0.0615
0 -4 2 24.8974 -0.1542
0 -4 3 -27.2655 0.0125
0 -4 4 -8.7489 -0.0390
0 -4 5 1.6456 -0.0020
0 -4 6 -2.8062 0.0512
0 -4 7 8.4232 0.0063
0 -4 8 11.4243 -0.0052
0 -4 9 -6.0086 -0.0298
0 -4 10 -9.7241 0.0082
0 -4 11 3.3619 -0.0259
0 -4 12 2.5612 0.0005
0 -4 13 -1.5925 0.0329
0 -4 14 -0.0481 -0.0156
0 -4 15 1.1416 0.0145
0 -4 16 -0.7239 -0.0075
0 -4 17 -2.7028 -0.0151
0 -4 18 2.4268 0.0028
0 -4 19 2.3830 0.0100
0 -4 20 -3.0927 0.0099
0 -4 21 -0.5674 -0.0019
0 -4 22 1.2546 0.0193
0 -4 23 0.4190 0.0053
0 -4 24 -0.2044 0.0106
0 -4 25 -0.2958 0.0387
0 -4 26 -0.6961 -0.0820
0 -3 1 40.0518 -0.3476
0 -3 2 -4.3773 -0.0016
0 -3 3 -23.7790 0.0424
0 -3 4 7.1101 -0.0165
0 -3 5 6.2817 0.0638
0 -3 6 1.6025 -0.0006
0 -3 7 3.2135 -0.0189
0 -3 8 -10.8472 -0.0218
0 -3 9 -9.5600 0.0086
0 -3 10 10.2826 0.0011
0 -3 11 6.1038 -0.0009
0 -3 12 -5.9836 0.0491
0 -3 13 -0.4036 -0.0106
0 -3 14 2.0142 -0.0042
0 -3 15 0.0891 -0.0020
0 -3 16 0.4778 -0.0220
0 -3 17 1.0724 0.0186
0 -3 18 0.1220 -0.0024
0 -3 19 -3.6248 0.0019
0 -3 20 -1.0285 -0.0043
0 -3 21 3.2934 -0.0124
0 -3 22 0.9658 -0.0035
0 -3 23 0.3986 -0.0163
0 -3 24 -0.5759 -0.0009
0 -3 25 -1.7159 -0.0029
0 -3 26 0.1757 0.0343
0 -2 2 -19.7250 0.2625
0 -2 3 -18.4357 -0.0110
0 -2 4 16.1964 0.0589
0 -2 5 3.7027 -0.0071
0 -2 6 -1.0193 -0.0450
0 -2 7 3.0518 -0.0054
0 -2 8 -0.3023 -0.0043
0 -2 9 3.5930 0.0204
0 -2 10 -1.5049 -0.0074
0 -2 11 -6.5017 0.0268
0 -2 12 2.7648 -0.0058
0 -2 13 5.3241 -0.0387
0 -2 14 -1.0771 0.0056
0 -2 15 -2.0617 -0.0226
0 -2 16 -1.9009 0.0123
0 -2 17 -1.0249 0.0165
0 -2 18 0.7554 -0.0072
0 -2 19 1.3417 0.0140
0 -2 20 1.5541 -0.0044
0 -2 21 -0.3251 0.0031
0 -2 22 -0.8371 0.0080
0 -2 23 -0.6406 0.0028
0 -2 24 -1.9544 0.0058
0 -2 25 0.3503 -0.0135
0 -2 26 2.0556 -0.0181
0 -1 4 21.1472 -0.0010
0 -1 5 -7.8665 -0.0806
0 -1 6 -5.3465 0.0018
0 -1 7 -1.6576 0.0131
0 -1 8 -9.5841 0.0222
0 -1 9 -2.1303 -0.0073
0 -1 10 9.9326 -0.0093
0 -1 11 8.1801 0.0171
0 -1 12 -4.2126 -0.0317
0 -1 13 -6.2738 0.0018
0 -1 14 -0.7677 0.0143
0 -1 15 0.8815 -0.0028
0 -1 16 0.1873 0.0227
0 -1 17 2.3207 -0.0041
0 -1 18 1.5597 -0.0024
0 -1 19 -1.5471 -0.0070
0 -1 20 -1.8427 -0.0095
0 -1 21 0.3072 0.0013
0 -1 22 1.5244 -0.0120
0 -1 23 -0.5106 -0.0021
0 -1 24 -0.2182 0.0187
0 -1 25 1.1083 -0.0190
0 -1 26 -0.3705 0.0005
0 0 3 1.9651 0.0754
0 0 4 27.3303 -0.0257
0 0 5 -11.8510 0.0030
0 0 6 8.9911 0.0293
0 0 7 2.1520 0.0230
0 0 8 1.0191 -0.0104
0 0 9 12.3917 -0.0186
0 0 10 -1.7032 0.0268
0 0 11 -16.5274 -0.0096
0 0 12 -4.2690 -0.0119
0 0 13 9.0904 0.0211
0 0 14 4.0649 0.0033
0 0 15 -1.7457 0.0012
0 0 16 -0.6006 -0.0012
0 0 17 1.3318 -0.0083
0 0 18 -1.5801 -0.0060
0 0 19 -1.3124 -0.0045
0 0 20 0.7144 0.0166
0 0 21 1.0040 0.0014
0 0 22 -0.0952 -0.0127
0 0 23 -1.5219 0.0102
0 0 24 0.5299 0.0162
0 0 25 0.9367 -0.0315
0 0 26 -0.1153 0.0292
0 0 27 0.1520 0.0186
0 1 3 86.9524 0.0478
0 1 4 -1.0734 -0.0226
0 1 5 -7.9109 -0.0032
0 1 6 -0.5558 0.0088
0 1 7 -16.8906 -0.0120
0 1 8 3.7953 -0.0266
0 1 9 0.3701 0.0247
0 1 10 -8.5975 -0.0036
0 1 11 5.5264 -0.0109
0 1 12 8.8985 0.0141
0 1 13 -0.2255 -0.0084
0 1 14 -3.8538 -0.0034
0 1 15 -1.4821 -0.0096
0 1 16 0.5898 -0.0071
0 1 17 -0.2776 0.0018
0 1 18 -0.9029 0.0039
0 1 19 1.4507 0.0139
0 1 20 0.5330 0.0019
0 1 21 0.5313 -0.0159
0 1 22 -0.3710 -0.0049
0 1 23 -0.8255 0.0257
0 1 24 1.0913 0.0009
0 1 25 -0.8146 -0.0421
0 1 26 -1.3412 0.0260
0 1 27 0.3135 -0.0112
0 2 3 -12.1840 -0.0793
0 2 4 -18.7125 -0.0957
0 2 5 0.4549 0.0243
0 2 6 -13.6841 -0.0026
0 2 7 7.7323 -0.0150
0 2 8 16.3946 0.0379
0 2 9 -5.8142 0.0142
0 2 10 -0.2438 -0.0147
0 2 11 1.4430 0.0105
0 2 12 -2.6302 -0.0085
0 2 13 1.6409 -0.0036
0 2 14 -1.0743 0.0083
0 2 15 -1.6696 -0.0035
0 2 16 0.4162 0.0073
0 2 17 0.7026 0.0095
0 2 18 1.2595 0.0072
0 2 19 0.5587 -0.0051
0 2 20 -1.5013 -0.0030
0 2 21 -1.5385 -0.0093
0 2 22 -1.0225 -0.0091
0 2 23 1.2061 0.0101
0 2 24 1.3851 -0.0052
0 2 25 -0.6254 0.0194
0 2 26 0.6807 0.0193
0 2 27 0.8482 -0.0477
0 3 0 2.5762 -0.0060
0 3 1 -44.9918 -0.3600
0 3 2 -1.8656 -0.0221
0 3 3 28.0819 -0.0341
0 3 4 3.9924 0.0923
0 3 5 -10.6754 0.0867
0 3 6 0.2318 -0.0299
0 3 7 10.0095 0.0454
0 3 8 -5.7595 0.0030
0 3 9 -3.3883 -0.0323
0 3 10 3.7658 -0.0076
0 3 11 -2.8783 -0.0055
0 3 12 0.4278 -0.0073
0 3 13 -1.4336 -0.0036
0 3 14 -3.3759 0.0087
0 3 15 3.3723 -0.0002
0 3 16 1.9470 -0.0039
0 3 17 -0.3501 0.0093
0 3 18 -0.4512 -0.0127
0 3 19 -1.0639 -0.0085
0 3 20 -1.4788 -0.0102
0 3 21 1.3150 -0.0122
0 3 22 2.5316 0.0241
0 3 23 0.6203 0.0130
0 3 24 -0.9403 0.0021
0 3 25 -1.6914 -0.0283
0 3 26 -0.2226 -0.0411
0 3 27 0.1098 0.0527
0 4 0 -37.3094 -0.2586
0 4 1 -16.2480 0.0719
0 4 2 42.4622 0.0796
0 4 3 -4.6939 0.0284
0 4 4 -24.0047 0.1193
0 4 5 2.1770 -0.1003
0 4 6 -0.1515 -0.0129
0 4 7 0.9930 -0.0044
0 4 8 6.1248 -0.0477
0 4 9 2.4309 0.0073
0 4 10 -9.7450 0.0006
0 4 11 -3.1857 0.0146
0 4 12 7.4240 0.0052
0 4 13 2.1433 0.0065
0 4 14 0.1556 0.0148
0 4 15 0.0694 -0.0207
0 4 16 -1.9839 0.0072
0 4 17 0.0306 0.0005
0 4 18 0.1099 -0.0140
0 4 19 -0.4162 0.0169
0 4 20 0.5466 -0.0021
0 4 21 1.3884 0.0270
0 4 22 -0.9265 -0.0015
0 4 23 -0.5496 -0.0058
0 4 24 -0.4734 0.0125
0 4 25 -0.6036 -0.0120
0 4 26 1.7410 0.0524
0 4 27 0.1951 -0.0223
0 5 0 -51.0643 0.1279
0 5 1 23.1932 0.1566
0 5 2 24.2568 -0.0415
0 5 3 -19.5872 0.0595
0 5 4 0.3558 -0.0940
0 5 5 4.1991 -0.0724
0 5 6 1.1964 0.0635
0 5 7 11.8016 -0.0335
0 5 8 -1.9941 0.0467
0 5 9 -13.7187 0.0146
0 5 10 -2.5318 0.0091
0 5 11 13.1108 0.0058
0 5 12 2.5634 -0.0255
0 5 13 -8.2972 0.0067
0 5 14 -1.8975 -0.0080
0 5 15 3.6231 -0.0074
0 5 16 1.0915 0.0168
0 5 17 -1.8611 -0.0100
0 5 18 -0.9021 0.0171
0 5 19 0.9455 0.0013
0 5 20 0.4904 -0.0165
0 5 21 -0.3515 0.0107
0 5 22 0.0972 -0.0171
0 5 23 -0.2604 0.0078
0 5 24 -1.3405 -0.0365
0 5 25 1.3467 0.0063
0 5 26 0.2660 -0.0151
0 5 27 -1.6200 -0.0721
0 6 0 9.7279 0.3432
0 6 1 40.5818 -0.1367
0 6 2 -8.0179 -0.0872
0 6 3 -19.7781 -0.0288
0 6 4 5.8399 -0.0684
0 6 5 4.7091 0.1143
0 6 6 0.6556 0.0119
0 6 7 -5.9589 0.0070
0 6 8 -11.4910 0.0227
0 6 9 2.9308 -0.0499
0 6 10 12.8471 0.0050
0 6 11 2.3862 -0.0353
0 6 12 -8.1296 0.0098
0 6 13 -0.6753 0.0123
0 6 14 3.3248 -0.0065
0 6 15 -1.4919 0.0215
0 6 16 -4.3520 -0.0035
0 6 17 1.8034 -0.0067
0 6 18 3.9244 0.0072
0 6 19 -0.8420 -0.0235
0 6 20 -1.2752 -0.0027
0 6 21 0.2093 0.0009
0 6 22 0.0450 -0.0081
0 6 23 -0.6420 0.0062
0 6 24 1.2455 0.0017
0 6 25 0.5807 0.0339
0 6 26 -1.8733 -0.0304
0 6 27 1.0878 0.0604
0 7 0 17.2894 -0.0826
0 7 1 4.1250 -0.3476
0 7 2 -17.4994 0.0810
0 7 3 -4.2942 -0.0019
0 7 4 4.9566 0.0682
0 7 5 -1.3449 0.0562
0 7 6 -2.1283 -0.0638
0 7 7 1.6787 0.0109
0 7 8 6.9821 -0.0564
0 7 9 8.3544 -0.0023
0 7 10 -4.4321 0.0128
0 7 11 -9.4976 -0.0008
0 7 12 -2.1184 0.0391
0 7 13 1.7456 -0.0136
0 7 14 0.5065 0.0198
0 7 15 2.5846 -0.0090
0 7 16 4.8173 -0.0313
0 7 17 1.3627 0.0067
0 7 18 -6.3553 -0.0048
0 7 19 -2.3682 -0.0035
0 7 20 3.0373 0.0145
0 7 21 0.5976 0.0118
0 7 22 -0.2976 0.0184
0 7 23 -0.7077 -0.0026
0 7 24 0.2548 -0.0107
0 7 25 -0.0775 0.0270
0 7 26 0.3351 0.0014
0 7 27 0.8356 -0.0248
0 8 0 6.6050 -0.5924
0 8 1 -4.8154 0.0552
0 8 2 -12.9376 0.2488
0 8 3 -0.5175 -0.0059
0 8 4 11.0323 0.0834
0 8 5 6.1307 -0.0743
0 8 6 -1.3909 -0.0328
0 8 7 -1.1847 0.0028
0 8 8 -3.2509 -0.0172
0 8 9 -5.4734 0.0550
0 8 10 -3.7736 -0.0042
0 8 11 4.0698 0.0294
0 8 12 4.9120 -0.0106
0 8 13 2.8528 -0.0215
0 8 14 0.4807 0.0073
0 8 15 -1.5387 -0.0303
0 8 16 -4.5421 0.0136
0 8 17 -5.6965 0.0133
0 8 18 2.0742 0.0088
0 8 19 7.4292 0.0192
0 8 20 0.3383 -0.0123
0 8 21 -2.4124 -0.0066
0 8 22 -0.7277 0.0001
0 8 23 -0.6125 -0.0134
0 8 24 1.8554 0.0008
0 8 25 0.0456 -0.0051
0 8 26 -1.1963 -0.0558
0 8 27 -0.3110 0.0156
0 9 0 4.3157 0.0088
0 9 1 -5.0220 0.5717
0 9 2 -1.8550 -0.0337
0 9 3 11.9489 -0.0648
0 9 4 4.7840 -0.0429
0 9 5 -10.8365 -0.1073
0 9 6 -4.7078 0.0518
0 9 7 2.4808 0.0023
0 9 8 -0.0366 0.0359
0 9 9 5.1318 0.0079
0 9 10 2.9835 -0.0214
0 9 11 -1.9610 0.0016
0 9 12 -2.7253 -0.0467
0 9 13 -0.9241 0.0217
0 9 14 -2.1750 -0.0053
0 9 15 0.4487 -0.0018
0 9 16 1.8746 0.0202
0 9 17 3.7176 -0.0044
0 9 18 3.6454 0.0081
0 9 19 -3.0751 -0.0169
0 9 20 -4.6051 -0.0167
0 9 21 -0.4409 0.0084
0 9 22 0.3197 -0.0073
0 9 23 0.8584 -0.0054
0 9 24 1.4835 -0.0022
0 9 25 -0.4892 0.0075
0 9 26 -0.1393 0.0324
0 9 27 -0.3727 0.0299
0 10 0 8.4032 0.6104
0 10 1 -7.5048 -0.0300
0 10 2 0.9970 -0.3293
0 10 3 3.3096 0.0080
0 10 4 -4.7565 -0.0969
0 10 5 -0.7178 0.0442
0 10 6 5.9580 0.0650
0 10 7 -2.6745 -0.0037
0 10 8 -2.2541 0.0136
0 10 9 3.0127 -0.0401
0 10 10 -4.5684 0.0034
0 10 11 -1.0420 -0.0211
0 10 12 3.5119 0.0086
0 10 13 2.3142 0.0328
0 10 14 -0.7301 -0.0151
0 10 15 0.4092 0.0299
0 10 16 -0.9160 -0.0165
0 10 17 -1.3555 -0.0091
0 10 18 -2.4388 0.0013
0 10 19 -1.3490 -0.0112
0 10 20 1.8749 -0.0006
0 10 21 1.6857 0.0012
0 10 22 1.2794 0.0221
0 10 23 0.6390 0.0211
0 10 24 -0.5074 -0.0110
0 10 25 -1.3682 0.0136
0 10 26 -1.5172 0.0061
0 10 27 -0.3753 -0.0327
0 11 0 -6.3746 -0.0267
0 11 1 -7.1849 -0.4565
0 11 2 6.0903 0.0233
0 11 3 2.5036 0.0626
0 11 4 -2.2537 0.0228
0 11 5 -2.5531 0.1166
0 11 6 -2.6175 -0.0149
0 11 7 -0.2999 -0.0001
0 11 8 7.4161 -0.0266
0 11 9 2.2123 -0.0044
0 11 10 -4.3706 0.0097
0 11 11 0.3614 -0.0049
0 11 12 -0.2704 0.0417
0 11 13 0.0282 -0.0098
0 11 14 -1.7695 -0.0030
0 11 15 -0.1609 -0.0099
0 11 16 0.3308 -0.0266
0 11 17 1.0164 0.0246
0 11 18 0.4445 -0.0074
0 11 19 1.1812 0.0153
0 11 20 -0.3182 0.0134
0 11 21 -0.6136 0.0015
0 11 22 0.4298 -0.0108
0 11 23 -1.9609 -0.0202
0 11 24 -0.3022 -0.0057
0 11 25 2.1608 0.0050
0 11 26 0.7602 -0.0353
0 11 27 0.1881 -0.0161
0 12 0 -1.5948 -0.2161
0 12 1 -0.1820 0.0691
0 12 2 6.1398 0.2041
0 12 3 -0.5389 0.0061
0 12 4 -3.6257 0.0510
0 12 5 -0.0491 -0.0267
0 12 6 5.4992 -0.0442
0 12 7 2.6159 -0.0090
0 12 8 -3.2632 -0.0106
0 12 9 -7.0162 0.0209
0 12 10 -1.6098 -0.0226
0 12 11 3.6888 0.0143
0 12 12 3.5459 -0.0002
0 12 13 0.4492 -0.0264
0 12 14 -4.4965 0.0037
0 12 15 1.0517 -0.0152
0 12 16 1.9196 0.0155
0 12 17 0.0203 0.0037
0 12 18 -0.8291 -0.0005
0 12 19 0.2220 0.0097
0 12 20 -0.8150 -0.0321
0 12 21 1.4795 -0.0126
0 12 22 0.4117 0.0002
0 12 23 -0.7832 0.0261
0 12 24 2.1293 0.0052
0 12 25 -1.2173 0.0133
0 12 26 -3.9777 0.0114
0 12 27 -0.6793 0.0201
0 13 0 -3.5838 0.0944
0 13 1 2.7210 0.0421
0 13 2 6.5369 -0.0607
0 13 3 -5.1199 -0.0567
0 13 4 -5.2811 -0.0161
0 13 5 1.5139 -0.0439
0 13 6 1.9318 0.0033
0 13 7 -2.9972 0.0137
0 13 8 0.3815 0.0139
0 13 9 2.9972 -0.0196
0 13 10 3.3014 -0.0067
0 13 11 0.9479 0.0209
0 13 12 -3.2001 -0.0194
0 13 13 -4.7687 0.0163
0 13 14 1.2286 0.0080
0 13 15 5.8687 -0.0006
0 13 16 -0.5075 0.0162
0 13 17 -1.5574 -0.0084
0 13 18 -0.6022 -0.0005
0 13 19 -0.3115 -0.0125
0 13 20 -1.1234 0.0132
0 13 21 1.0371 0.0093
0 13 22 -0.7296 0.0067
0 13 23 -0.9142 0.0305
0 13 24 -1.2386 -0.0063
0 13 25 -0.3875 -0.0287
0 13 26 2.8027 -0.0886
0 14 0 0.7684 -0.2593
0 14 1 4.6618 -0.0966
0 14 2 -1.5348 0.0042
0 14 3 -6.9876 0.0354
0 14 4 3.0846 0.0419
0 14 5 5.3834 0.0057
0 14 6 0.8436 0.0369
0 14 7 -0.4929 0.0139
0 14 8 -0.9150 -0.0264
0 14 9 -3.9515 -0.0100
0 14 10 -0.2184 0.0115
0 14 11 -0.1761 -0.0044
0 14 12 -0.7397 0.0082
0 14 13 3.4216 0.0226
0 14 14 3.4371 -0.0154
0 14 15 -2.6094 0.0016
0 14 16 -3.6109 -0.0123
0 14 17 -0.1985 -0.0086
0 14 18 -0.1995 0.0088
0 14 19 0.8542 0.0037
0 14 20 0.1440 0.0160
0 14 21 1.2893 -0.0148
0 14 22 -0.1885 -0.0005
0 14 23 0.4010 -0.0344
0 14 24 1.1045 -0.0281
0 14 25 1.9064 0.0104
0 14 26 -1.5204 0.0326
0 15 0 0.4223 -0.1100
0 15 1 2.5014 0.2616
0 15 2 -0.9622 0.0692
0 15 3 -2.1351 0.0645
0 15 4 1.0757 -0.0207
0 15 5 -2.2128 -0.0274
0 15 6 -0.3965 0.0005
0 15 7 0.3873 -0.0499
0 15 8 -1.1208 -0.0166
0 15 9 1.2287 0.0194
0 15 10 3.8543 0.0092
0 15 11 -0.8683 0.0145
0 15 12 -0.6457 0.0095
0 15 13 -0.0730 -0.0027
0 15 14 -2.7956 -0.0141
0 15 15 -1.2870 -0.0072
0 15 16 2.4981 -0.0116
0 15 17 0.3187 0.0103
0 15 18 0.3883 -0.0076
0 15 19 0.9582 0.0064
0 15 20 -1.1264 0.0000
0 15 21 2.1669 -0.0267
0 15 22 0.5689 -0.0033
0 15 23 -1.3128 0.0141
0 15 24 -1.9740 0.0818
0 15 25 -0.5486 -0.0102
0 15 26 -0.3609 -0.0625
0 16 0 0.9023 0.3614
0 16 1 0.4407 0.0714
0 16 2 -5.0122 -0.1133
0 16 3 -3.0906 -0.0486
0 16 4 3.6765 -0.0961
0 16 5 3.4188 0.0112
0 16 6 2.7424 -0.0243
0 16 7 -1.9821 0.0032
0 16 8 -3.1381 0.0394
0 16 9 -0.6703 0.0186
0 16 10 1.4298 -0.0090
0 16 11 -1.0079 -0.0086
0 16 12 0.0163 -0.0113
0 16 13 0.6484 -0.0119
0 16 14 0.1490 -0.0139
0 16 15 1.1426 0.0047
0 16 16 0.2712 0.0023
0 16 17 -1.3019 0.0129
0 16 18 2.8005 0.0136
0 16 19 -0.4440 0.0079
0 16 20 -1.1462 -0.0120
0 16 21 0.9889 0.0210
0 16 22 -4.4473 -0.0060
0 16 23 -0.8637 -0.0008
0 16 24 1.7768 0.0263
0 16 25 1.4272 -0.0767
0 17 0 1.1660 -0.0081
0 17 1 1.0812 -0.2304
0 17 2 -1.0484 -0.0580
0 17 3 2.7558 -0.0428
0 17 4 3.3257 0.0450
0 17 5 -2.9621 0.0547
0 17 6 -2.8662 0.0025
0 17 7 -1.5620 0.0535
0 17 8 1.4317 -0.0002
0 17 9 3.1251 -0.0186
0 17 10 2.0134 -0.0204
0 17 11 -2.4396 0.0163
0 17 12 -0.1760 -0.0026
0 17 13 -0.5745 0.0125
0 17 14 -1.0930 0.0148
0 17 15 1.3930 0.0043
0 17 16 1.1243 -0.0027
0 17 17 -0.1808 0.0054
0 17 18 -1.0608 -0.0148
0 17 19 -4.6172 -0.0086
0 17 20 0.9919 0.0119
0 17 21 0.2651 0.0052
0 17 22 0.3986 -0.0270
0 17 23 5.6615 0.0225
0 17 24 -1.7597 -0.0158
0 17 25 -0.9457 -0.0505
0 18 0 1.2216 -0.2131
0 18 1 -2.6110 0.0491
0 18 2 -4.1726 0.0591
0 18 3 0.9441 0.0715
0 18 4 0.4818 0.0894
0 18 5 -1.8703 -0.0411
0 18 6 2.6340 0.0111
0 18 7 1.6677 -0.0043
0 18 8 -1.0927 -0.0470
0 18 9 -1.7869 -0.0150
0 18 10 -0.6315 0.0069
0 18 11 -1.1826 0.0100
0 18 12 1.1130 -0.0124
0 18 13 0.2267 0.0094
0 18 14 1.4846 -0.0178
0 18 15 0.6113 0.0027
0 18 16 -2.0821 -0.0147
0 18 17 -2.0027 -0.0092
0 18 18 0.8457 0.0146
0 18 19 2.0183 0.0139
0 18 20 3.1198 -0.0009
0 18 21 -0.9546 -0.0014
0 18 22 1.7707 -0.0526
0 18 23 -1.2651 -0.0176
0 18 24 -5.1323 0.0603
0 19 0 -2.8431 0.1362
0 19 1 -1.0665 0.0920
0 19 2 2.7486 -0.0328
0 19 3 4.7429 0.0355
0 19 4 -0.3111 -0.0785
0 19 5 -2.1242 -0.0366
0 19 6 0.4989 0.0247
0 19 7 -1.8025 -0.0484
0 19 8 -0.5291 0.0023
0 19 9 2.1109 0.0173
0 19 10 1.2686 0.0187
0 19 11 -0.8554 0.0052
0 19 12 1.7805 0.0058
0 19 13 -0.9722 -0.0000
0 19 14 -2.1449 -0.0010
0 19 15 -0.0853 0.0025
0 19 16 1.9885 -0.0144
0 19 17 0.8864 0.0255
0 19 18 -0.0239 0.0087
0 19 19 -1.5187 -0.0077
0 19 20 -0.0601 0.0003
0 19 21 -0.9971 -0.0088
0 19 22 0.2763 -0.0146
0 19 23 -1.9005 0.0856
0 19 24 0.6888 0.0123
0 20 0 0.9238 0.0845
0 20 1 2.0297 -0.1260
0 20 2 0.0211 0.0189
0 20 3 -1.5578 -0.0330
0 20 4 -3.5918 -0.0443
0 20 5 -0.6744 0.0625
0 20 6 3.1972 -0.0175
0 20 7 0.6895 0.0119
0 20 8 -0.5390 0.0370
0 20 9 -0.6618 -0.0132
0 20 10 -0.5427 0.0020
0 20 11 0.0496 -0.0192
0 20 12 -0.1178 0.0035
0 20 13 -3.1872 -0.0082
0 20 14 2.5098 0.0043
0 20 15 3.6628 0.0022
0 20 16 -2.1734 -0.0018
0 20 17 -3.0617 -0.0104
0 20 18 1.6048 -0.0049
0 20 19 1.3183 -0.0126
0 20 20 -0.1222 0.0047
0 20 21 -1.5859 0.0244
0 20 22 1.2998 -0.0246
0 20 23 0.1695 -0.0187
0 21 0 0.2525 -0.1407
0 21 1 -0.9454 -0.0843
0 21 2 -0.7834 0.0602
0 21 3 1.3895 -0.0602
0 21 4 0.5336 0.0917
0 21 5 0.6587 0.0147
0 21 6 -0.2101 -0.0269
0 21 7 -2.5280 0.0279
0 21 8 0.9589 -0.0374
0 21 9 2.3722 -0.0188
0 21 10 -0.9380 0.0043
0 21 11 -1.4101 0.0136
0 21 12 0.9509 0.0312
0 21 13 1.3037 -0.0236
0 21 14 1.9689 0.0083
0 21 15 -3.2244 -0.0106
0 21 16 -1.5347 -0.0037
0 21 17 3.4721 -0.0014
0 21 18 0.5887 0.0150
0 21 19 -4.2595 0.0281
0 21 20 -0.4923 0.0590
0 21 21 2.2053 -0.0557
0 21 22 1.8294 -0.0761
0 22 0 -0.6395 -0.2036
0 22 1 0.2510 0.1299
0 22 2 1.3662 0.0802
0 22 3 -0.1988 0.0008
0 22 4 -3.8972 0.0585
0 22 5 -1.1627 -0.0921
0 22 6 3.8379 0.0127
0 22 7 2.6878 -0.0101
0 22 8 -0.3590 -0.0139
0 22 9 -3.2758 0.0206
0 22 10 -1.7349 0.0091
0 22 11 2.9600 0.0122
0 22 12 1.1313 -0.0113
0 22 13 -2.5819 -0.0135
0 22 14 -0.5472 0.0084
0 22 15 -0.0708 -0.0204
0 22 16 2.2350 0.0073
0 22 17 -0.4288 -0.0106
0 22 18 -3.0047 0.0394
0 22 19 0.3536 -0.0186
0 22 20 4.0724 -0.0655
0 22 21 0.9586 -0.0519
0 23 0 -0.4612 0.0999
0 23 1 1.9855 0.2223
0 23 2 -0.1181 -0.0651
0 23 3 -1.5350 -0.0277
0 23 4 -0.0310 -0.0307
0 23 5 4.0372 -0.0541
0 23 6 1.9540 0.0414
0 23 7 -5.3163 -0.0198
0 23 8 -1.9293 0.0352
0 23 9 2.2949 -0.0081
0 23 10 1.2234 0.0082
0 23 11 -0.0634 0.0004
0 23 12 -1.7565 -0.0012
0 23 13 0.8488 -0.0138
0 23 14 1.5628 -0.0109
0 23 15 -1.7517 0.0197
0 23 16 1.2757 0.0174
0 23 17 0.1318 -0.0051
0 23 18 -1.1230 -0.0028
0 23 19 0.5300 -0.0276
0 23 20 1.2488 0.0930
0 24 0 4.2144 0.3780
0 24 1 0.3961 -0.0849
0 24 2 -2.4833 -0.1365
0 24 3 -0.5400 -0.0013
0 24 4 -0.4180 -0.0361
0 24 5 0.6949 0.0375
0 24 6 -0.5776 0.0287
0 24 7 -1.6766 0.0088
0 24 8 2.5977 0.0219
0 24 9 -1.2391 -0.0330
0 24 10 -1.0431 0.0128
0 24 11 2.2704 -0.0392
0 24 12 0.2369 0.0216
0 24 13 -0.6490 0.0016
0 24 14 -2.2615 0.0042
0 24 15 1.0809 -0.0210
0 24 16 3.9636 -0.0409
0 24 17 -3.3193 0.0131
0 24 18 -2.0676 0.0473
0 24 19 1.8120 0.0243
0 25 0 0.5200 -0.0312
0 25 1 -3.8418 -0.3248
0 25 2 0.3956 0.0834
0 25 3 1.5169 -0.0053
0 25 4 0.4565 0.0400
0 25 5 1.1597 0.0350
0 25 6 -1.3579 -0.0368
0 25 7 -1.2697 0.0169
0 25 8 2.0910 -0.0294
0 25 9 0.3244 -0.0258
0 25 10 2.0488 0.0008
0 25 11 -1.6746 -0.0067
0 25 12 -2.9987 0.0564
0 25 13 0.9706 -0.0363
0 25 14 1.7799 0.0182
0 25 15 2.1948 -0.0033
0 25 16 -2.0642 0.0391
0 25 17 -3.9449 0.0740
0 25 18 2.2966 -0.0367
0 26 0 0.3085 -0.2568
0 26 1 0.1685 0.0527
0 26 2 1.5163 0.1598
0 26 3 -1.0081 -0.0523
0 26 4 -1.2468 0.0735
0 26 5 -0.3422 -0.0637
0 26 6 0.6715 0.0027
0 26 7 1.4295 0.0189
0 26 8 0.7966 -0.0139
0 26 9 -2.0402 0.0419
0 26 10 -1.2798 0.0130
0 26 11 -1.6489 0.0089
0 26 12 2.6071 0.0337
0 26 13 2.1963 -0.0030
0 26 14 -1.5420 -0.0219
0 26 15 -1.3926 -0.1047
0 26 16 -0.7466 0.0416
0 27 0 -0.4658 0.0342
0 27 1 -0.9497 0.1796
0 27 2 0.0027 -0.0341
0 27 3 -0.2107 -0.0547
0 27 4 0.2726 -0.0141
0 27 5 1.0436 -0.0402
0 27 6 -0.0908 0.0589
0 27 7 -0.7064 0.0119
0 27 8 0.5069 0.0147
0 27 9 -0.9751 -0.0443
0 27 10 0.0390 -0.0543
0 27 11 0.4500 -0.0049
0 27 12 1.5375 0.0124
0 27 13 -1.3784 -0.0645
0 28 6 0.0585 -0.0004
0 28 7 1.1544 -0.0257
1 -27 0 1.2440 -0.0425
1 -26 0 0.4902 -0.0294
1 -26 1 0.1456 0.0030
1 -26 2 1.2924 0.0871
1 -26 3 -1.3851 -0.0884
1 -25 0 -0.7146 -0.0015
1 -25 1 0.1879 -0.0350
1 -25 2 -1.3759 0.0073
1 -25 3 -2.2585 -0.0676
1 -25 4 2.6239 0.0802
1 -25 5 1.5332 0.0585
1 -25 6 -0.7616 -0.1029
1 -24 0 -0.2953 -0.2275
1 -24 1 1.2052 -0.0238
1 -24 2 -0.6460 0.0556
1 -24 3 1.7658 0.0144
1 -24 4 1.2979 0.0792
1 -24 5 -2.3845 -0.0505
1 -24 6 -0.0479 -0.0549
1 -24 7 0.1868 0.0586
1 -24 8 0.5129 -0.0618
1 -23 0 1.1204 -0.0521
1 -23 1 -0.5276 0.2149
1 -23 2 -0.0521 0.0276
1 -23 3 0.2578 0.0002
1 -23 4 -1.3984 -0.0190
1 -23 5 0.4429 -0.0756
1 -23 6 0.9039 0.0210
1 -23 7 -1.3978 0.0520
1 -23 8 0.4154 -0.0324
1 -23 9 0.1128 0.0478
1 -23 10 -0.0926 -0.0063
1 -22 0 -2.5104 0.2333
1 -22 1 1.0678 0.0576
1 -22 2 1.4188 -0.0850
1 -22 3 -1.6725 -0.0237
1 -22 4 -0.3081 -0.0334
1 -22 5 0.2108 0.0157
1 -22 6 -0.6417 0.0324
1 -22 7 0.2591 -0.0224
1 -22 8 0.9113 -0.0443
1 -22 9 -0.4217 0.0146
1 -22 10 -0.1609 -0.0429
1 -22 11 0.0158 0.0569
1 -21 0 0.9700 0.1571
1 -21 1 2.0996 -0.1482
1 -21 2 -2.5741 -0.0588
1 -21 3 -1.4201 -0.0211
1 -21 4 1.4337 0.0324
1 -21 5 0.6426 0.0354
1 -21 6 1.2327 -0.0194
1 -21 7 -0.7755 -0.0069
1 -21 8 0.2641 0.0182
1 -21 9 1.1376 0.0174
1 -21 10 -0.7920 0.0194
1 -21 11 -0.4773 0.0750
1 -21 12 0.3178 -0.0754
1 -21 13 -0.2558 -0.0179
1 -20 0 0.2693 -0.1286
1 -20 1 -0.2498 -0.1384
1 -20 2 0.5319 0.0414
1 -20 3 1.3555 0.0319
1 -20 4 -0.4588 0.0739
1 -20 5 0.5136 -0.0443
1 -20 6 -0.3855 -0.0397
1 -20 7 -2.1146 0.0168
1 -20 8 1.5436 -0.0048
1 -20 9 -0.9364 0.0022
1 -20 10 -1.7812 0.0249
1 -20 11 1.1463 -0.0156
1 -20 12 0.3052 -0.0847
1 -20 13 0.2918 0.0066
1 -20 14 0.4590 0.0037
1 -19 0 -0.7364 -0.2082
1 -19 1 0.2960 0.0451
1 -19 2 -0.8651 0.0797
1 -19 3 -2.9801 0.0466
1 -19 4 0.7080 -0.0067
1 -19 5 1.9668 -0.0708
1 -19 6 -0.7004 0.0507
1 -19 7 -0.2021 0.0136
1 -19 8 1.3231 -0.0054
1 -19 9 -0.5248 0.0209
1 -19 10 0.0025 -0.0130
1 -19 11 0.6985 -0.0294
1 -19 12 0.6908 -0.0054
1 -19 13 -0.3729 0.0405
1 -19 14 -1.8998 0.0225
1 -19 15 0.1424 0.0313
1 -18 0 -0.9566 0.1260
1 -18 1 1.6120 0.1689
1 -18 2 0.2436 0.0176
1 -18 3 1.9380 -0.0237
1 -18 4 2.2126 -0.0710
1 -18 5 -1.0105 0.0201
1 -18 6 -1.3971 0.0210
1 -18 7 -2.5776 -0.0363
1 -18 8 0.4483 0.0149
1 -18 9 0.9653 -0.0146
1 -18 10 -0.2139 -0.0127
1 -18 11 1.2627 0.0168
1 -18 12 -0.8353 0.0086
1 -18 13 -1.2983 -0.0106
1 -18 14 2.0754 -0.0114
1 -18 15 1.0018 0.0096
1 -18 16 -1.4668 -0.0145
1 -17 0 2.8384 0.1594
1 -17 1 0.4082 -0.1517
1 -17 2 -0.2838 -0.0608
1 -17 3 -0.9496 -0.0490
1 -17 4 -2.5550 0.0146
1 -17 5 -0.3020 0.0478
1 -17 6 -0.3029 -0.0411
1 -17 7 0.5576 0.0107
1 -17 8 5.3747 -0.0068
1 -17 9 -0.5222 -0.0016
1 -17 10 -1.8081 0.0178
1 -17 11 -0.1118 0.0093
1 -17 12 -1.6773 -0.0002
1 -17 13 1.4135 -0.0199
1 -17 14 -0.6708 0.0149
1 -17 15 -2.5438 0.0090
1 -17 16 1.8668 0.0154
1 -17 17 1.3376 -0.0065
1 -16 0 -2.0955 -0.4037
1 -16 1 -0.7585 -0.0707
1 -16 2 -0.0750 0.1145
1 -16 3 -1.4337 -0.0016
1 -16 4 0.3289 0.0856
1 -16 5 2.2251 -0.0370
1 -16 6 0.0389 -0.0205
1 -16 7 0.6723 0.0187
1 -16 8 -0.8872 -0.0133
1 -16 9 -4.0562 0.0313
1 -16 10 0.7267 -0.0118
1 -16 11 0.0218 0.0211
1 -16 12 0.1489 -0.0317
1 -16 13 2.3851 -0.0203
1 -16 14 -0.0266 0.0270
1 -16 15 1.0723 -0.0103
1 -16 16 -0.0147 0.0118
1 -16 17 -2.1753 -0.0559
1 -16 18 0.4005 0.0001
1 -15 0 -1.1474 -0.0581
1 -15 1 0.2129 0.4342
1 -15 2 0.5946 0.0088
1 -15 3 0.5984 0.0069
1 -15 4 1.9859 -0.0101
1 -15 5 0.2483 -0.1053
1 -15 6 -2.5723 0.0297
1 -15 7 -1.1281 -0.0117
1 -15 8 0.4105 0.0248
1 -15 9 1.6860 0.0155
1 -15 10 1.7067 -0.0066
1 -15 11 -0.0894 0.0075
1 -15 12 1.0950 -0.0439
1 -15 13 -0.7490 0.0340
1 -15 14 -2.9820 -0.0100
1 -15 15 -1.3442 -0.0009
1 -15 16 0.5895 0.0400
1 -15 17 2.6562 -0.0204
1 -15 18 0.5959 0.0359
1 -15 19 -1.9438 -0.0111
1 -14 0 -1.2632 0.5879
1 -14 1 2.0125 -0.0026
1 -14 2 -0.0983 -0.2752
1 -14 3 -2.0469 0.0043
1 -14 4 -1.3329 -0.1174
1 -14 5 -2.1478 0.0294
1 -14 6 -0.5542 0.0610
1 -14 7 3.0918 0.0035
1 -14 8 2.6923 0.0324
1 -14 9 -0.3302 -0.0323
1 -14 10 -2.4336 -0.0062
1 -14 11 -2.1486 -0.0218
1 -14 12 -1.0711 0.0012
1 -14 13 0.9716 0.0158
1 -14 14 2.2342 -0.0224
1 -14 15 1.0127 0.0345
1 -14 16 0.5987 -0.0082
1 -14 17 -0.2176 -0.0361
1 -14 18 -2.7011 0.0004
1 -14 19 -0.5471 -0.0175
1 -14 20 2.0769 0.0204
1 -13 0 -1.1583 -0.0310
1 -13 1 -1.5068 -0.4992
1 -13 2 -1.5808 0.0262
1 -13 3 1.2707 0.0419
1 -13 4 2.6975 0.0136
1 -13 5 0.4026 0.1235
1 -13 6 0.2662 -0.0244
1 -13 7 0.9816 0.0082
1 -13 8 -0.9686 -0.0181
1 -13 9 -3.2074 -0.0175
1 -13 10 -0.9693 0.0042
1 -13 11 3.3554 -0.0034
1 -13 12 3.2528 0.0272
1 -13 13 0.1482 -0.0210
1 -13 14 -3.6630 0.0028
1 -13 15 -2.3075 0.0183
1 -13 16 2.1135 -0.0024
1 -13 17 1.2893 -0.0046
1 -13 18 -1.5477 -0.0035
1 -13 19 0.3258 -0.0006
1 -13 20 1.0818 0.0111
1 -13 21 -0.6952 0.0120
1 -12 0 -1.1834 -0.4329
1 -12 1 2.3337 0.0616
1 -12 2 1.3943 0.2535
1 -12 3 -0.5850 0.0001
1 -12 4 -1.2120 0.0917
1 -12 5 -2.1632 -0.0272
1 -12 6 0.9703 -0.0562
1 -12 7 2.8813 -0.0071
1 -12 8 -0.4363 -0.0371
1 -12 9 -1.6497 0.0166
1 -12 10 1.2243 -0.0040
1 -12 11 0.1791 0.0245
1 -12 12 -3.5197 -0.0051
1 -12 13 -1.1611 -0.0225
1 -12 14 2.4123 0.0254
1 -12 15 2.8774 -0.0114
1 -12 16 0.8970 0.0000
1 -12 17 -2.4234 0.0025
1 -12 18 -2.7640 0.0160
1 -12 19 1.3956 -0.0040
1 -12 20 1.9975 0.0178
1 -12 21 -0.3787 0.0097
1 -11 0 1.3033 0.0514
1 -11 1 1.1173 0.2365
1 -11 2 0.1983 -0.0378
1 -11 3 2.0623 -0.0531
1 -11 4 1.3729 -0.0280
1 -11 5 -1.1166 -0.0856
1 -11 6 0.4290 0.0002
1 -11 7 -1.4663 0.0019
1 -11 8 -3.0121 0.0441
1 -11 9 -0.6121 0.0216
1 -11 10 1.2551 -0.0031
1 -11 11 2.4414 0.0106
1 -11 12 2.6373 -0.0324
1 -11 13 1.1384 0.0128
1 -11 14 -3.0321 -0.0006
1 -11 15 -2.9655 -0.0079
1 -11 16 0.4758 0.0358
1 -11 17 0.2669 -0.0129
1 -11 18 0.9722 -0.0255
1 -11 19 2.2606 -0.0280
1 -11 20 -0.4533 0.0063
1 -11 21 -1.5691 -0.0312
1 -11 22 -0.5090 -0.0074
1 -10 0 8.8077 -0.0556
1 -10 1 5.9153 -0.0270
1 -10 2 -1.6698 -0.0673
1 -10 3 -5.8770 -0.0094
1 -10 4 -4.2475 -0.0054
1 -10 5 0.8192 0.0075
1 -10 6 3.0609 0.0309
1 -10 7 0.7625 0.0377
1 -10 8 1.1076 0.0053
1 -10 9 0.8511 -0.0322
1 -10 10 1.5254 0.0040
1 -10 11 -0.3139 -0.0260
1 -10 12 -5.5724 -0.0054
1 -10 13 -2.8680 0.0139
1 -10 14 2.8354 -0.0184
1 -10 15 4.4642 0.0219
1 -10 16 0.9246 0.0033
1 -10 17 -1.9287 -0.0189
1 -10 18 -0.9207 0.0032
1 -10 19 -1.0342 -0.0124
1 -10 20 -0.2399 0.0181
1 -10 21 0.5388 0.0214
1 -10 22 -0.1839 0.0499
1 -10 23 0.5277 0.0220
1 -9 0 7.4812 -0.0317
1 -9 1 -12.4338 0.1561
1 -9 2 -9.7889 -0.0022
1 -9 3 4.3103 0.0401
1 -9 4 9.4248 0.0040
1 -9 5 2.9549 -0.0096
1 -9 6 -3.6495 0.0322
1 -9 7 -3.7816 -0.0121
1 -9 8 -1.0668 -0.0322
1 -9 9 0.6703 0.0059
1 -9 10 0.5850 -0.0141
1 -9 11 -1.9785 -0.0061
1 -9 12 1.8633 0.0365
1 -9 13 5.3276 -0.0076
1 -9 14 -0.8796 0.0068
1 -9 15 -4.4451 0.0165
1 -9 16 -2.0912 -0.0060
1 -9 17 0.8435 0.0019
1 -9 18 0.9725 -0.0151
1 -9 19 0.9711 -0.0006
1 -9 20 1.6824 0.0215
1 -9 21 -0.1910 0.0047
1 -9 22 -0.6250 0.0101
1 -9 23 -0.0931 -0.0378
1 -8 0 -6.7331 0.4061
1 -8 1 -8.4623 0.0126
1 -8 2 9.3255 -0.1040
1 -8 3 8.4238 -0.0184
1 -8 4 -4.3517 -0.0813
1 -8 5 -8.7080 0.0294
1 -8 6 -1.4369 -0.0027
1 -8 7 2.6801 -0.0330
1 -8 8 3.5959 0.0259
1 -8 9 3.2062 0.0101
1 -8 10 -1.4383 -0.0010
1 -8 11 -1.4113 0.0247
1 -8 12 0.0298 -0.0069
1 -8 13 -3.5065 -0.0193
1 -8 14 -1.0444 0.0062
1 -8 15 3.6042 -0.0042
1 -8 16 2.0966 0.0022
1 -8 17 -0.1003 -0.0077
1 -8 18 -0.5476 -0.0135
1 -8 19 -0.1637 -0.0168
1 -8 20 -0.3336 0.0024
1 -8 21 -1.2929 0.0311
1 -8 22 -1.2968 0.0035
1 -8 23 0.1662 -0.0312
1 -8 24 1.3206 -0.0153
1 -7 0 -7.4961 0.0732
1 -7 1 -5.5458 -0.3082
1 -7 2 6.4815 -0.0110
1 -7 3 1.3271 -0.0357
1 -7 4 -5.6009 0.0385
1 -7 5 0.4514 0.0657
1 -7 6 5.1645 -0.0275
1 -7 7 -0.2301 0.0418
1 -7 8 0.6833 0.0162
1 -7 9 -0.6070 -0.0229
1 -7 10 -4.7271 -0.0101
1 -7 11 -0.7275 -0.0097
1 -7 12 1.4860 -0.0133
1 -7 13 2.4212 0.0012
1 -7 14 2.4992 0.0068
1 -7 15 -2.3188 0.0064
1 -7 16 -2.3569 0.0018
1 -7 17 0.5614 0.0007
1 -7 18 0.3162 -0.0099
1 -7 19 -0.4862 0.0020
1 -7 20 0.0136 0.0385
1 -7 21 -0.1087 -0.0037
1 -7 22 0.4805 -0.0118
1 -7 23 1.4543 -0.0182
1 -7 24 0.3064 -0.0400
1 -6 0 -13.8201 -0.3032
1 -6 1 -11.3926 -0.1065
1 -6 2 12.0326 0.0909
1 -6 3 -0.3877 0.0223
1 -6 4 -8.2185 0.1068
1 -6 5 1.2483 -0.0376
1 -6 6 0.3899 0.0018
1 -6 7 -1.3772 0.0186
1 -6 8 4.6843 -0.0438
1 -6 9 -0.8394 -0.0159
1 -6 10 -4.1151 -0.0005
1 -6 11 2.1632 -0.0001
1 -6 12 1.9668 0.0022
1 -6 13 -0.2507 0.0213
1 -6 14 -0.7113 0.0132
1 -6 15 -1.3287 0.0032
1 -6 16 0.4970 -0.0018
1 -6 17 0.7738 -0.0161
1 -6 18 0.1176 -0.0233
1 -6 19 0.0410 0.0117
1 -6 20 0.4282 0.0085
1 -6 21 -0.2880 0.0101
1 -6 22 -0.5225 0.0156
1 -6 23 0.3254 -0.0283
1 -6 24 0.5542 0.0157
1 -6 25 -0.7549 0.0553
1 -5 0 -69.1767 -0.1855
1 -5 1 7.6789 0.1806
1 -5 2 36.4784 0.1050
1 -5 3 -5.8030 0.0573
1 -5 4 -7.2061 -0.0472
1 -5 5 4.1239 -0.0778
1 -5 6 2.0966 0.0452
1 -5 7 2.3762 -0.0408
1 -5 8 -1.5371 -0.0166
1 -5 9 -8.4195 0.0134
1 -5 10 0.5730 0.0118
1 -5 11 6.6859 0.0061
1 -5 12 0.0406 0.0223
1 -5 13 -0.8341 0.0130
1 -5 14 -1.3968 -0.0192
1 -5 15 -2.5585 -0.0084
1 -5 16 2.8421 -0.0158
1 -5 17 2.5386 -0.0061
1 -5 18 -1.2253 0.0110
1 -5 19 -1.9775 0.0122
1 -5 20 -0.3819 0.0119
1 -5 21 -0.2651 0.0024
1 -5 22 0.7596 -0.0263
1 -5 23 1.9386 -0.0100
1 -5 24 -0.7723 -0.0375
1 -5 25 -1.8872 -0.0179
1 -4 0 3.3304 0.1449
1 -4 1 83.6278 0.1225
1 -4 2 -2.1872 -0.0447
1 -4 3 -43.2831 -0.0633
1 -4 4 -3.4590 -0.0918
1 -4 5 4.9680 0.0672
1 -4 6 1.2182 0.0164
1 -4 7 0.3984 -0.0291
1 -4 8 0.0412 0.0382
1 -4 9 4.0463 -0.0040
1 -4 10 5.5079 0.0023
1 -4 11 -3.7561 -0.0101
1 -4 12 -5.7498 0.0070
1 -4 13 0.7916 -0.0181
1 -4 14 0.6191 -0.0115
1 -4 15 2.2396 0.0012
1 -4 16 1.7514 -0.0103
1 -4 17 -4.3343 0.0070
1 -4 18 -1.3111 0.0023
1 -4 19 1.6608 0.0171
1 -4 20 1.2988 0.0153
1 -4 21 0.1779 -0.0224
1 -4 22 0.8483 -0.0041
1 -4 23 -0.5403 -0.0045
1 -4 24 -2.2409 -0.0077
1 -4 25 0.5464 0.0867
1 -4 26 0.9389 -0.0066
1 -3 0 31.4522 0.1531
1 -3 1 8.4576 -0.1220
1 -3 2 -49.3111 -0.0618
1 -3 3 1.4444 -0.0527
1 -3 4 22.6057 0.0398
1 -3 5 5.0135 0.0653
1 -3 6 4.9514 -0.0508
1 -3 7 -0.1518 0.0253
1 -3 8 -6.0495 -0.0162
1 -3 9 -8.0527 -0.0181
1 -3 10 -2.2685 0.0099
1 -3 11 2.4536 -0.0026
1 -3 12 3.6491 0.0223
1 -3 13 2.0468 -0.0102
1 -3 14 -0.9107 0.0123
1 -3 15 -1.0409 -0.0049
1 -3 16 -1.3131 0.0014
1 -3 17 1.3336 0.0191
1 -3 18 2.7526 0.0020
1 -3 19 -2.2777 0.0010
1 -3 20 -1.0476 -0.0175
1 -3 21 0.4670 -0.0154
1 -3 22 0.8532 0.0137
1 -3 23 -0.1237 0.0013
1 -3 24 -0.0084 0.0008
1 -3 25 0.3772 -0.0064
1 -3 26 -0.3038 -0.0304
1 -2 1 17.9430 -0.1042
1 -2 2 -21.6997 0.0969
1 -2 3 -3.2865 0.0537
1 -2 4 -1.6957 0.1054
1 -2 5 0.4454 -0.0437
1 -2 6 -2.0413 -0.0255
1 -2 7 -7.2815 0.0149
1 -2 8 -1.4469 -0.0313
1 -2 9 8.9743 0.0285
1 -2 10 10.5197 -0.0037
1 -2 11 -5.1252 0.0145
1 -2 12 -6.5214 -0.0013
1 -2 13 1.9900 -0.0117
1 -2 14 1.6290 0.0041
1 -2 15 -0.0134 -0.0245
1 -2 16 0.1242 0.0134
1 -2 17 -0.7381 -0.0056
1 -2 18 -2.3883 -0.0048
1 -2 19 0.1621 0.0128
1 -2 20 3.7538 -0.0020
1 -2 21 -0.0474 -0.0106
1 -2 22 -0.3987 -0.0001
1 -2 23 -1.5995 0.0011
1 -2 24 -2.1047 -0.0143
1 -2 25 0.4221 0.0149
1 -2 26 1.5583 0.0195
1 -1 3 22.8132 0.0111
1 -1 4 26.1822 -0.0541
1 -1 5 1.7704 -0.1087
1 -1 6 -4.4567 0.0388
1 -1 7 -0.8655 -0.0113
1 -1 8 -0.3383 0.0092
1 -1 9 -1.4493 0.0142
1 -1 10 -5.0497 -0.0032
1 -1 11 -2.1115 0.0128
1 -1 12 7.7690 -0.0253
1 -1 13 2.0180 0.0099
1 -1 14 -4.2337 -0.0187
1 -1 15 -2.1038 -0.0004
1 -1 16 -0.3897 0.0155
1 -1 17 0.6122 -0.0121
1 -1 18 1.8241 0.0174
1 -1 19 1.9573 -0.0079
1 -1 20 -1.8644 -0.0051
1 -1 21 -2.7599 -0.0049
1 -1 22 1.0626 0.0115
1 -1 23 -0.7789 0.0103
1 -1 24 1.7517 -0.0001
1 -1 25 2.8766 0.0255
1 -1 26 -1.1233 -0.0234
1 -1 27 -1.5615 0.0048
1 0 0 67.5110 0.6273
1 0 3 18.7651 -0.0059
1 0 4 -10.8726 -0.1338
1 0 5 -14.9167 0.0467
1 0 6 -3.5473 0.0537
1 0 7 -2.1338 -0.0111
1 0 8 2.6181 0.0305
1 0 9 8.9736 -0.0202
1 0 10 5.3233 0.0106
1 0 11 -5.1695 -0.0223
1 0 12 -7.3768 -0.0095
1 0 13 -0.9899 0.0165
1 0 14 3.9045 -0.0141
1 0 15 0.9902 0.0295
1 0 16 0.8310 -0.0041
1 0 17 0.9852 0.0121
1 0 18 -0.2135 0.0140
1 0 19 -1.1460 -0.0113
1 0 20 -1.4761 0.0002
1 0 21 1.4931 -0.0278
1 0 22 0.6944 0.0120
1 0 23 -0.8934 0.0066
1 0 24 1.4593 -0.0098
1 0 25 -1.4278 -0.0169
1 0 26 -1.3508 -0.0196
1 0 27 1.2209 0.0543
1 1 1 -115.6752 -0.5033
1 1 4 2.6397 0.0547
1 1 5 3.4734 0.1504
1 1 6 0.3341 -0.0322
1 1 7 1.8097 0.0149
1 1 8 5.9910 -0.0243
1 1 9 -1.6264 -0.0153
1 1 10 -12.5366 0.0121
1 1 11 -4.7447 -0.0238
1 1 12 11.3277 0.0388
1 1 13 7.1197 -0.0054
1 1 14 -4.3626 -0.0027
1 1 15 -3.2835 0.0103
1 1 16 1.3026 -0.0281
1 1 17 -1.4338 0.0066
1 1 18 -0.3201 -0.0229
1 1 19 0.4401 -0.0073
1 1 20 -0.3561 0.0035
1 1 21 0.7082 -0.0009
1 1 22 0.4206 0.0208
1 1 23 1.0335 0.0028
1 1 24 -0.2068 0.0175
1 1 25 -1.2524 0.0054
1 1 26 0.2441 -0.0052
1 1 27 -0.3427 0.0026
1 2 3 -2.4087 0.0059
1 2 4 -24.0017 0.1138
1 2 5 -3.4428 -0.0907
1 2 6 -10.5083 -0.0793
1 2 7 2.8408 -0.0114
1 2 8 2.6632 -0.0401
1 2 9 -5.8562 0.0371
1 2 10 1.0106 -0.0099
1 2 11 9.1242 0.0184
1 2 12 0.8205 0.0086
1 2 13 -6.4902 -0.0331
1 2 14 -1.0566 0.0204
1 2 15 2.4531 -0.0194
1 2 16 -1.5206 0.0025
1 2 17 -0.8219 0.0253
1 2 18 3.8727 -0.0031
1 2 19 -0.5143 0.0154
1 2 20 -1.3193 -0.0037
1 2 21 0.7922 0.0013
1 2 22 -0.7820 0.0061
1 2 23 -1.3184 0.0080
1 2 24 -0.6757 -0.0225
1 2 25 0.4837 -0.0541
1 2 26 0.4124 -0.0025
1 2 27 0.8004 0.0520
1 3 0 31.5221 0.0772
1 3 1 56.5816 0.1944
1 3 2 -32.4423 -0.0828
1 3 3 -34.6157 -0.0572
1 3 4 13.2500 -0.0478
1 3 5 -6.3402 -0.1169
1 3 6 0.1233 0.0474
1 3 7 15.2356 0.0133
1 3 8 -2.1884 0.0600
1 3 9 0.4188 0.0285
1 3 10 4.1621 -0.0082
1 3 11 -3.1800 0.0161
1 3 12 -2.9876 -0.0438
1 3 13 0.0397 0.0080
1 3 14 -0.9434 0.0035
1 3 15 -1.3777 -0.0104
1 3 16 1.0271 0.0286
1 3 17 4.4594 -0.0169
1 3 18 -0.5486 -0.0109
1 3 19 -5.1932 -0.0016
1 3 20 0.4367 -0.0001
1 3 21 1.1259 -0.0081
1 3 22 0.6844 -0.0181
1 3 23 1.9137 0.0038
1 3 24 0.0308 -0.0019
1 3 25 -0.6230 0.0363
1 3 26 0.1868 0.0257
1 3 27 -0.1532 -0.0093
1 4 0 2.5540 0.0425
1 4 1 -26.9399 -0.0268
1 4 2 -7.2420 -0.1150
1 4 3 18.4855 0.0101
1 4 4 -3.3725 -0.0182
1 4 5 -3.6050 0.0468
1 4 6 14.0679 0.0849
1 4 7 -5.5805 0.0213
1 4 8 -5.5252 0.0091
1 4 9 2.8271 -0.0605
1 4 10 -8.5014 -0.0116
1 4 11 -2.3856 -0.0388
1 4 12 4.5611 -0.0118
1 4 13 0.5181 0.0393
1 4 14 2.1404 -0.0049
1 4 15 2.2946 0.0203
1 4 16 -0.1966 -0.0048
1 4 17 -2.0554 -0.0166
1 4 18 -3.6816 0.0100
1 4 19 1.5223 -0.0023
1 4 20 4.1822 0.0100
1 4 21 0.1782 -0.0039
1 4 22 -0.6166 0.0179
1 4 23 -1.8325 0.0159
1 4 24 -1.7024 0.0068
1 4 25 1.0835 -0.0085
1 4 26 0.2774 -0.0500
1 4 27 -0.5249 0.0207
1 5 0 -32.0859 -0.0074
1 5 1 18.5848 -0.0302
1 5 2 11.6417 -0.0057
1 5 3 -11.1802 0.0953
1 5 4 0.8260 0.0088
1 5 5 5.0787 0.0373
1 5 6 -7.5781 -0.0149
1 5 7 -1.3439 -0.0574
1 5 8 10.1989 -0.0492
1 5 9 -6.1280 -0.0082
1 5 10 -2.6730 0.0167
1 5 11 11.4394 0.0037
1 5 12 0.7458 0.0560
1 5 13 -4.7636 0.0076
1 5 14 -1.3990 -0.0051
1 5 15 -1.9510 0.0020
1 5 16 1.1490 -0.0304
1 5 17 1.8252 -0.0024
1 5 18 0.0174 0.0133
1 5 19 1.1825 0.0053
1 5 20 -0.5535 0.0022
1 5 21 -2.5430 -0.0123
1 5 22 -0.2887 0.0005
1 5 23 0.5039 -0.0049
1 5 24 0.7451 -0.0077
1 5 25 0.8838 -0.0297
1 5 26 -0.6317 -0.0053
1 5 27 0.4551 0.0331
1 6 0 33.6772 0.0802
1 6 1 24.3318 -0.0006
1 6 2 -22.5615 0.0236
1 6 3 -2.3402 -0.0125
1 6 4 7.5432 -0.0599
1 6 5 -3.3994 0.0187
1 6 6 4.6570 -0.0421
1 6 7 4.4239 -0.0112
1 6 8 -9.1660 0.0286
1 6 9 -6.8512 0.0357
1 6 10 10.6299 0.0081
1 6 11 0.3596 0.0227
1 6 12 -9.4623 -0.0009
1 6 13 1.4003 -0.0296
1 6 14 4.7145 -0.0095
1 6 15 1.6919 -0.0305
1 6 16 -0.2326 -0.0035
1 6 17 -4.4279 0.0283
1 6 18 -1.9073 0.0103
1 6 19 3.2128 -0.0138
1 6 20 0.2028 0.0025
1 6 21 -1.0395 -0.0024
1 6 22 1.0012 -0.0031
1 6 23 -0.7558 -0.0247
1 6 24 1.0325 0.0016
1 6 25 0.8740 0.0313
1 6 26 -2.0567 0.0179
1 6 27 0.0181 0.0281
1 6 28 0.3867 0.0030
1 7 0 14.4477 -0.0164
1 7 1 -26.2917 -0.0845
1 7 2 -12.4609 -0.0039
1 7 3 13.3639 -0.0335
1 7 4 0.7480 0.0265
1 7 5 -2.5663 0.0201
1 7 6 -3.3733 -0.0270
1 7 7 -6.7949 0.0344
1 7 8 4.1815 0.0134
1 7 9 12.4083 -0.0064
1 7 10 0.5269 -0.0167
1 7 11 -11.3194 -0.0074
1 7 12 1.8900 -0.0321
1 7 13 5.2216 -0.0031
1 7 14 -3.0752 -0.0007
1 7 15 -2.3298 0.0119
1 7 16 0.8926 0.0290
1 7 17 1.4813 0.0052
1 7 18 2.7441 -0.0046
1 7 19 0.6551 -0.0077
1 7 20 -3.0003 -0.0037
1 7 21 -0.5185 -0.0102
1 7 22 0.4577 0.0131
1 7 23 0.6637 0.0026
1 7 24 1.8327 0.0407
1 7 25 -2.6081 0.0002
1 7 26 -0.7046 -0.0092
1 7 27 3.0306 -0.0046
1 8 0 -14.5305 -0.2404
1 8 1 -5.4929 0.0127
1 8 2 8.0811 0.0435
1 8 3 3.1540 0.0143
1 8 4 -3.0423 0.0478
1 8 5 0.3330 -0.0324
1 8 6 3.0589 0.0079
1 8 7 5.3392 0.0136
1 8 8 4.0315 -0.0280
1 8 9 -7.6470 -0.0078
1 8 10 -11.7523 0.0050
1 8 11 2.4643 0.0098
1 8 12 8.8551 0.0046
1 8 13 -0.8410 0.0276
1 8 14 -0.2278 0.0021
1 8 15 2.9942 0.0065
1 8 16 -0.7592 -0.0028
1 8 17 -5.6097 -0.0068
1 8 18 -1.6530 -0.0077
1 8 19 2.8137 -0.0126
1 8 20 -0.0462 0.0018
1 8 21 0.4142 0.0114
1 8 22 1.2386 -0.0019
1 8 23 0.3827 -0.0147
1 8 24 -0.9294 0.0254
1 8 25 -1.0429 -0.0112
1 8 26 1.2819 -0.0181
1 8 27 -0.8868 -0.0735
1 9 0 0.1212 -0.0109
1 9 1 -1.1587 0.2257
1 9 2 1.7041 0.0038
1 9 3 6.8048 0.0225
1 9 4 0.6300 -0.0440
1 9 5 -2.6664 -0.0424
1 9 6 -1.9801 0.0417
1 9 7 -4.6250 -0.0273
1 9 8 -2.4274 0.0025
1 9 9 0.2079 0.0247
1 9 10 6.3359 0.0065
1 9 11 6.3773 -0.0078
1 9 12 -1.6979 -0.0061
1 9 13 -4.4894 -0.0042
1 9 14 -2.1072 -0.0216
1 9 15 -1.8235 -0.0049
1 9 16 -1.8367 -0.0095
1 9 17 2.1264 -0.0028
1 9 18 7.9575 0.0073
1 9 19 0.9457 0.0046
1 9 20 -5.1213 0.0059
1 9 21 0.6078 0.0086
1 9 22 -0.2308 0.0002
1 9 23 -1.9398 -0.0010
1 9 24 0.3834 -0.0091
1 9 25 0.3618 -0.0246
1 9 26 -0.3727 0.0093
1 9 27 0.1619 0.0129
1 10 0 -1.0596 0.3192
1 10 1 0.3407 0.0135
1 10 2 8.8119 -0.1002
1 10 3 -1.2798 -0.0383
1 10 4 -10.9932 -0.0864
1 10 5 0.5697 0.0554
1 10 6 4.2629 0.0130
1 10 7 1.3704 -0.0246
1 10 8 4.9563 0.0368
1 10 9 -0.1509 -0.0110
1 10 10 -4.8903 -0.0147
1 10 11 -4.3153 -0.0159
1 10 12 0.4059 0.0011
1 10 13 1.3188 -0.0002
1 10 14 1.6276 0.0001
1 10 15 2.5950 0.0140
1 10 16 1.6025 0.0176
1 10 17 0.7107 0.0151
1 10 18 -2.5575 0.0038
1 10 19 -5.8024 -0.0120
1 10 20 -0.8694 -0.0079
1 10 21 3.3073 -0.0163
1 10 22 -0.2595 -0.0108
1 10 23 0.7113 0.0141
1 10 24 2.0760 0.0198
1 10 25 -0.2305 0.0280
1 10 26 -1.2035 -0.0072
1 10 27 -0.1481 -0.0562
1 11 0 -4.7179 0.0471
1 11 1 1.6508 -0.2562
1 11 2 1.0824 -0.0443
1 11 3 -6.4100 -0.0490
1 11 4 1.1099 0.0609
1 11 5 5.8878 0.0810
1 11 6 -3.6909 -0.0292
1 11 7 -3.1886 0.0314
1 11 8 1.8302 -0.0011
1 11 9 -3.0579 -0.0317
1 11 10 0.8052 -0.0039
1 11 11 6.0585 0.0033
1 11 12 2.6380 0.0227
1 11 13 -3.8115 0.0057
1 11 14 -1.6360 0.0165
1 11 15 -0.2154 0.0026
1 11 16 -1.3862 -0.0084
1 11 17 -1.4209 -0.0152
1 11 18 0.1215 -0.0113
1 11 19 1.6639 -0.0120
1 11 20 2.4707 0.0052
1 11 21 2.3259 0.0096
1 11 22 -1.7970 0.0333
1 11 23 -1.0845 0.0009
1 11 24 0.1236 -0.0301
1 11 25 -1.3004 -0.0112
1 11 26 -0.3844 -0.0356
1 11 27 1.7485 0.0130
1 12 0 -3.5339 -0.3237
1 12 1 5.8783 -0.0336
1 12 2 -0.7039 0.1094
1 12 3 -2.7861 0.0682
1 12 4 -0.0649 0.1070
1 12 5 -0.1656 -0.0523
1 12 6 0.9113 -0.0030
1 12 7 6.3244 0.0068
1 12 8 1.8872 -0.0454
1 12 9 -5.4587 0.0018
1 12 10 -0.3015 0.0070
1 12 11 -1.0183 0.0162
1 12 12 -3.2305 -0.0004
1 12 13 0.6798 -0.0014
1 12 14 3.0164 -0.0066
1 12 15 -0.9787 -0.0315
1 12 16 0.1878 0.0004
1 12 17 1.4433 -0.0059
1 12 18 0.9852 0.0019
1 12 19 -0.2853 0.0106
1 12 20 -0.3101 0.0074
1 12 21 -0.1679 -0.0073
1 12 22 -2.8710 0.0125
1 12 23 0.6415 -0.0156
1 12 24 1.9771 0.0074
1 12 25 0.2787 -0.0093
1 12 26 -0.4893 -0.0175
1 12 27 -0.9881 0.0674
1 13 0 3.7495 -0.0344
1 13 2 -2.9960 0.0297
1 13 3 -0.1883 0.0388
1 13 4 1.5819 -0.0686
1 13 5 2.3235 -0.0743
1 13 6 0.3130 0.0236
1 13 7 -2.2877 -0.0500
1 13 8 -6.6814 -0.0000
1 13 9 -1.3416 0.0063
1 13 10 6.1258 0.0024
1 13 11 2.3423 0.0132
1 13 12 1.7812 -0.0106
1 13 13 -0.9374 0.0086
1 13 14 -3.9658 -0.0159
1 13 15 0.3883 0.0043
1 13 16 4.1001 0.0185
1 13 17 -0.6343 0.0037
1 13 18 -1.1250 0.0194
1 13 19 -1.5535 0.0005
1 13 20 -0.4058 -0.0020
1 13 21 0.4221 -0.0007
1 13 22 -1.1015 -0.0077
1 13 23 1.9572 -0.0196
1 13 24 -0.0985 0.0218
1 13 25 -2.0407 -0.0166
1 13 26 -0.5830 0.0343
1 13 27 1.3451 0.0231
1 14 0 -0.0522 0.2294
1 14 1 1.7206 -0.0062
1 14 2 -2.9510 -0.0745
1 14 3 -2.3201 -0.0509
1 14 4 0.5089 -0.0970
1 14 5 2.0363 0.0587
1 14 6 -0.2561 0.0201
1 14 7 -0.3090 0.0079
1 14 8 -0.1057 0.0375
1 14 9 3.0319 -0.0048
1 14 10 1.2242 0.0264
1 14 11 -3.0252 -0.0096
1 14 12 -3.1367 0.0003
1 14 13 -1.1122 0.0145
1 14 14 4.1220 -0.0134
1 14 15 2.5750 0.0083
1 14 16 -2.6066 -0.0101
1 14 17 -3.2500 -0.0002
1 14 18 -0.2015 -0.0101
1 14 19 -0.1505 -0.0077
1 14 20 2.4476 -0.0002
1 14 21 0.4363 -0.0100
1 14 22 -0.3877 0.0104
1 14 23 0.7743 0.0330
1 14 24 -1.1228 -0.0040
1 14 25 1.9423 -0.0728
1 14 26 1.1968 0.0226
1 15 0 1.5379 -0.0142
1 15 1 -3.0050 -0.1609
1 15 2 -3.6449 0.0166
1 15 3 5.3115 -0.0039
1 15 4 4.0833 0.0743
1 15 5 -1.8349 0.0730
1 15 6 -2.3892 -0.0347
1 15 7 -0.2030 0.0130
1 15 8 -2.0155 -0.0263
1 15 9 1.3239 -0.0101
1 15 10 1.6960 -0.0030
1 15 11 -1.4489 -0.0146
1 15 12 0.4242 0.0185
1 15 13 3.5663 -0.0192
1 15 14 -2.1144 0.0006
1 15 15 -4.6061 -0.0053
1 15 16 1.7359 -0.0139
1 15 17 2.2300 0.0225
1 15 18 1.0951 -0.0073
1 15 19 0.2327 0.0152
1 15 20 -0.2681 0.0010
1 15 21 -1.0279 -0.0062
1 15 22 1.0313 -0.0194
1 15 23 -0.3089 0.0000
1 15 24 0.3061 0.0006
1 15 25 0.0214 0.0106
1 15 26 -3.0842 0.0638
1 16 0 0.5634 -0.1339
1 16 1 -0.5375 0.0362
1 16 2 2.5999 0.0870
1 16 3 0.8311 0.0016
1 16 4 -5.0323 0.0501
1 16 5 -1.0664 -0.0652
1 16 6 2.3015 -0.0421
1 16 7 -0.3283 -0.0035
1 16 8 -1.0149 -0.0214
1 16 9 3.2600 0.0226
1 16 10 -0.3447 0.0007
1 16 11 -1.8820 0.0192
1 16 12 1.1071 -0.0068
1 16 13 -1.3855 -0.0054
1 16 14 -3.5218 0.0095
1 16 15 4.8819 -0.0391
1 16 16 3.0573 0.0253
1 16 17 -3.5652 0.0124
1 16 18 -0.6841 -0.0085
1 16 19 -0.2321 0.0196
1 16 20 1.2224 -0.0270
1 16 21 0.8936 0.0012
1 16 22 -1.2373 0.0043
1 16 23 -1.7052 0.0464
1 16 24 0.2670 -0.0146
1 16 25 -0.8648 -0.0441
1 17 0 0.1393 0.0181
1 17 1 -1.8138 0.0965
1 17 2 -0.4035 -0.0295
1 17 3 1.0960 -0.0287
1 17 4 1.6555 -0.0351
1 17 5 0.9843 -0.0885
1 17 6 -1.4321 0.0419
1 17 7 -0.0708 0.0215
1 17 8 1.4045 0.0361
1 17 9 2.0486 0.0168
1 17 10 -1.2143 -0.0091
1 17 11 -1.6934 -0.0035
1 17 12 -1.1398 -0.0298
1 17 13 -0.3964 0.0122
1 17 14 2.6576 -0.0008
1 17 15 3.3218 0.0076
1 17 16 -4.3028 0.0347
1 17 17 -0.1377 -0.0113
1 17 18 2.4094 0.0086
1 17 19 -1.9353 -0.0308
1 17 20 -0.8020 0.0001
1 17 21 -2.4953 0.0246
1 17 22 0.5183 -0.0224
1 17 23 2.8496 0.0342
1 17 24 0.6208 -0.0346
1 17 25 -0.2950 -0.0058
1 18 0 0.5282 0.0945
1 18 1 0.8251 -0.0291
1 18 2 2.6872 -0.0800
1 18 3 -0.2203 0.0129
1 18 4 -4.2591 -0.0093
1 18 5 -1.9051 0.0663
1 18 6 2.2706 0.0867
1 18 7 2.4317 -0.0114
1 18 8 -0.7796 0.0057
1 18 9 -1.2631 -0.0569
1 18 10 -3.5460 -0.0013
1 18 11 -0.3326 -0.0039
1 18 12 2.6747 0.0064
1 18 13 1.6660 0.0275
1 18 14 0.3693 -0.0035
1 18 15 -1.0316 -0.0019
1 18 16 -2.6433 -0.0125
1 18 17 1.3381 -0.0178
1 18 18 -2.7567 -0.0114
1 18 19 -0.0921 0.0016
1 18 20 2.7740 0.0396
1 18 21 1.1122 -0.0295
1 18 22 4.6255 -0.0086
1 18 23 -1.4152 -0.0221
1 18 24 -3.7142 -0.0471
1 18 25 -0.1170 0.0748
1 19 0 -1.2782 0.0167
1 19 1 -0.0902 -0.0669
1 19 2 -1.1023 0.0397
1 19 3 -1.9909 0.0531
1 19 4 0.5753 0.0037
1 19 5 4.2303 0.0370
1 19 6 1.6202 -0.0521
1 19 7 -2.1945 -0.0452
1 19 8 -3.0964 -0.0324
1 19 9 0.1289 -0.0223
1 19 10 1.4254 0.0413
1 19 11 3.3677 -0.0184
1 19 12 -0.0401 0.0215
1 19 13 -1.3535 -0.0077
1 19 14 0.0425 0.0043
1 19 15 -0.6691 -0.0163
1 19 16 -1.4626 -0.0206
1 19 17 2.4456 0.0127
1 19 18 1.2177 0.0187
1 19 19 2.0009 0.0089
1 19 20 -1.9528 0.0050
1 19 21 0.2945 -0.0094
1 19 22 -0.3392 -0.0072
1 19 23 -6.1739 0.0185
1 19 24 1.1181 0.1143
1 20 0 2.6037 -0.0014
1 20 1 1.7908 -0.0084
1 20 2 0.9410 0.0555
1 20 3 -0.1454 -0.0267
1 20 4 -0.3067 -0.0109
1 20 5 -0.9916 -0.0105
1 20 6 -2.1640 -0.0437
1 20 7 0.3468 0.0038
1 20 8 1.9652 0.0053
1 20 9 1.9805 0.0410
1 20 10 -1.7586 0.0154
1 20 11 -0.6805 0.0144
1 20 12 -0.7761 0.0187
1 20 13 -0.0589 -0.0255
1 20 14 -0.4077 0.0125
1 20 15 -0.8695 -0.0308
1 20 16 0.6818 0.0298
1 20 17 2.6340 0.0099
1 20 18 -2.8242 0.0039
1 20 19 -1.6204 0.0118
1 20 20 -0.2180 -0.0109
1 20 21 1.7002 -0.0508
1 20 22 -1.7725 -0.0093
1 20 23 0.8809 0.0266
1 21 0 0.8289 -0.0249
1 21 1 -0.8471 0.0216
1 21 2 -3.2936 -0.0039
1 21 3 -2.6447 -0.0459
1 21 4 1.1523 -0.0009
1 21 5 2.8078 -0.0156
1 21 6 1.6775 0.0031
1 21 7 -0.7563 0.0275
1 21 8 -2.3672 0.0280
1 21 9 -1.1855 0.0047
1 21 10 -0.4641 -0.0227
1 21 11 2.9591 0.0014
1 21 12 -0.3015 -0.0337
1 21 13 -0.2089 -0.0075
1 21 14 0.4865 0.0062
1 21 15 0.1329 -0.0114
1 21 16 0.9562 0.0068
1 21 17 0.9042 -0.0183
1 21 18 -2.5438 0.0190
1 21 19 0.1943 -0.0365
1 21 20 0.0834 0.0117
1 21 21 2.6364 0.0291
1 21 22 0.0702 0.0253
1 21 23 -0.5198 0.0026
1 22 0 0.8839 -0.0793
1 22 1 -1.2538 0.0462
1 22 2 -0.2065 -0.0391
1 22 3 3.4281 0.0187
1 22 4 1.9080 0.0196
1 22 5 -2.0621 0.0092
1 22 6 -3.1566 0.0277
1 22 7 0.3393 0.0155
1 22 8 3.3370 -0.0093
1 22 9 0.7670 -0.0412
1 22 10 -1.0048 0.0029
1 22 11 1.0676 0.0246
1 22 12 -1.4209 -0.0152
1 22 13 0.0978 0.0131
1 22 14 -1.7994 0.0124
1 22 15 -0.6798 0.0058
1 22 16 2.0568 0.0004
1 22 17 0.0495 0.0068
1 22 18 -3.6663 0.0002
1 22 19 0.9452 0.0433
1 22 20 3.7238 0.0275
1 22 21 1.5902 -0.1285
1 22 22 -5.0150 -0.0147
1 23 0 0.6457 0.0787
1 23 1 -1.0240 0.0805
1 23 2 0.7873 -0.0347
1 23 3 -1.1986 0.0555
1 23 4 -2.8081 -0.0464
1 23 5 1.3182 0.0143
1 23 6 3.1787 -0.0062
1 23 7 0.4134 -0.0243
1 23 8 -3.1812 -0.0180
1 23 9 -1.9535 -0.0066
1 23 10 1.8301 0.0220
1 23 11 0.5373 -0.0068
1 23 12 -2.2060 -0.0076
1 23 13 0.3334 0.0124
1 23 14 0.1889 -0.0137
1 23 15 3.5839 -0.0129
1 23 16 1.6842 -0.0101
1 23 17 -2.7973 0.0057
1 23 18 -2.3140 0.0047
1 23 19 3.4114 -0.0025
1 23 20 0.8364 -0.0817
1 23 21 -3.1748 0.0278
1 24 0 0.3788 0.1666
1 24 1 -0.3361 -0.0469
1 24 2 -0.2436 -0.0342
1 24 3 -0.6743 -0.0033
1 24 4 2.1447 -0.0723
1 24 5 1.9133 0.0544
1 24 6 -3.3851 -0.0284
1 24 7 -2.4072 0.0186
1 24 8 2.8577 0.0038
1 24 9 2.5731 -0.0005
1 24 10 -1.4634 0.0037
1 24 11 -1.5725 0.0197
1 24 12 1.5373 0.0117
1 24 13 1.6614 -0.0015
1 24 14 -1.0383 0.0128
1 24 15 0.2392 -0.0221
1 24 16 -2.2142 -0.0108
1 24 17 -2.1611 0.0215
1 24 18 0.3571 -0.0026
1 24 19 2.7405 0.0495
1 24 20 -0.5094 -0.0027
1 25 0 -0.2518 -0.0209
1 25 1 -2.8196 -0.1231
1 25 2 0.3329 0.0100
1 25 3 1.5208 -0.0245
1 25 4 0.0304 0.0067
1 25 5 -2.0855 0.0599
1 25 6 -1.3596 -0.0326
1 25 7 3.2900 0.0351
1 25 8 0.9160 -0.0151
1 25 9 -2.1210 -0.0033
1 25 10 -0.2351 -0.0179
1 25 11 0.1021 0.0237
1 25 12 -0.4839 -0.0158
1 25 13 -0.9873 -0.0169
1 25 14 0.2862 -0.0574
1 25 15 2.7227 -0.0304
1 25 16 -0.7959 0.1059
1 25 17 -0.9383 0.0269
1 25 18 0.9033 -0.0169
1 26 0 -3.1434 -0.1695
1 26 1 1.1765 0.0400
1 26 2 3.4853 0.0294
1 26 3 -1.6365 -0.0027
1 26 4 -2.5324 0.0420
1 26 5 -0.0857 0.0059
1 26 6 2.6710 -0.0070
1 26 7 2.3878 0.0178
1 26 8 -1.9404 -0.0496
1 26 9 -0.4220 -0.0143
1 26 10 -1.8196 0.0179
1 26 11 -1.0353 0.0579
1 26 12 3.6476 -0.0279
1 26 13 1.9314 0.0196
1 26 14 -0.0040 0.0118
1 26 15 -2.0785 0.0640
1 26 16 -3.9112 0.0164
1 27 0 -1.1471 -0.0033
1 27 1 1.6041 0.1330
1 27 2 -1.8317 -0.0392
1 27 3 -1.5171 0.0633
1 27 4 1.3069 -0.0315
1 27 5 2.2222 -0.0061
1 27 6 1.3388 0.0110
1 27 7 -2.1286 -0.0358
1 27 8 -2.5151 -0.0041
1 27 9 0.3611 0.0324
1 27 10 -0.6607 0.0077
1 27 11 2.9043 -0.0048
1 27 12 1.0480 -0.0359
1 27 13 -3.1519 -0.0025
1 27 14 -1.4856 -0.0965
1 28 4 -0.7310 -0.0876
1 28 5 0.3185 0.0697
1 28 6 -0.5363 -0.0433
1 28 7 -1.1441 -0.0214
1 28 8 0.0164 0.0151
1 28 9 0.6539 -0.0216
1 28 10 0.0727 0.0208
2 -26 0 0.3252 -0.0706
2 -26 1 -0.1531 0.0284
2 -26 2 -1.2339 -0.0368
2 -25 0 -0.8798 -0.1691
2 -25 1 1.3311 0.0589
2 -25 2 -0.1640 0.0285
2 -25 3 -1.1243 0.0669
2 -25 4 0.7823 0.0155
2 -25 5 0.4193 -0.0835
2 -24 0 0.2048 0.1224
2 -24 1 1.4641 0.0809
2 -24 2 -1.9824 -0.0266
2 -24 3 0.9867 -0.0118
2 -24 4 2.4429 -0.0705
2 -24 5 -0.9169 0.0211
2 -24 6 -1.5280 0.0946
2 -24 7 -0.6154 -0.0165
2 -23 0 2.8292 0.0235
2 -23 1 0.6495 -0.0653
2 -23 2 -1.1890 -0.0029
2 -23 3 0.9752 -0.0250
2 -23 4 -2.6355 0.0170
2 -23 5 -1.3154 0.0487
2 -23 6 1.7754 -0.0580
2 -23 7 1.5228 -0.0477
2 -23 8 0.2409 0.0193
2 -23 9 -0.9122 0.0051
2 -22 0 -0.9134 -0.1063
2 -22 1 -2.6678 -0.0052
2 -22 2 0.6805 0.0104
2 -22 3 -0.1088 0.0090
2 -22 4 -0.5937 0.0777
2 -22 5 3.0351 -0.0335
2 -22 6 -0.3467 -0.0237
2 -22 7 -1.5583 0.0176
2 -22 8 -0.7848 -0.0142
2 -22 9 -0.1727 0.0221
2 -22 10 0.3857 0.0325
2 -22 11 -0.4315 -0.0895
2 -21 0 -0.5318 -0.0164
2 -21 1 2.6050 0.0892
2 -21 2 0.4294 -0.0183
2 -21 3 -2.8940 0.0158
2 -21 4 0.5803 -0.0200
2 -21 5 0.9784 -0.0841
2 -21 6 -1.5595 0.0145
2 -21 7 0.8837 0.0016
2 -21 8 0.5811 0.0395
2 -21 9 0.5202 0.0189
2 -21 10 0.6926 -0.0042
2 -21 11 0.4126 -0.0160
2 -21 12 0.3901 0.0227
2 -20 0 -0.4941 0.0757
2 -20 1 -0.3714 -0.0349
2 -20 2 -1.6930 -0.0664
2 -20 3 1.5332 0.0340
2 -20 4 1.7084 -0.0217
2 -20 5 0.4820 0.0202
2 -20 6 -0.0402 0.0465
2 -20 7 0.0120 0.0070
2 -20 8 -0.8134 0.0061
2 -20 9 -0.7125 -0.0411
2 -20 10 -0.9708 0.0071
2 -20 11 -0.4204 -0.0474
2 -20 12 -0.6857 0.0256
2 -20 13 -0.4358 0.0003
2 -20 14 1.0400 0.0368
2 -19 0 0.1278 -0.0617
2 -19 1 1.3169 -0.0600
2 -19 2 1.3739 0.0352
2 -19 3 -1.7599 0.0304
2 -19 4 -1.8832 -0.0070
2 -19 5 1.6100 0.0356
2 -19 6 -1.9804 -0.0129
2 -19 7 -1.2897 -0.0184
2 -19 8 0.6256 -0.0268
2 -19 9 0.6055 -0.0133
2 -19 10 1.4674 0.0200
2 -19 11 1.2353 0.0061
2 -19 12 -0.0414 0.0569
2 -19 13 1.0890 -0.0724
2 -19 14 -0.1006 0.0193
2 -19 15 -1.5863 0.0287
2 -18 0 0.1691 -0.0255
2 -18 1 0.5848 0.0658
2 -18 2 -1.1880 0.0376
2 -18 3 -1.2106 0.0041
2 -18 4 2.4926 0.0034
2 -18 5 1.3596 0.0011
2 -18 6 -1.8935 -0.0466
2 -18 7 1.9530 -0.0201
2 -18 8 0.3273 0.0032
2 -18 9 -0.7059 0.0313
2 -18 10 0.4332 0.0245
2 -18 11 -1.0103 0.0023
2 -18 12 -1.6583 -0.0088
2 -18 13 -0.5508 -0.0362
2 -18 14 -0.5658 0.0470
2 -18 15 1.3251 -0.0178
2 -18 16 0.9656 -0.0124
2 -17 0 1.2432 0.0716
2 -17 1 0.6817 0.0059
2 -17 2 0.1056 -0.0119
2 -17 3 -0.7008 -0.0161
2 -17 4 -0.1237 -0.0126
2 -17 5 0.1343 -0.0071
2 -17 6 -1.6395 -0.0443
2 -17 7 -0.1979 0.0253
2 -17 8 -0.3491 0.0246
2 -17 9 1.3796 0.0062
2 -17 10 0.9377 0.0035
2 -17 11 -1.4240 -0.0063
2 -17 12 0.0386 -0.0125
2 -17 13 2.6699 -0.0235
2 -17 14 0.3469 0.0138
2 -17 15 -1.8407 -0.0003
2 -17 16 -0.9183 -0.0052
2 -17 17 1.2066 -0.0037
2 -16 0 -1.0754 -0.0564
2 -16 1 -0.4887 -0.0497
2 -16 2 -0.9630 0.0019
2 -16 3 -1.6890 -0.0312
2 -16 4 1.7639 0.0190
2 -16 5 0.7016 -0.0284
2 -16 6 -1.6859 -0.0103
2 -16 7 2.1751 0.0620
2 -16 8 0.5365 -0.0006
2 -16 9 -0.2901 0.0111
2 -16 10 -0.6858 -0.0016
2 -16 11 -1.4166 -0.0232
2 -16 12 0.1315 -0.0101
2 -16 13 -0.0147 -0.0006
2 -16 14 -2.0451 0.0073
2 -16 15 1.0153 -0.0031
2 -16 16 2.7999 0.0134
2 -16 17 -0.4307 0.0082
2 -16 18 -1.9142 -0.0038
2 -15 0 -0.6824 -0.1048
2 -15 1 0.1690 0.0840
2 -15 2 -0.5930 0.0282
2 -15 3 0.8764 0.0195
2 -15 4 2.3636 0.0093
2 -15 5 -0.8493 -0.0315
2 -15 6 -0.8161 0.0585
2 -15 7 0.9541 0.0079
2 -15 8 -1.2566 -0.0315
2 -15 9 -0.0416 -0.0022
2 -15 10 -0.4493 -0.0222
2 -15 11 -0.6303 0.0052
2 -15 12 1.7706 0.0143
2 -15 13 2.6284 -0.0071
2 -15 14 -0.5914 -0.0045
2 -15 15 -1.3123 0.0256
2 -15 16 -0.5594 0.0022
2 -15 17 -0.1002 -0.0065
2 -15 18 0.2930 0.0294
2 -15 19 0.3177 -0.0038
2 -14 0 -0.6152 0.1945
2 -14 1 1.2225 0.0854
2 -14 2 1.3482 -0.0576
2 -14 3 0.6300 -0.0167
2 -14 4 -0.5605 -0.0430
2 -14 5 -2.8406 0.0281
2 -14 6 -1.3178 0.0219
2 -14 7 1.7172 -0.0441
2 -14 8 0.3399 0.0071
2 -14 9 0.2252 -0.0033
2 -14 10 1.0678 -0.0020
2 -14 11 0.1451 0.0111
2 -14 12 -0.3638 -0.0063
2 -14 13 -1.6638 -0.0154
2 -14 14 -3.3306 0.0030
2 -14 15 2.1875 0.0171
2 -14 16 3.7410 -0.0057
2 -14 17 -0.8697 0.0083
2 -14 18 -2.5260 -0.0170
2 -14 19 -0.0927 -0.0573
2 -14 20 0.7980 -0.0256
2 -13 0 2.2068 0.1456
2 -13 1 1.4054 -0.1783
2 -13 2 -2.3061 -0.0523
2 -13 3 -1.5977 -0.0144
2 -13 4 0.3397 0.0112
2 -13 5 -0.1614 0.0437
2 -13 6 2.6133 -0.0404
2 -13 7 2.8673 -0.0089
2 -13 8 -1.7999 0.0164
2 -13 9 -1.5200 -0.0089
2 -13 10 -0.8294 0.0199
2 -13 11 -1.5868 0.0163
2 -13 12 1.8657 -0.0029
2 -13 13 2.2433 -0.0111
2 -13 14 0.2271 -0.0006
2 -13 15 0.7648 0.0094
2 -13 16 -1.9695 0.0017
2 -13 17 -2.1504 0.0023
2 -13 18 0.4052 -0.0036
2 -13 19 1.8088 -0.0125
2 -13 20 0.8101 0.0225
2 -13 21 -0.1668 0.0610
2 -12 0 1.2048 -0.2692
2 -12 1 0.4110 -0.1277
2 -12 2 0.4832 0.0854
2 -12 3 2.0669 0.0466
2 -12 4 0.7224 0.0771
2 -12 5 -1.7562 -0.0180
2 -12 6 -0.4411 -0.0303
2 -12 7 -0.4325 0.0361
2 -12 8 -1.7176 0.0020
2 -12 9 0.5017 -0.0047
2 -12 10 1.9870 0.0104
2 -12 11 1.3211 -0.0195
2 -12 12 0.1169 -0.0228
2 -12 13 -3.3820 -0.0038
2 -12 14 -2.5235 -0.0022
2 -12 15 1.9300 0.0239
2 -12 16 2.2857 0.0112
2 -12 17 0.3265 -0.0067
2 -12 18 -1.0818 -0.0150
2 -12 19 0.1953 -0.0220
2 -12 20 0.2942 0.0190
2 -12 21 -0.4677 0.0153
2 -11 0 6.9212 -0.1477
2 -11 1 1.9539 0.2171
2 -11 2 -4.3475 0.0960
2 -11 3 -1.6590 0.0292
2 -11 4 0.3125 -0.0454
2 -11 5 -0.2821 -0.0876
2 -11 6 1.9247 0.0160
2 -11 7 1.2004 -0.0027
2 -11 8 -1.8386 -0.0233
2 -11 9 -0.4978 0.0150
2 -11 10 0.1370 0.0029
2 -11 11 -0.9186 -0.0048
2 -11 12 0.3849 0.0159
2 -11 13 1.3402 -0.0024
2 -11 14 2.1827 -0.0057
2 -11 15 0.9279 0.0274
2 -11 16 -2.3401 -0.0088
2 -11 17 -2.8523 0.0001
2 -11 18 0.1938 -0.0047
2 -11 19 2.4671 -0.0144
2 -11 20 0.3163 0.0059
2 -11 21 -0.9259 0.0082
2 -11 22 -0.3654 0.0020
2 -10 0 6.2997 0.2677
2 -10 1 -4.7813 0.1083
2 -10 2 -2.9021 -0.0806
2 -10 3 4.1815 -0.0651
2 -10 4 0.9323 -0.1117
2 -10 5 -2.2423 0.0215
2 -10 6 -1.2613 0.0424
2 -10 7 -1.1780 -0.0026
2 -10 8 0.7011 0.0398
2 -10 9 2.7101 0.0113
2 -10 10 1.3219 -0.0122
2 -10 11 0.4429 -0.0003
2 -10 12 -1.1082 -0.0133
2 -10 13 -3.0625 -0.0105
2 -10 14 -1.2726 0.0045
2 -10 15 0.8128 0.0123
2 -10 16 0.7360 -0.0056
2 -10 17 1.1326 -0.0029
2 -10 18 1.7958 -0.0279
2 -10 19 -0.4726 -0.0179
2 -10 20 -2.0992 -0.0005
2 -10 21 0.1359 0.0329
2 -10 22 0.1142 0.0262
2 -10 23 -0.1029 -0.0073
2 -9 0 3.8596 0.1252
2 -9 1 -13.4175 -0.1939
2 -9 2 -4.2399 -0.0788
2 -9 3 4.9156 -0.0548
2 -9 4 1.5289 0.0506
2 -9 5 -1.2660 0.1190
2 -9 6 0.8495 -0.0040
2 -9 7 2.6777 0.0141
2 -9 8 1.1341 -0.0015
2 -9 9 -2.0241 -0.0311
2 -9 10 -2.3895 -0.0096
2 -9 11 -1.6904 -0.0159
2 -9 12 -0.8682 0.0013
2 -9 13 2.7319 0.0007
2 -9 14 3.6453 -0.0032
2 -9 15 -0.3977 0.0286
2 -9 16 -2.3701 -0.0008
2 -9 17 -0.2467 -0.0015
2 -9 18 -0.3273 -0.0018
2 -9 19 -1.3708 -0.0038
2 -9 20 1.0708 0.0356
2 -9 21 1.5526 0.0582
2 -9 22 -0.8437 -0.0199
2 -9 23 0.4984 -0.0442
2 -8 0 -18.8697 -0.2148
2 -8 1 -10.0113 -0.0484
2 -8 2 17.2509 0.0720
2 -8 3 11.1828 0.0504
2 -8 4 -8.0458 0.1038
2 -8 5 -6.9316 -0.0514
2 -8 6 0.7997 -0.0643
2 -8 7 0.6951 -0.0022
2 -8 8 -0.2906 -0.0294
2 -8 9 0.0904 0.0046
2 -8 10 0.3535 -0.0042
2 -8 11 0.9765 0.0156
2 -8 12 1.6765 0.0115
2 -8 13 0.1819 -0.0016
2 -8 14 -2.6698 0.0296
2 -8 15 -1.4216 0.0020
2 -8 16 1.9560 -0.0194
2 -8 17 1.4139 0.0063
2 -8 18 -0.9297 -0.0291
2 -8 19 0.1933 -0.0127
2 -8 20 1.1654 0.0119
2 -8 21 -0.5685 -0.0248
2 -8 22 -1.4909 -0.0198
2 -8 23 0.0064 -0.0101
2 -8 24 -0.0626 -0.0308
2 -7 0 -13.0684 -0.0485
2 -7 1 3.8147 0.1377
2 -7 2 10.8974 -0.0087
2 -7 3 -8.4371 0.0194
2 -7 4 -9.5101 -0.0424
2 -7 5 4.7099 -0.0924
2 -7 6 6.0077 0.0411
2 -7 7 2.6012 0.0180
2 -7 8 1.2141 0.0242
2 -7 9 -3.3092 0.0138
2 -7 10 -2.7592 -0.0087
2 -7 11 0.9479 0.0081
2 -7 12 0.3186 -0.0228
2 -7 13 -0.0551 0.0172
2 -7 14 0.7864 -0.0076
2 -7 15 0.2310 -0.0197
2 -7 16 -0.9188 0.0088
2 -7 17 -0.4531 -0.0170
2 -7 18 0.4251 -0.0084
2 -7 19 -0.2429 0.0167
2 -7 20 -0.5621 0.0063
2 -7 21 -0.5159 0.0348
2 -7 22 -0.2484 0.0307
2 -7 23 1.8749 -0.0429
2 -7 24 0.7418 0.0284
2 -6 0 -15.4653 0.1638
2 -6 1 15.3405 -0.0038
2 -6 2 17.2552 -0.0850
2 -6 3 -6.9572 -0.0016
2 -6 4 -8.4451 -0.0785
2 -6 5 2.2220 0.0551
2 -6 6 1.7720 0.0795
2 -6 7 -1.5250 -0.0048
2 -6 8 -3.9682 0.0067
2 -6 9 -2.2262 -0.0399
2 -6 10 4.1905 -0.0065
2 -6 11 2.5919 -0.0100
2 -6 12 -1.3953 0.0030
2 -6 13 -0.1724 0.0208
2 -6 14 -1.2219 -0.0210
2 -6 15 -0.9282 0.0168
2 -6 16 2.4275 -0.0015
2 -6 17 1.3368 0.0038
2 -6 18 -2.6371 0.0119
2 -6 19 -1.2597 -0.0179
2 -6 20 2.1821 0.0139
2 -6 21 0.9628 0.0253
2 -6 22 0.1615 -0.0205
2 -6 23 0.2666 -0.0207
2 -6 24 -1.6429 0.0051
2 -6 25 -0.3204 -0.0961
2 -5 0 -10.1208 -0.0566
2 -5 1 11.9338 -0.1283
2 -5 2 -4.1362 0.0304
2 -5 3 -20.0073 0.0329
2 -5 4 2.4358 0.0352
2 -5 5 12.3401 0.1037
2 -5 6 2.4402 -0.0421
2 -5 7 -0.3263 -0.0425
2 -5 8 -0.5211 -0.0351
2 -5 9 -0.9317 -0.0276
2 -5 10 -0.8118 0.0164
2 -5 11 -1.8372 0.0002
2 -5 12 1.0579 0.0382
2 -5 13 2.4606 0.0006
2 -5 14 -1.4623 0.0041
2 -5 15 -0.0849 0.0161
2 -5 16 1.3695 -0.0211
2 -5 17 -1.8867 -0.0036
2 -5 18 -0.5861 -0.0145
2 -5 19 2.8661 0.0003
2 -5 20 0.2141 0.0126
2 -5 21 -2.3092 -0.0087
2 -5 22 -0.2929 -0.0094
2 -5 23 0.4158 -0.0173
2 -5 24 -0.3448 -0.0334
2 -5 25 0.1260 0.0241
2 -4 0 0.9907 -0.1107
2 -4 1 50.0998 0.0713
2 -4 2 4.4267 0.0709
2 -4 3 -11.7892 -0.0154
2 -4 4 1.6388 0.0218
2 -4 5 -2.5450 -0.0299
2 -4 6 -1.9964 -0.0748
2 -4 7 -1.4853 -0.0062
2 -4 8 -6.3469 -0.0062
2 -4 9 1.7811 0.0500
2 -4 10 9.2182 0.0190
2 -4 11 2.2923 0.0192
2 -4 12 -3.3091 0.0089
2 -4 13 -3.7150 -0.0348
2 -4 14 -2.6628 0.0026
2 -4 15 3.6684 -0.0375
2 -4 16 2.2827 -0.0190
2 -4 17 -2.7906 0.0139
2 -4 18 -0.9334 0.0014
2 -4 19 0.0138 0.0072
2 -4 20 -0.6716 0.0147
2 -4 21 1.2918 0.0241
2 -4 22 1.7506 0.0123
2 -4 23 -0.8902 -0.0231
2 -4 24 -1.5970 -0.0022
2 -4 25 0.7807 0.0298
2 -4 26 0.9372 0.0014
2 -3 0 83.5383 0.0515
2 -3 1 -6.7811 0.0939
2 -3 2 -65.0993 -0.0262
2 -3 3 -11.0526 -0.0289
2 -3 4 15.6355 -0.0096
2 -3 5 10.9226 -0.0514
2 -3 6 7.1013 -0.0045
2 -3 7 -3.1108 0.0320
2 -3 8 -0.6962 0.0393
2 -3 9 6.8640 0.0177
2 -3 10 -5.4740 -0.0349
2 -3 11 -12.1597 0.0055
2 -3 12 1.0267 -0.0301
2 -3 13 6.1458 0.0019
2 -3 14 2.6570 0.0068
2 -3 15 2.0319 -0.0128
2 -3 16 -3.9655 0.0412
2 -3 17 -2.7605 0.0124
2 -3 18 3.0117 0.0122
2 -3 19 2.4465 0.0094
2 -3 20 -0.1180 -0.0114
2 -3 21 -0.8181 -0.0196
2 -3 22 -1.3182 -0.0174
2 -3 23 -1.3421 -0.0189
2 -3 24 1.6026 -0.0107
2 -3 25 1.7998 -0.0164
2 -3 26 -1.0606 0.0747
2 -2 0 -14.7156 0.0486
2 -2 1 -49.0263 -0.0439
2 -2 2 17.4822 -0.0775
2 -2 3 38.8595 -0.0023
2 -2 4 0.6444 0.0112
2 -2 5 -4.8878 0.0038
2 -2 6 -6.9310 0.0562
2 -2 7 -9.7943 0.0257
2 -2 8 -1.9126 -0.0033
2 -2 9 1.1956 -0.0298
2 -2 10 1.1983 -0.0144
2 -2 11 6.7579 0.0050
2 -2 12 4.4927 -0.0080
2 -2 13 -3.6922 0.0250
2 -2 14 -2.3835 -0.0141
2 -2 15 0.5582 0.0118
2 -2 16 -1.7867 0.0065
2 -2 17 1.2169 -0.0230
2 -2 18 1.5900 -0.0028
2 -2 19 -1.0213 -0.0175
2 -2 20 -2.0833 -0.0009
2 -2 21 0.5919 0.0081
2 -2 22 1.1517 0.0041
2 -2 23 0.2737 -0.0167
2 -2 24 0.3735 -0.0018
2 -2 25 -1.8119 0.0608
2 -2 26 -0.6876 0.0787
2 -1 0 18.0428 -0.0651
2 -1 1 3.3951 -0.0264
2 -1 5 7.2327 0.0072
2 -1 6 -4.8667 0.0235
2 -1 7 1.1065 -0.0416
2 -1 8 5.7040 -0.0260
2 -1 9 7.0156 -0.0165
2 -1 10 -1.2128 0.0067
2 -1 11 -8.3985 0.0105
2 -1 12 -1.8033 0.0202
2 -1 13 4.3151 0.0056
2 -1 14 1.9538 -0.0178
2 -1 15 -1.7793 0.0081
2 -1 16 -2.8168 -0.0201
2 -1 17 0.9039 0.0057
2 -1 18 1.8376 0.0123
2 -1 19 -0.0908 -0.0039
2 -1 20 -1.3561 -0.0081
2 -1 21 0.9651 -0.0046
2 -1 22 -0.8317 0.0161
2 -1 23 -0.6446 0.0072
2 -1 24 0.8549 0.0178
2 -1 25 0.4245 0.0065
2 -1 26 1.0852 -0.0342
2 -1 27 -0.1732 -0.0693
2 0 0 -14.2447 0.0753
2 0 1 -21.3788 0.0535
2 0 5 -14.9328 0.0154
2 0 6 -3.5347 -0.0246
2 0 7 1.4616 -0.0401
2 0 8 -0.1595 0.0190
2 0 9 2.7638 0.0199
2 0 10 -6.1375 0.0124
2 0 11 0.2318 0.0052
2 0 12 5.2911 0.0044
2 0 13 -2.9822 -0.0292
2 0 14 -3.1498 -0.0007
2 0 15 0.5533 0.0039
2 0 16 0.6873 -0.0066
2 0 17 2.7835 0.0197
2 0 18 0.7854 -0.0090
2 0 19 -2.7673 0.0111
2 0 20 -0.9954 0.0114
2 0 21 2.5897 0.0077
2 0 22 0.0867 -0.0073
2 0 23 0.7290 -0.0168
2 0 24 -0.5276 0.0071
2 0 25 -1.5468 -0.0073
2 0 26 0.0154 -0.0101
2 0 27 0.0611 -0.0275
2 1 0 13.9898 0.1009
2 1 1 -3.4690 -0.0969
2 1 2 -0.4182 -0.0466
2 1 3 -13.1064 -0.0586
2 1 4 -11.0626 0.0110
2 1 5 3.0189 0.0149
2 1 6 3.9720 -0.0158
2 1 7 -1.1132 0.0270
2 1 8 7.3113 0.0347
2 1 9 1.4014 -0.0045
2 1 10 -8.7504 -0.0080
2 1 11 0.8399 0.0030
2 1 12 2.8407 -0.0086
2 1 13 2.8814 -0.0053
2 1 14 1.8196 0.0221
2 1 15 -2.3016 -0.0140
2 1 16 -0.7455 0.0108
2 1 17 1.7279 0.0054
2 1 18 -1.4410 -0.0078
2 1 19 -1.6536 0.0057
2 1 20 2.0332 -0.0325
2 1 21 0.8070 0.0023
2 1 22 -2.0630 -0.0023
2 1 23 0.2944 0.0079
2 1 24 -0.6860 0.0011
2 1 25 1.3309 -0.0363
2 1 26 1.0221 0.0270
2 1 27 -1.0390 0.0386
2 2 0 -50.8725 -0.2854
2 2 1 -13.2941 -0.0732
2 2 2 18.9607 0.0716
2 2 3 14.2528 0.0508
2 2 4 9.2640 0.0810
2 2 5 -4.8630 -0.0231
2 2 6 -3.9843 -0.0006
2 2 7 4.2525 0.0173
2 2 8 2.3334 -0.0234
2 2 9 -9.2990 -0.0178
2 2 10 -3.3388 -0.0038
2 2 11 9.1118 -0.0025
2 2 12 2.2066 -0.0042
2 2 13 -4.8225 0.0051
2 2 14 -4.2468 -0.0010
2 2 15 1.1854 -0.0110
2 2 16 2.3610 0.0096
2 2 17 0.1546 -0.0137
2 2 18 -1.5664 0.0071
2 2 19 0.3934 0.0036
2 2 20 1.3075 0.0076
2 2 21 -0.5837 0.0079
2 2 22 0.4241 -0.0320
2 2 23 -0.3698 0.0370
2 2 24 -1.5372 0.0110
2 2 25 0.9979 -0.0037
2 2 26 -1.5320 0.0221
2 2 27 0.1422 -0.0562
2 3 0 25.4475 -0.1281
2 3 1 54.6868 0.2669
2 3 2 -6.5754 0.0389
2 3 3 -19.5245 0.0205
2 3 4 -7.0031 -0.0484
2 3 5 -6.8209 -0.0832
2 3 6 1.7610 0.0267
2 3 7 2.3154 -0.0264
2 3 8 -0.2700 -0.0166
2 3 9 -0.9465 0.0215
2 3 10 6.3841 0.0071
2 3 11 2.7195 0.0092
2 3 12 -5.8842 0.0043
2 3 13 -0.6851 0.0047
2 3 14 2.5603 -0.0038
2 3 15 -0.5670 -0.0035
2 3 16 -0.9020 0.0070
2 3 17 2.0207 -0.0014
2 3 18 -0.5241 0.0052
2 3 19 -0.5330 -0.0058
2 3 20 -0.0448 0.0028
2 3 21 -0.8237 -0.0196
2 3 22 -0.9644 0.0060
2 3 23 -0.5675 0.0307
2 3 24 2.7202 -0.0450
2 3 25 1.2783 -0.0214
2 3 26 -0.8888 0.0016
2 3 27 1.7325 0.0296
2 4 0 47.4408 0.3501
2 4 1 -39.7346 0.0814
2 4 2 -36.5257 -0.1443
2 4 3 18.8071 -0.0376
2 4 4 5.1909 -0.1120
2 4 5 -1.3403 0.0477
2 4 6 9.1322 0.0481
2 4 7 4.0799 -0.0129
2 4 8 -0.0847 0.0483
2 4 9 -3.5252 0.0114
2 4 10 -3.3269 -0.0106
2 4 11 -3.7493 -0.0050
2 4 12 -0.4431 -0.0089
2 4 13 1.6892 -0.0107
2 4 14 -0.2698 -0.0066
2 4 15 1.4749 0.0087
2 4 16 4.3257 -0.0054
2 4 17 -2.2189 0.0030
2 4 18 -6.3865 0.0114
2 4 19 2.5576 0.0014
2 4 20 2.9500 -0.0010
2 4 21 -0.5212 -0.0209
2 4 22 0.5661 0.0132
2 4 23 1.2396 0.0163
2 4 24 -0.2963 -0.0033
2 4 25 -1.9233 0.0076
2 4 26 -0.2160 0.0094
2 4 27 -0.5989 0.0232
2 5 0 -37.3736 0.1152
2 5 1 -28.9491 -0.2730
2 5 2 32.6292 -0.0513
2 5 3 10.9316 -0.0044
2 5 4 -10.8850 0.0665
2 5 5 7.0995 0.1314
2 5 6 -4.3944 -0.0429
2 5 7 -7.1053 0.0064
2 5 8 -0.7239 -0.0094
2 5 9 -3.4544 -0.0388
2 5 10 3.4450 -0.0141
2 5 11 5.6968 -0.0082
2 5 12 0.9372 0.0068
2 5 13 0.1030 0.0035
2 5 14 0.6306 0.0215
2 5 15 -0.5542 0.0003
2 5 16 -2.9408 -0.0018
2 5 17 -4.7548 0.0167
2 5 18 5.3848 -0.0234
2 5 19 7.4272 -0.0029
2 5 20 -5.0103 0.0019
2 5 21 -3.8459 -0.0070
2 5 22 0.8216 0.0076
2 5 23 0.2260 -0.0074
2 5 24 0.5611 0.0015
2 5 25 -0.0510 -0.0056
2 5 26 -1.2747 0.0096
2 5 27 0.5662 0.0037
2 5 28 1.9719 -0.0493
2 6 0 -2.4382 -0.2518
2 6 1 31.0911 -0.0555
2 6 2 8.6197 0.1156
2 6 3 -15.2715 0.0372
2 6 4 1.1443 0.1078
2 6 5 -2.9496 -0.0778
2 6 6 -3.7525 -0.0803
2 6 7 12.2230 0.0125
2 6 8 -1.3535 -0.0441
2 6 9 -2.9132 0.0157
2 6 10 5.2646 0.0089
2 6 11 -3.5358 0.0343
2 6 12 -4.6509 0.0168
2 6 13 0.9011 -0.0014
2 6 14 0.2991 0.0039
2 6 15 0.7596 -0.0255
2 6 16 1.3508 0.0034
2 6 17 0.6026 -0.0122
2 6 18 1.3848 -0.0073
2 6 19 -4.9535 0.0205
2 6 20 -4.0060 -0.0135
2 6 21 4.3142 0.0053
2 6 22 2.7946 0.0010
2 6 23 0.0169 0.0163
2 6 24 -1.0244 0.0038
2 6 25 -2.1843 -0.0227
2 6 26 0.6296 0.0133
2 6 27 2.5351 -0.0243
2 6 28 -1.2309 -0.0065
2 7 0 24.5739 -0.0329
2 7 1 -12.3192 0.1599
2 7 2 -16.4351 0.0172
2 7 3 -0.4113 0.0236
2 7 4 3.4542 -0.0524
2 7 5 2.1351 -0.1282
2 7 6 5.2638 0.0566
2 7 7 -7.0145 0.0102
2 7 8 -9.8210 0.0226
2 7 9 9.4612 0.0455
2 7 10 1.7569 0.0061
2 7 11 -5.8742 0.0118
2 7 12 3.5846 -0.0396
2 7 13 3.7263 -0.0131
2 7 14 -1.0857 -0.0267
2 7 15 -1.0123 -0.0058
2 7 16 -3.1371 0.0179
2 7 17 -2.9391 -0.0034
2 7 18 3.4301 0.0171
2 7 19 2.8742 0.0053
2 7 20 0.5542 0.0077
2 7 21 0.4276 -0.0031
2 7 22 -1.3197 -0.0236
2 7 23 -1.3723 0.0173
2 7 24 -0.0970 -0.0047
2 7 25 0.5177 0.0251
2 7 26 1.3366 -0.0113
2 7 27 0.4100 -0.0441
2 7 28 -0.8238 0.0494
2 8 0 -27.3785 0.1878
2 8 1 -8.9795 -0.0180
2 8 2 13.0795 -0.0579
2 8 3 3.5299 -0.0359
2 8 4 0.6985 -0.0897
2 8 5 -1.8609 0.0703
2 8 6 -5.5294 0.0813
2 8 7 1.6037 -0.0136
2 8 8 12.7226 0.0274
2 8 9 2.7686 -0.0342
2 8 10 -13.7640 -0.0199
2 8 11 0.0560 -0.0282
2 8 12 5.6636 -0.0124
2 8 13 -2.8465 0.0102
2 8 14 -1.5358 0.0085
2 8 15 1.5323 0.0480
2 8 16 -0.1579 0.0040
2 8 17 2.8907 0.0091
2 8 18 3.1523 0.0042
2 8 19 -5.0836 -0.0191
2 8 20 -2.9201 -0.0147
2 8 21 2.4819 -0.0184
2 8 22 0.4167 0.0145
2 8 23 0.2602 0.0098
2 8 24 0.3074 -0.0114
2 8 25 -0.8239 0.0211
2 8 26 0.1775 -0.0471
2 8 27 -0.0930 0.0105
2 8 28 -1.1619 0.0443
2 9 0 7.4603 -0.0130
2 9 1 17.0135 -0.1111
2 9 2 -2.5979 0.0239
2 9 3 -5.6915 -0.0295
2 9 4 2.7998 0.0595
2 9 5 -0.4400 0.0907
2 9 6 2.3450 -0.0388
2 9 7 2.3915 -0.0213
2 9 8 -5.6916 -0.0315
2 9 9 -10.8329 -0.0212
2 9 10 1.4183 0.0198
2 9 11 12.4964 -0.0047
2 9 12 0.2850 0.0351
2 9 13 -2.7350 0.0019
2 9 14 0.2676 0.0157
2 9 15 -1.9245 -0.0058
2 9 16 -1.5561 -0.0357
2 9 17 0.8156 -0.0063
2 9 18 0.0115 -0.0291
2 9 19 -0.7233 -0.0023
2 9 20 2.7096 0.0084
2 9 21 1.4255 0.0073
2 9 22 -1.9237 0.0211
2 9 23 -1.5684 0.0098
2 9 24 -0.4380 0.0117
2 9 25 0.6515 -0.0032
2 9 26 0.2342 -0.0719
2 9 27 0.2591 0.0267
2 10 0 6.1926 -0.1364
2 10 1 -8.2929 0.0388
2 10 2 -4.1641 0.0485
2 10 3 5.6679 -0.0001
2 10 4 -1.8808 0.0626
2 10 5 -4.2702 -0.0529
2 10 6 -0.5778 -0.0577
2 10 7 0.3317 -0.0102
2 10 8 3.3347 -0.0113
2 10 9 4.7728 0.0426
2 10 10 3.4501 0.0010
2 10 11 -2.8849 0.0068
2 10 12 -7.0635 0.0055
2 10 13 -1.9240 -0.0278
2 10 14 0.7536 0.0059
2 10 15 2.9976 -0.0265
2 10 16 2.4831 0.0040
2 10 17 1.4187 0.0218
2 10 18 -0.1897 0.0091
2 10 19 -3.4199 0.0195
2 10 20 -0.1056 0.0008
2 10 21 0.5940 0.0098
2 10 22 -2.6597 0.0080
2 10 23 0.3782 -0.0361
2 10 24 3.2082 -0.0253
2 10 25 0.5219 0.0085
2 10 26 -0.9772 -0.0015
2 10 27 0.6837 0.0721
2 11 0 -3.8887 0.0307
2 11 1 -0.5062 0.1348
2 11 3 -4.0048 -0.0273
2 11 4 -1.2469 -0.0238
2 11 5 5.2326 -0.0573
2 11 6 1.5738 0.0359
2 11 7 1.2456 0.0280
2 11 8 -2.1697 0.0266
2 11 9 -7.1403 0.0151
2 11 10 -3.0245 -0.0244
2 11 11 3.3285 0.0017
2 11 12 3.5984 -0.0182
2 11 13 3.4489 0.0114
2 11 14 1.3487 0.0029
2 11 15 -2.1472 -0.0006
2 11 16 -2.4135 0.0337
2 11 17 -1.2454 -0.0008
2 11 18 -2.3491 -0.0120
2 11 19 0.0874 -0.0088
2 11 20 4.7078 -0.0139
2 11 21 -0.5855 -0.0045
2 11 22 -2.2920 -0.0019
2 11 23 3.1254 -0.0113
2 11 24 1.4695 0.0153
2 11 25 -2.0799 0.0108
2 11 26 -1.6875 -0.0035
2 11 27 0.4453 0.0217
2 12 0 -3.2847 0.1328
2 12 1 0.4096 -0.0466
2 12 2 -2.5592 -0.1120
2 12 3 1.7226 0.0481
2 12 4 3.6360 -0.0095
2 12 5 -4.7339 0.0316
2 12 6 -1.7736 0.0591
2 12 7 3.1341 -0.0066
2 12 8 -2.0283 -0.0095
2 12 9 0.9276 -0.0278
2 12 10 6.0221 -0.0096
2 12 11 1.7692 0.0040
2 12 12 -4.4360 0.0075
2 12 13 -3.0919 0.0178
2 12 14 -2.3576 -0.0167
2 12 15 0.2416 0.0165
2 12 16 2.3864 -0.0145
2 12 17 0.2956 -0.0222
2 12 18 0.9529 -0.0086
2 12 19 1.9625 -0.0046
2 12 20 1.1153 0.0025
2 12 21 -3.2653 0.0047
2 12 22 -0.6820 0.0147
2 12 23 2.5226 -0.0021
2 12 24 -1.1445 0.0156
2 12 25 -2.2251 0.0349
2 12 26 -0.0666 -0.0069
2 12 27 1.8488 -0.0486
2 13 0 1.0342 -0.0327
2 13 1 -0.6811 -0.1144
2 13 2 0.0073 0.0494
2 13 3 2.0881 0.0613
2 13 4 -2.2793 -0.0196
2 13 5 1.7173 0.0570
2 13 6 5.5719 -0.0256
2 13 7 -3.1229 -0.0479
2 13 8 -5.3311 -0.0337
2 13 9 1.4127 -0.0093
2 13 10 1.2906 0.0204
2 13 11 -1.8493 0.0001
2 13 12 -0.4714 0.0201
2 13 13 2.5599 -0.0099
2 13 14 -0.4795 -0.0175
2 13 15 0.7922 0.0049
2 13 16 2.0150 -0.0231
2 13 17 -0.2739 0.0206
2 13 18 -0.7819 0.0016
2 13 19 -0.5432 0.0208
2 13 20 -0.4726 0.0086
2 13 21 -3.4360 0.0108
2 13 22 1.6159 0.0232
2 13 23 2.0055 -0.0197
2 13 24 -1.5777 -0.0252
2 13 25 0.3523 -0.0343
2 13 26 0.1698 -0.0338
2 13 27 0.0558 0.0345
2 14 0 -1.6010 -0.0453
2 14 1 -1.4284 0.0326
2 14 2 3.1871 0.0890
2 14 3 2.0738 -0.0314
2 14 4 -1.2533 -0.0215
2 14 5 -0.7844 -0.0187
2 14 6 -2.8008 -0.0586
2 14 7 -2.7243 0.0033
2 14 8 2.4756 0.0131
2 14 9 4.5220 0.0490
2 14 10 0.6566 0.0141
2 14 11 -2.2660 0.0036
2 14 12 -0.9501 0.0097
2 14 13 -0.8495 -0.0234
2 14 14 -0.7497 0.0126
2 14 15 4.3741 -0.0060
2 14 16 -0.0697 0.0055
2 14 17 -4.6730 0.0294
2 14 18 -1.0993 -0.0118
2 14 19 0.7966 0.0167
2 14 20 0.1785 -0.0254
2 14 21 0.3201 -0.0196
2 14 22 3.7323 -0.0151
2 14 23 -1.4155 -0.0092
2 14 24 -1.4338 0.0046
2 14 25 1.0345 0.0275
2 14 26 -0.5828 0.0340
2 15 0 -1.7992 0.0486
2 15 1 0.9524 0.0241
2 15 2 0.8675 -0.0340
2 15 3 -2.2459 -0.0574
2 15 4 -1.7875 0.0220
2 15 5 1.3091 0.0035
2 15 6 1.2578 0.0133
2 15 7 -0.2563 0.0356
2 15 8 1.0425 0.0261
2 15 9 1.0530 0.0076
2 15 10 -1.8332 -0.0223
2 15 11 -2.2440 -0.0046
2 15 12 0.7031 -0.0186
2 15 13 2.0984 -0.0083
2 15 14 0.9487 -0.0048
2 15 15 -1.4136 -0.0146
2 15 16 -3.8441 0.0261
2 15 17 0.9438 -0.0125
2 15 18 3.8194 -0.0146
2 15 19 1.6118 -0.0033
2 15 20 -0.5275 -0.0300
2 15 21 -0.8641 0.0180
2 15 22 0.2949 0.0320
2 15 23 -2.0235 0.0064
2 15 24 1.9642 -0.0233
2 15 25 0.5163 0.0200
2 15 26 -1.9235 -0.0137
2 16 0 0.1602 -0.1266
2 16 1 2.4244 -0.0264
2 16 2 2.6441 -0.0033
2 16 3 0.4656 0.0295
2 16 4 -1.6440 0.0404
2 16 5 -0.7321 -0.0262
2 16 6 -0.1634 0.0141
2 16 7 0.0409 0.0149
2 16 8 1.5105 -0.0246
2 16 9 0.1726 -0.0293
2 16 10 -2.1107 -0.0149
2 16 11 -1.5156 -0.0173
2 16 12 2.7151 0.0002
2 16 13 0.8724 0.0194
2 16 14 -2.9671 0.0061
2 16 15 0.8804 0.0097
2 16 16 2.7780 0.0086
2 16 17 1.2288 -0.0070
2 16 18 -0.9704 0.0075
2 16 19 -3.2651 -0.0027
2 16 20 -1.9368 0.0247
2 16 21 2.2285 0.0095
2 16 22 1.1450 0.0027
2 16 23 -1.2851 -0.0114
2 16 24 0.4127 -0.0057
2 16 25 -2.3634 -0.0014
2 16 26 0.4255 -0.0430
2 17 0 2.1306 -0.0589
2 17 1 1.6272 0.1338
2 17 2 -2.9735 -0.0002
2 17 3 -5.2295 0.0288
2 17 4 -0.5748 -0.0237
2 17 5 3.5296 -0.0427
2 17 6 1.3112 0.0234
2 17 7 -0.1785 -0.0310
2 17 8 0.4777 -0.0189
2 17 9 -0.5812 0.0114
2 17 10 -1.1762 0.0144
2 17 11 0.5640 0.0189
2 17 12 1.9544 0.0256
2 17 13 -2.3795 0.0036
2 17 14 0.6149 -0.0149
2 17 15 2.9108 -0.0015
2 17 16 -2.9449 0.0004
2 17 17 -1.6262 -0.0139
2 17 18 0.3137 0.0034
2 17 19 -0.3850 0.0077
2 17 20 2.5077 -0.0062
2 17 21 1.3457 -0.0371
2 17 22 -1.8600 0.0040
2 17 23 -0.2130 -0.0298
2 17 24 0.0838 0.0275
2 17 25 0.2905 0.0184
2 17 26 1.8950 0.0158
2 18 0 1.2102 0.2289
2 18 1 -0.6398 0.0333
2 18 2 -1.7716 -0.0797
2 18 3 2.5475 -0.0054
2 18 4 3.0028 -0.0759
2 18 5 -0.5779 0.0377
2 18 6 -1.1027 0.0303
2 18 7 0.2190 -0.0132
2 18 8 0.1575 0.0394
2 18 9 -0.9049 0.0099
2 18 10 -1.7807 0.0035
2 18 11 -0.0771 -0.0146
2 18 12 1.5870 -0.0069
2 18 13 0.2067 -0.0003
2 18 14 1.5421 -0.0037
2 18 15 -2.7549 -0.0001
2 18 16 -1.3885 -0.0139
2 18 17 3.6837 0.0150
2 18 18 -0.9986 0.0130
2 18 19 -2.1361 -0.0127
2 18 20 1.4570 0.0051
2 18 21 0.4857 -0.0072
2 18 22 -0.3701 0.0286
2 18 23 -0.2978 0.0193
2 18 24 -0.3890 0.0388
2 18 25 1.0992 -0.0823
2 19 0 -0.6772 0.0542
2 19 1 -0.6811 -0.1728
2 19 2 -1.9206 -0.0101
2 19 3 -1.0518 -0.0018
2 19 4 -1.0993 0.0395
2 19 5 1.7539 0.0893
2 19 6 1.8623 -0.0438
2 19 7 -0.9629 0.0138
2 19 8 -1.9128 -0.0056
2 19 9 -2.7178 -0.0338
2 19 10 0.0919 -0.0068
2 19 11 4.5093 -0.0130
2 19 12 1.8038 0.0145
2 19 13 -2.5169 -0.0055
2 19 14 -0.9155 -0.0095
2 19 15 -0.8341 -0.0022
2 19 16 2.3755 -0.0017
2 19 17 -0.0455 0.0103
2 19 18 -2.1885 -0.0130
2 19 19 1.9431 0.0068
2 19 20 2.3982 -0.0189
2 19 21 -0.6887 -0.0163
2 19 22 -1.1938 0.0238
2 19 23 -0.1293 -0.0314
2 19 24 -0.3460 0.0226
2 20 0 2.3579 -0.2163
2 20 1 -1.1947 -0.0082
2 20 2 -1.6346 0.0811
2 20 3 3.2093 0.0032
2 20 4 3.8543 0.0656
2 20 5 -0.1864 -0.0593
2 20 6 -4.8745 -0.0535
2 20 7 -2.9324 0.0188
2 20 8 2.1147 -0.0508
2 20 9 3.7709 0.0140
2 20 10 3.7318 0.0015
2 20 11 0.1253 0.0164
2 20 12 -3.9082 0.0174
2 20 13 -2.0709 0.0043
2 20 14 1.5337 0.0087
2 20 15 -0.4086 -0.0068
2 20 16 0.7661 0.0002
2 20 17 0.1651 0.0164
2 20 18 -0.4035 0.0016
2 20 19 -1.4184 0.0118
2 20 20 0.2672 0.0117
2 20 21 -0.0889 0.0182
2 20 22 -1.7792 -0.0219
2 20 23 -0.2673 0.0192
2 20 24 0.5249 0.0416
2 21 0 0.1600 -0.0220
2 21 1 -3.3219 0.1530
2 21 2 0.6744 -0.0075
2 21 3 1.4227 0.0035
2 21 4 -2.3907 -0.0321
2 21 5 -3.2734 -0.0796
2 21 6 0.9953 0.0569
2 21 7 4.8926 0.0005
2 21 8 2.8898 0.0026
2 21 9 -3.9541 0.0437
2 21 10 -4.1259 0.0085
2 21 11 -0.7850 0.0272
2 21 12 -0.3180 -0.0257
2 21 13 0.5397 0.0033
2 21 14 1.0379 -0.0257
2 21 15 -0.3018 -0.0048
2 21 16 2.8050 -0.0006
2 21 17 -0.6819 -0.0037
2 21 18 -2.4251 0.0060
2 21 19 1.1932 0.0008
2 21 20 3.1895 -0.0666
2 21 21 -2.4104 -0.0328
2 21 22 -0.3580 0.0453
2 21 23 3.2208 0.0337
2 22 0 -2.3362 0.1139
2 22 1 -1.2518 -0.0015
2 22 2 1.1173 -0.0562
2 22 3 1.3900 -0.0379
2 22 4 0.6777 -0.0568
2 22 5 0.5977 0.0635
2 22 6 -0.2327 0.0547
2 22 7 -1.5398 -0.0201
2 22 8 -1.0232 0.0288
2 22 9 -0.7866 -0.0160
2 22 10 3.2999 -0.0239
2 22 11 1.7853 -0.0201
2 22 12 -1.0024 -0.0120
2 22 13 0.4802 0.0055
2 22 14 1.2290 -0.0240
2 22 15 1.1007 0.0344
2 22 16 -0.0086 -0.0143
2 22 17 -4.3472 0.0214
2 22 18 0.1102 -0.0055
2 22 19 1.4923 0.0009
2 22 20 0.0158 0.0354
2 22 21 -1.2273 0.0718
2 22 22 1.4246 -0.0229
2 23 0 0.8808 -0.0047
2 23 1 0.5926 -0.0391
2 23 2 2.7313 -0.0033
2 23 3 -0.4598 -0.0323
2 23 4 -3.0012 0.0836
2 23 5 -1.1801 0.0708
2 23 6 0.9788 -0.0289
2 23 7 2.9262 -0.0232
2 23 8 1.5298 -0.0370
2 23 9 -2.5714 -0.0343
2 23 10 -0.6616 0.0182
2 23 11 -1.4156 0.0213
2 23 12 -0.7697 0.0124
2 23 13 0.0316 -0.0034
2 23 14 0.4445 0.0075
2 23 15 -0.7270 0.0093
2 23 16 -1.3228 -0.0184
2 23 17 0.6308 0.0038
2 23 18 2.2605 0.0023
2 23 19 -0.2888 0.0551
2 23 20 1.2301 -0.1007
2 23 21 -1.7529 -0.0700
2 24 0 -1.6167 -0.0696
2 24 1 0.1465 0.0175
2 24 2 -0.6348 0.0009
2 24 3 -2.9586 0.0101
2 24 4 1.1586 0.0645
2 24 5 2.6683 -0.0734
2 24 6 0.3030 -0.0460
2 24 7 -1.4757 -0.0271
2 24 8 -1.5933 -0.0079
2 24 9 -0.2720 0.0285
2 24 10 0.5979 0.0252
2 24 11 -1.1293 0.0206
2 24 12 2.2821 -0.0074
2 24 13 2.5137 -0.0161
2 24 14 1.2530 -0.0070
2 24 15 -0.6152 0.0150
2 24 16 -0.3899 -0.0147
2 24 17 -1.5279 -0.0135
2 24 18 -1.6098 0.0540
2 24 19 0.6309 -0.0308
2 24 20 1.0505 -0.0639
2 25 0 -0.4860 -0.0185
2 25 1 0.8099 0.0534
2 25 2 -0.4856 -0.0188
2 25 3 0.9865 -0.0070
2 25 4 1.2595 -0.0089
2 25 5 -1.0787 -0.0563
2 25 6 -1.2513 0.0503
2 25 7 0.4145 0.0016
2 25 8 1.8852 0.0332
2 25 9 -0.7264 0.0267
2 25 10 -1.3619 0.0270
2 25 11 2.0853 -0.0007
2 25 12 2.4275 -0.0332
2 25 13 -3.0706 -0.0144
2 25 14 -2.7067 -0.0305
2 25 15 -2.1147 -0.0028
2 25 16 -0.3245 0.0023
2 25 17 1.3939 0.0494
2 25 18 2.8982 0.0290
2 26 0 -1.2828 0.0111
2 26 1 0.8996 0.0098
2 26 2 0.6071 -0.0243
2 26 3 -0.3669 0.0042
2 26 4 -1.8224 -0.0012
2 26 5 -0.1474 0.0184
2 26 6 1.8651 0.0404
2 26 7 1.4665 -0.0355
2 26 8 -0.6157 0.0238
2 26 9 -2.6974 -0.0389
2 26 10 -0.4272 -0.0120
2 26 11 1.3009 -0.0236
2 26 12 -0.0809 -0.0161
2 26 13 -0.3104 -0.0309
2 26 14 1.8351 0.0214
2 26 15 0.5250 0.1308
2 26 16 1.6671 0.0076
2 26 17 0.5807 -0.0554
2 27 0 1.7131 -0.0225
2 27 1 0.7196 0.0154
2 27 2 -1.5372 0.0215
2 27 3 -0.7114 -0.0110
2 27 4 0.6065 0.0201
2 27 5 2.9301 0.0103
2 27 6 1.1854 -0.0143
2 27 7 -3.3243 -0.0189
2 27 8 -1.8755 0.0035
2 27 9 0.5565 -0.0069
2 27 10 2.0932 0.0605
2 27 11 2.3306 -0.0246
2 27 12 -0.3376 0.0002
2 27 13 -2.2076 0.0136
2 27 14 -1.6624 0.0570
2 28 3 1.7307 -0.0408
2 28 4 -0.4223 0.0036
2 28 5 0.1163 -0.0356
2 28 6 -2.6547 0.0016
2 28 7 -1.6383 -0.0184
2 28 8 2.9902 0.0037
2 28 9 0.0449 0.0141
2 28 10 -0.3627 -0.0249
3 -26 0 4.1671 0.1393
3 -25 0 0.4135 0.0954
3 -25 1 -3.3399 -0.2004
3 -25 2 0.1577 0.0351
3 -25 3 1.1632 -0.0090
3 -25 4 0.2895 0.0601
3 -24 0 0.5848 -0.1383
3 -24 1 0.3811 0.0030
3 -24 2 0.7445 0.1491
3 -24 3 -0.6120 -0.0479
3 -24 4 0.1710 -0.0037
3 -24 5 1.1217 -0.0677
3 -24 6 0.7891 -0.0313
3 -23 0 2.7009 0.0659
3 -23 1 -1.4487 0.0484
3 -23 2 0.1467 -0.0017
3 -23 3 0.9249 -0.0516
3 -23 4 -0.9614 0.0259
3 -23 5 -1.6182 0.0281
3 -23 6 -0.3948 0.0034
3 -23 7 -0.0929 -0.0493
3 -23 8 -0.0757 -0.0249
3 -22 0 -1.6384 -0.0150
3 -22 1 -2.8645 -0.0366
3 -22 2 1.5447 -0.0032
3 -22 3 -1.3344 -0.0087
3 -22 4 -1.3732 0.0406
3 -22 5 2.7429 -0.0255
3 -22 6 2.2595 -0.0425
3 -22 7 -1.0581 0.0506
3 -22 8 -0.7670 0.0340
3 -22 9 0.4503 -0.0221
3 -22 10 0.4240 -0.0250
3 -21 0 -0.7956 -0.0557
3 -21 1 1.9364 0.0379
3 -21 2 2.6605 0.0066
3 -21 3 -2.2910 0.0332
3 -21 4 0.7365 -0.0025
3 -21 5 1.3419 -0.0598
3 -21 6 -2.1392 0.0294
3 -21 7 -1.6951 0.0200
3 -21 8 0.6930 -0.0369
3 -21 9 0.3152 0.0083
3 -21 10 0.4823 -0.0080
3 -21 11 0.0211 0.0417
3 -21 12 -0.9409 -0.0258
3 -20 0 1.1397 0.1179
3 -20 1 1.1871 0.0330
3 -20 2 -2.3140 -0.0312
3 -20 3 -2.6308 0.0117
3 -20 4 2.1714 -0.0504
3 -20 5 0.3173 0.0251
3 -20 6 -0.1150 0.0416
3 -20 7 1.0863 -0.0284
3 -20 8 0.3286 -0.0084
3 -20 9 0.4360 -0.0073
3 -20 10 0.6726 -0.0081
3 -20 11 -1.6856 0.0586
3 -20 12 -0.8717 -0.0712
3 -20 13 1.3682 -0.0091
3 -19 0 0.4689 0.1342
3 -19 1 -1.5256 -0.1175
3 -19 2 -0.9802 -0.0292
3 -19 3 0.5348 -0.0050
3 -19 4 1.6016 0.0069
3 -19 5 0.7017 0.0639
3 -19 6 0.0449 -0.0419
3 -19 7 -2.4953 -0.0296
3 -19 8 -1.2694 0.0124
3 -19 9 0.6139 0.0081
3 -19 10 -0.5335 0.0215
3 -19 11 -0.5224 0.0224
3 -19 12 1.2638 -0.0408
3 -19 13 1.2226 0.0550
3 -19 14 -0.2404 -0.0236
3 -18 0 -0.0780 -0.1503
3 -18 1 -0.8015 -0.0929
3 -18 2 0.5825 0.0645
3 -18 3 -0.1961 0.0279
3 -18 4 2.1586 0.0689
3 -18 5 -0.7904 -0.0291
3 -18 6 -3.0639 -0.0778
3 -18 7 0.0057 0.0244
3 -18 8 3.2567 0.0081
3 -18 9 0.9584 0.0084
3 -18 10 0.3899 0.0209
3 -18 11 0.0867 0.0054
3 -18 12 -0.4521 -0.0482
3 -18 13 0.0123 0.0019
3 -18 14 -1.8980 -0.0182
3 -18 15 -0.8276 0.0243
3 -18 16 0.3776 0.0236
3 -17 0 -1.6225 -0.1202
3 -17 1 -0.3080 0.0958
3 -17 2 0.2340 0.0437
3 -17 3 0.3664 0.0273
3 -17 4 0.5440 -0.0199
3 -17 5 -2.0132 -0.0999
3 -17 6 1.2187 0.0302
3 -17 7 1.2591 0.0362
3 -17 8 -1.0731 -0.0058
3 -17 9 -0.5536 0.0313
3 -17 10 0.1575 -0.0105
3 -17 11 -2.5288 -0.0261
3 -17 12 0.2871 -0.0153
3 -17 13 1.3631 0.0261
3 -17 14 -0.2674 -0.0177
3 -17 15 1.6454 -0.0070
3 -17 16 0.2148 0.0233
3 -17 17 -0.1711 0.0286
3 -16 0 -1.7904 0.1219
3 -16 1 -0.0329 0.1038
3 -16 2 1.1048 -0.0081
3 -16 3 -0.0591 -0.0414
3 -16 4 0.3640 -0.0958
3 -16 5 -0.4534 0.0220
3 -16 6 -0.4607 0.0717
3 -16 7 -1.0350 -0.0282
3 -16 8 1.6013 0.0171
3 -16 9 1.1674 0.0003
3 -16 10 -1.3528 -0.0268
3 -16 11 -0.2900 0.0205
3 -16 12 2.7823 -0.0096
3 -16 13 -0.9674 -0.0031
3 -16 14 -2.1890 0.0061
3 -16 15 -0.1727 0.0125
3 -16 16 0.8146 0.0006
3 -16 17 0.5864 -0.0049
3 -16 18 -1.2321 0.0003
3 -15 0 -1.8095 0.1196
3 -15 1 2.1111 -0.0879
3 -15 2 1.1087 -0.0773
3 -15 3 -0.2400 -0.0491
3 -15 4 0.0931 0.0490
3 -15 5 -2.2708 0.1004
3 -15 6 0.9470 -0.0157
3 -15 7 2.0690 -0.0327
3 -15 8 0.2945 0.0096
3 -15 9 -1.9931 -0.0267
3 -15 10 -0.7370 0.0128
3 -15 11 -0.1113 -0.0007
3 -15 12 0.1126 -0.0220
3 -15 13 -0.0882 0.0166
3 -15 14 1.1468 -0.0012
3 -15 15 1.6336 -0.0059
3 -15 16 0.3065 0.0217
3 -15 17 -2.1483 0.0260
3 -15 18 -0.2490 -0.0156
3 -15 19 1.1331 -0.0384
3 -14 0 0.7647 -0.1622
3 -14 1 2.7968 -0.0356
3 -14 2 0.3896 0.0353
3 -14 3 -0.5910 0.0369
3 -14 4 -1.7184 0.0748
3 -14 5 -0.4264 -0.0200
3 -14 6 2.8824 -0.0670
3 -14 7 -0.9013 -0.0120
3 -14 8 -2.4533 0.0002
3 -14 9 -0.5832 0.0107
3 -14 10 2.1400 0.0244
3 -14 11 1.1304 0.0026
3 -14 12 1.9221 0.0036
3 -14 13 -1.4044 -0.0117
3 -14 14 -3.3323 0.0047
3 -14 15 0.2632 -0.0057
3 -14 16 0.8893 -0.0069
3 -14 17 -0.2536 0.0055
3 -14 18 0.5437 0.0012
3 -14 19 -0.3863 -0.0158
3 -13 0 3.6426 -0.0296
3 -13 1 3.5700 0.1399
3 -13 2 -2.6810 0.0010
3 -13 3 -3.7870 0.0396
3 -13 4 -0.4959 -0.0179
3 -13 5 1.5521 -0.0916
3 -13 6 0.9877 -0.0123
3 -13 7 -0.9421 0.0216
3 -13 8 0.3397 0.0191
3 -13 9 2.2867 0.0222
3 -13 10 0.2980 -0.0009
3 -13 11 -2.9274 -0.0173
3 -13 12 -0.5023 -0.0249
3 -13 13 -1.8541 0.0035
3 -13 14 2.7658 0.0127
3 -13 15 4.0225 -0.0167
3 -13 16 -1.9857 0.0369
3 -13 17 -2.1750 0.0080
3 -13 18 0.1286 -0.0208
3 -13 19 0.6283 -0.0493
3 -13 20 0.6077 0.0018
3 -12 0 3.9611 0.2074
3 -12 1 -3.0615 -0.0160
3 -12 2 -5.1593 -0.0875
3 -12 3 2.6604 -0.0054
3 -12 4 4.4704 -0.0903
3 -12 5 0.6302 0.0225
3 -12 6 -0.0511 0.0673
3 -12 7 -1.4968 0.0132
3 -12 8 -1.1836 0.0150
3 -12 9 -0.1772 -0.0026
3 -12 10 -0.8642 -0.0114
3 -12 11 1.6773 -0.0026
3 -12 12 2.0495 0.0030
3 -12 13 -2.0251 -0.0001
3 -12 14 0.3678 -0.0141
3 -12 15 -2.3253 0.0150
3 -12 16 -1.1072 0.0126
3 -12 17 2.4230 -0.0151
3 -12 18 0.8402 0.0176
3 -12 19 -0.0634 -0.0200
3 -12 20 -0.2439 0.0265
3 -12 21 -0.2471 0.0090
3 -11 0 4.5737 -0.0528
3 -11 1 -0.6777 -0.1861
3 -11 2 -1.0441 0.0542
3 -11 3 1.6748 0.0181
3 -11 4 -1.9281 0.0053
3 -11 5 -2.8757 0.0846
3 -11 6 -0.8715 -0.0210
3 -11 7 -0.0072 -0.0123
3 -11 8 2.1285 -0.0142
3 -11 9 1.4301 -0.0188
3 -11 10 -0.3132 -0.0006
3 -11 11 -0.8873 -0.0096
3 -11 12 -2.3499 0.0023
3 -11 13 -0.2401 -0.0042
3 -11 14 3.5497 0.0094
3 -11 15 1.0468 0.0109
3 -11 16 0.7825 -0.0086
3 -11 17 -1.6879 0.0084
3 -11 18 -1.6434 -0.0097
3 -11 19 0.1722 -0.0258
3 -11 20 0.2434 -0.0016
3 -11 21 0.2471 0.0015
3 -11 22 -0.5252 0.0469
3 -10 0 0.4627 -0.1904
3 -10 1 -11.1779 0.0825
3 -10 2 -2.8305 0.1100
3 -10 3 5.9023 -0.0563
3 -10 4 2.0867 0.0489
3 -10 5 -0.5037 -0.0150
3 -10 6 0.0976 -0.0570
3 -10 7 0.9159 -0.0054
3 -10 8 0.3528 -0.0192
3 -10 9 -1.6156 0.0323
3 -10 10 -0.4929 0.0068
3 -10 11 1.2642 0.0073
3 -10 12 0.7648 0.0060
3 -10 13 0.4677 -0.0256
3 -10 14 -0.5544 0.0103
3 -10 15 -2.9793 0.0059
3 -10 16 -0.7918 0.0091
3 -10 17 0.8867 0.0135
3 -10 18 2.0112 -0.0071
3 -10 19 0.2080 -0.0222
3 -10 20 -0.4284 -0.0222
3 -10 21 -0.1529 0.0330
3 -10 22 -0.2336 0.0105
3 -9 0 -7.2391 0.1050
3 -9 1 -5.3941 0.1425
3 -9 2 8.5633 -0.0829
3 -9 3 2.5548 -0.0364
3 -9 4 -5.4271 0.0076
3 -9 5 -2.7157 -0.0661
3 -9 6 0.6750 0.0184
3 -9 7 3.1141 0.0275
3 -9 8 1.1769 0.0424
3 -9 9 -1.7677 0.0242
3 -9 10 -0.4705 -0.0233
3 -9 11 -1.1201 -0.0060
3 -9 12 -1.3426 -0.0230
3 -9 13 1.1138 0.0053
3 -9 14 1.0002 0.0106
3 -9 15 0.1336 -0.0156
3 -9 16 1.8459 0.0185
3 -9 17 0.1987 0.0025
3 -9 18 -1.4362 -0.0231
3 -9 19 -2.2401 -0.0226
3 -9 20 0.6026 0.0091
3 -9 21 1.4221 0.0375
3 -9 22 -0.1557 0.0293
3 -9 23 -0.1802 0.0298
3 -8 0 -23.0978 0.0439
3 -8 1 -1.5344 -0.1012
3 -8 2 12.3079 -0.0748
3 -8 3 4.0533 0.0402
3 -8 4 -2.3238 0.0159
3 -8 5 -3.0900 0.0171
3 -8 6 1.0235 0.0290
3 -8 7 2.1661 0.0180
3 -8 8 -3.8221 -0.0025
3 -8 9 -2.7959 -0.0446
3 -8 10 1.7541 -0.0188
3 -8 11 1.7011 -0.0173
3 -8 12 2.9642 0.0070
3 -8 13 0.3609 0.0111
3 -8 14 -2.9447 -0.0019
3 -8 15 -0.8366 0.0341
3 -8 16 1.3806 0.0199
3 -8 17 -0.1442 -0.0207
3 -8 18 -1.0826 -0.0187
3 -8 19 -0.2882 -0.0155
3 -8 20 2.9196 0.0093
3 -8 21 0.1529 0.0247
3 -8 22 -1.5333 0.0252
3 -8 23 -0.1316 -0.0425
3 -8 24 -0.3714 -0.0970
3 -7 0 -2.4250 -0.1166
3 -7 1 23.3081 0.0120
3 -7 2 8.2214 0.0384
3 -7 3 -15.7262 0.0322
3 -7 4 -14.4021 -0.0036
3 -7 5 3.0461 -0.0230
3 -7 6 9.5189 0.0140
3 -7 7 2.0462 -0.0026
3 -7 8 -2.1426 -0.0445
3 -7 9 1.5669 -0.0022
3 -7 10 0.7607 0.0093
3 -7 11 -0.9461 0.0077
3 -7 12 -0.6559 0.0348
3 -7 13 -2.9166 -0.0048
3 -7 14 0.1997 0.0050
3 -7 15 2.6951 -0.0057
3 -7 16 0.4696 -0.0183
3 -7 17 -2.0561 -0.0017
3 -7 18 -1.2844 -0.0194
3 -7 19 1.4464 -0.0085
3 -7 20 1.9150 0.0145
3 -7 21 -2.2186 0.0225
3 -7 22 -0.9605 0.0272
3 -7 23 0.3352 -0.0495
3 -7 24 0.7048 -0.0295
3 -6 0 -5.1296 0.1575
3 -6 1 3.3135 0.0585
3 -6 2 -4.0434 -0.0307
3 -6 3 -3.7733 0.0078
3 -6 4 7.7967 -0.0402
3 -6 5 8.8791 0.0064
3 -6 6 -0.8356 0.0175
3 -6 7 -5.5286 -0.0318
3 -6 8 -5.2971 0.0124
3 -6 9 -1.6046 0.0262
3 -6 10 1.3116 0.0030
3 -6 11 3.0029 0.0114
3 -6 12 0.9745 -0.0046
3 -6 13 -1.7939 -0.0218
3 -6 14 0.0416 0.0104
3 -6 15 0.3464 0.0013
3 -6 16 0.5512 -0.0022
3 -6 17 0.0341 -0.0084
3 -6 18 -0.0778 -0.0129
3 -6 19 0.4132 0.0049
3 -6 20 -0.0276 0.0135
3 -6 21 -1.0593 0.0396
3 -6 22 1.2221 0.0111
3 -6 23 0.5533 -0.0377
3 -6 24 -0.2594 -0.0018
3 -6 25 -0.7075 -0.0069
3 -5 0 11.3063 0.1388
3 -5 1 23.2972 -0.1692
3 -5 2 -2.5203 -0.0131
3 -5 3 -17.1555 -0.0236
3 -5 4 -6.6380 0.0049
3 -5 5 3.7947 0.0704
3 -5 6 4.0033 -0.0255
3 -5 7 -1.5839 0.0090
3 -5 8 -1.2406 0.0203
3 -5 9 6.2436 -0.0216
3 -5 10 3.1523 -0.0096
3 -5 11 -3.8532 -0.0182
3 -5 12 -4.2080 -0.0061
3 -5 13 -0.4894 0.0033
3 -5 14 2.9366 0.0125
3 -5 15 2.9657 -0.0088
3 -5 16 -0.5233 0.0043
3 -5 17 -4.0361 0.0171
3 -5 18 -0.6138 -0.0157
3 -5 19 2.7891 -0.0034
3 -5 20 1.0266 0.0301
3 -5 21 -1.1945 0.0200
3 -5 22 -0.3231 -0.0288
3 -5 23 -1.1314 -0.0445
3 -5 24 0.1912 -0.0689
3 -5 25 0.8435 0.0139
3 -4 0 3.1575 -0.2413
3 -4 1 -6.7646 -0.0869
3 -4 2 -15.9207 0.0920
3 -4 3 4.2796 -0.0015
3 -4 4 17.0875 0.0969
3 -4 5 6.5191 -0.0379
3 -4 6 -4.3179 -0.0592
3 -4 7 -7.3284 0.0376
3 -4 8 -1.6773 -0.0369
3 -4 9 1.9490 -0.0114
3 -4 10 -2.1551 0.0072
3 -4 11 0.9424 0.0096
3 -4 12 4.1444 0.0266
3 -4 13 -0.1237 0.0048
3 -4 14 -1.0104 0.0132
3 -4 15 -0.1039 -0.0119
3 -4 16 -3.0015 -0.0094
3 -4 17 -0.5584 -0.0146
3 -4 18 4.2511 -0.0185
3 -4 19 0.1260 0.0177
3 -4 20 -3.2628 0.0081
3 -4 21 -0.6571 -0.0124
3 -4 22 1.3149 -0.0087
3 -4 23 0.5090 -0.0094
3 -4 24 0.7541 -0.0005
3 -4 25 -0.6007 0.1200
3 -3 0 30.1728 -0.1434
3 -3 1 14.6375 0.1804
3 -3 2 -4.3944 0.0482
3 -3 3 -6.2521 0.0166
3 -3 4 -8.6855 -0.0148
3 -3 5 -1.3541 -0.1170
3 -3 6 2.6659 0.0465
3 -3 7 -3.1526 0.0096
3 -3 8 3.0353 -0.0231
3 -3 9 8.2449 0.0351
3 -3 10 0.5556 0.0004
3 -3 11 -5.6381 0.0125
3 -3 12 -6.3958 -0.0043
3 -3 13 -1.1754 -0.0124
3 -3 14 5.9573 -0.0096
3 -3 15 2.3229 -0.0215
3 -3 16 -3.6103 0.0065
3 -3 17 0.4502 0.0088
3 -3 18 1.3899 0.0052
3 -3 19 -1.8030 0.0180
3 -3 20 0.7522 0.0126
3 -3 21 1.9051 0.0098
3 -3 22 -0.3548 -0.0005
3 -3 23 -0.8768 -0.0180
3 -3 24 0.0967 -0.0125
3 -3 25 -0.0421 0.0205
3 -3 26 0.4597 -0.0644
3 -2 0 -4.1160 0.2069
3 -2 2 -14.1333 -0.0769
3 -2 3 13.2483 -0.0471
3 -2 4 15.6515 -0.0924
3 -2 5 8.3602 0.0368
3 -2 6 -6.7952 0.0830
3 -2 7 -6.8433 -0.0213
3 -2 8 5.4347 0.0304
3 -2 9 -1.2113 -0.0011
3 -2 10 -9.8585 -0.0130
3 -2 11 0.0212 0.0001
3 -2 12 9.1362 -0.0108
3 -2 13 5.1905 -0.0013
3 -2 14 -0.7065 -0.0033
3 -2 15 -4.9989 0.0127
3 -2 16 -3.2082 0.0014
3 -2 17 3.2031 0.0084
3 -2 18 2.1498 0.0114
3 -2 19 -1.1547 -0.0041
3 -2 20 -0.7061 -0.0158
3 -2 21 -0.6565 -0.0153
3 -2 22 -0.0530 -0.0155
3 -2 23 1.1819 -0.0151
3 -2 24 0.0449 -0.0248
3 -2 25 -1.5006 0.0478
3 -2 26 -0.1067 0.0555
3 -1 0 -24.5600 0.1251
3 -1 1 24.4381 -0.1477
3 -1 2 31.4836 -0.0597
3 -1 3 -2.6065 -0.0240
3 -1 7 2.3851 -0.0238
3 -1 8 4.9184 -0.0038
3 -1 9 -0.1690 -0.0464
3 -1 10 2.3755 -0.0046
3 -1 11 3.4649 -0.0036
3 -1 12 -3.0680 0.0166
3 -1 13 -3.8346 0.0002
3 -1 14 1.6877 0.0111
3 -1 15 -1.1932 0.0018
3 -1 16 -0.9587 -0.0191
3 -1 17 3.6437 0.0114
3 -1 18 -0.6036 -0.0210
3 -1 19 -3.3221 -0.0032
3 -1 20 0.8149 0.0064
3 -1 21 1.8724 -0.0088
3 -1 22 -0.0336 0.0135
3 -1 23 -1.2405 0.0187
3 -1 24 -1.8213 0.0156
3 -1 25 0.7401 0.0725
3 -1 26 2.4688 -0.0673
3 0 0 27.4344 -0.2013
3 0 1 0.7104 -0.0767
3 0 2 -30.9758 0.0706
3 0 3 -4.9329 0.0422
3 0 7 4.1541 0.0047
3 0 8 3.8964 -0.0307
3 0 9 -1.2962 0.0079
3 0 10 -5.8058 0.0289
3 0 11 -2.8758 0.0156
3 0 12 3.7990 0.0219
3 0 13 3.0678 -0.0117
3 0 14 -2.6966 0.0012
3 0 15 -4.7723 -0.0250
3 0 16 3.0153 0.0002
3 0 17 3.2986 0.0144
3 0 18 -3.2100 -0.0014
3 0 19 -0.5603 0.0204
3 0 20 2.9880 -0.0088
3 0 21 -0.3606 0.0117
3 0 22 -1.0893 0.0231
3 0 23 0.6747 -0.0269
3 0 24 0.7751 -0.0309
3 0 25 1.1470 0.0019
3 0 26 -0.6614 -0.0509
3 0 27 -1.4651 0.0676
3 1 0 -1.0455 -0.0865
3 1 1 -13.5194 0.1792
3 1 2 10.5042 0.0349
3 1 3 15.5379 0.0192
3 1 4 -12.6445 -0.0359
3 1 5 -7.1583 -0.1169
3 1 6 4.2035 0.0086
3 1 7 0.6560 0.0339
3 1 8 1.4897 0.0112
3 1 9 -6.3419 0.0428
3 1 10 -3.1011 -0.0025
3 1 11 6.4842 0.0153
3 1 12 1.8831 -0.0058
3 1 13 -3.7006 -0.0265
3 1 14 -0.0058 -0.0088
3 1 15 2.4928 -0.0112
3 1 16 2.4991 0.0164
3 1 17 -1.7916 0.0047
3 1 18 -1.7145 0.0111
3 1 19 2.1927 0.0065
3 1 20 1.3467 -0.0158
3 1 21 -1.9005 -0.0170
3 1 22 -0.8282 -0.0192
3 1 23 -1.0766 -0.0043
3 1 24 -0.8521 0.0225
3 1 25 1.4946 0.0146
3 1 26 0.0867 -0.0295
3 1 27 -0.3112 0.0487
3 2 0 -5.7193 0.2379
3 2 1 -10.8728 0.0287
3 2 2 -4.3390 -0.0901
3 2 3 -4.1214 -0.0001
3 2 4 4.9420 -0.0922
3 2 5 8.4402 0.0355
3 2 6 -2.8164 0.0806
3 2 7 4.3833 0.0076
3 2 8 1.1776 0.0116
3 2 9 -9.0235 -0.0098
3 2 10 4.8817 -0.0149
3 2 11 5.0373 -0.0110
3 2 12 -2.1504 -0.0317
3 2 13 -0.9906 -0.0015
3 2 14 -1.1723 -0.0037
3 2 15 -0.9179 0.0160
3 2 16 1.7280 0.0203
3 2 17 -0.7752 0.0018
3 2 18 -0.9442 0.0016
3 2 19 0.8161 -0.0218
3 2 20 -1.0247 -0.0111
3 2 21 -2.2946 0.0046
3 2 22 1.1488 0.0189
3 2 23 1.4871 0.0080
3 2 24 2.6028 -0.0019
3 2 25 0.2685 -0.0014
3 2 26 -3.3799 0.0335
3 2 27 0.0063 0.0442
3 3 0 -4.9683 0.0061
3 3 1 6.9132 -0.1939
3 3 2 16.1734 0.0223
3 3 3 9.3554 -0.0142
3 3 4 -7.4470 0.0054
3 3 5 -10.4757 0.1108
3 3 6 1.7014 -0.0306
3 3 7 4.0743 -0.0265
3 3 8 -10.3019 -0.0284
3 3 9 -1.2265 -0.0191
3 3 10 10.6660 0.0006
3 3 11 -1.7248 -0.0072
3 3 12 -3.9140 0.0212
3 3 13 -1.0559 0.0059
3 3 14 0.8910 0.0090
3 3 15 3.0052 0.0268
3 3 16 -0.4033 -0.0185
3 3 17 -4.0912 -0.0014
3 3 18 1.3786 -0.0048
3 3 19 3.0696 -0.0095
3 3 20 -1.3390 0.0043
3 3 21 -0.3379 -0.0155
3 3 22 1.2281 0.0117
3 3 23 -0.9131 0.0109
3 3 24 0.1472 0.0004
3 3 25 -2.2662 -0.0049
3 3 26 0.2133 -0.0182
3 3 27 2.9459 -0.0429
3 4 0 13.6957 -0.2059
3 4 1 -2.7081 0.0454
3 4 2 -9.3665 0.1021
3 4 3 -13.1162 -0.0216
3 4 4 -3.5379 0.0733
3 4 5 8.1933 -0.0329
3 4 6 4.1301 -0.0768
3 4 7 -0.5042 0.0011
3 4 8 0.0397 -0.0097
3 4 9 7.4708 0.0422
3 4 10 -0.0078 0.0071
3 4 11 -8.8582 0.0134
3 4 12 0.2563 0.0083
3 4 13 2.1273 -0.0154
3 4 14 0.3129 0.0120
3 4 15 0.3957 -0.0194
3 4 16 -0.6311 -0.0162
3 4 17 0.5760 0.0108
3 4 18 2.6453 -0.0168
3 4 19 -2.6103 0.0114
3 4 20 -2.8430 0.0053
3 4 21 1.5612 0.0030
3 4 22 1.2643 0.0208
3 4 23 1.9379 -0.0021
3 4 24 0.6342 0.0098
3 4 25 -2.5535 -0.0165
3 4 26 1.2169 -0.0061
3 4 27 -0.2311 0.0306
3 5 0 -18.2684 0.0957
3 5 1 -12.7060 0.1403
3 5 2 7.6225 -0.0634
3 5 3 4.8921 -0.0151
3 5 4 5.4521 -0.0028
3 5 5 1.8128 -0.0781
3 5 6 -0.5034 0.0261
3 5 7 -0.9694 0.0314
3 5 8 -5.9166 0.0372
3 5 9 -2.3034 0.0198
3 5 10 -2.7566 -0.0240
3 5 11 1.3544 0.0026
3 5 12 5.7613 -0.0314
3 5 13 0.0675 -0.0050
3 5 14 0.4369 0.0079
3 5 15 1.1961 -0.0069
3 5 16 -3.0267 0.0164
3 5 17 -3.0571 0.0040
3 5 18 1.2763 0.0021
3 5 19 1.9148 0.0100
3 5 20 1.9978 -0.0126
3 5 21 -0.0637 0.0000
3 5 22 -0.3189 -0.0030
3 5 23 -1.0359 -0.0009
3 5 24 -3.5406 -0.0187
3 5 25 -0.1458 -0.0329
3 5 26 1.8996 0.0330
3 5 27 -0.9222 0.0039
3 6 0 -12.6860 0.0786
3 6 1 22.7379 -0.0928
3 6 2 5.4878 -0.0743
3 6 3 -8.8713 0.0348
3 6 4 4.4028 -0.0277
3 6 5 -2.7419 0.0152
3 6 6 -5.8830 0.0632
3 6 7 -2.0478 0.0073
3 6 8 3.0945 -0.0093
3 6 9 8.6876 -0.0500
3 6 10 1.7593 -0.0169
3 6 11 -2.2701 -0.0067
3 6 12 -1.1874 -0.0014
3 6 13 -1.3162 0.0330
3 6 14 -0.9788 -0.0004
3 6 15 -1.6025 0.0027
3 6 16 -1.9058 0.0030
3 6 17 4.8595 -0.0157
3 6 18 5.5869 0.0009
3 6 19 -4.9926 0.0030
3 6 20 -5.3643 -0.0039
3 6 21 1.3249 -0.0068
3 6 22 2.3624 -0.0081
3 6 23 -0.7743 0.0207
3 6 24 0.5828 0.0173
3 6 25 0.8818 0.0093
3 6 26 -0.5119 -0.0121
3 6 27 1.6144 -0.0308
3 6 28 0.9553 0.0167
3 7 0 29.2696 -0.1075
3 7 1 7.8762 -0.0450
3 7 2 -21.7150 0.0396
3 7 3 0.0922 0.0421
3 7 4 4.0613 -0.0003
3 7 5 -5.9762 0.0322
3 7 6 6.8765 -0.0067
3 7 7 4.2092 -0.0504
3 7 8 -0.7093 -0.0292
3 7 9 -3.3256 -0.0021
3 7 10 -8.5615 0.0374
3 7 11 -0.5117 0.0187
3 7 12 5.5011 0.0224
3 7 13 0.5804 -0.0036
3 7 14 0.0144 -0.0155
3 7 15 0.7983 0.0047
3 7 16 -0.4299 -0.0226
3 7 17 1.8204 -0.0055
3 7 18 -5.3146 0.0176
3 7 19 -4.0507 -0.0081
3 7 20 7.5927 0.0020
3 7 21 3.8976 0.0099
3 7 22 -3.2338 0.0101
3 7 23 -2.0998 0.0087
3 7 24 -0.3584 -0.0279
3 7 25 -0.6414 -0.0275
3 7 26 2.8975 0.0002
3 7 27 1.2899 0.0353
3 7 28 -3.0854 0.0315
3 8 0 -4.8758 0.0655
3 8 1 -23.4351 0.0658
3 8 2 -4.2362 0.0175
3 8 3 12.2191 -0.0058
3 8 4 2.1171 -0.0392
3 8 5 0.8486 0.0084
3 8 6 -3.5249 -0.0258
3 8 7 -7.2358 -0.0156
3 8 8 5.5993 0.0313
3 8 9 1.8617 0.0312
3 8 10 -0.1706 0.0171
3 8 11 5.6373 -0.0115
3 8 12 0.2541 -0.0141
3 8 13 -4.4717 -0.0345
3 8 14 -1.2755 -0.0041
3 8 15 -0.9595 0.0012
3 8 16 0.1602 -0.0010
3 8 17 2.4553 0.0351
3 8 18 -0.0864 0.0107
3 8 19 3.3197 -0.0048
3 8 20 0.0468 0.0058
3 8 21 -4.8149 -0.0166
3 8 22 -1.1097 -0.0082
3 8 23 1.4078 -0.0110
3 8 24 2.0023 -0.0008
3 8 25 1.7262 0.0129
3 8 26 0.2610 0.0048
3 8 27 -3.3364 0.0319
3 8 28 -1.5915 -0.0050
3 9 0 -7.8511 0.0809
3 9 1 6.3472 -0.0821
3 9 2 9.0650 -0.0240
3 9 3 4.1177 -0.0291
3 9 4 -3.2166 0.0144
3 9 5 -6.3186 0.0444
3 9 6 0.8979 -0.0293
3 9 7 12.3129 0.0254
3 9 8 1.3136 0.0252
3 9 9 -13.8582 -0.0088
3 9 10 -1.5236 -0.0225
3 9 11 3.4830 -0.0191
3 9 12 -1.0223 -0.0125
3 9 13 0.2117 -0.0010
3 9 14 2.4645 0.0349
3 9 15 0.6226 0.0104
3 9 16 0.8110 0.0138
3 9 17 0.5907 0.0000
3 9 18 -3.7292 -0.0300
3 9 19 -1.2286 -0.0149
3 9 20 1.0771 -0.0073
3 9 21 1.2417 0.0035
3 9 22 -0.4240 -0.0065
3 9 23 0.6855 -0.0108
3 9 24 0.5897 0.0436
3 9 25 -2.7089 0.0209
3 9 26 -1.4470 0.0126
3 9 27 0.6566 -0.0243
3 10 0 9.2732 -0.1847
3 10 1 -3.0432 -0.0157
3 10 2 -4.9887 0.0425
3 10 3 1.6702 0.0087
3 10 4 -3.0195 0.0644
3 10 5 -0.8782 -0.0310
3 10 6 5.0531 -0.0307
3 10 7 -3.5628 0.0206
3 10 8 -11.1461 -0.0302
3 10 9 3.4797 -0.0182
3 10 10 13.5201 -0.0085
3 10 11 0.9667 0.0163
3 10 12 -3.3063 0.0120
3 10 13 -2.6973 0.0159
3 10 14 -2.3031 0.0020
3 10 15 0.4027 -0.0094
3 10 16 1.9626 -0.0020
3 10 17 -1.7969 -0.0262
3 10 18 -1.4144 -0.0024
3 10 19 4.3546 0.0060
3 10 20 0.3388 0.0076
3 10 21 -2.8069 0.0147
3 10 22 -0.7245 0.0013
3 10 23 1.8961 0.0292
3 10 24 -0.0624 0.0191
3 10 25 -0.7619 -0.0432
3 10 26 1.9201 -0.0313
3 10 27 0.9614 -0.0617
3 11 0 -10.2412 -0.0413
3 11 1 -6.8643 0.1635
3 11 2 7.2330 -0.0120
3 11 3 2.9593 0.0224
3 11 4 -5.2739 -0.0330
3 11 5 2.0092 -0.0731
3 11 6 2.6890 0.0359
3 11 7 -1.0454 -0.0047
3 11 8 2.7416 -0.0045
3 11 9 3.5899 0.0238
3 11 10 -4.8347 0.0168
3 11 11 -7.2631 0.0205
3 11 12 -0.0738 -0.0086
3 11 13 1.9917 -0.0048
3 11 14 5.0254 -0.0158
3 11 15 2.3592 0.0027
3 11 16 -3.5636 -0.0077
3 11 17 -2.0805 0.0006
3 11 18 1.9322 0.0212
3 11 19 0.5519 0.0022
3 11 20 -1.5708 0.0125
3 11 21 0.0318 0.0010
3 11 22 -0.1846 -0.0179
3 11 23 1.3413 -0.0091
3 11 24 0.2968 -0.0160
3 11 25 -0.7604 -0.0071
3 11 26 0.1118 0.0047
3 11 27 -0.6816 -0.0169
3 12 0 -3.2281 0.2486
3 12 1 6.1166 0.0043
3 12 2 3.3208 -0.0874
3 12 3 -4.2735 -0.0083
3 12 4 1.3196 -0.0730
3 12 5 2.1898 0.0524
3 12 6 -2.9597 0.0488
3 12 7 -1.3252 -0.0224
3 12 8 -1.3543 0.0325
3 12 9 -1.5114 0.0056
3 12 10 2.6711 -0.0068
3 12 11 3.6146 -0.0194
3 12 12 2.5372 -0.0146
3 12 13 -0.3191 -0.0125
3 12 14 -3.4676 -0.0066
3 12 15 -3.9107 0.0245
3 12 16 0.6611 -0.0012
3 12 17 1.9166 0.0079
3 12 18 0.3253 -0.0033
3 12 19 1.3715 -0.0168
3 12 20 -0.0763 -0.0090
3 12 21 -1.7563 -0.0061
3 12 22 0.9193 0.0067
3 12 23 2.6064 0.0018
3 12 24 -1.0277 -0.0089
3 12 25 -2.5558 0.0356
3 12 26 -0.5753 0.0234
3 12 27 0.9573 -0.0289
3 13 0 2.2274 0.0558
3 13 1 1.2016 -0.1948
3 13 2 -0.5691 0.0122
3 13 3 0.2847 -0.0136
3 13 4 -2.3511 0.0323
3 13 5 -2.5240 0.0946
3 13 6 3.6294 -0.0378
3 13 7 1.1355 -0.0152
3 13 8 -1.7320 0.0019
3 13 9 2.9708 -0.0380
3 13 10 0.8486 -0.0162
3 13 11 -4.0582 -0.0057
3 13 12 -0.8568 0.0166
3 13 13 -2.0657 0.0005
3 13 14 0.3823 0.0269
3 13 15 4.6331 0.0053
3 13 16 0.1520 -0.0148
3 13 17 -0.8783 0.0038
3 13 18 1.6983 -0.0149
3 13 19 -0.3675 -0.0011
3 13 20 -2.9083 0.0073
3 13 21 -0.0322 0.0142
3 13 22 1.1070 0.0160
3 13 23 -0.7244 -0.0113
3 13 24 -1.8576 0.0170
3 13 25 -0.2903 0.0218
3 13 26 3.2616 -0.0950
3 13 27 1.2508 -0.0485
3 14 0 -0.3187 -0.2293
3 14 1 0.0545 -0.0350
3 14 2 1.7851 0.0922
3 14 3 -2.3228 -0.0034
3 14 4 0.1876 0.0903
3 14 5 5.1026 -0.0566
3 14 6 -1.9125 -0.0720
3 14 7 -4.6905 0.0145
3 14 8 3.2810 -0.0207
3 14 9 2.7024 0.0066
3 14 10 -3.0270 0.0223
3 14 11 -1.4555 0.0237
3 14 12 1.6588 0.0165
3 14 13 -0.2453 -0.0104
3 14 14 2.3770 0.0034
3 14 15 0.0095 -0.0251
3 14 16 -2.2047 0.0002
3 14 17 0.9815 -0.0068
3 14 18 -1.5916 0.0078
3 14 19 -1.6090 0.0197
3 14 20 0.0144 -0.0001
3 14 21 1.7694 0.0158
3 14 22 1.4070 -0.0078
3 14 23 -0.3394 -0.0374
3 14 24 -0.4046 -0.0013
3 14 25 0.8711 -0.0327
3 14 26 0.3153 0.0117
3 15 0 2.1091 -0.0631
3 15 1 2.7602 0.1861
3 15 2 -0.2278 0.0160
3 15 3 -3.2882 0.0110
3 15 4 1.0978 -0.0275
3 15 6 -1.9462 0.0614
3 15 7 4.5323 0.0141
3 15 8 1.2418 0.0184
3 15 9 -3.7851 0.0386
3 15 10 -2.5623 -0.0045
3 15 11 0.5164 0.0083
3 15 12 3.3894 -0.0202
3 15 13 0.8012 -0.0155
3 15 14 -0.2167 -0.0052
3 15 15 -1.8436 -0.0091
3 15 16 -1.5476 0.0266
3 15 17 0.3923 0.0053
3 15 18 0.6202 0.0124
3 15 19 1.3714 -0.0228
3 15 20 0.3138 -0.0165
3 15 21 1.8401 -0.0075
3 15 22 -2.3621 -0.0168
3 15 23 -2.0724 0.0026
3 15 24 2.6973 0.0186
3 15 25 0.9538 0.0027
3 15 26 -0.6456 0.0553
3 16 0 1.1120 0.2121
3 16 1 -0.0285 0.0182
3 16 2 -2.5293 -0.0870
3 16 3 -0.2414 -0.0070
3 16 4 3.7255 -0.0781
3 16 5 0.2145 0.0495
3 16 6 -0.1898 0.0676
3 16 7 -1.1722 -0.0173
3 16 8 -2.2695 0.0236
3 16 9 1.5010 -0.0437
3 16 10 1.1639 -0.0218
3 16 11 1.5970 -0.0152
3 16 12 1.2667 -0.0230
3 16 13 -3.0071 0.0050
3 16 14 -1.3225 -0.0042
3 16 15 -0.5523 0.0233
3 16 16 1.8046 0.0021
3 16 17 3.4672 -0.0180
3 16 18 -0.8530 0.0060
3 16 19 -2.0771 -0.0111
3 16 20 -0.2379 0.0100
3 16 21 0.2961 0.0041
3 16 22 -1.9638 0.0207
3 16 23 3.2596 0.0172
3 16 24 0.6620 0.0187
3 16 25 -4.3638 -0.0133
3 16 26 -0.7119 0.0072
3 17 0 3.1282 0.0108
3 17 1 -1.1040 -0.1502
3 17 2 -2.3340 0.0057
3 17 3 0.1683 -0.0269
3 17 4 -0.3707 0.0264
3 17 5 -2.3560 0.0823
3 17 6 0.5232 -0.0419
3 17 7 2.1698 -0.0190
3 17 8 1.9729 -0.0247
3 17 9 -0.2001 -0.0176
3 17 10 -2.9631 0.0119
3 17 11 -0.0140 0.0015
3 17 12 0.6466 0.0392
3 17 13 -1.1640 0.0105
3 17 14 0.7186 0.0200
3 17 15 1.1361 0.0120
3 17 16 1.4646 -0.0207
3 17 17 -1.7079 0.0203
3 17 18 -4.4358 -0.0124
3 17 19 0.4128 -0.0060
3 17 20 2.9990 0.0035
3 17 21 0.7368 -0.0054
3 17 22 -1.0962 0.0149
3 17 23 1.1808 -0.0150
3 17 24 -2.2187 -0.0346
3 17 25 0.5982 -0.0614
3 17 26 3.1439 0.0557
3 18 0 -1.6718 -0.1474
3 18 1 -4.2418 0.0074
3 18 2 -0.0397 0.0471
3 18 3 2.6668 0.0078
3 18 4 3.4892 0.0763
3 18 5 0.9989 -0.0355
3 18 6 -0.4527 -0.0457
3 18 7 -1.2933 0.0083
3 18 8 -2.2065 -0.0095
3 18 9 -1.5597 0.0250
3 18 10 0.8702 0.0037
3 18 11 3.1198 0.0328
3 18 12 -0.1669 -0.0005
3 18 13 -1.4700 -0.0227
3 18 14 0.9706 0.0031
3 18 15 -0.4316 -0.0415
3 18 16 -0.9002 -0.0081
3 18 17 -0.2606 0.0077
3 18 18 0.8929 -0.0129
3 18 19 3.2371 0.0195
3 18 20 0.4614 -0.0325
3 18 21 -2.2708 0.0174
3 18 22 -0.9888 0.0067
3 18 23 0.6063 0.0101
3 18 24 -1.1232 0.0286
3 18 25 1.0074 -0.0013
3 19 0 -0.6162 0.0277
3 19 1 -0.6043 0.1006
3 19 2 2.3816 -0.0088
3 19 3 1.7538 0.0103
3 19 4 -2.0390 -0.0128
3 19 5 -5.2473 -0.0627
3 19 6 -0.4627 0.0152
3 19 7 2.9462 0.0268
3 19 8 1.8239 0.0237
3 19 9 -0.1312 0.0153
3 19 10 -0.2711 -0.0157
3 19 11 -0.0697 -0.0006
3 19 12 -1.7791 -0.0277
3 19 13 -0.1028 0.0054
3 19 14 0.6726 -0.0109
3 19 15 -0.2230 -0.0073
3 19 16 1.2524 0.0351
3 19 17 0.1467 0.0049
3 19 18 -1.5348 -0.0063
3 19 19 0.0980 0.0057
3 19 20 -0.6492 0.0007
3 19 21 -1.1987 0.0382
3 19 22 0.3480 -0.0310
3 19 23 1.9718 0.0185
3 19 24 0.6373 -0.0655
3 20 0 -1.9352 0.0808
3 20 1 -0.8908 -0.0332
3 20 2 1.5371 -0.0584
3 20 3 -1.4517 0.0024
3 20 4 -0.2367 -0.0252
3 20 5 2.4861 0.0178
3 20 6 2.4945 0.0522
3 20 7 -1.3995 -0.0081
3 20 8 -3.6515 -0.0335
3 20 9 -1.1009 -0.0270
3 20 10 3.4307 -0.0163
3 20 11 1.3535 0.0060
3 20 12 -1.4658 0.0016
3 20 13 0.8244 0.0053
3 20 14 1.1307 -0.0062
3 20 15 -0.2200 0.0148
3 20 16 -0.9663 -0.0016
3 20 17 -0.5687 -0.0107
3 20 18 0.5007 0.0108
3 20 19 1.2845 -0.0005
3 20 20 -1.3364 -0.0187
3 20 21 -0.4472 0.0095
3 20 22 2.7020 -0.0287
3 20 23 -0.0765 0.0347
3 20 24 -3.5077 -0.0066
3 21 0 0.1633 -0.0450
3 21 1 0.2222 -0.0605
3 21 2 0.6798 0.0247
3 21 3 0.4341 0.0192
3 21 4 1.9576 0.0091
3 21 5 -3.6184 0.0381
3 21 6 -3.5787 -0.0236
3 21 7 2.4833 -0.0511
3 21 8 4.3776 0.0017
3 21 9 1.9692 0.0157
3 21 10 -1.4438 0.0181
3 21 11 -3.9253 0.0271
3 21 12 -0.8861 0.0107
3 21 13 1.1010 0.0014
3 21 14 -0.6036 0.0131
3 21 15 -1.6127 -0.0009
3 21 16 0.1202 -0.0144
3 21 17 1.3929 0.0121
3 21 18 -0.8317 0.0062
3 21 19 -0.2001 0.0055
3 21 20 0.1602 0.0049
3 21 21 1.6254 -0.0247
3 21 22 -0.0959 -0.0351
3 21 23 -2.5084 0.0692
3 22 0 -3.1852 0.0064
3 22 1 0.3969 0.0308
3 22 2 1.0426 0.0264
3 22 3 -0.7804 -0.0188
3 22 4 -1.5617 0.0034
3 22 5 -1.3433 0.0026
3 22 6 4.2212 -0.0396
3 22 7 3.2467 -0.0012
3 22 8 -4.0837 0.0284
3 22 9 -4.6304 0.0274
3 22 10 -0.0026 0.0232
3 22 11 1.0582 -0.0119
3 22 12 1.4653 -0.0177
3 22 13 1.0381 -0.0281
3 22 14 0.5157 -0.0125
3 22 15 1.5789 -0.0262
3 22 16 2.1755 -0.0025
3 22 17 -0.5010 0.0106
3 22 18 -1.4411 0.0084
3 22 19 0.9721 -0.0238
3 22 20 -1.1410 -0.0499
3 22 21 -0.3463 0.0364
3 22 22 -0.0732 0.0655
3 23 0 -0.0337 0.0267
3 23 1 2.8961 -0.0157
3 23 2 -0.3396 -0.0079
3 23 3 -1.3450 -0.0152
3 23 4 1.0884 0.0284
3 23 5 0.9770 0.0074
3 23 6 -0.0025 -0.0190
3 23 7 -0.9923 0.0272
3 23 8 -0.7599 0.0167
3 23 9 1.6896 -0.0044
3 23 10 0.6078 -0.0316
3 23 11 0.1291 -0.0236
3 23 12 2.1509 -0.0054
3 23 13 -0.3159 -0.0211
3 23 14 -0.3660 0.0452
3 23 15 -0.7395 0.0004
3 23 16 -4.1553 0.0123
3 23 17 -2.3128 0.0304
3 23 18 0.9056 0.0292
3 23 19 0.4830 -0.0161
3 23 20 0.0452 0.0236
3 23 21 2.6102 0.0059
3 24 0 0.0295 -0.1113
3 24 1 0.7195 0.0130
3 24 2 -2.8343 0.0052
3 24 3 -0.9216 0.0103
3 24 4 2.5599 0.0251
3 24 5 -0.2998 -0.0284
3 24 6 -1.2358 -0.0169
3 24 7 0.6528 0.0021
3 24 8 -0.6654 -0.0232
3 24 9 -0.8846 -0.0080
3 24 10 -0.4626 -0.0022
3 24 11 0.8641 0.0148
3 24 12 -0.8864 0.0006
3 24 13 -1.3561 0.0025
3 24 14 0.7027 0.0325
3 24 15 -1.7800 -0.0228
3 24 16 1.5426 0.0342
3 24 17 4.8617 -0.0113
3 24 18 -0.3176 -0.0271
3 24 19 -0.1889 -0.0700
3 24 20 1.2998 -0.0303
3 25 0 -2.0039 0.0312
3 25 1 0.1788 0.0873
3 25 2 -1.3774 -0.0234
3 25 3 3.3153 0.0215
3 25 4 1.2429 -0.0352
3 25 5 -3.2809 -0.0213
3 25 6 -0.1974 0.0068
3 25 7 1.8239 0.0038
3 25 8 -0.4594 0.0040
3 25 9 -0.0048 0.0282
3 25 10 -0.4030 0.0325
3 25 11 1.8100 0.0081
3 25 12 2.5438 -0.0200
3 25 13 -0.1538 -0.0046
3 25 14 -2.3725 0.0389
3 25 15 0.0478 -0.0224
3 25 16 1.7401 -0.0408
3 25 17 -3.2706 -0.0149
3 25 18 -2.2360 0.0387
3 26 0 0.2778 0.1650
3 26 1 0.8868 -0.0353
3 26 2 0.9605 -0.0003
3 26 3 0.6192 0.0040
3 26 4 -2.6059 -0.0594
3 26 5 -0.3561 0.0486
3 26 6 1.8813 0.0058
3 26 7 0.7551 0.0110
3 26 8 -0.4711 0.0170
3 26 9 -0.4163 0.0251
3 26 10 -0.6787 -0.0447
3 26 11 1.5857 -0.0585
3 26 12 -2.6396 -0.0054
3 26 13 -4.0182 0.0018
3 26 14 1.8135 0.0147
3 26 15 2.8880 -0.0392
3 26 16 -0.4418 0.0444
3 26 17 0.5529 0.0416
3 27 0 0.9782 0.0462
3 27 1 0.9491 -0.0853
3 27 2 -0.2861 0.0245
3 27 3 -0.6834 -0.0940
3 27 4 -0.0471 0.0060
3 27 5 0.8909 0.0807
3 27 6 0.9354 -0.0427
3 27 7 -0.2382 0.0218
3 27 8 -2.1855 -0.0123
3 27 9 -0.6904 -0.0298
3 27 10 1.4242 -0.0371
3 27 11 1.7490 0.0584
3 27 12 -1.0116 0.0237
3 27 13 1.7629 0.0010
3 27 14 1.7371 0.0577
3 28 4 -1.0547 0.1080
3 28 5 0.3003 -0.0131
3 28 6 0.0510 -0.0381
3 28 7 -1.6864 0.0349
3 28 8 0.4738 -0.0508
3 28 9 2.2953 0.0058
3 28 10 -0.7021 -0.0021
4 -25 0 0.1540 0.0137
4 -25 1 -0.7650 0.1055
4 -24 0 -3.3247 -0.1306
4 -24 1 0.1426 -0.0241
4 -24 2 0.7773 -0.0414
4 -24 3 0.0144 0.0017
4 -24 4 -0.3720 0.0935
4 -24 5 -0.4060 -0.0612
4 -23 0 -0.2131 -0.1927
4 -23 1 2.5272 0.1405
4 -23 2 -0.5491 0.0300
4 -23 3 -0.1111 0.0621
4 -23 4 0.3094 -0.0286
4 -23 5 0.3190 -0.0903
4 -23 6 -0.2751 0.0810
4 -23 7 -0.5178 0.0266
4 -22 0 -0.7792 0.1440
4 -22 1 -0.9891 0.1212
4 -22 2 -0.7952 -0.0414
4 -22 3 -0.5085 -0.0210
4 -22 4 -1.0607 -0.0891
4 -22 5 0.4419 0.0460
4 -22 6 0.6277 0.0498
4 -22 7 -0.1931 -0.0626
4 -22 8 -0.3762 -0.0009
4 -22 9 1.9604 0.0663
4 -21 0 -2.8226 0.0953
4 -21 1 1.7280 -0.0821
4 -21 2 -0.3831 -0.0406
4 -21 3 -0.4949 -0.0271
4 -21 4 1.3403 0.0189
4 -21 5 1.4715 0.0581
4 -21 6 -0.6436 -0.0444
4 -21 7 -0.5824 -0.0082
4 -21 8 0.4458 0.0067
4 -21 9 0.3077 -0.0006
4 -21 10 -1.2504 0.0269
4 -21 11 -1.2422 -0.0244
4 -20 0 0.8285 -0.1647
4 -20 1 0.7835 -0.0578
4 -20 2 -1.6760 0.0129
4 -20 3 0.8264 0.0051
4 -20 4 0.9468 0.0675
4 -20 5 -0.4132 -0.0138
4 -20 6 -1.1836 -0.0298
4 -20 7 0.0806 0.0146
4 -20 8 -0.4803 -0.0214
4 -20 9 0.0860 0.0285
4 -20 10 0.9001 0.0008
4 -20 11 -0.4718 -0.0524
4 -20 12 0.9846 0.0354
4 -19 0 -1.8295 -0.0537
4 -19 1 -1.4516 0.1262
4 -19 2 -1.2387 0.0172
4 -19 3 1.3343 0.0374
4 -19 4 0.2417 0.0066
4 -19 5 -0.7687 -0.0845
4 -19 6 0.1489 0.0022
4 -19 7 0.6323 0.0020
4 -19 8 -0.4492 0.0100
4 -19 9 1.2634 0.0361
4 -19 10 -0.6339 -0.0130
4 -19 11 -1.7392 0.0070
4 -19 12 1.4946 0.0233
4 -19 13 -0.7383 -0.0097
4 -19 14 -2.1029 -0.0093
4 -18 0 -1.8504 0.1528
4 -18 1 -0.5732 -0.0287
4 -18 2 2.1612 -0.0729
4 -18 3 2.8783 0.0153
4 -18 4 -0.3323 -0.0451
4 -18 5 -0.4942 0.0105
4 -18 6 -0.7466 0.0457
4 -18 7 -1.1333 -0.0090
4 -18 8 0.6157 0.0235
4 -18 9 0.6430 -0.0104
4 -18 10 -1.0263 -0.0157
4 -18 11 1.0938 -0.0242
4 -18 12 1.4036 -0.0002
4 -18 13 -0.7078 0.0060
4 -18 14 0.5850 -0.0583
4 -18 15 0.2690 0.0248
4 -17 0 -2.7369 -0.0427
4 -17 1 3.1592 -0.0929
4 -17 2 2.8427 0.0549
4 -17 3 -1.3709 -0.0006
4 -17 4 -3.6146 0.0045
4 -17 5 -1.3239 0.0394
4 -17 6 0.5129 -0.0251
4 -17 7 2.4418 -0.0096
4 -17 8 0.3110 -0.0075
4 -17 9 -0.9382 -0.0134
4 -17 10 0.9309 0.0112
4 -17 11 -0.7875 -0.0076
4 -17 12 -1.0985 0.0526
4 -17 13 -0.5151 -0.0145
4 -17 14 -0.7563 -0.0213
4 -17 15 0.0898 0.0285
4 -17 16 1.5117 -0.0399
4 -16 0 1.8465 -0.0802
4 -16 1 2.7063 0.0400
4 -16 2 -2.0179 0.0315
4 -16 3 -2.8080 -0.0185
4 -16 4 -0.5019 0.0422
4 -16 5 3.2087 -0.0186
4 -16 6 1.8767 -0.0350
4 -16 7 -0.8549 -0.0170
4 -16 8 -1.8980 0.0028
4 -16 9 1.4920 0.0407
4 -16 10 -0.7973 -0.0025
4 -16 11 -1.4555 -0.0069
4 -16 12 2.9514 0.0044
4 -16 13 -0.1237 -0.0309
4 -16 14 -0.3112 0.0126
4 -16 15 0.5199 -0.0047
4 -16 16 -0.2898 0.0330
4 -16 17 -0.8808 0.0249
4 -15 0 0.5781 0.0745
4 -15 1 0.9530 0.0543
4 -15 2 0.3625 -0.0254
4 -15 3 -0.3341 -0.0189
4 -15 4 0.8235 0.0032
4 -15 5 1.1152 -0.0180
4 -15 6 -1.3976 -0.0088
4 -15 7 -0.6477 0.0105
4 -15 8 -0.0278 0.0416
4 -15 9 0.2121 0.0007
4 -15 10 -1.2198 -0.0163
4 -15 11 1.5718 0.0067
4 -15 12 -0.5391 -0.0031
4 -15 13 -2.6040 0.0065
4 -15 14 1.4858 -0.0258
4 -15 15 0.8837 -0.0318
4 -15 16 1.0554 0.0098
4 -15 17 -0.8200 0.0322
4 -15 18 -0.1643 0.0638
4 -14 0 3.9930 -0.0097
4 -14 1 3.1074 -0.0558
4 -14 2 -3.1437 -0.0151
4 -14 3 -2.4627 0.0124
4 -14 4 0.3892 0.0235
4 -14 5 1.1692 -0.0139
4 -14 6 0.2617 -0.0164
4 -14 7 -0.6813 0.0212
4 -14 8 -1.0752 0.0019
4 -14 9 0.8454 -0.0114
4 -14 10 0.5179 -0.0003
4 -14 11 1.0076 -0.0175
4 -14 12 0.4657 -0.0003
4 -14 13 1.2611 0.0087
4 -14 14 -0.4889 -0.0107
4 -14 15 -1.5786 0.0192
4 -14 16 -0.7676 0.0318
4 -14 17 -1.1937 0.0342
4 -14 18 1.5557 -0.0536
4 -14 19 -0.4682 -0.0886
4 -13 0 4.8045 -0.0806
4 -13 1 -1.2262 0.0380
4 -13 2 -3.7802 0.0129
4 -13 3 0.3264 0.0067
4 -13 4 1.2612 0.0060
4 -13 5 1.8123 -0.0290
4 -13 6 -1.9234 0.0187
4 -13 7 -1.6972 0.0074
4 -13 8 1.3160 -0.0226
4 -13 9 2.6351 0.0083
4 -13 10 0.0320 0.0040
4 -13 11 -1.0539 0.0142
4 -13 12 -2.6487 0.0052
4 -13 13 -2.3467 -0.0126
4 -13 14 0.6940 -0.0287
4 -13 15 2.8216 -0.0022
4 -13 16 0.9022 0.0242
4 -13 17 0.2163 0.0180
4 -13 18 -0.0852 -0.0030
4 -13 19 -0.9336 -0.0430
4 -13 20 1.0110 -0.0423
4 -12 0 3.4946 0.0932
4 -12 1 -6.6627 0.0467
4 -12 2 -4.9603 -0.0143
4 -12 3 2.0497 0.0077
4 -12 4 4.8253 -0.0498
4 -12 5 0.9216 -0.0042
4 -12 6 -3.2234 0.0337
4 -12 7 1.6936 -0.0323
4 -12 8 1.7722 0.0128
4 -12 9 -1.3046 0.0253
4 -12 10 -3.4827 -0.0020
4 -12 11 0.1162 -0.0037
4 -12 12 1.8331 -0.0205
4 -12 13 3.0325 0.0004
4 -12 14 1.3710 -0.0082
4 -12 15 -2.5463 0.0356
4 -12 16 -1.9820 -0.0031
4 -12 17 -0.0126 -0.0047
4 -12 18 0.1150 0.0056
4 -12 19 0.5578 -0.0527
4 -12 20 0.0914 0.0610
4 -12 21 -0.3871 0.0742
4 -11 0 -3.8005 0.1324
4 -11 1 -3.8093 -0.1105
4 -11 2 5.0969 -0.0251
4 -11 3 7.1512 -0.0252
4 -11 4 -1.1715 0.0060
4 -11 5 -6.6324 0.0735
4 -11 6 -2.4872 -0.0239
4 -11 7 2.5731 -0.0262
4 -11 8 -0.3520 0.0355
4 -11 9 -0.4886 -0.0132
4 -11 10 1.5575 0.0035
4 -11 11 2.1746 -0.0013
4 -11 12 -2.0578 -0.0188
4 -11 13 -1.3437 -0.0070
4 -11 14 -1.5621 0.0014
4 -11 15 0.8240 0.0269
4 -11 16 2.8702 -0.0100
4 -11 17 0.1084 0.0443
4 -11 18 -0.5404 -0.0134
4 -11 19 -0.7637 -0.0497
4 -11 20 -0.4389 -0.0140
4 -11 21 0.4454 -0.0552
4 -10 0 -1.5192 -0.1722
4 -10 1 -4.0216 -0.1003
4 -10 2 -0.7713 0.0778
4 -10 3 -1.4352 0.0043
4 -10 4 -2.2704 0.0555
4 -10 5 0.2799 -0.0199
4 -10 6 3.2087 -0.0530
4 -10 7 3.7789 0.0281
4 -10 8 -0.5271 0.0071
4 -10 9 -1.3394 -0.0102
4 -10 10 -1.6185 0.0143
4 -10 11 -1.0086 -0.0236
4 -10 12 0.9900 -0.0034
4 -10 13 2.5279 0.0088
4 -10 14 -0.7014 -0.0046
4 -10 15 0.1850 0.0068
4 -10 16 -1.4769 0.0064
4 -10 17 -1.1511 0.0076
4 -10 18 0.3831 -0.0264
4 -10 19 -0.3472 -0.0117
4 -10 20 1.4538 -0.0282
4 -10 21 0.6419 0.0629
4 -10 22 -0.5025 0.0955
4 -9 0 -10.3032 -0.1868
4 -9 1 -0.6101 0.1546
4 -9 2 10.2460 0.0505
4 -9 3 5.1175 0.0180
4 -9 4 -3.5814 0.0040
4 -9 5 -4.0458 -0.0880
4 -9 6 1.3945 0.0139
4 -9 7 1.7210 0.0182
4 -9 8 -2.9959 -0.0053
4 -9 9 -1.2154 0.0141
4 -9 10 1.3505 0.0024
4 -9 11 2.6960 -0.0121
4 -9 12 -0.3779 0.0030
4 -9 13 -2.7608 -0.0119
4 -9 14 -1.5392 0.0092
4 -9 15 1.9992 0.0362
4 -9 16 1.4336 0.0037
4 -9 17 1.1254 -0.0151
4 -9 18 -1.8192 -0.0112
4 -9 19 -0.7610 -0.0301
4 -9 20 1.3607 -0.0103
4 -9 21 -0.6380 0.0417
4 -9 22 -0.1159 0.0050
4 -9 23 -0.2649 0.0091
4 -8 0 -5.8975 0.2338
4 -8 1 7.1061 0.1255
4 -8 2 3.3257 -0.0753
4 -8 3 -8.3859 -0.0180
4 -8 4 -3.7768 -0.1098
4 -8 5 4.3555 0.0095
4 -8 6 4.2596 0.0798
4 -8 7 -0.8821 -0.0028
4 -8 8 -3.6875 0.0195
4 -8 9 -0.3143 0.0003
4 -8 10 0.8630 -0.0134
4 -8 11 0.3122 -0.0170
4 -8 12 -0.4153 -0.0077
4 -8 13 1.0371 -0.0014
4 -8 14 0.5174 0.0058
4 -8 15 1.0342 0.0109
4 -8 16 -0.8573 0.0046
4 -8 17 -1.9826 -0.0079
4 -8 18 -1.3389 -0.0094
4 -8 19 2.3001 -0.0183
4 -8 20 1.8087 -0.0047
4 -8 21 -0.3324 0.0340
4 -8 22 -0.6414 0.0939
4 -8 23 -1.0412 -0.0122
4 -7 0 -0.4236 0.1531
4 -7 1 15.1451 -0.2009
4 -7 2 3.6254 -0.0590
4 -7 3 -5.0701 -0.0321
4 -7 4 -3.8980 0.0108
4 -7 5 -2.1950 0.1172
4 -7 6 2.0487 -0.0121
4 -7 7 0.2869 -0.0202
4 -7 8 -1.4660 -0.0067
4 -7 9 3.1834 -0.0322
4 -7 10 2.9463 -0.0094
4 -7 11 1.2082 -0.0124
4 -7 12 -2.0467 0.0112
4 -7 13 -3.9812 0.0194
4 -7 14 -0.6295 0.0221
4 -7 15 3.3058 0.0201
4 -7 16 -0.3217 -0.0207
4 -7 17 -0.7891 -0.0349
4 -7 18 -0.3128 -0.0016
4 -7 19 1.4455 -0.0096
4 -7 20 0.1961 0.0120
4 -7 21 -1.9267 0.0413
4 -7 22 -1.2856 0.0162
4 -7 23 0.2875 -0.1031
4 -7 24 1.1771 -0.0479
4 -6 0 15.8405 -0.2382
4 -6 1 0.4932 -0.0893
4 -6 2 -15.0970 0.0697
4 -6 3 -10.9652 0.0239
4 -6 4 4.3300 0.1039
4 -6 5 13.6475 -0.0085
4 -6 6 5.8611 -0.0664
4 -6 7 -6.7071 -0.0052
4 -6 8 -3.1589 -0.0183
4 -6 9 1.0750 0.0081
4 -6 10 -2.4769 0.0153
4 -6 11 -2.0664 0.0132
4 -6 12 -2.2061 0.0194
4 -6 13 2.2051 0.0032
4 -6 14 5.0467 -0.0082
4 -6 15 0.1660 -0.0135
4 -6 16 -3.6649 -0.0082
4 -6 17 -0.2795 0.0046
4 -6 18 0.6290 -0.0067
4 -6 19 2.2141 -0.0071
4 -6 20 -0.9867 0.0276
4 -6 21 -1.6459 0.0145
4 -6 22 1.0744 0.0168
4 -6 23 1.6486 -0.0172
4 -6 24 0.5988 -0.0180
4 -5 0 -9.9606 -0.0617
4 -5 1 0.4475 0.1696
4 -5 2 7.4532 0.0312
4 -5 3 5.4141 0.0493
4 -5 4 3.9366 -0.0210
4 -5 5 -2.7172 -0.1092
4 -5 6 -8.4947 0.0078
4 -5 7 -5.0940 0.0299
4 -5 8 2.8331 0.0141
4 -5 9 3.5771 0.0163
4 -5 10 3.4604 0.0044
4 -5 11 1.5535 -0.0055
4 -5 12 -2.4846 -0.0174
4 -5 13 0.2013 0.0008
4 -5 14 0.0421 -0.0032
4 -5 15 -0.6068 -0.0132
4 -5 16 -0.1309 -0.0021
4 -5 17 0.4551 -0.0030
4 -5 18 -0.4991 0.0021
4 -5 19 0.6067 0.0160
4 -5 20 -1.3324 -0.0021
4 -5 21 0.3991 -0.0053
4 -5 22 1.0971 0.0279
4 -5 23 -0.2670 -0.0306
4 -5 24 -1.6425 -0.0630
4 -5 25 -0.4590 0.0253
4 -4 0 16.0954 0.2068
4 -4 1 10.3276 0.0018
4 -4 2 -13.4487 -0.0748
4 -4 3 -12.5134 -0.0081
4 -4 4 3.6093 -0.0954
4 -4 5 6.6915 0.0251
4 -4 6 1.0582 0.0779
4 -4 7 -1.6482 0.0031
4 -4 8 2.9510 -0.0110
4 -4 9 2.6672 -0.0169
4 -4 10 -3.1558 -0.0123
4 -4 11 -6.4105 -0.0139
4 -4 12 0.0221 -0.0009
4 -4 13 5.4252 0.0166
4 -4 14 2.2459 -0.0085
4 -4 15 -1.7575 0.0094
4 -4 16 -4.0087 0.0251
4 -4 17 0.3114 -0.0082
4 -4 18 2.0780 -0.0082
4 -4 19 1.0622 -0.0022
4 -4 20 -1.7719 0.0164
4 -4 21 0.1012 0.0274
4 -4 22 0.5243 -0.0093
4 -4 23 -0.3071 -0.0509
4 -4 24 -0.3600 -0.0258
4 -4 25 1.3878 0.0497
4 -3 0 -2.4296 -0.0326
4 -3 1 -6.8727 -0.1367
4 -3 2 1.6041 0.0178
4 -3 3 13.0956 -0.0120
4 -3 4 3.8803 0.0091
4 -3 6 -5.4938 -0.0105
4 -3 7 -0.7931 -0.0385
4 -3 8 3.6014 -0.0248
4 -3 9 0.7080 -0.0102
4 -3 10 -1.4043 0.0132
4 -3 11 1.1382 0.0103
4 -3 12 1.1933 0.0149
4 -3 13 -2.0012 0.0135
4 -3 14 -1.0532 -0.0016
4 -3 15 -1.7363 0.0036
4 -3 16 0.2200 -0.0220
4 -3 17 4.3614 -0.0114
4 -3 18 -0.8004 0.0099
4 -3 19 -2.2655 -0.0116
4 -3 20 -0.1659 0.0060
4 -3 21 2.3890 -0.0213
4 -3 22 0.2092 0.0000
4 -3 23 -1.0397 0.0204
4 -3 24 -0.5474 -0.0274
4 -3 25 0.3463 0.0337
4 -2 0 12.9743 -0.1255
4 -2 1 4.1605 0.0578
4 -2 2 -7.4652 0.0461
4 -2 3 -11.8820 -0.0134
4 -2 4 -4.4113 0.0596
4 -2 9 -1.1243 0.0274
4 -2 10 -5.5458 0.0203
4 -2 11 -3.8069 0.0067
4 -2 12 1.7839 -0.0054
4 -2 13 7.0544 -0.0115
4 -2 14 2.8205 -0.0068
4 -2 15 -4.7636 -0.0164
4 -2 16 0.1993 -0.0149
4 -2 17 1.1606 0.0174
4 -2 18 -2.4961 0.0012
4 -2 19 1.5467 0.0131
4 -2 20 1.2193 0.0307
4 -2 21 -0.6291 -0.0085
4 -2 22 -1.6221 0.0169
4 -2 23 -0.1786 -0.0361
4 -2 24 0.5120 -0.0318
4 -2 25 0.8167 0.0649
4 -2 26 0.0734 -0.0162
4 -1 0 -14.3524 0.0869
4 -1 1 -9.6969 0.0744
4 -1 2 4.6925 -0.0557
4 -1 3 14.0101 0.0088
4 -1 4 7.9102 0.0031
4 -1 9 -5.6011 0.0043
4 -1 10 0.8190 -0.0216
4 -1 11 6.8937 -0.0161
4 -1 12 4.6275 -0.0143
4 -1 13 -3.2353 0.0041
4 -1 14 -6.6602 0.0000
4 -1 15 -1.5343 -0.0116
4 -1 16 3.2407 0.0241
4 -1 17 -0.0542 0.0287
4 -1 18 0.0318 -0.0085
4 -1 19 0.9083 -0.0151
4 -1 20 -1.3371 -0.0160
4 -1 21 0.2169 -0.0115
4 -1 22 0.4050 0.0103
4 -1 23 -0.1791 -0.0176
4 -1 24 -0.7438 -0.0001
4 -1 25 -0.0928 0.0139
4 -1 26 0.3840 0.0121
4 0 0 19.3721 0.0325
4 0 1 14.5814 -0.0722
4 0 2 -3.7803 -0.0314
4 0 3 -11.8314 0.0312
4 0 4 -10.3782 -0.0075
4 0 9 0.7833 -0.0423
4 0 10 2.0367 -0.0110
4 0 11 -1.7300 0.0197
4 0 12 -3.1062 0.0113
4 0 13 -0.1171 0.0081
4 0 14 1.4936 0.0001
4 0 15 -0.8226 0.0073
4 0 16 1.4730 0.0099
4 0 17 1.2650 -0.0199
4 0 18 -0.8143 -0.0138
4 0 19 -0.5214 0.0095
4 0 20 0.2935 0.0119
4 0 21 -0.1784 -0.0058
4 0 22 -1.3081 0.0041
4 0 23 0.0424 -0.0148
4 0 24 1.8974 0.0066
4 0 25 2.0569 0.0536
4 0 26 -0.0902 0.0175
4 1 0 -2.8181 -0.1042
4 1 1 -24.9433 -0.0107
4 1 2 -3.6072 0.0472
4 1 3 13.0009 0.0258
4 1 4 5.1033 -0.0098
4 1 5 1.7084 -0.0115
4 1 8 -3.5416 -0.0339
4 1 9 -1.6210 0.0087
4 1 10 -0.6742 0.0356
4 1 11 2.9865 0.0247
4 1 12 1.9234 0.0063
4 1 13 -1.5873 -0.0059
4 1 14 -3.1969 -0.0122
4 1 15 2.5905 -0.0063
4 1 16 4.3435 -0.0098
4 1 17 -4.4439 0.0003
4 1 18 -1.4499 0.0125
4 1 19 2.9936 -0.0060
4 1 20 -0.1800 0.0031
4 1 21 -0.7545 0.0038
4 1 22 0.8438 0.0049
4 1 23 1.3739 -0.0143
4 1 24 -0.2523 0.0178
4 1 25 -2.6146 0.0016
4 1 26 -1.8886 -0.0485
4 1 27 0.3878 -0.0408
4 2 0 -15.0814 0.0389
4 2 1 6.9592 0.0792
4 2 2 15.1502 0.0179
4 2 3 -10.6240 -0.0225
4 2 4 -9.1977 -0.0393
4 2 5 5.0613 0.0095
4 2 6 2.1472 0.0092
4 2 7 -1.0746 -0.0223
4 2 8 -1.8217 0.0315
4 2 9 1.5220 0.0391
4 2 10 4.5656 0.0076
4 2 11 0.9938 -0.0071
4 2 12 -3.6088 -0.0305
4 2 13 -0.9048 -0.0315
4 2 14 2.4958 -0.0022
4 2 15 2.4133 0.0046
4 2 16 -4.3054 0.0017
4 2 17 -1.8798 0.0215
4 2 18 6.0033 0.0045
4 2 19 -0.4561 -0.0063
4 2 20 -3.8571 -0.0044
4 2 21 -0.8202 -0.0229
4 2 22 0.4193 0.0033
4 2 23 0.3085 0.0077
4 2 24 -0.1315 0.0162
4 2 25 0.3493 -0.0078
4 2 26 1.2087 0.0098
4 2 27 0.5723 0.0140
4 3 0 -1.4131 0.1306
4 3 1 9.9942 -0.0473
4 3 2 -7.0861 -0.0315
4 3 3 0.5424 -0.0449
4 3 4 12.2933 0.0133
4 3 5 -2.3088 0.0414
4 3 6 -2.4319 -0.0174
4 3 7 -0.3251 0.0049
4 3 8 -4.5783 0.0271
4 3 9 3.2644 -0.0195
4 3 10 1.2144 -0.0322
4 3 11 -3.2422 -0.0249
4 3 12 -0.0828 -0.0041
4 3 13 0.6242 0.0143
4 3 14 -0.5346 0.0225
4 3 15 0.3671 0.0067
4 3 16 -0.6440 0.0130
4 3 17 1.0977 0.0105
4 3 18 -1.0451 -0.0189
4 3 19 -3.2580 -0.0102
4 3 20 0.9384 -0.0008
4 3 21 2.5990 0.0107
4 3 22 2.0865 0.0104
4 3 23 0.1228 0.0022
4 3 24 -1.0682 0.0033
4 3 25 -1.6957 -0.0225
4 3 26 -0.0837 -0.0054
4 3 27 0.9348 -0.0402
4 4 0 11.8180 -0.1555
4 4 1 3.5540 -0.0920
4 4 2 -4.3622 0.0228
4 4 3 -0.9694 0.0049
4 4 4 -8.1246 0.0737
4 4 5 -1.1130 -0.0231
4 4 6 5.5855 -0.0251
4 4 7 -7.4667 0.0130
4 4 8 1.5794 -0.0126
4 4 9 9.9628 -0.0187
4 4 10 -3.1188 -0.0041
4 4 11 -2.2963 0.0221
4 4 12 0.6075 0.0204
4 4 13 -0.9548 0.0077
4 4 14 1.0988 0.0101
4 4 15 0.7675 -0.0120
4 4 16 -2.8512 -0.0031
4 4 17 0.7242 -0.0098
4 4 18 3.3903 -0.0196
4 4 19 0.9270 -0.0082
4 4 20 -1.1162 0.0071
4 4 21 -0.6156 0.0070
4 4 22 -0.3257 0.0036
4 4 23 -0.6619 0.0176
4 4 24 -0.4652 -0.0173
4 4 25 0.1792 -0.0060
4 4 26 2.0238 0.0162
4 4 27 -0.5391 -0.0011
4 5 0 3.0115 -0.1618
4 5 1 -3.6681 0.1657
4 5 2 -10.6289 0.0408
4 5 3 0.8481 0.0322
4 5 4 8.8944 -0.0049
4 5 5 3.6226 -0.0798
4 5 6 -5.1741 0.0283
4 5 7 1.6491 -0.0030
4 5 8 10.2282 -0.0040
4 5 9 -5.4097 0.0136
4 5 10 -11.9071 0.0174
4 5 11 1.8059 0.0163
4 5 12 4.0674 -0.0058
4 5 13 0.6387 -0.0083
4 5 14 0.9278 -0.0179
4 5 15 -0.1286 -0.0137
4 5 16 -0.3172 0.0058
4 5 17 2.8805 -0.0054
4 5 18 -3.0240 0.0028
4 5 19 -4.6647 0.0205
4 5 20 2.2185 0.0281
4 5 21 3.2501 -0.0112
4 5 22 0.3191 -0.0071
4 5 23 -1.3016 0.0062
4 5 24 -1.9385 -0.0238
4 5 25 0.0310 -0.0096
4 5 26 0.7880 -0.0165
4 5 27 -0.5135 0.0145
4 6 0 7.5143 0.2758
4 6 1 -7.4362 0.0889
4 6 2 -3.6998 -0.1012
4 6 3 12.1312 -0.0013
4 6 4 0.8470 -0.0844
4 6 5 -6.3656 0.0140
4 6 6 0.1331 0.0561
4 6 7 -0.5412 -0.0165
4 6 8 -4.7232 0.0209
4 6 9 -4.5327 0.0017
4 6 10 5.7997 -0.0062
4 6 11 10.2718 -0.0182
4 6 12 -0.4766 -0.0185
4 6 13 -4.0403 -0.0114
4 6 14 -0.8562 0.0074
4 6 15 -2.2176 0.0128
4 6 16 -0.3296 -0.0006
4 6 17 0.5537 0.0117
4 6 18 -1.2079 0.0063
4 6 19 4.9551 -0.0018
4 6 20 1.3965 -0.0052
4 6 21 -4.2838 -0.0276
4 6 22 -1.8776 0.0113
4 6 23 -0.5626 -0.0065
4 6 24 1.5328 -0.0228
4 6 25 2.4835 0.0154
4 6 26 0.5438 0.0313
4 6 27 -0.3197 0.0355
4 7 0 3.6656 0.1353
4 7 1 -5.5138 -0.2432
4 7 2 2.7302 -0.0349
4 7 3 6.2064 -0.0134
4 7 4 -5.8291 0.0088
4 7 5 -4.4712 0.1069
4 7 6 0.3027 -0.0225
4 7 7 5.1536 -0.0216
4 7 8 7.0874 -0.0027
4 7 9 0.0203 -0.0199
4 7 10 -2.8604 -0.0048
4 7 11 -4.1417 -0.0002
4 7 12 -4.8934 0.0105
4 7 13 -0.2043 0.0085
4 7 14 1.6445 0.0221
4 7 15 1.7136 -0.0034
4 7 16 3.3688 -0.0005
4 7 17 -0.0601 0.0071
4 7 18 -1.8409 -0.0190
4 7 19 -1.7763 -0.0014
4 7 20 -2.5716 -0.0005
4 7 21 3.1018 -0.0108
4 7 22 1.6861 0.0110
4 7 23 0.1831 -0.0039
4 7 24 0.9663 0.0164
4 7 25 -2.1262 0.0085
4 7 26 -0.4618 0.0201
4 7 27 0.2734 -0.0015
4 8 0 1.4542 -0.2782
4 8 1 -9.7055 -0.0841
4 8 2 1.2873 0.1216
4 8 3 2.1584 0.0251
4 8 4 -5.2948 0.1139
4 8 5 2.3981 -0.0342
4 8 6 6.1016 -0.0872
4 8 7 -0.3851 0.0149
4 8 8 -9.0132 -0.0140
4 8 9 -6.9586 0.0080
4 8 10 3.2745 0.0132
4 8 11 6.5411 0.0206
4 8 12 2.5025 0.0042
4 8 13 0.9721 -0.0034
4 8 14 0.7588 0.0005
4 8 15 -1.7874 -0.0266
4 8 16 -1.0291 -0.0035
4 8 17 -2.6732 -0.0013
4 8 18 -1.3035 -0.0065
4 8 19 4.0555 0.0174
4 8 20 3.4196 0.0080
4 8 21 -2.1990 -0.0087
4 8 22 -3.5483 -0.0027
4 8 23 1.8260 0.0025
4 8 24 -0.6793 0.0167
4 8 25 0.1170 0.0118
4 8 26 3.2664 0.0084
4 8 27 -1.7815 -0.0848
4 9 0 -13.8266 -0.0827
4 9 1 -2.9060 0.2121
4 9 2 7.1366 0.0374
4 9 3 2.0728 0.0207
4 9 4 0.0957 -0.0248
4 9 5 -0.1585 -0.1396
4 9 6 -3.1602 0.0290
4 9 7 0.2331 0.0315
4 9 8 2.3004 0.0050
4 9 9 4.7787 0.0350
4 9 10 3.4219 0.0070
4 9 11 -3.1557 0.0058
4 9 12 -5.3025 -0.0351
4 9 13 -0.7843 -0.0201
4 9 14 -0.6442 -0.0062
4 9 15 0.3960 0.0061
4 9 16 2.9087 0.0228
4 9 17 -2.1387 0.0035
4 9 18 2.5005 0.0062
4 9 19 2.1144 0.0062
4 9 20 -4.6410 -0.0132
4 9 21 -1.0781 -0.0145
4 9 22 2.8567 0.0062
4 9 23 0.9885 0.0133
4 9 24 -1.4722 0.0072
4 9 25 0.5520 -0.0128
4 9 26 -2.1747 -0.0330
4 9 27 -2.5299 -0.0340
4 10 0 4.0100 0.2144
4 10 1 6.9163 0.0394
4 10 2 1.7322 -0.0783
4 10 3 -0.4620 -0.0222
4 10 4 -4.4260 -0.1056
4 10 5 -2.8139 0.0194
4 10 6 6.7427 0.0911
4 10 7 1.0729 -0.0025
4 10 8 -7.4209 0.0153
4 10 9 -0.4205 -0.0180
4 10 10 0.0784 -0.0212
4 10 11 -0.4682 -0.0186
4 10 12 2.7379 -0.0255
4 10 13 2.3812 0.0174
4 10 14 -0.2996 0.0220
4 10 15 0.5704 0.0251
4 10 16 -1.6752 -0.0042
4 10 17 -2.6041 -0.0048
4 10 18 2.9472 -0.0065
4 10 19 -2.0468 -0.0193
4 10 20 -0.0105 -0.0060
4 10 21 1.9770 -0.0105
4 10 22 -1.5730 0.0071
4 10 23 0.3165 0.0190
4 10 24 -0.4237 0.0109
4 10 25 -0.6903 0.0031
4 10 26 1.1987 -0.0298
4 10 27 2.9496 -0.0289
4 11 0 -0.1259 0.0270
4 11 1 -4.3367 -0.1322
4 11 2 -0.9382 -0.0184
4 11 3 0.2968 -0.0368
4 11 4 -2.8239 0.0249
4 11 5 3.8810 0.1070
4 11 6 1.6324 -0.0074
4 11 7 -7.6039 -0.0318
4 11 8 3.3776 -0.0220
4 11 9 8.0091 -0.0240
4 11 10 -3.0144 0.0155
4 11 11 -1.6409 0.0011
4 11 12 -1.0966 0.0200
4 11 13 -2.0856 0.0136
4 11 14 0.4166 0.0169
4 11 15 1.4918 -0.0000
4 11 16 -1.8303 -0.0336
4 11 17 0.3180 -0.0040
4 11 18 3.9814 -0.0200
4 11 19 -1.3513 0.0064
4 11 20 0.4001 0.0231
4 11 21 -1.0174 0.0140
4 11 22 -0.3533 0.0371
4 11 23 0.5530 -0.0078
4 11 24 -1.5023 -0.0187
4 11 25 1.6674 -0.0130
4 11 26 1.3470 -0.0543
4 11 27 -1.3556 0.0193
4 12 0 -2.4476 -0.1166
4 12 1 2.6252 0.0106
4 12 2 3.3684 0.0403
4 12 3 -1.7186 0.0023
4 12 4 -0.8123 0.0756
4 12 5 3.0702 -0.0188
4 12 6 -2.5139 -0.0724
4 12 7 0.3416 -0.0082
4 12 8 5.0104 0.0063
4 12 9 -5.5452 0.0318
4 12 10 -5.5316 0.0191
4 12 11 4.6502 0.0024
4 12 12 2.3681 0.0017
4 12 13 1.8447 -0.0217
4 12 14 0.5678 0.0013
4 12 15 -3.1633 -0.0346
4 12 16 -2.0401 -0.0038
4 12 17 4.3166 0.0214
4 12 18 0.3207 -0.0013
4 12 19 -5.2565 0.0259
4 12 20 1.9277 -0.0011
4 12 21 -0.4688 -0.0053
4 12 22 -0.4843 -0.0131
4 12 23 2.0149 -0.0415
4 12 24 1.7247 0.0017
4 12 25 -0.0068 -0.0092
4 12 26 -2.2318 -0.0079
4 12 27 -0.8438 0.0792
4 13 0 6.2543 0.0391
4 13 1 2.7824 0.0720
4 13 2 -2.7279 -0.0297
4 13 3 -1.1975 0.0099
4 13 4 1.3544 0.0014
4 13 5 -1.7304 -0.0691
4 13 6 -0.8954 0.0140
4 13 7 3.0618 0.0448
4 13 8 -1.5622 0.0127
4 13 9 -2.6272 0.0037
4 13 10 4.0376 -0.0252
4 13 11 2.8014 -0.0162
4 13 12 -3.4969 -0.0172
4 13 13 -2.6487 -0.0092
4 13 14 -1.6069 0.0138
4 13 15 1.4542 0.0030
4 13 16 2.9653 0.0360
4 13 17 0.8408 0.0038
4 13 18 -3.0559 -0.0044
4 13 19 0.5873 -0.0006
4 13 20 3.4551 -0.0108
4 13 21 -2.6491 -0.0022
4 13 22 0.7438 -0.0133
4 13 23 0.7199 -0.0116
4 13 24 -2.8811 0.0285
4 13 25 -2.0286 0.0440
4 13 26 1.6554 0.0242
4 14 0 1.7307 0.0627
4 14 1 -4.5190 -0.0495
4 14 2 -2.2136 -0.0497
4 14 3 1.2579 0.0262
4 14 4 -0.3885 -0.0334
4 14 5 2.3359 0.0058
4 14 6 2.6920 0.0525
4 14 7 -3.0805 -0.0054
4 14 8 -1.8105 -0.0173
4 14 9 2.1072 -0.0211
4 14 10 -0.4424 -0.0172
4 14 11 -0.5414 0.0162
4 14 12 -0.6628 0.0080
4 14 13 1.2923 0.0173
4 14 14 2.6320 0.0137
4 14 15 -0.4610 0.0041
4 14 16 -2.2836 0.0035
4 14 17 0.6995 -0.0319
4 14 18 -0.7132 -0.0195
4 14 19 -0.4480 -0.0038
4 14 20 0.5727 0.0011
4 14 21 -2.2556 0.0014
4 14 22 1.0882 0.0162
4 14 23 1.2102 0.0124
4 14 24 0.1450 0.0269
4 14 25 2.0850 -0.0246
4 14 26 0.8397 -0.0662
4 14 27 -2.9100 -0.0148
4 15 0 -3.2463 -0.0709
4 15 1 1.2999 -0.0572
4 15 2 1.8917 0.0472
4 15 3 0.5826 0.0295
4 15 4 1.3002 -0.0218
4 15 5 -0.8348 0.0424
4 15 6 -4.8904 -0.0048
4 15 7 0.8511 -0.0305
4 15 8 4.8584 -0.0221
4 15 9 -1.5317 -0.0040
4 15 10 -2.3237 0.0364
4 15 11 1.5002 0.0239
4 15 12 -1.0651 -0.0006
4 15 13 1.7114 -0.0043
4 15 14 -0.8710 -0.0122
4 15 15 -2.8667 -0.0014
4 15 16 2.5463 -0.0179
4 15 17 1.2096 -0.0009
4 15 18 -2.7351 0.0239
4 15 19 1.5332 0.0089
4 15 20 1.2619 0.0024
4 15 21 -1.8892 0.0113
4 15 22 2.0625 0.0058
4 15 23 -0.4750 -0.0131
4 15 24 -1.2909 -0.0303
4 15 25 0.7332 -0.0290
4 15 26 -1.9766 0.0610
4 16 0 2.6654 -0.0080
4 16 1 0.1161 0.0652
4 16 2 -3.2253 0.0335
4 16 3 1.6711 -0.0289
4 16 4 1.0283 -0.0099
4 16 5 -1.9208 0.0181
4 16 6 2.4307 -0.0330
4 16 7 2.3055 0.0040
4 16 8 -4.2950 0.0168
4 16 9 -3.2937 0.0349
4 16 10 2.9730 0.0044
4 16 11 3.3396 -0.0257
4 16 12 -0.0669 -0.0210
4 16 13 -0.3954 -0.0167
4 16 14 -3.3915 0.0067
4 16 15 1.2272 -0.0041
4 16 16 2.3805 -0.0066
4 16 17 -1.6008 0.0184
4 16 18 -0.3569 -0.0210
4 16 19 1.3456 0.0011
4 16 20 -0.2823 0.0047
4 16 21 -1.0378 -0.0083
4 16 22 1.0610 -0.0018
4 16 23 0.4648 -0.0163
4 16 24 0.9890 -0.0301
4 16 25 -1.6318 0.0703
4 16 26 -2.0884 0.0490
4 17 0 -0.4612 0.0823
4 17 1 -1.6465 -0.0228
4 17 2 1.0208 -0.0389
4 17 3 3.0739 -0.0273
4 17 4 -3.3222 0.0140
4 17 5 -2.6683 0.0115
4 17 6 -0.2879 -0.0218
4 17 7 -1.6961 0.0168
4 17 8 2.6761 -0.0080
4 17 9 5.1060 -0.0080
4 17 10 1.1650 -0.0227
4 17 11 -3.4682 -0.0064
4 17 12 -4.0597 0.0002
4 17 13 0.4879 0.0122
4 17 14 1.2014 0.0143
4 17 15 2.2154 -0.0029
4 17 16 0.0687 0.0255
4 17 17 -1.4131 0.0147
4 17 18 -1.1665 -0.0039
4 17 19 0.5829 0.0116
4 17 20 0.2226 -0.0302
4 17 21 -1.5813 0.0179
4 17 22 1.5807 0.0231
4 17 23 -0.3505 -0.0030
4 17 24 -2.6021 -0.0010
4 17 25 -0.2407 0.0420
4 18 0 -1.4757 -0.1174
4 18 1 -2.5722 -0.0585
4 18 2 0.6291 -0.0020
4 18 3 -0.2364 0.0193
4 18 4 -1.7561 0.0542
4 18 5 2.9476 -0.0268
4 18 6 3.7011 -0.0095
4 18 7 2.6177 0.0291
4 18 8 -0.2823 -0.0106
4 18 9 -5.4630 -0.0026
4 18 10 -4.0952 -0.0105
4 18 11 0.1915 0.0188
4 18 12 3.1771 0.0189
4 18 13 2.5483 0.0197
4 18 14 -1.3373 0.0036
4 18 15 0.1201 -0.0107
4 18 16 -1.1262 -0.0029
4 18 17 -1.3424 -0.0315
4 18 18 1.7063 -0.0224
4 18 19 2.4137 -0.0001
4 18 20 -0.9361 0.0084
4 18 21 -0.8759 0.0131
4 18 22 2.1698 -0.0386
4 18 23 -1.0379 -0.0067
4 18 24 -0.0003 -0.0198
4 18 25 1.4184 0.0333
4 19 0 -0.5881 -0.0727
4 19 1 2.1122 0.0962
4 19 2 2.3941 0.0238
4 19 3 0.7410 0.0587
4 19 4 0.9926 -0.0148
4 19 5 -0.8210 -0.0513
4 19 6 -3.0148 0.0299
4 19 7 -3.0074 -0.0194
4 19 8 -2.0028 -0.0146
4 19 9 2.0133 0.0118
4 19 10 4.5123 0.0195
4 19 11 1.2934 0.0247
4 19 12 -0.9460 -0.0124
4 19 13 -0.8055 -0.0208
4 19 14 -0.1860 -0.0351
4 19 15 0.2734 -0.0153
4 19 16 -0.9129 0.0065
4 19 17 1.8522 0.0024
4 19 18 0.6941 0.0302
4 19 19 -2.7878 0.0083
4 19 20 -1.9649 0.0032
4 19 21 0.6531 -0.0051
4 19 22 1.1965 0.0231
4 19 23 -1.5524 0.0572
4 19 24 0.2362 -0.0423
4 20 0 1.1911 0.1940
4 20 1 -1.3713 0.0381
4 20 2 -1.0999 -0.0412
4 20 3 -0.1290 -0.0030
4 20 4 -2.6764 -0.0759
4 20 5 -1.3937 0.0128
4 20 6 3.3882 0.0170
4 20 7 3.1429 -0.0134
4 20 8 0.7240 0.0327
4 20 9 -0.4620 -0.0035
4 20 10 -1.9953 0.0038
4 20 11 -1.9752 -0.0237
4 20 12 0.5203 -0.0259
4 20 13 1.0589 -0.0032
4 20 14 -0.2033 0.0093
4 20 15 -0.8402 0.0133
4 20 16 -0.0919 0.0091
4 20 17 0.6231 0.0229
4 20 18 -1.7094 0.0136
4 20 19 0.3660 -0.0173
4 20 20 2.1812 -0.0040
4 20 21 1.0211 -0.0556
4 20 22 1.0486 0.0114
4 20 23 -0.6257 -0.0043
4 21 0 -2.2660 0.0420
4 21 1 -0.0364 -0.1767
4 21 2 0.8470 -0.0120
4 21 3 0.2199 -0.0178
4 21 4 2.3615 0.0071
4 21 5 2.4010 0.0684
4 21 6 -2.1329 -0.0227
4 21 7 -3.5440 -0.0053
4 21 8 -0.4292 0.0134
4 21 9 1.9175 -0.0103
4 21 10 0.3568 -0.0042
4 21 11 0.2016 -0.0318
4 21 12 1.1270 0.0189
4 21 13 -0.0952 0.0147
4 21 14 -0.9537 0.0104
4 21 15 -0.8666 0.0023
4 21 16 0.9063 0.0263
4 21 17 0.8347 0.0133
4 21 18 -0.7171 -0.0330
4 21 19 0.2465 -0.0342
4 21 20 -0.8257 -0.0017
4 21 21 -0.1219 0.0093
4 21 22 -0.0164 0.0987
4 21 23 -2.3775 -0.0051
4 22 0 -0.2232 -0.2275
4 22 1 0.6461 -0.0161
4 22 2 -0.3759 0.0914
4 22 3 2.4301 0.0026
4 22 4 -0.9176 0.0757
4 22 5 -5.8821 -0.0240
4 22 6 -0.1418 -0.0533
4 22 7 5.6895 0.0251
4 22 8 1.8038 -0.0024
4 22 9 -3.0080 -0.0077
4 22 10 -2.7057 0.0006
4 22 11 1.7916 0.0142
4 22 12 -0.1856 0.0345
4 22 13 -2.0800 -0.0021
4 22 14 0.1693 0.0078
4 22 15 1.1566 -0.0285
4 22 16 1.4512 0.0031
4 22 17 -0.6005 -0.0154
4 22 18 -0.5110 -0.0308
4 22 19 0.7391 -0.0042
4 22 20 0.5805 0.0057
4 22 21 1.0622 -0.0140
4 22 22 -0.7881 0.0368
4 23 0 -1.3266 -0.0510
4 23 1 0.1666 0.1836
4 23 2 0.3678 0.0020
4 23 3 -0.2051 0.0211
4 23 4 -2.0853 -0.0129
4 23 5 1.1648 -0.0918
4 23 6 4.3304 0.0309
4 23 7 -0.7247 0.0158
4 23 8 -3.9541 0.0030
4 23 9 -0.0022 0.0257
4 23 10 1.8463 -0.0139
4 23 11 1.1058 -0.0044
4 23 12 -1.4229 -0.0173
4 23 13 1.7530 -0.0205
4 23 14 2.7668 -0.0172
4 23 15 0.5666 -0.0219
4 23 16 -1.2586 0.0358
4 23 17 -2.6099 -0.0204
4 23 18 -0.5752 0.0011
4 23 19 -0.2406 0.0203
4 23 20 -0.1303 0.0390
4 23 21 -0.3954 0.0551
4 24 0 0.8603 0.1930
4 24 1 1.1610 0.0158
4 24 2 -1.2453 -0.0720
4 24 3 0.7223 -0.0101
4 24 4 1.3880 -0.0776
4 24 5 -0.3871 0.0306
4 24 6 -0.6402 0.0603
4 24 7 -1.2500 -0.0223
4 24 8 0.6896 0.0141
4 24 9 0.3385 -0.0171
4 24 10 -1.1295 -0.0307
4 24 11 1.8162 0.0016
4 24 12 -0.5323 -0.0185
4 24 13 -0.6232 0.0280
4 24 14 -1.0155 0.0130
4 24 15 -2.9027 0.0194
4 24 16 -2.7912 0.0390
4 24 17 0.9914 0.0075
4 24 18 3.5439 0.0071
4 24 19 1.8275 -0.0355
4 24 20 1.1167 -0.0047
4 25 0 -0.8886 0.0050
4 25 1 -1.3297 -0.0960
4 25 2 -0.0008 -0.0151
4 25 3 2.9946 -0.0288
4 25 4 -1.3236 0.0251
4 25 5 -3.2399 0.0673
4 25 6 0.2862 -0.0222
4 25 7 1.2169 -0.0340
4 25 8 1.5084 0.0053
4 25 9 -1.1213 -0.0196
4 25 10 -0.0499 -0.0050
4 25 11 0.8001 0.0298
4 25 12 -1.9787 0.0244
4 25 13 1.8740 0.0377
4 25 14 0.2171 -0.0130
4 25 15 0.1294 0.0135
4 25 16 3.2657 -0.0360
4 25 17 2.0569 -0.0759
4 25 18 -0.8569 -0.0339
4 26 0 0.9151 -0.0934
4 26 1 1.1530 -0.0218
4 26 2 2.1871 0.0196
4 26 3 -0.7967 0.0436
4 26 4 -4.1996 0.0611
4 26 5 1.0265 -0.0247
4 26 6 4.4929 -0.0401
4 26 7 0.7667 -0.0078
4 26 8 -1.2036 0.0361
4 26 9 -1.9155 0.0147
4 26 10 0.2713 0.0160
4 26 11 0.9173 0.0164
4 26 12 -0.1735 -0.0410
4 26 13 -0.7911 -0.0033
4 26 14 -1.2300 -0.0277
4 26 15 1.9722 -0.0334
4 26 16 -1.7683 -0.0405
4 27 0 1.3915 -0.0163
4 27 1 0.5796 0.1011
4 27 2 0.0855 0.0276
4 27 3 -2.3897 -0.0381
4 27 4 0.5892 -0.0588
4 27 5 3.3020 -0.0403
4 27 6 -0.3209 0.0265
4 27 7 -3.2302 0.0237
4 27 8 -0.2310 0.0274
4 27 9 -0.6493 -0.0582
4 27 10 0.1363 -0.0313
4 27 11 1.0254 0.0165
4 27 12 -0.5016 -0.0035
4 27 13 1.3057 0.0271
4 27 14 2.3806 -0.0356
4 28 6 -0.5779 0.0267
4 28 7 -0.3518 -0.0267
4 28 8 1.2657 -0.0139
5 -24 0 0.6374 0.1895
5 -24 1 0.1328 0.1201
5 -24 2 -1.1497 -0.0244
5 -23 0 -1.0805 0.1293
5 -23 1 -1.0864 -0.1564
5 -23 2 0.5831 -0.0092
5 -23 3 1.1588 -0.0032
5 -23 4 -0.1808 -0.0211
5 -23 5 -0.1108 0.1028
5 -22 0 1.3055 -0.1371
5 -22 1 -0.1503 -0.0247
5 -22 2 0.5511 0.1333
5 -22 3 -0.4895 -0.0449
5 -22 4 -0.5543 -0.0172
5 -22 5 -0.1719 0.0061
5 -22 6 0.9797 -0.0471
5 -22 7 -0.2626 0.0055
5 -21 0 -0.8498 0.0548
5 -21 1 -1.2600 0.0996
5 -21 2 0.4769 -0.0201
5 -21 3 0.2228 -0.0623
5 -21 4 0.3259 0.0349
5 -21 5 -0.2105 0.0259
5 -21 6 0.3964 0.0015
5 -21 7 -1.4342 -0.0135
5 -21 8 0.6299 0.0366
5 -21 9 2.1384 -0.0525
5 -21 10 -1.2156 -0.0749
5 -20 0 0.0218 0.0580
5 -20 1 0.0787 -0.0441
5 -20 2 1.2681 -0.0314
5 -20 3 0.6402 0.0132
5 -20 4 -0.9555 -0.0046
5 -20 5 -0.3570 -0.0189
5 -20 6 1.1016 -0.0277
5 -20 7 -0.2126 0.0127
5 -20 8 0.6303 0.0528
5 -20 9 -0.7439 -0.0559
5 -20 10 -1.4574 -0.0231
5 -20 11 0.0883 0.0520
5 -19 0 1.2157 -0.0795
5 -19 1 -0.7116 -0.0668
5 -19 2 0.9095 0.0031
5 -19 3 -1.0163 0.0307
5 -19 4 -0.5524 0.0250
5 -19 5 0.5111 -0.0048
5 -19 6 -0.3704 0.0008
5 -19 7 -0.7287 0.0315
5 -19 8 0.0570 -0.0187
5 -19 9 0.1470 -0.0550
5 -19 10 0.6131 0.0267
5 -19 11 0.5947 0.0548
5 -19 12 0.7322 0.0161
5 -19 13 -1.5218 -0.0352
5 -18 0 -1.3159 0.0351
5 -18 1 -0.0697 0.0643
5 -18 2 1.3908 0.0513
5 -18 3 -0.1129 0.0323
5 -18 4 -0.1384 -0.0561
5 -18 5 -0.8807 -0.0279
5 -18 6 1.4790 0.0354
5 -18 7 0.7673 -0.0083
5 -18 8 -0.5708 -0.0139
5 -18 9 0.4510 -0.0013
5 -18 10 -0.6881 0.0180
5 -18 11 -0.8810 0.0322
5 -18 12 0.3828 -0.0071
5 -18 13 0.0104 -0.0704
5 -18 14 1.0588 -0.0729
5 -17 0 1.2234 0.1322
5 -17 1 1.8824 -0.0873
5 -17 2 1.0533 -0.0244
5 -17 3 -1.7053 -0.0258
5 -17 4 -1.3409 -0.0149
5 -17 5 1.0918 0.0634
5 -17 6 1.1801 -0.0287
5 -17 7 -2.2526 -0.0353
5 -17 8 -0.1911 0.0156
5 -17 9 0.6634 -0.0105
5 -17 10 -0.4191 0.0167
5 -17 11 1.1273 0.0075
5 -17 12 0.7335 -0.0092
5 -17 13 -1.0537 -0.0128
5 -17 14 -1.2666 0.0351
5 -17 15 -0.8989 0.0645
5 -16 0 2.2452 -0.1352
5 -16 1 1.5926 -0.0747
5 -16 2 -3.0119 0.0450
5 -16 3 -3.0140 -0.0019
5 -16 4 1.0738 0.0543
5 -16 5 2.0060 -0.0152
5 -16 6 -0.0644 -0.0503
5 -16 7 -0.5634 0.0339
5 -16 8 0.7344 0.0044
5 -16 9 0.4744 0.0091
5 -16 10 -0.5732 0.0141
5 -16 11 -0.7972 0.0155
5 -16 12 -0.0520 0.0097
5 -16 13 0.3669 -0.0541
5 -16 14 0.7695 -0.0401
5 -16 15 1.1169 -0.0314
5 -16 16 0.7526 0.0466
5 -15 0 2.4315 -0.1751
5 -15 1 -3.3909 0.1015
5 -15 2 -1.6267 0.0389
5 -15 3 2.6669 0.0521
5 -15 4 3.1328 -0.0003
5 -15 5 0.2655 -0.0813
5 -15 6 -1.2669 0.0048
5 -15 7 -1.5144 0.0104
5 -15 8 0.1677 0.0044
5 -15 9 0.3106 0.0177
5 -15 10 -0.9816 -0.0089
5 -15 11 1.8161 -0.0011
5 -15 12 0.5729 -0.0320
5 -15 13 -1.7384 -0.0036
5 -15 14 -1.0382 0.0187
5 -15 15 -0.2298 0.0214
5 -15 16 0.5205 0.0401
5 -15 17 -0.2766 -0.0327
5 -14 0 1.4164 0.1675
5 -14 1 1.0766 0.1259
5 -14 2 0.2178 -0.0366
5 -14 3 -1.4349 -0.0170
5 -14 4 -0.7536 -0.1023
5 -14 5 -0.5972 0.0117
5 -14 6 -0.5768 0.0617
5 -14 7 -0.6834 -0.0042
5 -14 8 1.5040 0.0065
5 -14 9 0.1677 0.0017
5 -14 10 -0.2152 0.0023
5 -14 11 0.0436 -0.0024
5 -14 12 -1.7208 -0.0050
5 -14 13 1.9329 -0.0174
5 -14 14 1.3418 -0.0214
5 -14 15 0.5568 0.0328
5 -14 16 -0.2097 0.0275
5 -14 17 -1.7673 0.0472
5 -14 18 0.5253 -0.0327
5 -13 0 1.3940 0.1506
5 -13 1 -4.2054 -0.1144
5 -13 2 -3.4230 -0.0511
5 -13 3 2.4525 -0.0402
5 -13 4 3.0356 -0.0019
5 -13 5 -0.3545 0.1050
5 -13 6 -1.8197 -0.0182
5 -13 7 -0.0855 -0.0354
5 -13 8 1.7809 0.0114
5 -13 9 -0.7248 -0.0001
5 -13 10 0.5372 -0.0078
5 -13 11 0.7435 -0.0122
5 -13 12 0.4225 -0.0093
5 -13 13 -0.9612 0.0075
5 -13 14 -3.4443 0.0367
5 -13 15 0.4910 -0.0199
5 -13 16 0.2775 -0.0175
5 -13 17 1.0817 0.0126
5 -13 18 1.5696 -0.0479
5 -13 19 -1.1444 0.0343
5 -12 0 -0.1175 -0.1535
5 -12 1 -4.2793 -0.0898
5 -12 2 1.2350 0.0364
5 -12 3 1.3839 0.0151
5 -12 4 -0.3038 0.0953
5 -12 5 -0.9372 -0.0015
5 -12 6 0.1440 -0.0806
5 -12 7 1.7778 -0.0022
5 -12 8 0.4761 -0.0020
5 -12 9 -0.8099 0.0102
5 -12 10 -0.2797 0.0258
5 -12 11 -2.3109 0.0021
5 -12 12 -0.7871 -0.0034
5 -12 13 0.8643 -0.0042
5 -12 14 2.4369 -0.0125
5 -12 15 2.3765 -0.0017
5 -12 16 -0.9025 0.0309
5 -12 17 -0.7664 0.0042
5 -12 18 -1.5153 -0.0013
5 -12 19 -0.8988 -0.0416
5 -12 20 0.6168 -0.0467
5 -11 0 -7.6196 -0.0983
5 -11 1 -3.3378 0.1281
5 -11 2 4.7667 0.0352
5 -11 3 4.6644 0.0298
5 -11 4 1.7777 -0.0202
5 -11 5 -4.2139 -0.0955
5 -11 6 -1.8914 0.0045
5 -11 7 0.2329 0.0292
5 -11 8 -0.3789 0.0248
5 -11 9 -0.9455 0.0358
5 -11 10 -0.1136 -0.0107
5 -11 11 2.1690 -0.0304
5 -11 12 2.8573 -0.0149
5 -11 13 -0.9689 -0.0106
5 -11 14 -2.2990 0.0122
5 -11 15 -1.1800 -0.0110
5 -11 16 -0.2630 -0.0013
5 -11 17 0.5761 0.0556
5 -11 18 0.8491 0.0206
5 -11 19 0.4355 -0.0355
5 -11 20 0.3525 -0.0068
5 -11 21 0.2960 -0.0284
5 -10 0 -0.3042 0.1571
5 -10 1 5.0992 0.0272
5 -10 2 3.4550 -0.0482
5 -10 3 -4.5415 0.0050
5 -10 4 -6.9045 -0.0771
5 -10 5 -1.7147 0.0127
5 -10 6 5.5637 0.0587
5 -10 7 2.4603 0.0011
5 -10 8 0.2843 0.0069
5 -10 9 -0.2235 -0.0089
5 -10 10 1.0814 -0.0147
5 -10 11 -0.7287 -0.0087
5 -10 12 -2.8619 -0.0076
5 -10 13 -1.5959 0.0039
5 -10 14 1.9495 0.0206
5 -10 15 2.4907 0.0143
5 -10 16 0.0175 0.0312
5 -10 17 -0.8634 -0.0227
5 -10 18 -1.0295 -0.0443
5 -10 19 -1.0544 -0.0266
5 -10 20 0.7995 -0.0792
5 -10 21 0.5664 0.0305
5 -9 0 -4.5214 -0.0165
5 -9 1 -1.6360 -0.1150
5 -9 2 0.2928 0.0194
5 -9 3 0.2294 -0.0308
5 -9 4 4.2822 -0.0173
5 -9 5 2.2038 0.0904
5 -9 6 -0.4457 -0.0024
5 -9 7 -2.4159 -0.0222
5 -9 8 -1.3173 -0.0042
5 -9 9 -1.7158 -0.0074
5 -9 10 -0.0316 -0.0063
5 -9 11 0.8028 -0.0140
5 -9 12 2.0257 0.0042
5 -9 13 0.3706 0.0046
5 -9 14 -0.3510 0.0072
5 -9 15 -1.0041 0.0032
5 -9 16 -0.5217 -0.0064
5 -9 17 0.5258 0.0028
5 -9 18 -0.2492 0.0358
5 -9 19 0.8583 -0.0435
5 -9 20 1.5072 -0.0463
5 -9 21 -0.5443 0.1066
5 -9 22 -1.2956 0.0702
5 -8 0 0.1721 -0.1570
5 -8 1 9.5399 0.0628
5 -8 2 3.7625 0.0641
5 -8 3 -5.0284 -0.0295
5 -8 4 -5.2348 0.0567
5 -8 5 -2.0608 0.0021
5 -8 6 3.8428 -0.0612
5 -8 7 0.8151 -0.0031
5 -8 8 -0.5818 -0.0058
5 -8 9 0.3930 0.0240
5 -8 10 2.5551 0.0073
5 -8 11 -0.3574 -0.0032
5 -8 12 -3.0541 0.0030
5 -8 13 -1.6923 -0.0025
5 -8 14 2.0163 0.0132
5 -8 15 1.7202 0.0066
5 -8 16 0.6436 -0.0060
5 -8 17 -2.4634 -0.0117
5 -8 18 -1.4507 -0.0104
5 -8 19 2.1967 -0.0250
5 -8 20 0.3173 -0.0204
5 -8 21 -1.3373 0.0374
5 -8 22 -0.4177 0.0923
5 -8 23 0.9698 -0.0100
5 -7 0 0.4850 0.0969
5 -7 1 2.3297 0.1110
5 -7 2 -6.9948 -0.0771
5 -7 3 -4.4246 -0.0200
5 -7 4 5.7641 0.0211
5 -7 5 4.2990 -0.0447
5 -7 6 -0.8013 0.0037
5 -7 7 -3.7980 0.0167
5 -7 8 -0.2226 0.0189
5 -7 9 0.5777 0.0237
5 -7 10 0.7997 -0.0357
5 -7 11 -1.1303 -0.0119
5 -7 12 1.3800 -0.0027
5 -7 13 1.4795 0.0051
5 -7 14 -0.4798 0.0036
5 -7 15 -0.9793 0.0090
5 -7 16 -0.9086 0.0097
5 -7 17 -0.8782 -0.0019
5 -7 18 2.9320 -0.0065
5 -7 19 1.2176 -0.0219
5 -7 20 -2.2313 -0.0193
5 -7 21 -0.6398 0.0736
5 -7 22 0.3653 0.0686
5 -7 23 0.8277 -0.1380
5 -6 0 6.1741 0.0812
5 -6 1 6.4491 -0.0972
5 -6 2 -4.5385 -0.0689
5 -6 3 -1.1535 0.0460
5 -6 4 0.0170 -0.0078
5 -6 5 -1.1363 -0.0071
5 -6 6 2.9617 0.0285
5 -6 7 -0.1225 0.0076
5 -6 8 0.2967 0.0088
5 -6 9 1.9793 -0.0210
5 -6 10 0.2563 -0.0187
5 -6 11 -3.2931 0.0072
5 -6 12 -2.1933 0.0061
5 -6 13 -1.2202 0.0198
5 -6 14 3.0759 -0.0066
5 -6 15 1.8698 0.0053
5 -6 16 -0.8915 -0.0102
5 -6 17 -1.0690 -0.0192
5 -6 18 0.0007 -0.0146
5 -6 19 -0.5647 0.0099
5 -6 20 0.0356 -0.0164
5 -6 21 0.2826 0.0302
5 -6 22 0.2739 0.0584
5 -6 23 0.6616 -0.0372
5 -6 24 -0.8718 -0.0258
5 -5 0 -3.3995 -0.1384
5 -5 1 -7.2156 -0.0468
5 -5 2 -5.2496 0.0554
5 -5 3 5.0375 0.0481
5 -5 4 6.1903 -0.0033
5 -5 5 3.5870 0.0124
5 -5 6 -4.2169 0.0024
5 -5 7 -6.6791 -0.0095
5 -5 8 2.5827 -0.0215
5 -5 9 0.4343 -0.0103
5 -5 10 -2.8092 0.0130
5 -5 11 0.0761 0.0032
5 -5 12 3.9632 0.0155
5 -5 13 3.5107 -0.0036
5 -5 14 0.0311 -0.0176
5 -5 15 -4.4315 0.0151
5 -5 16 -0.5078 0.0006
5 -5 17 0.4838 -0.0122
5 -5 18 1.2713 -0.0105
5 -5 19 0.5307 0.0280
5 -5 20 -1.2188 -0.0046
5 -5 21 0.1249 0.0519
5 -5 22 1.5267 0.0147
5 -5 23 -0.1749 -0.0958
5 -5 24 -1.4768 -0.0745
5 -4 0 3.8752 0.0580
5 -4 1 15.4984 0.0953
5 -4 2 5.6837 0.0232
5 -4 3 -3.1302 -0.0142
5 -4 4 -6.6718 -0.0388
5 -4 5 -3.8361 -0.0091
5 -4 6 -1.0130 0.0023
5 -4 7 4.2682 -0.0144
5 -4 8 3.8198 -0.0075
5 -4 9 -0.6006 0.0330
5 -4 10 1.1014 0.0066
5 -4 11 -1.5237 -0.0118
5 -4 12 -1.6711 -0.0083
5 -4 13 -0.3127 -0.0127
5 -4 14 -0.0955 0.0044
5 -4 15 -0.1875 0.0030
5 -4 16 1.1802 0.0032
5 -4 17 -1.3933 -0.0001
5 -4 18 0.8734 -0.0003
5 -4 19 0.1549 0.0100
5 -4 20 -0.0329 -0.0275
5 -4 21 0.8005 0.0169
5 -4 22 -0.6474 0.0116
5 -4 23 -1.9094 -0.0226
5 -4 24 -0.4589 -0.0410
5 -4 25 1.8417 0.0665
5 -3 0 11.6939 0.1583
5 -3 1 -7.6170 -0.0824
5 -3 2 -15.1223 -0.0418
5 -3 3 -0.4137 -0.0379
5 -3 4 7.0914 -0.0083
5 -3 5 4.7340 0.0379
5 -3 11 -1.5891 -0.0131
5 -3 12 5.2552 -0.0060
5 -3 13 2.2570 0.0257
5 -3 14 -3.1280 0.0146
5 -3 15 -3.3659 0.0054
5 -3 16 1.4897 0.0069
5 -3 17 1.1594 -0.0205
5 -3 18 1.6060 -0.0138
5 -3 19 -1.5299 0.0090
5 -3 20 -1.0427 0.0046
5 -3 21 0.6997 0.0088
5 -3 22 0.2718 -0.0068
5 -3 23 -0.2863 -0.0244
5 -3 24 1.3707 -0.0079
5 -3 25 1.1143 0.0566
5 -2 0 -1.7190 -0.1835
5 -2 1 1.3527 -0.1126
5 -2 2 9.3939 0.0386
5 -2 3 1.6258 -0.0053
5 -2 4 -8.4445 0.0797
5 -2 5 -3.3299 0.0122
5 -2 12 -0.0820 0.0239
5 -2 13 -2.1591 0.0221
5 -2 14 0.3356 -0.0186
5 -2 15 1.9695 -0.0148
5 -2 16 2.6164 -0.0116
5 -2 17 -1.5654 -0.0044
5 -2 18 -0.4839 -0.0168
5 -2 19 -0.9859 0.0093
5 -2 20 1.9931 0.0209
5 -2 21 0.5071 0.0041
5 -2 22 -2.1632 0.0255
5 -2 23 -0.2256 -0.0160
5 -2 24 0.9894 -0.0518
5 -2 25 -0.9501 0.0205
5 -1 0 -0.2520 -0.1820
5 -1 1 -4.3952 0.1681
5 -1 2 -8.6357 0.0409
5 -1 3 -5.3784 0.0401
5 -1 4 7.8106 0.0236
5 -1 12 2.7259 0.0032
5 -1 13 1.7116 -0.0181
5 -1 14 -3.1101 -0.0088
5 -1 15 -1.9287 -0.0116
5 -1 16 0.6918 0.0067
5 -1 17 -1.7650 0.0056
5 -1 18 0.7937 -0.0006
5 -1 19 0.0559 0.0494
5 -1 20 0.2890 -0.0119
5 -1 21 -2.1417 -0.0295
5 -1 22 0.7162 0.0117
5 -1 23 2.1300 -0.0212
5 -1 24 -0.4696 0.0118
5 -1 25 -0.8124 0.0359
5 -1 26 0.6646 -0.0282
5 0 0 -0.2802 0.2242
5 0 1 6.8442 0.1100
5 0 2 8.9574 -0.0759
5 0 3 2.5483 0.0066
5 0 4 -5.1611 -0.1017
5 0 5 -6.0939 -0.0048
5 0 12 -4.3668 -0.0115
5 0 13 -3.4555 0.0022
5 0 14 -0.5994 0.0001
5 0 15 3.8650 0.0019
5 0 16 -0.8751 0.0246
5 0 17 -0.6056 -0.0062
5 0 18 3.2086 -0.0014
5 0 19 -0.6815 -0.0014
5 0 20 -0.5848 -0.0166
5 0 21 0.0042 0.0191
5 0 22 1.1916 -0.0077
5 0 23 -1.0075 -0.0386
5 0 24 -0.8543 -0.0296
5 0 25 0.7077 0.0198
5 0 26 1.0091 0.0697
5 1 0 4.5531 0.1655
5 1 1 -3.1682 -0.1779
5 1 2 -11.5113 -0.0444
5 1 3 -7.9565 -0.0356
5 1 4 4.4049 -0.0060
5 1 5 9.9907 0.1167
5 1 6 1.3880 -0.0134
5 1 11 -1.8013 0.0014
5 1 12 0.9630 0.0054
5 1 13 2.4754 0.0103
5 1 14 1.2646 0.0057
5 1 15 -0.1944 0.0025
5 1 16 -0.4043 -0.0125
5 1 17 2.2554 -0.0065
5 1 18 -1.4039 0.0010
5 1 19 -3.1053 -0.0034
5 1 20 0.6353 0.0011
5 1 21 0.6056 -0.0220
5 1 22 0.6649 0.0116
5 1 23 0.3551 0.0316
5 1 24 0.4275 0.0318
5 1 25 -0.5231 0.0665
5 1 26 -1.1043 -0.0631
5 2 0 -6.1041 -0.2093
5 2 1 -0.5451 -0.0960
5 2 2 6.0795 0.0802
5 2 3 5.7853 0.0123
5 2 4 0.1455 0.1024
5 2 5 -2.3845 -0.0059
5 2 6 -3.4915 -0.0884
5 2 7 -0.8024 0.0045
5 2 8 1.9650 -0.0084
5 2 9 -2.3329 0.0080
5 2 10 1.5195 0.0243
5 2 11 3.3667 0.0100
5 2 12 -0.7793 0.0096
5 2 13 -0.7933 -0.0105
5 2 14 0.4053 -0.0181
5 2 15 1.6724 -0.0183
5 2 16 -3.0911 0.0010
5 2 17 -2.8334 0.0109
5 2 18 1.3054 -0.0098
5 2 19 2.8953 0.0203
5 2 20 1.0508 0.0088
5 2 21 -0.7977 -0.0012
5 2 22 -0.4742 0.0196
5 2 23 -0.9298 -0.0418
5 2 24 -1.5371 -0.0166
5 2 25 -0.2851 -0.0130
5 2 26 1.4933 -0.0686
5 3 0 7.9375 -0.1112
5 3 1 7.0048 0.1507
5 3 2 -6.9334 0.0441
5 3 3 -6.3171 0.0259
5 3 4 4.6762 0.0023
5 3 5 4.1735 -0.1097
5 3 6 -3.6160 -0.0015
5 3 7 -1.3387 0.0425
5 3 8 3.4355 0.0101
5 3 9 2.1614 0.0196
5 3 10 0.1000 -0.0025
5 3 11 -2.9806 -0.0056
5 3 12 -1.1794 -0.0199
5 3 13 0.4512 -0.0246
5 3 14 0.2609 -0.0054
5 3 15 -2.0841 0.0086
5 3 16 -2.0009 0.0273
5 3 17 6.6031 0.0126
5 3 18 2.0734 0.0008
5 3 19 -4.6043 0.0071
5 3 20 -3.0819 -0.0286
5 3 21 0.2921 0.0004
5 3 22 1.8611 -0.0030
5 3 23 0.2653 -0.0145
5 3 24 0.2095 0.0335
5 3 25 1.8356 -0.0013
5 3 26 0.0556 -0.0006
5 3 27 -1.1664 0.0560
5 4 0 12.9414 0.1825
5 4 1 -8.9042 0.0627
5 4 2 -6.0526 -0.0600
5 4 3 10.6868 -0.0066
5 4 4 0.9081 -0.0901
5 4 5 -7.1217 -0.0115
5 4 6 -0.0484 0.0809
5 4 7 3.0554 0.0097
5 4 8 -0.3006 -0.0042
5 4 9 -4.1825 -0.0101
5 4 10 -2.2479 -0.0194
5 4 11 3.0178 -0.0045
5 4 12 1.9901 -0.0134
5 4 13 -1.6108 0.0037
5 4 14 0.9531 0.0158
5 4 15 1.0841 0.0271
5 4 16 1.4095 0.0197
5 4 17 -1.0432 -0.0218
5 4 18 -5.7341 -0.0195
5 4 19 1.9577 -0.0093
5 4 20 4.0418 -0.0085
5 4 21 1.6458 0.0060
5 4 22 -0.7906 -0.0085
5 4 23 -1.9050 0.0248
5 4 24 0.2849 0.0120
5 4 25 -0.0326 -0.0087
5 4 26 -1.0645 0.0100
5 4 27 0.4286 0.0057
5 5 0 -1.4759 0.0353
5 5 1 -11.7058 -0.1433
5 5 2 5.2278 -0.0032
5 5 3 0.2313 -0.0110
5 5 4 -4.6907 -0.0167
5 5 5 3.9081 0.0986
5 5 6 -1.5732 0.0092
5 5 7 -0.4945 -0.0416
5 5 8 4.9320 -0.0121
5 5 9 0.0006 -0.0152
5 5 10 0.3520 0.0084
5 5 11 0.6577 0.0074
5 5 12 -3.2252 0.0071
5 5 13 -0.4971 0.0243
5 5 14 2.2932 0.0082
5 5 15 -1.2076 0.0069
5 5 16 -0.8297 -0.0262
5 5 17 0.3180 -0.0299
5 5 18 2.4380 0.0028
5 5 19 1.5458 0.0042
5 5 20 -4.3462 0.0184
5 5 21 -0.6210 0.0144
5 5 22 0.6606 0.0104
5 5 23 0.3801 -0.0024
5 5 24 0.1893 -0.0277
5 5 25 -0.3816 0.0102
5 5 26 0.1250 -0.0241
5 5 27 0.2046 -0.0115
5 6 0 -1.1745 -0.1606
5 6 1 -2.7617 0.0130
5 6 2 2.0691 0.0710
5 6 3 2.6170 -0.0230
5 6 4 4.1486 0.0600
5 6 5 -4.4563 0.0162
5 6 6 -0.4905 -0.0722
5 6 7 8.0412 -0.0085
5 6 8 -6.4672 0.0029
5 6 9 -9.4750 0.0226
5 6 10 2.3256 0.0176
5 6 11 4.4362 -0.0062
5 6 12 1.5439 0.0055
5 6 13 0.6399 -0.0129
5 6 14 -0.0640 -0.0148
5 6 15 -0.8190 -0.0122
5 6 16 0.7007 -0.0260
5 6 17 -1.9086 0.0193
5 6 18 -1.9716 0.0152
5 6 19 0.6650 0.0107
5 6 20 2.4282 0.0062
5 6 21 2.3552 -0.0248
5 6 22 -3.0975 -0.0002
5 6 23 -1.3015 -0.0012
5 6 24 0.7582 0.0066
5 6 25 0.5689 -0.0044
5 6 26 0.3676 -0.0217
5 6 27 0.5278 0.0487
5 7 0 -3.1988 0.0551
5 7 1 -6.8089 0.1155
5 7 2 6.0765 -0.0363
5 7 3 3.4760 0.0026
5 7 4 -6.1311 0.0155
5 7 5 -3.2052 -0.0791
5 7 6 4.4191 -0.0086
5 7 7 -3.7772 0.0302
5 7 8 -2.4638 0.0170
5 7 9 9.8866 0.0196
5 7 10 5.7399 -0.0234
5 7 11 -2.9126 -0.0084
5 7 12 -5.7869 -0.0100
5 7 13 -1.6245 -0.0025
5 7 14 0.0712 0.0111
5 7 15 -0.3670 -0.0083
5 7 16 0.6574 0.0226
5 7 17 -1.3459 0.0255
5 7 18 4.0134 -0.0122
5 7 19 2.1721 0.0072
5 7 20 -4.2363 -0.0158
5 7 21 -2.3316 -0.0011
5 7 22 0.9811 0.0078
5 7 23 3.8329 -0.0215
5 7 24 -0.1318 0.0013
5 7 25 -1.0660 0.0020
5 7 26 0.2457 0.0329
5 7 27 -0.8051 0.0136
5 8 0 -5.4834 0.0911
5 8 1 4.3064 -0.0791
5 8 2 4.4955 -0.0647
5 8 3 -4.8566 0.0425
5 8 4 -2.8164 -0.0360
5 8 5 2.3078 -0.0086
5 8 6 3.2670 0.0598
5 8 7 1.8907 0.0086
5 8 8 1.1901 0.0001
5 8 9 -4.8735 -0.0250
5 8 10 -7.1683 -0.0131
5 8 11 -1.7828 0.0087
5 8 12 2.8009 -0.0012
5 8 13 4.6944 0.0220
5 8 14 0.6490 -0.0067
5 8 15 1.3322 0.0052
5 8 16 -0.4005 0.0125
5 8 17 -1.1510 -0.0240
5 8 18 1.7392 -0.0063
5 8 19 -4.2116 -0.0051
5 8 20 0.9425 -0.0149
5 8 21 3.8889 0.0121
5 8 22 -1.4798 -0.0124
5 8 23 -1.2545 0.0222
5 8 24 -2.1056 0.0192
5 8 25 1.0181 0.0081
5 8 26 0.9486 0.0134
5 8 27 -0.4260 -0.0677
5 9 0 1.3672 -0.1247
5 9 1 -3.1241 -0.0490
5 9 2 -3.3640 0.0664
5 9 3 0.3517 0.0331
5 9 4 2.1876 -0.0310
5 9 5 1.9568 0.0364
5 9 6 0.1991 0.0080
5 9 7 -5.3205 -0.0340
5 9 8 -2.5634 -0.0185
5 9 9 2.4684 -0.0071
5 9 10 4.1963 0.0335
5 9 11 3.9729 0.0052
5 9 12 1.8136 0.0027
5 9 13 -1.3903 -0.0059
5 9 14 -4.0341 -0.0182
5 9 15 -1.4576 0.0107
5 9 16 -1.1509 -0.0174
5 9 17 0.7673 -0.0041
5 9 18 0.4053 0.0115
5 9 19 0.5626 -0.0011
5 9 20 2.9435 0.0155
5 9 21 -3.8184 0.0031
5 9 22 -0.3390 -0.0016
5 9 23 2.8263 0.0247
5 9 24 -0.8905 -0.0183
5 9 25 1.2937 0.0099
5 9 26 -0.8877 -0.0675
5 9 27 -1.2174 -0.0535
5 10 0 -2.5771 0.0281
5 10 1 0.7716 0.1051
5 10 2 4.1433 0.0285
5 10 3 1.9455 -0.0273
5 10 4 -1.8589 -0.0267
5 10 5 -2.4236 0.0085
5 10 6 -0.9073 -0.0334
5 10 7 2.0921 -0.0146
5 10 8 4.9940 0.0177
5 10 9 -0.6028 0.0303
5 10 10 -3.1971 0.0163
5 10 11 -1.6529 -0.0274
5 10 12 -1.1178 -0.0155
5 10 13 -1.7401 -0.0181
5 10 14 -0.6859 0.0159
5 10 15 3.7951 0.0131
5 10 16 0.8871 -0.0089
5 10 17 0.3983 0.0208
5 10 18 1.0540 0.0066
5 10 19 -1.0403 -0.0023
5 10 20 -1.7249 -0.0025
5 10 21 -0.6004 -0.0148
5 10 22 1.4309 -0.0051
5 10 23 -1.9054 -0.0049
5 10 24 -0.1309 -0.0218
5 10 25 1.1981 -0.0015
5 10 26 -1.0746 -0.0399
5 10 27 1.4066 0.1014
5 11 0 4.8913 0.1498
5 11 1 -1.5190 -0.0510
5 11 2 -1.4013 -0.0609
5 11 3 -0.7328 -0.0497
5 11 4 -1.7166 -0.0003
5 11 5 1.7040 0.0294
5 11 6 2.9885 -0.0054
5 11 7 -0.5491 0.0306
5 11 8 -2.0389 0.0224
5 11 9 -3.5893 0.0030
5 11 10 0.0781 -0.0234
5 11 11 3.3828 -0.0297
5 11 12 1.4856 0.0015
5 11 13 -1.3508 0.0141
5 11 14 0.9680 0.0293
5 11 15 0.7069 -0.0037
5 11 16 -3.1420 0.0010
5 11 17 1.7020 0.0031
5 11 18 -1.1343 -0.0277
5 11 19 -1.2990 -0.0144
5 11 20 3.1247 -0.0041
5 11 21 -0.8547 -0.0001
5 11 22 -0.7964 0.0163
5 11 23 1.9989 0.0170
5 11 24 0.7075 0.0159
5 11 25 -1.1293 0.0289
5 11 26 0.7439 -0.0156
5 11 27 0.2004 0.0330
5 12 0 -4.3421 -0.1404
5 12 1 -1.8107 -0.0850
5 12 2 2.9526 0.0216
5 12 3 -0.2737 0.0146
5 12 4 -0.9436 0.0723
5 12 5 2.2268 -0.0034
5 12 6 -1.1421 -0.0140
5 12 7 -0.8172 0.0143
5 12 8 0.8860 -0.0217
5 12 9 -1.9394 -0.0160
5 12 10 1.9667 -0.0231
5 12 11 1.6861 0.0114
5 12 12 -2.0089 0.0258
5 12 13 -0.0168 0.0111
5 12 14 1.9164 0.0010
5 12 15 -1.8290 -0.0191
5 12 16 -0.3498 -0.0065
5 12 17 3.1520 -0.0201
5 12 18 -2.6806 -0.0052
5 12 19 0.8523 0.0257
5 12 20 0.0076 0.0198
5 12 21 -3.1342 0.0172
5 12 22 1.7049 -0.0009
5 12 23 0.8209 -0.0107
5 12 24 -0.3610 -0.0082
5 12 25 0.8669 -0.0324
5 12 26 -0.4646 -0.0600
5 12 27 -1.6719 0.0299
5 13 0 2.5707 -0.1169
5 13 1 3.3818 0.1314
5 13 2 -0.2205 0.0146
5 13 3 -1.3487 0.0360
5 13 4 1.7201 -0.0010
5 13 5 -0.5404 -0.0655
5 13 6 -2.0678 0.0168
5 13 7 1.4575 -0.0081
5 13 8 -1.4882 -0.0171
5 13 9 -1.4378 0.0046
5 13 10 4.4769 0.0121
5 13 11 0.7812 0.0273
5 13 12 -1.8203 -0.0107
5 13 13 -1.1926 -0.0111
5 13 14 -1.7087 -0.0169
5 13 15 -1.3163 0.0015
5 13 16 3.1825 0.0096
5 13 17 1.0264 -0.0018
5 13 18 -4.2459 0.0234
5 13 19 2.8732 0.0109
5 13 20 1.0794 -0.0069
5 13 21 -0.8486 -0.0192
5 13 22 1.6311 -0.0237
5 13 23 0.7602 -0.0034
5 13 24 -1.4769 -0.0206
5 13 25 -2.9340 0.0124
5 13 26 -0.2217 0.0473
5 13 27 1.3856 0.0595
5 14 0 3.3877 0.1974
5 14 1 -3.1482 0.0461
5 14 2 -3.2574 -0.0642
5 14 3 0.1835 0.0052
5 14 4 -0.5865 -0.0827
5 14 5 0.0171 0.0121
5 14 6 3.1107 0.0463
5 14 7 0.0940 -0.0220
5 14 8 -2.5197 0.0122
5 14 9 1.7814 0.0241
5 14 10 1.6456 0.0086
5 14 11 -4.0987 -0.0162
5 14 12 -1.6086 -0.0177
5 14 13 2.2919 -0.0026
5 14 14 2.7370 0.0027
5 14 15 0.5975 0.0304
5 14 16 0.3979 -0.0092
5 14 17 -2.9678 0.0024
5 14 18 -1.0998 -0.0026
5 14 19 4.5499 -0.0223
5 14 20 -2.9506 -0.0129
5 14 21 -2.0000 -0.0064
5 14 22 1.5588 0.0219
5 14 23 -0.6645 0.0083
5 14 24 -1.6493 0.0135
5 14 25 2.5092 0.0680
5 14 26 3.0720 -0.0396
5 15 0 -5.9940 0.0850
5 15 1 -2.8225 -0.1599
5 15 2 3.8534 -0.0031
5 15 3 2.4721 -0.0145
5 15 4 1.1019 0.0001
5 15 5 0.8055 0.0926
5 15 6 -3.9786 -0.0134
5 15 7 -3.2952 -0.0214
5 15 8 2.6805 0.0137
5 15 9 2.1420 -0.0138
5 15 10 -0.6374 -0.0256
5 15 11 -0.7547 -0.0107
5 15 12 2.0404 0.0111
5 15 13 0.3869 0.0148
5 15 14 -2.4052 0.0197
5 15 15 -2.4785 -0.0025
5 15 16 1.4089 -0.0226
5 15 17 0.7198 0.0017
5 15 18 1.3642 -0.0215
5 15 19 0.9752 0.0171
5 15 20 -3.4579 0.0149
5 15 21 1.2273 0.0243
5 15 22 1.8101 0.0123
5 15 23 -0.5757 -0.0299
5 15 24 -0.0088 -0.0014
5 15 25 1.1040 -0.0052
5 15 26 -2.4142 -0.0726
5 16 0 0.2212 -0.2099
5 16 1 6.0698 -0.0503
5 16 2 -0.5306 0.0850
5 16 3 -3.0274 -0.0124
5 16 4 -0.9174 0.0827
5 16 5 -2.3727 -0.0046
5 16 6 1.1152 -0.0696
5 16 7 5.7708 0.0007
5 16 8 0.7481 -0.0110
5 16 9 -3.5446 0.0062
5 16 10 -0.8133 0.0150
5 16 11 -0.7558 0.0190
5 16 12 1.2017 0.0196
5 16 13 -0.2130 -0.0045
5 16 14 -0.6861 -0.0175
5 16 15 1.2996 -0.0218
5 16 16 2.2434 -0.0016
5 16 17 -1.9856 0.0058
5 16 18 -1.2242 0.0043
5 16 19 0.2944 0.0173
5 16 20 -1.2013 -0.0141
5 16 21 2.1702 0.0044
5 16 22 0.3758 -0.0247
5 16 23 -1.0945 -0.0266
5 16 24 0.7979 -0.0014
5 16 25 -0.2639 0.0414
5 17 0 4.6408 -0.0818
5 17 1 -2.7283 0.1703
5 17 2 -2.6644 0.0181
5 17 3 3.1855 0.0156
5 17 4 0.4837 0.0044
5 17 5 0.5725 -0.1215
5 17 6 1.4046 0.0145
5 17 7 -3.7184 0.0264
5 17 8 -3.5925 0.0111
5 17 9 2.5106 0.0267
5 17 10 3.0177 -0.0116
5 17 11 -0.7580 0.0031
5 17 12 0.0362 -0.0200
5 17 13 -2.1275 -0.0273
5 17 14 1.2654 -0.0133
5 17 15 1.2815 -0.0047
5 17 16 -0.6471 0.0283
5 17 17 -1.5309 0.0143
5 17 18 1.3296 0.0058
5 17 19 1.2329 0.0027
5 17 20 -1.1725 -0.0136
5 17 21 0.6667 0.0016
5 17 22 -1.1290 0.0011
5 17 23 -0.5269 0.0016
5 17 24 -0.4395 0.0361
5 17 25 -1.2518 0.0595
5 18 0 -1.9907 0.1773
5 18 1 -2.4171 0.0244
5 18 2 2.2110 -0.0776
5 18 3 -0.3919 -0.0006
5 18 4 -2.7469 -0.0840
5 18 5 -0.0870 0.0049
5 18 6 -1.1157 0.0883
5 18 7 2.4705 -0.0113
5 18 8 5.4167 0.0180
5 18 9 0.3424 -0.0170
5 18 10 -5.3205 -0.0165
5 18 11 -3.3308 -0.0051
5 18 12 2.6516 -0.0161
5 18 13 2.0201 0.0123
5 18 14 1.4077 0.0127
5 18 15 -3.2298 0.0448
5 18 16 -0.3546 0.0334
5 18 17 0.2388 -0.0180
5 18 18 0.7701 -0.0105
5 18 19 -0.1322 -0.0258
5 18 20 -1.7644 -0.0094
5 18 21 1.0050 0.0105
5 18 22 0.2475 0.0014
5 18 23 1.0239 -0.0201
5 18 24 0.9307 0.0044
5 18 25 0.9976 -0.0219
5 19 0 -0.7591 0.0240
5 19 1 0.7077 -0.1415
5 19 2 1.3367 0.0056
5 19 3 0.1082 -0.0121
5 19 4 1.9181 0.0002
5 19 5 1.9584 0.0792
5 19 6 1.4100 0.0050
5 19 7 -0.0607 -0.0227
5 19 8 -5.8130 -0.0061
5 19 9 -4.7413 -0.0244
5 19 10 1.3326 0.0151
5 19 11 5.8209 0.0026
5 19 12 2.9850 0.0210
5 19 13 -2.8280 0.0073
5 19 14 -1.2575 0.0032
5 19 15 -1.1241 -0.0063
5 19 16 2.5675 -0.0418
5 19 17 0.2976 -0.0207
5 19 18 0.6430 -0.0172
5 19 19 -1.1015 -0.0146
5 19 20 -0.9867 0.0021
5 19 21 2.1158 -0.0071
5 19 22 -0.0722 0.0563
5 19 23 -0.5133 0.0235
5 19 24 -1.9160 0.0091
5 20 0 0.3093 -0.1477
5 20 1 0.4120 0.0060
5 20 2 0.2088 0.0670
5 20 3 1.7827 -0.0051
5 20 4 -1.2192 0.0641
5 20 5 -4.0126 -0.0059
5 20 6 -2.7939 -0.0512
5 20 7 -0.6151 -0.0095
5 20 8 2.7121 0.0027
5 20 9 5.0411 0.0137
5 20 10 2.1945 -0.0005
5 20 11 -1.2552 -0.0041
5 20 12 -3.9539 -0.0031
5 20 13 -1.0491 -0.0272
5 20 14 1.4548 -0.0019
5 20 15 -1.3188 -0.0139
5 20 16 2.0367 0.0195
5 20 17 -1.3214 0.0190
5 20 18 -1.5289 -0.0031
5 20 19 -0.6838 0.0268
5 20 20 1.0446 0.0211
5 20 21 1.3083 0.0537
5 20 22 -0.9033 0.0414
5 20 23 -0.1544 -0.1262
5 21 0 -2.6008 0.0005
5 21 1 -0.7734 0.0863
5 21 2 1.5036 -0.0220
5 21 3 -0.2212 0.0063
5 21 4 -2.9533 0.0041
5 21 5 1.3634 -0.0745
5 21 6 3.7376 0.0057
5 21 7 2.5313 0.0300
5 21 8 -1.1302 0.0066
5 21 9 -2.5867 -0.0005
5 21 10 -1.5976 -0.0192
5 21 11 -0.8498 -0.0024
5 21 12 0.0940 -0.0096
5 21 13 2.0771 0.0165
5 21 14 -0.2362 0.0119
5 21 15 -0.6832 0.0040
5 21 16 2.0663 0.0461
5 21 17 -2.2998 -0.0151
5 21 18 1.8411 -0.0221
5 21 19 1.9439 -0.0055
5 21 20 -0.5101 -0.0320
5 21 21 -0.0389 0.0007
5 21 22 -0.8492 -0.0278
5 22 0 -1.8995 0.0662
5 22 1 2.6844 -0.0258
5 22 2 0.1979 -0.0348
5 22 3 0.4022 0.0219
5 22 4 0.4199 -0.0373
5 22 5 -1.3929 -0.0075
5 22 6 -1.6691 0.0525
5 22 7 0.4324 0.0083
5 22 8 0.2520 -0.0073
5 22 9 0.4404 -0.0120
5 22 10 -0.5529 -0.0204
5 22 11 -0.0056 0.0245
5 22 12 0.3647 0.0248
5 22 13 0.1074 0.0184
5 22 14 -0.1024 -0.0182
5 22 15 0.9341 0.0257
5 22 16 -0.0604 -0.0003
5 22 17 -2.0494 -0.0674
5 22 18 1.9593 -0.0018
5 22 19 -2.1312 0.0082
5 22 20 -1.6075 0.0130
5 22 21 1.2775 0.0590
5 23 0 1.6352 -0.0631
5 23 1 -0.1800 -0.0586
5 23 2 -0.5623 0.0448
5 23 3 0.9490 0.0261
5 23 4 -3.1264 -0.0023
5 23 5 -0.3069 0.0377
5 23 6 4.1248 0.0088
5 23 7 1.0929 -0.0336
5 23 8 -2.9096 -0.0155
5 23 9 -1.3393 0.0046
5 23 10 1.8575 0.0010
5 23 11 1.0363 0.0256
5 23 12 -1.7787 -0.0109
5 23 13 1.3995 -0.0106
5 23 14 1.5246 -0.0221
5 23 15 -1.3240 0.0023
5 23 16 -1.3656 -0.0458
5 23 17 0.7016 -0.0216
5 23 18 2.2766 0.0205
5 23 19 -1.5662 0.0056
5 23 20 0.8859 0.0307
5 24 0 -0.4170 0.0045
5 24 1 0.7651 0.0691
5 24 2 0.6907 0.0598
5 24 3 -0.5271 -0.0385
5 24 4 -0.6106 -0.0164
5 24 5 1.9758 -0.0066
5 24 6 -0.2751 -0.0396
5 24 7 -1.7055 -0.0123
5 24 8 1.2327 0.0254
5 24 9 1.8297 0.0002
5 24 10 -1.5006 -0.0033
5 24 11 -3.2650 0.0249
5 24 12 1.6695 -0.0249
5 24 13 3.5690 -0.0099
5 24 14 -2.1108 -0.0203
5 24 15 -2.0354 0.0219
5 24 16 -0.0969 -0.0056
5 24 17 -0.3283 0.0483
5 24 18 -0.1463 0.0638
5 24 19 -1.2690 0.0284
5 25 0 1.8909 0.0413
5 25 1 -0.6982 -0.0144
5 25 2 -1.2708 -0.0420
5 25 3 1.4384 -0.0512
5 25 4 -0.0990 0.0302
5 25 5 -0.5946 -0.0200
5 25 6 -1.0041 -0.0061
5 25 7 0.7648 0.0361
5 25 8 0.7234 0.0167
5 25 9 -3.1271 0.0002
5 25 10 -1.1170 0.0074
5 25 11 3.1689 -0.0295
5 25 12 2.7572 -0.0221
5 25 13 -2.2472 0.0412
5 25 14 -2.6550 0.0193
5 25 15 0.6959 0.0320
5 25 16 0.7174 -0.0229
5 25 17 2.0965 0.0187
5 25 18 2.5386 -0.0611
5 26 0 -0.2974 -0.1761
5 26 1 -0.3092 -0.0164
5 26 2 2.2142 -0.0214
5 26 3 -0.5719 0.0349
5 26 4 -3.3586 0.0324
5 26 5 0.4183 -0.0228
5 26 6 1.6547 0.0447
5 26 7 2.8667 0.0037
5 26 8 -0.7190 -0.0091
5 26 9 -2.1213 -0.0190
5 26 10 2.0532 -0.0185
5 26 11 0.5473 0.0144
5 26 12 -0.6416 0.0428
5 26 13 -1.1137 -0.0071
5 26 14 0.3123 -0.0309
5 26 15 1.2506 -0.0253
5 26 16 0.0803 -0.0456
5 27 1 0.6318 0.1097
5 27 2 -0.8390 0.0244
5 27 3 -2.0773 0.0473
5 27 4 1.8060 -0.0514
5 27 5 3.4932 -0.0071
5 27 6 -0.0293 0.0022
5 27 7 -1.7816 -0.0184
5 27 8 -3.1385 0.0149
5 27 9 -0.0852 -0.0256
5 27 10 0.6021 0.0255
5 27 11 0.1526 -0.0012
5 27 12 1.2778 -0.0320
6 -23 0 0.5645 -0.0209
6 -23 1 -0.6806 0.0566
6 -23 2 -0.6776 0.0661
6 -22 0 -0.3054 -0.0676
6 -22 1 -0.1108 -0.0424
6 -22 2 1.5915 -0.0299
6 -22 3 0.2838 -0.0572
6 -22 4 -1.5702 0.0651
6 -22 5 -0.5627 0.0222
6 -21 0 1.1081 -0.2260
6 -21 1 0.9339 0.1415
6 -21 2 -0.3943 0.0759
6 -21 3 -0.5523 0.0191
6 -21 4 -0.4990 -0.0122
6 -21 5 1.0118 -0.0533
6 -21 6 0.8945 0.0302
6 -21 7 -1.5766 0.1044
6 -21 8 0.8626 0.0014
6 -20 0 -0.8289 0.1469
6 -20 1 -1.3532 0.1173
6 -20 2 -0.0033 -0.0575
6 -20 3 0.7606 -0.0187
6 -20 4 -1.2251 -0.0519
6 -20 5 0.1094 0.0365
6 -20 6 -0.4724 0.0370
6 -20 7 -0.0839 -0.0325
6 -20 8 1.9440 -0.1160
6 -20 9 -1.0623 -0.0290
6 -20 10 -0.2793 0.1296
6 -19 0 1.1346 0.1428
6 -19 1 1.0846 -0.0697
6 -19 2 0.4018 -0.0106
6 -19 3 -1.1021 -0.0600
6 -19 4 -0.9067 -0.0343
6 -19 5 1.9465 0.0532
6 -19 6 0.7250 -0.0182
6 -19 7 0.5490 0.0132
6 -19 8 -0.6132 -0.0033
6 -19 9 -1.7835 0.0182
6 -19 10 -0.0536 0.0394
6 -19 11 0.6634 0.0506
6 -18 0 -0.8311 -0.1928
6 -18 1 -1.8992 -0.1101
6 -18 2 -0.6246 0.0319
6 -18 3 0.9108 0.0063
6 -18 4 0.9768 0.0959
6 -18 5 -0.3028 0.0084
6 -18 6 -0.7987 -0.0186
6 -18 7 0.0671 0.0057
6 -18 8 -1.0440 -0.0599
6 -18 9 0.1924 0.0216
6 -18 10 1.1889 0.0643
6 -18 11 0.5608 -0.0125
6 -18 12 -0.9896 -0.0722
6 -18 13 -0.9961 0.0314
6 -17 0 0.0588 -0.1120
6 -17 1 1.6006 0.1778
6 -17 2 0.9103 0.0374
6 -17 3 -0.1555 0.0049
6 -17 4 -1.6948 -0.0113
6 -17 5 0.8047 -0.0604
6 -17 6 2.0784 0.0087
6 -17 7 -1.6537 -0.0223
6 -17 8 -1.2844 -0.0021
6 -17 9 1.3330 0.0323
6 -17 10 -0.3434 -0.0112
6 -17 11 -0.0729 0.0060
6 -17 12 1.1983 -0.0071
6 -17 13 0.5772 -0.0833
6 -17 14 -1.5249 -0.0168
6 -16 0 1.5733 0.1423
6 -16 1 -0.2622 0.0245
6 -16 2 -2.0313 -0.0665
6 -16 3 -0.5016 0.0323
6 -16 4 0.2387 -0.0455
6 -16 5 1.8047 -0.0170
6 -16 6 -2.0590 0.0042
6 -16 7 -1.8308 0.0019
6 -16 8 2.9095 0.0320
6 -16 9 1.0769 0.0195
6 -16 10 -0.8498 0.0229
6 -16 11 0.4485 -0.0110
6 -16 12 -1.2461 -0.0462
6 -16 13 -2.0095 0.0240
6 -16 14 0.5236 0.0717
6 -16 15 2.2235 -0.0381
6 -15 0 1.3819 0.0167
6 -15 1 -3.5195 -0.0983
6 -15 2 -0.6129 0.0175
6 -15 3 1.8841 -0.0179
6 -15 4 1.2865 -0.0288
6 -15 5 1.0944 0.0641
6 -15 6 -0.9567 0.0139
6 -15 7 0.7783 0.0012
6 -15 8 -0.1871 -0.0004
6 -15 9 -2.0548 -0.0135
6 -15 10 -0.6698 -0.0280
6 -15 11 0.6356 -0.0109
6 -15 12 1.0936 0.0157
6 -15 13 1.6244 -0.0267
6 -15 14 0.0603 -0.0376
6 -15 15 -1.5087 0.0445
6 -15 16 -0.9422 0.0560
6 -14 0 -1.1204 -0.1219
6 -14 1 0.0509 0.0334
6 -14 2 3.3477 0.0675
6 -14 3 -0.9420 -0.0271
6 -14 4 -1.4694 0.0377
6 -14 5 -0.5404 -0.0066
6 -14 6 -1.4416 -0.0571
6 -14 7 -0.5015 0.0015
6 -14 8 0.6257 0.0029
6 -14 9 1.6282 0.0111
6 -14 10 1.3328 0.0100
6 -14 11 0.2308 -0.0024
6 -14 12 -1.4692 0.0031
6 -14 13 -1.8844 0.0140
6 -14 14 -0.8412 0.0300
6 -14 15 1.5074 -0.0118
6 -14 16 1.5044 -0.0394
6 -14 17 0.4472 0.0601
6 -13 0 0.1416 0.0676
6 -13 1 -2.8533 0.0819
6 -13 2 -3.5428 -0.0413
6 -13 3 -0.8352 -0.0273
6 -13 4 4.0164 0.0237
6 -13 5 2.3720 -0.0260
6 -13 6 -1.8016 0.0116
6 -13 7 -0.9761 0.0026
6 -13 8 1.2646 0.0076
6 -13 9 -0.2876 0.0291
6 -13 10 -1.7865 -0.0189
6 -13 11 -1.0127 0.0064
6 -13 12 1.3549 0.0134
6 -13 13 1.5884 -0.0393
6 -13 14 0.3403 -0.0160
6 -13 15 -0.1713 -0.0104
6 -13 16 -1.4150 0.0158
6 -13 17 -0.2544 0.0103
6 -13 18 -0.4158 -0.0735
6 -12 0 -4.2859 0.0576
6 -12 1 -1.2573 -0.0429
6 -12 2 5.2329 -0.0379
6 -12 3 2.9921 0.0061
6 -12 4 -0.7072 0.0022
6 -12 5 -4.0190 -0.0069
6 -12 6 -3.2921 0.0007
6 -12 7 2.8565 0.0004
6 -12 8 2.5159 0.0318
6 -12 9 -0.4598 -0.0204
6 -12 10 0.4954 -0.0214
6 -12 11 0.9803 0.0039
6 -12 12 -0.4466 -0.0230
6 -12 13 -2.6046 0.0158
6 -12 14 -0.2545 0.0054
6 -12 15 1.1102 -0.0333
6 -12 16 0.9694 0.0541
6 -12 17 1.1834 0.0655
6 -12 18 -1.1083 0.0283
6 -12 19 -0.4506 -0.0337
6 -11 0 -3.1781 -0.1090
6 -11 1 1.7033 -0.0255
6 -11 2 -0.0235 0.0127
6 -11 3 -2.8439 0.0292
6 -11 4 1.6850 0.0139
6 -11 5 0.4591 -0.0152
6 -11 6 0.3440 -0.0027
6 -11 7 1.6522 -0.0021
6 -11 8 -1.3324 -0.0126
6 -11 9 -1.0451 0.0039
6 -11 10 -1.5087 0.0284
6 -11 11 -1.2963 -0.0042
6 -11 12 0.7513 0.0055
6 -11 13 1.6412 -0.0128
6 -11 14 1.6427 -0.0240
6 -11 15 -0.8047 0.0375
6 -11 16 -1.2820 0.0133
6 -11 17 -1.0851 -0.0225
6 -11 18 -0.5629 -0.0042
6 -11 19 1.2460 -0.0631
6 -11 20 1.1757 -0.0258
6 -10 0 -2.8603 0.0277
6 -10 1 5.0959 0.0655
6 -10 2 1.7791 0.0140
6 -10 3 1.0368 0.0121
6 -10 4 -1.6242 -0.0450
6 -10 5 -5.2014 -0.0007
6 -10 6 -0.0791 0.0210
6 -10 7 3.1923 -0.0090
6 -10 8 0.7013 0.0165
6 -10 9 -0.6981 0.0176
6 -10 10 0.2606 -0.0131
6 -10 11 2.7594 -0.0106
6 -10 12 0.2520 -0.0081
6 -10 13 -2.4286 -0.0187
6 -10 14 -1.1485 0.0179
6 -10 15 0.4994 0.0082
6 -10 16 1.2378 0.0120
6 -10 17 1.1351 0.0525
6 -10 18 -0.1955 -0.0184
6 -10 19 -0.6292 -0.0908
6 -10 20 -0.4114 -0.0566
6 -10 21 -1.1163 0.0456
6 -9 0 3.6481 0.1381
6 -9 1 1.0991 -0.0421
6 -9 2 -5.1598 -0.0010
6 -9 3 -3.1617 -0.0327
6 -9 4 0.1034 -0.0265
6 -9 5 3.5955 0.0511
6 -9 6 3.8853 -0.0190
6 -9 7 0.3189 -0.0121
6 -9 8 -3.2178 0.0195
6 -9 9 -0.9584 0.0015
6 -9 10 0.1860 -0.0054
6 -9 11 -1.4074 -0.0167
6 -9 12 -1.1052 -0.0182
6 -9 13 1.3887 -0.0021
6 -9 14 1.9584 0.0245
6 -9 15 0.1859 0.0173
6 -9 16 -1.3705 -0.0172
6 -9 17 -1.3248 -0.0145
6 -9 18 -0.8908 0.0085
6 -9 19 1.6576 -0.0315
6 -9 20 0.9792 -0.0508
6 -9 21 -0.2646 0.1199
6 -8 0 -3.6050 -0.0946
6 -8 1 1.8572 -0.0963
6 -8 2 1.6253 0.0237
6 -8 3 3.7500 -0.0282
6 -8 4 0.6360 0.0641
6 -8 5 -2.9464 0.0170
6 -8 6 -1.7818 -0.0536
6 -8 7 -0.1062 0.0211
6 -8 8 -0.6651 0.0055
6 -8 9 1.3334 -0.0093
6 -8 10 0.4550 -0.0107
6 -8 11 2.0325 0.0037
6 -8 12 1.1237 0.0144
6 -8 13 -2.2904 0.0002
6 -8 14 -1.3702 0.0111
6 -8 15 0.6817 0.0021
6 -8 16 0.8800 0.0140
6 -8 17 -0.0417 0.0225
6 -8 18 -0.0222 -0.0380
6 -8 19 1.0703 -0.0654
6 -8 20 -1.1360 -0.0044
6 -8 21 -0.8061 0.1259
6 -8 22 0.2303 0.0492
6 -7 0 4.6933 -0.1857
6 -7 1 2.8873 0.0954
6 -7 2 -6.1542 0.0429
6 -7 3 -3.8530 0.0168
6 -7 4 -2.1292 0.0271
6 -7 5 3.7766 -0.0840
6 -7 6 3.3078 -0.0049
6 -7 7 -0.5462 0.0368
6 -7 8 -0.7166 -0.0031
6 -7 9 0.3428 0.0145
6 -7 10 -1.3172 -0.0043
6 -7 11 -0.8568 -0.0057
6 -7 12 -1.9677 -0.0114
6 -7 13 0.8954 -0.0088
6 -7 14 2.9662 0.0109
6 -7 15 0.5655 0.0183
6 -7 16 -2.2391 -0.0054
6 -7 17 -1.7502 -0.0395
6 -7 18 2.2682 0.0182
6 -7 19 1.6832 0.0118
6 -7 20 -2.4275 -0.0407
6 -7 21 -0.6570 0.0782
6 -7 22 1.5324 0.0426
6 -7 23 0.2860 -0.1188
6 -6 0 -0.6298 0.1532
6 -6 1 -1.4511 0.1207
6 -6 2 0.8622 -0.0515
6 -6 3 5.7768 0.0062
6 -6 4 2.4243 -0.0678
6 -6 5 -0.3555 -0.0245
6 -6 6 -4.4015 0.0649
6 -6 7 -0.2583 0.0048
6 -6 8 0.1752 0.0053
6 -6 9 -0.0535 -0.0015
6 -6 10 0.8136 -0.0181
6 -6 11 1.7105 0.0011
6 -6 12 0.3631 0.0007
6 -6 13 -0.3163 -0.0103
6 -6 14 -1.2645 0.0103
6 -6 15 -0.2522 0.0280
6 -6 16 -0.0173 -0.0078
6 -6 17 1.0726 -0.0233
6 -6 18 0.6788 -0.0008
6 -6 19 -2.8432 -0.0260
6 -6 20 -0.8282 -0.0066
6 -6 21 3.2235 0.0562
6 -6 22 1.2091 0.0042
6 -6 23 -2.2558 -0.0525
6 -5 0 5.5766 0.1962
6 -5 1 0.6938 -0.1535
6 -5 2 -3.0564 -0.0519
6 -5 3 -4.2372 -0.0274
6 -5 4 -2.4279 -0.0271
6 -5 5 3.0137 0.0967
6 -5 6 1.0224 0.0185
6 -5 7 0.6280 -0.0196
6 -5 8 -0.3821 -0.0018
6 -5 9 1.0634 -0.0186
6 -5 10 -2.1570 -0.0129
6 -5 11 -1.7792 -0.0138
6 -5 12 0.4162 0.0058
6 -5 13 2.1390 0.0086
6 -5 14 0.6890 0.0261
6 -5 15 -0.4357 0.0060
6 -5 16 -1.3515 -0.0200
6 -5 17 -0.5560 -0.0243
6 -5 18 0.7878 0.0208
6 -5 19 1.3681 0.0025
6 -5 20 0.8409 -0.0359
6 -5 21 -1.3641 0.0668
6 -5 22 -1.3315 0.0764
6 -5 23 -0.4135 -0.0709
6 -5 24 1.5529 -0.0718
6 -4 0 -1.1355 -0.2048
6 -4 1 0.3718 -0.1269
6 -4 2 5.1125 0.0851
6 -4 3 3.4344 -0.0056
6 -4 4 2.3585 0.0951
6 -4 5 -2.1823 0.0244
6 -4 6 -5.3475 -0.0719
6 -4 7 2.6104 -0.0092
6 -4 13 -2.2950 -0.0039
6 -4 14 -3.2144 0.0022
6 -4 15 0.9963 -0.0063
6 -4 16 0.6609 -0.0021
6 -4 17 0.7990 -0.0244
6 -4 18 1.0949 0.0171
6 -4 19 -1.8654 -0.0018
6 -4 20 -1.1928 0.0191
6 -4 21 1.5846 0.0303
6 -4 22 1.4900 -0.0452
6 -4 23 -1.2654 -0.0396
6 -4 24 -0.1065 -0.0077
6 -3 0 11.7958 -0.1320
6 -3 1 2.9084 0.1690
6 -3 2 -7.1320 0.0376
6 -3 3 -10.4962 0.0137
6 -3 4 -0.9626 0.0308
6 -3 5 3.5509 -0.1085
6 -3 6 5.1766 -0.0135
6 -3 14 0.7410 0.0009
6 -3 15 0.5408 -0.0013
6 -3 16 -0.7824 0.0092
6 -3 17 1.4157 -0.0151
6 -3 18 -1.0835 0.0024
6 -3 19 -1.0534 -0.0124
6 -3 20 1.7907 -0.0053
6 -3 21 -0.8011 -0.0152
6 -3 22 -1.4599 0.0556
6 -3 23 -0.0978 -0.0099
6 -3 24 1.6106 -0.0715
6 -2 0 -7.2589 0.2037
6 -2 1 -8.3735 0.0522
6 -2 2 2.0649 -0.0882
6 -2 3 6.3517 0.0111
6 -2 4 6.3117 -0.0849
6 -2 5 -2.2142 -0.0138
6 -2 14 -2.9382 -0.0045
6 -2 15 2.5044 0.0038
6 -2 16 1.6445 -0.0050
6 -2 17 -1.1314 -0.0315
6 -2 18 -2.0092 -0.0002
6 -2 19 1.3542 0.0228
6 -2 20 0.6172 0.0115
6 -2 21 -0.3275 0.0212
6 -2 22 1.2714 0.0400
6 -2 23 -0.0778 -0.0400
6 -2 24 -0.0135 -0.0103
6 -2 25 -1.0256 -0.0492
6 -1 0 0.6839 0.0192
6 -1 1 9.2933 -0.1571
6 -1 2 -1.0458 0.0092
6 -1 3 -9.5317 -0.0031
6 -1 4 -1.6718 -0.0127
6 -1 5 3.5557 0.1045
6 -1 15 1.2320 -0.0016
6 -1 16 -3.8260 -0.0115
6 -1 17 -0.0228 -0.0095
6 -1 18 0.5940 0.0129
6 -1 19 0.3501 0.0232
6 -1 20 0.2393 0.0127
6 -1 21 -0.9592 0.0044
6 -1 22 -0.5101 -0.0241
6 -1 23 0.2188 -0.0473
6 -1 24 -0.1127 -0.0693
6 -1 25 -0.9951 0.0187
6 0 0 0.6598 -0.1550
6 0 1 -0.9277 0.0270
6 0 2 -4.9475 0.0742
6 0 3 5.3009 -0.0240
6 0 4 7.5278 0.0665
6 0 5 -1.6602 0.0077
6 0 6 -5.9544 -0.0749
6 0 14 -1.9764 0.0108
6 0 15 -2.0880 -0.0187
6 0 16 -0.2199 -0.0049
6 0 17 1.5106 0.0120
6 0 18 -1.5597 0.0203
6 0 19 2.0362 0.0128
6 0 20 0.0228 -0.0150
6 0 21 -0.9438 -0.0228
6 0 22 1.7757 -0.0043
6 0 23 -0.5735 -0.0104
6 0 24 -0.8574 -0.0205
6 0 25 0.8664 0.1022
6 1 0 7.5201 0.0734
6 1 1 3.5488 0.0990
6 1 2 -2.1564 -0.0358
6 1 3 -5.0612 -0.0085
6 1 4 -3.2152 0.0108
6 1 5 2.1290 -0.0735
6 1 6 1.5713 -0.0095
6 1 14 -0.3538 -0.0068
6 1 15 0.1203 -0.0115
6 1 16 -1.0258 0.0212
6 1 17 2.1850 0.0105
6 1 18 1.6988 -0.0060
6 1 19 0.0411 -0.0044
6 1 20 -2.7463 -0.0046
6 1 21 1.0345 -0.0158
6 1 22 -0.3634 -0.0047
6 1 23 -1.1464 -0.0049
6 1 24 1.1462 0.0355
6 1 25 -0.1221 0.0824
6 1 26 -0.1862 -0.0597
6 2 0 -1.2534 0.0572
6 2 1 -6.7548 -0.0789
6 2 2 -6.4209 -0.0405
6 2 3 4.2248 0.0233
6 2 4 8.8457 -0.0123
6 2 5 -0.9781 -0.0020
6 2 6 -5.0196 0.0427
6 2 7 3.4873 0.0148
6 2 8 1.5748 -0.0006
6 2 12 2.3977 -0.0016
6 2 13 -1.3879 0.0062
6 2 14 0.3608 -0.0026
6 2 15 -1.9240 0.0077
6 2 16 1.5673 0.0041
6 2 17 1.4120 -0.0053
6 2 18 -4.4226 -0.0152
6 2 19 -1.3656 0.0059
6 2 20 2.2320 -0.0133
6 2 21 1.4959 0.0035
6 2 22 -1.1530 0.0242
6 2 23 0.6148 -0.0087
6 2 24 -0.5228 0.0188
6 2 25 -0.2918 -0.0161
6 2 26 0.7341 -0.0847
6 3 0 4.0022 -0.1260
6 3 1 1.1520 -0.0213
6 3 2 3.8724 0.0604
6 3 3 2.6087 0.0226
6 3 4 -2.9849 -0.0085
6 3 5 -2.3772 0.0081
6 3 6 2.3743 0.0064
6 3 7 -1.1614 -0.0182
6 3 8 -6.9202 -0.0234
6 3 9 2.8976 -0.0084
6 3 10 7.9598 0.0206
6 3 11 -0.3690 0.0162
6 3 12 -2.3435 -0.0064
6 3 13 -1.2257 -0.0099
6 3 14 -0.9413 -0.0011
6 3 15 -1.4168 -0.0032
6 3 16 0.3148 -0.0027
6 3 17 -0.8846 -0.0018
6 3 18 3.0003 0.0076
6 3 19 3.9747 0.0208
6 3 20 -2.0107 -0.0132
6 3 21 -3.2916 0.0124
6 3 22 -0.4814 -0.0216
6 3 23 0.7202 0.0036
6 3 24 0.5688 0.0350
6 3 25 1.4662 -0.0426
6 3 26 -0.0939 -0.0075
6 4 0 1.1307 0.0058
6 4 1 -2.7668 0.1040
6 4 2 -3.0107 0.0315
6 4 3 0.2999 -0.0274
6 4 4 3.4523 -0.0339
6 4 5 -1.7900 -0.0017
6 4 6 -3.0738 -0.0084
6 4 7 2.1690 -0.0164
6 4 8 4.7854 0.0126
6 4 9 2.2328 0.0324
6 4 10 -6.2257 0.0112
6 4 11 -5.4112 -0.0156
6 4 12 1.4956 -0.0232
6 4 13 0.7000 -0.0075
6 4 14 1.3989 0.0131
6 4 15 0.9653 0.0056
6 4 16 2.2870 0.0123
6 4 17 1.8554 0.0063
6 4 18 -2.2207 0.0036
6 4 19 -5.6601 -0.0211
6 4 20 -0.8391 -0.0194
6 4 21 4.2683 0.0089
6 4 22 2.8475 -0.0136
6 4 23 -0.3568 0.0248
6 4 24 -0.2388 -0.0106
6 4 25 -1.1367 -0.0008
6 4 26 -1.8133 0.0409
6 5 0 0.7523 0.1438
6 5 1 -4.1170 -0.0093
6 5 2 0.6272 -0.0510
6 5 3 3.2500 -0.0533
6 5 4 -3.6769 -0.0002
6 5 5 -3.5463 0.0370
6 5 6 4.6130 -0.0004
6 5 7 0.5162 0.0069
6 5 8 -5.0218 0.0263
6 5 9 -1.5039 -0.0037
6 5 10 2.8968 -0.0349
6 5 11 4.4812 -0.0189
6 5 12 1.2577 0.0023
6 5 13 -0.6218 0.0224
6 5 14 0.7231 0.0218
6 5 15 -1.2608 0.0029
6 5 16 -1.3075 0.0013
6 5 17 -3.6809 -0.0098
6 5 18 0.2940 -0.0137
6 5 19 5.1368 -0.0175
6 5 20 2.6014 0.0147
6 5 21 -2.4246 0.0157
6 5 22 -3.1652 0.0172
6 5 23 -0.9381 0.0218
6 5 24 0.8122 -0.0052
6 5 25 -0.6490 -0.0134
6 5 26 1.1603 -0.0654
6 6 0 -8.6590 -0.0865
6 6 1 -2.3650 -0.0979
6 6 2 3.4448 -0.0071
6 6 3 0.6347 -0.0008
6 6 4 0.1698 0.0639
6 6 5 1.2571 0.0102
6 6 6 -0.2009 -0.0278
6 6 7 0.1178 0.0084
6 6 8 2.5472 0.0007
6 6 9 0.3229 -0.0249
6 6 10 -2.0065 -0.0125
6 6 11 -1.9533 0.0209
6 6 12 -0.2573 0.0309
6 6 13 0.3735 0.0131
6 6 14 -1.4955 -0.0107
6 6 15 -1.1755 -0.0192
6 6 16 0.9354 -0.0166
6 6 17 1.5364 -0.0129
6 6 18 3.4291 -0.0140
6 6 19 -3.2211 0.0051
6 6 20 -3.6221 0.0295
6 6 21 2.0846 0.0080
6 6 22 2.1309 -0.0080
6 6 23 0.0143 -0.0290
6 6 24 -0.3274 -0.0102
6 6 25 -0.4558 -0.0357
6 6 26 0.8717 0.0138
6 7 0 2.4631 -0.1815
6 7 1 3.1361 0.0903
6 7 2 -0.5351 0.0364
6 7 3 0.4803 0.0456
6 7 4 -2.8375 0.0236
6 7 5 -2.4636 -0.0650
6 7 6 3.9425 -0.0060
6 7 7 -0.5453 0.0073
6 7 8 -3.7821 -0.0103
6 7 9 0.4267 0.0012
6 7 10 3.0302 0.0127
6 7 11 1.3427 0.0206
6 7 12 0.0877 -0.0023
6 7 13 -1.8162 -0.0284
6 7 14 -0.6640 -0.0175
6 7 15 2.5845 -0.0132
6 7 16 0.3869 0.0079
6 7 17 -1.4810 0.0155
6 7 18 -0.4104 0.0072
6 7 19 -0.3685 0.0355
6 7 20 3.3639 0.0159
6 7 21 -1.7959 -0.0110
6 7 22 -3.4559 -0.0183
6 7 23 1.5940 -0.0135
6 7 24 1.2199 0.0033
6 7 25 -0.4514 -0.0134
6 7 26 0.8286 0.0847
6 8 0 -5.4261 0.1770
6 8 1 -3.6472 0.1103
6 8 2 1.8280 -0.0488
6 8 3 0.7521 0.0111
6 8 4 -2.8084 -0.0759
6 8 5 3.7709 -0.0173
6 8 6 0.0853 0.0428
6 8 7 -1.8959 -0.0047
6 8 8 5.2686 0.0136
6 8 9 -1.1460 0.0094
6 8 10 -4.3336 -0.0007
6 8 11 -1.3412 -0.0065
6 8 12 0.9252 -0.0191
6 8 13 0.2233 -0.0048
6 8 14 -0.0519 0.0090
6 8 15 0.6678 0.0106
6 8 16 -1.2344 0.0261
6 8 17 0.8017 0.0011
6 8 18 1.8362 0.0080
6 8 19 -0.7728 0.0029
6 8 20 -1.7385 -0.0376
6 8 21 -1.6213 -0.0232
6 8 22 4.5647 -0.0232
6 8 23 0.7511 0.0179
6 8 24 -3.6116 0.0261
6 8 25 0.8430 0.0181
6 8 26 1.2309 0.0339
6 9 0 -0.3296 0.1682
6 9 1 2.0366 -0.1653
6 9 2 -0.7020 -0.0319
6 9 3 -1.5737 -0.0160
6 9 4 1.8779 -0.0328
6 9 5 1.9488 0.0799
6 9 6 -1.3154 0.0021
6 9 7 2.7594 -0.0126
6 9 8 -4.2956 0.0093
6 9 9 -6.5536 -0.0102
6 9 10 4.8172 -0.0062
6 9 11 3.2761 -0.0103
6 9 12 2.0361 0.0028
6 9 13 -1.2868 0.0102
6 9 14 -1.1533 0.0119
6 9 15 2.3263 0.0047
6 9 16 -0.0449 -0.0071
6 9 17 -0.5743 -0.0111
6 9 18 -2.6242 -0.0064
6 9 19 -0.4457 -0.0295
6 9 20 2.1629 0.0009
6 9 21 -0.0777 0.0158
6 9 22 -0.1168 0.0156
6 9 23 -1.7766 0.0289
6 9 24 1.9475 -0.0169
6 9 25 1.5918 0.0135
6 9 26 -2.2054 -0.0183
6 10 0 -1.3486 -0.2244
6 10 1 -1.3061 -0.1029
6 10 2 2.7947 0.0988
6 10 3 3.0277 -0.0185
6 10 4 -1.3052 0.0845
6 10 5 -3.3438 0.0262
6 10 6 -0.7970 -0.0714
6 10 7 0.0863 0.0030
6 10 8 -1.9837 -0.0051
6 10 9 4.5989 -0.0002
6 10 10 3.6838 -0.0055
6 10 11 -1.9245 0.0024
6 10 12 -0.0900 0.0131
6 10 13 -4.2154 0.0019
6 10 14 -0.0226 -0.0004
6 10 15 1.8481 -0.0189
6 10 16 -1.8172 -0.0046
6 10 17 -1.2183 0.0041
6 10 18 1.1270 -0.0010
6 10 19 4.3168 0.0103
6 10 20 -1.9392 0.0201
6 10 21 -2.6905 -0.0068
6 10 22 2.5418 0.0076
6 10 23 -0.2218 -0.0115
6 10 24 -1.4557 0.0101
6 10 25 -1.2949 -0.0028
6 10 26 0.8706 -0.0827
6 10 27 0.8621 0.0319
6 11 0 1.1527 -0.1331
6 11 1 3.3752 0.2028
6 11 2 -1.9137 0.0357
6 11 3 -3.2630 -0.0043
6 11 4 -0.7540 0.0259
6 11 5 1.7861 -0.1160
6 11 6 2.8067 -0.0090
6 11 7 1.4024 0.0361
6 11 8 -1.2289 0.0043
6 11 9 -0.3161 0.0165
6 11 10 -1.6291 -0.0040
6 11 11 -1.2816 0.0174
6 11 12 0.1337 -0.0090
6 11 13 -1.3537 -0.0107
6 11 14 2.8762 -0.0021
6 11 15 0.9663 0.0016
6 11 16 -1.5538 0.0157
6 11 17 0.4060 0.0031
6 11 18 1.5071 0.0042
6 11 19 -0.9484 -0.0042
6 11 20 -2.6025 -0.0127
6 11 21 2.4723 -0.0101
6 11 22 0.5576 0.0020
6 11 23 -1.4559 -0.0066
6 11 24 1.3692 0.0208
6 11 25 1.0555 -0.0425
6 11 26 0.0113 0.0311
6 12 0 0.5085 0.2126
6 12 1 -3.9248 0.0815
6 12 2 -1.1491 -0.1086
6 12 3 3.4875 0.0012
6 12 4 -0.6996 -0.0749
6 12 5 -1.0908 -0.0138
6 12 6 1.3058 0.0834
6 12 7 -0.8445 0.0096
6 12 8 -2.8941 0.0148
6 12 9 0.6200 -0.0078
6 12 10 1.4059 -0.0131
6 12 11 0.4140 -0.0082
6 12 12 0.0765 -0.0220
6 12 13 -0.1723 0.0115
6 12 14 2.1554 0.0036
6 12 15 -0.8673 0.0092
6 12 16 -0.7856 -0.0053
6 12 17 0.8745 -0.0117
6 12 18 -0.6670 -0.0060
6 12 19 -0.1676 -0.0108
6 12 20 0.4288 0.0072
6 12 21 -0.7608 0.0152
6 12 22 -0.4700 0.0166
6 12 23 0.9781 0.0097
6 12 24 -1.2655 0.0139
6 12 25 -0.1074 -0.0424
6 12 26 0.5110 0.0168
6 13 0 -0.1368 0.0581
6 13 1 1.5403 -0.1556
6 13 2 2.7571 -0.0293
6 13 3 -1.2238 -0.0057
6 13 4 -0.7621 -0.0079
6 13 5 4.0154 0.1035
6 13 6 -0.0759 0.0127
6 13 7 -4.2916 -0.0348
6 13 8 -1.1371 -0.0245
6 13 9 3.5750 -0.0323
6 13 10 1.2671 -0.0009
6 13 11 -1.1109 -0.0011
6 13 12 0.9589 0.0158
6 13 13 0.3803 0.0072
6 13 14 -1.7244 0.0037
6 13 15 -2.5898 0.0119
6 13 16 0.4580 -0.0155
6 13 17 -0.2166 0.0070
6 13 18 -0.0076 0.0041
6 13 19 2.0362 0.0054
6 13 20 -0.0118 0.0152
6 13 21 -0.0012 -0.0012
6 13 22 0.7987 -0.0118
6 13 23 -1.0475 -0.0211
6 13 24 -0.1275 -0.0305
6 13 25 1.6013 -0.0388
6 13 26 -1.4930 0.0632
6 14 0 4.1271 -0.1415
6 14 1 -0.6766 -0.0164
6 14 2 -2.3045 0.0668
6 14 3 -1.7581 -0.0035
6 14 4 0.1521 0.0619
6 14 5 -1.6298 0.0093
6 14 6 -2.9669 -0.0852
6 14 7 1.5345 -0.0207
6 14 8 4.2354 0.0061
6 14 9 2.0812 0.0277
6 14 10 -2.9024 0.0224
6 14 11 -2.4985 0.0109
6 14 12 -0.2935 0.0123
6 14 13 -1.5007 -0.0079
6 14 14 1.0020 0.0037
6 14 15 2.6728 -0.0171
6 14 16 1.4519 -0.0126
6 14 17 -0.4199 0.0048
6 14 18 0.9794 -0.0107
6 14 19 0.0492 0.0079
6 14 20 -2.4664 -0.0008
6 14 21 -1.6302 -0.0130
6 14 22 0.1372 -0.0112
6 14 23 0.5314 -0.0121
6 14 24 0.4012 0.0310
6 14 25 0.5858 0.0637
6 14 26 -0.0811 0.0380
6 15 0 -1.7857 0.0145
6 15 1 -4.3516 0.0932
6 15 2 0.1325 0.0009
6 15 3 0.7888 -0.0081
6 15 4 2.7010 0.0203
6 15 5 2.8814 -0.0706
6 15 6 0.3258 -0.0151
6 15 7 0.0531 0.0443
6 15 8 -0.5772 0.0210
6 15 9 -2.3466 0.0173
6 15 10 -2.5571 -0.0134
6 15 11 1.6426 -0.0080
6 15 12 3.2642 -0.0137
6 15 13 1.4656 -0.0268
6 15 14 -0.2625 -0.0053
6 15 15 -2.3206 -0.0002
6 15 16 -1.6238 0.0241
6 15 17 -0.2881 0.0091
6 15 18 1.2594 0.0040
6 15 19 -0.5118 0.0009
6 15 20 -0.9291 -0.0076
6 15 21 1.2680 0.0049
6 15 22 2.0025 0.0017
6 15 23 -0.5875 0.0158
6 15 24 0.1381 0.0411
6 15 25 1.0721 -0.0349
6 16 0 -2.6311 0.0764
6 16 1 3.6681 -0.0253
6 16 2 3.2843 -0.0493
6 16 3 0.1580 0.0081
6 16 4 1.1112 -0.0346
6 16 5 -4.1090 -0.0205
6 16 6 -3.8289 0.0687
6 16 7 2.4367 0.0153
6 16 8 1.3410 -0.0063
6 16 9 -0.9657 -0.0161
6 16 10 0.5340 -0.0253
6 16 11 1.9285 -0.0011
6 16 12 -0.8591 -0.0024
6 16 13 -2.3265 0.0108
6 16 14 -0.9434 0.0185
6 16 15 0.8726 0.0157
6 16 16 1.4441 0.0144
6 16 17 1.4311 -0.0267
6 16 18 0.2116 -0.0109
6 16 19 -2.2215 -0.0095
6 16 20 -0.1932 0.0098
6 16 21 0.7580 0.0009
6 16 22 -0.1497 -0.0089
6 16 23 -0.9812 0.0005
6 16 24 1.4813 -0.0086
6 16 25 -0.4670 -0.0339
6 17 0 6.4800 -0.0720
6 17 1 1.2784 -0.0520
6 17 2 -3.8627 0.0384
6 17 3 -0.6366 0.0131
6 17 4 -0.6714 -0.0162
6 17 5 -0.7686 0.0442
6 17 6 4.2260 0.0074
6 17 7 2.1079 -0.0432
6 17 8 -3.1745 -0.0130
6 17 9 -1.4777 -0.0111
6 17 10 0.7796 0.0208
6 17 11 0.5826 0.0180
6 17 12 -0.6519 0.0037
6 17 13 0.7668 -0.0138
6 17 14 0.5539 -0.0093
6 17 15 0.0814 0.0105
6 17 16 0.1324 -0.0168
6 17 17 -0.5186 -0.0178
6 17 18 -1.3644 0.0123
6 17 19 0.2248 -0.0122
6 17 20 1.2806 0.0212
6 17 21 -0.1193 0.0003
6 17 22 0.4436 0.0087
6 17 23 0.2811 -0.0065
6 17 24 0.3692 0.0131
6 18 0 -0.5400 -0.0160
6 18 1 -5.4212 0.0600
6 18 2 2.1662 0.0262
6 18 3 2.1441 -0.0391
6 18 4 -0.3844 -0.0060
6 18 5 0.0837 0.0159
6 18 6 -2.3396 -0.0193
6 18 7 -2.0671 -0.0008
6 18 8 0.6955 0.0090
6 18 9 2.3144 0.0176
6 18 10 0.9447 0.0136
6 18 11 -0.7996 -0.0292
6 18 12 -1.2656 -0.0189
6 18 13 1.4531 -0.0090
6 18 14 -0.5393 0.0262
6 18 15 -0.7368 0.0125
6 18 16 -0.3934 -0.0012
6 18 17 -0.1375 0.0194
6 18 18 1.2212 0.0014
6 18 19 0.1928 0.0033
6 18 20 -1.3705 0.0234
6 18 21 0.1097 -0.0170
6 18 22 0.5556 0.0034
6 18 23 -0.9683 -0.0282
6 18 24 -0.2021 0.0156
6 19 0 -3.3820 0.0835
6 19 1 1.5426 -0.0150
6 19 2 3.1054 -0.0478
6 19 3 -2.7130 -0.0231
6 19 4 -0.9407 0.0216
6 19 5 -1.1000 0.0073
6 19 6 2.7544 -0.0123
6 19 7 5.1747 0.0195
6 19 8 -1.5613 0.0071
6 19 9 -3.2988 0.0051
6 19 10 -1.4569 -0.0198
6 19 11 0.1154 -0.0135
6 19 12 1.7290 0.0187
6 19 13 2.4046 0.0138
6 19 14 -3.1094 0.0276
6 19 15 -0.0739 0.0005
6 19 16 1.1446 -0.0040
6 19 17 0.6102 -0.0133
6 19 18 0.0660 -0.0332
6 19 19 -1.8698 -0.0320
6 19 20 0.4610 -0.0206
6 19 21 2.0343 0.0028
6 19 22 0.2749 0.0095
6 19 23 -0.2418 -0.0189
6 20 0 0.2935 -0.0973
6 20 1 1.6210 -0.0637
6 20 2 -0.0712 0.0122
6 20 3 0.3020 0.0327
6 20 4 1.3842 0.0456
6 20 5 -0.3833 -0.0079
6 20 6 0.7514 0.0053
6 20 7 -5.1164 0.0173
6 20 8 -4.1122 -0.0299
6 20 9 4.3933 -0.0114
6 20 10 4.4603 -0.0184
6 20 11 0.2089 0.0112
6 20 12 -1.3312 0.0119
6 20 13 -1.3026 0.0055
6 20 14 -3.2841 -0.0030
6 20 15 2.7762 -0.0341
6 20 16 0.0923 -0.0190
6 20 17 0.2749 -0.0259
6 20 18 0.3891 -0.0160
6 20 19 -0.9704 0.0265
6 20 20 1.0118 0.0706
6 20 21 -0.4148 0.0725
6 20 22 -1.6545 0.0115
6 20 23 -1.2119 -0.0257
6 21 0 -0.2740 -0.1021
6 21 1 -0.3686 0.0940
6 21 2 1.1099 0.0275
6 21 3 -0.6931 0.0461
6 21 4 -3.2654 -0.0169
6 21 5 -1.2214 -0.0581
6 21 6 1.6363 0.0134
6 21 7 1.7494 -0.0114
6 21 8 4.4010 -0.0271
6 21 9 1.1423 0.0036
6 21 10 -3.8843 0.0048
6 21 11 -4.5210 0.0327
6 21 12 0.5176 -0.0043
6 21 13 2.6950 -0.0111
6 21 14 -0.1026 -0.0150
6 21 15 2.6388 0.0129
6 21 16 -1.8981 0.0099
6 21 17 0.4225 0.0143
6 21 18 -0.8970 0.0507
6 21 19 -1.3092 0.0279
6 21 20 0.9838 0.0115
6 21 21 0.4430 -0.0452
6 21 22 0.9132 -0.1198
6 22 0 -0.4839 0.1608
6 22 1 -0.1076 0.0665
6 22 2 0.9282 -0.0172
6 22 3 -1.6805 0.0057
6 22 4 1.2430 -0.0907
6 22 5 1.6596 -0.0003
6 22 6 0.5476 0.0226
6 22 7 -0.8084 -0.0210
6 22 8 -1.4103 0.0131
6 22 9 -1.3051 0.0227
6 22 10 -0.7715 0.0260
6 22 11 0.0776 0.0045
6 22 12 3.8483 -0.0235
6 22 13 0.0312 0.0099
6 22 14 -2.7643 0.0115
6 22 15 1.4019 0.0089
6 22 16 -1.9706 -0.0279
6 22 17 1.9159 0.0224
6 22 18 -0.1322 -0.0133
6 22 19 -0.7623 -0.0503
6 22 20 0.7811 -0.0080
6 22 21 0.0685 -0.0322
6 23 0 0.3237 0.0605
6 23 1 -0.3820 -0.1265
6 23 2 0.3644 -0.0246
6 23 3 0.4904 -0.0529
6 23 4 -0.0467 -0.0204
6 23 5 -1.9150 0.0698
6 23 6 1.7795 0.0126
6 23 7 0.4451 0.0309
6 23 8 -0.5706 0.0149
6 23 9 -1.1466 -0.0034
6 23 10 -0.8526 -0.0000
6 23 11 1.5636 -0.0392
6 23 12 2.3090 -0.0013
6 23 13 -1.5456 0.0066
6 23 14 0.0236 -0.0116
6 23 15 0.7008 -0.0088
6 23 16 -2.4929 -0.0155
6 23 17 2.5256 0.0314
6 23 18 -1.7332 -0.0438
6 23 19 -0.5971 -0.0074
6 23 20 1.9197 0.0375
6 24 0 -0.1986 -0.1857
6 24 1 -0.6176 -0.0192
6 24 2 2.7257 0.0691
6 24 3 -0.3592 0.0040
6 24 4 -1.5140 0.0831
6 24 5 -0.1455 0.0101
6 24 6 0.5771 -0.0261
6 24 7 -1.3892 -0.0106
6 24 8 1.1838 -0.0357
6 24 9 1.2898 -0.0058
6 24 10 0.7408 -0.0311
6 24 11 -0.9924 -0.0161
6 24 12 -0.1886 0.0462
6 24 13 -0.6932 -0.0161
6 24 14 -0.9994 -0.0016
6 24 15 -0.0057 -0.0148
6 24 16 1.0038 -0.0020
6 24 17 1.7093 0.0433
6 24 18 -2.8412 -0.0216
6 25 0 -0.8260 -0.0748
6 25 1 0.8042 0.1948
6 25 2 -0.6126 -0.0147
6 25 3 -2.5738 0.0026
6 25 4 0.4460 -0.0096
6 25 5 0.5029 -0.1002
6 25 6 1.6039 -0.0001
6 25 7 1.4131 0.0015
6 25 8 -0.0236 0.0024
6 25 9 -3.7802 0.0144
6 25 10 -2.9911 0.0173
6 25 11 1.7953 0.0357
6 25 12 4.3342 0.0063
6 25 13 -1.8377 -0.0288
6 25 14 -1.0861 0.0341
6 25 15 1.8170 -0.0044
6 25 16 -1.5194 0.0514
6 25 17 -0.9514 0.0271
6 26 0 -1.0346 0.1769
6 26 1 -0.9294 0.0006
6 26 2 0.8898 -0.1391
6 26 3 1.4149 0.0402
6 26 4 -0.0858 -0.0745
6 26 5 -0.9643 0.0144
6 26 6 0.9228 0.1013
6 26 7 -0.5269 0.0124
6 26 8 -1.5643 0.0192
6 26 9 -0.9415 0.0115
6 26 10 3.5937 -0.0264
6 26 11 3.7322 -0.0457
6 26 12 -2.1292 0.0091
6 26 13 -4.1069 0.0030
6 26 14 2.2097 0.0040
6 27 5 2.1844 0.1051
6 27 6 1.3542 -0.0102
6 27 7 -1.7773 -0.0628
6 27 8 -0.9444 -0.0197
6 27 9 0.8206 -0.0389
6 27 10 0.6491 -0.0301
7 -22 0 0.3625 0.0924
7 -22 1 0.3577 0.2905
7 -21 0 0.0935 0.1863
7 -21 1 0.2654 -0.1078
7 -21 2 -0.2325 -0.1071
7 -21 3 -0.1717 -0.0387
7 -21 4 -0.5282 0.0824
7 -21 5 1.2797 0.1715
7 -20 0 -0.2128 -0.0396
7 -20 1 -0.7674 0.0244
7 -20 2 -0.3445 0.0868
7 -20 3 -0.1194 -0.0838
7 -20 4 -0.4207 -0.0025
7 -20 5 0.7607 -0.0007
7 -20 6 -1.3101 -0.0869
7 -20 7 0.8606 0.0615
7 -19 0 -1.3108 -0.0378
7 -19 1 0.4311 0.0410
7 -19 2 0.5144 -0.0310
7 -19 3 -0.4289 -0.0399
7 -19 4 0.3839 0.1016
7 -19 5 0.8125 -0.0045
7 -19 6 0.1109 -0.0174
7 -19 7 1.7323 -0.0158
7 -19 8 -1.8664 -0.0646
7 -19 9 0.8413 0.1108
7 -18 0 2.4419 0.1000
7 -18 1 0.1663 0.0364
7 -18 2 -0.8891 -0.0704
7 -18 3 0.3583 -0.0191
7 -18 4 0.5855 0.0024
7 -18 5 -0.1024 -0.0389
7 -18 6 -0.3141 0.0153
7 -18 7 -1.0254 0.0207
7 -18 8 -1.8294 0.0504
7 -18 9 1.4734 -0.0334
7 -18 10 -0.7891 -0.0408
7 -18 11 0.8050 0.0319
7 -17 0 -0.3422 -0.0967
7 -17 1 -1.1715 -0.0772
7 -17 2 0.3021 0.0050
7 -17 3 -0.0847 0.0696
7 -17 4 -0.5180 0.0292
7 -17 5 0.7731 -0.0084
7 -17 6 0.4462 -0.0132
7 -17 7 -0.5499 0.0153
7 -17 8 0.3176 -0.0158
7 -17 9 1.2225 -0.0278
7 -17 10 -0.4888 0.0685
7 -17 11 0.1718 -0.0592
7 -17 12 -0.7157 -0.0182
7 -17 13 0.6476 0.0676
7 -16 0 1.1576 0.0210
7 -16 1 -0.3785 0.0613
7 -16 2 -0.9723 0.0314
7 -16 3 0.0828 0.0110
7 -16 4 1.1084 -0.0315
7 -16 5 0.6699 -0.0323
7 -16 6 -2.5430 0.0086
7 -16 7 -1.7820 0.0252
7 -16 8 1.4569 -0.0417
7 -16 9 1.1512 -0.0185
7 -16 10 -0.5511 0.0221
7 -16 11 0.5249 0.0381
7 -16 12 0.5323 0.0267
7 -16 13 -1.1625 -0.1081
7 -16 14 -1.4781 0.0618
7 -15 0 1.2316 0.1388
7 -15 1 -2.6100 -0.0170
7 -15 2 -0.3508 0.0060
7 -15 3 0.3481 -0.0332
7 -15 4 0.6120 -0.0349
7 -15 5 0.6040 0.0080
7 -15 6 -0.5269 0.0145
7 -15 7 2.5385 -0.0002
7 -15 8 1.8971 0.0059
7 -15 9 -1.5563 0.0362
7 -15 10 -1.9272 0.0064
7 -15 11 -0.6211 -0.0240
7 -15 12 -0.4899 -0.0334
7 -15 13 0.7580 0.0318
7 -15 14 1.7409 0.0259
7 -15 15 0.0926 -0.1056
7 -14 0 -2.0130 -0.0558
7 -14 1 -2.0860 -0.1054
7 -14 2 2.5530 -0.0079
7 -14 3 0.8604 -0.0201
7 -14 4 2.1418 0.0670
7 -14 5 -1.0240 0.0116
7 -14 6 -3.4993 -0.0287
7 -14 7 -1.0296 0.0019
7 -14 8 -0.7499 0.0014
7 -14 9 -0.3362 -0.0329
7 -14 10 0.9792 -0.0001
7 -14 11 2.1698 0.0555
7 -14 12 1.5996 -0.0027
7 -14 13 -0.5065 -0.0617
7 -14 14 -2.8560 -0.0154
7 -14 15 -0.8206 0.0533
7 -14 16 1.6165 0.0285
7 -13 0 -0.0454 -0.1794
7 -13 1 2.6886 0.0773
7 -13 2 -1.6386 0.0449
7 -13 3 -2.3641 0.0317
7 -13 4 1.2592 0.0210
7 -13 5 -1.5768 -0.0726
7 -13 6 0.2727 0.0065
7 -13 7 3.0119 0.0271
7 -13 8 2.0265 0.0024
7 -13 9 -0.0249 0.0067
7 -13 10 -0.7420 0.0202
7 -13 11 -1.5942 -0.0092
7 -13 12 -1.8013 -0.0287
7 -13 13 -0.4534 0.0093
7 -13 14 1.1382 -0.0025
7 -13 15 2.5978 -0.0282
7 -13 16 0.1904 0.0503
7 -13 17 -1.3498 0.0365
7 -12 0 -2.2525 0.1299
7 -12 1 -3.1093 0.1330
7 -12 2 -0.7499 -0.0350
7 -12 3 5.5776 0.0251
7 -12 4 2.3843 -0.0630
7 -12 5 -3.5639 -0.0324
7 -12 6 -2.5568 0.0349
7 -12 7 0.2727 -0.0118
7 -12 8 0.6910 0.0077
7 -12 9 -1.2134 -0.0032
7 -12 10 -0.7326 0.0080
7 -12 11 1.0621 0.0114
7 -12 12 2.7786 -0.0369
7 -12 13 0.4413 -0.0363
7 -12 14 -1.5128 0.0111
7 -12 15 -0.8440 0.0472
7 -12 16 -0.6655 0.0162
7 -12 17 0.1498 -0.0182
7 -12 18 0.5920 0.0510
7 -11 0 0.7246 0.2021
7 -11 1 4.9999 -0.1137
7 -11 2 1.9459 -0.0616
7 -11 3 -2.1819 -0.0304
7 -11 4 -4.8090 -0.0521
7 -11 5 -2.0615 0.0759
7 -11 6 4.0098 0.0175
7 -11 7 5.0874 -0.0021
7 -11 8 -0.5885 0.0033
7 -11 9 -2.4237 -0.0144
7 -11 10 0.2866 0.0102
7 -11 11 0.3390 -0.0239
7 -11 12 -1.3442 -0.0079
7 -11 13 -2.0717 0.0334
7 -11 14 0.8967 -0.0028
7 -11 15 1.8202 -0.0010
7 -11 16 -0.1279 0.0370
7 -11 17 -0.7176 0.0305
7 -11 18 -0.0224 -0.0644
7 -11 19 -0.4599 -0.1318
7 -10 0 1.2588 -0.1539
7 -10 1 -2.4456 -0.1225
7 -10 2 -4.3811 0.0664
7 -10 3 2.1453 0.0037
7 -10 4 2.4138 0.0633
7 -10 5 1.1245 0.0250
7 -10 6 1.0003 -0.0579
7 -10 7 -2.8079 0.0013
7 -10 8 -3.1311 -0.0044
7 -10 9 0.0354 0.0163
7 -10 10 0.5932 0.0110
7 -10 11 0.7620 0.0024
7 -10 12 1.3038 -0.0063
7 -10 13 0.4825 -0.0207
7 -10 14 0.2907 0.0221
7 -10 15 -0.8613 0.0194
7 -10 16 -1.0163 -0.0256
7 -10 17 1.5216 0.0041
7 -10 18 1.2464 0.0067
7 -10 19 -0.8576 -0.0350
7 -10 20 -0.0691 -0.0175
7 -9 0 3.5639 -0.1369
7 -9 1 0.9668 0.1298
7 -9 2 2.2722 0.0517
7 -9 3 0.8378 0.0140
7 -9 4 -4.7001 0.0138
7 -9 5 -0.8209 -0.0767
7 -9 6 1.9886 -0.0024
7 -9 7 0.5572 0.0272
7 -9 8 0.5146 -0.0039
7 -9 9 0.0855 0.0112
7 -9 10 1.5354 0.0041
7 -9 11 0.7800 -0.0064
7 -9 12 -1.8990 -0.0394
7 -9 13 -1.4574 0.0002
7 -9 14 1.2312 0.0019
7 -9 15 0.2255 -0.0150
7 -9 16 -0.2422 0.0365
7 -9 17 0.0037 0.0193
7 -9 18 -1.9384 -0.0517
7 -9 19 -0.3249 -0.0512
7 -9 20 1.0609 0.0126
7 -8 0 -0.7701 0.1606
7 -8 1 -4.0607 0.0780
7 -8 2 -0.2158 -0.0558
7 -8 3 -0.3055 -0.0120
7 -8 4 1.1933 -0.0839
7 -8 5 3.8959 -0.0174
7 -8 6 -0.0568 0.0609
7 -8 7 -2.7418 0.0027
7 -8 8 -1.0111 0.0101
7 -8 9 0.4876 0.0055
7 -8 10 0.4302 -0.0140
7 -8 11 -1.0135 -0.0212
7 -8 12 0.2997 -0.0203
7 -8 13 0.7003 0.0224
7 -8 14 -0.2363 0.0320
7 -8 15 -1.1133 0.0283
7 -8 16 0.5353 -0.0007
7 -8 17 0.5638 -0.0042
7 -8 18 1.0196 0.0140
7 -8 19 0.9534 -0.0529
7 -8 20 -1.6629 -0.0327
7 -8 21 -0.1227 0.1210
7 -7 0 1.3979 0.0490
7 -7 1 4.7146 -0.1232
7 -7 2 2.1763 -0.0126
7 -7 3 -2.8385 -0.0192
7 -7 4 -1.5413 -0.0123
7 -7 5 -0.6270 0.0800
7 -7 6 -1.1839 0.0122
7 -7 7 0.8973 -0.0109
7 -7 8 1.9319 0.0004
7 -7 9 -0.3246 -0.0279
7 -7 10 0.0515 0.0073
7 -7 11 -0.1329 0.0013
7 -7 12 -1.2371 -0.0139
7 -7 13 -0.8460 0.0183
7 -7 14 1.7257 0.0161
7 -7 15 1.3620 0.0084
7 -7 16 -0.8982 -0.0098
7 -7 17 -1.4174 -0.0362
7 -7 18 1.0318 -0.0185
7 -7 19 -0.5647 -0.0173
7 -7 20 -0.5731 0.0215
7 -7 21 1.5943 0.0482
7 -7 22 -0.4409 -0.0452
7 -6 0 1.4464 -0.1402
7 -6 1 -4.2290 -0.0004
7 -6 2 -3.6615 0.0487
7 -6 3 1.5314 -0.0266
7 -6 4 4.5532 0.0558
7 -6 5 1.0916 0.0152
7 -6 6 -0.5875 -0.0361
7 -6 7 -0.2282 -0.0011
7 -6 8 -2.5403 -0.0116
7 -6 9 -1.8933 0.0009
7 -6 10 1.8728 0.0125
7 -6 11 0.6280 -0.0171
7 -6 12 1.5747 0.0084
7 -6 13 0.9806 0.0134
7 -6 14 -0.9375 0.0003
7 -6 15 -1.5125 0.0004
7 -6 16 -0.7271 -0.0305
7 -6 17 2.1127 0.0052
7 -6 18 1.4515 0.0329
7 -6 19 -3.3368 -0.0586
7 -6 20 -1.0735 -0.0235
7 -6 21 1.7296 0.0800
7 -6 22 0.7752 0.0747
7 -5 0 2.7420 0.0386
7 -5 1 3.3998 0.1082
7 -5 2 4.2838 -0.0333
7 -5 3 -2.3052 0.0060
7 -5 4 -3.8714 0.0295
7 -5 5 -3.1900 -0.0504
7 -5 6 1.3202 -0.0071
7 -5 7 0.5810 0.0106
7 -5 8 0.1614 0.0068
7 -5 15 2.0631 0.0146
7 -5 16 -0.2481 -0.0075
7 -5 17 -0.0845 -0.0123
7 -5 18 -1.9751 -0.0129
7 -5 19 -0.0279 0.0079
7 -5 20 4.2326 0.0190
7 -5 21 0.6050 0.0174
7 -5 22 -2.6102 0.0348
7 -5 23 -1.4749 -0.0374
7 -4 0 -1.6657 0.1093
7 -4 1 -3.3019 -0.0675
7 -4 2 -5.2331 -0.0667
7 -4 3 -0.1738 0.0352
7 -4 4 7.1890 -0.0156
7 -4 5 1.8641 -0.0121
7 -4 6 -0.5525 0.0261
7 -4 7 -2.0204 0.0034
7 -4 17 0.5491 -0.0200
7 -4 18 0.0339 0.0045
7 -4 19 1.4660 -0.0199
7 -4 20 -2.0005 -0.0062
7 -4 21 -2.8614 0.0787
7 -4 22 1.9851 0.0475
7 -4 23 1.6755 -0.0795
7 -3 0 3.5670 -0.1201
7 -3 1 6.3399 -0.0678
7 -3 2 2.2931 0.0462
7 -3 3 1.0507 0.0371
7 -3 4 -4.4112 -0.0096
7 -3 5 -6.6328 0.0149
7 -3 6 3.5161 -0.0012
7 -3 17 0.8105 -0.0271
7 -3 18 -1.0598 0.0108
7 -3 19 -0.3649 0.0192
7 -3 20 -0.2387 0.0204
7 -3 21 2.4507 -0.0139
7 -3 22 0.3858 0.0031
7 -3 23 -2.5286 -0.0439
7 -3 24 -0.0305 -0.1063
7 -2 0 -0.9614 -0.0337
7 -2 1 -5.8172 0.1003
7 -2 2 -8.3446 0.0413
7 -2 3 0.2421 -0.0044
7 -2 4 3.3373 -0.0263
7 -2 5 4.5519 -0.0028
7 -2 6 0.2738 -0.0178
7 -2 18 -3.5399 -0.0045
7 -2 19 3.2709 0.0227
7 -2 20 0.7409 0.0086
7 -2 21 -1.1289 0.0211
7 -2 22 -0.7565 0.0161
7 -2 23 0.9894 -0.0760
7 -2 24 0.5547 -0.0155
7 -1 0 -3.2448 0.1786
7 -1 1 6.3829 -0.0001
7 -1 2 4.4729 -0.0459
7 -1 3 3.1436 -0.0464
7 -1 4 -3.0567 -0.0146
7 -1 5 -3.5774 0.0290
7 -1 6 -0.0227 -0.0018
7 -1 18 3.5739 0.0158
7 -1 19 3.9048 0.0251
7 -1 20 -3.9388 -0.0211
7 -1 21 0.2973 -0.0051
7 -1 22 0.8288 -0.0105
7 -1 23 -0.4519 0.0081
7 -1 24 -0.8792 -0.0499
7 0 0 8.8855 -0.0736
7 0 1 1.9734 -0.1206
7 0 2 -11.1331 0.0022
7 0 3 -1.1264 -0.0131
7 0 4 2.5823 0.0631
7 0 5 3.7724 0.0206
7 0 6 1.1349 -0.0190
7 0 17 2.3770 0.0047
7 0 18 1.3923 -0.0015
7 0 19 -2.8677 0.0024
7 0 20 -0.7965 0.0235
7 0 21 1.7916 -0.0108
7 0 22 -0.8907 -0.0251
7 0 23 0.1464 -0.0314
7 0 24 -0.3501 -0.0737
7 0 25 0.8501 0.1789
7 1 0 4.7802 -0.2051
7 1 2 0.1591 0.0413
7 1 3 7.6454 0.0323
7 1 4 -2.0167 0.0481
7 1 5 -2.0201 -0.0656
7 1 6 -0.0608 -0.0211
7 1 7 0.3751 -0.0035
7 1 17 -0.5154 0.0029
7 1 18 -1.0518 -0.0033
7 1 19 2.7136 0.0092
7 1 20 0.5095 -0.0069
7 1 21 -0.6638 -0.0549
7 1 22 -0.7109 0.0297
7 1 23 -0.2197 -0.0001
7 1 24 0.1630 0.0493
7 1 25 0.8614 0.1423
7 2 0 1.6922 0.1640
7 2 1 -3.8467 0.1392
7 2 2 -1.5364 -0.0535
7 2 3 -1.7545 0.0197
7 2 4 1.1071 -0.0763
7 2 5 3.0407 -0.0454
7 2 6 -1.9419 0.0451
7 2 7 -3.1562 0.0094
7 2 8 1.4559 0.0155
7 2 16 2.3500 0.0108
7 2 17 -0.0217 0.0037
7 2 18 0.9560 -0.0080
7 2 19 -2.2148 0.0069
7 2 20 -3.0684 -0.0137
7 2 21 0.3903 -0.0051
7 2 22 0.1644 0.0323
7 2 23 1.7612 -0.0226
7 2 24 0.3724 0.0452
7 2 25 -0.3665 -0.0452
7 3 0 1.5988 0.1924
7 3 1 -0.5233 -0.1504
7 3 2 1.7431 -0.0450
7 3 3 6.2895 -0.0233
7 3 4 0.1466 -0.0424
7 3 5 -5.4832 0.0895
7 3 6 0.6149 0.0196
7 3 7 2.6091 -0.0073
7 3 8 -1.0207 0.0044
7 3 9 -3.1985 -0.0137
7 3 10 -0.8425 -0.0053
7 3 11 3.8678 -0.0279
7 3 12 -1.4334 0.0027
7 3 13 1.4609 0.0045
7 3 14 -0.8699 0.0073
7 3 15 -1.2736 -0.0031
7 3 16 2.6720 -0.0008
7 3 17 -2.3848 -0.0057
7 3 18 -2.0008 -0.0072
7 3 19 1.9446 -0.0016
7 3 20 3.1471 0.0034
7 3 21 0.5679 0.0073
7 3 22 -0.4197 0.0034
7 3 23 -1.1473 0.0079
7 3 24 -1.4088 0.0193
7 3 25 1.0217 -0.0483
7 4 0 2.7567 -0.1867
7 4 1 -4.0078 -0.1123
7 4 2 -0.4630 0.0778
7 4 3 -1.4296 -0.0177
7 4 4 -4.4357 0.0841
7 4 5 2.7998 0.0323
7 4 6 2.2504 -0.0682
7 4 7 -4.8560 -0.0027
7 4 8 2.3605 -0.0167
7 4 9 7.3003 -0.0079
7 4 10 -0.1258 0.0019
7 4 11 -4.3129 0.0032
7 4 12 -2.8885 0.0146
7 4 13 0.1553 0.0046
7 4 14 -2.0361 0.0030
7 4 15 3.3337 -0.0073
7 4 16 1.0958 0.0131
7 4 17 -1.0466 0.0048
7 4 18 3.6241 0.0033
7 4 19 -1.1289 0.0003
7 4 20 -5.4586 0.0060
7 4 21 -0.8504 -0.0183
7 4 22 1.7971 0.0193
7 4 23 1.0995 -0.0014
7 4 24 2.2413 -0.0360
7 4 25 -0.5229 -0.0084
7 4 26 -1.7321 0.0154
7 5 0 -1.1143 -0.1545
7 5 1 0.0058 0.1524
7 5 2 1.4651 0.0408
7 5 3 0.6780 0.0056
7 5 4 0.4676 0.0369
7 5 5 -0.3148 -0.1024
7 5 6 -1.4774 -0.0213
7 5 7 2.7214 0.0364
7 5 8 3.1908 0.0072
7 5 9 -7.1471 0.0145
7 5 10 -7.1662 0.0013
7 5 11 4.5014 0.0090
7 5 12 4.6234 -0.0028
7 5 13 1.4998 -0.0030
7 5 14 0.3149 -0.0067
7 5 15 0.3009 0.0024
7 5 16 -0.8423 0.0085
7 5 17 -0.1924 -0.0100
7 5 18 -3.1717 -0.0109
7 5 19 -1.5539 -0.0052
7 5 20 4.3213 0.0075
7 5 21 4.6557 -0.0021
7 5 22 -1.5615 0.0189
7 5 23 -2.9162 -0.0342
7 5 24 -1.2078 0.0329
7 5 25 -1.4582 0.0188
7 5 26 1.1218 -0.0421
7 6 0 -0.5002 0.1639
7 6 1 -6.1637 0.0915
7 6 2 -1.1712 -0.0781
7 6 3 1.3750 0.0070
7 6 4 -0.6232 -0.0633
7 6 5 1.3624 -0.0373
7 6 6 1.4922 0.0774
7 6 7 -1.9346 0.0187
7 6 8 -2.2086 0.0013
7 6 9 0.7017 -0.0132
7 6 10 5.1044 -0.0106
7 6 11 3.7824 0.0009
7 6 12 -3.5949 -0.0083
7 6 13 -2.3069 0.0047
7 6 14 -1.8887 0.0014
7 6 15 0.3332 0.0140
7 6 16 0.3747 -0.0019
7 6 17 -2.3073 -0.0162
7 6 18 2.4545 -0.0135
7 6 19 3.6230 0.0080
7 6 20 -3.9140 0.0062
7 6 21 -2.5494 -0.0011
7 6 22 -0.6662 0.0027
7 6 23 1.7187 -0.0065
7 6 24 2.0574 0.0143
7 6 25 0.4256 -0.0810
7 6 26 0.6335 0.0262
7 7 0 -5.0894 0.0754
7 7 1 2.8418 -0.1277
7 7 2 5.8472 -0.0336
7 7 3 -0.8773 0.0034
7 7 4 -2.1447 -0.0270
7 7 5 -0.1399 0.0793
7 7 6 -0.2448 0.0277
7 7 7 1.4827 -0.0298
7 7 8 1.5962 -0.0143
7 7 9 -1.1958 -0.0289
7 7 10 -0.8639 0.0056
7 7 11 -0.3737 0.0042
7 7 12 -2.3883 0.0103
7 7 13 -0.1324 0.0092
7 7 14 -0.0283 -0.0076
7 7 15 3.0771 -0.0054
7 7 16 0.2481 -0.0269
7 7 17 -0.3329 -0.0117
7 7 18 2.0032 0.0182
7 7 19 -3.5274 0.0258
7 7 20 -0.0245 0.0094
7 7 21 5.4582 0.0108
7 7 22 -2.0821 -0.0102
7 7 23 -1.3987 -0.0009
7 7 24 -0.1298 -0.0241
7 7 25 -0.1372 -0.0016
7 7 26 -0.1395 0.1165
7 8 0 3.7607 -0.1278
7 8 1 0.2990 -0.0348
7 8 2 -3.2200 0.0761
7 8 3 -0.4302 -0.0075
7 8 4 1.8200 0.0471
7 8 5 1.5646 0.0308
7 8 6 0.5681 -0.0659
7 8 7 -1.8028 -0.0202
7 8 8 -1.6732 -0.0052
7 8 9 0.1390 0.0129
7 8 10 -0.0491 0.0243
7 8 11 -0.3297 0.0038
7 8 12 -0.6041 0.0112
7 8 13 1.5124 -0.0149
7 8 14 2.2614 -0.0116
7 8 15 2.4870 -0.0053
7 8 16 -3.9884 0.0013
7 8 17 -2.5118 0.0349
7 8 18 1.6679 0.0238
7 8 19 0.9081 -0.0023
7 8 20 0.2407 -0.0056
7 8 21 -3.4294 -0.0244
7 8 22 -1.3867 -0.0291
7 8 23 4.2829 0.0021
7 8 24 -0.1251 -0.0235
7 8 25 -0.3406 0.0728
7 8 26 -0.3516 0.0180
7 9 0 -3.7583 0.0136
7 9 1 -1.2476 0.1092
7 9 2 1.9385 -0.0073
7 9 3 0.5278 -0.0190
7 9 4 -1.5989 0.0363
7 9 5 -0.7036 -0.0731
7 9 6 -0.0852 -0.0309
7 9 7 1.5305 0.0366
7 9 8 -0.0592 0.0196
7 9 9 -2.1596 0.0196
7 9 10 0.4126 -0.0132
7 9 11 2.9313 -0.0051
7 9 12 0.6100 -0.0070
7 9 13 0.4547 -0.0136
7 9 14 -1.0442 0.0012
7 9 15 -2.2855 -0.0005
7 9 16 -2.5653 0.0257
7 9 17 2.7849 0.0177
7 9 18 2.8789 -0.0234
7 9 19 -2.3816 -0.0303
7 9 20 -2.4067 -0.0152
7 9 21 3.3272 -0.0142
7 9 22 3.4504 0.0173
7 9 23 -2.2353 0.0129
7 9 24 -2.0339 0.0128
7 9 25 1.8700 0.0603
7 9 26 -1.3229 -0.0941
7 10 0 4.3294 0.0943
7 10 1 2.2872 -0.0357
7 10 2 -0.1646 -0.0692
7 10 3 1.3516 0.0336
7 10 4 0.7391 -0.0291
7 10 5 -2.0958 -0.0387
7 10 6 0.8786 0.0607
7 10 7 -1.3999 0.0196
7 10 8 -3.8135 0.0022
7 10 9 3.7258 -0.0174
7 10 10 2.9760 -0.0186
7 10 11 -0.8338 0.0072
7 10 12 -1.6106 -0.0056
7 10 13 -1.8220 0.0111
7 10 14 -0.9792 -0.0001
7 10 15 3.0600 0.0109
7 10 16 0.3893 0.0112
7 10 17 -1.1780 -0.0271
7 10 18 0.3632 -0.0250
7 10 19 0.0233 0.0012
7 10 20 1.3556 0.0181
7 10 21 0.8672 0.0121
7 10 22 -3.5644 0.0146
7 10 23 -1.0632 0.0011
7 10 24 1.1951 0.0356
7 10 25 -0.8791 -0.0109
7 10 26 -0.9441 -0.0896
7 11 0 1.4314 -0.0848
7 11 1 -2.5679 -0.0665
7 11 2 -1.2708 0.0469
7 11 3 -0.8667 0.0269
7 11 4 -4.9118 -0.0302
7 11 5 1.3955 0.0379
7 11 6 5.1723 0.0177
7 11 7 -2.6975 -0.0224
7 11 8 2.1665 -0.0120
7 11 9 3.6480 -0.0247
7 11 10 -4.4434 0.0175
7 11 11 -0.4202 0.0085
7 11 12 -0.2647 0.0044
7 11 13 0.0969 -0.0009
7 11 14 2.9383 -0.0147
7 11 15 -0.3616 0.0149
7 11 16 -5.1866 -0.0152
7 11 17 1.3131 -0.0047
7 11 18 4.1108 0.0150
7 11 19 -2.1410 0.0094
7 11 20 -1.6760 0.0124
7 11 21 0.2737 0.0071
7 11 22 0.5268 -0.0075
7 11 23 1.0484 0.0069
7 11 24 -0.1680 -0.0061
7 11 25 1.9707 -0.0916
7 12 0 0.0009 -0.0215
7 12 1 -2.5125 0.1027
7 12 2 0.5703 0.0385
7 12 3 1.0980 -0.0345
7 12 4 1.0670 -0.0110
7 12 5 3.1877 0.0126
7 12 6 -2.7596 -0.0278
7 12 7 -2.6145 -0.0110
7 12 8 3.7808 0.0049
7 12 9 -1.8863 0.0227
7 12 10 -2.7816 0.0282
7 12 11 1.8600 -0.0109
7 12 12 -0.8072 -0.0079
7 12 13 0.7402 -0.0180
7 12 14 -0.8051 0.0163
7 12 15 -1.5784 0.0069
7 12 16 1.6316 -0.0208
7 12 17 4.2071 0.0174
7 12 18 -0.6981 -0.0028
7 12 19 -2.6026 -0.0026
7 12 20 2.1045 -0.0024
7 12 21 -0.4097 -0.0198
7 12 22 -1.6450 -0.0122
7 12 23 -0.2308 0.0270
7 12 24 0.8671 -0.0381
7 12 25 0.1675 -0.0011
7 12 26 -2.5898 0.1087
7 13 0 -1.1218 0.1621
7 13 1 -0.4124 -0.0121
7 13 2 2.2022 -0.0638
7 13 3 -1.1905 -0.0419
7 13 4 -1.2223 0.0058
7 13 5 2.0030 0.0120
7 13 6 1.6771 -0.0084
7 13 7 0.4710 0.0284
7 13 8 -1.5974 0.0154
7 13 9 -2.5378 -0.0000
7 13 10 0.0190 -0.0228
7 13 11 1.7429 -0.0341
7 13 12 1.3257 -0.0079
7 13 13 1.3892 0.0036
7 13 14 -0.0347 0.0186
7 13 15 0.3580 -0.0125
7 13 16 -0.7984 0.0100
7 13 17 -1.1663 0.0158
7 13 18 -1.7175 -0.0095
7 13 19 0.1788 0.0012
7 13 20 0.0587 -0.0056
7 13 21 -1.8382 0.0092
7 13 22 2.0323 0.0176
7 13 23 0.8934 0.0115
7 13 24 0.6140 -0.0543
7 13 25 0.0566 0.0308
7 14 0 2.1369 -0.0774
7 14 1 2.1330 -0.1091
7 14 2 -0.5113 -0.0021
7 14 3 -1.2740 0.0013
7 14 4 2.9075 0.0595
7 14 5 0.7079 -0.0026
7 14 6 -5.6885 -0.0042
7 14 7 -3.7212 0.0091
7 14 8 3.2591 -0.0205
7 14 9 2.6752 -0.0046
7 14 10 -0.4551 -0.0187
7 14 11 1.8564 0.0105
7 14 12 -0.3243 0.0296
7 14 13 -2.6574 0.0158
7 14 14 -1.4936 0.0163
7 14 15 -0.6845 -0.0037
7 14 16 0.0442 0.0062
7 14 17 1.8301 -0.0196
7 14 18 1.5333 -0.0186
7 14 19 0.4922 -0.0047
7 14 20 -1.1273 0.0065
7 14 21 -0.0888 0.0018
7 14 22 0.7703 -0.0152
7 14 23 -0.9569 -0.0086
7 14 24 1.7640 -0.0242
7 14 25 -1.3278 0.0775
7 15 0 0.6472 -0.1515
7 15 1 -1.0205 0.0838
7 15 2 -3.0418 0.0392
7 15 3 -0.2726 0.0404
7 15 4 0.1533 0.0149
7 15 5 -2.8107 -0.0503
7 15 6 0.6456 0.0161
7 15 7 6.9763 -0.0130
7 15 8 3.0652 -0.0042
7 15 9 -5.2179 -0.0016
7 15 10 -2.5514 0.0035
7 15 11 2.3308 0.0320
7 15 12 -1.7169 -0.0054
7 15 13 0.6538 -0.0133
7 15 14 2.0561 -0.0206
7 15 15 -0.4764 -0.0153
7 15 16 0.9297 -0.0043
7 15 17 0.9728 -0.0212
7 15 18 -1.5401 0.0212
7 15 19 -2.0368 0.0252
7 15 20 -0.4875 0.0088
7 15 21 1.2632 -0.0188
7 15 22 1.0662 0.0017
7 15 23 0.3578 0.0347
7 15 24 0.2429 0.0159
7 15 25 -2.5284 0.0215
7 16 0 -1.1881 0.1493
7 16 1 -0.6255 0.0922
7 16 2 0.0365 -0.0429
7 16 3 3.2136 0.0036
7 16 4 2.8072 -0.0669
7 16 5 0.6656 -0.0096
7 16 6 1.0955 0.0267
7 16 7 -0.9455 -0.0126
7 16 8 -6.0923 0.0198
7 16 9 -2.9304 0.0126
7 16 10 4.8251 0.0215
7 16 11 2.9073 -0.0195
7 16 12 -1.9681 -0.0324
7 16 13 0.6597 -0.0085
7 16 14 -1.7864 0.0079
7 16 15 -1.1226 0.0327
7 16 16 1.3106 0.0003
7 16 17 -0.6322 0.0113
7 16 18 -0.3763 0.0152
7 16 19 0.6914 -0.0245
7 16 20 0.8343 -0.0091
7 16 21 0.8250 -0.0085
7 16 22 -0.7287 0.0289
7 16 23 -1.3416 0.0056
7 16 24 0.3626 -0.0605
7 17 0 3.1870 0.1234
7 17 1 3.0400 -0.1236
7 17 2 0.5228 -0.0315
7 17 3 1.0405 -0.0176
7 17 4 -3.6427 -0.0315
7 17 5 -4.6955 0.0765
7 17 6 0.0464 0.0125
7 17 7 0.6974 -0.0098
7 17 8 -0.1403 0.0046
7 17 9 4.1057 -0.0075
7 17 10 2.5906 -0.0223
7 17 11 -3.7352 -0.0348
7 17 12 -2.5225 0.0157
7 17 13 1.7244 0.0241
7 17 14 0.3812 0.0225
7 17 15 0.8548 -0.0043
7 17 16 0.5345 -0.0240
7 17 17 0.5333 -0.0005
7 17 18 -0.2692 -0.0250
7 17 19 -1.2474 0.0084
7 17 20 0.1326 0.0146
7 17 21 0.1313 -0.0046
7 17 22 -1.1731 0.0175
7 17 23 0.9493 -0.0318
7 17 24 1.7082 -0.0098
7 18 0 1.3355 -0.1686
7 18 1 -3.2178 -0.0802
7 18 2 -1.7314 0.0635
7 18 3 -1.2134 -0.0103
7 18 4 -1.4659 0.0634
7 18 5 3.5225 0.0391
7 18 6 3.6119 -0.0536
7 18 7 -1.2103 -0.0050
7 18 8 -1.8412 -0.0134
7 18 9 1.4614 -0.0024
7 18 10 -1.5597 -0.0100
7 18 11 -1.7887 0.0098
7 18 12 2.8881 0.0275
7 18 13 2.0856 0.0014
7 18 14 -2.1582 -0.0006
7 18 15 -1.7391 -0.0158
7 18 16 0.2167 0.0015
7 18 17 -0.3563 0.0091
7 18 18 -0.8556 -0.0058
7 18 19 1.2238 0.0246
7 18 20 0.9002 -0.0058
7 18 21 -0.1261 0.0092
7 18 22 -0.1420 -0.0046
7 18 23 0.8090 -0.0249
7 19 0 -2.4849 -0.1204
7 19 1 -0.1337 0.1553
7 19 2 1.5657 0.0223
7 19 3 0.0335 0.0038
7 19 4 0.7477 0.0250
7 19 5 -0.6993 -0.0825
7 19 6 -0.8355 -0.0263
7 19 7 -0.1920 0.0110
7 19 8 1.3500 -0.0031
7 19 9 1.9706 0.0298
7 19 10 -2.9684 -0.0012
7 19 11 -0.8664 0.0221
7 19 12 1.8352 0.0038
7 19 13 -1.2084 0.0005
7 19 14 -1.6034 -0.0081
7 19 15 1.0870 -0.0144
7 19 16 1.7554 0.0161
7 19 17 1.0550 -0.0030
7 19 18 0.7997 -0.0100
7 19 19 -1.4321 -0.0012
7 19 20 -1.3613 -0.0320
7 19 21 0.4698 0.0105
7 19 22 -0.5696 -0.0127
7 20 0 -0.5562 0.1833
7 20 1 1.8258 0.0718
7 20 2 0.2508 -0.0858
7 20 3 0.7428 0.0212
7 20 4 0.0095 -0.0684
7 20 5 0.5570 -0.0189
7 20 6 2.4165 0.0812
7 20 7 -2.5660 0.0228
7 20 8 -2.0600 0.0129
7 20 9 -0.3232 -0.0012
7 20 10 -0.9613 -0.0129
7 20 11 3.1054 0.0007
7 20 12 2.5078 -0.0295
7 20 13 -1.5017 -0.0027
7 20 14 -1.4763 -0.0163
7 20 15 -0.3613 0.0113
7 20 16 0.8912 -0.0030
7 20 17 0.4519 -0.0273
7 20 18 -2.0748 -0.0157
7 20 19 -1.2025 -0.0086
7 20 20 2.6544 0.0423
7 20 21 0.5382 0.0648
7 20 22 -1.1327 -0.0246
7 21 0 1.1574 0.1028
7 21 1 0.5781 -0.1363
7 21 2 0.1856 -0.0201
7 21 3 0.3850 -0.0074
7 21 4 -2.8542 -0.0261
7 21 5 -1.0262 0.0837
7 21 6 -0.6608 0.0150
7 21 7 -0.9944 -0.0462
7 21 8 3.7235 -0.0297
7 21 9 2.1993 -0.0216
7 21 10 -1.5104 -0.0016
7 21 11 -0.6047 -0.0173
7 21 12 -1.0009 0.0036
7 21 13 -3.1074 0.0238
7 21 14 0.7234 -0.0007
7 21 15 2.6954 0.0076
7 21 16 2.1378 -0.0150
7 21 17 -0.5800 0.0370
7 21 18 -2.3902 0.0280
7 21 19 0.3341 0.0385
7 21 20 0.7188 0.0372
7 21 21 -1.5666 -0.0485
7 22 0 -0.7639 -0.1159
7 22 1 -0.3992 -0.0284
7 22 2 1.1298 0.0557
7 22 3 -0.8424 -0.0165
7 22 4 -1.1302 0.0422
7 22 5 2.5309 0.0098
7 22 6 1.0935 -0.0449
7 22 7 0.4247 -0.0248
7 22 8 0.0034 -0.0016
7 22 9 -2.3053 0.0287
7 22 10 -1.9636 0.0270
7 22 11 1.9166 0.0142
7 22 12 1.2107 0.0277
7 22 13 -0.5538 -0.0030
7 22 14 2.8522 0.0015
7 22 15 -0.9983 -0.0081
7 22 16 -1.0470 0.0043
7 22 17 -1.8033 0.0314
7 22 18 -1.6559 -0.0555
7 22 19 2.1449 -0.0308
7 22 20 1.5485 -0.0378
7 23 0 -1.5225 0.0048
7 23 1 1.3375 0.0568
7 23 2 0.3539 -0.0289
7 23 3 -0.7426 -0.0180
7 23 4 -0.6018 0.0214
7 23 5 -0.8915 -0.0429
7 23 6 0.5152 -0.0010
7 23 7 1.0143 0.0265
7 23 8 -0.9783 0.0402
7 23 9 -0.4234 0.0198
7 23 10 -0.5037 -0.0163
7 23 11 1.1410 -0.0285
7 23 12 -0.0613 -0.0148
7 23 13 -0.3523 -0.0124
7 23 14 0.8456 -0.0110
7 23 15 -2.2207 -0.0324
7 23 16 1.2729 0.0396
7 23 17 -0.8776 0.0011
7 23 18 0.3704 -0.0608
7 23 19 2.1521 0.0330
7 24 0 -0.7948 0.0591
7 24 1 1.2586 -0.0045
7 24 2 -0.2285 -0.0374
7 24 3 0.5283 0.0350
7 24 4 -1.5248 0.0067
7 24 5 1.6062 -0.0115
7 24 6 1.7835 0.0657
7 24 7 -2.5618 0.0127
7 24 8 -0.5056 -0.0303
7 24 9 1.6867 -0.0298
7 24 10 -0.6446 -0.0292
7 24 11 1.8324 -0.0079
7 24 12 0.1036 0.0315
7 24 13 -1.0596 -0.0111
7 24 14 -0.2317 -0.0113
7 24 15 -1.0975 0.0284
7 24 16 1.9654 0.0468
7 24 17 -1.2260 -0.0610
7 25 0 0.0163 0.0025
7 25 1 0.7549 -0.0226
7 25 2 -0.2135 0.0297
7 25 3 -1.5098 0.0507
7 25 4 -1.6564 -0.0325
7 25 5 2.0164 -0.0004
7 25 6 -0.4653 0.0144
7 25 7 0.5863 -0.0791
7 25 8 1.9229 -0.0247
7 25 9 -2.1120 0.0054
7 25 10 -2.9388 -0.0168
7 25 11 1.6690 0.0437
7 25 12 -0.1902 0.0219
7 25 13 -0.1226 -0.0222
7 25 14 0.8359 0.0482
7 25 15 -0.0565 0.0180
7 26 2 -1.2451 -0.0060
7 26 3 0.4489 -0.0535
7 26 4 1.7547 -0.0636
7 26 5 1.8939 0.0289
7 26 6 -1.2705 0.0005
7 26 7 -0.7133 -0.0169
7 26 8 -1.4649 0.0620
7 26 9 -1.1179 0.0261
7 26 10 1.8313 0.0219
7 26 11 4.0410 0.0455
7 26 12 -0.8128 -0.0341
8 -20 0 1.1886 -0.0746
8 -20 1 -1.5547 -0.1299
8 -20 2 0.1003 -0.0293
8 -20 3 1.1447 0.1574
8 -20 4 0.8355 0.2139
8 -19 0 0.2567 -0.1328
8 -19 1 -0.4569 0.0723
8 -19 2 0.1138 -0.0364
8 -19 3 -1.4171 -0.0394
8 -19 4 -0.1861 -0.0615
8 -19 5 -0.8089 -0.1350
8 -19 6 1.3871 0.1519
8 -19 7 0.9385 0.2181
8 -18 0 2.0098 0.0317
8 -18 1 -0.5667 0.1054
8 -18 2 -0.4778 -0.0105
8 -18 3 1.3258 0.1034
8 -18 4 2.3738 0.0037
8 -18 5 -0.4980 -0.0326
8 -18 6 0.5923 0.0606
8 -18 7 -2.3565 -0.1007
8 -18 8 -0.1427 -0.0709
8 -18 9 0.5516 0.1631
8 -17 0 0.4325 0.1787
8 -17 1 -2.2106 -0.0916
8 -17 2 0.3135 -0.0732
8 -17 3 -0.3677 -0.0180
8 -17 4 -1.3198 -0.0758
8 -17 5 -1.4368 0.0309
8 -17 6 0.5151 0.0599
8 -17 7 -0.6983 0.0170
8 -17 8 2.7387 -0.0395
8 -17 9 -0.5285 -0.0651
8 -17 10 -0.3118 0.0669
8 -17 11 1.7287 0.1056
8 -16 0 -1.3709 -0.1169
8 -16 1 -0.7319 -0.0958
8 -16 2 -0.7996 0.0834
8 -16 3 0.4383 0.0272
8 -16 4 2.8232 0.0413
8 -16 5 0.6016 -0.0040
8 -16 6 -0.5183 -0.0229
8 -16 7 -1.0399 -0.0049
8 -16 8 0.9371 -0.0549
8 -16 9 -1.8769 0.0796
8 -16 10 0.0130 0.0348
8 -16 11 -0.0591 -0.1034
8 -16 12 -0.1111 0.0081
8 -15 0 -1.1604 -0.1670
8 -15 1 -1.0267 0.0866
8 -15 2 1.0581 0.0303
8 -15 3 1.8969 0.0048
8 -15 4 -0.8510 0.0109
8 -15 5 -3.0668 -0.0637
8 -15 6 -0.2972 0.0355
8 -15 7 1.5125 -0.0162
8 -15 8 2.1436 -0.0477
8 -15 9 -0.6786 0.0386
8 -15 10 0.5155 0.0233
8 -15 11 0.4676 0.0654
8 -15 12 -0.1039 -0.0636
8 -15 13 -1.0391 -0.0842
8 -14 0 0.4177 0.1294
8 -14 1 0.3900 0.1097
8 -14 2 -0.8329 -0.0533
8 -14 3 -0.7059 0.0214
8 -14 4 1.7367 -0.0521
8 -14 5 0.8951 -0.0458
8 -14 6 0.7529 0.0274
8 -14 7 -0.6625 -0.0025
8 -14 8 -1.1754 0.0464
8 -14 9 -1.9812 0.0287
8 -14 10 -0.6258 -0.0191
8 -14 11 0.0474 -0.0429
8 -14 12 0.9267 -0.0272
8 -14 13 0.7935 0.0569
8 -14 14 -0.3598 -0.0326
8 -14 15 -0.5381 -0.0100
8 -13 0 -2.3735 0.0628
8 -13 1 0.3888 -0.1032
8 -13 2 0.3491 -0.0131
8 -13 3 2.5287 0.0172
8 -13 4 -0.4378 -0.0560
8 -13 5 -4.3113 0.0350
8 -13 6 -0.6602 0.0407
8 -13 7 0.9521 0.0145
8 -13 8 2.1431 -0.0147
8 -13 9 0.2189 -0.0118
8 -13 10 0.7239 0.0229
8 -13 11 1.6052 -0.0023
8 -13 12 -0.2845 -0.0313
8 -13 13 -2.2363 -0.0341
8 -13 14 -0.5021 0.0307
8 -13 15 1.9271 0.0529
8 -13 16 -0.0508 -0.0370
8 -12 0 1.4552 -0.1080
8 -12 1 -0.0048 0.0031
8 -12 2 -3.6165 0.0422
8 -12 3 0.2098 -0.0369
8 -12 4 -0.4755 0.0266
8 -12 5 1.6734 0.0361
8 -12 6 2.6776 -0.0173
8 -12 7 -0.4870 -0.0084
8 -12 8 -1.0282 -0.0249
8 -12 9 -1.8985 -0.0000
8 -12 10 -0.1380 -0.0294
8 -12 11 -0.2487 -0.0103
8 -12 12 -0.1034 0.0326
8 -12 13 1.0612 0.0041
8 -12 14 1.2323 -0.0194
8 -12 15 -1.3444 0.0157
8 -12 16 -1.8866 0.0543
8 -12 17 1.5603 -0.0092
8 -11 0 -2.9250 0.0295
8 -11 1 -1.7189 0.0966
8 -11 2 3.7442 -0.0271
8 -11 3 4.0533 -0.0037
8 -11 4 -2.0665 0.0107
8 -11 5 -1.3880 -0.0462
8 -11 6 -1.1749 0.0016
8 -11 7 0.2140 -0.0034
8 -11 8 1.2371 -0.0050
8 -11 9 -0.0861 0.0437
8 -11 10 0.6553 0.0198
8 -11 11 1.6716 0.0121
8 -11 12 -0.1793 -0.0312
8 -11 13 -2.4185 -0.0151
8 -11 14 -0.7817 0.0341
8 -11 15 0.2768 0.0054
8 -11 16 1.8619 -0.0292
8 -11 17 1.3192 0.0122
8 -11 18 -1.8030 -0.0031
8 -10 0 1.6829 0.0969
8 -10 1 2.3929 -0.0460
8 -10 2 -0.8464 -0.0601
8 -10 3 -4.7900 0.0134
8 -10 4 -0.7031 -0.0145
8 -10 5 3.6822 0.0063
8 -10 6 1.3582 0.0301
8 -10 7 -1.1512 -0.0114
8 -10 8 -2.0783 0.0176
8 -10 9 -0.5420 0.0080
8 -10 10 1.0534 -0.0284
8 -10 11 -0.4702 -0.0095
8 -10 12 -2.5608 -0.0024
8 -10 13 1.5785 0.0006
8 -10 14 2.8683 -0.0258
8 -10 15 -1.4090 0.0129
8 -10 16 -0.8596 0.0635
8 -10 17 0.6237 -0.0077
8 -10 18 -0.2199 -0.0606
8 -9 0 -1.1190 -0.0739
8 -9 1 -0.2192 -0.0538
8 -9 2 1.2280 0.0234
8 -9 3 2.0755 0.0237
8 -9 4 1.6657 -0.0050
8 -9 5 -1.4452 0.0119
8 -9 6 -3.0815 0.0141
8 -9 7 -0.8189 -0.0024
8 -9 8 1.7752 0.0009
8 -9 9 1.7951 -0.0044
8 -9 10 0.6346 0.0063
8 -9 11 -0.0689 -0.0205
8 -9 12 0.3025 -0.0201
8 -9 13 1.3285 0.0206
8 -9 14 -1.8113 0.0124
8 -9 15 -1.6041 0.0035
8 -9 16 2.4746 -0.0003
8 -9 17 0.8881 -0.0010
8 -9 18 -2.7327 -0.0084
8 -9 19 -0.7965 -0.0678
8 -8 0 -0.7022 -0.0335
8 -8 1 1.8786 0.0556
8 -8 2 -1.5728 0.0392
8 -8 3 -4.0354 0.0114
8 -8 4 -0.7251 -0.0309
8 -8 5 1.5959 -0.0090
8 -8 6 1.8433 0.0048
8 -8 7 0.9093 -0.0247
8 -8 8 -0.7315 -0.0166
8 -8 9 0.0910 0.0189
8 -8 10 -0.2271 0.0053
8 -8 11 -1.3902 -0.0215
8 -8 12 -0.8677 0.0131
8 -8 13 0.1434 -0.0049
8 -8 14 -0.5888 -0.0092
8 -8 15 0.2394 0.0400
8 -8 16 0.7338 0.0213
8 -8 17 -0.9406 -0.0271
8 -8 18 0.2201 -0.0186
8 -8 19 2.1010 -0.0120
8 -8 20 -0.2934 0.0328
8 -7 0 -0.9581 0.1477
8 -7 1 2.0348 -0.0020
8 -7 2 0.3016 -0.0156
8 -7 3 1.5369 -0.0504
8 -7 4 2.2222 -0.0345
8 -7 5 -0.5604 0.0375
8 -7 6 -1.7284 0.0190
8 -7 7 -2.0872 -0.0012
8 -7 8 0.6583 0.0213
8 -7 9 2.3726 0.0154
8 -7 10 -1.1845 -0.0178
8 -7 11 0.0313 -0.0158
8 -7 12 0.0320 -0.0055
8 -7 16 0.1981 -0.0124
8 -7 17 -0.8845 0.0168
8 -7 18 -0.1818 -0.0185
8 -7 19 -1.4234 -0.0616
8 -7 20 -0.7606 0.0228
8 -7 21 1.9556 0.0410
8 -6 0 2.4473 -0.0517
8 -6 1 -0.2503 -0.0972
8 -6 2 -4.7299 -0.0024
8 -6 3 -1.7363 -0.0247
8 -6 4 0.0470 0.0569
8 -6 5 0.5336 0.0233
8 -6 6 1.5605 -0.0186
8 -6 7 0.6376 -0.0027
8 -6 8 0.6487 -0.0098
8 -6 9 -2.0686 -0.0081
8 -6 18 1.3582 -0.0220
8 -6 19 -0.3542 -0.0037
8 -6 20 0.4061 -0.0250
8 -6 21 0.0295 0.0276
8 -5 0 -3.0874 -0.2005
8 -5 1 -2.5967 0.0564
8 -5 2 4.3024 0.0263
8 -5 3 5.1141 0.0429
8 -5 4 -0.9840 0.0459
8 -5 5 -1.2868 -0.0575
8 -5 6 -1.2673 -0.0069
8 -5 7 -2.9252 0.0088
8 -5 8 0.6180 -0.0019
8 -5 19 -0.9694 -0.0030
8 -5 20 0.7941 0.0488
8 -5 21 1.2544 0.1385
8 -5 22 0.3034 0.0100
8 -4 0 -1.8194 0.0923
8 -4 1 2.9520 0.1375
8 -4 2 -0.6522 -0.0319
8 -4 3 -5.6656 0.0301
8 -4 4 -1.8605 -0.0679
8 -4 5 2.9858 -0.0474
8 -4 6 0.8007 0.0425
8 -4 7 2.0117 0.0091
8 -4 20 -0.5349 -0.0348
8 -4 21 -1.2430 0.0118
8 -4 22 -0.5834 -0.0243
8 -3 0 -3.1844 0.2180
8 -3 1 2.0047 -0.0954
8 -3 2 1.5429 -0.0540
8 -3 3 4.3451 -0.0094
8 -3 4 1.1908 -0.0524
8 -3 5 -2.7465 0.0626
8 -3 6 -1.5974 0.0299
8 -3 7 1.5878 -0.0129
8 -3 20 -2.3491 0.0310
8 -3 21 2.0836 0.0475
8 -3 22 1.9015 -0.0181
8 -3 23 -1.2463 -0.0738
8 -2 0 3.7267 -0.1300
8 -2 1 2.6364 -0.1468
8 -2 2 -3.1759 0.0487
8 -2 3 -4.8581 -0.0118
8 -2 4 -4.7017 0.0567
8 -2 5 3.0358 0.0492
8 -2 6 4.1531 -0.0478
8 -2 7 -0.7630 -0.0105
8 -2 20 0.2809 -0.0020
8 -2 21 2.7133 0.0184
8 -2 22 -2.6100 0.0133
8 -2 23 -0.9584 -0.0718
8 -1 0 -3.0313 -0.1621
8 -1 1 -3.0837 0.1266
8 -1 2 0.4974 0.0600
8 -1 3 3.7959 0.0058
8 -1 4 2.7409 0.0477
8 -1 5 1.6359 -0.0738
8 -1 6 -3.3447 -0.0364
8 -1 7 0.8455 0.0244
8 -1 20 2.2217 0.0048
8 -1 21 -1.3366 -0.0083
8 -1 22 -0.9476 -0.0738
8 -1 23 1.7353 -0.0040
8 0 0 7.1506 0.1588
8 0 1 3.7424 0.0939
8 0 2 0.5079 -0.0807
8 0 3 -3.8127 0.0085
8 0 4 -2.0199 -0.0420
8 0 5 1.7915 -0.0544
8 0 6 1.8423 0.0586
8 0 7 1.4329 0.0214
8 0 20 -3.0949 0.0072
8 0 21 -0.7654 -0.0063
8 0 22 0.5556 0.0484
8 0 23 -0.6452 0.0040
8 0 24 -0.3937 -0.0889
8 1 0 1.5922 0.0879
8 1 1 -6.3004 -0.1349
8 1 2 -2.7922 -0.0316
8 1 3 1.9118 0.0140
8 1 4 4.6754 -0.0428
8 1 5 -0.3359 0.0668
8 1 6 -4.1075 0.0390
8 1 7 -1.9998 -0.0336
8 1 8 0.9484 -0.0117
8 1 20 4.1954 0.0042
8 1 21 1.1348 -0.0372
8 1 22 -0.1911 -0.0191
8 1 23 0.1502 -0.0989
8 1 24 0.5864 0.0728
8 2 0 0.8907 -0.1593
8 2 1 -2.7559 -0.0298
8 2 2 3.5883 0.0814
8 2 3 -0.4021 -0.0106
8 2 4 -1.4229 0.0407
8 2 5 -2.2231 0.0368
8 2 6 0.8876 -0.0652
8 2 7 1.6623 -0.0149
8 2 8 -0.4025 -0.0012
8 2 9 -0.4495 0.0083
8 2 19 3.0225 0.0073
8 2 20 -0.7873 -0.0213
8 2 21 -4.4873 -0.0092
8 2 22 -0.6813 0.0043
8 2 23 0.6611 0.0068
8 2 24 1.1074 0.1464
8 3 0 -5.4713 0.0238
8 3 1 1.0237 0.1195
8 3 2 1.5687 -0.0098
8 3 3 -0.9547 -0.0175
8 3 4 2.8194 0.0198
8 3 5 -1.1754 -0.0618
8 3 6 -1.1348 -0.0148
8 3 7 1.0023 0.0330
8 3 8 3.1436 0.0052
8 3 9 -0.1786 0.0303
8 3 10 -2.5563 -0.0028
8 3 11 -2.6939 -0.0140
8 3 17 -2.4590 0.0188
8 3 18 0.4206 -0.0116
8 3 19 -2.5559 0.0093
8 3 20 -0.4760 -0.0269
8 3 21 3.5105 0.0042
8 3 22 2.9911 0.0054
8 3 23 0.9146 0.0458
8 3 24 -1.3908 0.0169
8 4 0 4.7361 0.1020
8 4 1 1.9915 -0.0444
8 4 2 -3.9173 -0.0644
8 4 3 -1.6548 0.0190
8 4 4 -0.6966 -0.0256
8 4 5 -1.0668 -0.0161
8 4 6 3.1863 0.0537
8 4 7 1.1060 0.0127
8 4 8 -3.4780 0.0025
8 4 9 -2.8118 -0.0150
8 4 10 3.9310 -0.0337
8 4 11 1.6664 -0.0070
8 4 12 1.3534 -0.0113
8 4 13 -2.1729 0.0193
8 4 14 -1.9476 -0.0030
8 4 15 2.4981 0.0126
8 4 16 -0.6074 0.0282
8 4 17 -0.0627 -0.0075
8 4 18 0.9654 0.0065
8 4 19 0.6493 -0.0071
8 4 20 2.3885 -0.0135
8 4 21 -2.1655 0.0271
8 4 22 -3.7181 0.0079
8 4 23 -1.4669 0.0010
8 4 24 0.7950 -0.0535
8 4 25 1.3681 -0.0155
8 5 0 -5.1950 -0.1063
8 5 1 -4.6032 -0.0705
8 5 2 0.1353 0.0436
8 5 3 2.6951 0.0308
8 5 4 2.7190 -0.0161
8 5 5 1.8525 0.0309
8 5 6 -1.9075 0.0133
8 5 7 -2.4980 -0.0275
8 5 8 2.5798 -0.0188
8 5 9 2.6977 -0.0274
8 5 10 -3.2321 0.0176
8 5 11 -5.0422 0.0215
8 5 12 2.1259 0.0138
8 5 13 -0.1580 0.0207
8 5 14 3.4744 -0.0017
8 5 15 2.0403 0.0146
8 5 16 -3.6171 -0.0159
8 5 17 0.3705 -0.0111
8 5 18 -0.3900 -0.0180
8 5 19 -3.3786 -0.0122
8 5 20 0.4203 0.0063
8 5 21 1.8310 0.0129
8 5 22 1.8654 -0.0097
8 5 23 1.9474 -0.0144
8 5 24 0.2803 0.0035
8 5 25 -1.8039 0.0154
8 6 0 0.7555 -0.0338
8 6 1 3.1529 0.0984
8 6 2 -0.2027 0.0430
8 6 3 0.0769 -0.0185
8 6 4 1.6752 -0.0197
8 6 5 -1.5649 0.0069
8 6 6 -2.6496 -0.0179
8 6 7 1.5932 -0.0094
8 6 8 -0.3153 0.0005
8 6 9 -4.6636 0.0144
8 6 10 1.0149 0.0335
8 6 11 6.0671 -0.0045
8 6 12 2.9427 -0.0035
8 6 13 -2.5749 -0.0121
8 6 14 -0.6851 -0.0067
8 6 15 -2.7222 -0.0087
8 6 16 -0.0873 -0.0226
8 6 17 0.6045 0.0005
8 6 18 -0.9277 -0.0013
8 6 19 2.4601 0.0182
8 6 20 4.1164 -0.0053
8 6 21 -2.2991 0.0171
8 6 22 -4.1353 -0.0118
8 6 23 -0.3257 0.0105
8 6 24 0.3774 -0.0021
8 6 25 0.4096 -0.0351
8 7 0 -3.3988 0.1463
8 7 1 -1.4505 0.0164
8 7 2 0.3591 -0.0527
8 7 3 2.4369 -0.0402
8 7 4 -1.7261 -0.0137
8 7 5 -4.4683 0.0168
8 7 6 -0.3374 -0.0028
8 7 7 3.0866 0.0118
8 7 8 1.2211 0.0146
8 7 9 1.9348 0.0105
8 7 10 2.7844 -0.0111
8 7 11 -3.0032 -0.0238
8 7 12 -3.3974 -0.0058
8 7 13 -1.4849 -0.0062
8 7 14 1.7633 0.0054
8 7 15 1.6287 -0.0096
8 7 16 -2.1804 0.0005
8 7 17 -0.5475 0.0060
8 7 18 4.2038 0.0103
8 7 19 -2.0894 0.0090
8 7 20 -2.1042 0.0085
8 7 21 -0.1860 0.0222
8 7 22 1.3398 -0.0263
8 7 23 2.5017 0.0119
8 7 24 -0.4179 -0.0436
8 7 25 -0.7554 0.0337
8 8 0 1.5181 -0.0187
8 8 1 3.8215 -0.1156
8 8 2 -0.4007 -0.0287
8 8 3 -0.5205 0.0072
8 8 4 -0.5282 0.0523
8 8 5 2.6131 0.0264
8 8 6 3.6413 -0.0144
8 8 7 0.8193 0.0055
8 8 8 -2.6126 -0.0125
8 8 9 -2.7885 -0.0199
8 8 10 -1.2652 -0.0163
8 8 11 -0.9102 0.0073
8 8 12 2.0388 0.0245
8 8 13 0.4270 0.0108
8 8 14 1.2826 -0.0012
8 8 15 -1.5504 -0.0049
8 8 16 -1.9416 0.0092
8 8 17 5.3487 0.0144
8 8 18 0.0019 0.0122
8 8 19 -3.7189 -0.0071
8 8 20 4.7267 0.0133
8 8 21 -2.5121 -0.0203
8 8 22 -2.7549 -0.0234
8 8 23 1.5655 -0.0033
8 8 24 -0.3597 -0.0339
8 8 25 0.4183 0.0761
8 9 0 1.2047 -0.1732
8 9 1 -2.4510 0.0334
8 9 2 -0.0153 0.0561
8 9 3 1.2852 0.0474
8 9 4 -2.9116 0.0248
8 9 5 -1.4418 -0.0528
8 9 6 -1.1851 -0.0237
8 9 7 -0.9989 0.0070
8 9 8 -0.7986 -0.0048
8 9 9 0.6998 0.0065
8 9 10 1.9548 0.0127
8 9 11 -0.0460 0.0272
8 9 12 0.9778 0.0021
8 9 13 0.2401 -0.0259
8 9 14 2.1340 -0.0150
8 9 15 -1.6405 -0.0031
8 9 16 -1.5233 0.0082
8 9 17 1.8480 0.0068
8 9 18 -2.2011 -0.0143
8 9 19 -0.5519 0.0012
8 9 20 -1.1344 -0.0033
8 9 21 -3.3393 -0.0459
8 9 22 6.4252 0.0031
8 9 23 1.9123 -0.0193
8 9 24 -2.8094 0.0453
8 9 25 0.1901 0.0805
8 10 0 -1.5353 0.0839
8 10 1 1.2878 0.1206
8 10 2 1.9612 -0.0147
8 10 3 -2.4585 0.0116
8 10 4 -0.4143 -0.0647
8 10 5 3.5948 -0.0425
8 10 6 0.4669 0.0310
8 10 7 -0.4102 0.0082
8 10 8 -0.4254 0.0051
8 10 9 1.3754 0.0090
8 10 10 1.4415 0.0089
8 10 11 -0.8804 -0.0059
8 10 12 1.3404 -0.0289
8 10 13 -1.5145 -0.0081
8 10 14 -2.9238 0.0055
8 10 15 -3.3296 0.0166
8 10 16 2.2750 0.0197
8 10 17 3.8723 -0.0045
8 10 18 -1.5140 -0.0100
8 10 19 -0.5937 0.0005
8 10 20 1.8745 -0.0274
8 10 21 2.9447 0.0015
8 10 22 0.4485 0.0271
8 10 23 -5.7543 0.0260
8 10 24 -0.5617 0.0928
8 10 25 1.4909 -0.0674
8 11 0 2.7080 0.1819
8 11 1 -0.1302 -0.0825
8 11 2 -1.9136 -0.0437
8 11 3 -1.7816 -0.0261
8 11 4 -0.7911 -0.0554
8 11 5 -0.6933 0.0677
8 11 6 0.4894 0.0273
8 11 7 1.4883 0.0016
8 11 8 0.7765 0.0115
8 11 9 0.7795 -0.0099
8 11 10 -2.0875 -0.0075
8 11 11 -2.8980 -0.0245
8 11 12 0.3837 -0.0011
8 11 13 -1.7854 0.0142
8 11 14 3.2291 0.0121
8 11 15 3.7473 0.0140
8 11 16 -0.1839 -0.0182
8 11 17 -1.6902 -0.0116
8 11 18 -1.1067 0.0025
8 11 19 0.9189 -0.0132
8 11 20 -0.5973 -0.0048
8 11 21 -2.8055 0.0368
8 11 22 -1.1270 0.0274
8 11 23 0.7164 0.0332
8 11 24 2.7758 -0.0489
8 11 25 1.1327 -0.1346
8 12 0 -2.8788 -0.1313
8 12 1 -1.9624 -0.1118
8 12 2 0.8857 0.0670
8 12 3 -0.1645 -0.0338
8 12 4 1.4778 0.0569
8 12 5 4.8632 0.0525
8 12 6 -0.2679 -0.0474
8 12 7 -2.6648 0.0004
8 12 8 -0.0398 -0.0213
8 12 9 -0.9094 0.0002
8 12 10 -1.9164 -0.0006
8 12 11 1.1486 -0.0098
8 12 12 3.6531 0.0281
8 12 13 0.5816 0.0078
8 12 14 0.4566 0.0086
8 12 15 -5.1437 -0.0145
8 12 16 -1.5627 -0.0185
8 12 17 4.0408 0.0162
8 12 18 -0.2077 -0.0032
8 12 19 -1.0581 -0.0049
8 12 20 -0.2116 0.0256
8 12 21 1.1412 0.0148
8 12 22 2.2710 -0.0208
8 12 23 -0.4053 -0.0361
8 12 24 0.2149 -0.0859
8 13 0 -0.1725 -0.1701
8 13 1 3.3065 0.1454
8 13 2 0.7788 0.0281
8 13 3 -1.7651 -0.0144
8 13 4 1.8899 0.0662
8 13 5 -1.6293 -0.0704
8 13 6 -3.3391 -0.0287
8 13 7 3.5775 0.0159
8 13 8 0.3219 0.0015
8 13 9 -3.2456 0.0169
8 13 10 0.0348 -0.0224
8 13 11 2.0073 0.0163
8 13 12 1.2303 0.0059
8 13 13 -3.1070 -0.0197
8 13 14 -0.6518 -0.0079
8 13 15 1.1852 -0.0217
8 13 16 3.8321 0.0112
8 13 17 -0.5108 0.0148
8 13 18 -2.8889 -0.0016
8 13 19 1.4903 -0.0044
8 13 20 -0.7385 -0.0001
8 13 21 -0.7307 -0.0072
8 13 22 -0.2818 0.0080
8 13 23 -0.5702 -0.0104
8 13 24 1.0494 -0.0085
8 14 0 4.3777 0.1525
8 14 1 0.2784 0.1108
8 14 2 -3.6908 -0.0940
8 14 3 0.5022 0.0108
8 14 4 1.9369 -0.0526
8 14 5 -0.4732 -0.0529
8 14 6 2.0738 0.0544
8 14 7 -1.4521 0.0191
8 14 8 -5.0262 0.0100
8 14 9 1.1590 -0.0109
8 14 10 2.9747 -0.0027
8 14 11 1.9957 0.0062
8 14 12 0.1392 -0.0174
8 14 13 -1.8106 0.0151
8 14 14 2.2388 0.0075
8 14 15 -0.9274 0.0177
8 14 16 -1.7851 0.0112
8 14 17 -1.3346 -0.0020
8 14 18 0.2805 0.0039
8 14 19 0.2861 -0.0125
8 14 20 -1.4506 0.0118
8 14 21 2.5167 -0.0088
8 14 22 0.9899 -0.0114
8 14 23 0.1702 -0.0310
8 14 24 0.0670 0.0232
8 15 0 0.5769 0.0974
8 15 1 -2.5364 -0.1358
8 15 2 0.4148 -0.0405
8 15 3 2.1934 0.0258
8 15 4 -1.1944 -0.0253
8 15 5 -2.4821 0.0719
8 15 6 -2.3028 0.0366
8 15 7 -0.3114 -0.0176
8 15 8 4.0699 -0.0165
8 15 9 2.5946 -0.0172
8 15 10 0.2806 0.0037
8 15 11 -0.3826 -0.0052
8 15 12 -3.0271 0.0162
8 15 13 -1.1673 0.0009
8 15 14 0.5289 -0.0117
8 15 15 -2.4711 0.0097
8 15 16 1.2733 -0.0283
8 15 17 1.6517 0.0019
8 15 18 1.0258 -0.0149
8 15 19 0.6855 -0.0201
8 15 20 0.8720 0.0050
8 15 21 0.8961 -0.0179
8 15 22 -3.1765 0.0415
8 15 23 0.0989 0.0202
8 15 24 -0.1532 0.0264
8 16 0 0.5164 -0.1332
8 16 1 -1.5686 -0.0343
8 16 2 -0.4551 0.0849
8 16 3 -1.2795 -0.0148
8 16 4 -0.4832 0.0220
8 16 5 1.9402 0.0438
8 16 6 4.5284 -0.0573
8 16 7 3.4857 -0.0252
8 16 8 -3.0339 -0.0083
8 16 9 -4.0956 0.0138
8 16 10 0.4745 0.0102
8 16 11 -1.7115 -0.0031
8 16 12 -0.3473 0.0130
8 16 13 2.8825 -0.0109
8 16 14 0.1475 0.0105
8 16 15 -0.2620 -0.0020
8 16 16 2.1054 -0.0277
8 16 17 -0.1330 0.0205
8 16 18 -0.8365 -0.0013
8 16 19 -0.7120 0.0229
8 16 20 -0.7314 0.0133
8 16 21 -1.7757 0.0122
8 16 22 -0.8111 0.0434
8 16 23 2.9818 -0.0504
8 17 0 -0.5869 -0.0128
8 17 1 0.4915 0.1045
8 17 2 2.7133 0.0082
8 17 3 1.9605 -0.0316
8 17 4 1.2306 0.0350
8 17 5 -0.8681 -0.0533
8 17 6 -2.2995 -0.0428
8 17 7 -5.3192 0.0383
8 17 8 -2.7916 0.0102
8 17 9 4.9283 0.0269
8 17 10 2.8956 -0.0140
8 17 11 -2.6158 -0.0029
8 17 12 1.7537 0.0037
8 17 13 0.1211 -0.0266
8 17 14 -1.7087 -0.0007
8 17 15 0.2078 -0.0099
8 17 16 0.0999 0.0083
8 17 17 0.0042 0.0274
8 17 18 0.1324 -0.0112
8 17 19 -0.3063 0.0140
8 17 20 -0.4885 -0.0176
8 17 21 0.0122 -0.0074
8 17 22 1.0762 -0.0098
8 17 23 1.3015 -0.0678
8 18 0 0.5744 0.0816
8 18 1 0.2383 -0.0007
8 18 2 -0.6147 -0.0774
8 18 3 -3.2972 -0.0030
8 18 4 -2.6788 -0.0049
8 18 5 -0.0745 -0.0306
8 18 6 2.0758 0.0570
8 18 7 1.2612 0.0245
8 18 8 3.6945 -0.0092
8 18 9 1.4089 -0.0003
8 18 10 -4.8442 -0.0396
8 18 11 -1.1612 0.0023
8 18 12 4.2498 -0.0036
8 18 13 -0.0675 0.0074
8 18 14 -0.6213 0.0201
8 18 15 -1.7358 0.0147
8 18 16 0.4085 0.0212
8 18 17 1.4057 -0.0056
8 18 18 -1.6482 -0.0049
8 18 19 -0.3864 -0.0102
8 18 20 0.8973 -0.0427
8 18 21 0.2316 0.0271
8 18 22 0.2655 0.0113
8 19 0 -2.5127 -0.0274
8 19 1 1.2300 -0.0743
8 19 2 -0.2147 0.0038
8 19 3 -0.5850 0.0258
8 19 4 2.8407 -0.0108
8 19 5 1.3112 0.0256
8 19 6 -0.3634 0.0267
8 19 7 -1.2948 -0.0345
8 19 8 0.3941 -0.0168
8 19 9 -1.8528 -0.0143
8 19 10 -0.8177 -0.0013
8 19 11 3.2606 0.0292
8 19 12 0.4523 0.0173
8 19 13 -4.0936 0.0070
8 19 14 -2.6141 -0.0065
8 19 15 0.7824 0.0157
8 19 16 4.8055 -0.0259
8 19 17 -0.3044 -0.0342
8 19 18 -1.5193 -0.0172
8 19 19 1.1934 -0.0269
8 19 20 -0.8268 0.0384
8 19 21 -0.9205 0.0490
8 20 0 -0.1610 -0.0313
8 20 1 1.4797 0.0146
8 20 2 -1.2006 0.0264
8 20 3 2.0972 -0.0206
8 20 4 -0.1158 0.0210
8 20 5 -1.1522 0.0175
8 20 6 1.5435 -0.0236
8 20 7 -1.0947 -0.0180
8 20 8 -0.2609 0.0131
8 20 9 -1.5067 0.0194
8 20 10 0.7702 0.0261
8 20 11 1.2716 0.0025
8 20 12 -0.9920 -0.0058
8 20 13 -0.4863 -0.0257
8 20 14 1.9408 -0.0080
8 20 15 2.8475 -0.0051
8 20 16 0.2759 -0.0448
8 20 17 -3.2725 0.0177
8 20 18 -0.9764 0.0172
8 20 19 -0.7873 0.0185
8 20 20 0.4139 0.0532
8 20 21 1.7598 -0.0133
8 21 0 0.6486 0.1215
8 21 1 2.2835 -0.0053
8 21 2 1.3238 -0.0279
8 21 3 0.2209 -0.0202
8 21 4 -3.5242 0.0353
8 21 5 0.0989 -0.0084
8 21 6 -0.9003 -0.0035
8 21 7 -1.3338 0.0159
8 21 8 2.0583 0.0047
8 21 9 0.3359 -0.0032
8 21 10 1.9280 -0.0216
8 21 11 -0.8530 -0.0412
8 21 12 -1.0753 -0.0116
8 21 13 -0.3301 -0.0203
8 21 14 -0.6707 0.0257
8 21 15 0.3224 0.0035
8 21 16 0.1466 0.0044
8 21 17 -1.5222 0.0631
8 21 18 -0.6489 -0.0023
8 21 19 1.8586 0.0092
8 21 20 2.0704 0.0227
8 22 0 1.0921 -0.0917
8 22 1 -0.5004 -0.0913
8 22 2 -1.6317 0.0014
8 22 3 -1.5739 0.0113
8 22 4 -1.6469 0.0547
8 22 5 2.4169 -0.0423
8 22 6 2.0463 -0.0118
8 22 7 0.6131 -0.0047
8 22 8 -0.1368 -0.0274
8 22 9 -0.1818 -0.0051
8 22 10 -0.8055 -0.0054
8 22 11 -1.8231 0.0191
8 22 12 1.3083 0.0482
8 22 13 -0.0013 0.0227
8 22 14 1.0866 0.0426
8 22 15 2.0360 -0.0166
8 22 16 -1.0232 0.0282
8 22 17 -2.4309 0.0059
8 22 18 0.8456 -0.0831
8 22 19 1.9809 -0.0155
8 23 0 -0.8387 -0.1211
8 23 1 -0.1492 0.1327
8 23 2 1.2273 -0.0083
8 23 3 -0.3319 0.0243
8 23 4 -0.5159 0.0075
8 23 5 2.3897 -0.0548
8 23 6 -1.0403 0.0470
8 23 7 -1.6320 0.0030
8 23 8 1.8032 0.0037
8 23 9 -0.9577 0.0338
8 23 10 -2.2676 0.0086
8 23 11 0.9464 0.0171
8 23 12 1.2602 -0.0089
8 23 13 0.6002 -0.0361
8 23 14 0.1870 -0.0181
8 23 15 -2.0097 -0.0399
8 23 16 -1.6502 -0.0017
8 23 17 -0.1225 -0.0641
8 24 0 -0.5655 0.2033
8 24 1 0.5037 0.0525
8 24 2 -0.6804 -0.0683
8 24 3 -1.3463 0.0438
8 24 4 0.2026 -0.0466
8 24 5 1.7645 0.0050
8 24 6 -0.4830 0.0309
8 24 7 -0.1142 -0.0279
8 24 8 0.0836 -0.0022
8 24 9 -2.1966 -0.0070
8 24 10 0.7073 -0.0187
8 24 11 2.1054 -0.0026
8 24 12 1.6783 -0.0185
8 24 13 -0.3907 -0.0083
8 24 14 -3.3473 0.0108
8 24 15 0.5947 0.0049
8 25 2 0.1450 -0.0281
8 25 3 0.6077 -0.0181
8 25 4 0.6578 -0.0223
8 25 5 0.9410 0.0399
8 25 6 -2.1219 -0.0084
8 25 7 0.1110 -0.0161
8 25 8 1.9056 -0.0073
8 25 9 -1.8408 0.0124
8 25 10 0.0771 -0.0078
8 25 11 1.7156 0.0044
8 25 12 -0.5458 -0.0092
9 -19 0 -0.3408 0.0592
9 -19 1 -0.3693 0.0091
9 -19 2 1.1757 0.1380
9 -19 3 0.2858 0.0797
9 -18 0 -0.1915 -0.0714
9 -18 1 0.0426 -0.1127
9 -18 2 -1.2482 -0.0140
9 -18 3 -0.7465 -0.0867
9 -18 4 0.9342 0.0002
9 -18 5 1.9415 0.2424
9 -17 0 -0.0413 -0.0513
9 -17 1 -0.9877 0.0847
9 -17 2 -0.2724 0.0824
9 -17 3 1.7349 -0.0003
9 -17 4 0.3317 0.0041
9 -17 5 -1.1608 -0.0640
9 -17 6 -2.5971 -0.1256
9 -17 7 -0.7092 -0.0168
9 -17 8 0.7998 0.1688
9 -16 0 -2.0017 0.0132
9 -16 1 0.8579 0.0166
9 -16 2 -0.6073 -0.0337
9 -16 3 -0.3648 -0.0032
9 -16 4 -0.3555 0.0102
9 -16 5 0.8266 0.0286
9 -16 6 0.2453 0.0458
9 -16 7 1.8992 -0.0325
9 -16 8 0.3849 -0.0757
9 -16 9 -0.5659 0.0237
9 -16 10 0.5534 0.1673
9 -15 0 1.2412 0.0007
9 -15 1 -2.0258 -0.0248
9 -15 2 -2.0283 -0.0173
9 -15 3 3.3254 0.0076
9 -15 4 1.1672 -0.0324
9 -15 5 -0.5819 -0.0336
9 -15 6 -2.1679 -0.0148
9 -15 7 0.7775 0.0278
9 -15 8 -0.3370 0.0818
9 -15 9 -0.9629 -0.0019
9 -15 10 -0.3223 -0.0997
9 -15 11 0.4493 -0.0471
9 -14 0 -0.2900 -0.0643
9 -14 1 -0.1524 0.0256
9 -14 2 3.2481 0.0417
9 -14 3 0.1005 0.0342
9 -14 4 -2.5203 -0.0115
9 -14 5 0.1786 0.0051
9 -14 6 0.0741 0.0074
9 -14 7 2.3291 -0.0102
9 -14 8 -1.3682 -0.0286
9 -14 9 -0.6371 -0.0040
9 -14 10 1.0896 0.0745
9 -14 11 0.2833 0.0004
9 -14 12 -0.6360 -0.0727
9 -14 13 -0.9216 -0.0311
9 -13 0 0.3433 0.1166
9 -13 1 -1.3030 0.0225
9 -13 2 -2.2104 -0.0297
9 -13 3 0.1777 -0.0382
9 -13 4 2.7485 -0.0409
9 -13 5 -0.1448 0.0095
9 -13 6 -2.0156 0.0190
9 -13 7 0.0915 0.0266
9 -13 8 -1.2608 0.0218
9 -13 9 0.9551 -0.0153
9 -13 10 0.1936 -0.0465
9 -13 11 0.2018 0.0046
9 -13 12 0.9434 0.0583
9 -13 13 -0.3514 -0.0393
9 -13 14 -0.1944 -0.0144
9 -12 0 0.1810 -0.0071
9 -12 1 0.0121 -0.0794
9 -12 2 1.9462 -0.0142
9 -12 3 0.9507 -0.0166
9 -12 4 -2.2937 0.0386
9 -12 5 -1.0585 0.0334
9 -12 6 0.7001 -0.0234
9 -12 7 1.8493 -0.0153
9 -12 8 -0.3776 0.0155
9 -12 9 -0.2536 -0.0082
9 -12 10 0.6702 -0.0106
9 -12 11 0.4360 0.0038
9 -12 12 -1.2345 -0.0395
9 -12 13 -0.7867 -0.0072
9 -12 14 1.1326 0.0468
9 -12 15 -0.7592 -0.0173
9 -11 0 0.2605 -0.1830
9 -11 1 -1.7134 0.0174
9 -11 2 -0.6967 0.0148
9 -11 3 0.1949 0.0357
9 -11 4 2.5245 0.0457
9 -11 5 1.0191 -0.0403
9 -11 6 -2.1342 -0.0182
9 -11 7 -0.0617 0.0126
9 -11 8 -1.3244 0.0033
9 -11 9 1.3007 -0.0377
9 -11 10 1.2936 0.0122
9 -11 11 -0.9828 0.0575
9 -11 12 0.2250 0.0195
9 -11 13 0.0621 -0.0450
9 -11 14 -1.3084 -0.0208
9 -11 15 -1.3743 0.0744
9 -11 16 3.0043 0.0191
9 -10 0 2.0076 0.0915
9 -10 1 1.6867 0.1356
9 -10 2 2.9619 -0.0157
9 -10 3 -1.2367 0.0236
9 -10 4 -1.6045 -0.0540
9 -10 5 -1.6759 -0.0299
9 -10 6 0.3825 0.0185
9 -10 7 1.2231 0.0033
9 -10 8 -0.7977 0.0311
9 -10 9 1.7635 0.0086
9 -10 10 -0.4943 -0.0039
9 -10 11 -1.7190 -0.0333
9 -10 12 -1.4935 -0.0183
9 -10 13 -0.5422 0.0043
9 -10 14 2.4072 0.0162
9 -10 15 1.6258 -0.0128
9 -10 16 0.6599 -0.0021
9 -10 17 -2.6844 0.0282
9 -9 0 2.6472 0.2060
9 -9 1 -0.4326 -0.0828
9 -9 2 -3.4186 -0.0444
9 -9 3 -1.6479 -0.0110
9 -9 4 2.9681 -0.0551
9 -9 5 0.1767 0.0468
9 -9 6 -1.1618 0.0167
9 -9 7 -0.8804 0.0005
9 -9 8 0.6994 0.0027
9 -9 9 1.8808 -0.0151
9 -9 10 -1.3980 -0.0004
9 -9 11 -0.8924 0.0101
9 -9 12 2.1450 0.0136
9 -9 13 2.9293 -0.0446
9 -9 14 -0.8002 -0.0041
9 -9 15 -3.4015 0.0635
9 -9 16 0.6967 0.0185
9 -9 17 0.9016 -0.0601
9 -9 18 0.1516 -0.0088
9 -8 0 1.9439 -0.1083
9 -8 1 -2.1036 -0.1498
9 -8 2 -0.0030 0.0522
9 -8 3 0.3956 -0.0330
9 -8 4 -1.2351 0.0307
9 -8 5 -0.0448 0.0630
9 -8 6 1.7148 -0.0209
9 -8 7 0.7975 -0.0120
9 -8 8 0.8314 -0.0060
9 -8 9 0.0539 0.0001
9 -8 10 -1.5086 -0.0287
9 -8 11 -0.0608 -0.0093
9 -8 12 -0.3564 0.0172
9 -8 13 -2.2717 0.0000
9 -8 15 1.4763 -0.0045
9 -8 16 1.3727 0.0103
9 -8 17 -2.1351 0.0231
9 -8 18 -0.7005 -0.0331
9 -7 0 -1.6940 -0.1863
9 -7 1 -3.2717 0.1217
9 -7 2 0.5279 0.0660
9 -7 3 0.4275 -0.0124
9 -7 4 3.1080 0.0448
9 -7 5 2.0700 -0.0482
9 -7 6 -2.6915 -0.0255
9 -7 7 -2.4043 0.0003
9 -7 8 0.0431 0.0058
9 -7 9 -0.1303 0.0206
9 -7 10 -0.5892 0.0025
9 -7 18 1.7275 -0.0248
9 -7 19 -1.3086 -0.0050
9 -6 0 0.7100 0.1202
9 -6 1 1.8927 0.1055
9 -6 2 3.3398 -0.0755
9 -6 3 -1.7459 0.0051
9 -6 4 -2.0723 -0.0485
9 -6 5 -1.7295 -0.0293
9 -6 6 -0.6224 0.0541
9 -6 7 1.8245 -0.0008
9 -6 8 2.9502 0.0161
9 -6 9 -0.0727 -0.0038
9 -6 20 1.3923 0.0428
9 -5 0 -3.6157 0.0922
9 -5 1 -2.9504 -0.1016
9 -5 2 -0.0667 -0.0377
9 -5 3 -0.6375 0.0064
9 -5 4 2.5661 -0.0396
9 -5 5 2.5306 0.0721
9 -5 6 -0.9592 0.0218
9 -5 7 -0.4150 -0.0079
9 -5 8 -1.3447 0.0023
9 -4 0 -2.9399 -0.1105
9 -4 1 6.6710 -0.0516
9 -4 2 5.7572 0.0626
9 -4 3 -3.6994 -0.0014
9 -4 4 -2.5462 0.0347
9 -4 5 -1.4426 0.0317
9 -4 6 -1.4244 -0.0366
9 -4 7 3.5626 -0.0027
9 -4 8 0.9152 -0.0391
9 -4 21 1.4078 0.0193
9 -3 0 -0.1922 -0.0041
9 -3 1 2.6019 0.0861
9 -3 2 -4.1348 0.0074
9 -3 3 -3.5882 -0.0092
9 -3 4 4.0428 0.0217
9 -3 5 1.7175 -0.0453
9 -3 6 1.8803 -0.0144
9 -3 7 1.3530 0.0022
9 -3 8 -7.0476 -0.0077
9 -2 0 4.6678 0.1104
9 -2 1 4.6062 -0.0242
9 -2 2 0.0101 -0.0503
9 -2 3 -1.6980 0.0082
9 -2 4 -1.3778 -0.0235
9 -2 5 -1.6130 -0.0245
9 -2 6 1.1702 0.0301
9 -2 7 -1.8137 0.0165
9 -2 8 -1.9197 0.0134
9 -2 22 -1.0755 0.0270
9 -1 0 0.6627 -0.0807
9 -1 1 -3.2858 -0.0826
9 -1 2 -4.6912 0.0228
9 -1 3 -1.0325 0.0281
9 -1 4 3.8728 -0.0003
9 -1 5 2.2292 0.0227
9 -1 6 0.5968 0.0179
9 -1 7 -1.0812 -0.0029
9 -1 8 0.3429 -0.0156
9 -1 22 -0.7970 -0.0273
9 0 0 4.2432 -0.0709
9 0 1 2.1804 0.0737
9 0 2 2.0512 0.0579
9 0 3 1.1335 -0.0096
9 0 4 0.0956 -0.0134
9 0 5 -2.0578 0.0045
9 0 6 0.1523 -0.0141
9 0 7 1.1552 -0.0081
9 0 8 -2.0157 -0.0106
9 0 22 -0.4852 -0.0452
9 0 23 -0.3255 0.0578
9 1 0 0.1331 0.1314
9 1 1 -2.8324 0.0558
9 1 2 -3.5127 -0.0381
9 1 3 -1.6398 -0.0447
9 1 4 2.6973 -0.0056
9 1 5 -1.0461 0.0027
9 1 6 -0.1746 -0.0072
9 1 7 -1.0143 0.0059
9 1 8 -3.2152 -0.0061
9 1 9 5.2457 0.0128
9 1 21 1.1096 -0.0367
9 1 22 2.3608 0.0240
9 1 23 0.7257 -0.0683
9 2 0 0.5854 0.0143
9 2 1 0.2715 -0.1039
9 2 2 -1.6807 -0.0385
9 2 3 3.4707 -0.0085
9 2 4 0.9830 0.0335
9 2 5 -4.2572 0.0247
9 2 6 3.3913 -0.0031
9 2 7 1.9528 -0.0020
9 2 8 -0.0976 0.0026
9 2 9 1.2086 0.0123
9 2 21 -0.0261 0.0023
9 2 22 -1.6597 -0.0411
9 2 23 -1.0136 0.0243
9 3 0 -0.8013 -0.1917
9 3 1 -3.9985 0.0179
9 3 2 -0.3400 0.0516
9 3 3 3.2658 0.0289
9 3 4 -1.6496 0.0436
9 3 5 -0.2854 -0.0265
9 3 6 2.6879 -0.0246
9 3 7 -4.0616 0.0047
9 3 8 -1.7110 0.0014
9 3 9 2.6115 -0.0033
9 3 10 0.8663 -0.0053
9 3 11 1.0974 0.0093
9 3 20 -4.2394 0.0110
9 3 21 -2.0453 0.0022
9 3 22 1.8598 0.0022
9 3 23 2.1034 0.1195
9 3 24 0.7542 -0.0257
9 4 0 -1.0181 0.0579
9 4 1 2.7232 0.1457
9 4 2 0.7407 -0.0158
9 4 3 -0.1335 0.0113
9 4 4 -0.7117 -0.0430
9 4 5 0.7639 -0.0550
9 4 6 0.2304 0.0200
9 4 7 -0.1788 0.0108
9 4 8 2.8629 0.0032
9 4 9 -0.8546 0.0004
9 4 10 -4.5456 0.0080
9 4 11 0.9648 -0.0015
9 4 12 2.4554 -0.0191
9 4 13 -0.1243 -0.0047
9 4 18 2.1447 0.0094
9 4 19 -1.3014 -0.0030
9 4 20 1.4845 -0.0062
9 4 21 2.9971 0.0013
9 4 22 -0.7192 0.0273
9 4 23 -1.7395 0.0012
9 4 24 -1.6879 -0.1283
9 5 0 4.6208 0.2089
9 5 1 -3.3037 -0.0908
9 5 2 -3.3642 -0.0612
9 5 3 3.9819 -0.0159
9 5 4 2.1574 -0.0630
9 5 5 -1.7788 0.0542
9 5 6 -2.2516 0.0434
9 5 7 -0.9224 -0.0023
9 5 8 0.2008 -0.0072
9 5 9 -0.0150 -0.0107
9 5 10 0.6202 0.0041
9 5 11 2.1955 -0.0228
9 5 12 -2.1879 0.0050
9 5 13 -0.9058 0.0278
9 5 14 1.6455 0.0247
9 5 15 0.1802 0.0112
9 5 16 0.2185 -0.0157
9 5 17 0.6888 -0.0057
9 5 18 -1.9471 -0.0163
9 5 19 0.9439 -0.0194
9 5 20 -0.2278 0.0052
9 5 21 -3.8778 0.0019
9 5 22 -0.0983 0.0048
9 5 23 1.4647 -0.0382
9 5 24 1.7423 -0.0144
9 6 0 -4.1019 -0.1381
9 6 1 -1.7953 -0.1344
9 6 2 4.1797 0.0701
9 6 3 2.5552 -0.0240
9 6 4 -3.4015 0.0542
9 6 5 -2.2880 0.0706
9 6 6 0.7999 -0.0384
9 6 7 2.3381 -0.0137
9 6 8 1.9687 -0.0177
9 6 9 -2.9419 0.0065
9 6 10 -3.0935 0.0031
9 6 11 3.6198 -0.0007
9 6 12 2.0739 0.0256
9 6 13 2.2781 -0.0029
9 6 14 -1.7974 -0.0028
9 6 15 -3.9060 -0.0306
9 6 16 0.1773 -0.0127
9 6 17 0.2481 -0.0074
9 6 18 -0.9273 -0.0102
9 6 19 1.9909 0.0200
9 6 20 0.7078 -0.0019
9 6 21 1.7106 0.0028
9 6 22 0.9357 0.0125
9 6 23 -1.4278 -0.0172
9 6 24 0.1281 0.0216
9 7 0 3.2205 -0.1745
9 7 1 1.7572 0.1246
9 7 2 0.5106 0.0466
9 7 3 -0.7202 -0.0057
9 7 4 -1.5975 0.0591
9 7 5 -2.5230 -0.0722
9 7 6 -1.0171 -0.0441
9 7 7 2.4174 0.0065
9 7 8 -0.0399 -0.0031
9 7 9 -1.5463 0.0219
9 7 10 5.2328 -0.0054
9 7 11 3.0507 0.0170
9 7 12 -6.1805 -0.0036
9 7 13 -3.2837 -0.0107
9 7 14 -2.9746 -0.0117
9 7 15 2.5486 -0.0316
9 7 16 4.5358 0.0142
9 7 17 0.0468 0.0017
9 7 18 0.3383 0.0289
9 7 19 1.7919 0.0056
9 7 20 -3.1414 0.0043
9 7 21 -3.3111 0.0333
9 7 22 -0.3699 -0.0098
9 7 23 1.6482 -0.0222
9 7 24 1.0902 0.0031
9 8 0 -1.3136 0.1393
9 8 1 -1.0497 0.1134
9 8 2 0.6878 -0.0770
9 8 3 -2.1077 0.0090
9 8 4 -2.9949 -0.0413
9 8 5 1.6069 -0.0517
9 8 6 7.1964 0.0539
9 8 7 2.7837 0.0255
9 8 8 -3.4255 0.0178
9 8 9 -0.9378 -0.0062
9 8 10 -0.5869 -0.0102
9 8 11 -4.5747 0.0007
9 8 12 -0.9090 -0.0275
9 8 13 5.4532 0.0066
9 8 14 2.5757 -0.0068
9 8 15 -0.0150 0.0212
9 8 16 -3.0489 0.0300
9 8 17 0.5204 0.0053
9 8 18 -0.1906 0.0232
9 8 19 -1.8793 -0.0120
9 8 20 -0.6168 0.0075
9 8 21 3.1920 -0.0327
9 8 22 2.2317 -0.0262
9 8 23 -1.4021 -0.0154
9 8 24 -0.9192 0.0045
9 9 0 3.6783 0.1186
9 9 1 0.8418 -0.1219
9 9 2 0.2137 -0.0446
9 9 3 -1.1471 0.0222
9 9 4 1.8982 -0.0341
9 9 5 2.5378 0.0522
9 9 6 -1.8385 0.0373
9 9 7 -5.3455 -0.0182
9 9 8 -1.2611 -0.0163
9 9 9 1.4173 -0.0221
9 9 10 0.6900 0.0063
9 9 11 0.9090 -0.0028
9 9 12 0.8717 0.0149
9 9 13 0.4893 0.0171
9 9 14 -3.5856 -0.0104
9 9 15 -1.4622 0.0129
9 9 16 5.1447 -0.0137
9 9 17 2.2652 -0.0006
9 9 18 -4.5099 -0.0108
9 9 19 1.2017 -0.0262
9 9 20 -1.2657 -0.0172
9 9 21 -1.3112 -0.0234
9 9 22 0.8250 0.0113
9 9 23 -0.4334 -0.0202
9 9 24 1.1239 0.0631
9 10 0 -2.7862 -0.0977
9 10 1 -0.9014 -0.0627
9 10 2 0.3652 0.0768
9 10 3 -2.6994 -0.0032
9 10 4 -0.3234 0.0243
9 10 6 0.2830 -0.0464
9 10 7 0.5202 -0.0301
9 10 8 1.0247 -0.0115
9 10 9 1.0715 0.0057
9 10 10 -0.1673 0.0172
9 10 11 -1.7680 0.0072
9 10 12 1.3128 0.0091
9 10 13 3.3222 -0.0157
9 10 14 -1.0950 -0.0041
9 10 15 0.7774 -0.0040
9 10 16 -0.6060 -0.0061
9 10 17 -5.1084 0.0102
9 10 18 0.2001 -0.0132
9 10 19 2.1097 -0.0047
9 10 20 -2.2068 -0.0044
9 10 21 6.1583 0.0327
9 10 22 1.6196 0.0195
9 10 23 -4.4251 0.0303
9 10 24 0.2310 0.0765
9 11 0 2.3469 -0.0316
9 11 1 1.9716 0.0925
9 11 2 -1.8144 0.0189
9 11 3 -1.1753 -0.0401
9 11 4 2.8364 0.0240
9 11 5 -0.0001 -0.0471
9 11 6 -0.8111 -0.0357
9 11 7 0.5714 0.0276
9 11 8 2.1680 0.0298
9 11 9 0.0564 0.0292
9 11 10 -2.7442 -0.0038
9 11 11 0.1105 -0.0099
9 11 12 2.0128 -0.0092
9 11 13 -2.3882 -0.0117
9 11 14 -3.9365 -0.0017
9 11 15 1.2899 -0.0041
9 11 16 1.0857 0.0234
9 11 17 0.8602 0.0070
9 11 18 1.7105 -0.0120
9 11 19 -0.4682 -0.0076
9 11 20 0.6072 0.0172
9 11 21 1.7198 0.0286
9 11 22 -5.8677 -0.0211
9 11 23 -1.4583 0.0273
9 11 24 3.7733 -0.0543
9 12 0 -0.2545 0.1022
9 12 1 -1.5907 0.0130
9 12 2 -0.9377 -0.0663
9 12 3 1.0245 0.0135
9 12 4 -0.3545 -0.0029
9 12 5 -0.3355 -0.0349
9 12 6 3.4705 0.0431
9 12 7 0.7040 0.0313
9 12 8 -3.6554 0.0020
9 12 9 -3.0709 -0.0215
9 12 10 -0.1813 -0.0252
9 12 11 1.9127 0.0027
9 12 12 0.7285 -0.0061
9 12 13 0.5451 0.0104
9 12 14 1.6667 0.0107
9 12 15 1.1673 0.0060
9 12 16 -1.4741 0.0144
9 12 17 -0.5052 -0.0241
9 12 18 1.0366 -0.0141
9 12 19 -0.1198 0.0009
9 12 20 -1.4287 0.0289
9 12 21 -0.3341 0.0080
9 12 22 -0.7097 -0.0157
9 12 23 2.4796 -0.0291
9 12 24 1.8747 -0.0842
9 13 0 0.3790 -0.0465
9 13 1 -0.1398 -0.0748
9 13 2 1.2453 0.0133
9 13 3 -0.1443 0.0168
9 13 4 0.8946 -0.0254
9 13 5 2.3298 0.0348
9 13 6 -1.1618 0.0343
9 13 7 -4.7486 -0.0188
9 13 8 -0.5722 -0.0194
9 13 9 3.0641 -0.0249
9 13 10 1.0040 -0.0003
9 13 11 1.6127 0.0103
9 13 12 0.5911 0.0077
9 13 13 -1.1471 0.0148
9 13 14 -2.0764 -0.0194
9 13 15 -0.7390 -0.0062
9 13 16 0.1052 -0.0102
9 13 17 0.1800 -0.0131
9 13 18 0.1757 0.0270
9 13 19 -0.8167 -0.0021
9 13 20 -0.1999 0.0113
9 13 21 1.9502 -0.0178
9 13 22 -0.3572 -0.0346
9 13 23 -0.0308 -0.0133
9 14 0 2.1342 -0.0588
9 14 1 0.9258 0.0616
9 14 2 -0.2971 0.0484
9 14 3 -1.3091 -0.0185
9 14 4 -0.0588 -0.0100
9 14 5 -2.2577 0.0115
9 14 6 -0.5951 -0.0307
9 14 7 1.4415 -0.0205
9 14 8 1.4511 -0.0035
9 14 9 0.0495 0.0046
9 14 10 -0.5961 0.0338
9 14 11 0.6905 0.0116
9 14 12 -2.1013 -0.0129
9 14 13 -0.2696 -0.0175
9 14 14 1.1723 -0.0019
9 14 15 0.5824 0.0243
9 14 16 -0.6372 -0.0004
9 14 17 0.5627 0.0273
9 14 18 1.8565 0.0077
9 14 19 -0.6998 -0.0225
9 14 20 -0.8295 0.0245
9 14 21 0.1374 -0.0224
9 14 22 -1.2025 -0.0084
9 14 23 0.8145 0.0136
9 15 0 -1.1307 0.1249
9 15 1 -3.3418 0.0336
9 15 2 -0.9226 -0.0415
9 15 3 0.6810 -0.0440
9 15 4 0.2617 0.0071
9 15 5 1.5014 0.0204
9 15 6 1.7713 -0.0083
9 15 7 -3.0972 0.0244
9 15 8 -0.6789 0.0118
9 15 9 1.7490 0.0136
9 15 10 0.5357 0.0017
9 15 11 0.2285 -0.0279
9 15 12 -0.3680 -0.0041
9 15 13 1.9494 0.0143
9 15 14 -1.8309 0.0198
9 15 15 -2.2265 -0.0092
9 15 16 -0.0463 -0.0177
9 15 17 0.9593 0.0145
9 15 18 0.5199 -0.0288
9 15 19 -0.9564 -0.0233
9 15 20 0.7762 -0.0284
9 15 21 0.6298 -0.0284
9 15 22 -0.3852 0.0491
9 16 0 -2.4748 -0.0146
9 16 1 1.2583 -0.1047
9 16 2 2.4544 -0.0114
9 16 3 -1.5010 0.0011
9 16 4 -0.7669 0.0384
9 16 5 0.6620 -0.0087
9 16 6 -0.9876 0.0006
9 16 7 1.3407 0.0238
9 16 8 3.8853 -0.0215
9 16 9 -0.7982 -0.0066
9 16 10 -2.2919 -0.0236
9 16 11 -1.3883 -0.0066
9 16 12 -0.4636 0.0058
9 16 13 0.4257 -0.0014
9 16 14 -2.0423 0.0084
9 16 15 1.5730 -0.0107
9 16 16 1.7907 0.0045
9 16 17 2.0724 -0.0102
9 16 18 1.2282 -0.0264
9 16 19 -1.9789 0.0154
9 16 20 -1.1433 0.0296
9 16 21 -1.9254 0.0852
9 16 22 -0.0940 0.0412
9 17 0 -1.5233 -0.1540
9 17 1 1.7396 0.0349
9 17 2 -0.4501 0.0425
9 17 3 -0.3907 0.0306
9 17 4 3.2256 0.0234
9 17 5 1.1867 -0.0362
9 17 6 -0.6168 0.0133
9 17 7 -1.3661 -0.0185
9 17 8 -3.7030 -0.0196
9 17 9 -1.7507 0.0053
9 17 10 0.9789 -0.0040
9 17 11 1.3550 0.0330
9 17 12 2.1299 0.0134
9 17 13 0.1449 0.0060
9 17 14 -1.3755 -0.0097
9 17 15 1.0092 -0.0230
9 17 16 0.7293 -0.0033
9 17 17 0.9089 -0.0012
9 17 18 -3.2258 0.0428
9 17 19 -2.7142 0.0241
9 17 20 0.6562 -0.0057
9 17 21 0.4811 -0.0041
9 17 22 3.4026 -0.0862
9 18 0 1.2648 0.0711
9 18 1 2.9316 0.0747
9 18 2 -1.2707 -0.0194
9 18 3 -0.9373 0.0058
9 18 4 -0.9794 -0.0515
9 18 5 -2.8297 -0.0239
9 18 6 -0.7183 0.0288
9 18 7 0.4456 -0.0079
9 18 8 2.0315 0.0167
9 18 9 2.9204 -0.0039
9 18 10 -0.8858 0.0092
9 18 11 0.0555 0.0043
9 18 12 0.4853 -0.0381
9 18 13 -0.9166 -0.0149
9 18 14 -0.0630 0.0046
9 18 15 0.6903 0.0293
9 18 16 0.0132 0.0173
9 18 17 -1.6463 0.0112
9 18 18 -1.9255 0.0191
9 18 19 1.9368 -0.0495
9 18 20 1.6422 -0.0340
9 18 21 1.2355 -0.0040
9 19 0 0.1817 0.1276
9 19 1 -0.4811 -0.0993
9 19 2 -1.7948 -0.0294
9 19 3 1.1500 -0.0051
9 19 4 1.1229 -0.0247
9 19 5 0.8496 0.0372
9 19 6 0.9788 0.0161
9 19 7 0.0087 0.0008
9 19 8 0.2743 0.0054
9 19 9 -1.2774 -0.0091
9 19 10 -1.1418 0.0147
9 19 11 2.6867 -0.0225
9 19 12 -0.5689 0.0110
9 19 13 -1.8315 0.0328
9 19 14 -2.1564 0.0138
9 19 15 -0.0264 0.0055
9 19 16 2.0932 -0.0306
9 19 17 0.2830 -0.0130
9 19 18 0.3380 -0.0286
9 19 19 0.6406 -0.0600
9 19 20 -0.3366 0.0428
9 20 0 3.1110 -0.1450
9 20 1 1.0383 -0.1104
9 20 2 -0.4859 0.0556
9 20 3 0.7228 -0.0036
9 20 4 -1.5467 0.0479
9 20 5 -1.0695 0.0365
9 20 6 1.2670 -0.0144
9 20 7 0.5224 -0.0077
9 20 8 -1.1016 -0.0252
9 20 9 -0.4668 -0.0056
9 20 10 0.8822 -0.0048
9 20 11 -0.4518 -0.0073
9 20 12 -2.4106 0.0353
9 20 13 0.4494 -0.0231
9 20 14 1.2480 -0.0037
9 20 15 4.4424 -0.0177
9 20 16 -0.0228 -0.0445
9 20 17 -3.6838 0.0080
9 20 18 -0.3867 0.0021
9 20 19 0.4460 0.0475
9 21 0 1.2359 -0.1389
9 21 1 -2.6900 0.1452
9 21 2 1.0849 0.0440
9 21 3 0.9680 0.0135
9 21 4 -2.3078 0.0518
9 21 5 2.1854 -0.0639
9 21 6 0.3062 -0.0306
9 21 7 -2.7836 0.0056
9 21 8 0.8367 0.0010
9 21 9 1.9731 0.0217
9 21 10 -1.6628 -0.0028
9 21 11 -0.3384 0.0095
9 21 12 1.9161 -0.0078
9 21 13 0.8393 -0.0333
9 21 14 -0.1589 0.0199
9 21 15 -0.0834 -0.0305
9 21 16 -4.0275 0.0242
9 21 17 0.2347 0.0628
9 21 18 1.7318 0.0102
9 22 0 1.6754 0.1936
9 22 1 -0.6415 0.1151
9 22 2 2.1712 -0.1246
9 22 3 -3.5342 0.0256
9 22 4 -1.0951 -0.0373
9 22 5 2.2347 -0.0732
9 22 6 -1.1717 0.0262
9 22 7 1.5992 0.0088
9 22 8 1.1903 -0.0162
9 22 9 -2.3638 -0.0058
9 22 10 -1.4360 -0.0059
9 22 11 2.9721 0.0135
9 22 12 0.2178 -0.0013
9 22 13 -1.8967 0.0184
9 22 14 -0.3416 0.0290
9 22 15 0.0379 -0.0065
9 22 16 -0.0502 0.0465
9 22 17 1.8730 -0.0143
9 23 0 -1.4232 0.0822
9 23 1 -1.6357 -0.1256
9 23 2 1.0268 -0.0925
9 23 3 -1.7700 0.0374
9 23 4 1.8086 -0.0447
9 23 5 1.8179 0.0289
9 23 6 -0.2563 0.0600
9 23 7 -0.7974 0.0117
9 23 8 -0.4875 0.0005
9 23 9 0.1327 0.0394
9 23 10 -0.2574 0.0135
9 23 11 1.8520 -0.0023
9 23 12 -1.1456 -0.0125
9 23 13 -0.7209 0.0022
9 23 14 0.7037 -0.0123
9 23 15 0.4796 -0.0244
9 24 2 1.3217 -0.0441
9 24 3 -2.1307 0.0535
9 24 4 1.8869 0.0297
9 24 5 0.4698 0.0408
9 24 6 -2.4524 -0.0019
9 24 7 0.7295 -0.0367
9 24 8 0.7895 -0.0214
9 24 9 -2.9497 0.0012
9 24 10 0.7620 -0.0478
9 24 11 2.8040 -0.0052
9 24 12 -2.0072 -0.0025
10 -17 0 0.9114 -0.1445
10 -17 1 -0.8074 0.0137
10 -17 2 -1.3434 0.0319
10 -17 3 1.3900 0.0684
10 -16 0 -2.2159 0.0201
10 -16 1 -1.6350 0.0925
10 -16 2 0.6956 -0.0398
10 -16 3 2.1510 -0.0208
10 -16 4 -0.3798 -0.0466
10 -16 5 -1.7402 -0.1069
10 -16 6 -0.5947 0.0809
10 -15 0 0.7052 0.1517
10 -15 1 1.2303 -0.0245
10 -15 2 -0.5617 -0.0151
10 -15 3 0.0435 0.0263
10 -15 4 -0.3527 -0.0083
10 -15 5 -0.1353 -0.0219
10 -15 6 0.6989 -0.0218
10 -15 7 0.8457 -0.0497
10 -15 8 -0.5368 -0.0050
10 -14 0 0.1046 -0.0651
10 -14 1 -2.0202 -0.1295
10 -14 2 1.1575 0.0112
10 -14 3 2.7018 -0.0215
10 -14 4 -0.3208 0.0228
10 -14 5 -1.3973 0.0155
10 -14 6 0.3674 0.0415
10 -14 7 0.5537 0.0834
10 -14 8 -1.8049 -0.0408
10 -14 9 -0.4779 -0.1008
10 -14 10 1.4241 -0.0178
10 -13 0 -0.3666 -0.1568
10 -13 1 1.7645 0.0753
10 -13 2 0.1870 0.0557
10 -13 3 -2.6439 0.0008
10 -13 4 -0.4940 0.0456
10 -13 5 0.2527 -0.0707
10 -13 6 1.2020 -0.0285
10 -13 7 -1.3260 0.0168
10 -13 8 -1.5083 -0.0096
10 -13 9 2.5902 0.0476
10 -13 10 0.8645 -0.0186
10 -13 11 -1.4563 -0.0479
10 -13 12 -0.8086 -0.0169
10 -12 0 0.9576 0.0615
10 -12 1 -0.0014 0.0970
10 -12 2 -2.7032 -0.0520
10 -12 3 3.3440 0.0214
10 -12 4 1.5993 0.0040
10 -12 5 -2.1544 -0.0501
10 -12 6 0.3162 0.0310
10 -12 7 -1.0855 0.0174
10 -12 8 1.3798 -0.0167
10 -12 9 1.9044 -0.0445
10 -12 10 -1.2645 0.0099
10 -12 11 -0.1747 0.1180
10 -12 12 0.1733 -0.0508
10 -12 13 -0.0230 -0.0939
10 -11 0 0.4900 0.1279
10 -11 1 -1.3314 -0.0693
10 -11 2 -0.1832 -0.0386
10 -11 3 1.0274 -0.0011
10 -11 4 -2.4027 -0.0412
10 -11 5 0.6951 -0.0091
10 -11 6 1.0287 0.0173
10 -11 7 -1.4975 0.0519
10 -11 8 0.8939 0.0228
10 -11 9 0.2929 -0.0458
10 -11 10 -0.9227 -0.0095
10 -11 11 -0.4660 -0.0079
10 -11 12 -0.5619 -0.0127
10 -11 13 0.8440 0.0428
10 -11 14 -0.0795 -0.0104
10 -10 0 1.5188 -0.0572
10 -10 1 -0.4084 -0.0385
10 -10 2 0.2722 0.0406
10 -10 3 1.5919 -0.0101
10 -10 4 -0.1265 0.0401
10 -10 5 -0.6496 0.0318
10 -10 6 -0.5333 -0.0134
10 -10 7 0.0298 0.0020
10 -10 8 1.6870 -0.0414
10 -10 9 0.7061 -0.0126
10 -10 10 -0.8618 0.0383
10 -10 11 -0.2691 0.0389
10 -10 12 -0.9600 -0.0283
10 -10 13 0.1914 -0.0774
10 -10 14 -0.1689 0.0513
10 -10 15 0.9600 0.0677
10 -9 0 -0.5931 -0.0072
10 -9 1 -1.1649 0.0502
10 -9 2 -1.0225 -0.0072
10 -9 3 -1.0537 -0.0215
10 -9 4 -0.5485 0.0311
10 -9 5 1.6805 -0.0405
10 -9 6 0.1200 -0.0212
10 -9 7 -1.7444 0.0254
10 -9 8 1.1139 -0.0015
10 -9 9 -0.6408 -0.0076
10 -9 10 -1.9201 -0.0177
10 -9 11 -0.7239 0.0255
10 -9 12 0.5591 0.0059
10 -9 13 4.7202 -0.0100
10 -9 14 0.2505 -0.0070
10 -9 15 -1.8757 -0.0086
10 -9 16 -1.3817 0.0464
10 -8 0 -1.4448 0.0991
10 -8 1 -0.3137 -0.0073
10 -8 2 0.1224 -0.0435
10 -8 3 2.1471 -0.0005
10 -8 4 0.6715 -0.0085
10 -8 5 -0.8780 -0.0236
10 -8 6 -1.2216 0.0252
10 -8 7 1.2498 0.0070
10 -8 8 2.2169 0.0154
10 -8 9 -1.2817 0.0205
10 -8 10 0.5941 -0.0038
10 -8 11 1.5776 -0.0023
10 -8 12 0.8366 -0.0502
10 -7 0 -1.6273 -0.0690
10 -7 1 -0.0969 -0.0787
10 -7 2 -0.4230 0.0089
10 -7 3 -0.9280 0.0079
10 -7 4 0.4905 0.0019
10 -7 5 2.1929 0.0355
10 -7 6 -0.5422 0.0221
10 -7 7 -0.9985 -0.0060
10 -7 8 -0.9152 -0.0007
10 -7 9 -1.4697 -0.0399
10 -7 10 0.3246 -0.0229
10 -6 0 -3.9798 -0.0660
10 -6 1 3.4528 0.0614
10 -6 2 2.2273 0.0339
10 -6 3 1.5445 0.0112
10 -6 4 0.1677 -0.0022
10 -6 5 -3.3134 0.0069
10 -6 6 -1.6941 -0.0128
10 -6 7 1.0767 -0.0186
10 -6 8 0.5767 -0.0085
10 -6 9 1.2518 0.0024
10 -5 0 2.7410 0.1161
10 -5 1 3.2035 0.0241
10 -5 2 -4.4111 -0.0108
10 -5 3 -2.7260 -0.0276
10 -5 4 -0.8862 -0.0444
10 -5 5 2.8080 0.0286
10 -5 6 2.4173 -0.0036
10 -5 7 -1.1748 -0.0036
10 -5 8 0.3365 0.0046
10 -5 9 -0.6728 0.0099
10 -4 0 -2.5390 0.0131
10 -4 1 1.5954 -0.1030
10 -4 2 2.9073 -0.0042
10 -4 3 2.0520 -0.0290
10 -4 4 -0.7965 0.0458
10 -4 5 -0.2382 0.0410
10 -4 6 -2.9071 -0.0161
10 -4 7 0.2939 0.0111
10 -4 8 0.2942 -0.0221
10 -3 0 3.4348 -0.1780
10 -3 1 4.6686 0.0243
10 -3 2 -4.9272 0.0396
10 -3 3 -7.4352 0.0187
10 -3 4 1.3255 0.0408
10 -3 5 3.2427 -0.0488
10 -3 6 1.8362 -0.0086
10 -3 7 1.3702 -0.0156
10 -3 8 -4.0358 -0.0122
10 -2 0 1.0534 0.0504
10 -2 1 1.9506 0.1191
10 -2 2 -3.1654 -0.0233
10 -2 3 3.9674 0.0333
10 -2 4 3.8407 -0.0508
10 -2 5 -2.4278 -0.0371
10 -2 6 -0.5045 0.0288
10 -2 7 -3.7963 0.0049
10 -2 8 -1.5229 0.0205
10 -1 0 5.5174 0.2069
10 -1 1 -1.6341 -0.0681
10 -1 2 -5.0832 -0.0448
10 -1 3 -0.4055 -0.0152
10 -1 4 -2.0555 -0.0539
10 -1 5 0.9434 0.0613
10 -1 6 2.4421 0.0297
10 -1 7 -1.1660 0.0084
10 -1 8 2.6897 -0.0157
10 0 0 -1.6978 -0.0646
10 0 1 -2.1020 -0.1352
10 0 2 0.1518 0.0444
10 0 3 3.7753 -0.0025
10 0 4 0.8667 0.0455
10 0 5 1.3153 0.0517
10 0 6 0.2880 -0.0336
10 0 7 -1.7375 -0.0238
10 0 8 -0.8235 -0.0289
10 0 9 -0.2083 -0.0012
10 1 0 2.3463 -0.1730
10 1 1 -1.2860 0.0697
10 1 2 -0.3642 0.0644
10 1 3 1.2475 -0.0143
10 1 4 -1.2923 0.0413
10 1 5 0.6004 -0.0436
10 1 6 -0.9657 -0.0587
10 1 7 -2.1651 -0.0003
10 1 8 -1.4350 0.0053
10 1 9 1.8775 0.0157
10 2 0 -3.4048 0.1058
10 2 1 -1.6647 0.1314
10 2 2 0.5670 -0.0574
10 2 3 1.2276 -0.0061
10 2 4 -1.1167 -0.0180
10 2 5 -1.3020 -0.0659
10 2 6 0.4190 0.0300
10 2 7 1.2536 0.0395
10 2 8 1.6459 0.0190
10 2 9 4.1989 0.0193
10 2 10 -3.2795 -0.0009
10 3 0 -0.2201 0.1320
10 3 1 1.0116 -0.0995
10 3 2 0.9336 -0.0660
10 3 3 2.5152 0.0186
10 3 4 -1.1882 -0.0445
10 3 5 1.3378 0.0450
10 3 6 1.9484 0.0569
10 3 7 -2.4432 -0.0081
10 3 8 -1.7637 -0.0039
10 3 9 -2.4725 -0.0228
10 3 10 -2.6014 -0.0146
10 3 11 5.0863 -0.0108
10 3 22 -1.4218 0.0581
10 4 0 -0.9787 -0.1110
10 4 1 -0.4506 -0.0943
10 4 2 1.2097 0.0723
10 4 3 -0.3877 -0.0072
10 4 4 -2.4678 0.0189
10 4 5 -0.6171 0.0622
10 4 6 -2.2730 -0.0385
10 4 7 0.4560 -0.0277
10 4 8 2.8111 -0.0184
10 4 9 1.4992 -0.0065
10 4 10 2.2992 0.0075
10 4 11 -0.7500 -0.0012
10 4 12 -1.6610 0.0242
10 4 13 -0.3863 -0.0085
10 4 21 1.2861 0.0262
10 4 22 1.8146 0.0087
10 5 0 1.7191 -0.0506
10 5 1 4.1803 0.1075
10 5 2 -0.9971 0.0281
10 5 3 0.4663 -0.0297
10 5 4 1.2674 0.0352
10 5 5 -0.1799 -0.0391
10 5 6 0.4897 -0.0358
10 5 7 1.9862 0.0109
10 5 8 -1.1189 0.0023
10 5 9 -2.3516 0.0247
10 5 10 -1.0580 0.0024
10 5 11 0.5961 0.0068
10 5 12 1.6502 -0.0114
10 5 13 -3.1490 -0.0124
10 5 14 0.1647 0.0390
10 5 15 3.2930 -0.0092
10 5 18 -1.6460 -0.0387
10 5 20 2.9269 0.0011
10 5 21 0.9835 -0.0402
10 5 22 -2.4085 0.0122
10 6 0 2.0958 0.1074
10 6 1 -3.4455 -0.0042
10 6 2 -2.2453 -0.0639
10 6 3 2.7565 0.0126
10 6 4 -3.4985 -0.0141
10 6 5 -3.7892 -0.0171
10 6 6 1.4025 0.0407
10 6 7 2.8315 0.0127
10 6 8 -0.7548 0.0096
10 6 9 -1.8540 0.0049
10 6 10 1.0194 -0.0137
10 6 11 0.8313 -0.0012
10 6 12 -0.4451 -0.0023
10 6 13 -0.0680 0.0232
10 6 14 2.5167 -0.0111
10 6 15 0.1887 -0.0303
10 6 16 -0.4582 0.0123
10 6 17 -1.5240 -0.0240
10 6 18 -1.3876 -0.0184
10 6 19 1.6176 -0.0028
10 6 20 -0.9939 -0.0091
10 6 21 -0.4449 0.0567
10 6 22 1.2483 0.0395
10 6 23 0.9304 -0.0622
10 7 0 -0.7429 -0.0400
10 7 1 0.6890 -0.0799
10 7 2 1.3881 0.0259
10 7 3 -0.8840 0.0249
10 7 4 -2.4137 -0.0101
10 7 5 3.2206 0.0281
10 7 6 2.7233 0.0092
10 7 7 -0.9034 -0.0230
10 7 8 -3.3716 -0.0189
10 7 9 0.6712 -0.0217
10 7 10 5.0196 -0.0059
10 7 11 1.3038 0.0041
10 7 12 -0.8080 0.0045
10 7 13 -3.2493 0.0012
10 7 14 -2.6003 -0.0115
10 7 15 -0.7430 0.0112
10 7 16 0.3791 -0.0138
10 7 17 0.5777 -0.0154
10 7 18 2.2927 0.0154
10 7 19 0.4809 0.0034
10 7 20 0.5642 0.0620
10 7 21 0.5732 0.0434
10 7 22 -3.6949 -0.0780
10 7 23 0.0788 -0.0214
10 8 0 1.3997 -0.0804
10 8 1 -1.3365 0.0520
10 8 2 -0.4765 0.0514
10 8 3 0.3534 -0.0120
10 8 4 -0.1612 -0.0059
10 8 5 -0.2790 0.0045
10 8 6 0.4449 -0.0214
10 8 7 2.4423 -0.0200
10 8 8 -0.0866 0.0002
10 8 9 1.3441 0.0150
10 8 10 -1.4703 0.0257
10 8 11 -7.4271 0.0159
10 8 12 -2.7766 0.0039
10 8 13 1.3167 -0.0134
10 8 14 5.6535 -0.0083
10 8 15 4.3137 0.0077
10 8 16 0.8040 -0.0053
10 8 17 -1.3002 0.0290
10 8 18 -1.8153 0.0163
10 8 19 -2.9953 0.0223
10 8 20 -0.6979 0.0204
10 8 21 0.5011 -0.0785
10 8 22 1.6927 -0.0479
10 8 23 3.1574 0.0407
10 9 0 0.7845 0.1394
10 9 1 2.2740 0.0449
10 9 2 -0.4654 -0.0398
10 9 3 -1.8381 -0.0279
10 9 4 -0.1644 -0.0042
10 9 5 2.7007 -0.0043
10 9 6 1.4783 -0.0083
10 9 7 -3.4905 0.0150
10 9 8 -3.5370 0.0163
10 9 9 1.3905 0.0169
10 9 10 -1.5580 0.0067
10 9 11 1.1881 -0.0199
10 9 12 7.4153 -0.0121
10 9 13 2.7451 -0.0113
10 9 14 -1.6225 0.0092
10 9 15 -5.7612 0.0018
10 9 16 -2.3167 -0.0119
10 9 17 -0.0037 0.0151
10 9 18 0.4608 -0.0080
10 9 19 0.5644 -0.0030
10 9 20 3.1793 -0.0470
10 9 21 1.1500 -0.0334
10 9 22 -2.9143 0.0217
10 9 23 -1.5998 -0.0002
10 10 0 -0.7028 0.0141
10 10 1 -1.7358 -0.1093
10 10 2 -2.0108 -0.0294
10 10 3 1.9617 0.0017
10 10 4 0.9125 0.0275
10 10 5 -1.1733 0.0126
10 10 6 -2.2414 0.0021
10 10 7 1.1001 0.0034
10 10 8 2.8005 -0.0096
10 10 9 -0.0171 -0.0026
10 10 10 -1.8514 -0.0266
10 10 11 0.7215 -0.0123
10 10 12 -0.1368 0.0107
10 10 13 -2.7130 -0.0044
10 10 14 -1.2157 0.0156
10 10 15 1.7856 0.0008
10 10 16 3.2051 0.0113
10 10 17 -2.1422 0.0081
10 10 18 0.2465 -0.0287
10 10 19 -0.1985 -0.0124
10 10 20 0.5112 -0.0055
10 10 21 0.0777 0.0283
10 10 22 -0.6368 0.0095
10 11 0 0.5285 -0.1551
10 11 1 2.2504 -0.0103
10 11 2 0.0356 0.0471
10 11 3 -1.1796 0.0337
10 11 4 -2.1135 0.0240
10 11 5 1.5510 -0.0382
10 11 6 2.2360 -0.0151
10 11 7 -0.0293 -0.0001
10 11 8 -2.7151 0.0033
10 11 9 0.5349 0.0088
10 11 10 0.7569 0.0013
10 11 11 0.6513 0.0275
10 11 12 2.7333 0.0094
10 11 13 0.0164 -0.0050
10 11 14 -1.2066 -0.0044
10 11 15 -1.1867 -0.0165
10 11 16 -2.9576 0.0086
10 11 17 0.4997 -0.0123
10 11 18 3.9762 -0.0108
10 11 19 -2.0829 0.0307
10 11 20 2.1651 0.0293
10 11 21 -0.2709 -0.0001
10 11 22 -3.4488 -0.0064
10 12 0 2.1570 0.0263
10 12 1 -1.2585 0.1302
10 12 2 -1.6944 0.0118
10 12 3 1.2703 -0.0036
10 12 4 1.2754 -0.0422
10 12 5 0.6868 -0.0340
10 12 6 -1.2340 0.0319
10 12 7 -0.1836 0.0104
10 12 8 0.8970 0.0104
10 12 9 0.6964 0.0054
10 12 10 -2.5132 -0.0008
10 12 11 0.4437 -0.0023
10 12 12 0.2292 -0.0274
10 12 13 -2.8678 -0.0140
10 12 14 -0.2437 -0.0010
10 12 15 -0.0150 0.0160
10 12 16 1.6339 0.0134
10 12 17 3.1806 -0.0157
10 12 18 -0.4927 0.0084
10 12 19 -1.6257 0.0215
10 12 20 1.8538 -0.0192
10 12 21 -3.1887 -0.0327
10 12 22 -0.2417 0.0052
10 13 0 -1.3398 0.1643
10 13 1 -0.1680 -0.0319
10 13 2 0.6889 -0.0610
10 13 3 -1.0917 -0.0291
10 13 4 -1.8351 -0.0394
10 13 5 1.8932 0.0452
10 13 6 2.8077 0.0409
10 13 7 -1.4595 -0.0049
10 13 8 -3.3680 0.0029
10 13 9 0.3980 -0.0153
10 13 10 0.4268 -0.0125
10 13 11 1.1671 -0.0244
10 13 12 0.6011 -0.0101
10 13 13 0.6921 0.0212
10 13 14 0.7277 0.0117
10 13 15 0.0984 0.0183
10 13 16 0.7165 -0.0100
10 13 17 -0.5449 -0.0058
10 13 18 -0.4551 0.0197
10 13 19 -1.7772 -0.0156
10 13 20 -1.0660 -0.0315
10 13 21 -0.5189 0.0087
10 13 22 1.9021 0.0033
10 14 0 0.3888 -0.0724
10 14 1 0.6573 -0.1176
10 14 2 -0.6724 0.0200
10 14 3 0.2201 -0.0260
10 14 4 2.4611 0.0383
10 14 5 1.0884 0.0540
10 14 6 -4.3887 -0.0248
10 14 7 -4.0618 -0.0261
10 14 8 4.0187 -0.0239
10 14 9 3.5716 -0.0103
10 14 10 -2.1262 0.0051
10 14 11 0.5739 -0.0042
10 14 12 0.7762 0.0365
10 14 13 -0.9099 0.0175
10 14 14 -1.1207 0.0012
10 14 15 -1.6804 -0.0063
10 14 16 -1.0772 -0.0350
10 14 17 1.6813 0.0313
10 14 18 1.2722 -0.0042
10 14 19 -2.0476 -0.0380
10 14 20 1.6535 0.0267
10 14 21 1.1190 0.0293
10 15 0 -2.4490 -0.2037
10 15 1 0.8819 0.0884
10 15 2 -1.3157 0.0580
10 15 3 -0.0143 0.0020
10 15 4 -1.3543 0.0630
10 15 5 -1.3577 -0.0335
10 15 6 1.6955 -0.0259
10 15 7 3.8114 -0.0058
10 15 8 1.2192 0.0075
10 15 9 -4.2184 0.0292
10 15 10 -1.1928 -0.0011
10 15 11 2.0489 0.0102
10 15 12 -0.4052 0.0233
10 15 13 -0.1833 -0.0195
10 15 14 -0.9431 0.0018
10 15 15 -0.6237 -0.0156
10 15 16 2.9595 0.0095
10 15 17 2.3386 0.0302
10 15 18 -2.0614 -0.0577
10 15 19 -1.9491 0.0036
10 15 20 1.6705 0.0081
10 15 21 -0.8537 -0.0240
10 16 0 0.1867 0.0985
10 16 1 0.8679 0.1378
10 16 2 -1.2760 -0.0527
10 16 3 1.6588 0.0076
10 16 4 0.2749 -0.0381
10 16 5 2.0409 -0.0639
10 16 6 -0.4728 0.0308
10 16 7 -2.5496 0.0155
10 16 8 -0.4544 0.0210
10 16 9 0.8550 -0.0116
10 16 10 1.9308 -0.0094
10 16 11 -0.4484 0.0086
10 16 12 -0.6275 -0.0208
10 16 13 -0.5972 -0.0203
10 16 14 -1.2484 -0.0024
10 16 15 1.7984 -0.0220
10 16 16 1.4426 0.0077
10 16 17 -1.3002 -0.0194
10 16 18 -0.8860 -0.0210
10 16 19 -0.3163 0.0290
10 16 20 0.1751 0.0103
10 17 0 1.3339 0.1157
10 17 1 0.7731 -0.0906
10 17 2 0.2639 -0.0328
10 17 3 1.1463 0.0108
10 17 4 -0.1965 -0.0494
10 17 5 0.6533 0.0426
10 17 6 -1.1942 0.0590
10 17 7 0.9142 -0.0139
10 17 8 -0.2158 -0.0221
10 17 9 -2.0131 -0.0222
10 17 10 -0.3064 0.0135
10 17 11 -0.1648 -0.0105
10 17 12 1.0544 0.0027
10 17 13 0.0685 0.0128
10 17 14 0.7068 0.0073
10 17 15 0.3236 0.0159
10 17 16 -0.8993 0.0060
10 17 17 0.9402 0.0024
10 17 18 -0.8734 0.0446
10 17 19 -1.6787 0.0239
10 17 20 1.5384 0.0069
10 18 0 2.6558 -0.1236
10 18 1 0.7701 -0.0643
10 18 2 -0.4367 0.0757
10 18 3 -0.1814 -0.0119
10 18 4 -1.1765 0.0012
10 18 5 -1.9375 0.0480
10 18 6 -1.7118 -0.0116
10 18 7 0.5645 -0.0359
10 18 8 0.4832 -0.0130
10 18 9 2.0954 0.0059
10 18 10 1.0246 0.0101
10 18 11 -0.6554 -0.0117
10 18 12 0.1665 0.0147
10 18 13 -0.4918 -0.0126
10 18 14 0.0246 0.0109
10 18 15 -0.1720 0.0084
10 18 16 1.4919 -0.0149
10 18 17 -1.1507 0.0254
10 18 18 -3.1174 -0.0078
10 18 19 1.8886 -0.0685
10 19 0 1.3168 -0.0454
10 19 1 -1.8400 0.0948
10 19 2 -2.1006 0.0168
10 19 3 0.6665 -0.0412
10 19 4 -0.1723 0.0224
10 19 5 0.8123 -0.0191
10 19 6 2.9075 -0.0313
10 19 7 1.3821 -0.0020
10 19 8 -0.5754 0.0085
10 19 9 -1.5648 0.0255
10 19 10 -1.9003 0.0090
10 19 11 0.9547 0.0062
10 19 12 1.8205 0.0294
10 19 13 -0.0505 -0.0086
10 19 14 -1.1817 0.0119
10 19 15 -0.9253 -0.0175
10 19 16 -0.5510 -0.0245
10 19 17 -1.1677 -0.0018
10 19 18 3.0174 -0.0345
10 20 0 0.0957 -0.0049
10 20 1 -0.6469 0.0056
10 20 2 2.6371 -0.0586
10 20 3 1.6368 0.0344
10 20 4 -2.2852 0.0199
10 20 5 0.1013 -0.0306
10 20 6 -0.0768 0.0287
10 20 7 -1.2070 0.0186
10 20 8 -0.0549 0.0057
10 20 9 -0.9233 0.0034
10 20 10 1.3632 -0.0343
10 20 11 1.7896 -0.0021
10 20 12 -1.4641 -0.0019
10 20 13 -2.7713 -0.0469
10 20 14 -0.3838 0.0049
10 20 15 2.2552 -0.0084
10 20 16 1.2354 -0.0068
10 20 17 0.4786 0.0197
10 21 0 -0.2977 0.0321
10 21 1 0.3391 -0.0090
10 21 2 -0.2616 -0.0161
10 21 3 -2.5613 0.0567
10 21 4 -1.1224 -0.0445
10 21 5 2.8848 -0.0193
10 21 6 0.7424 0.0306
10 21 7 -0.6847 0.0003
10 21 8 -0.6887 -0.0065
10 21 9 -0.2423 -0.0196
10 21 10 1.4056 -0.0120
10 21 11 -1.1324 0.0377
10 21 12 -0.5737 -0.0095
10 21 13 0.9677 -0.0169
10 21 14 2.2279 0.0405
10 21 15 0.1194 -0.0100
10 21 16 -1.9769 0.0063
10 22 0 -1.4139 0.0172
10 22 1 0.3922 -0.0136
10 22 2 0.8994 0.0012
10 22 3 -0.5344 0.0250
10 22 4 0.6240 -0.0168
10 22 5 1.6990 0.0228
10 22 6 -2.2024 -0.0060
10 22 7 -0.2209 -0.0348
10 22 8 1.1746 -0.0344
10 22 9 -1.4794 -0.0053
10 22 10 -0.0903 0.0149
10 22 11 1.5968 0.0224
10 22 12 0.6586 -0.0153
10 22 13 -1.5360 0.0187
10 22 14 -0.1690 0.0257
10 23 4 1.4795 -0.0185
10 23 5 0.2079 -0.0398
10 23 6 -1.2485 -0.0036
10 23 7 1.3739 0.0321
10 23 8 -1.6715 0.0382
10 23 9 -0.5794 0.0530
10 23 10 4.2370 0.0179
11 -15 0 -1.1189 -0.0124
11 -15 1 1.1963 0.0234
11 -14 0 1.5333 0.0044
11 -14 1 0.9505 0.0564
11 -14 2 -1.2576 -0.0382
11 -14 3 -1.4373 0.0221
11 -14 4 0.3871 -0.0578
11 -14 5 0.4865 -0.0354
11 -14 6 0.9060 0.0536
11 -13 0 2.0000 0.0295
11 -13 1 -2.4692 -0.0239
11 -13 2 -0.2733 -0.0651
11 -13 3 0.5731 0.0664
11 -13 4 0.6937 0.0116
11 -13 5 0.2013 0.0262
11 -13 6 -0.0243 -0.0324
11 -13 7 -2.1375 -0.0438
11 -13 8 0.0036 0.0029
11 -12 0 -2.0266 -0.0540
11 -12 1 -1.0233 -0.0275
11 -12 2 0.9267 0.0072
11 -12 3 0.2890 0.0376
11 -12 4 1.3803 -0.0318
11 -12 5 -0.4934 -0.0342
11 -12 6 -1.4758 0.0173
11 -12 7 -1.0130 0.1016
11 -12 8 2.8170 -0.0120
11 -12 9 1.1096 -0.1179
11 -12 10 -2.0870 0.0056
11 -11 0 0.9364 0.0623
11 -11 1 -0.4521 0.0388
11 -11 2 0.8661 -0.0054
11 -11 3 0.6276 0.0163
11 -11 4 -1.2133 -0.0111
11 -11 5 -1.3372 -0.0272
11 -11 6 0.7754 -0.0134
11 -11 7 1.0429 -0.0078
11 -11 8 1.3777 -0.0163
11 -11 9 -1.4834 0.0279
11 -11 10 -1.5031 0.1041
11 -11 11 0.2526 -0.0253
11 -10 0 -1.0736 0.0240
11 -10 1 -1.1377 -0.0521
11 -10 2 0.9610 -0.0445
11 -10 3 -0.8412 -0.0032
11 -10 4 1.2794 0.0194
11 -10 5 0.7459 0.0136
11 -10 6 -0.7116 0.0263
11 -10 7 -0.6290 0.0533
11 -10 8 0.1210 -0.0057
11 -10 9 -0.6660 -0.0779
11 -10 10 0.5626 -0.0158
11 -10 11 1.0796 0.0166
11 -10 12 0.2793 0.0392
11 -9 0 0.8462 -0.1194
11 -9 1 0.6566 0.0099
11 -9 2 0.7110 0.0139
11 -9 3 -0.0719 0.0531
11 -9 4 -0.2568 0.0256
11 -9 5 -1.6827 -0.0569
11 -9 6 1.2640 -0.0310
11 -9 7 0.3488 0.0123
11 -9 8 -0.1495 0.0031
11 -9 9 -0.0937 -0.0143
11 -9 10 -0.0930 0.0253
11 -9 11 -1.6672 0.0096
11 -9 12 -0.3882 -0.0439
11 -9 13 1.5746 -0.0070
11 -9 14 0.0036 0.0484
11 -8 0 -1.6516 0.0129
11 -8 1 -1.6037 0.1078
11 -8 2 -0.0874 -0.0229
11 -8 3 0.5338 0.0094
11 -8 4 1.4074 -0.0353
11 -8 5 0.1410 -0.0214
11 -8 6 -1.0421 0.0314
11 -8 7 -1.6059 0.0196
11 -8 8 1.0102 -0.0012
11 -8 9 0.3570 -0.0302
11 -8 10 0.2717 0.0121
11 -8 11 0.7942 0.0239
11 -8 12 3.2082 -0.0041
11 -8 13 -0.8280 -0.0158
11 -7 0 0.8906 0.1707
11 -7 1 2.4953 -0.0242
11 -7 2 1.1205 -0.0520
11 -7 3 -0.7363 0.0087
11 -7 4 -1.6913 -0.0416
11 -7 5 -1.0577 0.0185
11 -7 6 1.5774 0.0241
11 -7 7 0.7531 0.0148
11 -7 8 -0.2291 0.0187
11 -7 9 0.1823 -0.0334
11 -7 10 0.1948 -0.0298
11 -7 11 -1.2465 0.0022
11 -6 0 -0.5826 -0.0752
11 -6 1 -2.6093 -0.1143
11 -6 2 -1.1279 0.0199
11 -6 3 0.8809 -0.0262
11 -6 4 1.6053 0.0124
11 -6 5 0.5662 0.0698
11 -6 6 -1.4142 -0.0096
11 -6 7 -2.0606 -0.0284
11 -6 8 1.4734 -0.0133
11 -6 9 1.5407 -0.0263
11 -6 10 -1.4670 0.0049
11 -5 0 0.8589 -0.1771
11 -5 1 3.2982 0.0830
11 -5 2 1.4858 0.0500
11 -5 3 -2.0933 -0.0006
11 -5 4 -2.3491 0.0535
11 -5 5 0.6526 -0.0146
11 -5 6 1.4034 -0.0411
11 -5 7 0.3719 -0.0012
11 -5 8 1.2633 0.0078
11 -5 9 -1.1611 -0.0096
11 -4 0 0.4251 0.0925
11 -4 1 -2.7680 0.1116
11 -4 2 -1.0269 -0.0512
11 -4 3 0.7434 -0.0067
11 -4 4 2.3577 -0.0187
11 -4 5 1.4177 -0.0433
11 -4 6 -3.3917 0.0158
11 -4 7 -0.8103 0.0054
11 -4 8 1.3265 0.0172
11 -4 9 -1.1313 0.0085
11 -3 0 0.9164 0.1111
11 -3 1 3.7779 -0.0798
11 -3 2 1.3703 -0.0438
11 -3 3 -6.0255 0.0105
11 -3 4 -1.3779 -0.0277
11 -3 5 1.1577 0.0280
11 -3 6 1.3684 0.0447
11 -3 7 2.4933 -0.0114
11 -3 8 -2.2810 0.0029
11 -3 9 0.5194 -0.0323
11 -2 0 -0.7534 -0.0998
11 -2 1 -0.8419 -0.0672
11 -2 2 -6.1698 0.0309
11 -2 3 1.0703 0.0025
11 -2 4 8.0895 0.0209
11 -2 5 0.6465 0.0446
11 -2 6 -1.3965 -0.0112
11 -2 7 -3.9828 -0.0244
11 -2 8 -1.8689 -0.0136
11 -2 9 5.5022 -0.0270
11 -1 0 4.7887 -0.0240
11 -1 1 -0.4917 0.0677
11 -1 2 -0.1152 0.0401
11 -1 3 3.7992 0.0101
11 -1 4 -3.2002 0.0245
11 -1 5 -2.3036 -0.0211
11 -1 6 0.7061 -0.0327
11 -1 7 -2.2087 -0.0120
11 -1 8 4.6141 -0.0143
11 -1 9 2.6419 0.0261
11 0 0 -0.6238 0.0758
11 0 1 -4.5398 0.0234
11 0 2 1.8141 -0.0380
11 0 3 -1.4625 -0.0144
11 0 4 -0.1081 -0.0053
11 0 5 4.3854 -0.0402
11 0 6 -2.1642 0.0138
11 0 7 -1.5951 0.0067
11 0 8 2.0319 0.0120
11 0 9 -2.5843 0.0117
11 1 0 -2.8648 -0.0279
11 1 1 1.9456 -0.0628
11 1 2 1.6786 -0.0238
11 1 3 -0.4013 0.0202
11 1 4 2.5863 -0.0154
11 1 5 -0.9500 0.0026
11 1 6 -2.7832 0.0245
11 1 7 1.5122 -0.0182
11 1 8 1.0084 0.0100
11 1 9 0.7345 -0.0151
11 1 10 -0.3459 0.0164
11 2 0 2.4349 -0.0737
11 2 1 1.1665 0.0312
11 2 2 0.1278 0.0349
11 2 3 -0.6247 -0.0051
11 2 4 -0.8404 -0.0033
11 2 5 -2.2567 0.0220
11 2 6 -0.5018 -0.0127
11 2 7 0.7628 -0.0004
11 2 8 -0.8126 0.0083
11 2 9 0.5378 0.0038
11 2 10 -0.9073 0.0271
11 3 0 -3.1473 0.0773
11 3 1 0.1483 0.0551
11 3 2 0.2521 -0.0317
11 3 3 -0.4907 -0.0266
11 3 4 -0.3402 0.0144
11 3 5 -0.9433 0.0069
11 3 6 3.7657 -0.0000
11 3 7 1.7410 0.0103
11 3 8 -0.8267 0.0054
11 3 9 0.3364 0.0067
11 3 10 -2.3230 -0.0215
11 3 11 2.3120 -0.0093
11 4 0 6.4551 0.0427
11 4 1 2.7831 -0.0806
11 4 2 -1.6519 -0.0495
11 4 3 -1.0052 0.0049
11 4 4 -0.6105 0.0262
11 4 5 1.0621 0.0136
11 4 6 1.2067 -0.0107
11 4 7 -4.2609 -0.0131
11 4 8 -0.9094 -0.0105
11 4 9 0.6246 -0.0154
11 4 10 2.1033 -0.0088
11 4 11 2.9718 -0.0016
11 4 12 -5.4810 -0.0180
11 4 13 -0.1598 0.0340
11 5 0 0.9941 -0.1598
11 5 1 -4.4935 -0.0284
11 5 2 -1.0537 0.0603
11 5 3 1.5859 0.0330
11 5 4 0.3608 0.0391
11 5 5 -0.8040 -0.0144
11 5 6 0.7902 -0.0214
11 5 7 1.1053 -0.0054
11 5 8 1.2539 -0.0007
11 5 9 -0.4604 0.0091
11 5 10 -0.1044 0.0025
11 5 11 -2.4307 0.0201
11 5 12 -1.0237 0.0226
11 5 13 3.8911 0.0144
11 5 14 -0.6426 -0.0074
11 5 15 1.4096 -0.0053
11 5 20 0.9568 0.0819
11 5 21 1.9739 -0.0685
11 6 0 2.3543 -0.0041
11 6 1 -1.9094 0.1362
11 6 2 0.6491 0.0104
11 6 3 1.3133 0.0102
11 6 4 -1.6865 -0.0259
11 6 5 -0.5072 -0.0529
11 6 6 1.5064 0.0050
11 6 7 -1.5181 -0.0033
11 6 8 -0.1301 0.0159
11 6 9 0.0410 0.0057
11 6 10 0.3054 0.0092
11 6 11 1.0004 0.0129
11 6 12 -1.2886 -0.0265
11 6 13 -1.4993 -0.0029
11 6 14 0.4095 -0.0027
11 6 15 1.1646 -0.0112
11 6 16 -0.6508 -0.0137
11 6 17 -0.7770 -0.0146
11 6 18 -0.2473 -0.0136
11 6 19 1.5134 0.0653
11 6 20 2.8185 -0.0341
11 6 21 -3.1969 -0.0507
11 7 0 -1.3738 0.2015
11 7 1 -3.1798 -0.0257
11 7 2 3.3656 -0.0431
11 7 3 -0.7725 -0.0098
11 7 4 -2.8823 -0.0626
11 7 5 1.1874 0.0281
11 7 6 1.8643 0.0281
11 7 7 0.2834 0.0045
11 7 8 -1.4620 0.0074
11 7 9 -2.6245 -0.0092
11 7 10 2.2253 0.0132
11 7 11 0.9969 -0.0213
11 7 12 -1.2517 -0.0143
11 7 13 3.5478 0.0054
11 7 14 2.0942 -0.0005
11 7 15 -1.6296 0.0054
11 7 16 -2.2002 -0.0300
11 7 17 -1.8042 0.0035
11 7 18 0.7807 0.0314
11 7 19 1.2705 0.0178
11 7 20 -0.1536 0.0024
11 7 21 -0.3534 0.0584
11 8 0 -0.7187 -0.0676
11 8 1 -0.6096 -0.1571
11 8 2 0.7746 0.0368
11 8 3 -1.6506 -0.0353
11 8 4 2.3621 0.0237
11 8 5 1.5983 0.0551
11 8 6 -0.6641 -0.0152
11 8 7 -1.2168 -0.0110
11 8 8 0.7503 -0.0199
11 8 9 4.1692 0.0081
11 8 10 1.7167 -0.0048
11 8 11 -4.3711 -0.0139
11 8 12 -3.3724 0.0187
11 8 13 0.1740 0.0035
11 8 14 -1.4438 0.0116
11 8 15 -1.5157 -0.0203
11 8 16 1.8493 -0.0088
11 8 17 3.3184 0.0476
11 8 18 0.4039 0.0326
11 8 19 -0.5312 0.0430
11 8 20 0.0915 -0.0224
11 8 21 -2.5394 -0.1043
11 9 0 0.2593 -0.1932
11 9 1 2.3486 0.0950
11 9 2 3.3899 0.0569
11 9 3 -0.6621 -0.0073
11 9 4 -2.0178 0.0676
11 9 5 -2.1483 -0.0331
11 9 6 1.5756 -0.0349
11 9 7 0.5818 -0.0087
11 9 8 -1.0301 0.0159
11 9 9 -3.3090 0.0273
11 9 10 -4.3669 -0.0011
11 9 11 -0.0616 0.0184
11 9 12 4.6087 -0.0035
11 9 13 6.2145 -0.0090
11 9 14 0.6649 0.0015
11 9 15 -1.2848 -0.0155
11 9 16 0.4559 0.0135
11 9 17 -2.7112 0.0076
11 9 18 -2.6368 0.0085
11 9 19 1.7747 -0.0374
11 9 20 0.4999 -0.1136
11 9 21 -0.0158 -0.0042
11 10 0 -0.1474 0.0972
11 10 1 -0.5920 0.1130
11 10 2 -3.7938 -0.0680
11 10 3 -3.6808 0.0199
11 10 4 1.3899 -0.0310
11 10 5 2.5827 -0.0657
11 10 6 0.2990 0.0167
11 10 7 -2.1858 0.0243
11 10 8 1.5170 0.0248
11 10 9 1.5059 -0.0141
11 10 10 2.0455 -0.0152
11 10 11 2.6020 -0.0141
11 10 12 0.0575 -0.0259
11 10 13 -1.9716 -0.0087
11 10 14 -5.6884 -0.0083
11 10 15 -1.4659 0.0162
11 10 16 0.9535 0.0225
11 10 17 0.4830 0.0045
11 10 18 2.0977 -0.0044
11 10 19 1.0104 -0.0518
11 10 20 -0.8644 0.0086
11 10 21 -0.7553 0.0779
11 11 0 -0.7779 0.1341
11 11 1 -0.3083 -0.1042
11 11 2 1.2459 -0.0629
11 11 3 1.5233 0.0145
11 11 4 0.5623 -0.0425
11 11 5 -0.9390 0.0385
11 11 6 0.4031 0.0455
11 11 7 1.9184 0.0125
11 11 8 -0.0845 -0.0098
11 11 9 -3.8129 -0.0163
11 11 10 -0.3569 -0.0004
11 11 11 -0.2876 -0.0115
11 11 12 0.5173 0.0184
11 11 13 1.3177 0.0251
11 11 14 -1.7648 0.0228
11 11 15 1.2581 0.0141
11 11 16 0.9335 -0.0189
11 11 17 1.5670 -0.0107
11 11 18 0.0852 -0.0119
11 11 19 -0.6451 0.0019
11 11 20 0.1257 0.0450
11 12 0 1.8799 -0.0824
11 12 1 0.6695 -0.0827
11 12 2 -1.3697 0.0695
11 12 3 -1.7895 0.0178
11 12 4 1.4258 0.0155
11 12 5 1.8834 0.0483
11 12 6 -0.1175 -0.0207
11 12 7 -3.2226 -0.0273
11 12 8 -1.4801 -0.0218
11 12 9 2.5948 0.0024
11 12 10 2.3822 -0.0034
11 12 11 -0.7707 0.0131
11 12 12 0.9831 0.0222
11 12 13 -1.8752 -0.0241
11 12 14 -2.6793 -0.0082
11 12 15 1.5887 -0.0023
11 12 16 1.4641 -0.0068
11 12 17 1.6404 -0.0157
11 12 18 -2.5334 -0.0123
11 12 19 -0.5192 0.0202
11 12 20 -0.4052 -0.0118
11 13 0 -1.6000 -0.0606
11 13 1 -3.3523 0.0699
11 13 2 0.4434 0.0331
11 13 3 1.6216 -0.0377
11 13 4 -0.1361 0.0229
11 13 5 -2.3528 -0.0088
11 13 6 -0.4354 -0.0423
11 13 7 2.4608 0.0036
11 13 8 3.5775 0.0199
11 13 9 -1.5825 0.0179
11 13 10 -3.4454 -0.0074
11 13 11 -0.4454 0.0013
11 13 12 1.1314 -0.0143
11 13 13 -0.6557 -0.0058
11 13 14 0.6031 0.0038
11 13 15 1.6412 -0.0191
11 13 16 1.0138 0.0038
11 13 17 -0.4186 0.0165
11 13 18 -2.4672 0.0413
11 13 19 0.9542 -0.0013
11 13 20 -0.7710 -0.0203
11 14 0 -1.6549 0.0510
11 14 1 2.2957 0.0539
11 14 2 1.5757 -0.0604
11 14 3 -1.7447 -0.0088
11 14 4 0.1895 0.0023
11 14 5 3.1105 -0.0310
11 14 6 1.5964 0.0001
11 14 7 -2.9633 0.0275
11 14 8 -3.7946 0.0031
11 14 9 -1.6061 -0.0199
11 14 10 2.5614 -0.0181
11 14 11 1.8861 0.0015
11 14 12 1.1730 0.0049
11 14 13 0.1313 0.0018
11 14 14 -0.2681 0.0059
11 14 15 -0.5089 0.0475
11 14 16 -1.2296 0.0203
11 14 17 -0.6776 -0.0246
11 14 18 -0.5461 -0.0310
11 14 19 0.7253 -0.0559
11 14 20 0.1577 0.0341
11 15 0 0.4904 -0.0247
11 15 1 -1.6088 -0.0607
11 15 2 -0.6508 -0.0086
11 15 3 0.9957 0.0266
11 15 4 1.0561 -0.0129
11 15 5 -2.1304 0.0353
11 15 6 -3.4250 0.0239
11 15 7 1.0951 0.0019
11 15 8 4.1240 -0.0253
11 15 9 1.3955 -0.0046
11 15 10 -0.2797 0.0120
11 15 11 -1.0318 0.0171
11 15 12 0.0490 0.0288
11 15 13 -1.3007 0.0119
11 15 14 -1.4891 0.0066
11 15 15 -0.8086 -0.0286
11 15 16 1.6792 -0.0500
11 15 17 2.2466 0.0022
11 15 18 -1.1783 -0.0086
11 15 19 0.1954 0.0194
11 16 0 -0.3127 -0.0395
11 16 1 0.6170 0.0594
11 16 2 1.9180 0.0582
11 16 3 -0.9229 -0.0191
11 16 4 -1.2326 -0.0052
11 16 5 0.6057 0.0218
11 16 6 2.2573 -0.0300
11 16 7 1.0622 -0.0085
11 16 8 -2.8459 -0.0129
11 16 9 -1.4912 0.0216
11 16 10 1.2297 0.0108
11 16 11 -0.5733 0.0137
11 16 12 0.2154 -0.0193
11 16 13 0.2061 -0.0588
11 16 14 -0.0706 -0.0241
11 16 15 1.0574 0.0008
11 16 16 1.6564 0.0216
11 16 17 -1.4114 -0.0102
11 16 18 -1.9079 -0.0041
11 17 0 1.1378 0.0972
11 17 1 -1.4268 0.0580
11 17 2 1.1600 -0.0184
11 17 3 -0.3451 -0.0593
11 17 4 1.1320 -0.0092
11 17 5 0.0632 0.0073
11 17 6 -0.7329 -0.0195
11 17 7 0.1752 0.0073
11 17 8 0.5578 -0.0053
11 17 9 0.8822 0.0273
11 17 10 -1.9058 -0.0090
11 17 11 -1.5440 -0.0234
11 17 12 2.4991 -0.0305
11 17 13 0.3357 0.0204
11 17 14 -0.6586 0.0505
11 17 15 0.1314 0.0197
11 17 16 -0.9865 -0.0094
11 17 17 -0.6017 0.0062
11 18 0 -0.2290 -0.0162
11 18 1 0.6719 -0.1124
11 18 2 1.8874 -0.0519
11 18 3 -1.6857 -0.0150
11 18 4 -0.0422 0.0552
11 18 5 -1.4383 0.0172
11 18 6 -0.0741 0.0111
11 18 7 -0.4090 0.0413
11 18 8 -1.7862 -0.0113
11 18 9 0.1957 -0.0054
11 18 10 0.8581 -0.0424
11 18 11 2.3580 0.0006
11 18 12 1.5066 0.0241
11 18 13 -2.0628 0.0180
11 18 14 -1.1460 -0.0015
11 18 15 -0.6794 -0.0087
11 18 16 0.9113 -0.0148
11 18 17 1.8284 0.0196
11 19 0 -1.2598 -0.2316
11 19 1 -0.0959 0.0604
11 19 2 -0.7678 0.0788
11 19 3 -1.4463 0.0531
11 19 4 0.4773 0.0035
11 19 5 -0.9623 -0.0530
11 19 6 2.4660 0.0021
11 19 7 1.9274 -0.0295
11 19 8 0.7247 -0.0546
11 19 9 -0.1779 0.0171
11 19 10 -1.5531 0.0070
11 19 11 0.1357 0.0524
11 19 12 -0.3261 0.0226
11 19 13 -0.8437 -0.0006
11 19 14 0.2442 -0.0019
11 19 15 0.5606 -0.0144
11 20 0 -1.3812 0.0371
11 20 1 0.3903 0.0627
11 20 2 0.8168 -0.0298
11 20 3 1.3122 0.0191
11 20 4 0.1055 -0.0508
11 20 5 0.2928 0.0085
11 20 6 1.8296 0.0443
11 20 7 -2.7873 -0.0012
11 20 8 -3.0267 0.0240
11 20 9 -0.4145 0.0232
11 20 10 2.2466 -0.0156
11 20 11 2.1617 0.0287
11 20 12 -0.6415 -0.0371
11 20 13 -1.5234 -0.0603
11 20 14 -0.8918 -0.0220
11 21 2 0.8490 0.0513
11 21 3 -2.4878 0.0029
11 21 4 -1.3923 -0.0619
11 21 5 1.2431 -0.0008
11 21 6 -0.2567 -0.0275
11 21 7 -1.1046 0.0067
11 21 8 1.2347 0.0020
11 21 9 1.7905 -0.0240
11 21 10 0.9891 0.0081
11 21 11 -1.8981 0.0208
12 -13 0 1.2155 0.0628
12 -12 0 -1.5498 -0.0081
12 -12 1 -1.9819 -0.1560
12 -12 2 0.6388 0.0714
12 -12 3 2.6588 -0.0108
12 -12 4 0.6035 0.0094
12 -12 5 -1.4672 -0.0947
12 -11 0 -1.4563 -0.2420
12 -11 1 3.2108 0.0373
12 -11 2 1.4001 0.0875
12 -11 3 -0.0776 -0.0475
12 -11 4 -1.6210 0.1130
12 -11 5 -1.2100 -0.0350
12 -11 6 0.2957 0.0723
12 -11 7 1.2604 0.0240
12 -10 0 1.7892 0.0105
12 -10 1 0.6723 0.2003
12 -10 2 -3.2457 -0.0302
12 -10 3 -0.6302 0.0229
12 -10 4 -0.3479 -0.0099
12 -10 5 1.5279 -0.1589
12 -10 6 1.2595 0.0223
12 -10 7 -0.6598 0.0433
12 -10 8 -1.2368 0.0573
12 -10 9 -0.2649 0.0396
12 -9 0 -0.0042 0.1328
12 -9 1 -1.1604 -0.0031
12 -9 2 0.4495 -0.0712
12 -9 3 3.6386 0.0137
12 -9 4 -0.3171 -0.0282
12 -9 5 -0.6325 0.0083
12 -9 6 -1.3842 0.0632
12 -9 7 -0.7332 0.0417
12 -9 8 0.8668 -0.0602
12 -9 9 1.4656 -0.0875
12 -9 10 0.6550 0.0440
12 -8 0 0.5729 0.0210
12 -8 1 -0.5520 -0.0311
12 -8 2 0.2970 -0.0020
12 -8 3 -1.0192 -0.0291
12 -8 4 -2.7237 -0.0100
12 -8 5 2.1785 -0.0075
12 -8 6 -0.2853 0.0138
12 -8 7 -0.3866 0.0502
12 -8 8 0.7362 -0.0581
12 -8 9 0.0310 -0.0249
12 -8 10 -0.8127 0.0233
12 -8 11 -0.6917 0.0111
12 -7 0 -2.7971 -0.0466
12 -7 1 0.5114 0.0155
12 -7 2 1.9908 -0.0094
12 -7 3 0.3181 -0.0107
12 -7 4 -0.1064 0.0529
12 -7 5 -0.3026 -0.0095
12 -7 6 -2.1402 0.0113
12 -7 7 2.9938 0.0190
12 -7 8 0.5653 -0.0393
12 -7 9 -0.7843 0.0117
12 -7 10 0.2782 0.0109
12 -7 11 -0.2714 0.0289
12 -7 12 -0.9010 -0.0111
12 -6 0 2.0576 0.0666
12 -6 1 1.2532 0.0206
12 -6 2 -2.7873 -0.0389
12 -6 3 -2.0760 -0.0095
12 -6 4 0.5499 -0.0022
12 -6 5 1.8936 -0.0184
12 -6 6 0.6389 0.0325
12 -6 7 -0.4417 -0.0033
12 -6 8 -2.3760 -0.0392
12 -6 9 1.2497 -0.0255
12 -6 10 -0.0894 0.0066
12 -6 11 -0.8703 0.0459
12 -5 0 -1.7664 -0.0265
12 -5 1 -1.8771 -0.0569
12 -5 2 1.8234 -0.0099
12 -5 3 2.7660 0.0122
12 -5 4 -0.0305 0.0128
12 -5 5 -1.4666 0.0330
12 -5 6 -1.4382 0.0076
12 -5 7 2.1777 0.0019
12 -5 8 1.6021 0.0022
12 -5 9 -1.3054 -0.0058
12 -5 10 -1.5520 0.0113
12 -4 0 1.3391 -0.0550
12 -4 1 1.6753 0.0127
12 -4 2 0.0756 0.0453
12 -4 3 -2.6520 0.0021
12 -4 4 -0.0860 0.0212
12 -4 5 2.0972 0.0091
12 -4 6 0.0187 -0.0310
12 -4 7 -0.3143 -0.0216
12 -4 8 -3.4205 -0.0464
12 -4 9 -1.1248 0.0013
12 -3 0 -0.3758 0.0682
12 -3 1 -0.0580 0.0472
12 -3 2 0.3607 -0.0112
12 -3 3 -1.3795 -0.0291
12 -3 4 1.0084 -0.0093
12 -3 5 -0.8262 -0.0155
12 -3 6 -1.4815 0.0039
12 -3 7 1.2922 0.0094
12 -3 8 -0.1310 0.0104
12 -3 9 3.1991 0.0169
12 -2 0 -0.1056 0.0124
12 -2 1 0.9977 -0.0926
12 -2 2 -3.2544 -0.0282
12 -2 3 -1.5839 -0.0012
12 -2 4 4.6023 0.0211
12 -2 5 1.6943 0.0309
12 -2 6 -0.4022 -0.0073
12 -2 7 -1.0370 -0.0125
12 -2 8 -0.8246 -0.0100
12 -2 9 1.7691 -0.0050
12 -2 10 -2.7280 0.0186
12 -1 0 0.5990 -0.1301
12 -1 1 0.0461 0.0101
12 -1 2 -0.7354 0.0428
12 -1 3 4.0387 0.0395
12 -1 4 2.0402 0.0427
12 -1 5 -4.1398 -0.0129
12 -1 6 -3.6607 -0.0237
12 -1 7 -0.2772 -0.0044
12 -1 8 2.3085 -0.0255
12 -1 9 1.4869 0.0210
12 -1 10 -1.7641 0.0147
12 0 0 2.5405 0.0325
12 0 1 -0.8369 0.0862
12 0 2 1.0300 0.0056
12 0 3 -0.5110 0.0245
12 0 4 -2.1289 -0.0460
12 0 5 -1.0407 -0.0586
12 0 6 0.8522 -0.0114
12 0 7 3.1232 -0.0020
12 0 8 1.5776 0.0293
12 0 9 -2.1502 0.0294
12 0 10 -1.7742 -0.0081
12 1 0 -2.9075 0.1531
12 1 1 1.2357 -0.0595
12 1 2 -0.3792 -0.0615
12 1 3 -1.7241 -0.0172
12 1 4 2.2602 -0.0522
12 1 5 -0.6848 0.0318
12 1 6 -1.0038 0.0287
12 1 7 1.3602 0.0214
12 1 8 -1.2295 0.0085
12 1 9 0.0151 -0.0142
12 1 10 2.4160 0.0143
12 1 11 -1.4283 -0.0199
12 2 0 2.0697 -0.0565
12 2 1 2.7213 -0.1336
12 2 2 -2.1209 0.0405
12 2 3 0.5943 0.0083
12 2 4 -0.5533 0.0304
12 2 5 -1.9992 0.0635
12 2 6 3.2511 -0.0151
12 2 7 1.7094 0.0084
12 2 8 -2.6245 -0.0165
12 2 9 -0.2715 -0.0049
12 2 10 -1.2948 -0.0109
12 2 11 -2.4723 -0.0257
12 3 0 1.7927 -0.1483
12 3 1 -2.9328 0.0470
12 3 2 -1.5139 0.0696
12 3 3 -0.1007 0.0011
12 3 4 0.2643 0.0617
12 3 5 1.2202 -0.0284
12 3 6 0.8854 -0.0522
12 3 7 -2.3908 -0.0083
12 3 8 -1.7955 -0.0197
12 3 9 3.0987 0.0232
12 3 10 1.2259 -0.0049
12 3 11 -0.2654 0.0084
12 3 12 1.9302 0.0066
12 3 13 -1.6754 -0.0005
12 4 0 -0.0193 0.0363
12 4 1 1.5024 0.1262
12 4 2 0.6239 -0.0361
12 4 3 -0.7739 -0.0004
12 4 4 0.2946 -0.0172
12 4 5 0.2935 -0.0718
12 4 6 2.0702 0.0056
12 4 7 -2.1165 0.0094
12 4 8 -0.8838 0.0215
12 4 9 2.3687 0.0055
12 4 10 -0.9524 -0.0178
12 4 11 -0.4384 0.0105
12 4 12 0.1795 -0.0157
12 4 13 -2.2338 0.0019
12 4 14 -0.3153 -0.0010
12 5 0 2.0075 0.1442
12 5 1 -2.0583 -0.0517
12 5 2 -2.4754 -0.0601
12 5 3 1.6390 0.0256
12 5 4 1.8610 -0.0437
12 5 5 0.1978 0.0121
12 5 6 -1.5941 0.0402
12 5 7 -2.0850 0.0100
12 5 8 3.2253 0.0141
12 5 9 0.9762 -0.0163
12 5 10 -1.7381 0.0023
12 5 11 -2.8326 -0.0013
12 5 12 -1.4959 0.0125
12 5 13 2.6907 0.0338
12 5 14 2.5693 0.0127
12 5 15 1.0962 -0.0013
12 5 16 -1.8661 -0.0086
12 5 17 -0.7561 0.0118
12 6 0 -2.6227 -0.0480
12 6 1 -0.8978 -0.0907
12 6 2 1.5463 0.0519
12 6 3 1.1470 0.0011
12 6 4 -2.0920 -0.0059
12 6 5 -1.6089 0.0537
12 6 6 0.8913 -0.0024
12 6 7 0.7846 -0.0294
12 6 8 -1.6167 -0.0145
12 6 9 -1.0800 -0.0039
12 6 10 1.5085 0.0169
12 6 11 0.8495 0.0099
12 6 12 4.1884 0.0044
12 6 13 0.8817 -0.0289
12 6 14 -3.5353 -0.0210
12 6 15 -1.5469 -0.0386
12 6 16 -1.8823 -0.0261
12 6 17 0.4936 0.0084
12 6 18 0.1273 0.0294
12 6 19 1.0483 0.0422
12 7 0 -1.7096 -0.0815
12 7 1 1.1564 0.0719
12 7 2 1.5400 0.0417
12 7 3 0.5773 -0.0231
12 7 4 -1.5783 0.0084
12 7 5 0.6517 -0.0117
12 7 6 1.0378 -0.0433
12 7 7 0.0183 -0.0057
12 7 8 0.8144 0.0236
12 7 9 1.3850 0.0122
12 7 10 -0.8793 0.0069
12 7 11 -2.3154 -0.0068
12 7 12 -1.7967 -0.0176
12 7 13 -1.7456 -0.0137
12 7 14 2.0019 0.0182
12 7 15 1.9650 -0.0025
12 7 16 0.2221 0.0210
12 7 17 0.9427 0.0360
12 7 18 -0.5116 0.0527
12 7 19 1.2664 -0.0407
12 8 0 0.9142 0.0725
12 8 1 2.0432 0.0263
12 8 2 -1.2500 -0.0537
12 8 3 -3.2165 -0.0126
12 8 4 -0.7001 -0.0064
12 8 5 1.9378 -0.0158
12 8 6 0.2543 0.0161
12 8 7 -0.9505 0.0281
12 8 8 -1.8662 0.0109
12 8 9 0.9434 0.0043
12 8 10 1.6071 -0.0082
12 8 11 -0.2998 -0.0211
12 8 12 1.1856 -0.0196
12 8 13 2.5015 0.0083
12 8 14 -0.6730 0.0233
12 8 15 -3.5770 -0.0199
12 8 16 -1.1614 0.0138
12 8 17 0.7318 0.0242
12 8 18 0.7165 0.0095
12 8 19 0.9301 -0.0578
12 9 0 -0.5345 -0.0137
12 9 1 0.1887 -0.0572
12 9 2 -0.9583 -0.0141
12 9 3 2.2770 0.0282
12 9 4 1.3112 -0.0075
12 9 5 -1.4364 0.0141
12 9 6 -0.7041 0.0349
12 9 7 1.4817 -0.0080
12 9 8 2.4542 -0.0057
12 9 9 0.1408 -0.0166
12 9 10 -4.7233 -0.0157
12 9 11 -2.3801 0.0134
12 9 12 1.7107 0.0083
12 9 13 1.4392 0.0188
12 9 14 -1.5069 0.0038
12 9 15 0.0294 0.0082
12 9 16 3.3672 0.0208
12 9 17 0.6055 -0.0199
12 9 18 -1.1313 -0.0021
12 9 19 -0.0722 -0.0590
12 10 0 0.2977 -0.0805
12 10 1 -0.1216 0.0128
12 10 2 -1.6166 0.0312
12 10 3 -1.9137 0.0316
12 10 4 -2.1659 -0.0090
12 10 5 1.6474 0.0187
12 10 6 2.1451 -0.0140
12 10 7 0.0490 -0.0318
12 10 8 -3.0143 -0.0021
12 10 9 -3.3394 -0.0139
12 10 10 2.5042 0.0075
12 10 11 4.9135 0.0000
12 10 12 2.0382 -0.0070
12 10 13 -0.9750 -0.0020
12 10 14 -3.9173 -0.0055
12 10 15 0.6051 0.0014
12 10 16 1.0017 -0.0261
12 10 17 -2.2546 0.0052
12 10 18 0.7509 -0.0084
12 10 19 0.2334 -0.0566
12 11 0 -1.2418 0.0952
12 11 1 -1.2540 0.0252
12 11 2 -1.4840 -0.0266
12 11 3 1.9651 -0.0189
12 11 4 2.7043 -0.0223
12 11 5 0.2233 -0.0084
12 11 6 -2.4321 -0.0220
12 11 7 0.2667 0.0112
12 11 8 0.9976 0.0111
12 11 9 1.8091 0.0104
12 11 10 1.1667 0.0196
12 11 11 -2.7201 0.0156
12 11 12 -1.4285 -0.0027
12 11 13 -1.0697 -0.0111
12 11 14 -0.4616 0.0340
12 11 15 2.5559 0.0051
12 11 16 -0.4148 -0.0167
12 11 17 0.2531 -0.0052
12 11 18 0.6681 -0.0225
12 12 0 -1.0669 0.0511
12 12 1 -0.3856 -0.0848
12 12 2 1.5938 -0.0102
12 12 3 1.8435 0.0217
12 12 4 -1.5801 0.0277
12 12 5 -1.1807 0.0048
12 12 6 1.8365 0.0183
12 12 7 2.2870 0.0108
12 12 8 -3.1447 0.0041
12 12 9 -2.2161 0.0082
12 12 10 0.1804 -0.0226
12 12 11 0.7599 -0.0066
12 12 12 1.7892 -0.0179
12 12 13 -0.9213 0.0066
12 12 14 -0.6162 -0.0047
12 12 15 0.8129 -0.0374
12 12 16 0.9334 0.0266
12 12 17 0.4412 0.0002
12 12 18 -1.4975 0.0043
12 13 0 1.5653 -0.1119
12 13 1 -0.8706 -0.0408
12 13 2 -0.2473 0.0189
12 13 3 -0.6735 0.0289
12 13 4 -0.9134 0.0162
12 13 5 0.4000 -0.0258
12 13 6 -0.6293 -0.0005
12 13 7 -1.7680 -0.0248
12 13 8 -0.2057 0.0075
12 13 9 4.2494 -0.0193
12 13 10 0.6340 -0.0143
12 13 11 -1.7443 0.0228
12 13 12 -0.4156 -0.0232
12 13 13 -0.2159 0.0158
12 13 14 0.9535 0.0138
12 13 15 0.6833 0.0247
12 13 16 0.0681 -0.0083
12 13 17 -1.8628 -0.0655
12 13 18 -0.5324 0.0412
12 14 0 -5.5777 -0.0003
12 14 1 -0.9633 0.1031
12 14 2 3.7474 0.0157
12 14 3 0.2076 0.0082
12 14 4 -0.7684 -0.0313
12 14 5 0.6548 -0.0355
12 14 6 1.5961 0.0076
12 14 7 2.3039 -0.0112
12 14 8 -0.4798 0.0268
12 14 9 -3.0050 -0.0084
12 14 10 -3.5610 0.0197
12 14 11 1.0069 0.0096
12 14 12 2.3759 0.0010
12 14 13 0.9938 0.0170
12 14 14 -0.6112 -0.0484
12 14 15 -0.7555 0.0100
12 14 16 -0.1561 0.0109
12 14 17 -1.0530 0.0206
12 15 0 1.5668 0.1629
12 15 1 3.6822 -0.0461
12 15 2 -1.1077 -0.0774
12 15 3 -3.0378 0.0116
12 15 4 1.3851 -0.0229
12 15 5 0.6521 0.0187
12 15 6 -1.1749 0.0328
12 15 7 -2.5876 -0.0040
12 15 8 -1.9562 0.0229
12 15 9 2.7899 -0.0134
12 15 10 2.5411 0.0000
12 15 11 1.1645 -0.0163
12 15 12 0.2504 -0.0146
12 15 13 -0.4307 -0.0114
12 15 14 -2.3270 0.0501
12 15 15 -1.0322 0.0670
12 15 16 0.7356 -0.0751
12 16 0 -2.6470 -0.0037
12 16 1 -0.8423 -0.1190
12 16 2 0.2538 0.0401
12 16 3 2.0399 -0.0160
12 16 4 0.2346 -0.0048
12 16 5 -2.1591 0.0504
12 16 6 0.8462 0.0073
12 16 7 1.4943 -0.0157
12 16 8 1.5424 0.0165
12 16 9 -0.1456 -0.0153
12 16 10 -3.1282 -0.0070
12 16 11 -0.0181 0.0036
12 16 12 1.2595 0.0177
12 16 13 -0.5212 0.0148
12 16 14 -1.9625 -0.0187
12 16 15 1.4395 -0.0883
12 17 0 -0.7887 -0.1891
12 17 1 2.0080 0.0260
12 17 2 0.3149 0.0732
12 17 3 -0.7230 0.0224
12 17 4 -1.4022 0.0660
12 17 5 0.6213 -0.0190
12 17 6 1.5187 -0.0328
12 17 7 -0.9603 -0.0484
12 17 8 -0.1748 -0.0082
12 17 9 -0.1633 -0.0236
12 17 10 -0.0947 -0.0014
12 17 11 1.2149 0.0104
12 17 12 0.1972 -0.0169
12 17 13 -1.1052 -0.0134
12 17 14 -1.2458 0.0097
12 18 0 -0.9156 0.0575
12 18 1 2.0515 0.1399
12 18 2 -0.1422 -0.0434
12 18 3 -0.1226 -0.0328
12 18 4 -0.5334 -0.0678
12 18 5 0.8049 -0.0473
12 18 6 0.3530 0.0315
12 18 7 -0.6687 0.0165
12 18 8 -0.8486 0.0754
12 18 9 -2.0176 -0.0056
12 18 10 -0.1185 0.0086
12 18 11 2.1161 0.0073
12 18 12 0.9411 0.0129
12 18 13 -1.1013 0.0325
12 19 3 0.1268 0.0615
12 19 4 -0.4743 -0.0289
12 19 5 0.3524 0.0446
12 19 6 -0.5256 0.0438
12 19 7 -0.4906 -0.0298
12 19 8 0.5106 -0.0461
12 19 9 1.7782 -0.0739
12 19 10 2.2053 0.0365
12 19 11 -0.1354 0.0230
13 -9 0 1.6149 0.2592
13 -9 1 -1.7832 0.0511
13 -9 2 -1.3396 -0.1200
13 -9 3 1.2790 0.0077
13 -9 5 0.8232 0.0095
13 -8 0 -0.3949 0.1693
13 -8 1 -0.4744 -0.1328
13 -8 2 2.4648 -0.0356
13 -8 3 -0.0972 0.0000
13 -8 4 -1.9514 0.0036
13 -8 5 -0.5124 0.0980
13 -8 6 -0.0420 0.0075
13 -8 7 0.4030 -0.0215
13 -7 0 0.1895 -0.0857
13 -7 1 0.0596 -0.1118
13 -7 2 -0.5109 0.0143
13 -7 3 -0.9186 0.0070
13 -7 4 1.2445 0.0366
13 -7 5 0.2097 -0.0029
13 -7 6 -0.0413 0.0105
13 -7 7 0.4922 -0.0199
13 -7 8 -0.3531 -0.0462
13 -6 0 0.9466 -0.0238
13 -6 1 0.6082 0.0773
13 -6 2 0.2453 0.0161
13 -6 3 -0.4089 0.0008
13 -6 4 -1.1223 0.0022
13 -6 5 -0.6008 0.0120
13 -6 6 3.2457 0.0301
13 -6 7 -0.3916 -0.0435
13 -6 8 -2.6201 0.0067
13 -6 9 0.6192 -0.0160
13 -6 10 0.1211 -0.0098
13 -5 0 0.8530 0.0818
13 -5 1 -2.5933 -0.0215
13 -5 2 -1.0157 -0.0364
13 -5 3 1.8223 0.0260
13 -5 4 1.4794 -0.0010
13 -5 5 0.3762 0.0095
13 -5 6 -0.5551 -0.0374
13 -5 7 -3.3507 -0.0261
13 -5 8 1.4975 0.0356
13 -5 9 2.0475 -0.0178
13 -5 10 -0.7413 0.0412
13 -4 0 -1.6399 0.0104
13 -4 1 0.5306 -0.0825
13 -4 2 3.9857 0.0240
13 -4 3 0.4636 -0.0190
13 -4 4 -3.4222 -0.0028
13 -4 5 -0.8777 0.0464
13 -4 6 1.7682 0.0018
13 -4 7 0.5403 0.0036
13 -4 8 -0.1999 -0.0283
13 -4 9 -1.8481 -0.0346
13 -4 10 1.2939 0.0129
13 -4 11 0.2409 0.0136
13 -3 0 0.7926 -0.2252
13 -3 1 1.4596 0.0159
13 -3 2 -0.9429 0.0570
13 -3 3 -3.0495 -0.0108
13 -3 4 0.6421 0.0533
13 -3 5 2.2078 -0.0340
13 -3 6 -0.6833 -0.0555
13 -3 7 -2.4861 -0.0176
13 -3 8 -0.3783 0.0253
13 -3 9 2.6522 0.0232
13 -3 10 2.1357 0.0064
13 -3 11 -2.7189 0.0389
13 -2 0 -1.0039 0.0075
13 -2 1 0.3752 0.1244
13 -2 2 -1.9040 -0.0460
13 -2 3 1.1407 0.0280
13 -2 4 1.6166 -0.0031
13 -2 5 -1.4184 -0.0333
13 -2 6 -0.6600 0.0276
13 -2 7 1.1491 -0.0004
13 -2 8 2.7240 0.0198
13 -2 9 1.6404 -0.0147
13 -2 10 -2.8406 0.0353
13 -2 11 -3.4001 0.0115
13 -1 0 0.9394 0.1064
13 -1 1 0.3572 -0.0257
13 -1 2 -0.0499 -0.0025
13 -1 3 2.3394 0.0369
13 -1 4 -0.4458 -0.0581
13 -1 5 -0.4059 0.0083
13 -1 6 -0.0704 -0.0003
13 -1 7 -0.0989 0.0197
13 -1 8 -0.4688 0.0205
13 -1 9 -2.7559 -0.0224
13 -1 10 -2.4267 -0.0171
13 -1 11 1.8239 -0.0402
13 0 0 2.7715 -0.0250
13 0 1 0.1191 -0.0763
13 0 2 -0.0926 0.0403
13 0 3 -0.3108 -0.0076
13 0 4 -1.9115 0.0049
13 0 5 -2.5681 0.0214
13 0 6 -0.3040 -0.0081
13 0 7 2.5322 -0.0058
13 0 8 0.7174 -0.0282
13 0 9 1.0147 0.0066
13 0 10 1.4616 0.0055
13 0 11 0.7134 0.0424
13 0 12 -0.0819 0.0022
13 1 0 0.5261 -0.0746
13 1 1 -1.2596 0.0389
13 1 2 -1.1493 0.0375
13 1 3 -0.7185 -0.0272
13 1 4 -0.5623 -0.0038
13 1 5 2.2932 -0.0261
13 1 6 4.2103 -0.0078
13 1 7 -0.9412 0.0022
13 1 8 -1.9771 0.0069
13 1 9 0.1603 -0.0045
13 1 10 -2.0058 -0.0009
13 1 11 -1.2079 0.0072
13 1 12 0.8934 -0.0255
13 2 0 -0.5172 0.0377
13 2 1 0.0968 0.0233
13 2 2 -0.5576 -0.0236
13 2 3 0.1879 0.0037
13 2 4 0.8320 0.0087
13 2 5 0.7437 -0.0133
13 2 6 -1.9348 0.0150
13 2 7 -1.5411 0.0215
13 2 8 1.4759 0.0188
13 2 9 -0.5119 0.0196
13 2 10 -1.8174 -0.0033
13 2 11 0.4032 -0.0095
13 2 12 3.1984 0.0109
13 2 13 -0.1494 -0.0264
13 3 0 1.9691 0.0024
13 3 1 -0.6260 -0.0334
13 3 2 -2.2345 0.0007
13 3 3 0.0669 0.0070
13 3 4 1.4110 0.0065
13 3 5 1.0160 0.0099
13 3 6 0.3322 0.0182
13 3 7 -0.9622 -0.0101
13 3 8 -1.4367 -0.0256
13 3 9 1.4967 -0.0333
13 3 10 1.2476 -0.0209
13 3 11 0.9840 0.0146
13 3 12 1.8407 -0.0202
13 3 13 -3.6497 0.0116
13 3 14 -0.7126 0.0503
13 4 0 0.1837 -0.0585
13 4 1 -0.8475 0.0181
13 4 2 0.4968 0.0193
13 4 3 2.4548 -0.0020
13 4 4 0.9313 -0.0067
13 4 5 -1.4650 -0.0211
13 4 6 -1.2419 -0.0224
13 4 7 -1.4924 -0.0156
13 4 8 1.8301 0.0038
13 4 9 1.5587 0.0147
13 4 10 -3.7777 0.0202
13 4 11 -0.2583 0.0048
13 4 12 1.5050 0.0399
13 4 13 -1.8221 0.0296
13 4 14 1.6204 -0.0652
13 4 15 0.3224 -0.0278
13 5 0 0.6971 0.0430
13 5 1 0.3056 0.0275
13 5 2 -1.9868 -0.0188
13 5 3 1.2911 -0.0214
13 5 4 -1.0330 0.0035
13 5 5 -0.8353 0.0098
13 5 6 -0.1275 -0.0013
13 5 7 -1.1324 0.0143
13 5 8 3.0108 0.0172
13 5 9 1.0506 0.0193
13 5 10 -0.3651 -0.0009
13 5 11 1.9124 0.0054
13 5 12 -1.7439 -0.0014
13 5 13 -2.1178 -0.0906
13 5 14 1.5724 0.0014
13 5 15 -0.3492 0.0579
13 5 16 0.0661 0.0020
13 6 0 0.9746 0.0591
13 6 1 -0.4473 -0.0383
13 6 2 0.7900 -0.0157
13 6 3 1.9767 -0.0047
13 6 4 -3.4991 0.0255
13 6 5 0.7094 0.0053
13 6 6 0.8345 0.0065
13 6 7 1.4855 0.0210
13 6 8 1.2353 -0.0117
13 6 9 -3.9754 -0.0090
13 6 10 -2.3449 -0.0109
13 6 11 -0.7741 0.0029
13 6 12 1.0810 -0.0309
13 6 13 3.7591 -0.0103
13 6 14 0.9577 0.0801
13 6 15 -2.0024 -0.0145
13 6 16 0.0182 -0.0340
13 7 0 0.3160 -0.1155
13 7 1 -1.8827 -0.0251
13 7 2 -1.1508 0.0322
13 7 3 -0.4444 0.0200
13 7 4 0.0418 0.0180
13 7 5 2.5323 -0.0188
13 7 6 -1.7556 -0.0176
13 7 7 -0.8196 -0.0219
13 7 8 -0.5240 -0.0193
13 7 9 1.1085 0.0200
13 7 10 2.7312 -0.0069
13 7 11 1.0869 -0.0213
13 7 12 0.8736 -0.0025
13 7 13 -2.2817 0.0287
13 7 14 -3.0513 0.0179
13 7 15 -0.3629 -0.0381
13 7 16 1.2957 -0.0061
13 8 0 1.6479 -0.0091
13 8 1 -0.1916 0.0736
13 8 2 1.8650 0.0152
13 8 3 0.8247 -0.0069
13 8 4 -1.8006 -0.0227
13 8 5 -0.4770 -0.0171
13 8 6 0.0717 0.0100
13 8 7 2.1865 0.0182
13 8 8 0.1524 0.0067
13 8 9 -0.9332 0.0230
13 8 10 -1.1311 -0.0062
13 8 11 -1.1192 0.0174
13 8 12 -0.7838 0.0061
13 8 13 0.2238 -0.0269
13 8 14 1.6533 0.0196
13 8 15 0.4732 -0.0016
13 8 16 0.6064 -0.0082
13 9 0 -0.1468 0.1336
13 9 1 -2.3728 -0.0016
13 9 2 -0.3359 -0.0100
13 9 3 -0.8918 -0.0251
13 9 4 0.5520 -0.0260
13 9 5 0.9937 0.0076
13 9 6 -1.3210 0.0169
13 9 7 0.3039 0.0059
13 9 8 0.3239 -0.0060
13 9 9 0.0793 0.0023
13 9 10 -0.3936 -0.0319
13 9 11 -0.8654 -0.0005
13 9 12 0.6174 -0.0184
13 9 13 1.3015 0.0205
13 9 14 -0.2292 0.0466
13 9 15 -0.3693 -0.0337
13 9 16 0.5210 -0.0044
13 10 0 -1.1351 -0.0390
13 10 1 -1.4383 -0.1335
13 10 2 0.9146 0.0073
13 10 3 0.0897 -0.0146
13 10 4 -0.8172 0.0301
13 10 5 -0.8580 0.0382
13 10 6 1.9064 0.0117
13 10 7 3.8964 -0.0055
13 10 8 -2.1326 -0.0357
13 10 9 -4.2299 -0.0035
13 10 10 0.7842 0.0207
13 10 11 2.2682 0.0138
13 10 12 1.5822 -0.0202
13 10 13 0.1869 0.0135
13 10 14 -1.6814 0.0019
13 10 15 -0.9923 -0.0274
13 10 16 0.1079 -0.0231
13 11 0 -1.6455 -0.1884
13 11 1 0.0521 0.0485
13 11 2 2.1132 0.0531
13 11 3 0.2855 -0.0220
13 11 4 0.7701 0.0470
13 11 5 0.5426 -0.0282
13 11 6 -0.2145 -0.0348
13 11 7 -2.0666 -0.0315
13 11 8 -4.3988 -0.0180
13 11 9 2.7582 0.0543
13 11 10 5.0300 -0.0034
13 11 11 -2.0460 -0.0123
13 11 12 -1.7063 0.0167
13 11 13 -1.2652 0.0072
13 11 14 -0.6811 0.0005
13 11 15 2.2050 -0.0127
13 12 0 -0.8650 0.0818
13 12 1 -0.1594 0.0896
13 12 2 0.1183 -0.0450
13 12 3 -0.7487 0.0700
13 12 4 -0.7237 0.0188
13 12 5 -1.9861 -0.0835
13 12 6 1.0386 0.0055
13 12 7 2.4298 0.0182
13 12 8 1.2521 0.0586
13 12 9 1.9810 0.0388
13 12 10 -3.1448 -0.0266
13 12 11 -3.1332 0.0112
13 12 12 2.2170 -0.0317
13 12 13 0.9102 -0.0124
13 12 14 1.3250 0.0113
13 12 15 -0.2839 -0.0213
13 13 0 -0.4630 0.1536
13 13 1 2.0910 -0.1045
13 13 2 1.4637 -0.0475
13 13 3 -0.7600 0.0167
13 13 4 -0.7727 -0.0906
13 13 5 0.5906 0.0050
13 13 6 2.7431 0.0635
13 13 7 -1.0811 0.0266
13 13 8 -3.7423 0.0107
13 13 9 -0.9415 -0.0527
13 13 10 0.2505 -0.0420
13 13 11 2.0036 -0.0315
13 13 12 1.7538 -0.0197
13 13 13 -0.1791 0.0149
13 13 14 -1.0433 -0.0043
13 14 0 -1.0569 -0.1251
13 14 1 -1.2059 -0.1315
13 14 2 -1.4327 0.0735
13 14 3 -0.1920 0.0439
13 14 4 1.3612 -0.0030
13 14 5 0.5545 0.0415
13 14 6 0.0066 -0.0194
13 14 7 -1.5552 -0.0223
13 14 8 1.0530 -0.0281
13 14 9 2.4154 -0.0188
13 14 10 -1.3233 0.0008
13 14 11 -1.1175 0.0166
13 14 12 1.2162 0.0728
13 14 13 -0.4121 0.0395
13 15 0 -0.9864 -0.0832
13 15 1 3.3281 0.0277
13 15 2 1.2909 0.0467
13 15 3 -0.1828 -0.0182
13 15 4 -0.8383 0.0066
13 15 5 -0.8963 0.0209
13 15 6 0.5394 -0.0242
13 15 7 -0.3975 0.0086
13 15 8 -0.5138 0.0105
13 15 9 -1.6105 0.0141
13 15 10 -0.5504 0.0007
13 15 11 2.9621 0.0367
13 15 12 1.8062 0.0070
13 16 2 -2.6604 0.0545
13 16 3 0.8924 -0.0003
13 16 4 0.7538 -0.0476
13 16 5 0.2005 -0.0301
13 16 6 0.2403 -0.0263
13 16 7 -0.8320 0.0330
13 16 8 0.8631 0.0232
13 16 9 0.9686 -0.0074
13 16 10 0.4420 -0.0163
14 -4 1 1.3363 0.0475
14 -4 2 0.7272 0.0186
14 -4 3 0.5438 0.0208
14 -4 4 -0.5380 -0.0377
14 -3 0 1.1926 -0.0499
14 -3 1 1.7884 -0.0513
14 -3 2 0.2990 -0.0187
14 -3 3 -2.3253 -0.0077
14 -3 4 -2.1099 0.0199
14 -3 5 1.9473 0.0264
14 -3 6 1.4513 -0.0033
14 -2 0 0.0907 -0.1262
14 -2 1 0.2201 0.0959
14 -2 2 -1.3322 0.0483
14 -2 3 -1.0976 0.0116
14 -2 4 2.1521 -0.0040
14 -2 5 0.9696 -0.0208
14 -2 6 -2.0931 0.0063
14 -2 7 -0.5123 0.0258
14 -2 8 0.7114 0.0131
14 -1 0 0.6398 0.1641
14 -1 1 -0.0149 0.1085
14 -1 2 -0.1450 -0.0092
14 -1 3 0.3296 0.0183
14 -1 4 -0.0794 -0.0371
14 -1 5 -1.1833 -0.0017
14 -1 6 1.3206 -0.0111
14 -1 7 2.3812 -0.0060
14 -1 8 -0.2515 -0.0002
14 -1 9 -1.5343 0.0062
14 0 0 1.0983 0.1524
14 0 1 0.2314 -0.1105
14 0 2 0.0592 -0.0317
14 0 3 -1.0954 -0.0599
14 0 4 1.2549 -0.0272
14 0 5 -0.1634 0.0262
14 0 6 -0.5388 0.0095
14 0 7 -1.1480 0.0251
14 0 8 -1.6439 -0.0314
14 0 9 0.1733 -0.0258
14 0 10 1.0770 -0.0025
14 1 0 -0.1193 -0.1804
14 1 1 -0.1027 -0.0642
14 1 2 -1.9498 0.0347
14 1 3 -0.3050 0.0052
14 1 4 0.5409 0.0442
14 1 5 -2.2780 -0.0112
14 1 6 2.9088 0.0038
14 1 7 1.0797 -0.0139
14 1 8 -0.1192 -0.0011
14 1 9 1.0617 0.0183
14 1 10 -0.9137 0.0166
14 2 0 -0.8571 -0.0241
14 2 1 -1.2838 0.0971
14 2 2 -1.3106 -0.0064
14 2 3 2.1789 0.0334
14 2 4 1.2231 -0.0092
14 2 5 1.5309 -0.0155
14 2 6 0.3254 0.0036
14 2 7 -3.5832 -0.0124
14 2 8 1.7852 0.0181
14 2 9 -0.6798 -0.0044
14 2 10 -3.0097 0.0218
14 2 11 1.3923 -0.0011
14 3 0 -0.8213 0.1459
14 3 1 0.8539 -0.0505
14 3 2 0.5009 -0.0237
14 3 3 0.8297 0.0052
14 3 4 -0.2435 -0.0505
14 3 5 -1.9058 0.0193
14 3 6 -1.9321 0.0141
14 3 7 1.4086 0.0262
14 3 8 0.2709 0.0099
14 3 9 -2.8952 -0.0214
14 3 10 2.2142 -0.0107
14 3 11 4.0174 -0.0021
14 4 0 1.3095 -0.0967
14 4 1 -0.7446 -0.0957
14 4 2 -1.2652 0.0363
14 4 3 2.0060 -0.0080
14 4 4 0.3892 0.0334
14 4 5 -1.2606 0.0333
14 4 6 1.2282 -0.0270
14 4 7 0.3458 -0.0181
14 4 8 0.7249 -0.0286
14 4 9 2.5389 -0.0084
14 4 10 -0.9421 0.0079
14 4 11 -2.1524 -0.0055
14 4 12 -1.8713 -0.0096
14 5 0 0.4650 -0.1146
14 5 1 -0.3520 0.0662
14 5 2 0.8763 0.0268
14 5 3 0.4820 0.0088
14 5 4 -2.1449 0.0314
14 5 5 -0.4941 -0.0295
14 5 6 0.1307 -0.0161
14 5 7 -0.9414 -0.0050
14 5 8 0.6201 0.0014
14 5 9 -2.1821 0.0320
14 5 10 -1.5436 0.0076
14 5 11 3.5807 0.0340
14 5 12 0.8478 0.0210
14 6 0 -0.4010 0.0719
14 6 1 -1.4961 0.1113
14 6 2 0.2655 -0.0149
14 6 3 0.5280 0.0197
14 6 4 -0.7228 -0.0178
14 6 5 -0.3698 -0.0401
14 6 6 0.3672 0.0008
14 6 7 1.9777 0.0001
14 6 8 2.0681 0.0529
14 6 9 -0.1091 0.0135
14 6 10 0.2345 -0.0291
14 6 11 -1.0198 0.0093
14 6 12 -2.5340 -0.0865
14 7 0 0.5468 0.1154
14 7 1 -0.3159 -0.0312
14 7 2 0.5809 -0.0657
14 7 3 -1.6991 0.0107
14 7 4 0.1227 -0.0444
14 7 5 2.0961 0.0088
14 7 6 0.8017 0.0258
14 7 7 -0.8473 0.0002
14 7 8 -2.1801 0.0052
14 7 9 -2.1480 -0.0517
14 7 10 -0.5866 -0.0045
14 7 11 0.8138 -0.0190
14 7 12 2.0017 -0.0388
14 8 0 -0.8432 0.0090
14 8 1 -1.8948 -0.0865
14 8 2 1.0614 0.0081
14 8 3 1.6138 -0.0044
14 8 4 1.4443 -0.0270
14 8 5 -3.6468 0.0474
14 8 6 -1.7845 0.0066
14 8 7 1.6275 -0.0099
14 8 8 1.1639 -0.0038
14 8 9 0.9573 -0.0024
14 8 10 1.0787 0.0224
14 8 11 0.8869 0.0206
14 8 12 -0.4153 0.0565
14 9 0 -1.2755 -0.0788
14 9 1 0.2112 -0.0140
14 9 2 2.4605 0.0655
14 9 3 -1.5628 -0.0073
14 9 4 -2.4577 0.0312
14 9 5 -0.0630 0.0170
14 9 6 4.5345 -0.0231
14 9 7 0.6042 -0.0316
14 9 8 -1.8369 0.0095
14 9 9 -0.6149 0.0256
14 9 10 -0.6835 0.0039
14 9 11 -1.3829 -0.0047
14 10 0 -1.5507 -0.0470
14 10 1 1.3401 0.0644
14 10 2 -0.2251 -0.0425
14 10 3 -2.5833 -0.0237
14 10 4 0.9348 0.0155
14 10 5 0.1068 -0.0275
14 10 6 0.4230 0.0055
14 10 7 -0.1438 -0.0058
14 10 8 -0.3760 0.0378
14 10 9 -1.1126 -0.0240
14 10 10 -0.2028 -0.0019
14 10 11 1.0712 0.0040
14 11 1 0.3435 -0.0084
14 11 2 -0.5995 -0.0289
14 11 3 1.1494 0.0675
14 11 4 1.9857 -0.0325
14 11 5 -0.4041 -0.0197
14 11 6 2.4897 0.0231
14 11 7 -1.1847 -0.0182
14 11 8 -3.7261 0.0173
14 11 9 0.6029 0.0001
14 11 10 2.5740 0.0299
14 12 3 -0.5032 0.0622
14 12 4 -1.4901 -0.0150
14 12 5 -1.6965 0.0291
14 12 6 0.8296 -0.0009
14 12 7 -1.9442 -0.0279
0 0 0 0.0 0.0
;
_shelx_fab_checksum              43515
_olex2_submission_special_instructions 'No special instructions were received'
loop_
_space_group_symop_operation_xyz
'x, y, z'
'-x, -y, -z'
loop_
_atom_site_label
_atom_site_type_symbol
_atom_site_fract_x
_atom_site_fract_y
_atom_site_fract_z
_atom_site_U_iso_or_equiv
_atom_site_adp_type
_atom_site_occupancy
_atom_site_site_symmetry_order
_atom_site_calc_flag
_atom_site_refinement_flags_posn
_atom_site_refinement_flags_adp
_atom_site_refinement_flags_occupancy
_atom_site_disorder_assembly
_atom_site_disorder_group
Ni1 Ni 0.31186(4) 0.71637(2) 0.10126(2) 0.02661(13) Uani 1 1 d . . . . .
Ni2 Ni 0.17809(4) 0.84721(2) 0.01211(2) 0.02597(13) Uani 1 1 d . . . . .
O1 O 0.2089(2) 0.78839(13) 0.08238(12) 0.0293(7) Uani 1 1 d . . . . .
H1 H 0.156(4) 0.783(2) 0.106(2) 0.035 Uiso 1 1 d R . . . .
N1 N 0.1161(3) 0.72006(17) 0.19351(15) 0.0308(8) Uani 1 1 d . . . . .
H1A H 0.063(4) 0.697(2) 0.205(2) 0.037 Uiso 1 1 d R . . . .
N2 N 0.2094(3) 0.68452(16) 0.16839(15) 0.0302(8) Uani 1 1 d . . . . .
N3 N 0.3762(3) 0.63806(16) 0.11478(15) 0.0306(8) Uani 1 1 d . . . . .
N4 N 0.5237(3) 0.70223(16) 0.02240(15) 0.0303(8) Uani 1 1 d . . . . .
N5 N 0.4377(3) 0.73848(15) 0.04579(15) 0.0292(8) Uani 1 1 d . . . . .
N6 N 0.2027(3) 0.79108(16) -0.03718(15) 0.0307(8) Uani 1 1 d . . . . .
N7 N 0.2258(3) 0.79729(17) -0.09526(15) 0.0355(9) Uani 1 1 d . . . . .
N8 N 0.1917(3) 0.91064(16) -0.05429(14) 0.0292(8) Uani 1 1 d . . . . .
N9 N 0.1098(3) 0.95857(15) 0.05294(15) 0.0286(8) Uani 1 1 d . . . . .
N10 N 0.1076(3) 0.90102(15) 0.05984(14) 0.0268(8) Uani 1 1 d . . . . .
C1 C 0.1430(4) 0.75076(19) 0.23604(18) 0.0310(10) Uani 1 1 d . . . . .
C2 C 0.0733(4) 0.7509(2) 0.28992(19) 0.0360(11) Uani 1 1 d . . . . .
H2 H 0.011286 0.728105 0.299508 0.043 Uiso 1 1 calc R . . . .
C3 C 0.0939(4) 0.7840(2) 0.3294(2) 0.0417(12) Uani 1 1 d . . . . .
H3 H 0.046155 0.783464 0.365926 0.050 Uiso 1 1 calc R . . . .
C4 C 0.1846(4) 0.8184(2) 0.3160(2) 0.0440(12) Uani 1 1 d . . . . .
H4 H 0.198607 0.841064 0.343033 0.053 Uiso 1 1 calc R . . . .
C5 C 0.2539(4) 0.8186(2) 0.2621(2) 0.0396(11) Uani 1 1 d . . . . .
H5 H 0.314918 0.842083 0.252275 0.048 Uiso 1 1 calc R . . . .
C6 C 0.2348(4) 0.7851(2) 0.22291(19) 0.0345(10) Uani 1 1 d . . . . .
H6 H 0.283665 0.785158 0.186839 0.041 Uiso 1 1 calc R . . . .
C7 C 0.2202(4) 0.6240(2) 0.18634(18) 0.0314(10) Uani 1 1 d . . . . .
C8 C 0.1387(4) 0.5886(2) 0.23129(19) 0.0334(10) Uani 1 1 d . . . . .
C9 C 0.1099(4) 0.5974(2) 0.28958(19) 0.0341(10) Uani 1 1 d . . . . .
H9 H 0.144053 0.625911 0.302708 0.041 Uiso 1 1 calc R . . . .
C10 C 0.0309(4) 0.5645(2) 0.32871(19) 0.0352(10) Uani 1 1 d . . . . .
H10 H 0.012041 0.571261 0.368150 0.042 Uiso 1 1 calc R . . . .
C11 C -0.0210(4) 0.5219(2) 0.31156(19) 0.0354(11) Uani 1 1 d . . . . .
C12 C 0.0108(4) 0.5123(2) 0.2532(2) 0.0443(12) Uani 1 1 d . . . . .
H12 H -0.022098 0.483251 0.240186 0.053 Uiso 1 1 calc R . . . .
C13 C 0.0907(4) 0.5451(2) 0.2140(2) 0.0427(12) Uani 1 1 d . . . . .
H13 H 0.112265 0.537410 0.175024 0.051 Uiso 1 1 calc R . . . .
C14 C -0.1121(4) 0.4884(2) 0.3527(2) 0.0463(13) Uani 1 1 d . . . . .
H14A H -0.079390 0.462476 0.387703 0.069 Uiso 1 1 calc GR . . . .
H14B H -0.142713 0.463776 0.330883 0.069 Uiso 1 1 calc GR . . . .
H14C H -0.172629 0.517374 0.365843 0.069 Uiso 1 1 calc GR . . . .
C15 C 0.3173(4) 0.5968(2) 0.15638(18) 0.0321(10) Uani 1 1 d . . . . .
C16 C 0.3735(4) 0.5383(2) 0.1553(2) 0.0357(10) Uani 1 1 d . . . . .
H16 H 0.352142 0.501437 0.179453 0.043 Uiso 1 1 calc R . . . .
C17 C 0.4653(4) 0.5454(2) 0.1120(2) 0.0379(11) Uani 1 1 d . . . . .
H17 H 0.518879 0.514250 0.100897 0.045 Uiso 1 1 calc R . . . .
C18 C 0.4648(4) 0.60873(18) 0.08696(18) 0.0308(9) Uani 1 1 d . . . . .
C19 C 0.5376(4) 0.64287(19) 0.04070(19) 0.0311(9) Uani 1 1 d . . . . .
C20 C 0.6424(4) 0.61242(19) 0.01108(19) 0.0330(10) Uani 1 1 d . . . . .
C21 C 0.6355(4) 0.5706(2) -0.0223(2) 0.0460(12) Uani 1 1 d . . . . .
H21 H 0.564741 0.557741 -0.023478 0.055 Uiso 1 1 calc R . . . .
C22 C 0.7338(5) 0.5469(2) -0.0546(3) 0.0502(13) Uani 1 1 d . . . . .
H22 H 0.728371 0.519301 -0.078578 0.060 Uiso 1 1 calc R . . . .
C23 C 0.8404(4) 0.5641(2) -0.0512(2) 0.0470(12) Uani 1 1 d . . . . .
C24 C 0.8437(5) 0.6045(2) -0.0168(3) 0.0512(13) Uani 1 1 d . . . . .
H24 H 0.913914 0.616975 -0.013986 0.061 Uiso 1 1 calc R . . . .
C25 C 0.7446(4) 0.6281(2) 0.0148(2) 0.0420(11) Uani 1 1 d . . . . .
H25 H 0.749824 0.655379 0.039114 0.050 Uiso 1 1 calc R . . . .
C26 C 0.9480(6) 0.5408(3) -0.0859(3) 0.076(2) Uani 1 1 d . . . . .
H26A H 0.994870 0.573401 -0.101820 0.113 Uiso 1 1 calc GR . . . .
H26B H 0.928746 0.525692 -0.119061 0.113 Uiso 1 1 calc GR . . . .
H26C H 0.989781 0.508133 -0.059046 0.113 Uiso 1 1 calc GR . . . .
C27 C 0.4453(3) 0.79988(19) 0.01349(19) 0.0303(10) Uani 1 1 d . . . . .
C28 C 0.4138(3) 0.84717(19) 0.0431(2) 0.0321(10) Uani 1 1 d . . . . .
H28 H 0.387177 0.839057 0.084552 0.039 Uiso 1 1 calc R . . . .
C29 C 0.4215(4) 0.9068(2) 0.0116(2) 0.0390(11) Uani 1 1 d . . . . .
H29 H 0.398027 0.938873 0.031673 0.047 Uiso 1 1 calc R . . . .
C30 C 0.4637(4) 0.9194(2) -0.0494(2) 0.0444(13) Uani 1 1 d . . . . .
H30 H 0.471141 0.959506 -0.070314 0.053 Uiso 1 1 calc R . . . .
C31 C 0.4939(4) 0.8728(2) -0.0784(2) 0.0439(13) Uani 1 1 d . . . . .
H31 H 0.522074 0.880977 -0.119635 0.053 Uiso 1 1 calc R . . . .
C32 C 0.4839(4) 0.8133(2) -0.0481(2) 0.0373(11) Uani 1 1 d . . . . .
H32 H 0.503323 0.781829 -0.069183 0.045 Uiso 1 1 calc R . . . .
C33 C 0.0312(3) 0.87976(18) 0.11354(17) 0.0274(9) Uani 1 1 d . . . . .
C34 C 0.0308(4) 0.89946(19) 0.16594(18) 0.0308(10) Uani 1 1 d . . . . .
H34 H 0.082927 0.925652 0.168422 0.037 Uiso 1 1 calc R . . . .
C35 C -0.0474(4) 0.88024(19) 0.21525(18) 0.0320(10) Uani 1 1 d . . . . .
H35 H -0.049065 0.893688 0.251294 0.038 Uiso 1 1 calc R . . . .
C36 C -0.1226(4) 0.84134(19) 0.21118(18) 0.0324(10) Uani 1 1 d . . . . .
H36 H -0.173906 0.827379 0.245013 0.039 Uiso 1 1 calc R . . . .
C37 C -0.1233(3) 0.8229(2) 0.15852(19) 0.0331(10) Uani 1 1 d . . . . .
H37 H -0.176576 0.797428 0.155845 0.040 Uiso 1 1 calc R . . . .
C38 C -0.0452(3) 0.84176(18) 0.10875(18) 0.0280(9) Uani 1 1 d . . . . .
H38 H -0.044479 0.828819 0.072516 0.034 Uiso 1 1 calc R . . . .
C39 C 0.1592(3) 0.99168(19) 0.00118(18) 0.0290(9) Uani 1 1 d . . . . .
C40 C 0.1702(3) 1.05300(19) 0.00646(18) 0.0314(10) Uani 1 1 d . . . . .
C41 C 0.0913(4) 1.0811(2) 0.04540(19) 0.0333(10) Uani 1 1 d . . . . .
H41 H 0.029309 1.061251 0.066553 0.040 Uiso 1 1 calc R . . . .
C42 C 0.1037(4) 1.1380(2) 0.0532(2) 0.0420(11) Uani 1 1 d . . . . .
H42 H 0.048993 1.156847 0.078926 0.050 Uiso 1 1 calc R . . . .
C43 C 0.1957(4) 1.1677(2) 0.0234(3) 0.0522(14) Uani 1 1 d . . . . .
C44 C 0.2737(4) 1.1399(2) -0.0144(2) 0.0491(14) Uani 1 1 d . . . . .
H44 H 0.336196 1.159716 -0.034892 0.059 Uiso 1 1 calc R . . . .
C45 C 0.2626(4) 1.0837(2) -0.0231(2) 0.0382(11) Uani 1 1 d . . . . .
H45 H 0.317573 1.065480 -0.049246 0.046 Uiso 1 1 calc R . . . .
C46 C 0.2093(6) 1.2289(3) 0.0336(4) 0.085(2) Uani 1 1 d . . . . .
H46A H 0.284570 1.239427 0.016385 0.128 Uiso 1 1 calc GR . . . .
H46B H 0.200043 1.227684 0.076758 0.128 Uiso 1 1 calc GR . . . .
H46C H 0.152053 1.259189 0.014308 0.128 Uiso 1 1 calc GR . . . .
C47 C 0.1884(3) 0.97015(19) -0.05166(18) 0.0286(9) Uani 1 1 d . . . . .
C48 C 0.2098(4) 1.0050(2) -0.11223(19) 0.0379(12) Uani 1 1 d . . . . .
H48 H 0.209783 1.047377 -0.123432 0.045 Uiso 1 1 calc R . . . .
C49 C 0.2296(4) 0.9673(2) -0.1496(2) 0.0407(12) Uani 1 1 d . . . . .
H49 H 0.245473 0.978082 -0.191945 0.049 Uiso 1 1 calc R . . . .
C50 C 0.2223(4) 0.9064(2) -0.11337(18) 0.0342(11) Uani 1 1 d . . . . .
C51 C 0.2422(4) 0.8522(2) -0.13173(19) 0.0380(11) Uani 1 1 d D . . . .
C59 C 0.1845(4) 0.7290(2) -0.01091(19) 0.0351(10) Uani 1 1 d . . . . .
C60 C 0.2654(4) 0.6834(2) -0.0241(2) 0.0412(11) Uani 1 1 d . . . . .
H60 H 0.332150 0.692522 -0.049843 0.049 Uiso 1 1 calc R . . . .
C61 C 0.2478(5) 0.6229(2) 0.0010(3) 0.0539(14) Uani 1 1 d . . . . .
H61 H 0.302657 0.590869 -0.007192 0.065 Uiso 1 1 calc R . . . .
C62 C 0.1479(6) 0.6112(3) 0.0383(3) 0.0583(16) Uani 1 1 d . . . . .
H62 H 0.135281 0.570661 0.055081 0.070 Uiso 1 1 calc R . . . .
C63 C 0.0677(5) 0.6564(3) 0.0511(2) 0.0547(15) Uani 1 1 d . . . . .
H63 H 0.000842 0.647206 0.076665 0.066 Uiso 1 1 calc R . . . .
C64 C 0.0849(4) 0.7167(2) 0.0264(2) 0.0437(12) Uani 1 1 d . . . . .
H64 H 0.029869 0.748430 0.034909 0.052 Uiso 1 1 calc R . . . .
C52 C 0.2674(10) 0.8459(5) -0.1963(3) 0.032(2) Uani 0.36 1 d D U P A 1
C53 C 0.3526(13) 0.8775(8) -0.2344(7) 0.035(4) Uani 0.36 1 d D U P A 1
H53 H 0.391062 0.901654 -0.217586 0.042 Uiso 0.36 1 calc R . P A 1
C54 C 0.3837(19) 0.8756(10) -0.2952(8) 0.047(5) Uani 0.36 1 d D U P A 1
H54 H 0.440949 0.897663 -0.318829 0.056 Uiso 0.36 1 calc R . P A 1
C55 C 0.3262(18) 0.8393(10) -0.3197(11) 0.046(5) Uani 0.36 1 d D U P A 1
C56 C 0.2408(19) 0.8059(11) -0.2842(8) 0.051(5) Uani 0.36 1 d D U P A 1
H56 H 0.203171 0.781620 -0.301150 0.062 Uiso 0.36 1 calc R . P A 1
C57 C 0.2126(18) 0.8093(9) -0.2233(8) 0.043(5) Uani 0.36 1 d D U P A 1
H57 H 0.156003 0.786785 -0.199688 0.051 Uiso 0.36 1 calc R . P A 1
C58 C 0.358(4) 0.837(2) -0.3860(13) 0.078(15) Uani 0.36 1 d D U P A 1
H58A H 0.396003 0.872176 -0.406795 0.117 Uiso 0.36 1 calc GR . P A 1
H58B H 0.290076 0.837102 -0.404607 0.117 Uiso 0.36 1 calc GR . P A 1
H58C H 0.409391 0.800348 -0.389001 0.117 Uiso 0.36 1 calc GR . P A 1
C52A C 0.2680(9) 0.8442(5) -0.1958(3) 0.032(2) Uani 0.32 1 d D U P A 2
C53A C 0.2124(15) 0.8827(7) -0.2419(5) 0.053(4) Uani 0.32 1 d D U P A 2
H53A H 0.157060 0.914639 -0.234046 0.063 Uiso 0.32 1 calc R . P A 2
C54A C 0.2410(16) 0.8727(8) -0.3005(6) 0.057(5) Uani 0.32 1 d D U P A 2
H54A H 0.204318 0.899473 -0.331871 0.068 Uiso 0.32 1 calc R . P A 2
C55A C 0.3195(19) 0.8261(9) -0.3155(10) 0.049(6) Uani 0.32 1 d D U P A 2
C56A C 0.3749(16) 0.7892(8) -0.2684(6) 0.056(4) Uani 0.32 1 d D U P A 2
H56A H 0.430180 0.757283 -0.276207 0.067 Uiso 0.32 1 calc R . P A 2
C57A C 0.3501(13) 0.7985(7) -0.2097(6) 0.046(4) Uani 0.32 1 d D U P A 2
H57A H 0.390123 0.773121 -0.178803 0.055 Uiso 0.32 1 calc R . P A 2
C58A C 0.340(5) 0.820(2) -0.3811(12) 0.060(9) Uani 0.32 1 d D U P A 2
H58D H 0.275804 0.840601 -0.402244 0.090 Uiso 0.32 1 calc GR . P A 2
H58E H 0.350088 0.777240 -0.382501 0.090 Uiso 0.32 1 calc GR . P A 2
H58F H 0.408671 0.837759 -0.400547 0.090 Uiso 0.32 1 calc GR . P A 2
C52B C 0.2962(13) 0.8582(7) -0.1959(3) 0.032(2) Uani 0.32 1 d D U P A 3
C53B C 0.3863(17) 0.8883(9) -0.2253(8) 0.031(4) Uani 0.32 1 d . U P A 3
H53B H 0.425816 0.908507 -0.204827 0.038 Uiso 0.32 1 calc R . P A 3
C54B C 0.416(2) 0.8881(11) -0.2835(9) 0.048(5) Uani 0.32 1 d . U P A 3
H54B H 0.476587 0.909725 -0.303827 0.058 Uiso 0.32 1 calc R . P A 3
C55B C 0.366(3) 0.8588(11) -0.3148(8) 0.054(6) Uani 0.32 1 d D U P A 3
C56B C 0.277(3) 0.8238(12) -0.2860(10) 0.055(6) Uani 0.32 1 d . U P A 3
H56B H 0.243379 0.801006 -0.306486 0.066 Uiso 0.32 1 calc R . P A 3
C57B C 0.2429(18) 0.8252(10) -0.2239(9) 0.034(4) Uani 0.32 1 d . U P A 3
H57B H 0.183611 0.803379 -0.202242 0.041 Uiso 0.32 1 calc R . P A 3
C58B C 0.402(3) 0.8573(15) -0.3811(8) 0.087(12) Uani 0.32 1 d D U P A 3
H58G H 0.464480 0.881326 -0.396308 0.131 Uiso 0.32 1 calc GR . P A 3
H58H H 0.338068 0.873976 -0.404360 0.131 Uiso 0.32 1 calc GR . P A 3
H58I H 0.425974 0.815747 -0.384750 0.131 Uiso 0.32 1 calc GR . P A 3
Ni3 Ni 0.72386(5) 0.77675(2) 0.38237(2) 0.03085(14) Uani 1 1 d . . . . .
Ni4 Ni 0.60919(4) 0.65139(2) 0.47862(2) 0.02542(13) Uani 1 1 d . . . . .
O2 O 0.6455(3) 0.70647(13) 0.40590(12) 0.0295(7) Uani 1 1 d . . . . .
H2O H 0.598(4) 0.709(2) 0.378(2) 0.035 Uiso 1 1 d R . . . .
N11 N 0.5708(3) 0.77143(18) 0.29594(16) 0.0356(9) Uani 1 1 d . . . . .
H11N H 0.509(4) 0.794(2) 0.278(2) 0.043 Uiso 1 1 d R . . . .
N12 N 0.6353(3) 0.80682(17) 0.31746(15) 0.0353(9) Uani 1 1 d . . . . .
N13 N 0.7588(3) 0.85436(16) 0.36307(16) 0.0344(8) Uani 1 1 d . . . . .
N14 N 0.8929(3) 0.79241(18) 0.45593(17) 0.0405(10) Uani 1 1 d . . . . .
N15 N 0.8323(3) 0.75611(17) 0.43781(16) 0.0353(9) Uani 1 1 d . . . . .
N16 N 0.5821(3) 0.71169(15) 0.52309(15) 0.0287(8) Uani 1 1 d . . . . .
N17 N 0.5824(3) 0.70905(17) 0.58049(15) 0.0328(8) Uani 1 1 d . . . . .
N18 N 0.6212(3) 0.59128(15) 0.54805(14) 0.0278(8) Uani 1 1 d . . . . .
N19 N 0.6212(3) 0.53610(15) 0.44558(14) 0.0272(8) Uani 1 1 d . . . . .
N20 N 0.5926(3) 0.59386(14) 0.43474(14) 0.0247(7) Uani 1 1 d . . . . .
C65 C 0.6349(4) 0.73978(19) 0.25326(18) 0.0322(10) Uani 1 1 d . . . . .
C66 C 0.5896(4) 0.7399(2) 0.20095(19) 0.0364(10) Uani 1 1 d . . . . .
HB H 0.520578 0.764108 0.192163 0.044 Uiso 1 1 calc R . . . .
C67 C 0.6441(4) 0.7050(2) 0.1615(2) 0.0395(11) Uani 1 1 d . . . . .
HC H 0.611401 0.705120 0.126354 0.047 Uiso 1 1 calc R . . . .
C68 C 0.7461(4) 0.6697(2) 0.1727(2) 0.0428(12) Uani 1 1 d . . . . .
HD H 0.783264 0.645917 0.145639 0.051 Uiso 1 1 calc R . . . .
C69 C 0.7929(4) 0.6701(2) 0.2250(2) 0.0387(11) Uani 1 1 d . . . . .
HE H 0.862648 0.646404 0.233254 0.046 Uiso 1 1 calc R . . . .
C70 C 0.7383(4) 0.7048(2) 0.26470(18) 0.0343(10) Uani 1 1 d . . . . .
HF H 0.771106 0.704884 0.299764 0.041 Uiso 1 1 calc R . . . .
C71 C 0.6206(4) 0.8682(2) 0.29878(19) 0.0360(11) Uani 1 1 d . . . . .
C72 C 0.5406(4) 0.9025(2) 0.2568(2) 0.0379(11) Uani 1 1 d . . . . .
C73 C 0.5472(4) 0.8948(2) 0.1982(2) 0.0400(11) Uani 1 1 d . . . . .
HG H 0.605203 0.867142 0.184091 0.048 Uiso 1 1 calc R . . . .
C74 C 0.4689(4) 0.9276(2) 0.1602(2) 0.0417(11) Uani 1 1 d . . . . .
HH H 0.474564 0.921861 0.120414 0.050 Uiso 1 1 calc R . . . .
C75 C 0.3818(4) 0.9690(2) 0.1794(2) 0.0384(11) Uani 1 1 d . . . . .
C76 C 0.3778(5) 0.9767(3) 0.2376(2) 0.0577(16) Uani 1 1 d . . . . .
HI H 0.320029 1.004134 0.252124 0.069 Uiso 1 1 calc R . . . .
C77 C 0.4581(5) 0.9444(2) 0.2750(2) 0.0524(14) Uani 1 1 d . . . . .
HJ H 0.455556 0.951764 0.314022 0.063 Uiso 1 1 calc R . . . .
C78 C 0.2949(4) 1.0028(3) 0.1390(2) 0.0521(14) Uani 1 1 d . . . . .
HK H 0.328103 1.035180 0.109290 0.078 Uiso 1 1 calc GR . . . .
HL H 0.230259 1.019957 0.162983 0.078 Uiso 1 1 calc GR . . . .
HM H 0.269714 0.975302 0.118340 0.078 Uiso 1 1 calc GR . . . .
C79 C 0.6915(4) 0.8950(2) 0.32441(19) 0.0352(10) Uani 1 1 d . . . . .
C80 C 0.7171(4) 0.9537(2) 0.3232(2) 0.0423(12) Uani 1 1 d . . . . .
HN H 0.684253 0.990431 0.300302 0.051 Uiso 1 1 calc R . . . .
C81 C 0.7988(4) 0.9472(2) 0.3615(2) 0.0441(12) Uani 1 1 d . . . . .
HO H 0.832196 0.978690 0.369931 0.053 Uiso 1 1 calc R . . . .
C82 C 0.8237(4) 0.8839(2) 0.3862(2) 0.0426(12) Uani 1 1 d . . . . .
C83 C 0.8930(4) 0.8510(2) 0.4318(2) 0.0434(12) Uani 1 1 d . . . . .
C84 C 0.9749(5) 0.8826(2) 0.4526(3) 0.0534(14) Uani 1 1 d . . . . .
C85 C 1.0405(5) 0.9221(3) 0.4115(3) 0.0599(15) Uani 1 1 d . . . . .
HP H 1.032655 0.928998 0.370005 0.072 Uiso 1 1 calc R . . . .
C86 C 1.1178(6) 0.9515(3) 0.4304(4) 0.073(2) Uani 1 1 d . . . . .
HQ H 1.162164 0.977698 0.401581 0.088 Uiso 1 1 calc R . . . .
C87 C 1.1302(6) 0.9430(3) 0.4908(4) 0.082(2) Uani 1 1 d . . . . .
C88 C 1.0670(6) 0.9032(3) 0.5313(4) 0.076(2) Uani 1 1 d . . . . .
HR H 1.076048 0.895945 0.572681 0.091 Uiso 1 1 calc R . . . .
C89 C 0.9897(6) 0.8731(3) 0.5129(3) 0.0681(19) Uani 1 1 d . . . . .
HS H 0.947351 0.845989 0.541888 0.082 Uiso 1 1 calc R . . . .
C90 C 1.2126(8) 0.9766(4) 0.5106(5) 0.124(4) Uani 1 1 d . . . . .
HT H 1.270389 0.988318 0.477247 0.185 Uiso 1 1 calc GR . . . .
HU H 1.248646 0.950399 0.544476 0.185 Uiso 1 1 calc GR . . . .
HV H 1.171885 1.012535 0.522926 0.185 Uiso 1 1 calc GR . . . .
C91 C 0.8530(4) 0.6952(2) 0.47244(19) 0.0326(10) Uani 1 1 d . . . . .
C92 C 0.8620(4) 0.64666(19) 0.44502(19) 0.0327(10) Uani 1 1 d . . . . .
HW H 0.851832 0.653526 0.403779 0.039 Uiso 1 1 calc R . . . .
C93 C 0.8860(3) 0.5873(2) 0.4781(2) 0.0344(10) Uani 1 1 d . . . . .
HX H 0.891523 0.554250 0.459338 0.041 Uiso 1 1 calc R . . . .
C94 C 0.9016(4) 0.5775(2) 0.5392(2) 0.0374(11) Uani 1 1 d . . . . .
HY H 0.917305 0.537825 0.561934 0.045 Uiso 1 1 calc R . . . .
C95 C 0.8941(4) 0.6258(2) 0.5657(2) 0.0386(11) Uani 1 1 d . . . . .
HZ H 0.906269 0.619049 0.606690 0.046 Uiso 1 1 calc R . . . .
C96 C 0.8688(4) 0.6847(2) 0.5334(2) 0.0400(11) Uani 1 1 d . . . . .
H0AA H 0.862354 0.717469 0.552601 0.048 Uiso 1 1 calc R . . . .
C97 C 0.5352(3) 0.61247(18) 0.38051(16) 0.0255(9) Uani 1 1 d . . . . .
C98 C 0.5737(3) 0.58811(19) 0.33052(18) 0.0286(9) Uani 1 1 d . . . . .
H1AA H 0.640888 0.560825 0.330164 0.034 Uiso 1 1 calc R . . . .
C99 C 0.5127(4) 0.60413(19) 0.28092(18) 0.0307(9) Uani 1 1 d . . . . .
H2AA H 0.538086 0.587521 0.246709 0.037 Uiso 1 1 calc R . . . .
C100 C 0.4141(4) 0.6446(2) 0.28148(18) 0.0329(10) Uani 1 1 d . . . . .
H3AA H 0.373220 0.655832 0.247480 0.039 Uiso 1 1 calc R . . . .
C101 C 0.3760(4) 0.66842(19) 0.33179(18) 0.0306(10) Uani 1 1 d . . . . .
H4AA H 0.308611 0.695562 0.332164 0.037 Uiso 1 1 calc R . . . .
C102 C 0.4362(3) 0.65269(18) 0.38183(17) 0.0273(9) Uani 1 1 d . . . . .
H5AA H 0.410383 0.669021 0.416171 0.033 Uiso 1 1 calc R . . . .
C103 C 0.6591(3) 0.50571(18) 0.49865(17) 0.0274(9) Uani 1 1 d . . . . .
C104 C 0.7059(3) 0.44174(18) 0.49798(17) 0.0263(9) Uani 1 1 d . . . . .
C105 C 0.6620(3) 0.41087(19) 0.46297(18) 0.0304(10) Uani 1 1 d . . . . .
H6AA H 0.602735 0.430463 0.439674 0.036 Uiso 1 1 calc R . . . .
C106 C 0.7045(4) 0.3511(2) 0.4619(2) 0.0346(10) Uani 1 1 d . . . . .
H7AA H 0.673986 0.330556 0.437769 0.041 Uiso 1 1 calc R . . . .
C107 C 0.7922(4) 0.3212(2) 0.4962(2) 0.0400(12) Uani 1 1 d . . . . .
C108 C 0.8372(4) 0.3531(2) 0.5296(2) 0.0355(11) Uani 1 1 d . . . . .
H8AA H 0.897624 0.333895 0.552139 0.043 Uiso 1 1 calc R . . . .
C109 C 0.7957(4) 0.41245(19) 0.53073(18) 0.0305(9) Uani 1 1 d . . . . .
H9AA H 0.828269 0.433291 0.553770 0.037 Uiso 1 1 calc R . . . .
C110 C 0.8370(5) 0.2560(2) 0.4956(3) 0.0556(15) Uani 1 1 d . . . . .
H0BA H 0.919640 0.251422 0.490469 0.083 Uiso 1 1 calc GR . . . .
H1BA H 0.809712 0.244476 0.462324 0.083 Uiso 1 1 calc GR . . . .
H2BA H 0.810489 0.230089 0.533551 0.083 Uiso 1 1 calc GR . . . .
C111 C 0.6478(3) 0.53015(18) 0.54863(17) 0.0260(9) Uani 1 1 d . . . . .
C112 C 0.6576(4) 0.4987(2) 0.61091(18) 0.0315(10) Uani 1 1 d . . . . .
H3BA H 0.673434 0.456496 0.624951 0.038 Uiso 1 1 calc R . . . .
C113 C 0.6401(4) 0.5402(2) 0.64478(18) 0.0357(10) Uani 1 1 d . . . . .
H4BA H 0.640315 0.532385 0.687050 0.043 Uiso 1 1 calc R . . . .
C114 C 0.6208(3) 0.59910(19) 0.60518(17) 0.0289(9) Uani 1 1 d . . . . .
C115 C 0.6072(4) 0.6553(2) 0.61973(19) 0.0363(11) Uani 1 1 d . . . . .
C123 C 0.5462(4) 0.7742(2) 0.49474(18) 0.0332(10) Uani 1 1 d . . . . .
C124 C 0.4553(4) 0.7874(2) 0.4617(2) 0.0404(11) Uani 1 1 d . . . . .
H5BA H 0.417946 0.756213 0.455612 0.049 Uiso 1 1 calc R . . . .
C125 C 0.4185(5) 0.8481(2) 0.4370(2) 0.0513(15) Uani 1 1 d . . . . .
H6BA H 0.354633 0.857881 0.415198 0.062 Uiso 1 1 calc R . . . .
C126 C 0.4749(5) 0.8934(2) 0.4444(2) 0.0531(15) Uani 1 1 d . . . . .
H7BA H 0.450508 0.934021 0.427025 0.064 Uiso 1 1 calc R . . . .
C127 C 0.5665(5) 0.8797(2) 0.4768(2) 0.0502(14) Uani 1 1 d . . . . .
H8BA H 0.605448 0.910913 0.481645 0.060 Uiso 1 1 calc R . . . .
C128 C 0.6022(4) 0.8197(2) 0.5027(2) 0.0414(12) Uani 1 1 d . . . . .
H9BA H 0.664466 0.810208 0.525675 0.050 Uiso 1 1 calc R . . . .
C116 C 0.6150(10) 0.6642(5) 0.6818(5) 0.0417(14) Uani 0.749(6) 1 d D U P B 1
C117 C 0.7003(6) 0.6318(3) 0.7161(3) 0.0498(19) Uani 0.749(6) 1 d D U P B 1
H0CA H 0.753933 0.603083 0.700702 0.060 Uiso 0.749(6) 1 calc R . P B 1
C118 C 0.7063(8) 0.6420(4) 0.7731(3) 0.065(2) Uani 0.749(6) 1 d D U P B 1
H1CA H 0.763505 0.619278 0.796281 0.078 Uiso 0.749(6) 1 calc R . P B 1
C119 C 0.6302(11) 0.6847(5) 0.7963(5) 0.071(4) Uani 0.749(6) 1 d D U P B 1
C120 C 0.5474(10) 0.7179(4) 0.7616(3) 0.089(4) Uani 0.749(6) 1 d D U P B 1
H2CA H 0.496877 0.748278 0.776217 0.107 Uiso 0.749(6) 1 calc R . P B 1
C121 C 0.5377(9) 0.7072(4) 0.7051(3) 0.077(3) Uani 0.749(6) 1 d D U P B 1
H3CA H 0.478775 0.729025 0.682660 0.093 Uiso 0.749(6) 1 calc R . P B 1
C7X C 0.6563(18) 0.7011(12) 0.8543(6) 0.077(6) Uani 0.749(6) 1 d D U P B 2
H4CA H 0.707790 0.669350 0.876409 0.116 Uiso 0.749(6) 1 calc GR U P B 2
H5CA H 0.581451 0.702516 0.877151 0.116 Uiso 0.749(6) 1 calc GR . P B 2
H6CA H 0.685025 0.739847 0.848587 0.116 Uiso 0.749(6) 1 calc GR . P B 2
C1X C 0.625(3) 0.6612(14) 0.6798(14) 0.0417(14) Uani 0.251(6) 1 d D U P B 2
C2X C 0.5770(18) 0.6282(7) 0.7344(6) 0.036(4) Uani 0.251(6) 1 d D U P B 2
H7CA H 0.536383 0.596060 0.734047 0.043 Uiso 0.251(6) 1 calc R . P B 2
C3X C 0.5882(17) 0.6418(7) 0.7894(6) 0.035(4) Uani 0.251(6) 1 d D U P B 2
H8CA H 0.553665 0.618660 0.825127 0.042 Uiso 0.251(6) 1 calc R . P B 2
C4X C 0.648(2) 0.6880(11) 0.7938(13) 0.038(6) Uani 0.251(6) 1 d D U P B 2
C5X C 0.6968(17) 0.7215(8) 0.7397(6) 0.040(4) Uani 0.251(6) 1 d D U P B 2
H9CA H 0.737947 0.753404 0.739996 0.048 Uiso 0.251(6) 1 calc R . P B 2
C6X C 0.6841(17) 0.7074(8) 0.6850(7) 0.039(4) Uani 0.251(6) 1 d D U P B 2
H0DA H 0.718016 0.730753 0.649251 0.047 Uiso 0.251(6) 1 calc R . P B 2
C122 C 0.618(7) 0.695(4) 0.859(2) 0.077(6) Uani 0.251(6) 1 d D U P B 1
H1DA H 0.607526 0.738594 0.857683 0.116 Uiso 0.251(6) 1 calc GR . P B 1
H2DA H 0.686021 0.676872 0.878420 0.116 Uiso 0.251(6) 1 calc GR . P B 1
H3DA H 0.552368 0.677367 0.882627 0.116 Uiso 0.251(6) 1 calc GR . P B 1
loop_
_atom_site_aniso_label
_atom_site_aniso_U_11
_atom_site_aniso_U_22
_atom_site_aniso_U_33
_atom_site_aniso_U_23
_atom_site_aniso_U_13
_atom_site_aniso_U_12
Ni1 0.0245(3) 0.0258(3) 0.0216(3) 0.0085(2) -0.0015(2) -0.0007(2)
Ni2 0.0229(3) 0.0283(3) 0.0173(2) 0.0089(2) 0.0014(2) 0.0015(2)
O1 0.0232(15) 0.0345(16) 0.0200(14) 0.0106(12) 0.0022(12) -0.0009(12)
N1 0.0265(18) 0.033(2) 0.0246(18) 0.0061(15) 0.0031(15) -0.0007(15)
N2 0.0300(19) 0.0299(19) 0.0225(17) 0.0075(14) -0.0005(15) -0.0003(15)
N3 0.0293(19) 0.0284(18) 0.0280(18) 0.0043(14) 0.0009(15) -0.0045(15)
N4 0.0263(18) 0.0296(19) 0.0291(18) 0.0033(15) -0.0011(15) -0.0020(14)
N5 0.0280(18) 0.0251(18) 0.0281(18) 0.0044(14) -0.0003(15) -0.0019(14)
N6 0.036(2) 0.0291(19) 0.0193(16) 0.0039(14) 0.0020(15) 0.0014(15)
N7 0.038(2) 0.039(2) 0.0216(17) 0.0033(15) -0.0015(16) 0.0048(17)
N8 0.0223(17) 0.0337(19) 0.0211(16) 0.0084(14) 0.0029(14) 0.0023(14)
N9 0.0253(18) 0.0270(18) 0.0253(17) 0.0076(14) 0.0004(14) -0.0017(14)
N10 0.0188(16) 0.0324(19) 0.0192(16) 0.0092(14) 0.0041(13) -0.0003(14)
C1 0.031(2) 0.031(2) 0.0218(19) 0.0074(17) -0.0041(17) 0.0079(17)
C2 0.037(2) 0.033(2) 0.025(2) 0.0098(18) 0.0043(19) 0.0039(19)
C3 0.045(3) 0.043(3) 0.025(2) 0.002(2) -0.001(2) 0.013(2)
C4 0.046(3) 0.047(3) 0.035(2) -0.007(2) -0.012(2) 0.010(2)
C5 0.036(3) 0.039(3) 0.038(2) 0.002(2) -0.011(2) 0.004(2)
C6 0.032(2) 0.038(2) 0.024(2) 0.0065(18) -0.0041(18) 0.0060(19)
C7 0.028(2) 0.037(2) 0.022(2) 0.0035(17) -0.0030(17) 0.0027(18)
C8 0.031(2) 0.034(2) 0.027(2) 0.0052(18) -0.0026(18) 0.0007(18)
C9 0.032(2) 0.032(2) 0.030(2) 0.0083(18) -0.0050(19) -0.0002(18)
C10 0.030(2) 0.041(3) 0.025(2) 0.0057(18) -0.0012(18) 0.0024(19)
C11 0.027(2) 0.041(3) 0.028(2) 0.0096(19) 0.0005(18) 0.0004(19)
C12 0.043(3) 0.046(3) 0.041(3) 0.001(2) -0.001(2) -0.017(2)
C13 0.047(3) 0.050(3) 0.026(2) 0.000(2) 0.003(2) -0.007(2)
C14 0.037(3) 0.054(3) 0.038(3) 0.009(2) 0.002(2) -0.009(2)
C15 0.035(2) 0.033(2) 0.022(2) 0.0059(17) -0.0027(18) -0.0029(18)
C16 0.039(2) 0.029(2) 0.032(2) 0.0064(18) 0.000(2) -0.0071(19)
C17 0.043(3) 0.029(2) 0.034(2) 0.0054(19) -0.003(2) -0.0013(19)
C18 0.036(2) 0.025(2) 0.025(2) 0.0050(17) 0.0005(18) -0.0026(17)
C19 0.028(2) 0.031(2) 0.028(2) 0.0027(17) 0.0008(18) -0.0021(17)
C20 0.036(2) 0.027(2) 0.029(2) 0.0053(17) -0.0023(19) -0.0014(18)
C21 0.039(3) 0.041(3) 0.053(3) -0.003(2) -0.007(2) -0.002(2)
C22 0.053(3) 0.046(3) 0.053(3) -0.016(2) -0.003(3) -0.006(2)
C23 0.044(3) 0.040(3) 0.055(3) -0.011(2) 0.005(2) -0.005(2)
C24 0.044(3) 0.047(3) 0.060(3) -0.009(3) 0.000(3) -0.007(2)
C25 0.048(3) 0.041(3) 0.035(2) -0.008(2) -0.004(2) -0.003(2)
C26 0.066(4) 0.051(4) 0.107(6) -0.035(4) 0.032(4) -0.010(3)
C27 0.021(2) 0.028(2) 0.033(2) 0.0069(17) 0.0011(17) 0.0017(16)
C28 0.020(2) 0.031(2) 0.040(2) 0.0017(19) 0.0006(18) -0.0042(17)
C29 0.026(2) 0.028(2) 0.055(3) 0.004(2) -0.005(2) 0.0023(18)
C30 0.027(2) 0.036(3) 0.053(3) 0.019(2) -0.001(2) -0.0005(19)
C31 0.024(2) 0.045(3) 0.044(3) 0.018(2) 0.005(2) 0.003(2)
C32 0.026(2) 0.035(2) 0.041(3) 0.006(2) 0.002(2) 0.0026(18)
C33 0.023(2) 0.028(2) 0.0193(19) 0.0116(16) 0.0065(16) 0.0015(16)
C34 0.026(2) 0.029(2) 0.028(2) 0.0087(17) -0.0019(18) 0.0027(17)
C35 0.034(2) 0.036(2) 0.0162(18) 0.0035(17) 0.0054(17) 0.0053(19)
C36 0.026(2) 0.035(2) 0.025(2) 0.0118(17) 0.0026(17) 0.0006(18)
C37 0.021(2) 0.037(2) 0.031(2) 0.0095(18) 0.0030(18) 0.0001(17)
C38 0.023(2) 0.031(2) 0.0211(19) 0.0053(16) 0.0000(16) 0.0035(17)
C39 0.0193(19) 0.031(2) 0.026(2) 0.0102(17) 0.0004(16) 0.0022(16)
C40 0.023(2) 0.034(2) 0.027(2) 0.0089(17) -0.0045(17) 0.0041(17)
C41 0.026(2) 0.038(2) 0.030(2) 0.0068(18) -0.0074(18) -0.0017(18)
C42 0.032(2) 0.045(3) 0.046(3) -0.005(2) -0.014(2) 0.005(2)
C43 0.039(3) 0.043(3) 0.075(4) 0.003(3) -0.029(3) -0.010(2)
C44 0.023(2) 0.051(3) 0.062(3) 0.016(3) -0.010(2) -0.007(2)
C45 0.025(2) 0.039(3) 0.039(2) 0.014(2) -0.0045(19) -0.0021(19)
C46 0.059(4) 0.062(4) 0.142(7) -0.020(4) -0.027(5) -0.018(3)
C47 0.0186(19) 0.032(2) 0.023(2) 0.0108(17) 0.0033(16) 0.0035(16)
C48 0.027(2) 0.037(2) 0.030(2) 0.019(2) 0.0055(19) 0.0057(18)
C49 0.037(3) 0.042(3) 0.025(2) 0.014(2) 0.0081(19) 0.007(2)
C50 0.028(2) 0.042(3) 0.0190(19) 0.0102(18) 0.0046(17) 0.0065(19)
C51 0.034(2) 0.041(3) 0.023(2) 0.0110(19) 0.0048(19) 0.010(2)
C59 0.040(3) 0.035(2) 0.026(2) 0.0048(18) -0.0086(19) -0.005(2)
C60 0.044(3) 0.034(3) 0.042(3) 0.004(2) -0.011(2) -0.007(2)
C61 0.058(3) 0.038(3) 0.064(4) 0.002(3) -0.024(3) -0.005(2)
C62 0.084(4) 0.040(3) 0.052(3) 0.010(3) -0.023(3) -0.030(3)
C63 0.067(4) 0.056(4) 0.041(3) 0.004(3) -0.005(3) -0.032(3)
C64 0.045(3) 0.048(3) 0.034(2) 0.001(2) -0.002(2) -0.014(2)
C52 0.036(4) 0.028(4) 0.025(2) 0.006(2) 0.003(2) -0.004(3)
C53 0.029(8) 0.032(9) 0.035(7) 0.011(6) -0.002(6) -0.002(6)
C54 0.053(11) 0.044(12) 0.030(8) 0.011(8) -0.003(7) 0.007(8)
C55 0.049(12) 0.051(13) 0.026(8) -0.001(7) -0.005(7) 0.022(9)
C56 0.060(12) 0.061(13) 0.033(7) -0.015(7) -0.006(7) 0.000(9)
C57 0.057(11) 0.039(10) 0.028(6) 0.002(6) 0.000(6) -0.014(7)
C58 0.07(2) 0.12(5) 0.033(9) -0.017(14) 0.005(10) 0.02(2)
C52A 0.036(4) 0.028(4) 0.025(2) 0.006(2) 0.003(2) -0.004(3)
C53A 0.081(11) 0.043(9) 0.026(6) -0.006(5) -0.004(6) 0.011(7)
C54A 0.071(11) 0.068(11) 0.024(6) -0.006(7) -0.001(7) 0.006(8)
C55A 0.062(14) 0.058(12) 0.022(7) -0.011(8) 0.010(8) -0.005(8)
C56A 0.067(11) 0.056(10) 0.038(6) -0.012(6) 0.004(7) 0.006(8)
C57A 0.057(9) 0.043(8) 0.031(6) -0.004(6) 0.000(6) 0.000(6)
C58A 0.08(2) 0.071(18) 0.033(9) -0.025(11) 0.002(11) -0.012(15)
C52B 0.036(4) 0.028(4) 0.025(2) 0.006(2) 0.003(2) -0.004(3)
C53B 0.039(9) 0.023(8) 0.023(6) 0.004(5) 0.011(6) -0.002(7)
C54B 0.062(13) 0.037(11) 0.022(7) 0.007(6) 0.013(7) 0.029(9)
C55B 0.086(16) 0.040(13) 0.016(7) 0.005(6) 0.006(8) 0.027(10)
C56B 0.085(16) 0.050(14) 0.020(7) -0.007(8) -0.004(8) 0.019(10)
C57B 0.045(11) 0.032(10) 0.018(6) 0.005(6) 0.001(6) -0.002(7)
C58B 0.14(3) 0.072(19) 0.016(8) 0.000(8) 0.014(11) 0.052(19)
Ni3 0.0289(3) 0.0292(3) 0.0240(3) 0.0075(2) 0.0011(2) 0.0045(2)
Ni4 0.0246(3) 0.0277(3) 0.0156(2) 0.0069(2) 0.0001(2) 0.0030(2)
O2 0.0338(16) 0.0290(15) 0.0175(13) 0.0099(11) -0.0028(12) -0.0011(12)
N11 0.035(2) 0.040(2) 0.0244(18) 0.0044(16) -0.0053(16) 0.0009(17)
N12 0.031(2) 0.040(2) 0.0244(18) 0.0133(16) -0.0036(15) -0.0038(16)
N13 0.038(2) 0.0285(19) 0.0303(19) 0.0024(15) -0.0019(17) -0.0004(16)
N14 0.039(2) 0.038(2) 0.036(2) -0.0030(17) -0.0004(18) 0.0116(18)
N15 0.034(2) 0.035(2) 0.0283(19) 0.0019(16) 0.0001(16) 0.0043(16)
N16 0.0308(19) 0.0261(18) 0.0218(17) 0.0040(14) -0.0021(14) 0.0044(14)
N17 0.036(2) 0.038(2) 0.0175(16) 0.0015(15) -0.0006(15) 0.0043(16)
N18 0.0254(17) 0.0300(18) 0.0189(16) 0.0054(14) 0.0019(14) 0.0042(14)
N19 0.0218(17) 0.0314(19) 0.0203(16) 0.0070(14) -0.0004(14) 0.0009(14)
N20 0.0214(16) 0.0253(17) 0.0196(16) 0.0070(13) -0.0019(13) 0.0026(13)
C65 0.039(2) 0.028(2) 0.022(2) 0.0072(17) 0.0052(18) -0.0063(18)
C66 0.038(2) 0.040(3) 0.024(2) 0.0069(18) 0.0000(19) -0.007(2)
C67 0.047(3) 0.044(3) 0.026(2) 0.000(2) -0.004(2) -0.014(2)
C68 0.048(3) 0.047(3) 0.029(2) -0.006(2) 0.004(2) -0.009(2)
C69 0.036(2) 0.043(3) 0.032(2) -0.001(2) 0.006(2) -0.007(2)
C70 0.042(3) 0.036(2) 0.0193(19) 0.0061(17) 0.0010(18) -0.010(2)
C71 0.035(2) 0.038(3) 0.024(2) 0.0044(18) 0.0088(19) 0.0019(19)
C72 0.037(2) 0.036(2) 0.032(2) 0.0046(19) 0.001(2) -0.001(2)
C73 0.038(3) 0.041(3) 0.030(2) 0.009(2) 0.001(2) 0.002(2)
C74 0.042(3) 0.043(3) 0.032(2) 0.009(2) -0.006(2) -0.008(2)
C75 0.036(2) 0.039(3) 0.031(2) 0.0097(19) -0.006(2) -0.001(2)
C76 0.052(3) 0.061(4) 0.044(3) 0.003(3) -0.005(3) 0.021(3)
C77 0.057(3) 0.054(3) 0.035(3) 0.006(2) -0.014(2) 0.014(3)
C78 0.042(3) 0.055(3) 0.046(3) 0.013(2) -0.012(2) 0.004(2)
C79 0.037(2) 0.034(2) 0.027(2) 0.0017(18) 0.0025(19) 0.0032(19)
C80 0.051(3) 0.036(3) 0.032(2) 0.001(2) -0.002(2) 0.007(2)
C81 0.052(3) 0.039(3) 0.039(3) -0.007(2) -0.009(2) 0.003(2)
C82 0.045(3) 0.041(3) 0.035(2) -0.005(2) -0.001(2) 0.010(2)
C83 0.044(3) 0.044(3) 0.038(3) -0.012(2) -0.004(2) 0.013(2)
C84 0.053(3) 0.045(3) 0.058(3) -0.019(3) -0.009(3) 0.023(3)
C85 0.059(4) 0.046(3) 0.075(4) -0.021(3) -0.011(3) 0.010(3)
C86 0.065(4) 0.056(4) 0.106(6) -0.042(4) -0.023(4) 0.020(3)
C87 0.067(4) 0.068(5) 0.127(7) -0.062(5) -0.042(5) 0.037(4)
C88 0.077(5) 0.071(5) 0.087(5) -0.045(4) -0.036(4) 0.037(4)
C89 0.076(4) 0.064(4) 0.068(4) -0.033(3) -0.034(4) 0.034(3)
C90 0.122(7) 0.101(6) 0.179(10) -0.105(7) -0.080(7) 0.063(6)
C91 0.023(2) 0.039(2) 0.027(2) 0.0049(18) -0.0038(17) 0.0053(18)
C92 0.028(2) 0.034(2) 0.026(2) 0.0066(18) 0.0011(18) 0.0046(18)
C93 0.024(2) 0.036(2) 0.033(2) 0.0057(19) 0.0021(18) 0.0038(18)
C94 0.027(2) 0.041(3) 0.031(2) 0.014(2) 0.0012(19) 0.0031(19)
C95 0.028(2) 0.052(3) 0.025(2) 0.006(2) -0.0009(18) 0.004(2)
C96 0.033(2) 0.051(3) 0.026(2) 0.002(2) 0.0019(19) 0.005(2)
C97 0.0224(19) 0.031(2) 0.0167(18) 0.0080(16) -0.0019(15) -0.0036(16)
C98 0.022(2) 0.032(2) 0.026(2) 0.0056(17) -0.0041(17) -0.0008(16)
C99 0.038(2) 0.034(2) 0.0177(19) 0.0009(16) -0.0008(17) -0.0072(19)
C100 0.031(2) 0.037(2) 0.023(2) 0.0112(18) -0.0061(18) -0.0060(18)
C101 0.026(2) 0.032(2) 0.025(2) 0.0111(17) -0.0032(17) -0.0010(17)
C102 0.028(2) 0.027(2) 0.0199(19) 0.0032(16) 0.0027(16) -0.0009(16)
C103 0.0210(19) 0.029(2) 0.0226(19) 0.0102(16) -0.0001(16) 0.0011(16)
C104 0.0201(19) 0.033(2) 0.0180(18) 0.0047(16) 0.0047(15) -0.0004(16)
C105 0.022(2) 0.033(2) 0.025(2) 0.0085(17) 0.0044(17) 0.0038(17)
C106 0.028(2) 0.038(2) 0.031(2) -0.0005(19) 0.0021(18) 0.0001(18)
C107 0.025(2) 0.038(3) 0.042(3) 0.008(2) 0.009(2) 0.0070(19)
C108 0.021(2) 0.042(3) 0.032(2) 0.0081(19) -0.0010(18) 0.0046(18)
C109 0.028(2) 0.031(2) 0.024(2) 0.0071(17) 0.0012(17) -0.0018(17)
C110 0.043(3) 0.040(3) 0.072(4) -0.002(3) 0.000(3) 0.010(2)
C111 0.0163(18) 0.031(2) 0.024(2) 0.0084(16) -0.0008(16) -0.0022(15)
C112 0.030(2) 0.033(2) 0.022(2) 0.0107(17) -0.0016(17) 0.0019(18)
C113 0.041(3) 0.039(3) 0.0187(19) 0.0066(18) -0.0013(18) 0.001(2)
C114 0.024(2) 0.036(2) 0.0173(18) 0.0042(16) 0.0024(16) 0.0034(17)
C115 0.038(2) 0.039(3) 0.023(2) 0.0024(18) 0.0001(19) 0.006(2)
C123 0.035(2) 0.034(2) 0.022(2) 0.0032(17) 0.0009(18) 0.0084(19)
C124 0.040(3) 0.040(3) 0.031(2) 0.003(2) -0.003(2) 0.009(2)
C125 0.061(3) 0.049(3) 0.028(2) 0.004(2) -0.006(2) 0.025(3)
C126 0.076(4) 0.036(3) 0.030(2) 0.005(2) 0.007(3) 0.020(3)
C127 0.068(4) 0.036(3) 0.036(3) -0.004(2) 0.016(3) 0.001(2)
C128 0.048(3) 0.038(3) 0.028(2) 0.0009(19) 0.007(2) 0.003(2)
C116 0.063(4) 0.034(3) 0.022(2) -0.0001(19) -0.003(2) 0.003(2)
C117 0.061(4) 0.048(4) 0.033(3) -0.004(3) -0.006(3) 0.010(3)
C118 0.087(6) 0.060(5) 0.041(4) -0.005(3) -0.016(4) 0.009(4)
C119 0.128(11) 0.049(7) 0.027(4) -0.004(4) -0.012(5) 0.008(6)
C120 0.143(9) 0.075(6) 0.038(4) -0.023(4) -0.018(5) 0.047(6)
C121 0.121(8) 0.064(5) 0.028(3) -0.002(3) -0.012(4) 0.042(5)
C7X 0.134(19) 0.060(7) 0.035(4) -0.012(4) -0.018(6) 0.005(9)
C1X 0.063(4) 0.034(3) 0.022(2) -0.0001(19) -0.003(2) 0.003(2)
C2X 0.066(12) 0.020(8) 0.019(6) 0.002(5) -0.015(6) 0.002(7)
C3X 0.059(12) 0.032(8) 0.011(6) 0.009(5) -0.014(6) -0.006(7)
C4X 0.043(12) 0.040(13) 0.034(7) -0.013(8) -0.009(8) -0.003(10)
C5X 0.052(11) 0.037(9) 0.034(7) -0.013(6) -0.006(7) -0.004(7)
C6X 0.060(11) 0.028(7) 0.024(6) -0.001(6) -0.009(7) 0.006(6)
C122 0.134(19) 0.060(7) 0.035(4) -0.012(4) -0.018(6) 0.005(9)
loop_
_atom_type_symbol
_atom_type_description
_atom_type_scat_dispersion_real
_atom_type_scat_dispersion_imag
_atom_type_scat_source
C C -0.0001 0.0005 'International Tables Vol C Tables 4.2.6.8 and 6.1.1.4'
H H 0.0000 0.0000 'International Tables Vol C Tables 4.2.6.8 and 6.1.1.4'
N N 0.0005 0.0010 'International Tables Vol C Tables 4.2.6.8 and 6.1.1.4'
Ni Ni 0.2306 0.4106 'International Tables Vol C Tables 4.2.6.8 and 6.1.1.4'
O O 0.0017 0.0018 'International Tables Vol C Tables 4.2.6.8 and 6.1.1.4'
loop_
_geom_angle_atom_site_label_1
_geom_angle_atom_site_label_2
_geom_angle_atom_site_label_3
_geom_angle
N2 Ni1 O1 90.74(13)
N3 Ni1 O1 163.49(15)
N3 Ni1 N2 81.71(15)
N3 Ni1 N5 89.78(15)
N5 Ni1 O1 99.80(13)
N5 Ni1 N2 167.34(15)
N6 Ni2 O1 93.71(14)
N6 Ni2 N10 162.53(16)
N8 Ni2 O1 162.16(15)
N8 Ni2 N6 91.39(15)
N8 Ni2 N10 90.42(15)
N10 Ni2 O1 89.82(13)
Ni1 O1 H1 105(4)
Ni2 O1 Ni1 135.89(16)
Ni2 O1 H1 113(4)
N2 N1 H1A 106(3)
N2 N1 C1 114.8(4)
C1 N1 H1A 118(3)
N1 N2 Ni1 123.5(2)
C7 N2 Ni1 115.8(3)
C7 N2 N1 120.0(3)
C15 N3 Ni1 116.9(3)
C18 N3 Ni1 133.2(3)
C18 N3 C15 109.2(3)
C19 N4 N5 123.4(3)
N4 N5 Ni1 128.7(3)
N4 N5 C27 108.6(3)
C27 N5 Ni1 122.0(3)
N7 N6 Ni2 131.8(3)
N7 N6 C59 108.7(4)
C59 N6 Ni2 119.2(3)
N6 N7 C51 121.1(4)
C47 N8 Ni2 124.9(3)
C47 N8 C50 107.8(3)
C50 N8 Ni2 126.7(3)
N10 N9 C39 121.2(4)
N9 N10 Ni2 130.9(2)
N9 N10 C33 109.2(3)
C33 N10 Ni2 119.8(3)
C2 C1 N1 120.2(4)
C2 C1 C6 118.5(4)
C6 C1 N1 121.2(4)
C1 C2 H2 119.7
C3 C2 C1 120.7(5)
C3 C2 H2 119.7
C2 C3 H3 119.7
C2 C3 C4 120.6(4)
C4 C3 H3 119.7
C3 C4 H4 120.6
C5 C4 C3 118.9(5)
C5 C4 H4 120.6
C4 C5 H5 119.6
C6 C5 C4 120.9(5)
C6 C5 H5 119.6
C1 C6 H6 119.7
C5 C6 C1 120.5(4)
C5 C6 H6 119.7
N2 C7 C8 125.2(4)
N2 C7 C15 111.7(4)
C15 C7 C8 123.1(4)
C9 C8 C7 122.9(4)
C13 C8 C7 118.4(4)
C13 C8 C9 118.7(4)
C8 C9 H9 119.9
C8 C9 C10 120.2(5)
C10 C9 H9 119.9
C9 C10 H10 119.0
C11 C10 C9 121.9(4)
C11 C10 H10 119.0
C10 C11 C12 117.4(4)
C10 C11 C14 122.3(4)
C12 C11 C14 120.3(5)
C11 C12 H12 119.7
C13 C12 C11 120.7(5)
C13 C12 H12 119.7
C8 C13 C12 121.0(4)
C8 C13 H13 119.5
C12 C13 H13 119.5
C11 C14 H14A 109.5
C11 C14 H14B 109.5
C11 C14 H14C 109.5
H14A C14 H14B 109.5
H14A C14 H14C 109.5
H14B C14 H14C 109.5
N3 C15 C7 112.8(4)
N3 C15 C16 108.5(4)
C7 C15 C16 138.7(4)
C15 C16 H16 126.7
C17 C16 C15 106.6(4)
C17 C16 H16 126.7
C16 C17 H17 126.2
C16 C17 C18 107.5(4)
C18 C17 H17 126.2
N3 C18 C17 108.2(4)
N3 C18 C19 119.0(4)
C17 C18 C19 132.8(4)
N4 C19 C18 124.9(4)
N4 C19 C20 114.1(4)
C18 C19 C20 120.9(4)
C21 C20 C19 121.0(4)
C25 C20 C19 119.7(4)
C25 C20 C21 119.3(4)
C20 C21 H21 120.0
C20 C21 C22 120.1(5)
C22 C21 H21 120.0
C21 C22 H22 119.9
C23 C22 C21 120.2(5)
C23 C22 H22 119.9
C22 C23 C26 122.2(5)
C24 C23 C22 117.7(5)
C24 C23 C26 120.1(5)
C23 C24 H24 119.3
C23 C24 C25 121.3(5)
C25 C24 H24 119.3
C20 C25 C24 121.3(5)
C20 C25 H25 119.4
C24 C25 H25 119.4
C23 C26 H26A 109.5
C23 C26 H26B 109.5
C23 C26 H26C 109.5
H26A C26 H26B 109.5
H26A C26 H26C 109.5
H26B C26 H26C 109.5
C28 C27 N5 120.3(4)
C28 C27 C32 118.6(4)
C32 C27 N5 121.1(4)
C27 C28 H28 119.9
C27 C28 C29 120.2(4)
C29 C28 H28 119.9
C28 C29 H29 119.8
C30 C29 C28 120.5(5)
C30 C29 H29 119.8
C29 C30 H30 120.5
C31 C30 C29 119.1(4)
C31 C30 H30 120.5
C30 C31 H31 119.5
C30 C31 C32 121.1(4)
C32 C31 H31 119.5
C27 C32 H32 119.8
C31 C32 C27 120.5(5)
C31 C32 H32 119.8
C34 C33 N10 121.1(4)
C34 C33 C38 121.3(4)
C38 C33 N10 117.4(4)
C33 C34 H34 120.4
C33 C34 C35 119.2(4)
C35 C34 H34 120.4
C34 C35 H35 120.1
C36 C35 C34 119.8(4)
C36 C35 H35 120.1
C35 C36 H36 119.7
C37 C36 C35 120.7(4)
C37 C36 H36 119.7
C36 C37 H37 120.0
C36 C37 C38 120.1(4)
C38 C37 H37 120.0
C33 C38 C37 118.9(4)
C33 C38 H38 120.6
C37 C38 H38 120.6
N9 C39 C40 112.4(4)
N9 C39 C47 122.9(4)
C47 C39 C40 124.6(4)
C41 C40 C39 119.7(4)
C41 C40 C45 117.9(4)
C45 C40 C39 122.2(4)
C40 C41 H41 119.8
C42 C41 C40 120.4(4)
C42 C41 H41 119.8
C41 C42 H42 119.6
C41 C42 C43 120.9(5)
C43 C42 H42 119.6
C42 C43 C46 120.1(6)
C44 C43 C42 118.7(5)
C44 C43 C46 121.1(5)
C43 C44 H44 119.3
C43 C44 C45 121.3(5)
C45 C44 H44 119.3
C40 C45 H45 119.6
C44 C45 C40 120.8(5)
C44 C45 H45 119.6
C43 C46 H46A 109.5
C43 C46 H46B 109.5
C43 C46 H46C 109.5
H46A C46 H46B 109.5
H46A C46 H46C 109.5
H46B C46 H46C 109.5
N8 C47 C39 123.9(3)
N8 C47 C48 108.3(4)
C39 C47 C48 127.5(4)
C47 C48 H48 125.9
C49 C48 C47 108.2(4)
C49 C48 H48 125.9
C48 C49 H49 126.2
C48 C49 C50 107.7(4)
C50 C49 H49 126.2
N8 C50 C49 107.8(4)
N8 C50 C51 123.4(4)
C51 C50 C49 128.8(4)
N7 C51 C50 124.9(4)
N7 C51 C52 109.4(6)
N7 C51 C52A 108.1(5)
N7 C51 C52B 121.7(7)
C50 C51 C52 125.0(5)
C50 C51 C52A 126.4(5)
C50 C51 C52B 113.1(7)
C60 C59 N6 119.2(4)
C60 C59 C64 121.4(4)
C64 C59 N6 119.5(4)
C59 C60 H60 120.3
C59 C60 C61 119.4(5)
C61 C60 H60 120.3
C60 C61 H61 120.7
C62 C61 C60 118.6(5)
C62 C61 H61 120.7
C61 C62 H62 119.0
C63 C62 C61 121.9(5)
C63 C62 H62 119.0
C62 C63 H63 120.1
C62 C63 C64 119.7(5)
C64 C63 H63 120.1
C59 C64 C63 119.0(5)
C59 C64 H64 120.5
C63 C64 H64 120.5
C53 C52 C51 118.9(11)
C53 C52 C57 115.8(11)
C57 C52 C51 125.2(11)
C52 C53 H53 117.8
C54 C53 C52 124.5(15)
C54 C53 H53 117.8
C53 C54 H54 121.4
C53 C54 C55 117.3(18)
C55 C54 H54 121.4
C54 C55 C56 121(2)
C54 C55 C58 118(2)
C56 C55 C58 121(2)
C55 C56 H56 120.3
C57 C56 C55 119.3(18)
C57 C56 H56 120.3
C52 C57 H57 119.1
C56 C57 C52 121.8(15)
C56 C57 H57 119.1
C55 C58 H58A 109.5
C55 C58 H58B 109.5
C55 C58 H58C 109.5
H58A C58 H58B 109.5
H58A C58 H58C 109.5
H58B C58 H58C 109.5
C53A C52A C51 121.1(10)
C53A C52A C57A 118.9(10)
C57A C52A C51 120.0(10)
C52A C53A H53A 121.0
C52A C53A C54A 117.9(13)
C54A C53A H53A 121.0
C53A C54A H54A 117.7
C55A C54A C53A 124.6(17)
C55A C54A H54A 117.7
C54A C55A C56A 115.8(18)
C54A C55A C58A 119(3)
C56A C55A C58A 125(3)
C55A C56A H56A 119.4
C55A C56A C57A 121.2(16)
C57A C56A H56A 119.4
C52A C57A C56A 121.5(13)
C52A C57A H57A 119.2
C56A C57A H57A 119.2
C55A C58A H58D 109.5
C55A C58A H58E 109.5
C55A C58A H58F 109.5
H58D C58A H58E 109.5
H58D C58A H58F 109.5
H58E C58A H58F 109.5
C53B C52B C51 130.0(16)
C57B C52B C51 108.5(15)
C57B C52B C53B 121.5(12)
C52B C53B H53B 120.8
C54B C53B C52B 118.4(19)
C54B C53B H53B 120.8
C53B C54B H54B 118.1
C53B C54B C55B 124(2)
C55B C54B H54B 118.1
C54B C55B C56B 120.5(16)
C54B C55B C58B 124(3)
C56B C55B C58B 116(3)
C55B C56B H56B 122.1
C55B C56B C57B 116(2)
C57B C56B H56B 122.1
C52B C57B C56B 119.8(18)
C52B C57B H57B 120.1
C56B C57B H57B 120.1
C55B C58B H58G 109.5
C55B C58B H58H 109.5
C55B C58B H58I 109.5
H58G C58B H58H 109.5
H58G C58B H58I 109.5
H58H C58B H58I 109.5
N12 Ni3 O2 89.90(15)
N13 Ni3 O2 164.08(15)
N13 Ni3 N12 81.83(17)
N13 Ni3 N15 89.56(17)
N15 Ni3 O2 100.03(15)
N15 Ni3 N12 169.04(16)
O2 Ni4 N20 89.90(13)
N16 Ni4 O2 92.73(14)
N16 Ni4 N20 164.17(15)
N18 Ni4 O2 162.43(14)
N18 Ni4 N16 91.61(15)
N18 Ni4 N20 90.55(15)
Ni3 O2 H2O 107(3)
Ni4 O2 Ni3 135.77(18)
Ni4 O2 H2O 113(3)
N12 N11 H11N 112(3)
N12 N11 C65 113.2(4)
C65 N11 H11N 107(3)
N11 N12 Ni3 123.9(3)
C71 N12 Ni3 115.2(3)
C71 N12 N11 119.9(4)
C79 N13 Ni3 115.6(3)
C82 N13 Ni3 133.4(3)
C82 N13 C79 109.8(4)
C83 N14 N15 124.0(4)
N14 N15 Ni3 129.0(3)
N14 N15 C91 109.8(4)
C91 N15 Ni3 120.9(3)
N17 N16 Ni4 131.5(3)
N17 N16 C123 107.5(3)
C123 N16 Ni4 120.9(3)
N16 N17 C115 121.1(4)
C111 N18 Ni4 124.3(3)
C114 N18 Ni4 126.8(3)
C114 N18 C111 108.4(3)
N20 N19 C103 121.4(4)
N19 N20 Ni4 130.5(3)
N19 N20 C97 109.5(3)
C97 N20 Ni4 119.9(3)
C66 C65 N11 119.2(4)
C66 C65 C70 118.8(4)
C70 C65 N11 121.8(4)
C65 C66 HB 119.6
C67 C66 C65 120.7(4)
C67 C66 HB 119.6
C66 C67 HC 119.5
C66 C67 C68 120.9(4)
C68 C67 HC 119.5
C67 C68 HD 120.7
C67 C68 C69 118.6(5)
C69 C68 HD 120.7
C68 C69 HE 119.7
C70 C69 C68 120.6(5)
C70 C69 HE 119.7
C65 C70 HF 119.8
C69 C70 C65 120.3(4)
C69 C70 HF 119.8
N12 C71 C72 125.2(5)
N12 C71 C79 111.5(4)
C79 C71 C72 123.2(4)
C73 C72 C71 122.1(4)
C77 C72 C71 119.6(4)
C77 C72 C73 118.3(5)
C72 C73 HG 119.9
C74 C73 C72 120.2(5)
C74 C73 HG 119.9
C73 C74 HH 119.2
C73 C74 C75 121.6(5)
C75 C74 HH 119.2
C74 C75 C78 121.5(5)
C76 C75 C74 117.3(4)
C76 C75 C78 121.2(5)
C75 C76 HI 119.7
C75 C76 C77 120.7(5)
C77 C76 HI 119.7
C72 C77 C76 121.8(5)
C72 C77 HJ 119.1
C76 C77 HJ 119.1
C75 C78 HK 109.5
C75 C78 HL 109.5
C75 C78 HM 109.5
HK C78 HL 109.5
HK C78 HM 109.5
HL C78 HM 109.5
N13 C79 C71 113.6(4)
N13 C79 C80 107.6(4)
C71 C79 C80 138.7(4)
C79 C80 HN 126.4
C81 C80 C79 107.2(4)
C81 C80 HN 126.4
C80 C81 HO 126.3
C80 C81 C82 107.3(5)
C82 C81 HO 126.3
N13 C82 C81 108.1(4)
N13 C82 C83 119.4(5)
C83 C82 C81 132.3(5)
N14 C83 C82 124.0(5)
N14 C83 C84 116.7(5)
C82 C83 C84 119.2(5)
C85 C84 C83 120.8(5)
C89 C84 C83 121.4(6)
C89 C84 C85 117.7(6)
C84 C85 HP 119.4
C84 C85 C86 121.3(7)
C86 C85 HP 119.4
C85 C86 HQ 119.6
C87 C86 C85 120.8(8)
C87 C86 HQ 119.6
C86 C87 C90 120.0(9)
C88 C87 C86 118.0(7)
C88 C87 C90 121.9(8)
C87 C88 HR 119.1
C87 C88 C89 121.8(7)
C89 C88 HR 119.1
C84 C89 C88 120.4(8)
C84 C89 HS 119.8
C88 C89 HS 119.8
C87 C90 HT 109.5
C87 C90 HU 109.5
C87 C90 HV 109.5
HT C90 HU 109.5
HT C90 HV 109.5
HU C90 HV 109.5
C92 C91 N15 120.3(4)
C92 C91 C96 119.5(4)
C96 C91 N15 120.2(4)
C91 C92 HW 119.7
C91 C92 C93 120.5(4)
C93 C92 HW 119.7
C92 C93 HX 120.3
C94 C93 C92 119.3(5)
C94 C93 HX 120.3
C93 C94 HY 120.1
C95 C94 C93 119.8(4)
C95 C94 HY 120.1
C94 C95 HZ 119.4
C94 C95 C96 121.1(4)
C96 C95 HZ 119.4
C91 C96 H0AA 120.1
C95 C96 C91 119.8(5)
C95 C96 H0AA 120.1
C98 C97 N20 121.0(3)
C98 C97 C102 121.1(4)
C102 C97 N20 117.8(3)
C97 C98 H1AA 120.3
C97 C98 C99 119.4(4)
C99 C98 H1AA 120.3
C98 C99 H2AA 119.9
C98 C99 C100 120.1(4)
C100 C99 H2AA 119.9
C99 C100 H3AA 120.0
C101 C100 C99 120.0(4)
C101 C100 H3AA 120.0
C100 C101 H4AA 119.8
C100 C101 C102 120.4(4)
C102 C101 H4AA 119.8
C97 C102 H5AA 120.5
C101 C102 C97 118.9(4)
C101 C102 H5AA 120.5
N19 C103 C104 112.7(4)
N19 C103 C111 123.2(4)
C111 C103 C104 123.9(3)
C105 C104 C103 119.7(4)
C105 C104 C109 118.8(4)
C109 C104 C103 121.4(4)
C104 C105 H6AA 119.8
C104 C105 C106 120.5(4)
C106 C105 H6AA 119.8
C105 C106 H7AA 119.7
C105 C106 C107 120.6(5)
C107 C106 H7AA 119.7
C106 C107 C110 120.4(5)
C108 C107 C106 118.1(4)
C108 C107 C110 121.4(5)
C107 C108 H8AA 119.2
C107 C108 C109 121.6(4)
C109 C108 H8AA 119.2
C104 C109 H9AA 119.8
C108 C109 C104 120.3(4)
C108 C109 H9AA 119.8
C107 C110 H0BA 109.5
C107 C110 H1BA 109.5
C107 C110 H2BA 109.5
H0BA C110 H1BA 109.5
H0BA C110 H2BA 109.5
H1BA C110 H2BA 109.5
N18 C111 C112 107.4(4)
C103 C111 N18 124.6(3)
C103 C111 C112 128.0(4)
C111 C112 H3BA 126.1
C113 C112 C111 107.8(4)
C113 C112 H3BA 126.1
C112 C113 H4BA 126.0
C112 C113 C114 108.0(4)
C114 C113 H4BA 126.0
N18 C114 C113 108.3(4)
N18 C114 C115 123.5(4)
C115 C114 C113 128.1(4)
N17 C115 C114 124.8(4)
N17 C115 C116 111.5(5)
N17 C115 C1X 114.1(13)
C114 C115 C116 123.7(5)
C114 C115 C1X 121.0(13)
C124 C123 N16 119.8(4)
C124 C123 C128 120.6(4)
C128 C123 N16 119.6(4)
C123 C124 H5BA 120.5
C123 C124 C125 119.0(5)
C125 C124 H5BA 120.5
C124 C125 H6BA 119.8
C126 C125 C124 120.4(5)
C126 C125 H6BA 119.8
C125 C126 H7BA 119.9
C127 C126 C125 120.3(5)
C127 C126 H7BA 119.9
C126 C127 H8BA 120.1
C126 C127 C128 119.8(6)
C128 C127 H8BA 120.1
C123 C128 C127 119.9(5)
C123 C128 H9BA 120.0
C127 C128 H9BA 120.0
C117 C116 C115 121.3(9)
C117 C116 C121 119.0(10)
C121 C116 C115 119.6(9)
C116 C117 H0CA 120.0
C118 C117 C116 119.9(8)
C118 C117 H0CA 120.0
C117 C118 H1CA 119.3
C119 C118 C117 121.3(8)
C119 C118 H1CA 119.3
C118 C119 C122 127(4)
C120 C119 C118 118.7(10)
C120 C119 C122 114(4)
C119 C120 H2CA 119.5
C119 C120 C121 120.9(9)
C121 C120 H2CA 119.5
C116 C121 C120 120.1(9)
C116 C121 H3CA 120.0
C120 C121 H3CA 120.0
H4CA C7X H5CA 109.5
H4CA C7X H6CA 109.5
H5CA C7X H6CA 109.5
C4X C7X H4CA 109.5
C4X C7X H5CA 109.5
C4X C7X H6CA 109.5
C2X C1X C115 125.6(17)
C6X C1X C115 119.2(14)
C6X C1X C2X 115(3)
C1X C2X H7CA 119.3
C3X C2X C1X 121(2)
C3X C2X H7CA 119.3
C2X C3X H8CA 118.6
C2X C3X C4X 122.9(18)
C4X C3X H8CA 118.6
C3X C4X C7X 120.6(16)
C3X C4X C5X 117(2)
C5X C4X C7X 122.9(16)
C4X C5X H9CA 120.1
C4X C5X C6X 119.8(19)
C6X C5X H9CA 120.1
C1X C6X C5X 125(2)
C1X C6X H0DA 117.7
C5X C6X H0DA 117.7
C119 C122 H1DA 109.5
C119 C122 H2DA 109.5
C119 C122 H3DA 109.5
H1DA C122 H2DA 109.5
H1DA C122 H3DA 109.5
H2DA C122 H3DA 109.5
loop_
_geom_bond_atom_site_label_1
_geom_bond_atom_site_label_2
_geom_bond_distance
Ni1 O1 1.922(3)
Ni1 N2 1.915(3)
Ni1 N3 1.830(4)
Ni1 N5 1.893(3)
Ni2 O1 1.897(3)
Ni2 N6 1.881(4)
Ni2 N8 1.863(3)
Ni2 N10 1.881(4)
O1 H1 0.78(5)
N1 H1A 0.86(5)
N1 N2 1.428(5)
N1 C1 1.433(6)
N2 C7 1.352(6)
N3 C15 1.383(5)
N3 C18 1.344(5)
N4 N5 1.365(5)
N4 C19 1.328(5)
N5 C27 1.448(5)
N6 N7 1.309(5)
N6 C59 1.454(5)
N7 C51 1.372(6)
N8 C47 1.383(6)
N8 C50 1.384(5)
N9 N10 1.303(5)
N9 C39 1.369(5)
N10 C33 1.468(4)
C1 C2 1.400(6)
C1 C6 1.414(7)
C2 H2 0.9500
C2 C3 1.386(7)
C3 H3 0.9500
C3 C4 1.403(8)
C4 H4 0.9500
C4 C5 1.397(7)
C5 H5 0.9500
C5 C6 1.380(7)
C6 H6 0.9500
C7 C8 1.505(6)
C7 C15 1.414(6)
C8 C9 1.395(6)
C8 C13 1.388(7)
C9 H9 0.9500
C9 C10 1.398(6)
C10 H10 0.9500
C10 C11 1.395(7)
C11 C12 1.408(7)
C11 C14 1.524(6)
C12 H12 0.9500
C12 C13 1.405(6)
C13 H13 0.9500
C14 H14A 0.9800
C14 H14B 0.9800
C14 H14C 0.9800
C15 C16 1.423(6)
C16 H16 0.9500
C16 C17 1.385(6)
C17 H17 0.9500
C17 C18 1.439(6)
C18 C19 1.442(6)
C19 C20 1.509(6)
C20 C21 1.386(7)
C20 C25 1.354(7)
C21 H21 0.9500
C21 C22 1.419(7)
C22 H22 0.9500
C22 C23 1.419(8)
C23 C24 1.365(8)
C23 C26 1.523(7)
C24 H24 0.9500
C24 C25 1.416(7)
C25 H25 0.9500
C26 H26A 0.9800
C26 H26B 0.9800
C26 H26C 0.9800
C27 C28 1.397(6)
C27 C32 1.408(6)
C28 H28 0.9500
C28 C29 1.408(6)
C29 H29 0.9500
C29 C30 1.405(7)
C30 H30 0.9500
C30 C31 1.373(8)
C31 H31 0.9500
C31 C32 1.401(6)
C32 H32 0.9500
C33 C34 1.387(6)
C33 C38 1.394(6)
C34 H34 0.9500
C34 C35 1.403(5)
C35 H35 0.9500
C35 C36 1.394(7)
C36 H36 0.9500
C36 C37 1.380(7)
C37 H37 0.9500
C37 C38 1.408(5)
C38 H38 0.9500
C39 C40 1.474(6)
C39 C47 1.403(6)
C40 C41 1.407(6)
C40 C45 1.416(6)
C41 H41 0.9500
C41 C42 1.398(7)
C42 H42 0.9500
C42 C43 1.401(7)
C43 C44 1.383(8)
C43 C46 1.521(8)
C44 H44 0.9500
C44 C45 1.386(7)
C45 H45 0.9500
C46 H46A 0.9800
C46 H46B 0.9800
C46 H46C 0.9800
C47 C48 1.450(5)
C48 H48 0.9500
C48 C49 1.337(7)
C49 H49 0.9500
C49 C50 1.467(6)
C50 C51 1.388(7)
C51 C52 1.516(7)
C51 C52A 1.515(7)
C51 C52B 1.515(7)
C59 C60 1.384(7)
C59 C64 1.401(7)
C60 H60 0.9500
C60 C61 1.416(7)
C61 H61 0.9500
C61 C62 1.401(8)
C62 H62 0.9500
C62 C63 1.370(9)
C63 H63 0.9500
C63 C64 1.407(7)
C64 H64 0.9500
C52 C53 1.425(13)
C52 C57 1.436(13)
C53 H53 0.9500
C53 C54 1.412(14)
C54 H54 0.9500
C54 C55 1.415(15)
C55 C56 1.425(15)
C55 C58 1.537(10)
C56 H56 0.9500
C56 C57 1.415(14)
C57 H57 0.9500
C58 H58A 0.9800
C58 H58B 0.9800
C58 H58C 0.9800
C52A C53A 1.398(13)
C52A C57A 1.399(13)
C53A H53A 0.9500
C53A C54A 1.412(13)
C54A H54A 0.9500
C54A C55A 1.396(15)
C55A C56A 1.399(15)
C55A C58A 1.537(10)
C56A H56A 0.9500
C56A C57A 1.403(13)
C57A H57A 0.9500
C58A H58D 0.9800
C58A H58E 0.9800
C58A H58F 0.9800
C52B C53B 1.39(2)
C52B C57B 1.38(3)
C53B H53B 0.9500
C53B C54B 1.34(2)
C54B H54B 0.9500
C54B C55B 1.35(4)
C55B C56B 1.43(4)
C55B C58B 1.537(10)
C56B H56B 0.9500
C56B C57B 1.44(3)
C57B H57B 0.9500
C58B H58G 0.9800
C58B H58H 0.9800
C58B H58I 0.9800
Ni3 O2 1.928(3)
Ni3 N12 1.901(4)
Ni3 N13 1.839(4)
Ni3 N15 1.892(4)
Ni4 O2 1.894(3)
Ni4 N16 1.879(4)
Ni4 N18 1.865(3)
Ni4 N20 1.895(4)
O2 H2O 0.90(5)
N11 H11N 0.93(5)
N11 N12 1.416(6)
N11 C65 1.433(6)
N12 C71 1.372(6)
N13 C79 1.386(6)
N13 C82 1.345(7)
N14 N15 1.357(6)
N14 C83 1.336(6)
N15 C91 1.451(5)
N16 N17 1.313(5)
N16 C123 1.465(5)
N17 C115 1.375(5)
N18 C111 1.396(5)
N18 C114 1.371(5)
N19 N20 1.299(5)
N19 C103 1.365(5)
N20 C97 1.461(5)
C65 C66 1.393(6)
C65 C70 1.404(6)
C66 HB 0.9500
C66 C67 1.388(7)
C67 HC 0.9500
C67 C68 1.391(7)
C68 HD 0.9500
C68 C69 1.404(7)
C69 HE 0.9500
C69 C70 1.390(6)
C70 HF 0.9500
C71 C72 1.474(6)
C71 C79 1.391(7)
C72 C73 1.396(7)
C72 C77 1.374(7)
C73 HG 0.9500
C73 C74 1.393(6)
C74 HH 0.9500
C74 C75 1.407(7)
C75 C76 1.388(7)
C75 C78 1.508(6)
C76 HI 0.9500
C76 C77 1.399(7)
C77 HJ 0.9500
C78 HK 0.9800
C78 HL 0.9800
C78 HM 0.9800
C79 C80 1.427(7)
C80 HN 0.9500
C80 C81 1.384(7)
C81 HO 0.9500
C81 C82 1.442(7)
C82 C83 1.439(7)
C83 C84 1.499(8)
C84 C85 1.397(9)
C84 C89 1.391(8)
C85 HP 0.9500
C85 C86 1.401(9)
C86 HQ 0.9500
C86 C87 1.386(11)
C87 C88 1.380(11)
C87 C90 1.524(11)
C88 HR 0.9500
C88 C89 1.404(10)
C89 HS 0.9500
C90 HT 0.9800
C90 HU 0.9800
C90 HV 0.9800
C91 C92 1.392(7)
C91 C96 1.406(6)
C92 HW 0.9500
C92 C93 1.414(6)
C93 HX 0.9500
C93 C94 1.410(6)
C94 HY 0.9500
C94 C95 1.377(7)
C95 HZ 0.9500
C95 C96 1.401(6)
C96 H0AA 0.9500
C97 C98 1.392(6)
C97 C102 1.400(6)
C98 H1AA 0.9500
C98 C99 1.396(6)
C99 H2AA 0.9500
C99 C100 1.399(6)
C100 H3AA 0.9500
C100 C101 1.391(6)
C101 H4AA 0.9500
C101 C102 1.398(6)
C102 H5AA 0.9500
C103 C104 1.502(6)
C103 C111 1.380(6)
C104 C105 1.394(6)
C104 C109 1.406(6)
C105 H6AA 0.9500
C105 C106 1.403(6)
C106 H7AA 0.9500
C106 C107 1.410(6)
C107 C108 1.389(7)
C107 C110 1.523(7)
C108 H8AA 0.9500
C108 C109 1.391(6)
C109 H9AA 0.9500
C110 H0BA 0.9800
C110 H1BA 0.9800
C110 H2BA 0.9800
C111 C112 1.464(5)
C112 H3BA 0.9500
C112 C113 1.347(6)
C113 H4BA 0.9500
C113 C114 1.457(6)
C114 C115 1.394(6)
C115 C116 1.512(14)
C115 C1X 1.47(4)
C123 C124 1.381(7)
C123 C128 1.389(7)
C124 H5BA 0.9500
C124 C125 1.412(7)
C125 H6BA 0.9500
C125 C126 1.381(9)
C126 H7BA 0.9500
C126 C127 1.379(8)
C127 H8BA 0.9500
C127 C128 1.403(7)
C128 H9BA 0.9500
C116 C117 1.403(12)
C116 C121 1.405(12)
C117 H0CA 0.9500
C117 C118 1.402(9)
C118 H1CA 0.9500
C118 C119 1.393(12)
C119 C120 1.392(12)
C119 C122 1.51(2)
C120 H2CA 0.9500
C120 C121 1.406(9)
C121 H3CA 0.9500
C7X H4CA 0.9800
C7X H5CA 0.9800
C7X H6CA 0.9800
C7X C4X 1.51(2)
C1X C2X 1.406(13)
C1X C6X 1.406(13)
C2X H7CA 0.9500
C2X C3X 1.405(13)
C3X H8CA 0.9500
C3X C4X 1.406(13)
C4X C5X 1.406(13)
C5X H9CA 0.9500
C5X C6X 1.406(13)
C6X H0DA 0.9500
C122 H1DA 0.9800
C122 H2DA 0.9800
C122 H3DA 0.9800
loop_
_smtbx_masks_void_nr
_smtbx_masks_void_average_x
_smtbx_masks_void_average_y
_smtbx_masks_void_average_z
_smtbx_masks_void_volume
_smtbx_masks_void_count_electrons
1 0.500 0.000 0.500 1172.5 184.3
