#------------------------------------------------------------------------------
#$Date: 2018-10-31 01:25:05 +0200 (Wed, 31 Oct 2018) $
#$Revision: 211709 $
#$URL: file:///home/coder/svn-repositories/cod/cif/1/55/01/1550150.cif $
#------------------------------------------------------------------------------
#
# This file is available in the Crystallography Open Database (COD),
# http://www.crystallography.net/
#
# All data on this site have been placed in the public domain by the
# contributors.
#
data_1550150
loop_
_publ_author_name
'Wang, Wenguang'
'Chu, Xiaoxiao'
'Jin, Jihao'
'Ming, Bangrong'
'Pang, Maofu'
'Yu, Xin'
'Tung, Chen-Ho'
_publ_section_title
;
 Bimetallic Nickel-Cobalt Hydride in H2 Activation and Catalytic Proton
 Reduction
;
_journal_name_full               'Chemical Science'
_journal_paper_doi               10.1039/C8SC04346A
_journal_year                    2019
_chemical_formula_moiety         'B F4, C39 H46 Co Ni P2 S2, 2(C H2 Cl2)'
_chemical_formula_sum            'C41 H49 B Cl4 Co F4 Ni P2 S2'
_chemical_formula_weight         1014.11
_space_group_crystal_system      triclinic
_space_group_IT_number           2
_space_group_name_Hall           '-P 1'
_space_group_name_H-M_alt        'P -1'
_symmetry_space_group_name_Hall  '-P 1'
_symmetry_space_group_name_H-M   'P -1'
_atom_sites_solution_hydrogens   mixed
_audit_creation_date             2018-02-27
_audit_creation_method
;
Olex2 1.2-beta
(compiled 2018.02.02 svn.r3481 for OlexSys, GUI svn.r5470)
;
_audit_update_record
;
2018-05-08 deposited with the CCDC.
2018-10-29 downloaded from the CCDC.
;
_cell_angle_alpha                78.527(4)
_cell_angle_beta                 79.830(4)
_cell_angle_gamma                69.506(4)
_cell_formula_units_Z            2
_cell_length_a                   10.9745(5)
_cell_length_b                   13.3310(6)
_cell_length_c                   17.0646(8)
_cell_measurement_reflns_used    9557
_cell_measurement_temperature    293(2)
_cell_measurement_theta_max      76.4270
_cell_measurement_theta_min      4.0830
_cell_volume                     2276.23(19)
_computing_molecular_graphics    'Olex2 (Dolomanov et al., 2009)'
_computing_publication_material  'Olex2 (Dolomanov et al., 2009)'
_computing_structure_refinement  'ShelXL (Sheldrick, 2015)'
_diffrn_ambient_temperature      293(2)
_diffrn_measured_fraction_theta_full 0.989
_diffrn_measured_fraction_theta_max 0.943
_diffrn_measurement_device_type  'XtaLAB Synergy, Dualflex, HyPix'
_diffrn_radiation_type           CuK\a
_diffrn_radiation_wavelength     1.54184
_diffrn_reflns_av_R_equivalents  0.0523
_diffrn_reflns_av_unetI/netI     0.0590
_diffrn_reflns_Laue_measured_fraction_full 0.989
_diffrn_reflns_Laue_measured_fraction_max 0.943
_diffrn_reflns_limit_h_max       10
_diffrn_reflns_limit_h_min       -13
_diffrn_reflns_limit_k_max       16
_diffrn_reflns_limit_k_min       -16
_diffrn_reflns_limit_l_max       21
_diffrn_reflns_limit_l_min       -20
_diffrn_reflns_number            23062
_diffrn_reflns_point_group_measured_fraction_full 0.989
_diffrn_reflns_point_group_measured_fraction_max 0.943
_diffrn_reflns_theta_full        67.684
_diffrn_reflns_theta_max         76.973
_diffrn_reflns_theta_min         4.131
_exptl_absorpt_coefficient_mu    7.431
_exptl_crystal_density_diffrn    1.480
_exptl_crystal_description       block
_exptl_crystal_F_000             1042
_refine_diff_density_max         2.591
_refine_diff_density_min         -1.650
_refine_diff_density_rms         0.131
_refine_ls_extinction_method     none
_refine_ls_goodness_of_fit_ref   1.061
_refine_ls_hydrogen_treatment    mixed
_refine_ls_matrix_type           full
_refine_ls_number_parameters     514
_refine_ls_number_reflns         9066
_refine_ls_number_restraints     0
_refine_ls_restrained_S_all      1.061
_refine_ls_R_factor_all          0.0874
_refine_ls_R_factor_gt           0.0715
_refine_ls_shift/su_max          0.000
_refine_ls_shift/su_mean         0.000
_refine_ls_structure_factor_coef Fsqd
_refine_ls_weighting_details
'w=1/[\s^2^(Fo^2^)+(0.1040P)^2^+8.1147P] where P=(Fo^2^+2Fc^2^)/3'
_refine_ls_weighting_scheme      calc
_refine_ls_wR_factor_gt          0.1854
_refine_ls_wR_factor_ref         0.2049
_reflns_Friedel_coverage         0.000
_reflns_number_gt                7735
_reflns_number_total             9066
_reflns_threshold_expression     'I > 2\s(I)'
_cod_data_source_file            c8sc04346a2.cif
_cod_data_source_block           180226cxx-1_sq
_cod_database_code               1550150
_shelx_shelxl_version_number     2014/7
_shelx_space_group_comment
;
The symmetry employed for this shelxl refinement is uniquely defined
by the following loop, which should always be used as a source of
symmetry information in preference to the above space-group names.
They are only intended as comments.
;
_olex2_refinement_description
;
1. Fixed Uiso
 At 1.2 times of:
  All C(H) groups, All C(H,H) groups
 At 1.5 times of:
  All C(H,H,H) groups
2.a Secondary CH2 refined with riding coordinates:
 C1(H1A,H1B), C2(H2A,H2B), C3(H3A,H3B), C38(H38A,H38B), C39(H39A,H39B),
 C40(H40A,H40B), C41(H41A,H41B)
2.b Aromatic/amide H refined with riding coordinates:
 C14(H14), C15(H15), C16(H16), C17(H17), C19(H19), C20(H20), C21(H21),
 C22(H22), C23(H23), C24(H24), C26(H26), C27(H27), C28(H28), C29(H29), C31(H31),
  C32(H32), C33(H33), C34(H34), C35(H35), C36(H36)
2.c Idealised Me refined as rotating group:
 C9(H9A,H9B,H9C), C10(H10A,H10B,H10C), C11(H11A,H11B,H11C), C12(H12A,H12B,
 H12C), C13(H13A,H13B,H13C)
;
_shelx_res_file
;
    180226cxx-1_sq.res created by SHELXL-2014/7
TITL 180226cxx-1_a.res in P-1
REM Old TITL 180226CXX-1 in P-1
REM SHELXT solution in P-1
REM R1 0.315, Rweak 0.043, Alpha 0.070, Orientation as input
REM Formula found by SHELXT: C44 O11 P1
CELL 1.54184 10.9745 13.331 17.0646 78.527 79.83 69.506
ZERR 2 0.0005 0.0006 0.0008 0.004 0.004 0.004
LATT 1
SFAC C H B Cl Co F Ni P S
UNIT 82 98 2 8 2 8 2 4 4
L.S. 20 0 2
PLAN  5
BOND $H
ABIN
fmap 2
acta
OMIT 10 -3 9
OMIT -7 -13 6
OMIT -6 6 11
OMIT -6 7 11
OMIT 12 2 10
OMIT 10 12 1
OMIT -5 8 13
OMIT -8 4 11
OMIT 11 -1 8
REM <olex2.extras>
REM <HklSrc "%.\\180226cxx-1_sq.hkl">
REM </olex2.extras>
WGHT    0.104000    8.114700
FVAR       0.51353
B1    3    0.961093    0.250037    0.729223    11.00000    0.02991    0.02782 =
         0.03265   -0.00447   -0.00055   -0.00741
F1    6    0.897020    0.266485    0.805420    11.00000    0.04995    0.03905 =
         0.02969   -0.00640    0.00766   -0.01250
F2    6    0.905772    0.192363    0.696054    11.00000    0.09135    0.10808 =
         0.04228   -0.02048    0.00178   -0.07198
F3    6    1.092409    0.191967    0.734825    11.00000    0.03234    0.04403 =
         0.05496    0.00840   -0.00333    0.00634
F4    6    0.951268    0.348799    0.680575    11.00000    0.04059    0.03834 =
         0.04525    0.01226    0.00397    0.00052
C1    1    0.123456    0.891924    0.703804    11.00000    0.03998    0.04540 =
         0.04250   -0.00864   -0.02132    0.00932
AFIX  23
H1A   2    0.062660    0.878351    0.675656    11.00000   -1.20000
H1B   2    0.073875    0.950978    0.733854    11.00000   -1.20000
AFIX   0
C2    1    0.223466    0.927840    0.641761    11.00000    0.07563    0.03809 =
         0.02709    0.00224   -0.00993    0.00704
AFIX  23
H2A   2    0.273062    0.868990    0.611521    11.00000   -1.20000
H2B   2    0.177238    0.988412    0.604274    11.00000   -1.20000
AFIX   0
C3    1    0.317711    0.960954    0.676837    11.00000    0.07067    0.02397 =
         0.03553    0.00529    0.01149   -0.00596
AFIX  23
H3A   2    0.267530    1.017638    0.708927    11.00000   -1.20000
H3B   2    0.369308    0.991713    0.632920    11.00000   -1.20000
AFIX   0
C4    1    0.178898    0.914768    0.919714    11.00000    0.03441    0.01930 =
         0.02138   -0.01040    0.00138   -0.00083
C5    1    0.302782    0.928073    0.911062    11.00000    0.04313    0.01977 =
         0.02343   -0.00613   -0.00273   -0.01196
C6    1    0.397044    0.828004    0.941658    11.00000    0.03809    0.02615 =
         0.02546   -0.00373   -0.00673   -0.01673
C7    1    0.326988    0.752372    0.972769    11.00000    0.03235    0.02092 =
         0.02499   -0.00247   -0.00510   -0.01177
C8    1    0.193983    0.804631    0.958782    11.00000    0.03218    0.02361 =
         0.01937   -0.00635   -0.00333   -0.00892
C9    1    0.087272    0.755359    0.983585    11.00000    0.03218    0.04188 =
         0.02742   -0.01043    0.00776   -0.01716
AFIX 137
H9A   2    0.014934    0.795837    0.953348    11.00000   -1.50000
H9B   2    0.058747    0.756840    1.039988    11.00000   -1.50000
H9C   2    0.119613    0.681760    0.973347    11.00000   -1.50000
AFIX   0
C10   1    0.054664    0.998389    0.894264    11.00000    0.04351    0.03151 =
         0.03236   -0.01033    0.00501    0.00755
AFIX 137
H10A  2    0.074607    1.044880    0.846761    11.00000   -1.50000
H10B  2    0.011509    1.040664    0.936737    11.00000   -1.50000
H10C  2   -0.001769    0.963230    0.882979    11.00000   -1.50000
AFIX   0
C11   1    0.334595    1.030496    0.876697    11.00000    0.06849    0.02316 =
         0.04486   -0.00181   -0.01348   -0.02215
AFIX 137
H11A  2    0.416235    1.013321    0.842436    11.00000   -1.50000
H11B  2    0.341511    1.064078    0.919797    11.00000   -1.50000
H11C  2    0.266297    1.079308    0.845976    11.00000   -1.50000
AFIX   0
C12   1    0.538366    0.807942    0.943477    11.00000    0.03951    0.05174 =
         0.05088    0.00129   -0.01624   -0.02450
AFIX 137
H12A  2    0.584992    0.731721    0.946391    11.00000   -1.50000
H12B  2    0.549650    0.833214    0.989739    11.00000   -1.50000
H12C  2    0.571899    0.845911    0.895477    11.00000   -1.50000
AFIX   0
C13   1    0.383059    0.640196    1.017103    11.00000    0.04637    0.02832 =
         0.03737    0.00326   -0.01337   -0.01607
AFIX 137
H13A  2    0.330833    0.597151    1.013159    11.00000   -1.50000
H13B  2    0.382926    0.644021    1.072705    11.00000   -1.50000
H13C  2    0.471245    0.607740    0.993771    11.00000   -1.50000
AFIX   0
C14   1    0.880551    0.540713    0.855976    11.00000    0.02799    0.05520 =
         0.04155   -0.01262   -0.00358   -0.00793
AFIX  43
H14   2    0.922232    0.482378    0.892695    11.00000   -1.20000
AFIX   0
C15   1    0.908742    0.635759    0.844876    11.00000    0.02454    0.06691 =
         0.04563   -0.02319    0.00153   -0.01614
AFIX  43
H15   2    0.968674    0.641630    0.874565    11.00000   -1.20000
AFIX   0
C16   1    0.848448    0.722376    0.789877    11.00000    0.03079    0.04688 =
         0.05883   -0.02382    0.00923   -0.02290
AFIX  43
H16   2    0.868136    0.786296    0.782370    11.00000   -1.20000
AFIX   0
C17   1    0.758440    0.714085    0.745780    11.00000    0.02754    0.03402 =
         0.04497   -0.01298    0.00802   -0.01284
AFIX  43
H17   2    0.718827    0.772324    0.708312    11.00000   -1.20000
AFIX   0
C18   1    0.726967    0.619263    0.757183    11.00000    0.01749    0.02862 =
         0.02883   -0.00844    0.00285   -0.00708
C19   1    0.789420    0.531538    0.812223    11.00000    0.02763    0.02951 =
         0.03308   -0.00615   -0.00100   -0.00887
AFIX  43
H19   2    0.770540    0.467253    0.819783    11.00000   -1.20000
AFIX   0
C20   1    0.775349    0.581600    0.556435    11.00000    0.03561    0.04136 =
         0.03116   -0.01092    0.00794   -0.01258
AFIX  43
H20   2    0.822200    0.515707    0.584217    11.00000   -1.20000
AFIX   0
C21   1    0.817361    0.612215    0.476605    11.00000    0.03756    0.05889 =
         0.03466   -0.02223    0.00920   -0.01659
AFIX  43
H21   2    0.891515    0.565881    0.450974    11.00000   -1.20000
AFIX   0
C22   1    0.752430    0.707854    0.435804    11.00000    0.05774    0.05464 =
         0.03209   -0.00426    0.01333   -0.02436
AFIX  43
H22   2    0.783360    0.728453    0.382870    11.00000   -1.20000
AFIX   0
C23   1    0.641055    0.774772    0.472073    11.00000    0.08805    0.05022 =
         0.04701    0.02197    0.01294    0.00936
AFIX  43
H23   2    0.595756    0.840570    0.443463    11.00000   -1.20000
AFIX   0
C24   1    0.594924    0.745422    0.551236    11.00000    0.06094    0.04024 =
         0.04384    0.00951    0.02441    0.01184
AFIX  43
H24   2    0.517654    0.790572    0.575062    11.00000   -1.20000
AFIX   0
C25   1    0.663716    0.649038    0.594824    11.00000    0.02594    0.02759 =
         0.02635   -0.00621    0.00523   -0.01224
C26   1    0.220894    0.678239    0.483916    11.00000    0.03998    0.04592 =
         0.02552   -0.00944   -0.00395   -0.01052
AFIX  43
H26   2    0.254652    0.695479    0.430981    11.00000   -1.20000
AFIX   0
C27   1    0.088693    0.695063    0.502777    11.00000    0.04197    0.05927 =
         0.03367   -0.01229   -0.01572   -0.00831
AFIX  43
H27   2    0.033199    0.724140    0.462712    11.00000   -1.20000
AFIX   0
C28   1    0.038634    0.668781    0.581087    11.00000    0.02805    0.06543 =
         0.04041   -0.01177   -0.01173   -0.01208
AFIX  43
H28   2   -0.050744    0.680357    0.593685    11.00000   -1.20000
AFIX   0
C29   1    0.120719    0.625142    0.641297    11.00000    0.02825    0.05364 =
         0.02770   -0.01810    0.00495   -0.01685
AFIX  43
H29   2    0.086148    0.608064    0.694065    11.00000   -1.20000
AFIX   0
C30   1    0.255026    0.606886    0.622712    11.00000    0.02684    0.03084 =
         0.02660   -0.01568    0.00090   -0.00659
C31   1    0.304620    0.635343    0.544008    11.00000    0.03131    0.03854 =
         0.02814   -0.01281    0.00388   -0.01136
AFIX  43
H31   2    0.393524    0.625869    0.531268    11.00000   -1.20000
AFIX   0
C32   1    0.245634    0.402527    0.768522    11.00000    0.03387    0.03210 =
         0.04302   -0.01189   -0.00509   -0.01369
AFIX  43
H32   2    0.246672    0.393102    0.715825    11.00000   -1.20000
AFIX   0
C33   1    0.199799    0.337763    0.832035    11.00000    0.03479    0.02940 =
         0.07009   -0.00379   -0.00951   -0.01708
AFIX  43
H33   2    0.168690    0.285636    0.821842    11.00000   -1.20000
AFIX   0
C34   1    0.199927    0.349866    0.909655    11.00000    0.03293    0.02831 =
         0.05439    0.00952   -0.00125   -0.01450
AFIX  43
H34   2    0.170481    0.305005    0.951984    11.00000   -1.20000
AFIX   0
C35   1    0.243819    0.428860    0.925744    11.00000    0.03190    0.03447 =
         0.03380    0.00167   -0.00329   -0.00897
AFIX  43
H35   2    0.243401    0.437086    0.978656    11.00000   -1.20000
AFIX   0
C36   1    0.288527    0.495777    0.862076    11.00000    0.02461    0.02937 =
         0.03081   -0.00483   -0.00041   -0.01148
AFIX  43
H36   2    0.316908    0.549307    0.872603    11.00000   -1.20000
AFIX   0
C37   1    0.290706    0.482717    0.783726    11.00000    0.02161    0.02050 =
         0.03520   -0.00675    0.00004   -0.00780
C38   1    0.515021    0.465410    0.663867    11.00000    0.02447    0.02464 =
         0.03208   -0.01083    0.00340   -0.00886
AFIX  23
H38A  2    0.507722    0.393390    0.674115    11.00000   -1.20000
H38B  2    0.534376    0.484799    0.606294    11.00000   -1.20000
AFIX   0
C39   1    0.623346    0.467817    0.707785    11.00000    0.02012    0.02152 =
         0.03087   -0.00388   -0.00117   -0.00441
AFIX  23
H39A  2    0.708652    0.427896    0.682880    11.00000   -1.20000
H39B  2    0.613150    0.435835    0.763780    11.00000   -1.20000
AFIX   0
CO1   5    0.314345    0.802548    0.851824    11.00000    0.01939    0.01461 =
         0.02057   -0.00337   -0.00119   -0.00486
H     2    0.401397    0.693214    0.846462    11.00000    0.01238
NI1   7    0.402581    0.695086    0.733835    11.00000    0.01856    0.01758 =
         0.02216   -0.00591    0.00191   -0.00338
P1    8    0.361217    0.563584    0.701785    11.00000    0.01994    0.02409 =
         0.02302   -0.00925    0.00219   -0.00632
P2    8    0.606927    0.611401    0.699882    11.00000    0.01861    0.01908 =
         0.02428   -0.00488    0.00348   -0.00546
S1    9    0.191869    0.771109    0.775067    11.00000    0.01755    0.03162 =
         0.02641   -0.01265   -0.00220   -0.00261
S2    9    0.429907    0.852724    0.739571    11.00000    0.03148    0.01934 =
         0.03408   -0.00500    0.00923   -0.00944
C40   1   -0.197588    1.052541    0.597027    11.00000    0.16494    0.07992 =
         0.20550   -0.01770   -0.09439   -0.02445
AFIX  23
H40A  2   -0.140578    1.059098    0.631788    11.00000   -1.20000
H40B  2   -0.196739    1.105664    0.549148    11.00000   -1.20000
AFIX   0
CL1   4   -0.347520    1.083220    0.643938    11.00000    0.18320    0.40335 =
         0.40580   -0.20114    0.06144   -0.14137
CL2   4   -0.134872    0.929622    0.569734    11.00000    0.31613    0.09311 =
         0.13445    0.00018   -0.12547   -0.05003
C41   1    0.713857    0.125830    0.847851    11.00000    0.03813    0.04449 =
         0.07402   -0.01732    0.00795   -0.02231
AFIX  23
H41A  2    0.772924    0.128702    0.798572    11.00000   -1.20000
H41B  2    0.744420    0.150562    0.888067    11.00000   -1.20000
AFIX   0
CL3   4    0.554745    0.213520    0.830042    11.00000    0.05257    0.04466 =
         0.08649   -0.00356   -0.00823   -0.01134
CL4   4    0.718068   -0.006758    0.880628    11.00000    0.06410    0.04494 =
         0.20297    0.00884   -0.03578   -0.02677
HKLF 4
REM  180226cxx-1_a.res in P-1
REM R1 =  0.0715 for    7735 Fo > 4sig(Fo)  and  0.0874 for all    9066 data
REM    514 parameters refined using      0 restraints
END
WGHT      0.1040      8.1149
REM Highest difference peak  2.591,  deepest hole -1.650,  1-sigma level  0.131
Q1    1  -0.2810  0.9350  0.5556  11.00000  0.05    2.59
Q2    1   0.7319 -0.0046  0.8126  11.00000  0.05    2.14
Q3    1  -0.3764  1.1166  0.5866  11.00000  0.05    1.14
Q4    1  -0.0814  1.0058  0.5399  11.00000  0.05    1.02
Q5    1  -0.3631  1.0165  0.6704  11.00000  0.05    0.99
;
_shelx_res_checksum              4031
_shelx_fab_file
;
    0    0    2      1.58      0.00
    0    0    3     -1.60      0.00
    0    0    4      2.43      0.00
    0    0    5     -1.55      0.00
    0    0    6     -0.24      0.00
    0    0    7      1.04      0.00
    0    0    8     -1.05      0.00
    0    0    9      1.17      0.00
    0    0   10     -1.19      0.00
    0    0   11      0.88      0.00
    0    0   12     -0.61      0.00
    0    0   13      0.36      0.00
    0    0   14      0.11      0.00
    0    0   15     -0.51      0.00
    0    0   16      0.55      0.00
    0    0   17     -0.54      0.00
    0    0   18      0.71      0.00
    0    0   19     -0.78      0.00
    0    0   20      0.56      0.00
    0   -1   20      0.58      0.00
    0   -1   19     -0.64      0.00
    0   -1   18      0.51      0.00
    0   -1   17     -0.55      0.00
    0   -1   16      0.78      0.00
    0   -1   15     -0.75      0.00
    0   -1   14      0.35      0.00
    0   -1   13      0.04      0.00
    0   -1   12     -0.35      0.00
    0   -1   11      0.78      0.00
    0   -1   10     -1.11      0.00
    0   -1    9      1.20      0.00
    0   -1    8     -1.32      0.00
    0   -1    7      1.17      0.00
    0   -1    6     -0.14      0.00
    0   -1    5     -0.89      0.00
    0   -1    4      0.70      0.00
    0   -1    3     -0.59      0.00
    0   -1    2      2.47      0.00
    0   -1    1     -4.70      0.00
    0    1    1     -2.24      0.00
    0    1    2      2.09      0.00
    0    1    3     -3.44      0.00
    0    1    4      3.20      0.00
    0    1    5     -1.18      0.00
    0    1    6     -0.22      0.00
    0    1    7      0.39      0.00
    0    1    8     -0.59      0.00
    0    1    9      1.04      0.00
    0    1   10     -1.12      0.00
    0    1   11      1.00      0.00
    0    1   12     -0.96      0.00
    0    1   13      0.66      0.00
    0    1   14     -0.08      0.00
    0    1   15     -0.28      0.00
    0    1   16      0.35      0.00
    0    1   17     -0.52      0.00
    0    1   18      0.74      0.00
    0    1   19     -0.73      0.00
    0    1   20      0.49      0.00
    0   -2   20      0.39      0.00
    0   -2   19     -0.32      0.00
    0   -2   18      0.33      0.00
    0   -2   17     -0.67      0.00
    0   -2   16      1.00      0.00
    0   -2   15     -0.86      0.00
    0   -2   14      0.48      0.00
    0   -2   13     -0.19      0.00
    0   -2   12     -0.13      0.00
    0   -2   11      0.54      0.00
    0   -2    8     -1.35      0.00
    0   -2    7      1.21      0.00
    0   -2    6     -0.55      0.00
    0   -2    5      0.28      0.00
    0   -2    4     -0.34      0.00
    0   -2    3     -0.77      0.00
    0   -2    2      2.84      0.00
    0   -2    1     -3.44      0.00
    0    2    1     -2.03      0.00
    0    2    2      3.53      0.00
    0    2    3     -4.08      0.00
    0    2    4      2.49      0.00
    0    2    5     -0.85      0.00
    0    2    6      0.54      0.00
    0    2    7     -0.39      0.00
    0    2    8     -0.32      0.00
    0    2    9      0.86      0.00
    0    2   10     -0.99      0.00
    0    2   11      1.17      0.00
    0    2   12     -1.20      0.00
    0    2   13      0.72      0.00
    0    2   14     -0.17      0.00
    0    2   15      0.00      0.00
    0    2   16      0.11      0.00
    0    2   17     -0.42      0.00
    0    2   18      0.65      0.00
    0    2   19     -0.60      0.00
    0    2   20      0.44      0.00
    0   -3   18      0.34      0.00
    0   -3   17     -0.82      0.00
    0   -3   16      0.99      0.00
    0   -3   15     -0.75      0.00
    0   -3   14      0.50      0.00
    0   -3   13     -0.39      0.00
    0   -3   12      0.19      0.00
    0   -3   11      0.11      0.00
    0   -3   10     -0.43      0.00
    0   -3    8     -1.39      0.00
    0   -3    7      1.33      0.00
    0   -3    6     -0.98      0.00
    0   -3    5      0.91      0.00
    0   -3    4     -0.57      0.00
    0   -3    3     -0.69      0.00
    0   -3    2      1.75      0.00
    0   -3    1     -1.58      0.00
    0    3    0      1.49      0.00
    0    3    1     -2.73      0.00
    0    3    2      3.81      0.00
    0    3    3     -3.08      0.00
    0    3    4      1.73      0.00
    0    3    5     -1.38      0.00
    0    3    6      1.37      0.00
    0    3    7     -0.68      0.00
    0    3    8     -0.16      0.00
    0    3    9      0.56      0.00
    0    3   10     -0.92      0.00
    0    3   11      1.28      0.00
    0    3   12     -1.10      0.00
    0    3   13      0.58      0.00
    0    3   14     -0.37      0.00
    0    3   15      0.35      0.00
    0    3   16     -0.07      0.00
    0    3   17     -0.34      0.00
    0    3   18      0.49      0.00
    0    3   19     -0.45      0.00
    0    3   20      0.41      0.00
    0   -4   19     -0.02      0.00
    0   -4   18      0.41      0.00
    0   -4   17     -0.75      0.00
    0   -4   16      0.71      0.00
    0   -4   15     -0.53      0.00
    0   -4   14      0.57      0.00
    0   -4   13     -0.68      0.00
    0   -4   12      0.57      0.00
    0   -4   11     -0.26      0.00
    0   -4   10     -0.23      0.00
    0   -4    9      0.89      0.00
    0   -4    8     -1.27      0.00
    0   -4    7      1.12      0.00
    0   -4    6     -1.01      0.00
    0   -4    5      1.18      0.00
    0   -4    4     -0.93      0.00
    0   -4    3      0.09      0.00
    0   -4    2      0.45      0.00
    0   -4    1     -0.67      0.00
    0    4    0      1.46      0.00
    0    4    1     -2.54      0.00
    0    4    2      2.67      0.00
    0    4    3     -2.02      0.00
    0    4    4      1.82      0.00
    0    4    5     -1.94      0.00
    0    4    6      1.49      0.00
    0    4    7     -0.67      0.00
    0    4    8      0.14      0.00
    0    4    9      0.31      0.00
    0    4   10     -0.87      0.00
    0    4   11      1.06      0.00
    0    4   12     -0.75      0.00
    0    4   13      0.59      0.00
    0    4   14     -0.70      0.00
    0    4   15      0.54      0.00
    0    4   16     -0.07      0.00
    0    4   17     -0.23      0.00
    0    4   18      0.27      0.00
    0    4   19     -0.31      0.00
    0    4   20      0.37      0.00
    0   -5   17     -0.44      0.00
    0   -5   16      0.36      0.00
    0   -5   15     -0.43      0.00
    0   -5   14      0.75      0.00
    0   -5   13     -0.92      0.00
    0   -5   12      0.74      0.00
    0   -5   11     -0.35      0.00
    0   -5   10     -0.18      0.00
    0   -5    9      0.64      0.00
    0   -5    8     -0.73      0.00
    0   -5    7      0.70      0.00
    0   -5    6     -1.09      0.00
    0   -5    5      1.56      0.00
    0   -5    4     -1.33      0.00
    0   -5    3      0.62      0.00
    0   -5    2     -0.15      0.00
    0   -5    1     -0.22      0.00
    0    5    0      0.89      0.00
    0    5    1     -1.46      0.00
    0    5    2      1.60      0.00
    0    5    3     -1.71      0.00
    0    5    4      1.92      0.00
    0    5    5     -1.76      0.00
    0    5    6      1.24      0.00
    0    5    7     -0.81      0.00
    0    5    8      0.40      0.00
    0    5    9      0.21      0.00
    0    5   10     -0.62      0.00
    0    5   11      0.58      0.00
    0    5   12     -0.57      0.00
    0    5   13      0.81      0.00
    0    5   14     -0.80      0.00
    0    5   15      0.39      0.00
    0    5   16     -0.07      0.00
    0    5   17      0.01      0.00
    0    5   18      0.07      0.00
    0    5   19     -0.25      0.00
    0    5   20      0.32      0.00
    0   -6   18      0.11      0.00
    0   -6   17     -0.14      0.00
    0   -6   16      0.17      0.00
    0   -6   15     -0.48      0.00
    0   -6   14      0.85      0.00
    0   -6   13     -0.87      0.00
    0   -6   12      0.61      0.00
    0   -6   11     -0.34      0.00
    0   -6   10      0.10      0.00
    0   -6    9      0.06      0.00
    0   -6    8     -0.18      0.00
    0   -6    7      0.59      0.00
    0   -6    6     -1.31      0.00
    0   -6    5      1.62      0.00
    0   -6    4     -1.21      0.00
    0   -6    3      0.73      0.00
    0   -6    2     -0.63      0.00
    0   -6    1      0.49      0.00
    0    6    0      0.05      0.00
    0    6    1     -0.67      0.00
    0    6    2      1.12      0.00
    0    6    3     -1.38      0.00
    0    6    4      1.42      0.00
    0    6    5     -1.29      0.00
    0    6    6      1.16      0.00
    0    6    7     -0.92      0.00
    0    6    8      0.41      0.00
    0    6    9      0.05      0.00
    0    6   10     -0.17      0.00
    0    6   11      0.30      0.00
    0    6   12     -0.66      0.00
    0    6   13      0.80      0.00
    0    6   14     -0.50      0.00
    0    6   15      0.23      0.00
    0    6   16     -0.26      0.00
    0    6   17      0.21      0.00
    0    6   18      0.07      0.00
    0    6   19     -0.23      0.00
    0    6   20      0.18      0.00
    0   -7   17      0.03      0.00
    0   -7   16      0.11      0.00
    0   -7   15     -0.47      0.00
    0   -7   14      0.67      0.00
    0   -7   13     -0.57      0.00
    0   -7   12      0.49      0.00
    0   -7   11     -0.55      0.00
    0   -7   10      0.52      0.00
    0   -7    9     -0.32      0.00
    0   -7    8     -0.05      0.00
    0   -7    7      0.62      0.00
    0   -7    6     -1.10      0.00
    0   -7    5      1.12      0.00
    0   -7    4     -0.90      0.00
    0   -7    3      0.97      0.00
    0   -7    2     -1.18      0.00
    0   -7    1      0.97      0.00
    0    7    0     -0.32      0.00
    0    7    1     -0.29      0.00
    0    7    2      0.59      0.00
    0    7    3     -0.71      0.00
    0    7    4      0.85      0.00
    0    7    5     -1.05      0.00
    0    7    6      1.07      0.00
    0    7    7     -0.76      0.00
    0    7    8      0.40      0.00
    0    7    9     -0.26      0.00
    0    7   10      0.09      0.00
    0    7   11      0.33      0.00
    0    7   12     -0.59      0.00
    0    7   13      0.39      0.00
    0    7   14     -0.21      0.00
    0    7   15      0.37      0.00
    0    7   16     -0.43      0.00
    0    7   17      0.11      0.00
    0    7   18      0.17      0.00
    0    7   19     -0.11      0.00
    0   -8   16      0.05      0.00
    0   -8   15     -0.30      0.00
    0   -8   14      0.35      0.00
    0   -8   13     -0.37      0.00
    0   -8   12      0.59      0.00
    0   -8   11     -0.76      0.00
    0   -8   10      0.61      0.00
    0   -8    9     -0.30      0.00
    0   -8    8      0.02      0.00
    0   -8    7      0.27      0.00
    0   -8    6     -0.53      0.00
    0   -8    5      0.69      0.00
    0   -8    4     -0.89      0.00
    0   -8    3      1.18      0.00
    0   -8    2     -1.26      0.00
    0   -8    1      0.93      0.00
    0    8    0     -0.46      0.00
    0    8    1      0.17      0.00
    0    8    2     -0.03      0.00
    0    8    3     -0.21      0.00
    0    8    4      0.59      0.00
    0    8    5     -0.84      0.00
    0    8    6      0.77      0.00
    0    8    7     -0.57      0.00
    0    8    8      0.52      0.00
    0    8    9     -0.41      0.00
    0    8   10      0.03      0.00
    0    8   11      0.28      0.00
    0    8   12     -0.17      0.00
    0    8   13      0.04      0.00
    0    8   14     -0.29      0.00
    0    8   15      0.50      0.00
    0    8   16     -0.23      0.00
    0    8   17     -0.14      0.00
    0    8   18      0.10      0.00
    0    8   19      0.10      0.00
    0   -9   15     -0.11      0.00
    0   -9   14      0.16      0.00
    0   -9   13     -0.37      0.00
    0   -9   12      0.64      0.00
    0   -9   11     -0.61      0.00
    0   -9   10      0.40      0.00
    0   -9    9     -0.37      0.00
    0   -9    8      0.40      0.00
    0   -9    7     -0.17      0.00
    0   -9    6     -0.25      0.00
    0   -9    5      0.58      0.00
    0   -9    4     -0.77      0.00
    0   -9    3      0.92      0.00
    0   -9    2     -0.97      0.00
    0   -9    1      0.87      0.00
    0    9    0     -0.68      0.00
    0    9    1      0.52      0.00
    0    9    2     -0.32      0.00
    0    9    3     -0.01      0.00
    0    9    4      0.37      0.00
    0    9    5     -0.50      0.00
    0    9    6      0.48      0.00
    0    9    7     -0.52      0.00
    0    9    8      0.54      0.00
    0    9    9     -0.30      0.00
    0    9   10      0.00      0.00
    0    9   11     -0.04      0.00
    0    9   12      0.16      0.00
    0    9   13      0.10      0.00
    0    9   14     -0.43      0.00
    0    9   16      0.13      0.00
    0    9   17     -0.14      0.00
    0    9   18     -0.11      0.00
    0  -10   14      0.10      0.00
    0  -10   13     -0.31      0.00
    0  -10   12      0.39      0.00
    0  -10   11     -0.31      0.00
    0  -10   10      0.40      0.00
    0  -10    9     -0.66      0.00
    0  -10    8      0.63      0.00
    0  -10    7     -0.17      0.00
    0  -10    6     -0.22      0.00
    0  -10    5      0.26      0.00
    0  -10    4     -0.28      0.00
    0  -10    3      0.56      0.00
    0  -10    2     -0.86      0.00
    0  -10    1      0.86      0.00
    0   10    0     -0.67      0.00
    0   10    1      0.52      0.00
    0   10    2     -0.40      0.00
    0   10    3      0.14      0.00
    0   10    4      0.13      0.00
    0   10    5     -0.25      0.00
    0   10    6      0.33      0.00
    0   10    7     -0.45      0.00
    0   10    8      0.40      0.00
    0   10    9     -0.20      0.00
    0   10   10      0.17      0.00
    0   10   11     -0.28      0.00
    0   10   12      0.11      0.00
    0   10   13      0.24      0.00
    0   10   14     -0.23      0.00
    0   10   15     -0.11      0.00
    0   10   17      0.05      0.00
    0   10   18     -0.13      0.00
    0  -11   12      0.14      0.00
    0  -11   11     -0.26      0.00
    0  -11   10      0.58      0.00
    0  -11    9     -0.70      0.00
    0  -11    8      0.39      0.00
    0  -11    7     -0.05      0.00
    0  -11    6      0.11      0.00
    0  -11    5     -0.27      0.00
    0  -11    4      0.00      0.00
    0  -11    3      0.54      0.00
    0  -11    2     -0.75      0.00
    0  -11    1      0.54      0.00
    0   11    0     -0.41      0.00
    0   11    1      0.51      0.00
    0   11    2     -0.48      0.00
    0   11    3      0.20      0.00
    0   11    4      0.03      0.00
    0   11    5     -0.11      0.00
    0   11    6      0.22      0.00
    0   11    7     -0.34      0.00
    0   11    8      0.29      0.00
    0   11    9     -0.21      0.00
    0   11   10      0.27      0.00
    0   11   11     -0.23      0.00
    0   11   12     -0.03      0.00
    0   11   13      0.14      0.00
    0   11   14      0.06      0.00
    0   11   15     -0.19      0.00
    0   11   16      0.02      0.00
    0   11   17      0.10      0.00
    0  -12   10      0.49      0.00
    0  -12    9     -0.37      0.00
    0  -12    8      0.18      0.00
    0  -12    7     -0.29      0.00
    0  -12    6      0.54      0.00
    0  -12    5     -0.40      0.00
    0  -12    4     -0.14      0.00
    0  -12    3      0.45      0.00
    0  -12    2     -0.28      0.00
    0  -12    1      0.13      0.00
    0   12    0     -0.36      0.00
    0   12    1      0.58      0.00
    0   12    2     -0.39      0.00
    0   12    3      0.09      0.00
    0   12    4     -0.04      0.00
    0   12    5      0.02      0.00
    0   12    6      0.17      0.00
    0   12    7     -0.29      0.00
    0   12    8      0.21      0.00
    0   12    9     -0.17      0.00
    0   12   10      0.23      0.00
    0   12   11     -0.15      0.00
    0   12   12     -0.01      0.00
    0   12   13     -0.02      0.00
    0   12   14      0.12      0.00
    0   12   15     -0.05      0.00
    0   12   16     -0.04      0.00
    0  -13    9     -0.17      0.00
    0  -13    8      0.31      0.00
    0  -13    7     -0.54      0.00
    0  -13    6      0.52      0.00
    0  -13    5     -0.15      0.00
    0  -13    4     -0.13      0.00
    0  -13    3      0.01      0.00
    0  -13    2      0.14      0.00
    0  -13    1      0.10      0.00
    0   13    0     -0.47      0.00
    0   13    1      0.42      0.00
    0   13    2     -0.12      0.00
    0   13    3      0.07      0.00
    0   13    4     -0.18      0.00
    0   13    5      0.05      0.00
    0   13    6      0.21      0.00
    0   13    7     -0.19      0.00
    0   13    8      0.06      0.00
    0   13    9     -0.13      0.00
    0   13   10      0.23      0.00
    0   13   11     -0.13      0.00
    0   13   12      0.00      0.00
    0   13   13     -0.02      0.00
    0   13   14      0.04      0.00
    0  -14    6      0.23      0.00
    0  -14    5     -0.11      0.00
    0  -14    4      0.19      0.00
    0  -14    3     -0.30      0.00
    0  -14    2      0.11      0.00
    0  -14    1      0.25      0.00
    0   14    0     -0.32      0.00
    0   14    1      0.08      0.00
    0   14    2     -0.02      0.00
    0   14    3      0.22      0.00
    0   14    4     -0.21      0.00
    0   14    5     -0.07      0.00
    0   14    6      0.16      0.00
    0   14    7      0.00      0.00
    0   14    8      0.00      0.00
    0   14    9     -0.20      0.00
    0   14   10      0.21      0.00
    0   14   11     -0.02      0.00
    0  -15    3     -0.20      0.00
    0  -15    2     -0.05      0.00
    0  -15    1      0.15      0.00
    0   15    0     -0.01      0.00
    0   15    1     -0.05      0.00
    0   15    2     -0.16      0.00
    0   15    3      0.29      0.00
    0   15    4     -0.08      0.00
    0   15    5     -0.10      0.00
    0   15    7      0.11      0.00
   -1   15    6      0.21      0.00
   -1   15    5     -0.04      0.00
   -1   15    3     -0.10      0.00
   -1   15    2      0.06      0.00
   -1   15    1      0.15      0.00
   -1   15    0     -0.23      0.00
   -1   14   10     -0.07      0.00
   -1   14    9      0.18      0.00
   -1   14    8      0.06      0.00
   -1   14    7     -0.25      0.00
   -1   14    6      0.11      0.00
   -1   14    5      0.02      0.00
   -1   14    4      0.13      0.00
   -1   14    3     -0.20      0.00
   -1   14    2     -0.01      0.00
   -1   14    1      0.16      0.00
   -1   14    0     -0.08      0.00
    1  -14    1      0.09      0.00
    1  -14    2     -0.34      0.00
    1  -14    3      0.51      0.00
    1  -14    5      0.28      0.00
   -1   13   13      0.02      0.00
   -1   13   12      0.05      0.00
   -1   13   11      0.07      0.00
   -1   13   10     -0.21      0.00
   -1   13    9      0.06      0.00
   -1   13    8      0.19      0.00
   -1   13    7     -0.15      0.00
   -1   13    6     -0.01      0.00
   -1   13    5     -0.12      0.00
   -1   13    4      0.32      0.00
   -1   13    3     -0.21      0.00
   -1   13    2      0.00      0.00
   -1   13    1     -0.07      0.00
   -1   13    0      0.12      0.00
    1  -13    1      0.18      0.00
    1  -13    2     -0.53      0.00
    1  -13    3      0.51      0.00
    1  -13    4     -0.30      0.00
    1  -13    5      0.32      0.00
    1  -13    6     -0.50      0.00
    1  -13    7      0.48      0.00
    1  -13    8     -0.24      0.00
   -1   12   14     -0.17      0.00
   -1   12   13      0.12      0.00
   -1   12   12     -0.11      0.00
   -1   12   11      0.20      0.00
   -1   12   10     -0.17      0.00
   -1   12    9     -0.02      0.00
   -1   12    8      0.08      0.00
   -1   12    7      0.02      0.00
   -1   12    6      0.07      0.00
   -1   12    5     -0.35      0.00
   -1   12    4      0.38      0.00
   -1   12    3     -0.22      0.00
   -1   12    2      0.26      0.00
   -1   12    1     -0.38      0.00
   -1   12    0      0.15      0.00
    1  -12    1      0.29      0.00
    1  -12    2     -0.41      0.00
    1  -12    3      0.22      0.00
    1  -12    4     -0.28      0.00
    1  -12    5      0.65      0.00
    1  -12    6     -0.81      0.00
    1  -12    7      0.54      0.00
    1  -12    8     -0.19      0.00
    1  -12    9      0.10      0.00
    1  -12   10     -0.11      0.00
   -1   11   16     -0.09      0.00
   -1   11   15      0.27      0.00
   -1   11   14     -0.32      0.00
   -1   11   13      0.18      0.00
   -1   11   12     -0.16      0.00
   -1   11   11      0.24      0.00
   -1   11   10     -0.21      0.00
   -1   11    9      0.10      0.00
   -1   11    8     -0.09      0.00
   -1   11    7      0.03      0.00
   -1   11    6      0.22      0.00
   -1   11    5     -0.41      0.00
   -1   11    4      0.37      0.00
   -1   11    3     -0.41      0.00
   -1   11    2      0.59      0.00
   -1   11    1     -0.54      0.00
   -1   11    0      0.18      0.00
    1  -11    1      0.05      0.00
    1  -11    2      0.02      0.00
    1  -11    3      0.05      0.00
    1  -11    4     -0.51      0.00
    1  -11    5      0.89      0.00
    1  -11    6     -0.76      0.00
    1  -11    7      0.42      0.00
    1  -11    8     -0.35      0.00
    1  -11    9      0.47      0.00
    1  -11   10     -0.36      0.00
    1  -11   11      0.03      0.00
   -1   10   17      0.02      0.00
   -1   10   16     -0.28      0.00
   -1   10   15      0.45      0.00
   -1   10   14     -0.26      0.00
   -1   10   13      0.09      0.00
   -1   10   12     -0.23      0.00
   -1   10   11      0.40      0.00
   -1   10   10     -0.34      0.00
   -1   10    9      0.23      0.00
   -1   10    8     -0.18      0.00
   -1   10    7      0.02      0.00
   -1   10    6      0.22      0.00
   -1   10    5     -0.34      0.00
   -1   10    4      0.41      0.00
   -1   10    3     -0.62      0.00
   -1   10    2      0.78      0.00
   -1   10    1     -0.68      0.00
   -1   10    0      0.48      0.00
    1  -10    1     -0.41      0.00
    1  -10    2      0.31      0.00
    1  -10    3      0.09      0.00
    1  -10    4     -0.55      0.00
    1  -10    5      0.68      0.00
    1  -10    6     -0.54      0.00
    1  -10    7      0.56      0.00
    1  -10    8     -0.78      0.00
    1  -10    9      0.77      0.00
    1  -10   10     -0.40      0.00
    1  -10   11      0.05      0.00
    1  -10   12      0.05      0.00
    1  -10   13     -0.14      0.00
   -1    9   18      0.05      0.00
   -1    9   17      0.19      0.00
   -1    9   16     -0.48      0.00
   -1    9   15      0.31      0.00
   -1    9   14      0.00      0.00
   -1    9   13      0.12      0.00
   -1    9   12     -0.46      0.00
   -1    9   11      0.51      0.00
   -1    9   10     -0.35      0.00
   -1    9    9      0.31      0.00
   -1    9    8     -0.31      0.00
   -1    9    7      0.14      0.00
   -1    9    6      0.08      0.00
   -1    9    5     -0.21      0.00
   -1    9    4      0.40      0.00
   -1    9    3     -0.71      0.00
   -1    9    2      0.93      0.00
   -1    9    1     -0.93      0.00
   -1    9    0      0.82      0.00
    1   -9    1     -0.69      0.00
    1   -9    2      0.48      0.00
    1   -9    3     -0.16      0.00
    1   -9    4     -0.16      0.00
    1   -9    5      0.38      0.00
    1   -9    6     -0.58      0.00
    1   -9    7      0.84      0.00
    1   -9    8     -0.96      0.00
    1   -9    9      0.76      0.00
    1   -9   10     -0.46      0.00
    1   -9   11      0.34      0.00
    1   -9   12     -0.25      0.00
    1   -9   13     -0.04      0.00
    1   -9   14      0.28      0.00
    1   -9   15     -0.28      0.00
   -1    8   19     -0.08      0.00
   -1    8   18     -0.07      0.00
   -1    8   17      0.40      0.00
   -1    8   16     -0.30      0.00
   -1    8   15     -0.08      0.00
   -1    8   14      0.06      0.00
   -1    8   13      0.35      0.00
   -1    8   12     -0.52      0.00
   -1    8   11      0.36      0.00
   -1    8   10     -0.34      0.00
   -1    8    9      0.51      0.00
   -1    8    8     -0.50      0.00
   -1    8    7      0.31      0.00
   -1    8    6     -0.17      0.00
   -1    8    5      0.03      0.00
   -1    8    4      0.30      0.00
   -1    8    3     -0.74      0.00
   -1    8    2      1.01      0.00
   -1    8    1     -1.01      0.00
   -1    8    0      0.92      0.00
    1   -8    1     -0.92      0.00
    1   -8    2      0.94      0.00
    1   -8    3     -0.69      0.00
    1   -8    4      0.16      0.00
    1   -8    5      0.31      0.00
    1   -8    6     -0.57      0.00
    1   -8    7      0.71      0.00
    1   -8    8     -0.80      0.00
    1   -8    9      0.81      0.00
    1   -8   10     -0.80      0.00
    1   -8   11      0.73      0.00
    1   -8   12     -0.41      0.00
    1   -8   13      0.01      0.00
    1   -8   14      0.14      0.00
    1   -8   15     -0.15      0.00
    1   -8   16      0.34      0.00
   -1    7   19      0.00      0.00
   -1    7   18     -0.28      0.00
   -1    7   17      0.26      0.00
   -1    7   16      0.12      0.00
   -1    7   15     -0.23      0.00
   -1    7   14     -0.13      0.00
   -1    7   13      0.35      0.00
   -1    7   12     -0.20      0.00
   -1    7   11      0.19      0.00
   -1    7   10     -0.50      0.00
   -1    7    9      0.69      0.00
   -1    7    8     -0.61      0.00
   -1    7    7      0.55      0.00
   -1    7    6     -0.55      0.00
   -1    7    5      0.33      0.00
   -1    7    4      0.13      0.00
   -1    7    3     -0.57      0.00
   -1    7    2      0.77      0.00
   -1    7    1     -0.82      0.00
   -1    7    0      1.00      0.00
    1   -7    1     -1.37      0.00
    1   -7    2      1.44      0.00
    1   -7    3     -0.91      0.00
    1   -7    4      0.23      0.00
    1   -7    5      0.03      0.00
    1   -7    6     -0.05      0.00
    1   -7    7      0.33      0.00
    1   -7    8     -0.81      0.00
    1   -7    9      1.09      0.00
    1   -7   10     -1.08      0.00
    1   -7   11      0.81      0.00
    1   -7   12     -0.43      0.00
    1   -7   13      0.23      0.00
    1   -7   14     -0.21      0.00
    1   -7   15      0.02      0.00
    1   -7   16      0.36      0.00
   -1    6   19      0.21      0.00
   -1    6   18     -0.24      0.00
   -1    6   17     -0.09      0.00
   -1    6   16      0.30      0.00
   -1    6   15     -0.09      0.00
   -1    6   14     -0.09      0.00
   -1    6   13     -0.08      0.00
   -1    6   12      0.11      0.00
   -1    6   11      0.27      0.00
   -1    6   10     -0.60      0.00
   -1    6    9      0.64      0.00
   -1    6    8     -0.70      0.00
   -1    6    7      0.90      0.00
   -1    6    6     -0.91      0.00
   -1    6    5      0.62      0.00
   -1    6    4     -0.27      0.00
   -1    6    3     -0.03      0.00
   -1    6    2      0.31      0.00
   -1    6    1     -0.63      0.00
   -1    6    0      1.14      0.00
    1   -6    1     -1.59      0.00
    1   -6    2      1.45      0.00
    1   -6    3     -0.85      0.00
    1   -6    4      0.59      0.00
    1   -6    5     -0.76      0.00
    1   -6    6      0.54      0.00
    1   -6    7      0.28      0.00
    1   -6    8     -0.97      0.00
    1   -6    9      1.09      0.00
    1   -6   10     -0.90      0.00
    1   -6   11      0.73      0.00
    1   -6   12     -0.68      0.00
    1   -6   13      0.70      0.00
    1   -6   14     -0.55      0.00
    1   -6   15      0.09      0.00
    1   -6   16      0.33      0.00
    1   -6   17     -0.36      0.00
   -1    5   20     -0.22      0.00
   -1    5   19      0.27      0.00
   -1    5   18     -0.03      0.00
   -1    5   17     -0.23      0.00
   -1    5   16      0.18      0.00
   -1    5   15     -0.10      0.00
   -1    5   14      0.32      0.00
   -1    5   13     -0.45      0.00
   -1    5   12      0.11      0.00
   -1    5   11      0.27      0.00
   -1    5   10     -0.35      0.00
   -1    5    9      0.49      0.00
   -1    5    8     -0.90      0.00
   -1    5    7      1.17      0.00
   -1    5    6     -1.18      0.00
   -1    5    5      1.13      0.00
   -1    5    4     -0.95      0.00
   -1    5    3      0.52      0.00
   -1    5    2     -0.08      0.00
   -1    5    1     -0.30      0.00
   -1    5    0      0.85      0.00
    1   -5    1     -1.31      0.00
    1   -5    2      1.22      0.00
    1   -5    3     -1.03      0.00
    1   -5    4      1.28      0.00
    1   -5    5     -1.38      0.00
    1   -5    6      0.64      0.00
    1   -5    7      0.34      0.00
    1   -5    8     -0.67      0.00
    1   -5    9      0.55      0.00
    1   -5   10     -0.62      0.00
    1   -5   11      0.90      0.00
    1   -5   12     -1.10      0.00
    1   -5   13      1.05      0.00
    1   -5   14     -0.66      0.00
    1   -5   15      0.12      0.00
    1   -5   16      0.14      0.00
    1   -5   17     -0.09      0.00
    1   -5   18      0.13      0.00
   -1    4   20     -0.32      0.00
   -1    4   19      0.19      0.00
   -1    4   18      0.05      0.00
   -1    4   17     -0.11      0.00
   -1    4   16      0.12      0.00
   -1    4   15     -0.39      0.00
   -1    4   14      0.66      0.00
   -1    4   13     -0.47      0.00
   -1    4   12      0.14      0.00
   -1    4   11     -0.10      0.00
   -1    4   10      0.02      0.00
   -1    4    9      0.48      0.00
   -1    4    8     -0.99      0.00
   -1    4    7      1.27      0.00
   -1    4    6     -1.58      0.00
   -1    4    5      1.76      0.00
   -1    4    4     -1.39      0.00
   -1    4    3      0.89      0.00
   -1    4    2     -0.81      0.00
   -1    4    1      0.60      0.00
   -1    4    0      0.26      0.00
    1   -4    1     -1.01      0.00
    1   -4    2      1.09      0.00
    1   -4    3     -1.19      0.00
    1   -4    4      1.59      0.00
    1   -4    5     -1.45      0.00
    1   -4    6      0.62      0.00
    1   -4    7     -0.09      0.00
    1   -4    8      0.11      0.00
    1   -4    9      0.06      0.00
    1   -4   10     -0.65      0.00
    1   -4   11      1.15      0.00
    1   -4   12     -1.26      0.00
    1   -4   13      1.05      0.00
    1   -4   14     -0.65      0.00
    1   -4   15      0.31      0.00
    1   -4   16     -0.26      0.00
    1   -4   17      0.25      0.00
    1   -4   18      0.00      0.00
   -1    3   20     -0.32      0.00
   -1    3   19      0.16      0.00
   -1    3   18     -0.06      0.00
   -1    3   17      0.03      0.00
   -1    3   16      0.21      0.00
   -1    3   15     -0.59      0.00
   -1    3   14      0.64      0.00
   -1    3   13     -0.45      0.00
   -1    3   12      0.50      0.00
   -1    3   11     -0.59      0.00
   -1    3   10      0.20      0.00
   -1    3    9      0.42      0.00
   -1    3    8     -0.87      0.00
   -1    3    7      1.40      0.00
   -1    3    6     -1.98      0.00
   -1    3    5      1.91      0.00
   -1    3    4     -1.46      0.00
   -1    3    3      1.71      0.00
   -1    3    2     -2.18      0.00
   -1    3    1      1.43      0.00
   -1    3    0      0.11      0.00
    1   -3    1     -0.69      0.00
    1   -3    2      0.48      0.00
    1   -3    3     -0.84      0.00
    1   -3    4      1.56      0.00
    1   -3    5     -1.49      0.00
    1   -3    6      0.93      0.00
    1   -3    7     -0.77      0.00
    1   -3    8      0.69      0.00
    1   -3    9     -0.07      0.00
    1   -3   10     -0.69      0.00
    1   -3   11      1.01      0.00
    1   -3   12     -1.02      0.00
    1   -3   13      0.93      0.00
    1   -3   14     -0.76      0.00
    1   -3   15      0.67      0.00
    1   -3   16     -0.68      0.00
    1   -3   17      0.49      0.00
    1   -3   18     -0.06      0.00
    1   -3   19     -0.26      0.00
    1   -3   20      0.30      0.00
   -1    2   20     -0.29      0.00
   -1    2   19      0.23      0.00
   -1    2   18     -0.24      0.00
   -1    2   17      0.12      0.00
   -1    2   16      0.26      0.00
   -1    2   15     -0.54      0.00
   -1    2   14      0.53      0.00
   -1    2   13     -0.64      0.00
   -1    2   12      0.93      0.00
   -1    2   11     -0.82      0.00
   -1    2   10      0.30      0.00
   -1    2    9      0.17      0.00
   -1    2    8     -0.70      0.00
   -1    2    6     -1.82      0.00
   -1    2    5      1.58      0.00
   -1    2    4     -2.02      0.00
   -1    2    3      3.19      0.00
   -1    2    2     -3.09      0.00
   -1    2    1      1.26      0.00
   -1    2    0     -0.08      0.00
    1   -2    2     -0.74      0.00
    1   -2    3     -0.60      0.00
    1   -2    4      1.71      0.00
    1   -2    5     -1.52      0.00
    1   -2    6      1.11      0.00
    1   -2    7     -1.15      0.00
    1   -2    8      0.92      0.00
    1   -2    9     -0.21      0.00
    1   -2   10     -0.32      0.00
    1   -2   11      0.53      0.00
    1   -2   12     -0.74      0.00
    1   -2   13      0.92      0.00
    1   -2   14     -0.94      0.00
    1   -2   15      0.97      0.00
    1   -2   16     -0.92      0.00
    1   -2   17      0.58      0.00
    1   -2   18     -0.12      0.00
    1   -2   19     -0.10      0.00
    1   -2   20      0.06      0.00
   -1    1   19      0.38      0.00
   -1    1   18     -0.44      0.00
   -1    1   17      0.19      0.00
   -1    1   16      0.21      0.00
   -1    1   15     -0.39      0.00
   -1    1   14      0.50      0.00
   -1    1   13     -0.85      0.00
   -1    1   12      1.08      0.00
   -1    1   11     -0.86      0.00
   -1    1   10      0.52      0.00
   -1    1    9     -0.16      0.00
   -1    1    8     -0.51      0.00
   -1    1    7      1.11      0.00
   -1    1    6     -1.18      0.00
   -1    1    5      1.67      0.00
   -1    1    4     -3.21      0.00
   -1    1    3      3.98      0.00
   -1    1    2     -2.53      0.00
   -1    1    1      0.99      0.00
   -1    1    0     -1.60      0.00
    1   -1    2     -1.22      0.00
    1   -1    3     -1.01      0.00
    1   -1    4      1.54      0.00
    1   -1    5     -0.91      0.00
    1   -1    6      0.95      0.00
    1   -1    7     -1.39      0.00
    1   -1    8      1.17      0.00
    1   -1    9     -0.59      0.00
    1   -1   10      0.24      0.00
    1   -1   11      0.11      0.00
    1   -1   12     -0.60      0.00
    1   -1   13      0.88      0.00
    1   -1   14     -0.96      0.00
    1   -1   15      1.06      0.00
    1   -1   16     -0.99      0.00
    1   -1   17      0.62      0.00
    1   -1   18     -0.28      0.00
    1   -1   19      0.21      0.00
   -1    0   19      0.59      0.00
   -1    0   18     -0.56      0.00
   -1    0   17      0.18      0.00
   -1    0   16      0.13      0.00
   -1    0   15     -0.20      0.00
   -1    0   14      0.43      0.00
   -1    0   13     -0.85      0.00
   -1    0   12      1.03      0.00
   -1    0   11     -0.92      0.00
   -1    0   10      0.80      0.00
   -1    0    9     -0.47      0.00
   -1    0    8     -0.09      0.00
   -1    0    7      0.40      0.00
   -1    0    6     -0.86      0.00
   -1    0    5      2.31      0.00
   -1    0    4     -3.70      0.00
   -1    0    3      3.12      0.00
   -1    0    2     -1.68      0.00
   -1    0    1      2.19      0.00
    1    0    1      3.19      0.00
    1    0    2     -0.47      0.00
    1    0    3     -0.90      0.00
    1    0    4      0.23      0.00
    1    0    5     -0.02      0.00
    1    0    6      1.07      0.00
    1    0    7     -1.71      0.00
    1    0    8      1.37      0.00
    1    0    9     -0.95      0.00
    1    0   10      0.65      0.00
    1    0   12     -0.41      0.00
    1    0   13      0.61      0.00
    1    0   14     -0.78      0.00
    1    0   15      1.01      0.00
    1    0   16     -0.98      0.00
    1    0   17      0.69      0.00
    1    0   18     -0.52      0.00
    1    0   19      0.51      0.00
   -1   -1   20     -0.52      0.00
   -1   -1   19      0.69      0.00
   -1   -1   18     -0.46      0.00
   -1   -1   17      0.11      0.00
   -1   -1   16     -0.08      0.00
   -1   -1   15      0.10      0.00
   -1   -1   14      0.26      0.00
   -1   -1   13     -0.74      0.00
   -1   -1   12      0.94      0.00
   -1   -1   11     -1.01      0.00
   -1   -1   10      1.03      0.00
   -1   -1    9     -0.77      0.00
   -1   -1    8      0.43      0.00
   -1   -1    7     -0.07      0.00
   -1   -1    6     -0.94      0.00
   -1   -1    5      2.40      0.00
   -1   -1    4     -2.71      0.00
   -1   -1    3      1.86      0.00
   -1   -1    2     -2.20      0.00
   -1   -1    1      4.09      0.00
    1    1    0     -4.45      0.00
    1    1    1      2.11      0.00
    1    1    2     -0.22      0.00
    1    1    3      0.71      0.00
    1    1    4     -1.29      0.00
    1    1    5      0.04      0.00
    1    1    6      1.47      0.00
    1    1    7     -1.65      0.00
    1    1    8      1.26      0.00
    1    1    9     -1.14      0.00
    1    1   10      0.86      0.00
    1    1   11     -0.31      0.00
    1    1   12      0.00      0.00
    1    1   13      0.17      0.00
    1    1   14     -0.57      0.00
    1    1   15      0.95      0.00
    1    1   16     -0.92      0.00
    1    1   17      0.73      0.00
    1    1   18     -0.69      0.00
    1    1   19      0.66      0.00
    1    1   20     -0.46      0.00
   -1   -2   20     -0.57      0.00
   -1   -2   19      0.52      0.00
   -1   -2   18     -0.24      0.00
   -1   -2   17      0.22      0.00
   -1   -2   16     -0.46      0.00
   -1   -2   15      0.37      0.00
   -1   -2   14      0.18      0.00
   -1   -2   13     -0.64      0.00
   -1   -2   12      0.83      0.00
   -1   -2   11     -1.02      0.00
   -1   -2   10      1.11      0.00
   -1   -2    9     -0.97      0.00
   -1   -2    8      0.77      0.00
   -1   -2    7     -0.30      0.00
   -1   -2    6     -0.71      0.00
   -1   -2    5      1.51      0.00
   -1   -2    4     -1.42      0.00
   -1   -2    3      1.69      0.00
   -1   -2    2     -3.34      0.00
   -1   -2    1      4.46      0.00
    1    2    0     -3.17      0.00
    1    2    1      1.38      0.00
    1    2    2     -1.60      0.00
    1    2    3      2.47      0.00
    1    2    4     -1.50      0.00
    1    2    5     -0.49      0.00
    1    2    6      1.26      0.00
    1    2    7     -1.03      0.00
    1    2    8      1.09      0.00
    1    2    9     -1.26      0.00
    1    2   10      0.96      0.00
    1    2   11     -0.63      0.00
    1    2   12      0.53      0.00
    1    2   13     -0.16      0.00
    1    2   14     -0.50      0.00
    1    2   15      0.82      0.00
    1    2   16     -0.72      0.00
    1    2   17      0.67      0.00
    1    2   18     -0.75      0.00
    1    2   19      0.71      0.00
    1    2   20     -0.49      0.00
   -1   -3   19      0.22      0.00
   -1   -3   18     -0.21      0.00
   -1   -3   17      0.55      0.00
   -1   -3   16     -0.75      0.00
   -1   -3   15      0.38      0.00
   -1   -3   14      0.18      0.00
   -1   -3   13     -0.45      0.00
   -1   -3   12      0.60      0.00
   -1   -3   11     -0.87      0.00
   -1   -3   10      1.03      0.00
   -1   -3    9     -1.05      0.00
   -1   -3    8      1.03      0.00
   -1   -3    7     -0.67      0.00
   -1   -3    6     -0.06      0.00
   -1   -3    5      0.54      0.00
   -1   -3    4     -0.87      0.00
   -1   -3    3      1.96      0.00
   -1   -3    2     -3.28      0.00
   -1   -3    1      3.17      0.00
    1    3    0     -2.09      0.00
    1    3    1      2.13      0.00
    1    3    2     -3.06      0.00
    1    3    3      2.65      0.00
    1    3    4     -0.83      0.00
    1    3    5     -0.31      0.00
    1    3    6      0.32      0.00
    1    3    7     -0.52      0.00
    1    3    8      1.10      0.00
    1    3    9     -1.22      0.00
    1    3   10      1.03      0.00
    1    3   11     -1.04      0.00
    1    3   12      0.88      0.00
    1    3   13     -0.20      0.00
    1    3   14     -0.39      0.00
    1    3   15      0.46      0.00
    1    3   16     -0.41      0.00
    1    3   17      0.59      0.00
    1    3   18     -0.76      0.00
    1    3   19      0.69      0.00
    1    3   20     -0.46      0.00
   -1   -4   19      0.11      0.00
   -1   -4   18     -0.41      0.00
   -1   -4   17      0.78      0.00
   -1   -4   16     -0.69      0.00
   -1   -4   15      0.21      0.00
   -1   -4   14      0.07      0.00
   -1   -4   13     -0.09      0.00
   -1   -4   12      0.28      0.00
   -1   -4   11     -0.64      0.00
   -1   -4   10      0.92      0.00
   -1   -4    9     -1.17      0.00
   -1   -4    6      0.39      0.00
   -1   -4    5      0.02      0.00
   -1   -4    4     -0.54      0.00
   -1   -4    3      1.50      0.00
   -1   -4    2     -2.15      0.00
   -1   -4    1      2.04      0.00
    1    4    0     -2.15      0.00
    1    4    1      2.91      0.00
    1    4    2     -3.01      0.00
    1    4    3      1.86      0.00
    1    4    4     -0.81      0.00
    1    4    5      0.60      0.00
    1    4    6     -0.33      0.00
    1    4    7     -0.45      0.00
    1    4    8      0.96      0.00
    1    4    9     -1.01      0.00
    1    4   10      1.17      0.00
    1    4   11     -1.29      0.00
    1    4   12      0.82      0.00
    1    4   13     -0.17      0.00
    1    4   14     -0.02      0.00
    1    4   15     -0.01      0.00
    1    4   16     -0.22      0.00
    1    4   17      0.58      0.00
    1    4   18     -0.68      0.00
    1    4   19      0.55      0.00
    1    4   20     -0.38      0.00
   -1   -5   17      0.66      0.00
   -1   -5   16     -0.40      0.00
   -1   -5   15      0.17      0.00
   -1   -5   14     -0.25      0.00
   -1   -5   13      0.28      0.00
   -1   -5   12      0.05      0.00
   -1   -5   11     -0.50      0.00
   -1   -5   10      0.88      0.00
   -1   -5    9     -1.23      0.00
   -1   -5    6      0.63      0.00
   -1   -5    5     -0.52      0.00
   -1   -5    4      0.14      0.00
   -1   -5    3      0.66      0.00
   -1   -5    2     -1.29      0.00
   -1   -5    1      1.66      0.00
    1    5    0     -2.16      0.00
    1    5    1      2.51      0.00
    1    5    2     -2.18      0.00
    1    5    3      1.62      0.00
    1    5    4     -1.40      0.00
    1    5    5      1.11      0.00
    1    5    6     -0.36      0.00
    1    5    7     -0.30      0.00
    1    5    8      0.57      0.00
    1    5    9     -0.89      0.00
    1    5   10      1.26      0.00
    1    5   11     -1.11      0.00
    1    5   12      0.61      0.00
    1    5   13     -0.42      0.00
    1    5   14      0.47      0.00
    1    5   15     -0.22      0.00
    1    5   16     -0.24      0.00
    1    5   17      0.47      0.00
    1    5   18     -0.43      0.00
    1    5   19      0.36      0.00
    1    5   20     -0.33      0.00
   -1   -6   18     -0.40      0.00
   -1   -6   17      0.38      0.00
   -1   -6   16     -0.26      0.00
   -1   -6   15      0.36      0.00
   -1   -6   14     -0.57      0.00
   -1   -6   13      0.43      0.00
   -1   -6   12      0.02      0.00
   -1   -6   11     -0.42      0.00
   -1   -6   10      0.73      0.00
   -1   -6    8      1.00      0.00
   -1   -6    7     -0.91      0.00
   -1   -6    6      1.03      0.00
   -1   -6    5     -1.12      0.00
   -1   -6    4      0.62      0.00
   -1   -6    3      0.23      0.00
   -1   -6    2     -0.81      0.00
   -1   -6    1      1.12      0.00
    1    6    0     -1.46      0.00
    1    6    1      1.73      0.00
    1    6    2     -1.81      0.00
    1    6    3      1.78      0.00
    1    6    4     -1.54      0.00
    1    6    5      0.97      0.00
    1    6    6     -0.43      0.00
    1    6    7      0.11      0.00
    1    6    8      0.32      0.00
    1    6    9     -0.86      0.00
    1    6   10      1.00      0.00
    1    6   11     -0.74      0.00
    1    6   12      0.67      0.00
    1    6   13     -0.80      0.00
    1    6   14      0.60      0.00
    1    6   15     -0.11      0.00
    1    6   16     -0.16      0.00
    1    6   17      0.16      0.00
    1    6   18     -0.19      0.00
    1    6   19      0.28      0.00
    1    6   20     -0.29      0.00
   -1   -7   17      0.24      0.00
   -1   -7   16     -0.32      0.00
   -1   -7   15      0.54      0.00
   -1   -7   14     -0.61      0.00
   -1   -7   13      0.32      0.00
   -1   -7   12      0.02      0.00
   -1   -7   11     -0.19      0.00
   -1   -7   10      0.35      0.00
   -1   -7    9     -0.60      0.00
   -1   -7    8      0.82      0.00
   -1   -7    7     -1.07      0.00
   -1   -7    6      1.33      0.00
   -1   -7    5     -1.23      0.00
   -1   -7    4      0.65      0.00
   -1   -7    3     -0.09      0.00
   -1   -7    2     -0.12      0.00
   -1   -7    1      0.33      0.00
    1    7    0     -0.83      0.00
    1    7    1      1.37      0.00
    1    7    2     -1.63      0.00
    1    7    3      1.52      0.00
    1    7    4     -1.19      0.00
    1    7    5      0.92      0.00
    1    7    6     -0.73      0.00
    1    7    7      0.31      0.00
    1    7    8      0.29      0.00
    1    7    9     -0.59      0.00
    1    7   10      0.54      0.00
    1    7   11     -0.64      0.00
    1    7   12      0.90      0.00
    1    7   13     -0.80      0.00
    1    7   14      0.34      0.00
    1    7   15     -0.11      0.00
    1    7   16      0.16      0.00
    1    7   17     -0.08      0.00
    1    7   18     -0.16      0.00
    1    7   19      0.24      0.00
    1    7   20     -0.18      0.00
   -1   -8   15      0.50      0.00
   -1   -8   14     -0.43      0.00
   -1   -8   13      0.22      0.00
   -1   -8   12     -0.18      0.00
   -1   -8   11      0.19      0.00
   -1   -8   10      0.06      0.00
   -1   -8    9     -0.49      0.00
   -1   -8    8      0.81      0.00
   -1   -8    7     -1.02      0.00
   -1   -8    6      1.13      0.00
   -1   -8    5     -1.01      0.00
   -1   -8    4      0.75      0.00
   -1   -8    3     -0.61      0.00
   -1   -8    2      0.48      0.00
   -1   -8    1     -0.06      0.00
    1    8    0     -0.58      0.00
    1    8    1      1.04      0.00
    1    8    2     -1.12      0.00
    1    8    3      1.02      0.00
    1    8    4     -1.03      0.00
    1    8    5      1.06      0.00
    1    8    6     -0.79      0.00
    1    8    7      0.25      0.00
    1    8    8      0.08      0.00
    1    8    9     -0.14      0.00
    1    8   10      0.36      0.00
    1    8   11     -0.77      0.00
    1    8   12      0.80      0.00
    1    8   13     -0.41      0.00
    1    8   14      0.23      0.00
    1    8   15     -0.39      0.00
    1    8   16      0.35      0.00
    1    8   17      0.00      0.00
    1    8   18     -0.20      0.00
    1    8   19      0.10      0.00
   -1   -9   15      0.33      0.00
   -1   -9   14     -0.30      0.00
   -1   -9   13      0.33      0.00
   -1   -9   12     -0.45      0.00
   -1   -9   11      0.34      0.00
   -1   -9   10      0.10      0.00
   -1   -9    9     -0.43      0.00
   -1   -9    8      0.51      0.00
   -1   -9    7     -0.61      0.00
   -1   -9    6      0.85      0.00
   -1   -9    5     -1.01      0.00
   -1   -9    4      0.97      0.00
   -1   -9    3     -0.82      0.00
   -1   -9    2      0.57      0.00
   -1   -9    1     -0.17      0.00
    1    9    0     -0.26      0.00
    1    9    1      0.51      0.00
    1    9    2     -0.64      0.00
    1    9    3      0.81      0.00
    1    9    4     -1.02      0.00
    1    9    5      0.96      0.00
    1    9    6     -0.60      0.00
    1    9    7      0.32      0.00
    1    9    8     -0.27      0.00
    1    9    9      0.05      0.00
    1    9   10      0.44      0.00
    1    9   11     -0.63      0.00
    1    9   12      0.34      0.00
    1    9   13     -0.19      0.00
    1    9   14      0.45      0.00
    1    9   15     -0.54      0.00
    1    9   16      0.16      0.00
    1    9   17      0.16      0.00
    1    9   18     -0.06      0.00
    1    9   19     -0.08      0.00
   -1  -10   14     -0.32      0.00
   -1  -10   13      0.45      0.00
   -1  -10   12     -0.46      0.00
   -1  -10   11      0.17      0.00
   -1  -10   10      0.10      0.00
   -1  -10    9     -0.06      0.00
   -1  -10    8      0.03      0.00
   -1  -10    7     -0.40      0.00
   -1  -10    6      0.87      0.00
   -1  -10    5     -0.98      0.00
   -1  -10    4      0.78      0.00
   -1  -10    3     -0.64      0.00
   -1  -10    2      0.60      0.00
   -1  -10    1     -0.42      0.00
    1   10    0      0.08      0.00
    1   10    1      0.23      0.00
    1   10    2     -0.46      0.00
    1   10    3      0.69      0.00
    1   10    4     -0.82      0.00
    1   10    5      0.71      0.00
    1   10    6     -0.55      0.00
    1   10    7      0.54      0.00
    1   10    8     -0.41      0.00
    1   10    9     -0.03      0.00
    1   10   10      0.35      0.00
    1   10   11     -0.19      0.00
    1   10   12      0.06      0.00
    1   10   13     -0.35      0.00
    1   10   14      0.57      0.00
    1   10   15     -0.28      0.00
    1   10   16     -0.11      0.00
    1   10   17      0.07      0.00
    1   10   18      0.12      0.00
   -1  -11   12     -0.25      0.00
   -1  -11   11      0.11      0.00
   -1  -11   10     -0.21      0.00
   -1  -11    9      0.34      0.00
   -1  -11    8     -0.05      0.00
   -1  -11    7     -0.51      0.00
   -1  -11    6      0.73      0.00
   -1  -11    5     -0.51      0.00
   -1  -11    4      0.40      0.00
   -1  -11    3     -0.64      0.00
   -1  -11    2      0.79      0.00
   -1  -11    1     -0.50      0.00
    1   11    0      0.07      0.00
    1   11    1      0.15      0.00
    1   11    2     -0.26      0.00
    1   11    3      0.47      0.00
    1   11    4     -0.61      0.00
    1   11    5      0.60      0.00
    1   11    6     -0.61      0.00
    1   11    7      0.59      0.00
    1   11    8     -0.32      0.00
    1   11    9     -0.01      0.00
    1   11   10      0.03      0.00
    1   11   11      0.08      0.00
    1   11   12      0.14      0.00
    1   11   13     -0.45      0.00
    1   11   14      0.32      0.00
    1   11   15      0.04      0.00
    1   11   16     -0.07      0.00
    1   11   17     -0.11      0.00
   -1  -12   11      0.31      0.00
   -1  -12   10     -0.45      0.00
   -1  -12    9      0.29      0.00
   -1  -12    8      0.15      0.00
   -1  -12    7     -0.37      0.00
   -1  -12    6      0.18      0.00
   -1  -12    5     -0.08      0.00
   -1  -12    4      0.44      0.00
   -1  -12    3     -0.81      0.00
   -1  -12    2      0.67      0.00
   -1  -12    1     -0.21      0.00
    1   12    0      0.03      0.00
    1   12    1     -0.10      0.00
    1   12    2     -0.05      0.00
    1   12    3      0.38      0.00
    1   12    4     -0.54      0.00
    1   12    5      0.53      0.00
    1   12    6     -0.56      0.00
    1   12    7      0.52      0.00
    1   12    8     -0.29      0.00
    1   12    9      0.14      0.00
    1   12   10     -0.17      0.00
    1   12   11      0.08      0.00
    1   12   12      0.21      0.00
    1   12   13     -0.27      0.00
    1   12   14      0.03      0.00
    1   12   15      0.06      0.00
    1   12   16      0.08      0.00
   -1  -13    9      0.06      0.00
   -1  -13    8      0.05      0.00
   -1  -13    7      0.11      0.00
   -1  -13    6     -0.18      0.00
   -1  -13    5     -0.17      0.00
   -1  -13    4      0.60      0.00
   -1  -13    3     -0.58      0.00
   -1  -13    2      0.20      0.00
   -1  -13    1     -0.07      0.00
    1   13    0      0.29      0.00
    1   13    1     -0.29      0.00
    1   13    2     -0.11      0.00
    1   13    3      0.41      0.00
    1   13    4     -0.38      0.00
    1   13    5      0.37      0.00
    1   13    6     -0.51      0.00
    1   13    7      0.49      0.00
    1   13    8     -0.29      0.00
    1   13    9      0.21      0.00
    1   13   10     -0.21      0.00
    1   13   11      0.05      0.00
    1   13   12      0.12      0.00
    1   13   13     -0.07      0.00
    1   13   14     -0.02      0.00
    1   13   15     -0.04      0.00
   -1  -14    7      0.30      0.00
   -1  -14    6     -0.03      0.00
   -1  -14    5     -0.31      0.00
   -1  -14    4      0.34      0.00
   -1  -14    3     -0.08      0.00
   -1  -14    2      0.04      0.00
   -1  -14    1     -0.33      0.00
    1   14    0      0.46      0.00
    1   14    1     -0.11      0.00
    1   14    2     -0.26      0.00
    1   14    3      0.22      0.00
    1   14    4     -0.11      0.00
    1   14    5      0.32      0.00
    1   14    6     -0.52      0.00
    1   14    7      0.39      0.00
    1   14    8     -0.21      0.00
    1   14    9      0.24      0.00
    1   14   10     -0.24      0.00
    1   14   11      0.07      0.00
    1   14   12      0.05      0.00
    1   14   13     -0.02      0.00
   -1  -15    4     -0.07      0.00
   -1  -15    3      0.03      0.00
   -1  -15    2      0.26      0.00
   -1  -15    1     -0.45      0.00
    1   15    1      0.12      0.00
    1   15    2     -0.10      0.00
    1   15    3     -0.10      0.00
    1   15    4     -0.04      0.00
    1   15    5      0.38      0.00
    1   15    6     -0.40      0.00
    1   15    7      0.19      0.00
    1   15    8     -0.18      0.00
    1   15    9      0.30      0.00
    1   15   10     -0.22      0.00
    1   16    1      0.01      0.00
    1   16    2      0.20      0.00
    1   16    3     -0.20      0.00
    1   16    5      0.30      0.00
   -2   14    7      0.13      0.00
   -2   14    6     -0.15      0.00
   -2   14    5     -0.09      0.00
   -2   14    4      0.16      0.00
   -2   14    2      0.20      0.00
   -2   14    1     -0.35      0.00
   -2   14    0      0.30      0.00
    2  -14    1     -0.24      0.00
    2  -14    2      0.35      0.00
    2  -14    3     -0.41      0.00
   -2   13   11      0.06      0.00
   -2   13   10      0.19      0.00
   -2   13    9     -0.19      0.00
   -2   13    8     -0.14      0.00
   -2   13    7      0.26      0.00
   -2   13    6     -0.02      0.00
   -2   13    5     -0.12      0.00
   -2   13    4      0.00      0.00
   -2   13    3     -0.02      0.00
   -2   13    2      0.26      0.00
   -2   13    1     -0.33      0.00
   -2   13    0      0.26      0.00
    2  -13    1     -0.39      0.00
    2  -13    2      0.63      0.00
    2  -13    3     -0.57      0.00
    2  -13    4      0.27      0.00
    2  -13    6      0.15      0.00
    2  -13    7     -0.08      0.00
   -2   12   12      0.04      0.00
   -2   12   11     -0.18      0.00
   -2   12   10      0.22      0.00
   -2   12    9      0.06      0.00
   -2   12    8     -0.28      0.00
   -2   12    7      0.12      0.00
   -2   12    6      0.03      0.00
   -2   12    5      0.13      0.00
   -2   12    4     -0.23      0.00
   -2   12    3      0.00      0.00
   -2   12    2      0.20      0.00
   -2   12    1     -0.17      0.00
   -2   12    0      0.26      0.00
    2  -12    1     -0.63      0.00
    2  -12    2      0.79      0.00
    2  -12    3     -0.54      0.00
    2  -12    4      0.32      0.00
    2  -12    5     -0.40      0.00
    2  -12    6      0.48      0.00
    2  -12    7     -0.22      0.00
    2  -12    8     -0.14      0.00
    2  -12    9      0.30      0.00
   -2   11   15     -0.28      0.00
   -2   11   14      0.34      0.00
   -2   11   13     -0.25      0.00
   -2   11   12      0.21      0.00
   -2   11   11     -0.24      0.00
   -2   11   10      0.10      0.00
   -2   11    9      0.12      0.00
   -2   11    8     -0.13      0.00
   -2   11    7      0.04      0.00
   -2   11    6     -0.21      0.00
   -2   11    5      0.44      0.00
   -2   11    4     -0.34      0.00
   -2   11    3      0.09      0.00
   -2   11    2     -0.06      0.00
   -2   11    1      0.02      0.00
   -2   11    0      0.34      0.00
    2  -11    1     -0.70      0.00
    2  -11    2      0.66      0.00
    2  -11    3     -0.49      0.00
    2  -11    4      0.62      0.00
    2  -11    5     -0.85      0.00
    2  -11    6      0.70      0.00
    2  -11    7     -0.23      0.00
    2  -11    8     -0.09      0.00
    2  -11    9      0.13      0.00
    2  -11   10     -0.17      0.00
    2  -11   11      0.33      0.00
   -2   10   16      0.29      0.00
   -2   10   15     -0.54      0.00
   -2   10   14      0.50      0.00
   -2   10   13     -0.30      0.00
   -2   10   12      0.27      0.00
   -2   10   11     -0.30      0.00
   -2   10   10      0.18      0.00
   -2   10    9     -0.04      0.00
   -2   10    8     -0.01      0.00
   -2   10    7      0.18      0.00
   -2   10    6     -0.48      0.00
   -2   10    5      0.57      0.00
   -2   10    4     -0.41      0.00
   -2   10    3      0.35      0.00
   -2   10    2     -0.39      0.00
   -2   10    1      0.17      0.00
   -2   10    0      0.23      0.00
    2  -10    1     -0.45      0.00
    2  -10    2      0.47      0.00
    2  -10    3     -0.66      0.00
    2  -10    4      0.98      0.00
    2  -10    5     -1.04      0.00
    2  -10    6      0.71      0.00
    2  -10    7     -0.36      0.00
    2  -10    8      0.27      0.00
    2  -10    9     -0.20      0.00
    2  -10   10     -0.07      0.00
    2  -10   11      0.38      0.00
    2  -10   12     -0.48      0.00
    2  -10   13      0.47      0.00
   -2    9   17     -0.22      0.00
   -2    9   16      0.61      0.00
   -2    9   15     -0.70      0.00
   -2    9   14      0.41      0.00
   -2    9   13     -0.27      0.00
   -2    9   12      0.45      0.00
   -2    9   11     -0.52      0.00
   -2    9   10      0.33      0.00
   -2    9    9     -0.15      0.00
   -2    9    8     -0.01      0.00
   -2    9    7      0.29      0.00
   -2    9    6     -0.54      0.00
   -2    9    5      0.58      0.00
   -2    9    4     -0.57      0.00
   -2    9    3      0.68      0.00
   -2    9    2     -0.69      0.00
   -2    9    1      0.46      0.00
   -2    9    0     -0.12      0.00
    2   -9    1     -0.15      0.00
    2   -9    2      0.43      0.00
    2   -9    3     -0.75      0.00
    2   -9    4      0.97      0.00
    2   -9    5     -0.98      0.00
    2   -9    6      0.86      0.00
    2   -9    7     -0.79      0.00
    2   -9    8      0.69      0.00
    2   -9    9     -0.39      0.00
    2   -9   10     -0.02      0.00
    2   -9   11      0.27      0.00
    2   -9   12     -0.36      0.00
    2   -9   13      0.51      0.00
   -2    8   18      0.09      0.00
   -2    8   17     -0.52      0.00
   -2    8   16      0.76      0.00
   -2    8   15     -0.47      0.00
   -2    8   14      0.23      0.00
   -2    8   13     -0.48      0.00
   -2    8   12      0.76      0.00
   -2    8   11     -0.63      0.00
   -2    8   10      0.36      0.00
   -2    8    9     -0.25      0.00
   -2    8    8      0.09      0.00
   -2    8    7      0.22      0.00
   -2    8    6     -0.46      0.00
   -2    8    5      0.57      0.00
   -2    8    4     -0.73      0.00
   -2    8    3      0.96      0.00
   -2    8    2     -1.03      0.00
   -2    8    1      0.82      0.00
   -2    8    0     -0.43      0.00
    2   -8    1      0.05      0.00
    2   -8    2      0.18      0.00
    2   -8    3     -0.40      0.00
    2   -8    4      0.75      0.00
    2   -8    5     -1.09      0.00
    2   -8    6      1.19      0.00
    2   -8    7     -1.07      0.00
    2   -8    8      0.83      0.00
    2   -8    9     -0.54      0.00
    2   -8   10      0.28      0.00
    2   -8   11     -0.08      0.00
    2   -8   12     -0.21      0.00
    2   -8   13      0.55      0.00
    2   -8   14     -0.63      0.00
    2   -8   15      0.46      0.00
   -2    7   18      0.33      0.00
   -2    7   17     -0.67      0.00
   -2    7   16      0.46      0.00
   -2    7   15     -0.13      0.00
   -2    7   14      0.35      0.00
   -2    7   13     -0.78      0.00
   -2    7   12      0.77      0.00
   -2    7   11     -0.51      0.00
   -2    7   10      0.47      0.00
   -2    7    9     -0.50      0.00
   -2    7    8      0.27      0.00
   -2    7    7      0.07      0.00
   -2    7    6     -0.27      0.00
   -2    7    5      0.47      0.00
   -2    7    4     -0.83      0.00
   -2    7    3      1.19      0.00
   -2    7    2     -1.28      0.00
   -2    7    1      1.01      0.00
   -2    7    0     -0.64      0.00
    2   -7    1      0.51      0.00
    2   -7    2     -0.47      0.00
    2   -7    3      0.02      0.00
    2   -7    4      0.76      0.00
    2   -7    5     -1.23      0.00
    2   -7    6      1.13      0.00
    2   -7    7     -0.94      0.00
    2   -7    8      0.96      0.00
    2   -7    9     -0.98      0.00
    2   -7   10      0.77      0.00
    2   -7   11     -0.34      0.00
    2   -7   12     -0.17      0.00
    2   -7   13      0.47      0.00
    2   -7   14     -0.44      0.00
    2   -7   15      0.41      0.00
    2   -7   16     -0.61      0.00
   -2    6   19     -0.16      0.00
   -2    6   18      0.50      0.00
   -2    6   17     -0.39      0.00
   -2    6   16      0.03      0.00
   -2    6   15     -0.13      0.00
   -2    6   14      0.59      0.00
   -2    6   13     -0.70      0.00
   -2    6   12      0.48      0.00
   -2    6   11     -0.51      0.00
   -2    6   10      0.75      0.00
   -2    6    9     -0.70      0.00
   -2    6    8      0.40      0.00
   -2    6    7     -0.20      0.00
   -2    6    6      0.04      0.00
   -2    6    5      0.32      0.00
   -2    6    4     -0.82      0.00
   -2    6    3      1.18      0.00
   -2    6    2     -1.24      0.00
   -2    6    1      1.08      0.00
   -2    6    0     -1.06      0.00
    2   -6    1      1.22      0.00
    2   -6    2     -0.99      0.00
    2   -6    3      0.10      0.00
    2   -6    4      0.72      0.00
    2   -6    5     -0.78      0.00
    2   -6    6      0.60      0.00
    2   -6    7     -0.90      0.00
    2   -6    8      1.41      0.00
    2   -6    9     -1.43      0.00
    2   -6   10      0.95      0.00
    2   -6   11     -0.38      0.00
    2   -6   12      0.01      0.00
    2   -6   13      0.08      0.00
    2   -6   14     -0.13      0.00
    2   -6   15      0.43      0.00
    2   -6   16     -0.77      0.00
    2   -6   17      0.71      0.00
   -2    5   19     -0.33      0.00
   -2    5   18      0.32      0.00
   -2    5   17      0.01      0.00
   -2    5   16     -0.07      0.00
   -2    5   15     -0.29      0.00
   -2    5   14      0.45      0.00
   -2    5   13     -0.27      0.00
   -2    5   12      0.34      0.00
   -2    5   11     -0.73      0.00
   -2    5   10      0.87      0.00
   -2    5    9     -0.68      0.00
   -2    5    8      0.60      0.00
   -2    5    7     -0.60      0.00
   -2    5    6      0.37      0.00
   -2    5    5      0.08      0.00
   -2    5    4     -0.52      0.00
   -2    5    3      0.89      0.00
   -2    5    2     -1.10      0.00
   -2    5    1      1.23      0.00
   -2    5    0     -1.48      0.00
    2   -5    1      1.63      0.00
    2   -5    2     -1.12      0.00
    2   -5    3      0.24      0.00
    2   -5    4      0.07      0.00
    2   -5    5      0.09      0.00
    2   -5    6      0.29      0.00
    2   -5    7     -1.22      0.00
    2   -5    8      1.69      0.00
    2   -5    9     -1.34      0.00
    2   -5   10      0.82      0.00
    2   -5   11     -0.59      0.00
    2   -5   12      0.55      0.00
    2   -5   13     -0.43      0.00
    2   -5   14      0.05      0.00
    2   -5   15      0.49      0.00
    2   -5   16     -0.76      0.00
    2   -5   17      0.58      0.00
    2   -5   18     -0.39      0.00
   -2    4   20      0.24      0.00
   -2    4   19     -0.28      0.00
   -2    4   18      0.02      0.00
   -2    4   17      0.16      0.00
   -2    4   16      0.03      0.00
   -2    4   15     -0.16      0.00
   -2    4   14     -0.01      0.00
   -2    4   13     -0.01      0.00
   -2    4   12      0.43      0.00
   -2    4   11     -0.72      0.00
   -2    4   10      0.65      0.00
   -2    4    9     -0.70      0.00
   -2    4    8      0.93      0.00
   -2    4    7     -0.94      0.00
   -2    4    6      0.70      0.00
   -2    4    5     -0.41      0.00
   -2    4    4     -0.04      0.00
   -2    4    3      0.61      0.00
   -2    4    2     -0.93      0.00
   -2    4    1      1.09      0.00
   -2    4    0     -1.48      0.00
    2   -4    1      1.71      0.00
    2   -4    2     -1.28      0.00
    2   -4    3      0.78      0.00
    2   -4    4     -0.79      0.00
    2   -4    5      0.61      0.00
    2   -4    6      0.36      0.00
    2   -4    7     -1.26      0.00
    2   -4    8      1.26      0.00
    2   -4    9     -0.90      0.00
    2   -4   10      0.91      0.00
    2   -4   11     -1.12      0.00
    2   -4   12      1.07      0.00
    2   -4   13     -0.67      0.00
    2   -4   14      0.09      0.00
    2   -4   15      0.39      0.00
    2   -4   16     -0.48      0.00
    2   -4   17      0.35      0.00
    2   -4   18     -0.38      0.00
   -2    3   20      0.28      0.00
   -2    3   19     -0.12      0.00
   -2    3   18     -0.12      0.00
   -2    3   17      0.10      0.00
   -2    3   16     -0.02      0.00
   -2    3   15      0.18      0.00
   -2    3   14     -0.30      0.00
   -2    3   13      0.00      0.00
   -2    3   12      0.33      0.00
   -2    3   11     -0.33      0.00
   -2    3   10      0.43      0.00
   -2    3    9     -0.86      0.00
   -2    3    8      1.16      0.00
   -2    3    7     -1.17      0.00
   -2    3    6      1.17      0.00
   -2    3    5     -0.94      0.00
   -2    3    4      0.24      0.00
   -2    3    3      0.26      0.00
   -2    3    2     -0.22      0.00
   -2    3    1      0.52      0.00
   -2    3    0     -1.44      0.00
    2   -3    1      1.89      0.00
    2   -3    2     -1.46      0.00
    2   -3    3      1.18      0.00
    2   -3    4     -1.28      0.00
    2   -3    5      0.82      0.00
    2   -3    6      0.17      0.00
    2   -3    7     -0.64      0.00
    2   -3    8      0.55      0.00
    2   -3    9     -0.74      0.00
    2   -3   10      1.27      0.00
    2   -3   11     -1.47      0.00
    2   -3   12      1.17      0.00
    2   -3   13     -0.70      0.00
    2   -3   14      0.25      0.00
    2   -3   15      0.03      0.00
    2   -3   16     -0.08      0.00
    2   -3   17      0.13      0.00
    2   -3   18     -0.37      0.00
    2   -3   19      0.55      0.00
   -2    2   20      0.21      0.00
   -2    2   19     -0.01      0.00
   -2    2   18     -0.08      0.00
   -2    2   17      0.03      0.00
   -2    2   16     -0.16      0.00
   -2    2   15      0.41      0.00
   -2    2   14     -0.36      0.00
   -2    2   13      0.11      0.00
   -2    2   12     -0.09      0.00
   -2    2   11      0.04      0.00
   -2    2   10      0.41      0.00
   -2    2    9     -0.92      0.00
   -2    2    8      1.16      0.00
   -2    2    7     -1.42      0.00
   -2    2    6      1.56      0.00
   -2    2    5     -1.09      0.00
   -2    2    4      0.54      0.00
   -2    2    3     -0.76      0.00
   -2    2    2      0.88      0.00
   -2    2    1      0.30      0.00
   -2    2    0     -1.69      0.00
    2   -2    1      1.69      0.00
    2   -2    3      1.25      0.00
    2   -2    4     -1.69      0.00
    2   -2    5      1.20      0.00
    2   -2    6     -0.37      0.00
    2   -2    7      0.08      0.00
    2   -2    8      0.15      0.00
    2   -2    9     -0.81      0.00
    2   -2   10      1.34      0.00
    2   -2   11     -1.30      0.00
    2   -2   12      1.05      0.00
    2   -2   13     -0.85      0.00
    2   -2   14      0.62      0.00
    2   -2   15     -0.41      0.00
    2   -2   16      0.27      0.00
    2   -2   17     -0.02      0.00
    2   -2   18     -0.33      0.00
    2   -2   19      0.49      0.00
   -2    1   19      0.00      0.00
   -2    1   18      0.06      0.00
   -2    1   17     -0.03      0.00
   -2    1   16     -0.28      0.00
   -2    1   15      0.50      0.00
   -2    1   14     -0.43      0.00
   -2    1   13      0.39      0.00
   -2    1   12     -0.45      0.00
   -2    1   11      0.18      0.00
   -2    1   10      0.35      0.00
   -2    1    9     -0.73      0.00
   -2    1    8      1.10      0.00
   -2    1    7     -1.55      0.00
   -2    1    6      1.51      0.00
   -2    1    5     -1.13      0.00
   -2    1    4      1.46      0.00
   -2    1    3     -2.08      0.00
   -2    1    2      1.24      0.00
   -2    1    1      0.69      0.00
   -2    1    0     -1.31      0.00
    2   -1    1      0.44      0.00
    2   -1    2     -0.43      0.00
    2   -1    3      1.71      0.00
    2   -1    4     -2.23      0.00
    2   -1    5      1.42      0.00
    2   -1    6     -0.70      0.00
    2   -1    7      0.55      0.00
    2   -1    8     -0.12      0.00
    2   -1    9     -0.60      0.00
    2   -1   10      0.92      0.00
    2   -1   11     -0.94      0.00
    2   -1   12      1.06      0.00
    2   -1   13     -1.11      0.00
    2   -1   14      0.92      0.00
    2   -1   15     -0.69      0.00
    2   -1   16      0.49      0.00
    2   -1   17     -0.16      0.00
    2   -1   18     -0.19      0.00
    2   -1   19      0.31      0.00
   -2    0   19     -0.15      0.00
   -2    0   18      0.26      0.00
   -2    0   17     -0.02      0.00
   -2    0   16     -0.40      0.00
   -2    0   15      0.53      0.00
   -2    0   14     -0.48      0.00
   -2    0   13      0.58      0.00
   -2    0   12     -0.61      0.00
   -2    0   11      0.30      0.00
   -2    0   10      0.09      0.00
   -2    0    9     -0.44      0.00
   -2    0    8      0.96      0.00
   -2    0    7     -1.32      0.00
   -2    0    6      1.29      0.00
   -2    0    5     -1.67      0.00
   -2    0    4      2.61      0.00
   -2    0    3     -2.46      0.00
   -2    0    2      0.68      0.00
   -2    0    1      0.43      0.00
    2    0    0      0.42      0.00
    2    0    2     -0.76      0.00
    2    0    3      2.40      0.00
    2    0    4     -2.06      0.00
    2    0    5      1.03      0.00
    2    0    6     -0.94      0.00
    2    0    7      1.06      0.00
    2    0    8     -0.52      0.00
    2    0    9     -0.12      0.00
    2    0   10      0.41      0.00
    2    0   11     -0.75      0.00
    2    0   12      1.15      0.00
    2    0   13     -1.19      0.00
    2    0   14      0.96      0.00
    2    0   15     -0.83      0.00
    2    0   16      0.68      0.00
    2    0   17     -0.34      0.00
    2    0   18      0.04      0.00
    2    0   19      0.04      0.00
    2    0   20     -0.02      0.00
   -2   -1   19     -0.39      0.00
   -2   -1   18      0.32      0.00
   -2   -1   17      0.14      0.00
   -2   -1   16     -0.45      0.00
   -2   -1   15      0.38      0.00
   -2   -1   14     -0.40      0.00
   -2   -1   13      0.67      0.00
   -2   -1   12     -0.73      0.00
   -2   -1   11      0.50      0.00
   -2   -1   10     -0.23      0.00
   -2   -1    9     -0.15      0.00
   -2   -1    8      0.64      0.00
   -2   -1    7     -0.95      0.00
   -2   -1    6      1.37      0.00
   -2   -1    5     -2.33      0.00
   -2   -1    4      2.83      0.00
   -2   -1    3     -1.77      0.00
   -2   -1    2      0.62      0.00
   -2   -1    1     -1.23      0.00
    2    1    0      2.10      0.00
    2    1    1     -0.75      0.00
    2    1    2     -1.57      0.00
    2    1    3      1.97      0.00
    2    1    4     -0.91      0.00
    2    1    5      0.78      0.00
    2    1    6     -1.54      0.00
    2    1    7      1.55      0.00
    2    1    8     -0.83      0.00
    2    1    9      0.32      0.00
    2    1   10      0.07      0.00
    2    1   11     -0.66      0.00
    2    1   12      1.03      0.00
    2    1   13     -0.94      0.00
    2    1   14      0.87      0.00
    2    1   15     -0.98      0.00
    2    1   16      0.87      0.00
    2    1   17     -0.53      0.00
    2    1   18      0.26      0.00
    2    1   19     -0.19      0.00
    2    1   20      0.14      0.00
   -2   -2   19     -0.46      0.00
   -2   -2   18      0.11      0.00
   -2   -2   17      0.26      0.00
   -2   -2   16     -0.20      0.00
   -2   -2   15      0.05      0.00
   -2   -2   14     -0.36      0.00
   -2   -2   13      0.79      0.00
   -2   -2   12     -0.83      0.00
   -2   -2   11      0.66      0.00
   -2   -2   10     -0.49      0.00
   -2   -2    9      0.15      0.00
   -2   -2    8      0.28      0.00
   -2   -2    7     -0.72      0.00
   -2   -2    5     -2.26      0.00
   -2   -2    4      2.11      0.00
   -2   -2    3     -1.40      0.00
   -2   -2    2      1.76      0.00
   -2   -2    1     -2.77      0.00
    2    2    0      2.11      0.00
    2    2    1      0.12      0.00
    2    2    2     -1.14      0.00
    2    2    3      0.35      0.00
    2    2    4     -0.13      0.00
    2    2    5      1.30      0.00
    2    2    6     -2.02      0.00
    2    2    7      1.52      0.00
    2    2    8     -0.93      0.00
    2    2    9      0.67      0.00
    2    2   10     -0.16      0.00
    2    2   11     -0.45      0.00
    2    2   12      0.59      0.00
    2    2   13     -0.58      0.00
    2    2   14      0.88      0.00
    2    2   15     -1.13      0.00
    2    2   16      0.95      0.00
    2    2   17     -0.59      0.00
    2    2   18      0.42      0.00
    2    2   19     -0.38      0.00
    2    2   20      0.27      0.00
   -2   -3   19     -0.24      0.00
   -2   -3   18     -0.08      0.00
   -2   -3   17      0.04      0.00
   -2   -3   16      0.24      0.00
   -2   -3   15     -0.08      0.00
   -2   -3   14     -0.52      0.00
   -2   -3   13      0.85      0.00
   -2   -3   12     -0.77      0.00
   -2   -3   11      0.71      0.00
   -2   -3   10     -0.67      0.00
   -2   -3    9      0.40      0.00
   -2   -3    8     -0.02      0.00
   -2   -3    7     -0.44      0.00
   -2   -3    6      1.13      0.00
   -2   -3    5     -1.61      0.00
   -2   -3    4      1.58      0.00
   -2   -3    3     -1.84      0.00
   -2   -3    2      2.72      0.00
   -2   -3    1     -2.75      0.00
    2    3    0      1.27      0.00
    2    3    1     -0.11      0.00
    2    3    2      0.48      0.00
    2    3    3     -0.73      0.00
    2    3    4     -0.47      0.00
    2    3    5      1.71      0.00
    2    3    6     -1.65      0.00
    2    3    7      1.18      0.00
    2    3    8     -1.13      0.00
    2    3    9      0.93      0.00
    2    3   10     -0.32      0.00
    2    3   11     -0.02      0.00
    2    3   12      0.05      0.00
    2    3   13     -0.41      0.00
    2    3   14      0.98      0.00
    2    3   15     -1.09      0.00
    2    3   16      0.78      0.00
    2    3   17     -0.56      0.00
    2    3   18      0.56      0.00
    2    3   19     -0.54      0.00
    2    3   20      0.35      0.00
   -2   -4   19     -0.02      0.00
   -2   -4   18      0.05      0.00
   -2   -4   17     -0.38      0.00
   -2   -4   16      0.43      0.00
   -2   -4   15      0.10      0.00
   -2   -4   14     -0.61      0.00
   -2   -4   13      0.63      0.00
   -2   -4   12     -0.57      0.00
   -2   -4   11      0.74      0.00
   -2   -4   10     -0.80      0.00
   -2   -4    9      0.62      0.00
   -2   -4    8     -0.39      0.00
   -2   -4    7      0.00      0.00
   -2   -4    6      0.63      0.00
   -2   -4    5     -1.14      0.00
   -2   -4    4      1.48      0.00
   -2   -4    3     -2.06      0.00
   -2   -4    2      2.49      0.00
   -2   -4    1     -2.00      0.00
    2    4    0      1.24      0.00
    2    4    1     -1.29      0.00
    2    4    2      1.47      0.00
    2    4    3     -0.54      0.00
    2    4    4     -0.78      0.00
    2    4    5      1.15      0.00
    2    4    6     -0.95      0.00
    2    4    7      1.15      0.00
    2    4    8     -1.33      0.00
    2    4    9      0.95      0.00
    2    4   10     -0.55      0.00
    2    4   11      0.51      0.00
    2    4   12     -0.23      0.00
    2    4   13     -0.48      0.00
    2    4   14      0.89      0.00
    2    4   15     -0.73      0.00
    2    4   16      0.53      0.00
    2    4   17     -0.61      0.00
    2    4   18      0.71      0.00
    2    4   19     -0.59      0.00
    2    4   20      0.32      0.00
    2    4   21     -0.11      0.00
   -2   -5   17     -0.53      0.00
   -2   -5   16      0.23      0.00
   -2   -5   15      0.27      0.00
   -2   -5   14     -0.37      0.00
   -2   -5   13      0.26      0.00
   -2   -5   12     -0.44      0.00
   -2   -5   11      0.79      0.00
   -2   -5   10     -0.90      0.00
   -2   -5    9      0.84      0.00
   -2   -5    8     -0.73      0.00
   -2   -5    7      0.31      0.00
   -2   -5    6      0.33      0.00
   -2   -5    5     -0.78      0.00
   -2   -5    4      1.11      0.00
   -2   -5    3     -1.58      0.00
   -2   -5    2      1.88      0.00
   -2   -5    1     -1.81      0.00
    2    5    0      1.80      0.00
    2    5    1     -1.84      0.00
    2    5    2      1.29      0.00
    2    5    3     -0.31      0.00
    2    5    4     -0.20      0.00
    2    5    5      0.32      0.00
    2    5    6     -0.74      0.00
    2    5    7      1.23      0.00
    2    5    8     -1.16      0.00
    2    5    9      0.89      0.00
    2    5   10     -0.92      0.00
    2    5   11      0.80      0.00
    2    5   12     -0.14      0.00
    2    5   13     -0.43      0.00
    2    5   14      0.43      0.00
    2    5   15     -0.31      0.00
    2    5   16      0.49      0.00
    2    5   17     -0.72      0.00
    2    5   18      0.69      0.00
    2    5   19     -0.46      0.00
    2    5   20      0.24      0.00
    2    5   21     -0.16      0.00
   -2   -6   17     -0.34      0.00
   -2   -6   16      0.03      0.00
   -2   -6   15      0.10      0.00
   -2   -6   14      0.04      0.00
   -2   -6   13      0.04      0.00
   -2   -6   12     -0.48      0.00
   -2   -6   11      0.84      0.00
   -2   -6   10     -0.92      0.00
   -2   -6    9      0.94      0.00
   -2   -6    8     -0.83      0.00
   -2   -6    7      0.42      0.00
   -2   -6    6     -0.01      0.00
   -2   -6    5     -0.17      0.00
   -2   -6    4      0.50      0.00
   -2   -6    3     -1.13      0.00
   -2   -6    2      1.64      0.00
   -2   -6    1     -1.81      0.00
    2    6    0      1.78      0.00
    2    6    1     -1.55      0.00
    2    6    2      1.13      0.00
    2    6    3     -0.77      0.00
    2    6    4      0.47      0.00
    2    6    5      0.10      0.00
    2    6    6     -0.72      0.00
    2    6    7      0.89      0.00
    2    6    8     -0.84      0.00
    2    6    9      1.03      0.00
    2    6   10     -1.12      0.00
    2    6   11      0.64      0.00
    2    6   12     -0.09      0.00
    2    6   13      0.01      0.00
    2    6   14     -0.05      0.00
    2    6   15     -0.23      0.00
    2    6   16      0.58      0.00
    2    6   17     -0.61      0.00
    2    6   18      0.45      0.00
    2    6   19     -0.31      0.00
    2    6   20      0.23      0.00
   -2   -7   17     -0.18      0.00
   -2   -7   16      0.11      0.00
   -2   -7   15     -0.22      0.00
   -2   -7   14      0.25      0.00
   -2   -7   13      0.09      0.00
   -2   -7   12     -0.54      0.00
   -2   -7   11      0.73      0.00
   -2   -7   10     -0.76      0.00
   -2   -7    9      0.84      0.00
   -2   -7    8     -0.82      0.00
   -2   -7    7      0.65      0.00
   -2   -7    6     -0.53      0.00
   -2   -7    5      0.35      0.00
   -2   -7    4      0.22      0.00
   -2   -7    3     -0.94      0.00
   -2   -7    2      1.31      0.00
   -2   -7    1     -1.34      0.00
    2    7    0      1.34      0.00
    2    7    2      1.41      0.00
    2    7    3     -1.12      0.00
    2    7    4      0.52      0.00
    2    7    5      0.07      0.00
    2    7    6     -0.31      0.00
    2    7    7      0.44      0.00
    2    7    8     -0.82      0.00
    2    7    9      1.11      0.00
    2    7   10     -0.85      0.00
    2    7   11      0.44      0.00
    2    7   12     -0.41      0.00
    2    7   13      0.45      0.00
    2    7   14     -0.09      0.00
    2    7   15     -0.35      0.00
    2    7   16      0.42      0.00
    2    7   17     -0.28      0.00
    2    7   18      0.26      0.00
    2    7   19     -0.29      0.00
    2    7   20      0.26      0.00
   -2   -8   16      0.29      0.00
   -2   -8   15     -0.34      0.00
   -2   -8   14      0.18      0.00
   -2   -8   13      0.19      0.00
   -2   -8   12     -0.40      0.00
   -2   -8   11      0.41      0.00
   -2   -8   10     -0.53      0.00
   -2   -8    9      0.80      0.00
   -2   -8    8     -0.94      0.00
   -2   -8    7      0.90      0.00
   -2   -8    6     -0.77      0.00
   -2   -8    5      0.45      0.00
   -2   -8    4      0.09      0.00
   -2   -8    3     -0.52      0.00
   -2   -8    2      0.68      0.00
   -2   -8    1     -0.85      0.00
    2    8    0      1.21      0.00
    2    8    2      1.41      0.00
    2    8    3     -0.95      0.00
    2    8    4      0.51      0.00
    2    8    5     -0.33      0.00
    2    8    6      0.15      0.00
    2    8    7      0.36      0.00
    2    8    8     -0.82      0.00
    2    8    9      0.76      0.00
    2    8   10     -0.50      0.00
    2    8   11      0.61      0.00
    2    8   12     -0.77      0.00
    2    8   13      0.41      0.00
    2    8   14      0.12      0.00
    2    8   15     -0.20      0.00
    2    8   16      0.03      0.00
    2    8   17     -0.10      0.00
    2    8   18      0.29      0.00
    2    8   19     -0.29      0.00
    2    8   20      0.18      0.00
   -2   -9   15     -0.25      0.00
   -2   -9   14      0.08      0.00
   -2   -9   13      0.08      0.00
   -2   -9   12     -0.07      0.00
   -2   -9   11      0.15      0.00
   -2   -9   10     -0.51      0.00
   -2   -9    9      0.89      0.00
   -2   -9    8     -0.94      0.00
   -2   -9    7      0.81      0.00
   -2   -9    6     -0.70      0.00
   -2   -9    5      0.54      0.00
   -2   -9    4     -0.28      0.00
   -2   -9    3     -0.01      0.00
   -2   -9    2      0.32      0.00
   -2   -9    1     -0.73      0.00
    2    9    0      1.13      0.00
    2    9    1     -1.26      0.00
    2    9    2      1.08      0.00
    2    9    3     -0.86      0.00
    2    9    4      0.81      0.00
    2    9    5     -0.69      0.00
    2    9    6      0.19      0.00
    2    9    7      0.36      0.00
    2    9    8     -0.44      0.00
    2    9    9      0.31      0.00
    2    9   10     -0.54      0.00
    2    9   11      0.87      0.00
    2    9   12     -0.63      0.00
    2    9   13      0.07      0.00
    2    9   14      0.03      0.00
    2    9   15      0.21      0.00
    2    9   16     -0.14      0.00
    2    9   17     -0.21      0.00
    2    9   18      0.31      0.00
    2    9   19     -0.15      0.00
   -2  -10   14      0.16      0.00
   -2  -10   13     -0.17      0.00
   -2  -10   12      0.13      0.00
   -2  -10   11      0.17      0.00
   -2  -10   10     -0.59      0.00
   -2  -10    9      0.73      0.00
   -2  -10    8     -0.60      0.00
   -2  -10    7      0.60      0.00
   -2  -10    6     -0.79      0.00
   -2  -10    5      0.82      0.00
   -2  -10    4     -0.52      0.00
   -2  -10    3      0.10      0.00
   -2  -10    2      0.24      0.00
   -2  -10    1     -0.52      0.00
    2   10    0      0.78      0.00
    2   10    1     -0.92      0.00
    2   10    2      0.95      0.00
    2   10    3     -1.00      0.00
    2   10    4      0.98      0.00
    2   10    5     -0.64      0.00
    2   10    6      0.15      0.00
    2   10    7      0.03      0.00
    2   10    8      0.03      0.00
    2   10    9      0.24      0.00
    2   10   10     -0.73      0.00
    2   10   11      0.69      0.00
    2   10   12     -0.20      0.00
    2   10   13      0.06      0.00
    2   10   14     -0.35      0.00
    2   10   15      0.35      0.00
    2   10   16      0.07      0.00
    2   10   17     -0.30      0.00
    2   10   18      0.14      0.00
    2   10   19      0.01      0.00
   -2  -11   13     -0.26      0.00
   -2  -11   12      0.07      0.00
   -2  -11   11      0.25      0.00
   -2  -11   10     -0.40      0.00
   -2  -11    9      0.29      0.00
   -2  -11    8     -0.33      0.00
   -2  -11    7      0.70      0.00
   -2  -11    6     -0.98      0.00
   -2  -11    5      0.77      0.00
   -2  -11    4     -0.33      0.00
   -2  -11    3      0.11      0.00
   -2  -11    2     -0.06      0.00
   -2  -11    1     -0.16      0.00
    2   11    0      0.55      0.00
    2   11    1     -0.83      0.00
    2   11    2      0.93      0.00
    2   11    3     -0.97      0.00
    2   11    4      0.87      0.00
    2   11    5     -0.58      0.00
    2   11    6      0.37      0.00
    2   11    7     -0.36      0.00
    2   11    8      0.15      0.00
    2   11    9      0.36      0.00
    2   11   10     -0.56      0.00
    2   11   11      0.24      0.00
    2   11   12     -0.07      0.00
    2   11   13      0.35      0.00
    2   11   14     -0.48      0.00
    2   11   15      0.10      0.00
    2   11   16      0.24      0.00
    2   11   17     -0.14      0.00
    2   11   18     -0.03      0.00
   -2  -12   11      0.07      0.00
   -2  -12   10      0.00      0.00
   -2  -12    9      0.05      0.00
   -2  -12    8     -0.45      0.00
   -2  -12    7      0.82      0.00
   -2  -12    6     -0.73      0.00
   -2  -12    5      0.37      0.00
   -2  -12    4     -0.27      0.00
   -2  -12    3      0.45      0.00
   -2  -12    2     -0.36      0.00
   -2  -12    1     -0.14      0.00
    2   12    0      0.58      0.00
    2   12    1     -0.67      0.00
    2   12    2      0.69      0.00
    2   12    3     -0.82      0.00
    2   12    4      0.82      0.00
    2   12    5     -0.67      0.00
    2   12    6      0.58      0.00
    2   12    7     -0.47      0.00
    2   12    8      0.09      0.00
    2   12    9      0.25      0.00
    2   12   10     -0.18      0.00
    2   12   11      0.02      0.00
    2   12   12     -0.23      0.00
    2   12   13      0.46      0.00
    2   12   14     -0.23      0.00
    2   12   15     -0.12      0.00
    2   12   16      0.11      0.00
    2   12   17      0.04      0.00
   -2  -13   10      0.14      0.00
   -2  -13    9      0.18      0.00
   -2  -13    8     -0.51      0.00
   -2  -13    7      0.49      0.00
   -2  -13    6     -0.25      0.00
   -2  -13    5      0.27      0.00
   -2  -13    4     -0.59      0.00
   -2  -13    3      0.65      0.00
   -2  -13    2     -0.19      0.00
   -2  -13    1     -0.30      0.00
    2   13    0      0.36      0.00
    2   13    1     -0.29      0.00
    2   13    2      0.53      0.00
    2   13    3     -0.84      0.00
    2   13    4      0.81      0.00
    2   13    5     -0.65      0.00
    2   13    6      0.60      0.00
    2   13    7     -0.48      0.00
    2   13    8      0.16      0.00
    2   13    9      0.01      0.00
    2   13   10      0.05      0.00
    2   13   11      0.05      0.00
    2   13   12     -0.29      0.00
    2   13   13      0.26      0.00
    2   13   14     -0.01      0.00
    2   13   15     -0.05      0.00
    2   13   16     -0.04      0.00
   -2  -14    7      0.05      0.00
   -2  -14    6     -0.17      0.00
   -2  -14    5      0.53      0.00
   -2  -14    4     -0.67      0.00
   -2  -14    3      0.33      0.00
   -2  -14    2      0.08      0.00
   -2  -14    1     -0.07      0.00
    2   14    0     -0.10      0.00
    2   14    1     -0.14      0.00
    2   14    2      0.64      0.00
    2   14    3     -0.78      0.00
    2   14    4      0.57      0.00
    2   14    5     -0.53      0.00
    2   14    6      0.64      0.00
    2   14    7     -0.51      0.00
    2   14    8      0.22      0.00
    2   14    9     -0.13      0.00
    2   14   10      0.12      0.00
    2   14   11      0.05      0.00
    2   14   12     -0.18      0.00
    2   14   13      0.09      0.00
    2   14   14     -0.01      0.00
   -2  -15    5      0.50      0.00
   -2  -15    4     -0.28      0.00
   -2  -15    3      0.03      0.00
   -2  -15    2     -0.12      0.00
   -2  -15    1      0.35      0.00
    2   15    0     -0.19      0.00
    2   15    1     -0.33      0.00
    2   15    2      0.60      0.00
    2   15    3     -0.41      0.00
    2   15    4      0.30      0.00
    2   15    5     -0.56      0.00
    2   15    6      0.68      0.00
    2   15    7     -0.43      0.00
    2   15    8      0.21      0.00
    2   15    9     -0.22      0.00
    2   15   10      0.18      0.00
    2   15   11      0.00      0.00
    2   15   12     -0.08      0.00
   -2  -16    1      0.37      0.00
    2   16    0      0.04      0.00
    2   16    2      0.20      0.00
    2   16    3     -0.04      0.00
    2   16    4      0.29      0.00
    2   16    5     -0.61      0.00
    2   16    6      0.52      0.00
   -3   14    4     -0.27      0.00
   -3   14    2     -0.27      0.00
   -3   14    1      0.30      0.00
   -3   13    7     -0.12      0.00
   -3   13    6      0.00      0.00
   -3   13    5      0.30      0.00
   -3   13    4     -0.34      0.00
   -3   13    3      0.26      0.00
   -3   13    2     -0.35      0.00
   -3   13    1      0.39      0.00
   -3   13    0     -0.25      0.00
    3  -13    1      0.20      0.00
    3  -13    2     -0.32      0.00
    3  -13    3      0.24      0.00
    3  -13    4      0.11      0.00
    3  -13    5     -0.32      0.00
   -3   12   12      0.07      0.00
   -3   12    9      0.17      0.00
   -3   12    8      0.18      0.00
   -3   12    7     -0.15      0.00
   -3   12    6     -0.20      0.00
   -3   12    5      0.30      0.00
   -3   12    4     -0.16      0.00
   -3   12    3      0.24      0.00
   -3   12    2     -0.46      0.00
   -3   12    1      0.45      0.00
   -3   12    0     -0.36      0.00
    3  -12    1      0.50      0.00
    3  -12    2     -0.60      0.00
    3  -12    3      0.29      0.00
    3  -12    4      0.10      0.00
    3  -12    5     -0.17      0.00
    3  -12    8      0.45      0.00
   -3   11   13      0.13      0.00
   -3   11   12     -0.09      0.00
   -3   11   11      0.22      0.00
   -3   11   10     -0.17      0.00
   -3   11    9     -0.14      0.00
   -3   11    8      0.24      0.00
   -3   11    7      0.03      0.00
   -3   11    6     -0.16      0.00
   -3   11    5     -0.02      0.00
   -3   11    4      0.02      0.00
   -3   11    3      0.30      0.00
   -3   11    2     -0.48      0.00
   -3   11    1      0.43      0.00
   -3   11    0     -0.56      0.00
    3  -11    1      0.81      0.00
    3  -11    2     -0.72      0.00
    3  -11    3      0.33      0.00
    3  -11    4     -0.13      0.00
    3  -11    5      0.20      0.00
    3  -11    7     -0.27      0.00
    3  -11    8      0.56      0.00
    3  -11    9     -0.56      0.00
    3  -11   10      0.47      0.00
   -3   10   15      0.39      0.00
   -3   10   14     -0.42      0.00
   -3   10   13      0.25      0.00
   -3   10   12     -0.19      0.00
   -3   10   11      0.20      0.00
   -3   10   10     -0.02      0.00
   -3   10    9     -0.16      0.00
   -3   10    8      0.09      0.00
   -3   10    7     -0.02      0.00
   -3   10    6      0.21      0.00
   -3   10    5     -0.33      0.00
   -3   10    4      0.06      0.00
   -3   10    3      0.25      0.00
   -3   10    2     -0.31      0.00
   -3   10    1      0.40      0.00
   -3   10    0     -0.73      0.00
    3  -10    1      0.91      0.00
    3  -10    2     -0.74      0.00
    3  -10    3      0.56      0.00
    3  -10    4     -0.61      0.00
    3  -10    5      0.57      0.00
    3  -10    6     -0.20      0.00
    3  -10    7     -0.26      0.00
    3  -10    8      0.46      0.00
    3  -10    9     -0.47      0.00
    3  -10   10      0.52      0.00
    3  -10   11     -0.56      0.00
    3  -10   12      0.46      0.00
   -3    9   16     -0.43      0.00
   -3    9   15      0.68      0.00
   -3    9   14     -0.50      0.00
   -3    9   13      0.24      0.00
   -3    9   12     -0.25      0.00
   -3    9   11      0.28      0.00
   -3    9   10     -0.10      0.00
   -3    9    9     -0.06      0.00
   -3    9    8      0.12      0.00
   -3    9    7     -0.29      0.00
   -3    9    6      0.51      0.00
   -3    9    5     -0.44      0.00
   -3    9    4      0.16      0.00
   -3    9    3     -0.02      0.00
   -3    9    2     -0.06      0.00
   -3    9    1      0.32      0.00
   -3    9    0     -0.67      0.00
    3   -9    1      0.83      0.00
    3   -9    2     -0.87      0.00
    3   -9    3      0.96      0.00
    3   -9    4     -0.97      0.00
    3   -9    5      0.74      0.00
    3   -9    6     -0.35      0.00
    3   -9    7      0.05      0.00
    3   -9    8      0.14      0.00
    3   -9    9     -0.34      0.00
    3   -9   10      0.57      0.00
    3   -9   11     -0.66      0.00
    3   -9   12      0.60      0.00
    3   -9   13     -0.54      0.00
   -3    8   17      0.36      0.00
   -3    8   16     -0.79      0.00
   -3    8   15      0.72      0.00
   -3    8   14     -0.33      0.00
   -3    8   13      0.29      0.00
   -3    8   12     -0.52      0.00
   -3    8   11      0.47      0.00
   -3    8   10     -0.16      0.00
   -3    8    9     -0.05      0.00
   -3    8    8      0.21      0.00
   -3    8    7     -0.46      0.00
   -3    8    6      0.62      0.00
   -3    8    5     -0.54      0.00
   -3    8    4      0.41      0.00
   -3    8    3     -0.37      0.00
   -3    8    2      0.25      0.00
   -3    8    1      0.05      0.00
   -3    8    0     -0.45      0.00
    3   -8    1      0.82      0.00
    3   -8    2     -1.04      0.00
    3   -8    3      1.07      0.00
    3   -8    4     -1.02      0.00
    3   -8    5      0.96      0.00
    3   -8    6     -0.81      0.00
    3   -8    7      0.50      0.00
    3   -8    8     -0.11      0.00
    3   -8    9     -0.25      0.00
    3   -8   10      0.48      0.00
    3   -8   11     -0.58      0.00
    3   -8   12      0.66      0.00
    3   -8   13     -0.75      0.00
    3   -8   14      0.64      0.00
    3   -8   15     -0.29      0.00
   -3    7   18     -0.20      0.00
   -3    7   17      0.72      0.00
   -3    7   16     -0.81      0.00
   -3    7   15      0.41      0.00
   -3    7   14     -0.28      0.00
   -3    7   13      0.64      0.00
   -3    7   12     -0.79      0.00
   -3    7   11      0.46      0.00
   -3    7   10     -0.14      0.00
   -3    7    9      0.04      0.00
   -3    7    8      0.16      0.00
   -3    7    7     -0.49      0.00
   -3    7    6      0.67      0.00
   -3    7    5     -0.67      0.00
   -3    7    4      0.69      0.00
   -3    7    3     -0.76      0.00
   -3    7    2      0.67      0.00
   -3    7    1     -0.28      0.00
   -3    7    0     -0.30      0.00
    3   -7    1      0.72      0.00
    3   -7    2     -0.79      0.00
    3   -7    3      0.84      0.00
    3   -7    4     -1.16      0.00
    3   -7    5      1.43      0.00
    3   -7    6     -1.22      0.00
    3   -7    7      0.68      0.00
    3   -7    8     -0.27      0.00
    3   -7    9      0.07      0.00
    3   -7   10      0.12      0.00
    3   -7   11     -0.41      0.00
    3   -7   12      0.75      0.00
    3   -7   13     -0.90      0.00
    3   -7   14      0.69      0.00
    3   -7   15     -0.38      0.00
   -3    6   18     -0.51      0.00
   -3    6   17      0.74      0.00
   -3    6   16     -0.42      0.00
   -3    6   15      0.21      0.00
   -3    6   14     -0.58      0.00
   -3    6   13      0.92      0.00
   -3    6   12     -0.70      0.00
   -3    6   11      0.36      0.00
   -3    6   10     -0.34      0.00
   -3    6    9      0.28      0.00
   -3    6    8      0.09      0.00
   -3    6    7     -0.47      0.00
   -3    6    6      0.62      0.00
   -3    6    5     -0.73      0.00
   -3    6    4      0.97      0.00
   -3    6    3     -1.15      0.00
   -3    6    2      1.01      0.00
   -3    6    1     -0.49      0.00
   -3    6    0     -0.04      0.00
    3   -6    1      0.18      0.00
    3   -6    2     -0.22      0.00
    3   -6    3      0.75      0.00
    3   -6    4     -1.52      0.00
    3   -6    5      1.66      0.00
    3   -6    6     -1.12      0.00
    3   -6    7      0.71      0.00
    3   -6    8     -0.73      0.00
    3   -6    9      0.68      0.00
    3   -6   10     -0.23      0.00
    3   -6   11     -0.38      0.00
    3   -6   12      0.79      0.00
    3   -6   13     -0.81      0.00
    3   -6   14      0.59      0.00
    3   -6   15     -0.52      0.00
    3   -6   16      0.65      0.00
    3   -6   17     -0.55      0.00
   -3    5   18     -0.56      0.00
   -3    5   17      0.37      0.00
   -3    5   16     -0.11      0.00
   -3    5   15      0.37      0.00
   -3    5   14     -0.80      0.00
   -3    5   13      0.74      0.00
   -3    5   12     -0.47      0.00
   -3    5   11      0.54      0.00
   -3    5   10     -0.66      0.00
   -3    5    9      0.37      0.00
   -3    5    8      0.06      0.00
   -3    5    7     -0.28      0.00
   -3    5    6      0.43      0.00
   -3    5    5     -0.78      0.00
   -3    5    4      1.18      0.00
   -3    5    3     -1.36      0.00
   -3    5    2      1.16      0.00
   -3    5    1     -0.75      0.00
   -3    5    0      0.56      0.00
    3   -5    1     -0.57      0.00
    3   -5    2      0.14      0.00
    3   -5    3      0.87      0.00
    3   -5    4     -1.49      0.00
    3   -5    5      1.19      0.00
    3   -5    6     -0.83      0.00
    3   -5    7      1.12      0.00
    3   -5    8     -1.44      0.00
    3   -5    9      1.05      0.00
    3   -5   10     -0.25      0.00
    3   -5   11     -0.32      0.00
    3   -5   12      0.49      0.00
    3   -5   13     -0.45      0.00
    3   -5   14      0.50      0.00
    3   -5   15     -0.74      0.00
    3   -5   16      0.89      0.00
    3   -5   17     -0.61      0.00
    3   -5   18      0.19      0.00
   -3    4   17      0.03      0.00
   -3    4   16     -0.13      0.00
   -3    4   15      0.51      0.00
   -3    4   14     -0.59      0.00
   -3    4   13      0.41      0.00
   -3    4   12     -0.53      0.00
   -3    4   11      0.81      0.00
   -3    4   10     -0.70      0.00
   -3    4    9      0.33      0.00
   -3    4    8     -0.18      0.00
   -3    4    7      0.09      0.00
   -3    4    6      0.27      0.00
   -3    4    5     -0.76      0.00
   -3    4    4      1.14      0.00
   -3    4    3     -1.36      0.00
   -3    4    2      1.31      0.00
   -3    4    1     -1.15      0.00
   -3    4    0      1.17      0.00
    3   -4    1     -1.06      0.00
    3   -4    2      0.29      0.00
    3   -4    3      0.62      0.00
    3   -4    4     -0.77      0.00
    3   -4    5      0.55      0.00
    3   -4    6     -0.96      0.00
    3   -4    7      1.70      0.00
    3   -4    8     -1.67      0.00
    3   -4    9      0.91      0.00
    3   -4   10     -0.30      0.00
    3   -4   11      0.14      0.00
    3   -4   12     -0.07      0.00
    3   -4   13     -0.16      0.00
    3   -4   14      0.54      0.00
    3   -4   15     -0.90      0.00
    3   -4   16      0.91      0.00
    3   -4   17     -0.56      0.00
    3   -4   18      0.30      0.00
   -3    3   19      0.23      0.00
   -3    3   18     -0.01      0.00
   -3    3   17     -0.06      0.00
   -3    3   16     -0.19      0.00
   -3    3   15      0.34      0.00
   -3    3   14     -0.23      0.00
   -3    3   13      0.33      0.00
   -3    3   12     -0.69      0.00
   -3    3   11      0.75      0.00
   -3    3   10     -0.52      0.00
   -3    3    9      0.50      0.00
   -3    3    8     -0.59      0.00
   -3    3    7      0.36      0.00
   -3    3    6      0.10      0.00
   -3    3    5     -0.50      0.00
   -3    3    4      0.95      0.00
   -3    3    3     -1.35      0.00
   -3    3    2      1.38      0.00
   -3    3    1     -1.33      0.00
   -3    3    0      1.52      0.00
    3   -3    1     -1.42      0.00
    3   -3    2      0.67      0.00
    3   -3    3     -0.06      0.00
    3   -3    4      0.01      0.00
    3   -3    5      0.30      0.00
    3   -3    6     -1.20      0.00
    3   -3    7      1.69      0.00
    3   -3    8     -1.27      0.00
    3   -3    9      0.77      0.00
    3   -3   10     -0.76      0.00
    3   -3   11      0.78      0.00
    3   -3   12     -0.44      0.00
    3   -3   13     -0.07      0.00
    3   -3   14      0.54      0.00
    3   -3   15     -0.80      0.00
    3   -3   16      0.71      0.00
    3   -3   17     -0.48      0.00
    3   -3   18      0.42      0.00
    3   -3   19     -0.44      0.00
   -3    2   19      0.05      0.00
   -3    2   18      0.12      0.00
   -3    2   17     -0.04      0.00
   -3    2   16     -0.12      0.00
   -3    2   15      0.06      0.00
   -3    2   14     -0.06      0.00
   -3    2   13      0.35      0.00
   -3    2   12     -0.53      0.00
   -3    2   11      0.45      0.00
   -3    2   10     -0.53      0.00
   -3    2    9      0.83      0.00
   -3    2    8     -0.82      0.00
   -3    2    7      0.51      0.00
   -3    2    6     -0.25      0.00
   -3    2    5     -0.16      0.00
   -3    2    4      0.82      0.00
   -3    2    3     -1.13      0.00
   -3    2    2      1.01      0.00
   -3    2    1     -1.31      0.00
   -3    2    0      1.95      0.00
    3   -2    1     -1.86      0.00
    3   -2    2      1.04      0.00
    3   -2    4      0.53      0.00
    3   -2    5      0.08      0.00
    3   -2    6     -0.94      0.00
    3   -2    7      1.11      0.00
    3   -2    8     -0.89      0.00
    3   -2    9      1.03      0.00
    3   -2   10     -1.29      0.00
    3   -2   11      1.05      0.00
    3   -2   12     -0.50      0.00
    3   -2   13      0.05      0.00
    3   -2   14      0.28      0.00
    3   -2   15     -0.47      0.00
    3   -2   16      0.46      0.00
    3   -2   17     -0.44      0.00
    3   -2   18      0.53      0.00
    3   -2   19     -0.54      0.00
   -3    1   19     -0.08      0.00
   -3    1   18      0.13      0.00
   -3    1   17      0.01      0.00
   -3    1   16     -0.01      0.00
   -3    1   15     -0.13      0.00
   -3    1   14      0.04      0.00
   -3    1   13      0.18      0.00
   -3    1   12     -0.22      0.00
   -3    1   11      0.33      0.00
   -3    1   10     -0.71      0.00
   -3    1    9      0.95      0.00
   -3    1    7      0.75      0.00
   -3    1    6     -0.60      0.00
   -3    1    5      0.01      0.00
   -3    1    4      0.49      0.00
   -3    1    3     -0.37      0.00
   -3    1    2      0.53      0.00
   -3    1    1     -1.63      0.00
   -3    1    0      2.39      0.00
    3   -1    1     -1.79      0.00
    3   -1    2      0.99      0.00
    3   -1    3     -1.09      0.00
    3   -1    4      1.16      0.00
    3   -1    5     -0.39      0.00
    3   -1    6     -0.40      0.00
    3   -1    7      0.59      0.00
    3   -1    8     -0.81      0.00
    3   -1    9      1.27      0.00
    3   -1   10     -1.35      0.00
    3   -1   11      0.95      0.00
    3   -1   12     -0.61      0.00
    3   -1   13      0.40      0.00
    3   -1   14     -0.12      0.00
    3   -1   15     -0.14      0.00
    3   -1   16      0.26      0.00
    3   -1   17     -0.39      0.00
    3   -1   18      0.54      0.00
    3   -1   19     -0.53      0.00
    3   -1   20      0.35      0.00
   -3    0   19     -0.11      0.00
   -3    0   18     -0.01      0.00
   -3    0   17      0.08      0.00
   -3    0   16      0.14      0.00
   -3    0   15     -0.31      0.00
   -3    0   14      0.17      0.00
   -3    0   13     -0.02      0.00
   -3    0   12     -0.05      0.00
   -3    0   11      0.33      0.00
   -3    0   10     -0.69      0.00
   -3    0    9      0.80      0.00
   -3    0    8     -0.87      0.00
   -3    0    7      0.99      0.00
   -3    0    6     -0.74      0.00
   -3    0    5      0.28      0.00
   -3    0    4     -0.34      0.00
   -3    0    3      0.42      0.00
   -3    0    2      0.65      0.00
   -3    0    1     -2.04      0.00
    3    0    0      1.97      0.00
    3    0    1     -1.02      0.00
    3    0    2      1.12      0.00
    3    0    3     -1.96      0.00
    3    0    4      1.76      0.00
    3    0    5     -0.64      0.00
    3    0    6     -0.02      0.00
    3    0    7      0.20      0.00
    3    0    8     -0.65      0.00
    3    0    9      1.09      0.00
    3    0   10     -1.05      0.00
    3    0   11      0.90      0.00
    3    0   12     -0.92      0.00
    3    0   13      0.78      0.00
    3    0   14     -0.38      0.00
    3    0   15      0.08      0.00
    3    0   16      0.07      0.00
    3    0   17     -0.26      0.00
    3    0   18      0.43      0.00
    3    0   19     -0.42      0.00
    3    0   20      0.26      0.00
   -3   -1   19      0.04      0.00
   -3   -1   18     -0.19      0.00
   -3   -1   17     -0.01      0.00
   -3   -1   16      0.38      0.00
   -3   -1   15     -0.39      0.00
   -3   -1   14      0.15      0.00
   -3   -1   13     -0.09      0.00
   -3   -1   12      0.06      0.00
   -3   -1   11      0.21      0.00
   -3   -1   10     -0.48      0.00
   -3   -1    9      0.66      0.00
   -3   -1    8     -0.92      0.00
   -3   -1    7      1.04      0.00
   -3   -1    6     -0.85      0.00
   -3   -1    5      0.89      0.00
   -3   -1    4     -1.13      0.00
   -3   -1    3      0.48      0.00
   -3   -1    2      1.00      0.00
   -3   -1    1     -1.49      0.00
    3    1    0      0.68      0.00
    3    1    1     -0.65      0.00
    3    1    2      1.97      0.00
    3    1    3     -2.59      0.00
    3    1    4      1.60      0.00
    3    1    5     -0.60      0.00
    3    1    6      0.49      0.00
    3    1    7     -0.32      0.00
    3    1    8     -0.31      0.00
    3    1    9      0.71      0.00
    3    1   10     -0.80      0.00
    3    1   11      1.03      0.00
    3    1   12     -1.19      0.00
    3    1   13      0.90      0.00
    3    1   14     -0.48      0.00
    3    1   15      0.30      0.00
    3    1   16     -0.19      0.00
    3    1   17     -0.06      0.00
    3    1   18      0.26      0.00
    3    1   19     -0.27      0.00
    3    1   20      0.16      0.00
   -3   -2   19      0.26      0.00
   -3   -2   18     -0.16      0.00
   -3   -2   17     -0.28      0.00
   -3   -2   16      0.44      0.00
   -3   -2   15     -0.18      0.00
   -3   -2   14      0.06      0.00
   -3   -2   13     -0.26      0.00
   -3   -2   12      0.27      0.00
   -3   -2   11      0.03      0.00
   -3   -2   10     -0.29      0.00
   -3   -2    9      0.54      0.00
   -3   -2    8     -0.85      0.00
   -3   -2    7      1.00      0.00
   -3   -2    6     -1.11      0.00
   -3   -2    5      1.40      0.00
   -3   -2    4     -1.24      0.00
   -3   -2    3      0.20      0.00
   -3   -2    2      0.53      0.00
   -3   -2    1     -0.08      0.00
    3    2    0     -0.09      0.00
    3    2    1     -1.26      0.00
    3    2    2      2.53      0.00
    3    2    3     -2.06      0.00
    3    2    4      1.00      0.00
    3    2    5     -0.96      0.00
    3    2    6      1.22      0.00
    3    2    7     -0.71      0.00
    3    2    8     -0.03      0.00
    3    2    9      0.36      0.00
    3    2   10     -0.67      0.00
    3    2   11      1.13      0.00
    3    2   12     -1.16      0.00
    3    2   13      0.78      0.00
    3    2   14     -0.59      0.00
    3    2   15      0.62      0.00
    3    2   16     -0.46      0.00
    3    2   17      0.12      0.00
    3    2   18      0.11      0.00
    3    2   19     -0.12      0.00
    3    2   20      0.05      0.00
   -3   -3   19      0.24      0.00
   -3   -3   18      0.12      0.00
   -3   -3   17     -0.37      0.00
   -3   -3   16      0.13      0.00
   -3   -3   15      0.09      0.00
   -3   -3   14      0.20      0.00
   -3   -3   13     -0.53      0.00
   -3   -3   12      0.37      0.00
   -3   -3   11     -0.04      0.00
   -3   -3   10     -0.14      0.00
   -3   -3    9      0.38      0.00
   -3   -3    8     -0.72      0.00
   -3   -3    7      0.97      0.00
   -3   -3    6     -1.23      0.00
   -3   -3    5      1.40      0.00
   -3   -3    4     -1.04      0.00
   -3   -3    3      0.50      0.00
   -3   -3    2     -0.60      0.00
   -3   -3    1      0.77      0.00
    3    3    0      0.23      0.00
    3    3    1     -1.66      0.00
    3    3    2      1.79      0.00
    3    3    3     -1.02      0.00
    3    3    4      1.06      0.00
    3    3    5     -1.69      0.00
    3    3    6      1.53      0.00
    3    3    7     -0.71      0.00
    3    3    8      0.25      0.00
    3    3    9      0.02      0.00
    3    3   10     -0.60      0.00
    3    3   11      1.00      0.00
    3    3   12     -0.83      0.00
    3    3   13      0.66      0.00
    3    3   14     -0.84      0.00
    3    3   15      0.91      0.00
    3    3   16     -0.57      0.00
    3    3   17      0.18      0.00
    3    3   18     -0.04      0.00
    3    3   19      0.07      0.00
    3    3   20     -0.09      0.00
    3    3   21      0.00      0.00
   -3   -4   18      0.24      0.00
   -3   -4   17     -0.07      0.00
   -3   -4   16     -0.23      0.00
   -3   -4   15      0.01      0.00
   -3   -4   14      0.51      0.00
   -3   -4   13     -0.59      0.00
   -3   -4   12      0.25      0.00
   -3   -4   11     -0.10      0.00
   -3   -4   10      0.07      0.00
   -3   -4    9      0.19      0.00
   -3   -4    8     -0.54      0.00
   -3   -4    7      0.79      0.00
   -3   -4    6     -1.07      0.00
   -3   -4    5      1.25      0.00
   -3   -4    4     -1.16      0.00
   -3   -4    3      1.11      0.00
   -3   -4    2     -1.19      0.00
   -3   -4    1      0.66      0.00
    3    4    0      0.43      0.00
    3    4    1     -0.92      0.00
    3    4    2      0.62      0.00
    3    4    3     -0.78      0.00
    3    4    4      1.60      0.00
    3    4    5     -1.82      0.00
    3    4    6      1.21      0.00
    3    4    7     -0.78      0.00
    3    4    8      0.65      0.00
    3    4    9     -0.16      0.00
    3    4   10     -0.49      0.00
    3    4   11      0.60      0.00
    3    4   12     -0.50      0.00
    3    4   13      0.77      0.00
    3    4   14     -1.09      0.00
    3    4   15      0.92      0.00
    3    4   16     -0.48      0.00
    3    4   17      0.25      0.00
    3    4   18     -0.26      0.00
    3    4   19      0.27      0.00
    3    4   20     -0.16      0.00
    3    4   21     -0.03      0.00
   -3   -5   17      0.27      0.00
   -3   -5   16     -0.19      0.00
   -3   -5   15     -0.32      0.00
   -3   -5   14      0.57      0.00
   -3   -5   13     -0.32      0.00
   -3   -5   12      0.15      0.00
   -3   -5   11     -0.30      0.00
   -3   -5   10      0.29      0.00
   -3   -5    9      0.02      0.00
   -3   -5    8     -0.27      0.00
   -3   -5    7      0.51      0.00
   -3   -5    6     -0.92      0.00
   -3   -5    5      1.24      0.00
   -3   -5    4     -1.28      0.00
   -3   -5    3      1.27      0.00
   -3   -5    2     -1.12      0.00
   -3   -5    1      0.63      0.00
    3    5    0     -0.18      0.00
    3    5    1      0.06      0.00
    3    5    2      0.27      0.00
    3    5    3     -1.05      0.00
    3    5    4      1.50      0.00
    3    5    5     -1.24      0.00
    3    5    6      1.03      0.00
    3    5    7     -1.12      0.00
    3    5    8      0.83      0.00
    3    5    9     -0.15      0.00
    3    5   10     -0.16      0.00
    3    5   11      0.13      0.00
    3    5   12     -0.44      0.00
    3    5   13      0.97      0.00
    3    5   14     -1.02      0.00
    3    5   15      0.65      0.00
    3    5   16     -0.42      0.00
    3    5   17      0.45      0.00
    3    5   18     -0.47      0.00
    3    5   19      0.33      0.00
    3    5   20     -0.11      0.00
    3    5   21     -0.04      0.00
   -3   -6   17      0.25      0.00
   -3   -6   16      0.10      0.00
   -3   -6   15     -0.39      0.00
   -3   -6   14      0.27      0.00
   -3   -6   13     -0.08      0.00
   -3   -6   12      0.29      0.00
   -3   -6   11     -0.54      0.00
   -3   -6   10      0.42      0.00
   -3   -6    9     -0.16      0.00
   -3   -6    8     -0.02      0.00
   -3   -6    7      0.35      0.00
   -3   -6    6     -0.83      0.00
   -3   -6    5      1.05      0.00
   -3   -6    4     -1.04      0.00
   -3   -6    3      1.12      0.00
   -3   -6    2     -1.19      0.00
   -3   -6    1      1.04      0.00
    3    6    0     -0.74      0.00
    3    6    1      0.30      0.00
    3    6    2      0.31      0.00
    3    6    3     -0.74      0.00
    3    6    4      0.80      0.00
    3    6    5     -0.91      0.00
    3    6    6      1.23      0.00
    3    6    7     -1.18      0.00
    3    6    8      0.64      0.00
    3    6    9     -0.31      0.00
    3    6   10      0.33      0.00
    3    6   11     -0.03      0.00
    3    6   12     -0.60      0.00
    3    6   13      0.85      0.00
    3    6   14     -0.61      0.00
    3    6   15      0.46      0.00
    3    6   16     -0.59      0.00
    3    6   17      0.63      0.00
    3    6   18     -0.46      0.00
    3    6   19      0.23      0.00
    3    6   20     -0.06      0.00
    3    6   21      0.05      0.00
   -3   -7   16      0.17      0.00
   -3   -7   15     -0.13      0.00
   -3   -7   14     -0.01      0.00
   -3   -7   13     -0.15      0.00
   -3   -7   12      0.52      0.00
   -3   -7   11     -0.62      0.00
   -3   -7   10      0.43      0.00
   -3   -7    9     -0.28      0.00
   -3   -7    8      0.14      0.00
   -3   -7    7      0.20      0.00
   -3   -7    6     -0.51      0.00
   -3   -7    5      0.62      0.00
   -3   -7    4     -0.81      0.00
   -3   -7    3      1.19      0.00
   -3   -7    2     -1.39      0.00
   -3   -7    1      1.18      0.00
    3    7    0     -0.75      0.00
    3    7    1      0.36      0.00
    3    7    2     -0.11      0.00
    3    7    3     -0.07      0.00
    3    7    4      0.46      0.00
    3    7    5     -0.99      0.00
    3    7    6      1.13      0.00
    3    7    7     -0.79      0.00
    3    7    8      0.60      0.00
    3    7    9     -0.72      0.00
    3    7   10      0.50      0.00
    3    7   11      0.15      0.00
    3    7   12     -0.50      0.00
    3    7   13      0.35      0.00
    3    7   14     -0.31      0.00
    3    7   15      0.60      0.00
    3    7   16     -0.72      0.00
    3    7   17      0.52      0.00
    3    7   18     -0.28      0.00
    3    7   19      0.17      0.00
   -3   -8   16     -0.03      0.00
   -3   -8   15      0.09      0.00
   -3   -8   14      0.02      0.00
   -3   -8   13     -0.35      0.00
   -3   -8   12      0.58      0.00
   -3   -8   11     -0.50      0.00
   -3   -8   10      0.38      0.00
   -3   -8    9     -0.39      0.00
   -3   -8    8      0.33      0.00
   -3   -8    7     -0.10      0.00
   -3   -8    6     -0.12      0.00
   -3   -8    5      0.38      0.00
   -3   -8    4     -0.81      0.00
   -3   -8    3      1.19      0.00
   -3   -8    2     -1.19      0.00
   -3   -8    1      0.95      0.00
    3    8    0     -0.80      0.00
    3    8    1      0.78      0.00
    3    8    2     -0.63      0.00
    3    8    3      0.14      0.00
    3    8    4      0.49      0.00
    3    8    5     -0.74      0.00
    3    8    6      0.59      0.00
    3    8    7     -0.60      0.00
    3    8    8      0.90      0.00
    3    8    9     -0.84      0.00
    3    8   10      0.24      0.00
    3    8   11      0.13      0.00
    3    8   12      0.01      0.00
    3    8   13      0.00      0.00
    3    8   14     -0.45      0.00
    3    8   15      0.72      0.00
    3    8   16     -0.50      0.00
    3    8   17      0.24      0.00
    3    8   18     -0.23      0.00
    3    8   19      0.26      0.00
   -3   -9   15      0.06      0.00
   -3   -9   14      0.16      0.00
   -3   -9   13     -0.37      0.00
   -3   -9   12      0.40      0.00
   -3   -9   11     -0.33      0.00
   -3   -9   10      0.43      0.00
   -3   -9    9     -0.60      0.00
   -3   -9    8      0.56      0.00
   -3   -9    7     -0.31      0.00
   -3   -9    6      0.01      0.00
   -3   -9    5      0.32      0.00
   -3   -9    4     -0.64      0.00
   -3   -9    3      0.82      0.00
   -3   -9    2     -0.86      0.00
   -3   -9    1      0.95      0.00
    3    9    0     -1.10      0.00
    3    9    1      1.07      0.00
    3    9    2     -0.67      0.00
    3    9    3      0.11      0.00
    3    9    4      0.17      0.00
    3    9    5     -0.15      0.00
    3    9    6      0.31      0.00
    3    9    7     -0.79      0.00
    3    9    8      0.94      0.00
    3    9    9     -0.47      0.00
    3    9   10      0.13      0.00
    3    9   11     -0.33      0.00
    3    9   12      0.38      0.00
    3    9   13      0.16      0.00
    3    9   14     -0.61      0.00
    3    9   15      0.43      0.00
    3    9   16     -0.12      0.00
    3    9   17      0.20      0.00
    3    9   18     -0.36      0.00
    3    9   19      0.29      0.00
    3    9   20     -0.13      0.00
   -3  -10   14      0.13      0.00
   -3  -10   13     -0.18      0.00
   -3  -10   12      0.19      0.00
   -3  -10   11     -0.32      0.00
   -3  -10   10      0.61      0.00
   -3  -10    9     -0.74      0.00
   -3  -10    8      0.56      0.00
   -3  -10    7     -0.27      0.00
   -3  -10    6      0.10      0.00
   -3  -10    5      0.03      0.00
   -3  -10    4     -0.24      0.00
   -3  -10    3      0.54      0.00
   -3  -10    2     -0.84      0.00
   -3  -10    1      1.06      0.00
    3   10    0     -1.12      0.00
    3   10    1      0.94      0.00
    3   10    2     -0.62      0.00
    3   10    3      0.39      0.00
    3   10    4     -0.35      0.00
    3   10    5      0.13      0.00
    3   10    6      0.42      0.00
    3   10    7     -0.76      0.00
    3   10    8      0.50      0.00
    3   10    9     -0.22      0.00
    3   10   10      0.47      0.00
    3   10   11     -0.68      0.00
    3   10   12      0.20      0.00
    3   10   13      0.39      0.00
    3   10   14     -0.31      0.00
    3   10   15     -0.03      0.00
    3   10   16     -0.07      0.00
    3   10   17      0.39      0.00
    3   10   18     -0.38      0.00
    3   10   19      0.15      0.00
   -3  -11   13     -0.02      0.00
   -3  -11   12      0.17      0.00
   -3  -11   11     -0.45      0.00
   -3  -11   10      0.66      0.00
   -3  -11    9     -0.58      0.00
   -3  -11    8      0.38      0.00
   -3  -11    7     -0.35      0.00
   -3  -11    6      0.43      0.00
   -3  -11    5     -0.30      0.00
   -3  -11    4     -0.13      0.00
   -3  -11    3      0.55      0.00
   -3  -11    2     -0.76      0.00
   -3  -11    1      0.83      0.00
    3   11    0     -0.90      0.00
    3   11    1      0.90      0.00
    3   11    2     -0.81      0.00
    3   11    3      0.73      0.00
    3   11    4     -0.55      0.00
    3   11    5      0.09      0.00
    3   11    6      0.35      0.00
    3   11    7     -0.32      0.00
    3   11    8      0.14      0.00
    3   11    9     -0.40      0.00
    3   11   10      0.77      0.00
    3   11   11     -0.50      0.00
    3   11   12     -0.11      0.00
    3   11   13      0.17      0.00
    3   11   14      0.16      0.00
    3   11   15     -0.10      0.00
    3   11   16     -0.31      0.00
    3   11   17      0.42      0.00
    3   11   18     -0.19      0.00
   -3  -12   11     -0.42      0.00
   -3  -12   10      0.41      0.00
   -3  -12    9     -0.32      0.00
   -3  -12    8      0.41      0.00
   -3  -12    7     -0.64      0.00
   -3  -12    6      0.63      0.00
   -3  -12    5     -0.23      0.00
   -3  -12    4     -0.21      0.00
   -3  -12    3      0.34      0.00
   -3  -12    2     -0.36      0.00
   -3  -12    1      0.59      0.00
    3   12    0     -0.90      0.00
    3   12    1      0.99      0.00
    3   12    2     -0.88      0.00
    3   12    3      0.77      0.00
    3   12    4     -0.55      0.00
    3   12    5      0.19      0.00
    3   12    6      0.00      0.00
    3   12    7      0.04      0.00
    3   12    8      0.16      0.00
    3   12    9     -0.59      0.00
    3   12   10      0.60      0.00
    3   12   11     -0.15      0.00
    3   12   12     -0.03      0.00
    3   12   13     -0.24      0.00
    3   12   14      0.27      0.00
    3   12   15      0.13      0.00
    3   12   16     -0.36      0.00
    3   12   17      0.20      0.00
   -3  -13    9     -0.33      0.00
   -3  -13    8      0.63      0.00
   -3  -13    7     -0.69      0.00
   -3  -13    6      0.39      0.00
   -3  -13    5     -0.07      0.00
   -3  -13    4      0.05      0.00
   -3  -13    3     -0.12      0.00
   -3  -13    2     -0.16      0.00
   -3  -13    1      0.67      0.00
    3   13    0     -0.90      0.00
    3   13    1      0.78      0.00
    3   13    2     -0.72      0.00
    3   13    3      0.80      0.00
    3   13    4     -0.67      0.00
    3   13    5      0.38      0.00
    3   13    6     -0.24      0.00
    3   13    7      0.14      0.00
    3   13    8      0.20      0.00
    3   13    9     -0.45      0.00
    3   13   10      0.28      0.00
    3   13   11     -0.08      0.00
    3   13   12      0.24      0.00
    3   13   13     -0.35      0.00
    3   13   14      0.07      0.00
    3   13   15      0.21      0.00
    3   13   16     -0.16      0.00
   -3  -14    8      0.54      0.00
   -3  -14    7     -0.35      0.00
   -3  -14    6      0.19      0.00
   -3  -14    5     -0.31      0.00
   -3  -14    4      0.46      0.00
   -3  -14    3     -0.21      0.00
   -3  -14    2     -0.34      0.00
   -3  -14    1      0.63      0.00
    3   14    0     -0.50      0.00
    3   14    1      0.46      0.00
    3   14    2     -0.76      0.00
    3   14    3      0.93      0.00
    3   14    4     -0.67      0.00
    3   14    5      0.39      0.00
    3   14    6     -0.35      0.00
    3   14    7      0.23      0.00
    3   14    8      0.10      0.00
    3   14    9     -0.23      0.00
    3   14   10      0.12      0.00
    3   14   11     -0.16      0.00
    3   14   12      0.31      0.00
    3   14   13     -0.20      0.00
   -3  -15    5     -0.58      0.00
   -3  -15    4      0.41      0.00
   -3  -15    3      0.05      0.00
   -3  -15    2     -0.30      0.00
   -3  -15    1      0.15      0.00
    3   15    0     -0.10      0.00
    3   15    1      0.49      0.00
    3   15    2     -0.90      0.00
    3   15    3      0.78      0.00
    3   15    4     -0.43      0.00
    3   15    5      0.41      0.00
    3   15    6     -0.52      0.00
    3   15    7      0.31      0.00
    3   15    8      0.01      0.00
    3   15    9     -0.08      0.00
    3   15   10      0.05      0.00
    3   15   11     -0.15      0.00
    3   15   12      0.21      0.00
   -3  -16    1     -0.21      0.00
    3   16    0     -0.14      0.00
    3   16    1      0.62      0.00
    3   16    2     -0.67      0.00
    3   16    6     -0.59      0.00
    3   16    7      0.25      0.00
    3   16    8     -0.03      0.00
    3   16    9      0.07      0.00
   -4   13    5     -0.17      0.00
   -4   13    4      0.31      0.00
   -4   13    2      0.17      0.00
   -4   13    1     -0.13      0.00
   -4   13    0     -0.07      0.00
    4  -13    1      0.23      0.00
   -4   12    7      0.14      0.00
   -4   12    6      0.13      0.00
   -4   12    5     -0.42      0.00
   -4   12    4      0.35      0.00
   -4   12    3     -0.22      0.00
   -4   12    2      0.29      0.00
   -4   12    1     -0.24      0.00
   -4   12    0      0.02      0.00
    4  -12    1      0.01      0.00
    4  -12    2      0.06      0.00
    4  -12    3      0.15      0.00
    4  -12    4     -0.55      0.00
    4  -12    5      0.64      0.00
    4  -12    6     -0.44      0.00
   -4   11   12     -0.08      0.00
   -4   11   11     -0.08      0.00
   -4   11   10      0.27      0.00
   -4   11    9     -0.07      0.00
   -4   11    8     -0.21      0.00
   -4   11    7      0.01      0.00
   -4   11    6      0.36      0.00
   -4   11    5     -0.36      0.00
   -4   11    4      0.19      0.00
   -4   11    3     -0.31      0.00
   -4   11    2      0.48      0.00
   -4   11    1     -0.37      0.00
   -4   11    0      0.24      0.00
    4  -11    1     -0.31      0.00
    4  -11    2      0.23      0.00
    4  -11    3      0.21      0.00
    4  -11    4     -0.55      0.00
    4  -11    5      0.50      0.00
    4  -11    6     -0.41      0.00
    4  -11    7      0.55      0.00
    4  -11    9      0.51      0.00
   -4   10   13     -0.07      0.00
   -4   10   12      0.00      0.00
   -4   10   11     -0.12      0.00
   -4   10   10      0.05      0.00
   -4   10    9      0.20      0.00
   -4   10    8     -0.16      0.00
   -4   10    7     -0.15      0.00
   -4   10    6      0.22      0.00
   -4   10    5     -0.06      0.00
   -4   10    4      0.16      0.00
   -4   10    3     -0.49      0.00
   -4   10    2      0.59      0.00
   -4   10    1     -0.48      0.00
   -4   10    0      0.54      0.00
    4  -10    1     -0.61      0.00
    4  -10    2      0.32      0.00
    4  -10    3      0.10      0.00
    4  -10    4     -0.24      0.00
    4  -10    5      0.23      0.00
    4  -10    6     -0.42      0.00
    4  -10    7      0.72      0.00
    4  -10    8     -0.80      0.00
    4  -10    9      0.65      0.00
    4  -10   10     -0.50      0.00
    4  -10   11      0.33      0.00
   -4    9   14      0.33      0.00
   -4    9   13     -0.06      0.00
   -4    9   12      0.00      0.00
   -4    9   11     -0.06      0.00
   -4    9   10     -0.07      0.00
   -4    9    9      0.20      0.00
   -4    9    8     -0.09      0.00
   -4    9    7      0.00      0.00
   -4    9    6     -0.13      0.00
   -4    9    5      0.10      0.00
   -4    9    4      0.24      0.00
   -4    9    3     -0.52      0.00
   -4    9    2      0.55      0.00
   -4    9    1     -0.62      0.00
   -4    9    0      0.80      0.00
    4   -9    1     -0.77      0.00
    4   -9    2      0.50      0.00
    4   -9    3     -0.30      0.00
    4   -9    4      0.20      0.00
    4   -9    5      0.04      0.00
    4   -9    6     -0.43      0.00
    4   -9    7      0.71      0.00
    4   -9    8     -0.77      0.00
    4   -9    9      0.74      0.00
    4   -9   10     -0.68      0.00
    4   -9   11      0.50      0.00
    4   -9   12     -0.23      0.00
   -4    8   15     -0.58      0.00
   -4    8   14      0.23      0.00
   -4    8   13      0.03      0.00
   -4    8   12      0.10      0.00
   -4    8   11     -0.16      0.00
   -4    8   10     -0.06      0.00
   -4    8    9      0.21      0.00
   -4    8    8     -0.21      0.00
   -4    8    7      0.28      0.00
   -4    8    6     -0.35      0.00
   -4    8    5      0.15      0.00
   -4    8    4      0.17      0.00
   -4    8    3     -0.36      0.00
   -4    8    2      0.48      0.00
   -4    8    1     -0.68      0.00
   -4    8    0      0.87      0.00
    4   -8    1     -0.92      0.00
    4   -8    2      0.88      0.00
    4   -8    3     -0.75      0.00
    4   -8    4      0.47      0.00
    4   -8    5     -0.11      0.00
    4   -8    6     -0.19      0.00
    4   -8    7      0.44      0.00
    4   -8    8     -0.66      0.00
    4   -8    9      0.82      0.00
    4   -8   10     -0.81      0.00
    4   -8   11      0.64      0.00
    4   -8   12     -0.47      0.00
    4   -8   13      0.37      0.00
    4   -8   14     -0.17      0.00
   -4    7   16      0.71      0.00
   -4    7   15     -0.43      0.00
   -4    7   14      0.03      0.00
   -4    7   13     -0.14      0.00
   -4    7   12      0.39      0.00
   -4    7   11     -0.22      0.00
   -4    7   10     -0.14      0.00
   -4    7    9      0.28      0.00
   -4    7    8     -0.31      0.00
   -4    7    7      0.44      0.00
   -4    7    6     -0.48      0.00
   -4    7    5      0.29      0.00
   -4    7    4     -0.04      0.00
   -4    7    3     -0.13      0.00
   -4    7    2      0.29      0.00
   -4    7    1     -0.55      0.00
   -4    7    0      0.90      0.00
    4   -7    1     -1.19      0.00
    4   -7    2      1.18      0.00
    4   -7    3     -0.89      0.00
    4   -7    4      0.65      0.00
    4   -7    5     -0.55      0.00
    4   -7    6      0.32      0.00
    4   -7    7      0.17      0.00
    4   -7    8     -0.62      0.00
    4   -7    9      0.79      0.00
    4   -7   10     -0.76      0.00
    4   -7   11      0.72      0.00
    4   -7   12     -0.72      0.00
    4   -7   13      0.64      0.00
    4   -7   14     -0.31      0.00
    4   -7   15     -0.13      0.00
   -4    6   17     -0.66      0.00
   -4    6   16      0.55      0.00
   -4    6   15     -0.11      0.00
   -4    6   14      0.14      0.00
   -4    6   13     -0.53      0.00
   -4    6   12      0.51      0.00
   -4    6   11     -0.07      0.00
   -4    6   10     -0.18      0.00
   -4    6    9      0.18      0.00
   -4    6    8     -0.32      0.00
   -4    6    7      0.59      0.00
   -4    6    6     -0.63      0.00
   -4    6    5      0.45      0.00
   -4    6    4     -0.30      0.00
   -4    6    3      0.23      0.00
   -4    6    2     -0.06      0.00
   -4    6    1     -0.39      0.00
   -4    6    0      0.99      0.00
    4   -6    1     -1.25      0.00
    4   -6    2      1.04      0.00
    4   -6    3     -0.90      0.00
    4   -6    4      1.12      0.00
    4   -6    5     -1.18      0.00
    4   -6    6      0.62      0.00
    4   -6    7      0.11      0.00
    4   -6    8     -0.42      0.00
    4   -6    9      0.44      0.00
    4   -6   10     -0.57      0.00
    4   -6   11      0.83      0.00
    4   -6   12     -0.97      0.00
    4   -6   13      0.81      0.00
    4   -6   14     -0.40      0.00
    4   -6   15      0.05      0.00
    4   -6   16      0.00      0.00
   -4    5   18      0.47      0.00
   -4    5   17     -0.53      0.00
   -4    5   16      0.17      0.00
   -4    5   15     -0.11      0.00
   -4    5   14      0.52      0.00
   -4    5   13     -0.67      0.00
   -4    5   12      0.31      0.00
   -4    5   11     -0.03      0.00
   -4    5   10      0.07      0.00
   -4    5    9      0.04      0.00
   -4    5    8     -0.44      0.00
   -4    5    7      0.70      0.00
   -4    5    6     -0.66      0.00
   -4    5    5      0.59      0.00
   -4    5    4     -0.66      0.00
   -4    5    3      0.68      0.00
   -4    5    2     -0.35      0.00
   -4    5    1     -0.31      0.00
   -4    5    0      0.83      0.00
    4   -5    1     -0.81      0.00
    4   -5    2      0.73      0.00
    4   -5    3     -1.19      0.00
    4   -5    4      1.70      0.00
    4   -5    5     -1.38      0.00
    4   -5    6      0.54      0.00
    4   -5    7     -0.13      0.00
    4   -5    8      0.20      0.00
    4   -5    9     -0.02      0.00
    4   -5   10     -0.53      0.00
    4   -5   11      0.98      0.00
    4   -5   12     -1.05      0.00
    4   -5   13      0.80      0.00
    4   -5   14     -0.47      0.00
    4   -5   15      0.33      0.00
    4   -5   16     -0.32      0.00
   -4    4   18      0.41      0.00
   -4    4   17     -0.19      0.00
   -4    4   16      0.05      0.00
   -4    4   15     -0.36      0.00
   -4    4   14      0.64      0.00
   -4    4   13     -0.44      0.00
   -4    4   12      0.22      0.00
   -4    4   11     -0.31      0.00
   -4    4   10      0.28      0.00
   -4    4    9      0.13      0.00
   -4    4    8     -0.50      0.00
   -4    4    7      0.55      0.00
   -4    4    6     -0.60      0.00
   -4    4    5      0.84      0.00
   -4    4    4     -1.06      0.00
   -4    4    3      0.98      0.00
   -4    4    2     -0.52      0.00
   -4    4    1     -0.04      0.00
   -4    4    0      0.23      0.00
    4   -4    1     -0.22      0.00
    4   -4    2      0.69      0.00
    4   -4    3     -1.53      0.00
    4   -4    4      1.71      0.00
    4   -4    5     -1.04      0.00
    4   -4    6      0.61      0.00
    4   -4    7     -0.83      0.00
    4   -4    8      0.83      0.00
    4   -4    9     -0.14      0.00
    4   -4   10     -0.60      0.00
    4   -4   11      0.88      0.00
    4   -4   12     -0.82      0.00
    4   -4   13      0.69      0.00
    4   -4   14     -0.62      0.00
    4   -4   15      0.65      0.00
    4   -4   16     -0.58      0.00
    4   -4   17      0.21      0.00
    4   -4   18      0.19      0.00
   -4    3   18      0.17      0.00
   -4    3   17      0.00      0.00
   -4    3   16      0.15      0.00
   -4    3   15     -0.44      0.00
   -4    3   14      0.43      0.00
   -4    3   13     -0.30      0.00
   -4    3   12      0.42      0.00
   -4    3   11     -0.50      0.00
   -4    3   10      0.18      0.00
   -4    3    9      0.17      0.00
   -4    3    8     -0.22      0.00
   -4    3    7      0.31      0.00
   -4    3    6     -0.69      0.00
   -4    3    5      1.08      0.00
   -4    3    4     -1.22      0.00
   -4    3    3      1.11      0.00
   -4    3    2     -0.79      0.00
   -4    3    1      0.50      0.00
   -4    3    0     -0.42      0.00
    4   -3    1      0.13      0.00
    4   -3    2      0.69      0.00
    4   -3    4      1.15      0.00
    4   -3    5     -0.81      0.00
    4   -3    6      1.12      0.00
    4   -3    7     -1.44      0.00
    4   -3    8      0.92      0.00
    4   -3    9     -0.04      0.00
    4   -3   10     -0.37      0.00
    4   -3   11      0.41      0.00
    4   -3   12     -0.52      0.00
    4   -3   13      0.69      0.00
    4   -3   14     -0.82      0.00
    4   -3   15      0.87      0.00
    4   -3   16     -0.68      0.00
    4   -3   17      0.26      0.00
    4   -3   18      0.03      0.00
    4   -3   19     -0.08      0.00
   -4    2   18      0.00      0.00
   -4    2   17      0.01      0.00
   -4    2   16      0.20      0.00
   -4    2   15     -0.31      0.00
   -4    2   14      0.27      0.00
   -4    2   13     -0.38      0.00
   -4    2   12      0.53      0.00
   -4    2   11     -0.36      0.00
   -4    2   10      0.11      0.00
   -4    2    9     -0.13      0.00
   -4    2    8      0.12      0.00
   -4    2    7      0.30      0.00
   -4    2    6     -0.79      0.00
   -4    2    5      1.04      0.00
   -4    2    4     -1.21      0.00
   -4    2    3      1.28      0.00
   -4    2    2     -1.11      0.00
   -4    2    1      0.94      0.00
   -4    2    0     -0.90      0.00
    4   -2    1      0.48      0.00
    4   -2    2      0.33      0.00
    4   -2    3     -0.74      0.00
    4   -2    5     -0.92      0.00
    4   -2    6      1.49      0.00
    4   -2    7     -1.42      0.00
    4   -2    8      0.69      0.00
    4   -2    9     -0.25      0.00
    4   -2   10      0.22      0.00
    4   -2   11     -0.02      0.00
    4   -2   12     -0.41      0.00
    4   -2   13      0.72      0.00
    4   -2   14     -0.87      0.00
    4   -2   15      0.89      0.00
    4   -2   16     -0.66      0.00
    4   -2   17      0.32      0.00
    4   -2   18     -0.16      0.00
    4   -2   19      0.12      0.00
   -4    1   19     -0.03      0.00
   -4    1   18     -0.09      0.00
   -4    1   17     -0.01      0.00
   -4    1   16      0.18      0.00
   -4    1   15     -0.20      0.00
   -4    1   14      0.23      0.00
   -4    1   13     -0.37      0.00
   -4    1   12      0.37      0.00
   -4    1   11     -0.25      0.00
   -4    1   10      0.35      0.00
   -4    1    9     -0.48      0.00
   -4    1    7      0.33      0.00
   -4    1    6     -0.59      0.00
   -4    1    5      0.84      0.00
   -4    1    4     -1.24      0.00
   -4    1    3      1.35      0.00
   -4    1    2     -1.18      0.00
   -4    1    1      1.30      0.00
   -4    1    0     -1.45      0.00
    4   -1    1      0.92      0.00
    4   -1    2     -0.09      0.00
    4   -1    3     -0.20      0.00
    4   -1    4      0.32      0.00
    4   -1    5     -0.88      0.00
    4   -1    6      1.31      0.00
    4   -1    7     -1.07      0.00
    4   -1    8      0.73      0.00
    4   -1    9     -0.77      0.00
    4   -1   10      0.67      0.00
    4   -1   11     -0.13      0.00
    4   -1   12     -0.35      0.00
    4   -1   13      0.55      0.00
    4   -1   14     -0.71      0.00
    4   -1   15      0.78      0.00
    4   -1   16     -0.61      0.00
    4   -1   17      0.41      0.00
    4   -1   18     -0.35      0.00
    4   -1   19      0.27      0.00
    4   -1   20     -0.08      0.00
   -4    0   19      0.07      0.00
   -4    0   18     -0.09      0.00
   -4    0   17     -0.10      0.00
   -4    0   16      0.18      0.00
   -4    0   15     -0.09      0.00
   -4    0   14      0.12      0.00
   -4    0   13     -0.25      0.00
   -4    0   12      0.28      0.00
   -4    0   11     -0.39      0.00
   -4    0   10      0.60      0.00
   -4    0    9     -0.51      0.00
   -4    0    7      0.10      0.00
   -4    0    6     -0.26      0.00
   -4    0    5      0.74      0.00
   -4    0    4     -1.13      0.00
   -4    0    3      1.09      0.00
   -4    0    2     -1.23      0.00
   -4    0    1      1.83      0.00
    4    0    0     -1.88      0.00
    4    0    1      1.03      0.00
    4    0    2     -0.38      0.00
    4    0    3      0.40      0.00
    4    0    4     -0.17      0.00
    4    0    5     -0.56      0.00
    4    0    6      0.95      0.00
    4    0    7     -0.89      0.00
    4    0    8      0.97      0.00
    4    0    9     -1.08      0.00
    4    0   10      0.71      0.00
    4    0   11     -0.17      0.00
    4    0   12     -0.06      0.00
    4    0   13      0.21      0.00
    4    0   14     -0.50      0.00
    4    0   15      0.65      0.00
    4    0   16     -0.56      0.00
    4    0   17      0.49      0.00
    4    0   18     -0.47      0.00
    4    0   19      0.34      0.00
    4    0   20     -0.10      0.00
   -4   -1   18      0.08      0.00
   -4   -1   17     -0.21      0.00
   -4   -1   16      0.04      0.00
   -4   -1   15      0.10      0.00
   -4   -1   14      0.07      0.00
   -4   -1   13     -0.26      0.00
   -4   -1   12      0.34      0.00
   -4   -1   11     -0.49      0.00
   -4   -1   10      0.58      0.00
   -4   -1    9     -0.41      0.00
   -4   -1    7     -0.24      0.00
   -4   -1    6     -0.07      0.00
   -4   -1    5      0.56      0.00
   -4   -1    4     -0.70      0.00
   -4   -1    3      0.83      0.00
   -4   -1    2     -1.57      0.00
   -4   -1    1      2.17      0.00
    4    1    0     -1.67      0.00
    4    1    1      0.88      0.00
    4    1    2     -0.96      0.00
    4    1    3      1.20      0.00
    4    1    4     -0.56      0.00
    4    1    5     -0.36      0.00
    4    1    6      0.66      0.00
    4    1    7     -0.74      0.00
    4    1    8      1.02      0.00
    4    1    9     -1.02      0.00
    4    1   10      0.64      0.00
    4    1   11     -0.42      0.00
    4    1   12      0.37      0.00
    4    1   13     -0.07      0.00
    4    1   14     -0.36      0.00
    4    1   15      0.50      0.00
    4    1   16     -0.46      0.00
    4    1   17      0.48      0.00
    4    1   18     -0.47      0.00
    4    1   19      0.32      0.00
    4    1   20     -0.11      0.00
   -4   -2   18      0.24      0.00
   -4   -2   17     -0.07      0.00
   -4   -2   16     -0.21      0.00
   -4   -2   15      0.09      0.00
   -4   -2   14      0.23      0.00
   -4   -2   13     -0.31      0.00
   -4   -2   12      0.27      0.00
   -4   -2   11     -0.40      0.00
   -4   -2   10      0.50      0.00
   -4   -2    9     -0.48      0.00
   -4   -2    8      0.52      0.00
   -4   -2    7     -0.45      0.00
   -4   -2    6      0.10      0.00
   -4   -2    5      0.16      0.00
   -4   -2    4     -0.30      0.00
   -4   -2    3      0.90      0.00
   -4   -2    2     -1.74      0.00
   -4   -2    1      1.75      0.00
    4    2    0     -1.13      0.00
    4    2    1      1.21      0.00
    4    2    2     -1.83      0.00
    4    2    3      1.57      0.00
    4    2    4     -0.49      0.00
    4    2    5     -0.13      0.00
    4    2    6      0.19      0.00
    4    2    7     -0.49      0.00
    4    2    8      0.89      0.00
    4    2    9     -0.87      0.00
    4    2   10      0.71      0.00
    4    2   11     -0.78      0.00
    4    2   12      0.66      0.00
    4    2   13     -0.17      0.00
    4    2   14     -0.21      0.00
    4    2   15      0.26      0.00
    4    2   16     -0.28      0.00
    4    2   17      0.39      0.00
    4    2   18     -0.40      0.00
    4    2   19      0.29      0.00
    4    2   20     -0.12      0.00
   -4   -3   18      0.13      0.00
   -4   -3   17      0.20      0.00
   -4   -3   16     -0.18      0.00
   -4   -3   15     -0.20      0.00
   -4   -3   14      0.32      0.00
   -4   -3   13     -0.10      0.00
   -4   -3   12      0.11      0.00
   -4   -3   11     -0.38      0.00
   -4   -3   10      0.54      0.00
   -4   -3    9     -0.57      0.00
   -4   -3    8      0.64      0.00
   -4   -3    7     -0.57      0.00
   -4   -3    6      0.35      0.00
   -4   -3    5     -0.19      0.00
   -4   -3    4     -0.17      0.00
   -4   -3    3      0.87      0.00
   -4   -3    2     -1.25      0.00
   -4   -3    1      1.01      0.00
    4    3    0     -1.12      0.00
    4    3    1      1.88      0.00
    4    3    2     -2.08      0.00
    4    3    3      1.22      0.00
    4    3    4     -0.49      0.00
    4    3    5      0.48      0.00
    4    3    6     -0.29      0.00
    4    3    7     -0.36      0.00
    4    3    8      0.73      0.00
    4    3    9     -0.72      0.00
    4    3   10      0.86      0.00
    4    3   11     -1.03      0.00
    4    3   12      0.71      0.00
    4    3   13     -0.22      0.00
    4    3   14      0.06      0.00
    4    3   15     -0.07      0.00
    4    3   16     -0.09      0.00
    4    3   17      0.30      0.00
    4    3   18     -0.34      0.00
    4    3   19      0.25      0.00
    4    3   20     -0.09      0.00
    4    3   21     -0.03      0.00
   -4   -4   18     -0.13      0.00
   -4   -4   17      0.19      0.00
   -4   -4   16      0.16      0.00
   -4   -4   15     -0.35      0.00
   -4   -4   14      0.06      0.00
   -4   -4   13      0.14      0.00
   -4   -4   12      0.16      0.00
   -4   -4   11     -0.48      0.00
   -4   -4   10      0.50      0.00
   -4   -4    9     -0.55      0.00
   -4   -4    8      0.70      0.00
   -4   -4    7     -0.67      0.00
   -4   -4    6      0.53      0.00
   -4   -4    5     -0.38      0.00
   -4   -4    4      0.02      0.00
   -4   -4    3      0.42      0.00
   -4   -4    2     -0.57      0.00
   -4   -4    1      0.77      0.00
    4    4    0     -1.44      0.00
    4    4    1      1.92      0.00
    4    4    2     -1.51      0.00
    4    4    3      0.97      0.00
    4    4    4     -1.02      0.00
    4    4    5      1.01      0.00
    4    4    6     -0.34      0.00
    4    4    7     -0.30      0.00
    4    4    8      0.42      0.00
    4    4    9     -0.60      0.00
    4    4   10      1.01      0.00
    4    4   11     -1.03      0.00
    4    4   12      0.60      0.00
    4    4   13     -0.37      0.00
    4    4   14      0.43      0.00
    4    4   15     -0.32      0.00
    4    4   16     -0.01      0.00
    4    4   17      0.23      0.00
    4    4   18     -0.24      0.00
    4    4   19      0.13      0.00
    4    4   20      0.00      0.00
    4    4   21     -0.02      0.00
   -4   -5   16      0.33      0.00
   -4   -5   15     -0.09      0.00
   -4   -5   14     -0.24      0.00
   -4   -5   13      0.05      0.00
   -4   -5   12      0.35      0.00
   -4   -5   11     -0.41      0.00
   -4   -5   10      0.33      0.00
   -4   -5    9     -0.52      0.00
   -4   -5    8      0.71      0.00
   -4   -5    7     -0.68      0.00
   -4   -5    6      0.64      0.00
   -4   -5    5     -0.61      0.00
   -4   -5    4      0.38      0.00
   -4   -5    3     -0.04      0.00
   -4   -5    2     -0.28      0.00
   -4   -5    1      0.76      0.00
    4    5    0     -1.24      0.00
    4    5    1      1.27      0.00
    4    5    2     -1.11      0.00
    4    5    3      1.29      0.00
    4    5    4     -1.42      0.00
    4    5    5      0.91      0.00
    4    5    6     -0.25      0.00
    4    5    7      0.06      0.00
    4    5    8      0.10      0.00
    4    5    9     -0.66      0.00
    4    5   10      1.01      0.00
    4    5   11     -0.79      0.00
    4    5   12      0.57      0.00
    4    5   13     -0.70      0.00
    4    5   14      0.71      0.00
    4    5   15     -0.35      0.00
    4    5   16      0.00      0.00
    4    5   17      0.09      0.00
    4    5   18     -0.05      0.00
    4    5   19     -0.01      0.00
    4    5   20      0.01      0.00
    4    5   21      0.06      0.00
   -4   -6   17     -0.25      0.00
   -4   -6   16      0.11      0.00
   -4   -6   15      0.21      0.00
   -4   -6   14     -0.17      0.00
   -4   -6   13     -0.20      0.00
   -4   -6   12      0.31      0.00
   -4   -6   11     -0.13      0.00
   -4   -6   10      0.20      0.00
   -4   -6    9     -0.51      0.00
   -4   -6    8      0.64      0.00
   -4   -6    7     -0.66      0.00
   -4   -6    6      0.80      0.00
   -4   -6    5     -0.84      0.00
   -4   -6    4      0.56      0.00
   -4   -6    3     -0.21      0.00
   -4   -6    2     -0.06      0.00
   -4   -6    1      0.35      0.00
    4    6    0     -0.62      0.00
    4    6    1      0.86      0.00
    4    6    2     -1.21      0.00
    4    6    3      1.42      0.00
    4    6    4     -1.13      0.00
    4    6    5      0.67      0.00
    4    6    6     -0.57      0.00
    4    6    7      0.48      0.00
    4    6    8      0.11      0.00
    4    6    9     -0.70      0.00
    4    6   10      0.68      0.00
    4    6   11     -0.54      0.00
    4    6   12      0.78      0.00
    4    6   13     -0.97      0.00
    4    6   14      0.66      0.00
    4    6   15     -0.25      0.00
    4    6   16      0.14      0.00
    4    6   17     -0.16      0.00
    4    6   18      0.11      0.00
    4    6   19     -0.02      0.00
    4    6   21      0.09      0.00
   -4   -7   16     -0.14      0.00
   -4   -7   15      0.18      0.00
   -4   -7   14      0.07      0.00
   -4   -7   13     -0.19      0.00
   -4   -7   12      0.00      0.00
   -4   -7   11      0.07      0.00
   -4   -7   10      0.19      0.00
   -4   -7    9     -0.44      0.00
   -4   -7    8      0.52      0.00
   -4   -7    7     -0.68      0.00
   -4   -7    6      0.88      0.00
   -4   -7    5     -0.80      0.00
   -4   -7    4      0.56      0.00
   -4   -7    3     -0.46      0.00
   -4   -7    2      0.41      0.00
   -4   -7    1     -0.14      0.00
    4    7    0     -0.34      0.00
    4    7    1      0.81      0.00
    4    7    2     -1.05      0.00
    4    7    3      0.94      0.00
    4    7    4     -0.78      0.00
    4    7    5      0.89      0.00
    4    7    6     -0.93      0.00
    4    7    7      0.41      0.00
    4    7    8      0.24      0.00
    4    7    9     -0.34      0.00
    4    7   10      0.27      0.00
    4    7   11     -0.62      0.00
    4    7   12      1.01      0.00
    4    7   13     -0.82      0.00
    4    7   14      0.41      0.00
    4    7   15     -0.35      0.00
    4    7   16      0.43      0.00
    4    7   17     -0.30      0.00
    4    7   18      0.07      0.00
    4    7   19      0.04      0.00
    4    7   20     -0.06      0.00
   -4   -8   15     -0.01      0.00
   -4   -8   14      0.08      0.00
   -4   -8   13      0.07      0.00
   -4   -8   12     -0.23      0.00
   -4   -8   11      0.09      0.00
   -4   -8   10      0.17      0.00
   -4   -8    9     -0.29      0.00
   -4   -8    8      0.40      0.00
   -4   -8    7     -0.61      0.00
   -4   -8    6      0.71      0.00
   -4   -8    5     -0.67      0.00
   -4   -8    4      0.73      0.00
   -4   -8    3     -0.86      0.00
   -4   -8    2      0.71      0.00
   -4   -8    1     -0.23      0.00
    4    8    0     -0.24      0.00
    4    8    1      0.45      0.00
    4    8    2     -0.45      0.00
    4    8    3      0.56      0.00
    4    8    4     -0.91      0.00
    4    8    5      1.12      0.00
    4    8    6     -0.74      0.00
    4    8    7      0.17      0.00
    4    8    8     -0.08      0.00
    4    8    9      0.17      0.00
    4    8   10      0.25      0.00
    4    8   11     -0.83      0.00
    4    8   12      0.79      0.00
    4    8   13     -0.41      0.00
    4    8   14      0.42      0.00
    4    8   15     -0.67      0.00
    4    8   16      0.54      0.00
    4    8   17     -0.15      0.00
    4    8   18     -0.02      0.00
    4    8   19     -0.02      0.00
    4    8   20      0.05      0.00
   -4   -9   15      0.00      0.00
   -4   -9   14     -0.12      0.00
   -4   -9   13      0.26      0.00
   -4   -9   12     -0.24      0.00
   -4   -9   11      0.06      0.00
   -4   -9   10      0.05      0.00
   -4   -9    9     -0.09      0.00
   -4   -9    8      0.20      0.00
   -4   -9    7     -0.39      0.00
   -4   -9    6      0.55      0.00
   -4   -9    5     -0.74      0.00
   -4   -9    4      0.95      0.00
   -4   -9    3     -0.94      0.00
   -4   -9    2      0.64      0.00
   -4   -9    1     -0.31      0.00
    4    9    0      0.19      0.00
    4    9    1     -0.14      0.00
    4    9    2     -0.11      0.00
    4    9    3      0.62      0.00
    4    9    4     -0.97      0.00
    4    9    5      0.78      0.00
    4    9    6     -0.38      0.00
    4    9    7      0.40      0.00
    4    9    8     -0.60      0.00
    4    9    9      0.22      0.00
    4    9   10      0.47      0.00
    4    9   11     -0.59      0.00
    4    9   12      0.24      0.00
    4    9   13     -0.29      0.00
    4    9   14      0.74      0.00
    4    9   15     -0.75      0.00
    4    9   16      0.27      0.00
    4    9   17      0.00      0.00
    4    9   18      0.10      0.00
    4    9   19     -0.17      0.00
    4    9   20      0.09      0.00
   -4  -10   14     -0.22      0.00
   -4  -10   13      0.24      0.00
   -4  -10   12     -0.17      0.00
   -4  -10   11      0.13      0.00
   -4  -10   10     -0.16      0.00
   -4  -10    9      0.15      0.00
   -4  -10    8      0.00      0.00
   -4  -10    7     -0.26      0.00
   -4  -10    6      0.52      0.00
   -4  -10    5     -0.74      0.00
   -4  -10    4      0.81      0.00
   -4  -10    3     -0.74      0.00
   -4  -10    2      0.67      0.00
   -4  -10    1     -0.68      0.00
    4   10    0      0.64      0.00
    4   10    1     -0.36      0.00
    4   10    2     -0.14      0.00
    4   10    3      0.54      0.00
    4   10    4     -0.54      0.00
    4   10    5      0.34      0.00
    4   10    6     -0.49      0.00
    4   10    7      0.83      0.00
    4   10    8     -0.64      0.00
    4   10    9     -0.05      0.00
    4   10   10      0.30      0.00
    4   10   11      0.03      0.00
    4   10   12     -0.01      0.00
    4   10   13     -0.57      0.00
    4   10   14      0.81      0.00
    4   10   15     -0.38      0.00
    4   10   16      0.02      0.00
    4   10   17     -0.15      0.00
    4   10   18      0.31      0.00
    4   10   19     -0.18      0.00
   -4  -11   11      0.30      0.00
   -4  -11   10     -0.37      0.00
   -4  -11    9      0.28      0.00
   -4  -11    8     -0.05      0.00
   -4  -11    7     -0.20      0.00
   -4  -11    6      0.36      0.00
   -4  -11    5     -0.45      0.00
   -4  -11    4      0.56      0.00
   -4  -11    3     -0.75      0.00
   -4  -11    2      0.90      0.00
   -4  -11    1     -0.88      0.00
    4   11    0      0.68      0.00
    4   11    1     -0.35      0.00
    4   11    2      0.03      0.00
    4   11    3      0.10      0.00
    4   11    4     -0.10      0.00
    4   11    5      0.32      0.00
    4   11    6     -0.76      0.00
    4   11    7      0.82      0.00
    4   11    8     -0.30      0.00
    4   11    9     -0.01      0.00
    4   11   10     -0.28      0.00
    4   11   11      0.37      0.00
    4   11   12      0.21      0.00
    4   11   13     -0.68      0.00
    4   11   14      0.40      0.00
    4   11   15     -0.01      0.00
    4   11   16      0.14      0.00
    4   11   17     -0.40      0.00
    4   11   18      0.29      0.00
   -4  -12   11      0.41      0.00
   -4  -12   10     -0.40      0.00
   -4  -12    9      0.24      0.00
   -4  -12    8     -0.09      0.00
   -4  -12    7      0.04      0.00
   -4  -12    6      0.02      0.00
   -4  -12    5     -0.23      0.00
   -4  -12    3     -0.81      0.00
   -4  -12    2      0.83      0.00
   -4  -12    1     -0.74      0.00
    4   12    0      0.67      0.00
    4   12    1     -0.55      0.00
    4   12    2      0.36      0.00
    4   12    3     -0.20      0.00
    4   12    4     -0.01      0.00
    4   12    5      0.41      0.00
    4   12    6     -0.68      0.00
    4   12    7      0.47      0.00
    4   12    8     -0.20      0.00
    4   12    9      0.40      0.00
    4   12   10     -0.62      0.00
    4   12   11      0.21      0.00
    4   12   12      0.35      0.00
    4   12   13     -0.30      0.00
    4   12   14     -0.04      0.00
    4   12   15     -0.05      0.00
    4   12   16      0.38      0.00
    4   12   17     -0.37      0.00
   -4  -13    9      0.24      0.00
   -4  -13    8     -0.31      0.00
   -4  -13    7      0.33      0.00
   -4  -13    6     -0.11      0.00
   -4  -13    5     -0.27      0.00
   -4  -13    4      0.51      0.00
   -4  -13    3     -0.52      0.00
   -4  -13    2      0.54      0.00
   -4  -13    1     -0.72      0.00
    4   13    0      0.84      0.00
    4   13    1     -0.69      0.00
    4   13    2      0.44      0.00
    4   13    3     -0.30      0.00
    4   13    4      0.08      0.00
    4   13    5      0.26      0.00
    4   13    6     -0.39      0.00
    4   13    7      0.27      0.00
    4   13    8     -0.37      0.00
    4   13    9      0.65      0.00
    4   13   10     -0.53      0.00
    4   13   11      0.04      0.00
    4   13   12      0.10      0.00
    4   13   13      0.12      0.00
    4   13   14     -0.09      0.00
    4   13   15     -0.24      0.00
    4   13   16      0.34      0.00
   -4  -14    7      0.32      0.00
   -4  -14    6     -0.01      0.00
   -4  -14    5     -0.16      0.00
   -4  -14    4      0.12      0.00
   -4  -14    3     -0.18      0.00
   -4  -14    2      0.53      0.00
   -4  -14    1     -0.85      0.00
    4   14    0      0.78      0.00
    4   14    1     -0.50      0.00
    4   14    2      0.45      0.00
    4   14    3     -0.50      0.00
    4   14    4      0.25      0.00
    4   14    5      0.12      0.00
    4   14    6     -0.21      0.00
    4   14    7      0.21      0.00
    4   14    8     -0.44      0.00
    4   14    9      0.59      0.00
    4   14   10     -0.35      0.00
    4   14   11      0.13      0.00
    4   14   12     -0.20      0.00
    4   14   13      0.22      0.00
    4   14   14      0.04      0.00
   -4  -15    4     -0.17      0.00
   -4  -15    3     -0.22      0.00
   -4  -15    2      0.62      0.00
   -4  -15    1     -0.63      0.00
    4   15    0      0.38      0.00
    4   15    1     -0.40      0.00
    4   15    2      0.68      0.00
    4   15    3     -0.65      0.00
    4   15    4      0.21      0.00
    4   15    5      0.07      0.00
    4   15    6     -0.01      0.00
    4   15    7      0.09      0.00
    4   15    8     -0.38      0.00
    4   15    9      0.45      0.00
    4   15   10     -0.28      0.00
    4   15   13      0.16      0.00
   -4  -16    1     -0.15      0.00
    4   16    0      0.21      0.00
    4   16    1     -0.60      0.00
    4   16    6      0.24      0.00
    4   16    7      0.02      0.00
    4   16    8     -0.32      0.00
    4   16    9      0.30      0.00
    4   16   10     -0.20      0.00
   -5   12    5      0.12      0.00
   -5   12    4     -0.18      0.00
   -5   12    3      0.00      0.00
   -5   12    1     -0.15      0.00
   -5   12    0      0.37      0.00
    5  -12    1     -0.48      0.00
    5  -12    2      0.34      0.00
   -5   11    7     -0.22      0.00
   -5   11    6     -0.13      0.00
   -5   11    5      0.33      0.00
   -5   11    4     -0.13      0.00
   -5   11    3     -0.01      0.00
   -5   11    2     -0.04      0.00
   -5   11    1     -0.07      0.00
   -5   11    0      0.30      0.00
    5  -11    1     -0.32      0.00
    5  -11    2      0.28      0.00
    5  -11    3     -0.53      0.00
    5  -11    4      0.83      0.00
    5  -11    5     -0.75      0.00
    5  -11    6      0.44      0.00
    5  -11    7     -0.34      0.00
   -5   10   11     -0.04      0.00
   -5   10   10     -0.10      0.00
   -5   10    9     -0.10      0.00
   -5   10    8      0.26      0.00
   -5   10    7      0.02      0.00
   -5   10    6     -0.32      0.00
   -5   10    5      0.22      0.00
   -5   10    4     -0.06      0.00
   -5   10    3      0.19      0.00
   -5   10    2     -0.27      0.00
   -5   10    1      0.06      0.00
   -5   10    0      0.10      0.00
    5  -10    1     -0.08      0.00
    5  -10    2      0.26      0.00
    5  -10    3     -0.68      0.00
    5  -10    4      0.86      0.00
    5  -10    5     -0.69      0.00
    5  -10    6      0.58      0.00
    5  -10    7     -0.63      0.00
    5  -10    8      0.55      0.00
   -5    9   12      0.21      0.00
   -5    9   11     -0.07      0.00
   -5    9   10      0.09      0.00
   -5    9    9     -0.25      0.00
   -5    9    8      0.15      0.00
   -5    9    7      0.13      0.00
   -5    9    6     -0.16      0.00
   -5    9    5      0.06      0.00
   -5    9    4     -0.20      0.00
   -5    9    3      0.44      0.00
   -5    9    2     -0.41      0.00
   -5    9    1      0.24      0.00
   -5    9    0     -0.23      0.00
    5   -9    1      0.14      0.00
    5   -9    2      0.23      0.00
    5   -9    3     -0.58      0.00
    5   -9    4      0.64      0.00
    5   -9    5     -0.63      0.00
    5   -9    6      0.77      0.00
    5   -9    7     -0.86      0.00
    5   -9    8      0.73      0.00
    5   -9    9     -0.50      0.00
    5   -9   11      0.00      0.00
   -5    8   12      0.23      0.00
   -5    8   11     -0.07      0.00
   -5    8   10      0.15      0.00
   -5    8    9     -0.26      0.00
   -5    8    8      0.14      0.00
   -5    8    7     -0.02      0.00
   -5    8    6      0.03      0.00
   -5    8    5      0.09      0.00
   -5    8    4     -0.37      0.00
   -5    8    3      0.54      0.00
   -5    8    2     -0.52      0.00
   -5    8    1      0.52      0.00
   -5    8    0     -0.51      0.00
    5   -8    1      0.30      0.00
    5   -8    2      0.00      0.00
    5   -8    3     -0.20      0.00
    5   -8    4      0.37      0.00
    5   -8    5     -0.63      0.00
    5   -8    6      0.86      0.00
    5   -8    7     -0.92      0.00
    5   -8    8      0.84      0.00
    5   -8    9     -0.71      0.00
    5   -8   10      0.47      0.00
    5   -8   11     -0.11      0.00
    5   -8   12     -0.17      0.00
    5   -8   13      0.24      0.00
   -5    7   14      0.17      0.00
   -5    7   13     -0.31      0.00
   -5    7   12      0.06      0.00
   -5    7   11      0.01      0.00
   -5    7   10      0.24      0.00
   -5    7    9     -0.36      0.00
   -5    7    8      0.25      0.00
   -5    7    7     -0.16      0.00
   -5    7    6      0.11      0.00
   -5    7    5      0.10      0.00
   -5    7    4     -0.38      0.00
   -5    7    3      0.56      0.00
   -5    7    2     -0.66      0.00
   -5    7    1      0.71      0.00
   -5    7    0     -0.68      0.00
    5   -7    1      0.61      0.00
    5   -7    2     -0.48      0.00
    5   -7    3      0.17      0.00
    5   -7    4      0.23      0.00
    5   -7    5     -0.52      0.00
    5   -7    6      0.68      0.00
    5   -7    7     -0.83      0.00
    5   -7    8      0.95      0.00
    5   -7    9     -0.89      0.00
    5   -7   10      0.61      0.00
    5   -7   11     -0.31      0.00
    5   -7   12      0.12      0.00
    5   -7   13      0.03      0.00
    5   -7   14     -0.31      0.00
   -5    6   16     -0.40      0.00
   -5    6   15     -0.02      0.00
   -5    6   14      0.30      0.00
   -5    6   13     -0.05      0.00
   -5    6   12     -0.17      0.00
   -5    6   11     -0.09      0.00
   -5    6   10      0.41      0.00
   -5    6    9     -0.39      0.00
   -5    6    8      0.27      0.00
   -5    6    7     -0.27      0.00
   -5    6    6      0.23      0.00
   -5    6    5      0.01      0.00
   -5    6    4     -0.33      0.00
   -5    6    3      0.55      0.00
   -5    6    2     -0.64      0.00
   -5    6    1      0.73      0.00
   -5    6    0     -0.94      0.00
    5   -6    1      1.08      0.00
    5   -6    2     -0.82      0.00
    5   -6    3      0.31      0.00
    5   -6    4     -0.01      0.00
    5   -6    5     -0.07      0.00
    5   -6    6      0.35      0.00
    5   -6    7     -0.82      0.00
    5   -6    8      1.05      0.00
    5   -6    9     -0.91      0.00
    5   -6   10      0.69      0.00
    5   -6   11     -0.56      0.00
    5   -6   12      0.42      0.00
    5   -6   13     -0.14      0.00
    5   -6   14     -0.26      0.00
    5   -6   15      0.59      0.00
   -5    5   16     -0.11      0.00
   -5    5   15     -0.23      0.00
   -5    5   14      0.06      0.00
   -5    5   13      0.26      0.00
   -5    5   12     -0.10      0.00
   -5    5   11     -0.30      0.00
   -5    5   10      0.38      0.00
   -5    5    9     -0.27      0.00
   -5    5    8      0.35      0.00
   -5    5    7     -0.48      0.00
   -5    5    6      0.36      0.00
   -5    5    5     -0.03      0.00
   -5    5    4     -0.23      0.00
   -5    5    3      0.32      0.00
   -5    5    2     -0.44      0.00
   -5    5    1      0.83      0.00
   -5    5    0     -1.29      0.00
    5   -5    1      1.27      0.00
    5   -5    2     -0.79      0.00
    5   -5    3      0.51      0.00
    5   -5    4     -0.63      0.00
    5   -5    5      0.46      0.00
    5   -5    6      0.25      0.00
    5   -5    7     -0.84      0.00
    5   -5    8      0.87      0.00
    5   -5    9     -0.74      0.00
    5   -5   10      0.79      0.00
    5   -5   11     -0.84      0.00
    5   -5   12      0.66      0.00
    5   -5   13     -0.30      0.00
    5   -5   14     -0.12      0.00
    5   -5   15      0.40      0.00
    5   -5   16     -0.45      0.00
    5   -5   17      0.45      0.00
   -5    4   17      0.16      0.00
   -5    4   16      0.14      0.00
   -5    4   15     -0.08      0.00
   -5    4   14     -0.24      0.00
   -5    4   13      0.22      0.00
   -5    4   12      0.12      0.00
   -5    4   11     -0.25      0.00
   -5    4   10      0.17      0.00
   -5    4    9     -0.30      0.00
   -5    4    8      0.57      0.00
   -5    4    7     -0.58      0.00
   -5    4    6      0.34      0.00
   -5    4    5     -0.16      0.00
   -5    4    4      0.13      0.00
   -5    4    3     -0.04      0.00
   -5    4    2     -0.37      0.00
   -5    4    1      1.01      0.00
   -5    4    0     -1.29      0.00
    5   -4    1      1.01      0.00
    5   -4    2     -0.78      0.00
    5   -4    3      1.09      0.00
    5   -4    4     -1.24      0.00
    5   -4    5      0.56      0.00
    5   -4    6      0.29      0.00
    5   -4    7     -0.50      0.00
    5   -4    8      0.39      0.00
    5   -4    9     -0.63      0.00
    5   -4   10      1.00      0.00
    5   -4   11     -1.04      0.00
    5   -4   12      0.78      0.00
    5   -4   13     -0.44      0.00
    5   -4   14      0.08      0.00
    5   -4   15      0.16      0.00
    5   -4   16     -0.25      0.00
    5   -4   17      0.39      0.00
   -5    3   17     -0.05      0.00
   -5    3   16      0.09      0.00
   -5    3   15      0.14      0.00
   -5    3   14     -0.23      0.00
   -5    3   13      0.03      0.00
   -5    3   12      0.07      0.00
   -5    3   11     -0.01      0.00
   -5    3   10      0.17      0.00
   -5    3    9     -0.51      0.00
   -5    3    8      0.60      0.00
   -5    3    7     -0.44      0.00
   -5    3    6      0.41      0.00
   -5    3    5     -0.55      0.00
   -5    3    4      0.54      0.00
   -5    3    3     -0.21      0.00
   -5    3    2     -0.38      0.00
   -5    3    1      0.84      0.00
   -5    3    0     -0.84      0.00
    5   -3    1      0.72      0.00
    5   -3    2     -1.11      0.00
    5   -3    3      1.59      0.00
    5   -3    4     -1.27      0.00
    5   -3    5      0.40      0.00
    5   -3    6     -0.04      0.00
    5   -3    7      0.19      0.00
    5   -3    8      0.08      0.00
    5   -3    9     -0.76      0.00
    5   -3   10      1.10      0.00
    5   -3   11     -0.99      0.00
    5   -3   12      0.81      0.00
    5   -3   13     -0.60      0.00
    5   -3   14      0.32      0.00
    5   -3   15     -0.12      0.00
    5   -3   16     -0.01      0.00
    5   -3   17      0.29      0.00
   -5    2   18     -0.01      0.00
   -5    2   17     -0.08      0.00
   -5    2   16     -0.01      0.00
   -5    2   15      0.15      0.00
   -5    2   14     -0.11      0.00
   -5    2   13      0.06      0.00
   -5    2   12     -0.12      0.00
   -5    2   11     -0.02      0.00
   -5    2   10      0.35      0.00
   -5    2    9     -0.47      0.00
   -5    2    8      0.34      0.00
   -5    2    7     -0.43      0.00
   -5    2    6      0.77      0.00
   -5    2    5     -0.90      0.00
   -5    2    4      0.67      0.00
   -5    2    3     -0.29      0.00
   -5    2    2     -0.10      0.00
   -5    2    1      0.31      0.00
   -5    2    0     -0.37      0.00
    5   -2    1      0.70      0.00
    5   -2    2     -1.35      0.00
    5   -2    3      1.52      0.00
    5   -2    4     -0.95      0.00
    5   -2    5      0.55      0.00
    5   -2    6     -0.73      0.00
    5   -2    7      0.62      0.00
    5   -2    8      0.15      0.00
    5   -2    9     -0.79      0.00
    5   -2   10      0.84      0.00
    5   -2   11     -0.80      0.00
    5   -2   12      0.88      0.00
    5   -2   13     -0.78      0.00
    5   -2   14      0.55      0.00
    5   -2   15     -0.41      0.00
    5   -2   16      0.19      0.00
    5   -2   17      0.21      0.00
    5   -2   18     -0.49      0.00
    5   -2   19      0.47      0.00
   -5    1   18      0.03      0.00
   -5    1   17     -0.07      0.00
   -5    1   16     -0.04      0.00
   -5    1   15      0.13      0.00
   -5    1   14     -0.14      0.00
   -5    1   13      0.17      0.00
   -5    1   12     -0.09      0.00
   -5    1   11     -0.17      0.00
   -5    1   10      0.27      0.00
   -5    1    9     -0.13      0.00
   -5    1    8      0.24      0.00
   -5    1    7     -0.73      0.00
   -5    1    6      1.02      0.00
   -5    1    5     -0.89      0.00
   -5    1    4      0.72      0.00
   -5    1    3     -0.60      0.00
   -5    1    2      0.38      0.00
   -5    1    1     -0.16      0.00
   -5    1    0     -0.08      0.00
    5   -1    1      0.61      0.00
    5   -1    2     -1.14      0.00
    5   -1    3      1.11      0.00
    5   -1    4     -0.84      0.00
    5   -1    5      0.98      0.00
    5   -1    6     -1.12      0.00
    5   -1    7      0.57      0.00
    5   -1    8      0.18      0.00
    5   -1    9     -0.41      0.00
    5   -1   10      0.43      0.00
    5   -1   11     -0.74      0.00
    5   -1   12      0.98      0.00
    5   -1   13     -0.86      0.00
    5   -1   14      0.71      0.00
    5   -1   15     -0.63      0.00
    5   -1   16      0.31      0.00
    5   -1   17      0.13      0.00
    5   -1   18     -0.31      0.00
    5   -1   19      0.28      0.00
   -5    0   18      0.07      0.00
   -5    0   17     -0.02      0.00
   -5    0   16     -0.14      0.00
   -5    0   15      0.18      0.00
   -5    0   14     -0.15      0.00
   -5    0   13      0.10      0.00
   -5    0   12      0.01      0.00
   -5    0   11     -0.06      0.00
   -5    0   10     -0.06      0.00
   -5    0    9      0.01      0.00
   -5    0    8      0.47      0.00
   -5    0    7     -0.89      0.00
   -5    0    6      0.86      0.00
   -5    0    5     -0.81      0.00
   -5    0    4      0.98      0.00
   -5    0    3     -0.97      0.00
   -5    0    2      0.70      0.00
   -5    0    1     -0.53      0.00
    5    0    0      0.28      0.00
    5    0    1      0.30      0.00
    5    0    2     -0.77      0.00
    5    0    3      0.79      0.00
    5    0    4     -0.87      0.00
    5    0    5      1.17      0.00
    5    0    6     -1.06      0.00
    5    0    7      0.48      0.00
    5    0    8     -0.16      0.00
    5    0    9      0.11      0.00
    5    0   10      0.25      0.00
    5    0   11     -0.78      0.00
    5    0   12      0.91      0.00
    5    0   13     -0.80      0.00
    5    0   14      0.83      0.00
    5    0   15     -0.75      0.00
    5    0   16      0.37      0.00
    5    0   17     -0.03      0.00
    5    0   18     -0.04      0.00
    5    0   19      0.10      0.00
    5    0   20     -0.26      0.00
   -5   -1   18      0.03      0.00
   -5   -1   17      0.16      0.00
   -5   -1   16     -0.23      0.00
   -5   -1   15      0.11      0.00
   -5   -1   14     -0.06      0.00
   -5   -1   13      0.10      0.00
   -5   -1   12     -0.13      0.00
   -5   -1   11      0.19      0.00
   -5   -1   10     -0.19      0.00
   -5   -1    9     -0.14      0.00
   -5   -1    8      0.56      0.00
   -5   -1    7     -0.64      0.00
   -5   -1    6      0.63      0.00
   -5   -1    5     -0.94      0.00
   -5   -1    4      1.22      0.00
   -5   -1    3     -1.08      0.00
   -5   -1    2      0.94      0.00
   -5   -1    1     -0.99      0.00
    5    1    0      0.65      0.00
    5    1    1      0.05      0.00
    5    1    2     -0.41      0.00
    5    1    3      0.44      0.00
    5    1    4     -0.74      0.00
    5    1    5      1.09      0.00
    5    1    6     -0.94      0.00
    5    1    7      0.64      0.00
    5    1    8     -0.58      0.00
    5    1    9      0.35      0.00
    5    1   10      0.24      0.00
    5    1   11     -0.63      0.00
    5    1   12      0.64      0.00
    5    1   13     -0.72      0.00
    5    1   14      0.90      0.00
    5    1   15     -0.77      0.00
    5    1   16      0.42      0.00
    5    1   17     -0.25      0.00
    5    1   18      0.18      0.00
    5    1   19      0.02      0.00
    5    1   20     -0.24      0.00
   -5   -2   18     -0.17      0.00
   -5   -2   17      0.29      0.00
   -5   -2   16     -0.12      0.00
   -5   -2   15      0.00      0.00
   -5   -2   14     -0.15      0.00
   -5   -2   13      0.30      0.00
   -5   -2   12     -0.29      0.00
   -5   -2   11      0.25      0.00
   -5   -2   10     -0.12      0.00
   -5   -2    9     -0.15      0.00
   -5   -2    8      0.30      0.00
   -5   -2    7     -0.33      0.00
   -5   -2    6      0.62      0.00
   -5   -2    5     -1.06      0.00
   -5   -2    4      1.15      0.00
   -5   -2    3     -1.10      0.00
   -5   -2    2      1.30      0.00
   -5   -2    1     -1.32      0.00
    5    2    0      0.73      0.00
    5    2    1     -0.19      0.00
    5    2    2      0.14      0.00
    5    2    3      0.03      0.00
    5    2    4     -0.63      0.00
    5    2    5      0.98      0.00
    5    2    6     -0.86      0.00
    5    2    7      0.81      0.00
    5    2    8     -0.80      0.00
    5    2    9      0.41      0.00
    5    2   10      0.10      0.00
    5    2   11     -0.27      0.00
    5    2   12      0.36      0.00
    5    2   13     -0.68      0.00
    5    2   14      0.87      0.00
    5    2   15     -0.70      0.00
    5    2   16      0.50      0.00
    5    2   17     -0.43      0.00
    5    2   18      0.26      0.00
    5    2   19      0.00      0.00
    5    2   20     -0.17      0.00
   -5   -3   17      0.17      0.00
   -5   -3   16      0.02      0.00
   -5   -3   15      0.16      0.00
   -5   -3   14     -0.43      0.00
   -5   -3   13      0.38      0.00
   -5   -3   12     -0.23      0.00
   -5   -3   11      0.23      0.00
   -5   -3   10     -0.21      0.00
   -5   -3    9      0.07      0.00
   -5   -3    8      0.03      0.00
   -5   -3    7     -0.20      0.00
   -5   -3    6      0.60      0.00
   -5   -3    5     -0.90      0.00
   -5   -3    4      0.99      0.00
   -5   -3    3     -1.22      0.00
   -5   -3    2      1.49      0.00
   -5   -3    1     -1.26      0.00
    5    3    0      0.78      0.00
    5    3    1     -0.71      0.00
    5    3    2      0.69      0.00
    5    3    3     -0.09      0.00
    5    3    4     -0.60      0.00
    5    3    5      0.73      0.00
    5    3    6     -0.70      0.00
    5    3    7      0.91      0.00
    5    3    8     -0.90      0.00
    5    3    9      0.48      0.00
    5    3   10     -0.19      0.00
    5    3   11      0.12      0.00
    5    3   12      0.19      0.00
    5    3   13     -0.61      0.00
    5    3   14      0.71      0.00
    5    3   15     -0.59      0.00
    5    3   16      0.55      0.00
    5    3   17     -0.49      0.00
    5    3   18      0.28      0.00
    5    3   19     -0.07      0.00
    5    3   20     -0.05      0.00
   -5   -4   17     -0.01      0.00
   -5   -4   16     -0.13      0.00
   -5   -4   15      0.47      0.00
   -5   -4   14     -0.46      0.00
   -5   -4   13      0.20      0.00
   -5   -4   12     -0.22      0.00
   -5   -4   11      0.43      0.00
   -5   -4   10     -0.40      0.00
   -5   -4    9      0.23      0.00
   -5   -4    8     -0.12      0.00
   -5   -4    7     -0.09      0.00
   -5   -4    6      0.42      0.00
   -5   -4    5     -0.65      0.00
   -5   -4    4      0.87      0.00
   -5   -4    3     -1.21      0.00
   -5   -4    2      1.33      0.00
   -5   -4    1     -1.14      0.00
    5    4    0      1.10      0.00
    5    4    1     -1.18      0.00
    5    4    2      0.77      0.00
    5    4    3     -0.03      0.00
    5    4    4     -0.29      0.00
    5    4    5      0.31      0.00
    5    4    6     -0.66      0.00
    5    4    7      1.03      0.00
    5    4    8     -0.89      0.00
    5    4    9      0.57      0.00
    5    4   10     -0.53      0.00
    5    4   11      0.39      0.00
    5    4   12      0.08      0.00
    5    4   13     -0.44      0.00
    5    4   14      0.46      0.00
    5    4   15     -0.46      0.00
    5    4   16      0.54      0.00
    5    4   17     -0.47      0.00
    5    4   18      0.30      0.00
    5    4   19     -0.16      0.00
    5    4   20      0.00      0.00
    5    4   21      0.16      0.00
   -5   -5   17      0.08      0.00
   -5   -5   16     -0.41      0.00
   -5   -5   15      0.49      0.00
   -5   -5   14     -0.20      0.00
   -5   -5   13      0.15      0.00
   -5   -5   12     -0.47      0.00
   -5   -5   11      0.61      0.00
   -5   -5   10     -0.41      0.00
   -5   -5    9      0.30      0.00
   -5   -5    8     -0.30      0.00
   -5   -5    7      0.10      0.00
   -5   -5    6      0.20      0.00
   -5   -5    5     -0.40      0.00
   -5   -5    4      0.65      0.00
   -5   -5    3     -0.97      0.00
   -5   -5    2      1.12      0.00
   -5   -5    1     -1.20      0.00
    5    5    0      1.31      0.00
    5    5    1     -1.14      0.00
    5    5    2      0.62      0.00
    5    5    3     -0.31      0.00
    5    5    4      0.23      0.00
    5    5    5      0.17      0.00
    5    5    6     -0.80      0.00
    5    5    7      0.95      0.00
    5    5    8     -0.72      0.00
    5    5    9      0.75      0.00
    5    5   10     -0.85      0.00
    5    5   11      0.51      0.00
    5    5   12     -0.02      0.00
    5    5   13     -0.14      0.00
    5    5   14      0.18      0.00
    5    5   15     -0.37      0.00
    5    5   16      0.50      0.00
    5    5   17     -0.43      0.00
    5    5   18      0.31      0.00
    5    5   19     -0.18      0.00
    5    5   20     -0.01      0.00
   -5   -6   16     -0.41      0.00
   -5   -6   15      0.20      0.00
   -5   -6   14     -0.09      0.00
   -5   -6   13      0.38      0.00
   -5   -6   12     -0.64      0.00
   -5   -6   11      0.51      0.00
   -5   -6   10     -0.36      0.00
   -5   -6    9      0.46      0.00
   -5   -6    8     -0.48      0.00
   -5   -6    7      0.24      0.00
   -5   -6    6     -0.06      0.00
   -5   -6    5     -0.07      0.00
   -5   -6    4      0.38      0.00
   -5   -6    3     -0.76      0.00
   -5   -6    2      0.99      0.00
   -5   -6    1     -1.10      0.00
    5    6    0      1.10      0.00
    5    6    1     -0.94      0.00
    5    6    2      0.81      0.00
    5    6    3     -0.75      0.00
    5    6    4      0.35      0.00
    5    6    5      0.34      0.00
    5    6    6     -0.67      0.00
    5    6    7      0.56      0.00
    5    6    8     -0.69      0.00
    5    6    9      1.04      0.00
    5    6   10     -0.96      0.00
    5    6   11      0.48      0.00
    5    6   12     -0.25      0.00
    5    6   13      0.24      0.00
    5    6   14      0.00      0.00
    5    6   15     -0.34      0.00
    5    6   16      0.41      0.00
    5    6   17     -0.32      0.00
    5    6   18      0.26      0.00
    5    6   19     -0.16      0.00
    5    6   20      0.02      0.00
    5    6   21      0.02      0.00
   -5   -7   16     -0.16      0.00
   -5   -7   15      0.05      0.00
   -5   -7   14     -0.25      0.00
   -5   -7   13      0.52      0.00
   -5   -7   12     -0.47      0.00
   -5   -7   11      0.32      0.00
   -5   -7   10     -0.44      0.00
   -5   -7    9      0.62      0.00
   -5   -7    8     -0.54      0.00
   -5   -7    7      0.40      0.00
   -5   -7    6     -0.38      0.00
   -5   -7    5      0.19      0.00
   -5   -7    4      0.23      0.00
   -5   -7    3     -0.55      0.00
   -5   -7    2      0.64      0.00
   -5   -7    1     -0.72      0.00
    5    7    0      0.88      0.00
    5    7    1     -1.04      0.00
    5    7    2      1.06      0.00
    5    7    3     -0.73      0.00
    5    7    4      0.14      0.00
    5    7    5      0.18      0.00
    5    7    6     -0.15      0.00
    5    7    7      0.36      0.00
    5    7    8     -0.92      0.00
    5    7    9      1.10      0.00
    5    7   10     -0.74      0.00
    5    7   11      0.53      0.00
    5    7   12     -0.63      0.00
    5    7   13      0.46      0.00
    5    7   14      0.03      0.00
    5    7   15     -0.26      0.00
    5    7   16      0.17      0.00
    5    7   17     -0.16      0.00
    5    7   18      0.25      0.00
    5    7   19     -0.20      0.00
    5    7   20      0.09      0.00
   -5   -8   15      0.13      0.00
   -5   -8   14     -0.32      0.00
   -5   -8   13      0.33      0.00
   -5   -8   12     -0.22      0.00
   -5   -8   11      0.31      0.00
   -5   -8   10     -0.54      0.00
   -5   -8    9      0.60      0.00
   -5   -8    8     -0.55      0.00
   -5   -8    7      0.59      0.00
   -5   -8    6     -0.56      0.00
   -5   -8    5      0.27      0.00
   -5   -8    4      0.02      0.00
   -5   -8    3     -0.08      0.00
   -5   -8    2      0.17      0.00
   -5   -8    1     -0.50      0.00
    5    8    0      0.90      0.00
    5    8    1     -1.04      0.00
    5    8    2      0.82      0.00
    5    8    3     -0.44      0.00
    5    8    4      0.28      0.00
    5    8    5     -0.36      0.00
    5    8    6      0.12      0.00
    5    8    7      0.56      0.00
    5    8    8     -0.93      0.00
    5    8    9      0.70      0.00
    5    8   10     -0.56      0.00
    5    8   11      0.84      0.00
    5    8   12     -0.86      0.00
    5    8   13      0.33      0.00
    5    8   14      0.04      0.00
    5    8   15      0.05      0.00
    5    8   16     -0.09      0.00
    5    8   17     -0.16      0.00
    5    8   18      0.32      0.00
    5    8   19     -0.21      0.00
    5    8   20      0.07      0.00
   -5   -9   13      0.08      0.00
   -5   -9   12     -0.15      0.00
   -5   -9   11      0.34      0.00
   -5   -9   10     -0.46      0.00
   -5   -9    9      0.49      0.00
   -5   -9    8     -0.57      0.00
   -5   -9    7      0.65      0.00
   -5   -9    6     -0.54      0.00
   -5   -9    5      0.39      0.00
   -5   -9    4     -0.41      0.00
   -5   -9    3      0.36      0.00
   -5   -9    2      0.00      0.00
   -5   -9    1     -0.49      0.00
    5    9    0      0.71      0.00
    5    9    1     -0.61      0.00
    5    9    2      0.46      0.00
    5    9    3     -0.53      0.00
    5    9    4      0.74      0.00
    5    9    5     -0.57      0.00
    5    9    6     -0.09      0.00
    5    9    7      0.55      0.00
    5    9    8     -0.41      0.00
    5    9    9      0.31      0.00
    5    9   10     -0.75      0.00
    5    9   11      1.04      0.00
    5    9   12     -0.61      0.00
    5    9   13      0.14      0.00
    5    9   14     -0.24      0.00
    5    9   15      0.41      0.00
    5    9   16     -0.08      0.00
    5    9   17     -0.31      0.00
    5    9   18      0.29      0.00
    5    9   19     -0.08      0.00
   -5  -10   12     -0.13      0.00
   -5  -10   11      0.22      0.00
   -5  -10   10     -0.27      0.00
   -5  -10    9      0.38      0.00
   -5  -10    8     -0.51      0.00
   -5  -10    7      0.56      0.00
   -5  -10    6     -0.56      0.00
   -5  -10    5      0.66      0.00
   -5  -10    4     -0.70      0.00
   -5  -10    3      0.43      0.00
   -5  -10    2     -0.01      0.00
   -5  -10    1     -0.20      0.00
    5   10    0      0.19      0.00
    5   10    1     -0.23      0.00
    5   10    2      0.49      0.00
    5   10    3     -0.82      0.00
    5   10    4      0.81      0.00
    5   10    5     -0.31      0.00
    5   10    6     -0.11      0.00
    5   10    7      0.00      0.00
    5   10    8      0.12      0.00
    5   10    9      0.37      0.00
    5   10   10     -0.92      0.00
    5   10   11      0.70      0.00
    5   10   12     -0.20      0.00
    5   10   13      0.30      0.00
    5   10   14     -0.64      0.00
    5   10   15      0.40      0.00
    5   10   16      0.16      0.00
    5   10   17     -0.30      0.00
    5   10   18      0.06      0.00
    5   10   19      0.04      0.00
   -5  -11   12     -0.01      0.00
   -5  -11   11      0.02      0.00
   -5  -11   10     -0.10      0.00
   -5  -11    9      0.25      0.00
   -5  -11    8     -0.38      0.00
   -5  -11    7      0.48      0.00
   -5  -11    6     -0.64      0.00
   -5  -11    5      0.76      0.00
   -5  -11    4     -0.64      0.00
   -5  -11    3      0.41      0.00
   -5  -11    2     -0.29      0.00
   -5  -11    1      0.28      0.00
    5   11    0     -0.14      0.00
    5   11    1     -0.21      0.00
    5   11    2      0.59      0.00
    5   11    3     -0.73      0.00
    5   11    4      0.49      0.00
    5   11    5     -0.21      0.00
    5   11    6      0.33      0.00
    5   11    7     -0.53      0.00
    5   11    8      0.14      0.00
    5   11    9      0.52      0.00
    5   11   10     -0.56      0.00
    5   11   11      0.12      0.00
    5   11   12     -0.17      0.00
    5   11   13      0.65      0.00
    5   11   14     -0.64      0.00
    5   11   15      0.07      0.00
    5   11   16      0.22      0.00
    5   11   17     -0.01      0.00
    5   11   18     -0.13      0.00
   -5  -12   11     -0.14      0.00
   -5  -12   10      0.02      0.00
   -5  -12    9      0.12      0.00
   -5  -12    8     -0.25      0.00
   -5  -12    7      0.41      0.00
   -5  -12    6     -0.55      0.00
   -5  -12    5      0.59      0.00
   -5  -12    4     -0.57      0.00
   -5  -12    3      0.60      0.00
   -5  -12    2     -0.61      0.00
   -5  -12    1      0.46      0.00
    5   12    0     -0.16      0.00
    5   12    1     -0.15      0.00
    5   12    2      0.37      0.00
    5   12    3     -0.40      0.00
    5   12    4      0.33      0.00
    5   12    5     -0.46      0.00
    5   12    6      0.72      0.00
    5   12    7     -0.57      0.00
    5   12    8     -0.01      0.00
    5   12    9      0.24      0.00
    5   12   10      0.07      0.00
    5   12   11     -0.10      0.00
    5   12   12     -0.41      0.00
    5   12   13      0.65      0.00
    5   12   14     -0.24      0.00
    5   12   15     -0.11      0.00
    5   12   16     -0.05      0.00
   -5  -13    9      0.02      0.00
   -5  -13    8     -0.10      0.00
   -5  -13    7      0.20      0.00
   -5  -13    6     -0.34      0.00
   -5  -13    5      0.49      0.00
   -5  -13    4     -0.64      0.00
   -5  -13    3      0.69      0.00
   -5  -13    2     -0.58      0.00
   -5  -13    1      0.43      0.00
    5   13    0     -0.30      0.00
    5   13    1      0.11      0.00
    5   13    2      0.12      0.00
    5   13    3     -0.25      0.00
    5   13    4      0.36      0.00
    5   13    5     -0.61      0.00
    5   13    6      0.72      0.00
    5   13    7     -0.42      0.00
    5   13    8      0.13      0.00
    5   13    9     -0.27      0.00
    5   13   10      0.39      0.00
    5   13   11      0.01      0.00
    5   13   12     -0.42      0.00
    5   13   13      0.26      0.00
    5   13   14      0.04      0.00
    5   13   15      0.05      0.00
   -5  -14    7      0.02      0.00
   -5  -14    6     -0.26      0.00
   -5  -14    5      0.47      0.00
   -5  -14    4     -0.52      0.00
   -5  -14    3      0.48      0.00
   -5  -14    2     -0.49      0.00
   -5  -14    1      0.58      0.00
    5   14    0     -0.51      0.00
    5   14    1      0.20      0.00
    5   14    2      0.06      0.00
    5   14    3     -0.12      0.00
    5   14    4      0.26      0.00
    5   14    5     -0.56      0.00
    5   14    6      0.61      0.00
    5   14    7     -0.40      0.00
    5   14    8      0.39      0.00
    5   14    9     -0.55      0.00
    5   14   10      0.38      0.00
    5   14   11      0.03      0.00
    5   14   12     -0.12      0.00
    5   14   13     -0.06      0.00
    5   14   14      0.01      0.00
   -5  -15    5      0.24      0.00
   -5  -15    4     -0.21      0.00
   -5  -15    3      0.34      0.00
   -5  -15    2     -0.60      0.00
   -5  -15    1      0.67      0.00
    5   15    0     -0.40      0.00
    5   15    1      0.11      0.00
    5   15    2     -0.12      0.00
    5   15    3      0.14      0.00
    5   15    4      0.17      0.00
    5   15    5     -0.52      0.00
    5   15    6      0.50      0.00
    5   15    7     -0.38      0.00
    5   15    8      0.51      0.00
    5   15    9     -0.58      0.00
    5   15   10      0.34      0.00
    5   15   11     -0.11      0.00
    5   15   12      0.14      0.00
    5   15   13     -0.13      0.00
    5   16    0     -0.17      0.00
    5   16    7     -0.30      0.00
   -6   11    6     -0.28      0.00
   -6   11    5      0.00      0.00
   -6   11    4     -0.04      0.00
   -6   11    3      0.27      0.00
   -6   11    1      0.37      0.00
   -6   11    0     -0.54      0.00
    6  -11    1      0.57      0.00
    6  -11    2     -0.38      0.00
   -6   10    9      0.02      0.00
   -6   10    7      0.31      0.00
   -6   10    6      0.01      0.00
   -6   10    5     -0.09      0.00
   -6   10    4     -0.16      0.00
   -6   10    3      0.26      0.00
   -6   10    2     -0.22      0.00
   -6   10    1      0.36      0.00
   -6   10    0     -0.55      0.00
    6  -10    1      0.52      0.00
    6  -10    2     -0.46      0.00
    6  -10    3      0.66      0.00
    6  -10    4     -0.80      0.00
    6  -10    5      0.57      0.00
    6  -10    6     -0.23      0.00
    6  -10    7      0.12      0.00
   -6    9   11      0.21      0.00
   -6    9    9      0.23      0.00
   -6    9    8     -0.32      0.00
   -6    9    7      0.08      0.00
   -6    9    6      0.11      0.00
   -6    9    5      0.02      0.00
   -6    9    4     -0.14      0.00
   -6    9    3      0.05      0.00
   -6    9    2     -0.08      0.00
   -6    9    1      0.31      0.00
   -6    9    0     -0.42      0.00
    6   -9    1      0.41      0.00
    6   -9    2     -0.59      0.00
    6   -9    3      0.88      0.00
    6   -9    4     -0.87      0.00
    6   -9    5      0.60      0.00
    6   -9    6     -0.44      0.00
    6   -9    7      0.38      0.00
    6   -9    8     -0.20      0.00
    6   -9    9     -0.06      0.00
    6   -9   10      0.20      0.00
   -6    8   12     -0.40      0.00
   -6    8   11      0.21      0.00
   -6    8   10     -0.16      0.00
   -6    8    9      0.28      0.00
   -6    8    8     -0.22      0.00
   -6    8    7      0.01      0.00
   -6    8    6      0.03      0.00
   -6    8    5      0.01      0.00
   -6    8    4      0.08      0.00
   -6    8    3     -0.15      0.00
   -6    8    2      0.03      0.00
   -6    8    1      0.11      0.00
   -6    8    0     -0.16      0.00
    6   -8    1      0.34      0.00
    6   -8    2     -0.68      0.00
    6   -8    3      0.86      0.00
    6   -8    4     -0.78      0.00
    6   -8    5      0.70      0.00
    6   -8    6     -0.70      0.00
    6   -8    7      0.61      0.00
    6   -8    8     -0.37      0.00
    6   -8    9      0.12      0.00
    6   -8   10      0.12      0.00
    6   -8   12      0.64      0.00
   -6    7   12     -0.34      0.00
   -6    7   10     -0.20      0.00
   -6    7    9      0.32      0.00
   -6    7    8     -0.22      0.00
   -6    7    7      0.04      0.00
   -6    7    6      0.04      0.00
   -6    7    5     -0.12      0.00
   -6    7    4      0.24      0.00
   -6    7    3     -0.28      0.00
   -6    7    2      0.26      0.00
   -6    7    1     -0.20      0.00
   -6    7    0      0.02      0.00
    6   -7    1      0.28      0.00
    6   -7    2     -0.50      0.00
    6   -7    3      0.60      0.00
    6   -7    4     -0.72      0.00
    6   -7    5      0.86      0.00
    6   -7    6     -0.88      0.00
    6   -7    7      0.76      0.00
    6   -7    8     -0.56      0.00
    6   -7    9      0.30      0.00
    6   -7   10      0.05      0.00
    6   -7   11     -0.37      0.00
    6   -7   12      0.50      0.00
    6   -7   13     -0.47      0.00
   -6    6   13      0.43      0.00
   -6    6   12     -0.12      0.00
   -6    6   10     -0.34      0.00
   -6    6    9      0.40      0.00
   -6    6    8     -0.19      0.00
   -6    6    7      0.01      0.00
   -6    6    6      0.07      0.00
   -6    6    5     -0.17      0.00
   -6    6    4      0.34      0.00
   -6    6    3     -0.50      0.00
   -6    6    2      0.54      0.00
   -6    6    1     -0.38      0.00
   -6    6    0      0.17      0.00
    6   -6    1     -0.06      0.00
    6   -6    2     -0.08      0.00
    6   -6    3      0.41      0.00
    6   -6    4     -0.76      0.00
    6   -6    5      0.87      0.00
    6   -6    6     -0.85      0.00
    6   -6    7      0.85      0.00
    6   -6    8     -0.75      0.00
    6   -6    9      0.45      0.00
    6   -6   10     -0.09      0.00
    6   -6   11     -0.15      0.00
    6   -6   12      0.31      0.00
    6   -6   13     -0.49      0.00
    6   -6   14      0.70      0.00
   -6    5   14     -0.45      0.00
   -6    5   13      0.15      0.00
   -6    5   12     -0.02      0.00
   -6    5   11      0.29      0.00
   -6    5   10     -0.47      0.00
   -6    5    9      0.33      0.00
   -6    5    8     -0.12      0.00
   -6    5    7      0.07      0.00
   -6    5    6     -0.01      0.00
   -6    5    5     -0.22      0.00
   -6    5    4      0.52      0.00
   -6    5    3     -0.68      0.00
   -6    5    2      0.59      0.00
   -6    5    1     -0.48      0.00
   -6    5    0      0.56      0.00
    6   -5    1     -0.57      0.00
    6   -5    2      0.16      0.00
    6   -5    3      0.39      0.00
    6   -5    4     -0.59      0.00
    6   -5    5      0.58      0.00
    6   -5    6     -0.78      0.00
    6   -5    7      1.02      0.00
    6   -5    8     -0.90      0.00
    6   -5    9      0.57      0.00
    6   -5   10     -0.32      0.00
    6   -5   11      0.11      0.00
    6   -5   12      0.19      0.00
    6   -5   13     -0.50      0.00
    6   -5   14      0.71      0.00
    6   -5   15     -0.79      0.00
   -6    4   15      0.40      0.00
   -6    4   14     -0.19      0.00
   -6    4   13      0.02      0.00
   -6    4   12     -0.21      0.00
   -6    4   11      0.43      0.00
   -6    4   10     -0.37      0.00
   -6    4    9      0.23      0.00
   -6    4    8     -0.24      0.00
   -6    4    7      0.22      0.00
   -6    4    6      0.01      0.00
   -6    4    5     -0.35      0.00
   -6    4    4      0.56      0.00
   -6    4    3     -0.57      0.00
   -6    4    2      0.57      0.00
   -6    4    1     -0.83      0.00
   -6    4    0      1.07      0.00
    6   -4    1     -0.79      0.00
    6   -4    2      0.14      0.00
    6   -4    3      0.13      0.00
    6   -4    4     -0.05      0.00
    6   -4    5      0.30      0.00
    6   -4    6     -0.90      0.00
    6   -4    7      1.11      0.00
    6   -4    8     -0.86      0.00
    6   -4    9      0.67      0.00
    6   -4   10     -0.60      0.00
    6   -4   11      0.33      0.00
    6   -4   12      0.06      0.00
    6   -4   13     -0.34      0.00
    6   -4   14      0.56      0.00
    6   -4   15     -0.76      0.00
    6   -4   16      0.78      0.00
   -6    3   16     -0.31      0.00
   -6    3   15      0.22      0.00
   -6    3   14     -0.07      0.00
   -6    3   13      0.16      0.00
   -6    3   12     -0.33      0.00
   -6    3   11      0.31      0.00
   -6    3   10     -0.27      0.00
   -6    3    9      0.38      0.00
   -6    3    8     -0.41      0.00
   -6    3    7      0.19      0.00
   -6    3    6      0.10      0.00
   -6    3    5     -0.25      0.00
   -6    3    4      0.30      0.00
   -6    3    3     -0.43      0.00
   -6    3    2      0.79      0.00
   -6    3    1     -1.21      0.00
   -6    3    0      1.17      0.00
    6   -3    1     -0.64      0.00
    6   -3    2      0.35      0.00
    6   -3    3     -0.53      0.00
    6   -3    4      0.40      0.00
    6   -3    5      0.37      0.00
    6   -3    6     -0.96      0.00
    6   -3    7      0.87      0.00
    6   -3    8     -0.72      0.00
    6   -3    9      0.88      0.00
    6   -3   10     -0.87      0.00
    6   -3   11      0.50      0.00
    6   -3   12     -0.16      0.00
    6   -3   13     -0.08      0.00
    6   -3   14      0.43      0.00
    6   -3   15     -0.73      0.00
    6   -3   16      0.73      0.00
    6   -3   17     -0.64      0.00
   -6    2   17      0.21      0.00
   -6    2   16     -0.22      0.00
   -6    2   15      0.15      0.00
   -6    2   14     -0.16      0.00
   -6    2   13      0.23      0.00
   -6    2   11      0.25      0.00
   -6    2   10     -0.45      0.00
   -6    2    9      0.54      0.00
   -6    2    8     -0.32      0.00
   -6    2    7      0.08      0.00
   -6    2    6     -0.10      0.00
   -6    2    5      0.13      0.00
   -6    2    4      0.09      0.00
   -6    2    3     -0.53      0.00
   -6    2    2      0.99      0.00
   -6    2    1     -1.15      0.00
   -6    2    0      0.90      0.00
    6   -2    1     -0.69      0.00
    6   -2    2      0.93      0.00
    6   -2    3     -1.04      0.00
    6   -2    4      0.38      0.00
    6   -2    5      0.44      0.00
    6   -2    6     -0.58      0.00
    6   -2    7      0.45      0.00
    6   -2    8     -0.78      0.00
    6   -2    9      1.14      0.00
    6   -2   10     -0.97      0.00
    6   -2   11      0.62      0.00
    6   -2   12     -0.45      0.00
    6   -2   13      0.16      0.00
    6   -2   14      0.32      0.00
    6   -2   15     -0.56      0.00
    6   -2   16      0.52      0.00
    6   -2   17     -0.60      0.00
    6   -2   18      0.76      0.00
   -6    1   17      0.17      0.00
   -6    1   16     -0.20      0.00
   -6    1   15      0.18      0.00
   -6    1   14     -0.16      0.00
   -6    1   13      0.13      0.00
   -6    1   12     -0.19      0.00
   -6    1   11      0.44      0.00
   -6    1   10     -0.59      0.00
   -6    1    9      0.38      0.00
   -6    1    8     -0.17      0.00
   -6    1    7      0.34      0.00
   -6    1    6     -0.55      0.00
   -6    1    5      0.33      0.00
   -6    1    4      0.16      0.00
   -6    1    3     -0.53      0.00
   -6    1    2      0.74      0.00
   -6    1    1     -0.77      0.00
   -6    1    0      0.78      0.00
    6   -1    1     -1.04      0.00
    6   -1    2      1.33      0.00
    6   -1    3     -1.01      0.00
    6   -1    4      0.24      0.00
    6   -1    5      0.07      0.00
    6   -1    6      0.02      0.00
    6   -1    7      0.31      0.00
    6   -1    8     -0.98      0.00
    6   -1    9      1.15      0.00
    6   -1   10     -0.89      0.00
    6   -1   11      0.81      0.00
    6   -1   12     -0.75      0.00
    6   -1   13      0.32      0.00
    6   -1   14      0.13      0.00
    6   -1   15     -0.21      0.00
    6   -1   16      0.30      0.00
    6   -1   17     -0.64      0.00
   -6    0   17      0.18      0.00
   -6    0   16     -0.17      0.00
   -6    0   15      0.09      0.00
   -6    0   14     -0.06      0.00
   -6    0   13      0.14      0.00
   -6    0   12     -0.36      0.00
   -6    0   11      0.52      0.00
   -6    0   10     -0.38      0.00
   -6    0    9      0.20      0.00
   -6    0    8     -0.43      0.00
   -6    0    7      0.81      0.00
   -6    0    6     -0.70      0.00
   -6    0    5      0.22      0.00
   -6    0    4      0.05      0.00
   -6    0    3     -0.12      0.00
   -6    0    2      0.30      0.00
   -6    0    1     -0.56      0.00
    6    0    0      0.85      0.00
    6    0    1     -1.20      0.00
    6    0    2      1.25      0.00
    6    0    3     -0.82      0.00
    6    0    4      0.47      0.00
    6    0    5     -0.51      0.00
    6    0    6      0.30      0.00
    6    0    7      0.43      0.00
    6    0    8     -0.93      0.00
    6    0    9      0.86      0.00
    6    0   10     -0.86      0.00
    6    0   11      1.07      0.00
    6    0   12     -0.91      0.00
    6    0   13      0.43      0.00
    6    0   14     -0.21      0.00
    6    0   15      0.15      0.00
    6    0   16      0.21      0.00
    6    0   17     -0.66      0.00
    6    0   19     -0.47      0.00
   -6   -1   17      0.11      0.00
   -6   -1   16      0.01      0.00
   -6   -1   15     -0.03      0.00
   -6   -1   14     -0.09      0.00
   -6   -1   13      0.25      0.00
   -6   -1   12     -0.36      0.00
   -6   -1   11      0.30      0.00
   -6   -1   10     -0.18      0.00
   -6   -1    9      0.38      0.00
   -6   -1    8     -0.83      0.00
   -6   -1    7      0.90      0.00
   -6   -1    6     -0.52      0.00
   -6   -1    5      0.32      0.00
   -6   -1    4     -0.43      0.00
   -6   -1    3      0.32      0.00
   -6   -1    2      0.09      0.00
   -6   -1    1     -0.45      0.00
    6    1    0      0.73      0.00
    6    1    1     -1.02      0.00
    6    1    2      1.04      0.00
    6    1    3     -0.85      0.00
    6    1    4      0.84      0.00
    6    1    5     -0.81      0.00
    6    1    6      0.30      0.00
    6    1    7      0.35      0.00
    6    1    8     -0.54      0.00
    6    1    9      0.60      0.00
    6    1   10     -0.98      0.00
    6    1   11      1.19      0.00
    6    1   12     -0.90      0.00
    6    1   13      0.62      0.00
    6    1   14     -0.60      0.00
    6    1   15      0.35      0.00
    6    1   16      0.20      0.00
    6    1   17     -0.48      0.00
    6    1   18      0.39      0.00
    6    1   19     -0.36      0.00
    6    1   20      0.46      0.00
   -6   -2   17     -0.12      0.00
   -6   -2   16      0.14      0.00
   -6   -2   15      0.03      0.00
   -6   -2   14     -0.14      0.00
   -6   -2   13      0.15      0.00
   -6   -2   12     -0.13      0.00
   -6   -2   11      0.14      0.00
   -6   -2   10     -0.29      0.00
   -6   -2    9      0.65      0.00
   -6   -2    8     -0.85      0.00
   -6   -2    7      0.67      0.00
   -6   -2    6     -0.54      0.00
   -6   -2    5      0.76      0.00
   -6   -2    4     -0.84      0.00
   -6   -2    3      0.46      0.00
   -6   -2    2     -0.06      0.00
   -6   -2    1     -0.13      0.00
    6    2    0      0.43      0.00
    6    2    1     -0.81      0.00
    6    2    2      0.91      0.00
    6    2    3     -0.91      0.00
    6    2    4      1.03      0.00
    6    2    5     -0.89      0.00
    6    2    6      0.36      0.00
    6    2    7      0.01      0.00
    6    2    8     -0.15      0.00
    6    2    9      0.52      0.00
    6    2   10     -1.00      0.00
    6    2   11      1.05      0.00
    6    2   12     -0.86      0.00
    6    2   13      0.89      0.00
    6    2   14     -0.84      0.00
    6    2   15      0.38      0.00
    6    2   16      0.06      0.00
    6    2   17     -0.13      0.00
    6    2   18      0.16      0.00
    6    2   19     -0.38      0.00
    6    2   20      0.50      0.00
   -6   -3   17     -0.26      0.00
   -6   -3   16      0.07      0.00
   -6   -3   15      0.04      0.00
   -6   -3   14      0.06      0.00
   -6   -3   13     -0.10      0.00
   -6   -3   12     -0.04      0.00
   -6   -3   11      0.19      0.00
   -6   -3   10     -0.37      0.00
   -6   -3    9      0.58      0.00
   -6   -3    8     -0.62      0.00
   -6   -3    7      0.60      0.00
   -6   -3    6     -0.83      0.00
   -6   -3    5      1.07      0.00
   -6   -3    4     -0.89      0.00
   -6   -3    3      0.54      0.00
   -6   -3    2     -0.42      0.00
   -6   -3    1      0.24      0.00
    6    3    0      0.23      0.00
    6    3    1     -0.60      0.00
    6    3    2      0.71      0.00
    6    3    3     -0.91      0.00
    6    3    4      1.12      0.00
    6    3    5     -0.92      0.00
    6    3    6      0.53      0.00
    6    3    7     -0.36      0.00
    6    3    8      0.12      0.00
    6    3    9      0.41      0.00
    6    3   10     -0.80      0.00
    6    3   11      0.83      0.00
    6    3   12     -0.91      0.00
    6    3   13      1.06      0.00
    6    3   14     -0.85      0.00
    6    3   15      0.43      0.00
    6    3   16     -0.25      0.00
    6    3   17      0.18      0.00
    6    3   18      0.10      0.00
    6    3   19     -0.38      0.00
    6    3   20      0.38      0.00
   -6   -4   16      0.05      0.00
   -6   -4   15     -0.20      0.00
   -6   -4   14      0.32      0.00
   -6   -4   13     -0.12      0.00
   -6   -4   12     -0.08      0.00
   -6   -4   11      0.11      0.00
   -6   -4   10     -0.18      0.00
   -6   -4    9      0.37      0.00
   -6   -4    8     -0.51      0.00
   -6   -4    7      0.68      0.00
   -6   -4    6     -0.96      0.00
   -6   -4    5      1.03      0.00
   -6   -4    4     -0.86      0.00
   -6   -4    3      0.79      0.00
   -6   -4    2     -0.76      0.00
   -6   -4    1      0.42      0.00
    6    4    0      0.04      0.00
    6    4    1     -0.27      0.00
    6    4    2      0.52      0.00
    6    4    3     -0.95      0.00
    6    4    4      1.11      0.00
    6    4    5     -0.88      0.00
    6    4    6      0.73      0.00
    6    4    7     -0.70      0.00
    6    4    8      0.34      0.00
    6    4    9      0.21      0.00
    6    4   10     -0.49      0.00
    6    4   11      0.64      0.00
    6    4   12     -0.91      0.00
    6    4   13      1.01      0.00
    6    4   14     -0.77      0.00
    6    4   15      0.58      0.00
    6    4   16     -0.54      0.00
    6    4   17      0.30      0.00
    6    4   18      0.09      0.00
    6    4   19     -0.24      0.00
    6    4   20      0.20      0.00
   -6   -5   16      0.26      0.00
   -6   -5   15     -0.44      0.00
   -6   -5   14      0.29      0.00
   -6   -5   13     -0.04      0.00
   -6   -5   12      0.09      0.00
   -6   -5   11     -0.17      0.00
   -6   -5   10     -0.03      0.00
   -6   -5    9      0.30      0.00
   -6   -5    8     -0.43      0.00
   -6   -5    7      0.62      0.00
   -6   -5    6     -0.85      0.00
   -6   -5    5      0.91      0.00
   -6   -5    4     -0.90      0.00
   -6   -5    3      0.97      0.00
   -6   -5    2     -0.89      0.00
   -6   -5    1      0.56      0.00
    6    5    0     -0.26      0.00
    6    5    1     -0.02      0.00
    6    5    2      0.48      0.00
    6    5    3     -0.87      0.00
    6    5    4      0.87      0.00
    6    5    5     -0.85      0.00
    6    5    6      1.05      0.00
    6    5    7     -0.98      0.00
    6    5    8      0.47      0.00
    6    5    9     -0.03      0.00
    6    5   10     -0.15      0.00
    6    5   11      0.44      0.00
    6    5   12     -0.78      0.00
    6    5   13      0.83      0.00
    6    5   14     -0.73      0.00
    6    5   15      0.76      0.00
    6    5   16     -0.66      0.00
    6    5   17      0.30      0.00
    6    5   18     -0.02      0.00
    6    5   19     -0.03      0.00
    6    5   20      0.11      0.00
   -6   -6   14      0.17      0.00
   -6   -6   13     -0.20      0.00
   -6   -6   12      0.40      0.00
   -6   -6   11     -0.29      0.00
   -6   -6   10     -0.03      0.00
   -6   -6    9      0.15      0.00
   -6   -6    8     -0.20      0.00
   -6   -6    7      0.44      0.00
   -6   -6    6     -0.68      0.00
   -6   -6    5      0.76      0.00
   -6   -6    4     -0.87      0.00
   -6   -6    3      1.01      0.00
   -6   -6    2     -0.94      0.00
   -6   -6    1      0.69      0.00
    6    6    0     -0.42      0.00
    6    6    1      0.05      0.00
    6    6    2      0.34      0.00
    6    6    3     -0.51      0.00
    6    6    4      0.67      0.00
    6    6    5     -1.06      0.00
    6    6    6      1.29      0.00
    6    6    7     -0.96      0.00
    6    6    8      0.53      0.00
    6    6    9     -0.40      0.00
    6    6   10      0.21      0.00
    6    6   11      0.25      0.00
    6    6   12     -0.57      0.00
    6    6   13      0.61      0.00
    6    6   14     -0.71      0.00
    6    6   15      0.83      0.00
    6    6   16     -0.64      0.00
    6    6   17      0.31      0.00
    6    6   18     -0.18      0.00
    6    6   19      0.11      0.00
    6    6   20      0.10      0.00
   -6   -7   15     -0.24      0.00
   -6   -7   14      0.26      0.00
   -6   -7   13     -0.45      0.00
   -6   -7   12      0.45      0.00
   -6   -7   11     -0.20      0.00
   -6   -7   10      0.09      0.00
   -6   -7    9     -0.15      0.00
   -6   -7    8      0.01      0.00
   -6   -7    7      0.30      0.00
   -6   -7    6     -0.44      0.00
   -6   -7    5      0.53      0.00
   -6   -7    4     -0.79      0.00
   -6   -7    3      0.98      0.00
   -6   -7    2     -0.88      0.00
   -6   -7    1      0.65      0.00
    6    7    0     -0.44      0.00
    6    7    1      0.24      0.00
    6    7    2     -0.04      0.00
    6    7    3     -0.26      0.00
    6    7    4      0.78      0.00
    6    7    5     -1.20      0.00
    6    7    6      1.09      0.00
    6    7    7     -0.79      0.00
    6    7    8      0.80      0.00
    6    7    9     -0.82      0.00
    6    7   10      0.40      0.00
    6    7   11      0.11      0.00
    6    7   12     -0.26      0.00
    6    7   13      0.38      0.00
    6    7   14     -0.69      0.00
    6    7   15      0.79      0.00
    6    7   16     -0.53      0.00
    6    7   17      0.33      0.00
    6    7   18     -0.31      0.00
    6    7   19      0.18      0.00
    6    7   20      0.07      0.00
   -6   -8   14      0.39      0.00
   -6   -8   13     -0.44      0.00
   -6   -8   12      0.30      0.00
   -6   -8   11     -0.25      0.00
   -6   -8   10      0.37      0.00
   -6   -8    9     -0.33      0.00
   -6   -8    8      0.08      0.00
   -6   -8    7      0.06      0.00
   -6   -8    6     -0.10      0.00
   -6   -8    5      0.36      0.00
   -6   -8    4     -0.71      0.00
   -6   -8    3      0.77      0.00
   -6   -8    2     -0.61      0.00
   -6   -8    1      0.56      0.00
    6    8    0     -0.61      0.00
    6    8    1      0.54      0.00
    6    8    2     -0.21      0.00
    6    8    3     -0.34      0.00
    6    8    4      0.81      0.00
    6    8    5     -0.84      0.00
    6    8    6      0.70      0.00
    6    8    7     -0.90      0.00
    6    8    8      1.18      0.00
    6    8    9     -0.92      0.00
    6    8   10      0.36      0.00
    6    8   11     -0.16      0.00
    6    8   12      0.12      0.00
    6    8   13      0.26      0.00
    6    8   14     -0.67      0.00
    6    8   15      0.61      0.00
    6    8   16     -0.36      0.00
    6    8   17      0.38      0.00
    6    8   18     -0.43      0.00
    6    8   19      0.22      0.00
    6    8   20      0.02      0.00
   -6   -9   13     -0.25      0.00
   -6   -9   12      0.28      0.00
   -6   -9   11     -0.42      0.00
   -6   -9   10      0.46      0.00
   -6   -9    9     -0.31      0.00
   -6   -9    8      0.22      0.00
   -6   -9    7     -0.26      0.00
   -6   -9    6      0.10      0.00
   -6   -9    5      0.27      0.00
   -6   -9    4     -0.42      0.00
   -6   -9    3      0.33      0.00
   -6   -9    2     -0.39      0.00
   -6   -9    1      0.67      0.00
    6    9    0     -0.79      0.00
    6    9    1      0.54      0.00
    6    9    2     -0.07      0.00
    6    9    3     -0.31      0.00
    6    9    4      0.36      0.00
    6    9    5     -0.32      0.00
    6    9    6      0.67      0.00
    6    9    7     -1.18      0.00
    6    9    8      1.14      0.00
    6    9    9     -0.64      0.00
    6    9   10      0.46      0.00
    6    9   11     -0.59      0.00
    6    9   12      0.30      0.00
    6    9   13      0.31      0.00
    6    9   14     -0.50      0.00
    6    9   15      0.26      0.00
    6    9   16     -0.26      0.00
    6    9   17      0.52      0.00
    6    9   18     -0.50      0.00
    6    9   19      0.19      0.00
   -6  -10   12      0.35      0.00
   -6  -10   11     -0.41      0.00
   -6  -10   10      0.33      0.00
   -6  -10    9     -0.32      0.00
   -6  -10    8      0.45      0.00
   -6  -10    7     -0.42      0.00
   -6  -10    6      0.14      0.00
   -6  -10    5      0.02      0.00
   -6  -10    4      0.05      0.00
   -6  -10    3      0.03      0.00
   -6  -10    2     -0.42      0.00
   -6  -10    1      0.71      0.00
    6   10    0     -0.60      0.00
    6   10    1      0.28      0.00
    6   10    2     -0.08      0.00
    6   10    3      0.12      0.00
    6   10    4     -0.15      0.00
    6   10    5     -0.22      0.00
    6   10    6      0.84      0.00
    6   10    7     -1.01      0.00
    6   10    8      0.64      0.00
    6   10    9     -0.50      0.00
    6   10   10      0.81      0.00
    6   10   11     -0.78      0.00
    6   10   12      0.14      0.00
    6   10   13      0.27      0.00
    6   10   14     -0.08      0.00
    6   10   15      0.00      0.00
    6   10   16     -0.38      0.00
    6   10   17      0.62      0.00
    6   10   18     -0.39      0.00
   -6  -11   11     -0.21      0.00
   -6  -11   10      0.24      0.00
   -6  -11    9     -0.43      0.00
   -6  -11    8      0.52      0.00
   -6  -11    7     -0.37      0.00
   -6  -11    6      0.26      0.00
   -6  -11    5     -0.36      0.00
   -6  -11    4      0.33      0.00
   -6  -11    3      0.03      0.00
   -6  -11    2     -0.38      0.00
   -6  -11    1      0.39      0.00
    6   11    0     -0.24      0.00
    6   11    1      0.23      0.00
    6   11    2     -0.40      0.00
    6   11    3      0.49      0.00
    6   11    4     -0.23      0.00
    6   11    5     -0.33      0.00
    6   11    6      0.61      0.00
    6   11    7     -0.39      0.00
    6   11    8      0.28      0.00
    6   11    9     -0.69      0.00
    6   11   10      0.95      0.00
    6   11   11     -0.49      0.00
    6   11   12     -0.03      0.00
    6   11   13     -0.08      0.00
    6   11   14      0.28      0.00
    6   11   15      0.07      0.00
    6   11   16     -0.53      0.00
    6   11   17      0.47      0.00
   -6  -12   10      0.25      0.00
   -6  -12    9     -0.41      0.00
   -6  -12    8      0.39      0.00
   -6  -12    7     -0.35      0.00
   -6  -12    6      0.47      0.00
   -6  -12    5     -0.53      0.00
   -6  -12    4      0.32      0.00
   -6  -12    3     -0.03      0.00
   -6  -12    2     -0.04      0.00
   -6  -12    1      0.01      0.00
    6   12    0     -0.14      0.00
    6   12    1      0.39      0.00
    6   12    2     -0.56      0.00
    6   12    3      0.48      0.00
    6   12    4     -0.14      0.00
    6   12    5     -0.13      0.00
    6   12    6      0.04      0.00
    6   12    7      0.07      0.00
    6   12    8      0.30      0.00
    6   12    9     -0.76      0.00
    6   12   10      0.59      0.00
    6   12   11     -0.11      0.00
    6   12   12      0.13      0.00
    6   12   13     -0.43      0.00
    6   12   14      0.24      0.00
    6   12   15      0.28      0.00
    6   12   16     -0.41      0.00
    6   12   17      0.16      0.00
   -6  -13    8      0.27      0.00
   -6  -13    7     -0.37      0.00
   -6  -13    6      0.51      0.00
   -6  -13    5     -0.48      0.00
   -6  -13    4      0.35      0.00
   -6  -13    3     -0.28      0.00
   -6  -13    2      0.25      0.00
   -6  -13    1     -0.08      0.00
    6   13    0     -0.16      0.00
    6   13    1      0.35      0.00
    6   13    2     -0.44      0.00
    6   13    3      0.38      0.00
    6   13    4     -0.24      0.00
    6   13    5      0.24      0.00
    6   13    6     -0.37      0.00
    6   13    7      0.17      0.00
    6   13    8      0.31      0.00
    6   13    9     -0.41      0.00
    6   13   10      0.09      0.00
    6   13   11     -0.04      0.00
    6   13   12      0.38      0.00
    6   13   13     -0.41      0.00
    6   13   14     -0.01      0.00
    6   13   15      0.25      0.00
   -6  -14    7     -0.30      0.00
   -6  -14    5     -0.45      0.00
   -6  -14    4      0.44      0.00
   -6  -14    3     -0.40      0.00
   -6  -14    2      0.28      0.00
   -6  -14    1     -0.13      0.00
    6   14    0      0.01      0.00
    6   14    1      0.18      0.00
    6   14    2     -0.36      0.00
    6   14    3      0.38      0.00
    6   14    4     -0.35      0.00
    6   14    5      0.46      0.00
    6   14    6     -0.50      0.00
    6   14    7      0.20      0.00
    6   14    8      0.07      0.00
    6   14    9      0.05      0.00
    6   14   10     -0.14      0.00
    6   14   11     -0.14      0.00
    6   14   12      0.35      0.00
    6   14   13     -0.14      0.00
    6   14   14     -0.10      0.00
   -6  -15    4      0.37      0.00
   -6  -15    3     -0.33      0.00
   -6  -15    2      0.33      0.00
   -6  -15    1     -0.32      0.00
    6   15    0      0.14      0.00
    6   15    1      0.17      0.00
    6   15    2     -0.32      0.00
    6   15    3      0.26      0.00
    6   15    4     -0.34      0.00
    6   15    5      0.57      0.00
    6   15    6     -0.55      0.00
    6   15    7      0.28      0.00
    6   15    8     -0.21      0.00
    6   15    9      0.32      0.00
    6   15   10     -0.18      0.00
    6   15   11     -0.10      0.00
    6   15   12      0.12      0.00
    6   16    1      0.14      0.00
    6   16    9      0.43      0.00
   -7   10    6      0.30      0.00
   -7   10    5     -0.07      0.00
   -7   10    4      0.17      0.00
   -7   10    3     -0.37      0.00
   -7   10    2      0.38      0.00
   -7   10    0      0.48      0.00
    7  -10    1     -0.43      0.00
    7  -10    2      0.21      0.00
    7  -10    3     -0.17      0.00
   -7    9    9     -0.16      0.00
   -7    9    7     -0.35      0.00
   -7    9    6      0.12      0.00
   -7    9    5     -0.11      0.00
   -7    9    4      0.31      0.00
   -7    9    3     -0.37      0.00
   -7    9    2      0.35      0.00
   -7    9    1     -0.47      0.00
   -7    9    0      0.56      0.00
    7   -9    1     -0.44      0.00
    7   -9    2      0.35      0.00
    7   -9    3     -0.47      0.00
    7   -9    4      0.48      0.00
    7   -9    5     -0.18      0.00
    7   -9    6     -0.12      0.00
   -7    8   10      0.16      0.00
   -7    8    9     -0.27      0.00
   -7    8    8      0.35      0.00
   -7    8    7     -0.21      0.00
   -7    8    6      0.10      0.00
   -7    8    5     -0.18      0.00
   -7    8    4      0.26      0.00
   -7    8    3     -0.26      0.00
   -7    8    2      0.37      0.00
   -7    8    1     -0.51      0.00
   -7    8    0      0.50      0.00
    7   -8    1     -0.46      0.00
    7   -8    2      0.61      0.00
    7   -8    3     -0.74      0.00
    7   -8    4      0.56      0.00
    7   -8    5     -0.22      0.00
    7   -8    6      0.03      0.00
    7   -8    7      0.05      0.00
    7   -8    8     -0.19      0.00
    7   -8    9      0.33      0.00
    7   -8   10     -0.38      0.00
   -7    7   11     -0.21      0.00
   -7    7   10      0.15      0.00
   -7    7    9     -0.29      0.00
   -7    7    8      0.30      0.00
   -7    7    7     -0.16      0.00
   -7    7    6      0.08      0.00
   -7    7    5     -0.09      0.00
   -7    7    4      0.13      0.00
   -7    7    3     -0.21      0.00
   -7    7    2      0.31      0.00
   -7    7    0      0.39      0.00
    7   -7    1     -0.61      0.00
    7   -7    2      0.82      0.00
    7   -7    3     -0.78      0.00
    7   -7    4      0.54      0.00
    7   -7    5     -0.37      0.00
    7   -7    6      0.28      0.00
    7   -7    7     -0.15      0.00
    7   -7    8     -0.08      0.00
    7   -7    9      0.31      0.00
    7   -7   10     -0.51      0.00
    7   -7   11      0.65      0.00
   -7    6   11     -0.08      0.00
   -7    6   10      0.19      0.00
   -7    6    9     -0.35      0.00
   -7    6    8      0.26      0.00
   -7    6    7     -0.06      0.00
   -7    6    6     -0.04      0.00
   -7    6    5      0.01      0.00
   -7    6    4      0.07      0.00
   -7    6    3     -0.08      0.00
   -7    6    2      0.04      0.00
   -7    6    1     -0.14      0.00
   -7    6    0      0.44      0.00
    7   -6    1     -0.70      0.00
    7   -6    2      0.73      0.00
    7   -6    3     -0.66      0.00
    7   -6    4      0.65      0.00
    7   -6    5     -0.65      0.00
    7   -6    6      0.52      0.00
    7   -6    7     -0.31      0.00
    7   -6    8      0.02      0.00
    7   -6    9      0.31      0.00
    7   -6   10     -0.56      0.00
    7   -6   11      0.64      0.00
    7   -6   13      0.49      0.00
   -7    5   11     -0.11      0.00
   -7    5   10      0.32      0.00
   -7    5    8      0.11      0.00
   -7    5    7      0.07      0.00
   -7    5    6     -0.09      0.00
   -7    5    5      0.04      0.00
   -7    5    4     -0.11      0.00
   -7    5    3      0.25      0.00
   -7    5    2     -0.20      0.00
   -7    5    1     -0.14      0.00
   -7    5    0      0.42      0.00
    7   -5    1     -0.43      0.00
    7   -5    2      0.46      0.00
    7   -5    3     -0.70      0.00
    7   -5    4      0.89      0.00
    7   -5    5     -0.81      0.00
    7   -5    6      0.63      0.00
    7   -5    7     -0.45      0.00
    7   -5    8      0.14      0.00
    7   -5    9      0.22      0.00
    7   -5   10     -0.41      0.00
    7   -5   11      0.49      0.00
    7   -5   12     -0.63      0.00
    7   -5   13      0.76      0.00
    7   -5   14     -0.73      0.00
   -7    4   11     -0.27      0.00
   -7    4   10      0.33      0.00
   -7    4    9     -0.17      0.00
   -7    4    8      0.00      0.00
   -7    4    7      0.07      0.00
   -7    4    6     -0.10      0.00
   -7    4    5      0.21      0.00
   -7    4    4     -0.41      0.00
   -7    4    3      0.45      0.00
   -7    4    2     -0.20      0.00
   -7    4    1     -0.05      0.00
   -7    4    0      0.01      0.00
    7   -4    1     -0.02      0.00
    7   -4    2      0.44      0.00
    7   -4    3     -0.89      0.00
    7   -4    4      0.89      0.00
    7   -4    5     -0.72      0.00
    7   -4    6      0.74      0.00
    7   -4    7     -0.67      0.00
    7   -4    8      0.31      0.00
    7   -4    9      0.00      0.00
    7   -4   10     -0.16      0.00
    7   -4   11      0.43      0.00
    7   -4   12     -0.78      0.00
    7   -4   13      0.88      0.00
    7   -4   14     -0.73      0.00
    7   -4   15      0.61      0.00
   -7    3   14      0.18      0.00
   -7    3   13     -0.14      0.00
   -7    3   12      0.24      0.00
   -7    3   11     -0.28      0.00
   -7    3   10      0.20      0.00
   -7    3    9     -0.13      0.00
   -7    3    8      0.07      0.00
   -7    3    7      0.07      0.00
   -7    3    6     -0.25      0.00
   -7    3    5      0.43      0.00
   -7    3    4     -0.52      0.00
   -7    3    3      0.42      0.00
   -7    3    2     -0.30      0.00
   -7    3    1      0.40      0.00
   -7    3    0     -0.47      0.00
    7   -3    1      0.04      0.00
    7   -3    2      0.58      0.00
    7   -3    3     -0.72      0.00
    7   -3    4      0.55      0.00
    7   -3    5     -0.72      0.00
    7   -3    6      1.01      0.00
    7   -3    7     -0.85      0.00
    7   -3    8      0.45      0.00
    7   -3    9     -0.27      0.00
    7   -3   10      0.05      0.00
    7   -3   11      0.42      0.00
    7   -3   12     -0.75      0.00
    7   -3   13      0.71      0.00
    7   -3   14     -0.70      0.00
    7   -3   15      0.84      0.00
    7   -3   16     -0.78      0.00
   -7    2   15     -0.24      0.00
   -7    2   14      0.23      0.00
   -7    2   13     -0.27      0.00
   -7    2   12      0.24      0.00
   -7    2   11     -0.19      0.00
   -7    2   10      0.25      0.00
   -7    2    9     -0.27      0.00
   -7    2    8      0.05      0.00
   -7    2    7      0.22      0.00
   -7    2    6     -0.34      0.00
   -7    2    5      0.36      0.00
   -7    2    4     -0.42      0.00
   -7    2    3      0.52      0.00
   -7    2    2     -0.70      0.00
   -7    2    1      0.82      0.00
   -7    2    0     -0.53      0.00
    7   -2    1     -0.08      0.00
    7   -2    2      0.32      0.00
    7   -2    3     -0.17      0.00
    7   -2    4      0.37      0.00
    7   -2    5     -0.97      0.00
    7   -2    6      1.16      0.00
    7   -2    7     -0.81      0.00
    7   -2    8      0.61      0.00
    7   -2    9     -0.59      0.00
    7   -2   10      0.21      0.00
    7   -2   11      0.31      0.00
    7   -2   12     -0.45      0.00
    7   -2   13      0.49      0.00
    7   -2   14     -0.82      0.00
    7   -2   15      1.06      0.00
    7   -2   16     -0.82      0.00
    7   -2   17      0.45      0.00
   -7    1   16      0.25      0.00
   -7    1   15     -0.31      0.00
   -7    1   14      0.32      0.00
   -7    1   13     -0.23      0.00
   -7    1   12      0.18      0.00
   -7    1   11     -0.32      0.00
   -7    1   10      0.45      0.00
   -7    1    9     -0.24      0.00
   -7    1    8     -0.12      0.00
   -7    1    7      0.20      0.00
   -7    1    6     -0.07      0.00
   -7    1    5      0.18      0.00
   -7    1    4     -0.53      0.00
   -7    1    3      0.81      0.00
   -7    1    2     -0.93      0.00
   -7    1    1      0.80      0.00
   -7    1    0     -0.42      0.00
    7   -1    1      0.19      0.00
    7   -1    2     -0.30      0.00
    7   -1    3      0.16      0.00
    7   -1    4      0.55      0.00
    7   -1    5     -1.08      0.00
    7   -1    6      0.93      0.00
    7   -1    7     -0.74      0.00
    7   -1    8      0.92      0.00
    7   -1    9     -0.85      0.00
    7   -1   10      0.33      0.00
    7   -1   11      0.00      0.00
    7   -1   12     -0.07      0.00
    7   -1   13      0.43      0.00
    7   -1   14     -0.96      0.00
    7   -1   15      0.98      0.00
    7   -1   16     -0.64      0.00
    7   -1   17      0.55      0.00
    7   -1   18     -0.65      0.00
   -7    0   16      0.32      0.00
   -7    0   15     -0.34      0.00
   -7    0   14      0.24      0.00
   -7    0   13     -0.18      0.00
   -7    0   12      0.35      0.00
   -7    0   11     -0.56      0.00
   -7    0   10      0.43      0.00
   -7    0    9     -0.05      0.00
   -7    0    8     -0.04      0.00
   -7    0    7     -0.22      0.00
   -7    0    6      0.20      0.00
   -7    0    5      0.30      0.00
   -7    0    4     -0.72      0.00
   -7    0    3      0.80      0.00
   -7    0    2     -0.75      0.00
   -7    0    1      0.69      0.00
    7    0    0     -0.64      0.00
    7    0    1      0.72      0.00
    7    0    2     -0.66      0.00
    7    0    3      0.08      0.00
    7    0    4      0.61      0.00
    7    0    5     -0.72      0.00
    7    0    6      0.59      0.00
    7    0    7     -0.89      0.00
    7    0    8      1.20      0.00
    7    0    9     -0.93      0.00
    7    0   10      0.51      0.00
    7    0   11     -0.43      0.00
    7    0   12      0.18      0.00
    7    0   13      0.45      0.00
    7    0   14     -0.80      0.00
    7    0   15      0.62      0.00
    7    0   16     -0.55      0.00
    7    0   17      0.82      0.00
    7    0   18     -0.84      0.00
   -7   -1   16      0.30      0.00
   -7   -1   15     -0.21      0.00
   -7   -1   14      0.18      0.00
   -7   -1   13     -0.34      0.00
   -7   -1   12      0.55      0.00
   -7   -1   11     -0.53      0.00
   -7   -1   10      0.24      0.00
   -7   -1    9     -0.14      0.00
   -7   -1    8      0.43      0.00
   -7   -1    7     -0.56      0.00
   -7   -1    6      0.09      0.00
   -7   -1    5      0.44      0.00
   -7   -1    4     -0.50      0.00
   -7   -1    3      0.42      0.00
   -7   -1    2     -0.60      0.00
   -7   -1    1      0.85      0.00
    7    1    0     -0.97      0.00
    7    1    1      0.95      0.00
    7    1    2     -0.63      0.00
    7    1    3      0.08      0.00
    7    1    4      0.22      0.00
    7    1    5     -0.22      0.00
    7    1    6      0.53      0.00
    7    1    7     -1.10      0.00
    7    1    8      1.20      0.00
    7    1    9     -0.90      0.00
    7    1   10      0.82      0.00
    7    1   11     -0.78      0.00
    7    1   12      0.26      0.00
    7    1   13      0.30      0.00
    7    1   14     -0.34      0.00
    7    1   15      0.31      0.00
    7    1   16     -0.69      0.00
    7    1   17      0.98      0.00
    7    1   18     -0.74      0.00
    7    1   19      0.34      0.00
   -7   -2   16      0.11      0.00
   -7   -2   15     -0.13      0.00
   -7   -2   14      0.29      0.00
   -7   -2   13     -0.46      0.00
   -7   -2   12      0.49      0.00
   -7   -2   11     -0.36      0.00
   -7   -2   10      0.30      0.00
   -7   -2    9     -0.55      0.00
   -7   -2    8      0.76      0.00
   -7   -2    7     -0.48      0.00
   -7   -2    6     -0.02      0.00
   -7   -2    5      0.10      0.00
   -7   -2    4      0.04      0.00
   -7   -2    3      0.22      0.00
   -7   -2    2     -0.72      0.00
   -7   -2    1      0.96      0.00
    7    2    0     -0.96      0.00
    7    2    1      0.90      0.00
    7    2    2     -0.67      0.00
    7    2    3      0.39      0.00
    7    2    4     -0.27      0.00
    7    2    5      0.02      0.00
    7    2    6      0.58      0.00
    7    2    7     -1.02      0.00
    7    2    8      0.99      0.00
    7    2    9     -0.97      0.00
    7    2   10      1.12      0.00
    7    2   11     -0.90      0.00
    7    2   12      0.37      0.00
    7    2   13     -0.15      0.00
    7    2   14      0.14      0.00
    7    2   15      0.26      0.00
    7    2   16     -0.80      0.00
    7    2   17      0.80      0.00
    7    2   18     -0.48      0.00
   -7   -3   16      0.01      0.00
   -7   -3   15     -0.20      0.00
   -7   -3   14      0.31      0.00
   -7   -3   13     -0.33      0.00
   -7   -3   12      0.35      0.00
   -7   -3   11     -0.41      0.00
   -7   -3   10      0.57      0.00
   -7   -3    9     -0.77      0.00
   -7   -3    8      0.70      0.00
   -7   -3    7     -0.39      0.00
   -7   -3    6      0.30      0.00
   -7   -3    5     -0.46      0.00
   -7   -3    4      0.29      0.00
   -7   -3    3      0.30      0.00
   -7   -3    2     -0.68      0.00
   -7   -3    1      0.71      0.00
    7    3    0     -0.79      0.00
    7    3    1      0.94      0.00
    7    3    2     -0.87      0.00
    7    3    3      0.73      0.00
    7    3    4     -0.57      0.00
    7    3    5      0.14      0.00
    7    3    6      0.43      0.00
    7    3    7     -0.70      0.00
    7    3    8      0.81      0.00
    7    3    9     -1.06      0.00
    7    3   10      1.18      0.00
    7    3   11     -0.91      0.00
    7    3   12      0.67      0.00
    7    3   13     -0.64      0.00
    7    3   14      0.32      0.00
    7    3   15      0.31      0.00
    7    3   16     -0.58      0.00
    7    3   17      0.40      0.00
    7    3   18     -0.37      0.00
    7    3   20     -0.52      0.00
   -7   -4   15     -0.15      0.00
   -7   -4   14      0.12      0.00
   -7   -4   13     -0.20      0.00
   -7   -4   12      0.39      0.00
   -7   -4   11     -0.51      0.00
   -7   -4   10      0.61      0.00
   -7   -4    9     -0.69      0.00
   -7   -4    8      0.65      0.00
   -7   -4    7     -0.62      0.00
   -7   -4    6      0.74      0.00
   -7   -4    5     -0.70      0.00
   -7   -4    4      0.24      0.00
   -7   -4    3      0.19      0.00
   -7   -4    2     -0.28      0.00
   -7   -4    1      0.41      0.00
    7    4    0     -0.78      0.00
    7    4    1      1.02      0.00
    7    4    2     -0.99      0.00
    7    4    3      0.94      0.00
    7    4    4     -0.78      0.00
    7    4    5      0.32      0.00
    7    4    6      0.12      0.00
    7    4    7     -0.34      0.00
    7    4    8      0.63      0.00
    7    4    9     -0.99      0.00
    7    4   10      1.08      0.00
    7    4   11     -1.00      0.00
    7    4   12      1.02      0.00
    7    4   13     -0.86      0.00
    7    4   14      0.30      0.00
    7    4   15      0.13      0.00
    7    4   16     -0.10      0.00
    7    4   17      0.12      0.00
    7    4   18     -0.46      0.00
    7    4   19      0.63      0.00
    7    4   20     -0.40      0.00
   -7   -5   15      0.06      0.00
   -7   -5   14     -0.01      0.00
   -7   -5   13     -0.24      0.00
   -7   -5   12      0.38      0.00
   -7   -5   11     -0.37      0.00
   -7   -5   10      0.48      0.00
   -7   -5    9     -0.68      0.00
   -7   -5    8      0.76      0.00
   -7   -5    7     -0.83      0.00
   -7   -5    6      0.88      0.00
   -7   -5    5     -0.68      0.00
   -7   -5    4      0.34      0.00
   -7   -5    3     -0.20      0.00
   -7   -5    2      0.09      0.00
   -7   -5    1      0.30      0.00
    7    5    0     -0.76      0.00
    7    5    1      0.94      0.00
    7    5    2     -1.03      0.00
    7    5    3      1.10      0.00
    7    5    4     -0.91      0.00
    7    5    5      0.52      0.00
    7    5    6     -0.27      0.00
    7    5    7      0.05      0.00
    7    5    8      0.39      0.00
    7    5    9     -0.81      0.00
    7    5   10      0.98      0.00
    7    5   11     -1.09      0.00
    7    5   12      1.13      0.00
    7    5   13     -0.81      0.00
    7    5   14      0.39      0.00
    7    5   15     -0.31      0.00
    7    5   16      0.29      0.00
    7    5   17      0.10      0.00
    7    5   18     -0.51      0.00
    7    5   19      0.46      0.00
    7    5   20     -0.22      0.00
   -7   -6   13     -0.18      0.00
   -7   -6   12      0.13      0.00
   -7   -6   11     -0.19      0.00
   -7   -6   10      0.50      0.00
   -7   -6    9     -0.71      0.00
   -7   -6    8      0.73      0.00
   -7   -6    7     -0.79      0.00
   -7   -6    6      0.85      0.00
   -7   -6    5     -0.72      0.00
   -7   -6    4      0.57      0.00
   -7   -6    3     -0.51      0.00
   -7   -6    2      0.25      0.00
   -7   -6    1      0.23      0.00
    7    6    0     -0.60      0.00
    7    6    1      0.82      0.00
    7    6    2     -1.05      0.00
    7    6    3      1.12      0.00
    7    6    4     -0.95      0.00
    7    6    5      0.81      0.00
    7    6    6     -0.73      0.00
    7    6    7      0.37      0.00
    7    6    8      0.21      0.00
    7    6    9     -0.58      0.00
    7    6   10      0.79      0.00
    7    6   11     -1.00      0.00
    7    6   12      1.01      0.00
    7    6   13     -0.77      0.00
    7    6   14      0.66      0.00
    7    6   15     -0.69      0.00
    7    6   16      0.40      0.00
    7    6   17      0.14      0.00
    7    6   18     -0.34      0.00
    7    6   19      0.19      0.00
    7    6   20     -0.17      0.00
   -7   -7   14     -0.03      0.00
   -7   -7   13      0.07      0.00
   -7   -7   12     -0.06      0.00
   -7   -7   11     -0.23      0.00
   -7   -7   10      0.49      0.00
   -7   -7    9     -0.48      0.00
   -7   -7    8      0.52      0.00
   -7   -7    7     -0.74      0.00
   -7   -7    6      0.84      0.00
   -7   -7    5     -0.74      0.00
   -7   -7    4      0.71      0.00
   -7   -7    3     -0.66      0.00
   -7   -7    2      0.34      0.00
   -7   -7    1      0.10      0.00
    7    7    0     -0.43      0.00
    7    7    1      0.69      0.00
    7    7    2     -0.91      0.00
    7    7    3      1.00      0.00
    7    7    4     -1.09      0.00
    7    7    5      1.21      0.00
    7    7    6     -1.02      0.00
    7    7    7      0.47      0.00
    7    7    8     -0.01      0.00
    7    7    9     -0.20      0.00
    7    7   10      0.48      0.00
    7    7   11     -0.81      0.00
    7    7   12      0.86      0.00
    7    7   13     -0.80      0.00
    7    7   14      0.90      0.00
    7    7   15     -0.83      0.00
    7    7   16      0.36      0.00
    7    7   17      0.05      0.00
    7    7   18     -0.05      0.00
    7    7   19      0.02      0.00
   -7   -8   13      0.19      0.00
   -7   -8   12      0.01      0.00
   -7   -8   11     -0.22      0.00
   -7   -8   10      0.19      0.00
   -7   -8    9     -0.18      0.00
   -7   -8    8      0.45      0.00
   -7   -8    7     -0.70      0.00
   -7   -8    6      0.67      0.00
   -7   -8    5     -0.65      0.00
   -7   -8    4      0.78      0.00
   -7   -8    3     -0.72      0.00
   -7   -8    2      0.34      0.00
   -7   -8    1      0.02      0.00
    7    8    0     -0.23      0.00
    7    8    1      0.42      0.00
    7    8    2     -0.68      0.00
    7    8    3      1.00      0.00
    7    8    4     -1.32      0.00
    7    8    5      1.34      0.00
    7    8    6     -0.94      0.00
    7    8    7      0.56      0.00
    7    8    8     -0.46      0.00
    7    8    9      0.24      0.00
    7    8   10      0.27      0.00
    7    8   11     -0.62      0.00
    7    8   12      0.66      0.00
    7    8   13     -0.79      0.00
    7    8   14      0.98      0.00
    7    8   15     -0.78      0.00
    7    8   16      0.32      0.00
    7    8   17     -0.15      0.00
    7    8   18      0.20      0.00
    7    8   19     -0.05      0.00
   -7   -9   12      0.01      0.00
   -7   -9   11      0.06      0.00
   -7   -9   10     -0.11      0.00
   -7   -9    9     -0.13      0.00
   -7   -9    8      0.42      0.00
   -7   -9    7     -0.42      0.00
   -7   -9    6      0.38      0.00
   -7   -9    5     -0.61      0.00
   -7   -9    4      0.79      0.00
   -7   -9    3     -0.58      0.00
   -7   -9    2      0.25      0.00
   -7   -9    1     -0.15      0.00
    7    9    0      0.10      0.00
    7    9    1      0.17      0.00
    7    9    2     -0.63      0.00
    7    9    3      1.09      0.00
    7    9    4     -1.26      0.00
    7    9    5      1.05      0.00
    7    9    6     -0.84      0.00
    7    9    7      0.92      0.00
    7    9    8     -0.90      0.00
    7    9    9      0.38      0.00
    7    9   10      0.17      0.00
    7    9   11     -0.31      0.00
    7    9   12      0.40      0.00
    7    9   13     -0.77      0.00
    7    9   14      0.93      0.00
    7    9   15     -0.62      0.00
    7    9   16      0.33      0.00
    7    9   17     -0.38      0.00
    7    9   18      0.36      0.00
   -7  -10   11      0.27      0.00
   -7  -10   10     -0.09      0.00
   -7  -10    9     -0.16      0.00
   -7  -10    8      0.14      0.00
   -7  -10    7     -0.04      0.00
   -7  -10    6      0.27      0.00
   -7  -10    5     -0.60      0.00
   -7  -10    4      0.54      0.00
   -7  -10    3     -0.29      0.00
   -7  -10    2      0.29      0.00
   -7  -10    1     -0.43      0.00
    7   10    0      0.29      0.00
    7   10    1      0.18      0.00
    7   10    2     -0.65      0.00
    7   10    3      0.88      0.00
    7   10    4     -0.81      0.00
    7   10    5      0.77      0.00
    7   10    6     -1.03      0.00
    7   10    7      1.25      0.00
    7   10    8     -0.90      0.00
    7   10    9      0.29      0.00
    7   10   10     -0.10      0.00
    7   10   11      0.11      0.00
    7   10   12      0.27      0.00
    7   10   13     -0.75      0.00
    7   10   14      0.71      0.00
    7   10   15     -0.41      0.00
    7   10   16      0.42      0.00
    7   10   17     -0.58      0.00
   -7  -11   10      0.01      0.00
   -7  -11    9      0.05      0.00
   -7  -11    8     -0.22      0.00
   -7  -11    7      0.08      0.00
   -7  -11    6      0.27      0.00
   -7  -11    5     -0.33      0.00
   -7  -11    4      0.14      0.00
   -7  -11    3     -0.19      0.00
   -7  -11    2      0.48      0.00
   -7  -11    1     -0.51      0.00
    7   11    0      0.16      0.00
    7   11    1      0.22      0.00
    7   11    2     -0.39      0.00
    7   11    3      0.38      0.00
    7   11    4     -0.44      0.00
    7   11    5      0.79      0.00
    7   11    6     -1.19      0.00
    7   11    7      1.09      0.00
    7   11    8     -0.58      0.00
    7   11    9      0.38      0.00
    7   11   10     -0.53      0.00
    7   11   11      0.30      0.00
    7   11   12      0.32      0.00
    7   11   13     -0.57      0.00
    7   11   14      0.34      0.00
    7   11   15     -0.31      0.00
    7   11   16      0.59      0.00
    7   11   17     -0.62      0.00
    7   11   18      0.27      0.00
   -7  -12    9      0.31      0.00
   -7  -12    8     -0.29      0.00
   -7  -12    7      0.02      0.00
   -7  -12    6      0.08      0.00
   -7  -12    5      0.08      0.00
   -7  -12    4     -0.05      0.00
   -7  -12    3     -0.28      0.00
   -7  -12    2      0.45      0.00
   -7  -12    1     -0.27      0.00
    7   12    0      0.04      0.00
    7   12    1      0.01      0.00
    7   12    2      0.02      0.00
    7   12    3      0.06      0.00
    7   12    4     -0.37      0.00
    7   12    5      0.80      0.00
    7   12    6     -0.91      0.00
    7   12    7      0.61      0.00
    7   12    8     -0.44      0.00
    7   12    9      0.67      0.00
    7   12   10     -0.69      0.00
    7   12   11      0.16      0.00
    7   12   12      0.28      0.00
    7   12   13     -0.18      0.00
    7   12   14      0.09      0.00
    7   12   15     -0.40      0.00
    7   12   16      0.64      0.00
   -7  -13    8     -0.17      0.00
   -7  -13    7      0.09      0.00
   -7  -13    5      0.27      0.00
   -7  -13    4     -0.02      0.00
   -7  -13    3     -0.21      0.00
   -7  -13    2      0.16      0.00
   -7  -13    1     -0.08      0.00
    7   13    0      0.14      0.00
    7   13    1     -0.23      0.00
    7   13    2      0.20      0.00
    7   13    3     -0.03      0.00
    7   13    4     -0.28      0.00
    7   13    5      0.50      0.00
    7   13    6     -0.42      0.00
    7   13    7      0.30      0.00
    7   13    8     -0.53      0.00
    7   13    9      0.75      0.00
    7   13   10     -0.46      0.00
    7   13   11      0.01      0.00
    7   13   12      0.01      0.00
    7   13   13      0.13      0.00
    7   13   14      0.11      0.00
    7   13   15     -0.47      0.00
   -7  -14    5      0.24      0.00
   -7  -14    4     -0.07      0.00
   -7  -14    3      0.03      0.00
   -7  -14    2     -0.03      0.00
   -7  -14    1     -0.09      0.00
    7   14    0      0.21      0.00
    7   14    1     -0.24      0.00
    7   14    2      0.23      0.00
    7   14    3     -0.13      0.00
    7   14    4     -0.06      0.00
    7   14    5      0.13      0.00
    7   14    6     -0.06      0.00
    7   14    7      0.19      0.00
    7   14    8     -0.50      0.00
    7   14    9      0.49      0.00
    7   14   10     -0.17      0.00
    7   14   11      0.07      0.00
    7   14   12     -0.23      0.00
    7   14   13      0.14      0.00
    7   14   14      0.20      0.00
   -7  -15    3      0.16      0.00
   -7  -15    2     -0.07      0.00
   -7  -15    1     -0.04      0.00
    7   15    0      0.11      0.00
    7   15    1     -0.21      0.00
    7   15    2      0.31      0.00
    7   15    3     -0.23      0.00
    7   15    4      0.09      0.00
    7   15    5     -0.13      0.00
    7   15    6      0.14      0.00
    7   15    7      0.09      0.00
    7   15    8     -0.28      0.00
    7   15    9      0.16      0.00
    7   15   10     -0.05      0.00
    7   15   11      0.18      0.00
    7   15   12     -0.24      0.00
    7   16    7     -0.01      0.00
    7   16    8     -0.04      0.00
   -8    9    4     -0.11      0.00
   -8    9    3      0.23      0.00
   -8    9    2     -0.21      0.00
   -8    9    0     -0.22      0.00
    8   -9    1      0.11      0.00
    8   -9    2      0.09      0.00
    8   -9    3     -0.11      0.00
   -8    8    8     -0.31      0.00
   -8    8    6     -0.14      0.00
   -8    8    5      0.12      0.00
   -8    8    4     -0.23      0.00
   -8    8    3      0.28      0.00
   -8    8    2     -0.30      0.00
   -8    8    1      0.35      0.00
   -8    8    0     -0.30      0.00
    8   -8    1      0.12      0.00
    8   -8    2     -0.05      0.00
    8   -8    3      0.13      0.00
    8   -8    4     -0.07      0.00
    8   -8    5     -0.21      0.00
   -8    7    9      0.21      0.00
   -8    7    8     -0.33      0.00
   -8    7    7      0.27      0.00
   -8    7    6     -0.16      0.00
   -8    7    5      0.16      0.00
   -8    7    4     -0.24      0.00
   -8    7    3      0.35      0.00
   -8    7    2     -0.44      0.00
   -8    7    1      0.40      0.00
   -8    7    0     -0.27      0.00
    8   -7    1      0.25      0.00
    8   -7    2     -0.37      0.00
    8   -7    3      0.35      0.00
    8   -7    4     -0.06      0.00
    8   -7    5     -0.26      0.00
    8   -7    6      0.39      0.00
    8   -7    7     -0.37      0.00
    8   -7    8      0.36      0.00
    8   -7    9     -0.39      0.00
   -8    6   10     -0.09      0.00
   -8    6    9      0.27      0.00
   -8    6    8     -0.34      0.00
   -8    6    7      0.23      0.00
   -8    6    6     -0.10      0.00
   -8    6    5      0.12      0.00
   -8    6    4     -0.30      0.00
   -8    6    3      0.45      0.00
   -8    6    2     -0.41      0.00
   -8    6    1      0.30      0.00
   -8    6    0     -0.37      0.00
    8   -6    1      0.59      0.00
    8   -6    2     -0.62      0.00
    8   -6    3      0.36      0.00
    8   -6    4     -0.04      0.00
    8   -6    5     -0.13      0.00
    8   -6    6      0.18      0.00
    8   -6    7     -0.25      0.00
    8   -6    8      0.40      0.00
    8   -6    9     -0.58      0.00
    8   -6   10      0.65      0.00
    8   -6   11     -0.51      0.00
   -8    5   10     -0.15      0.00
   -8    5    9      0.31      0.00
   -8    5    8     -0.26      0.00
   -8    5    7      0.07      0.00
   -8    5    6      0.00      0.00
   -8    5    5      0.17      0.00
   -8    5    4     -0.37      0.00
   -8    5    3      0.33      0.00
   -8    5    2     -0.20      0.00
   -8    5    1      0.33      0.00
   -8    5    0     -0.68      0.00
    8   -5    1      0.79      0.00
    8   -5    2     -0.56      0.00
    8   -5    3      0.34      0.00
    8   -5    4     -0.27      0.00
    8   -5    5      0.20      0.00
    8   -5    6     -0.04      0.00
    8   -5    7     -0.20      0.00
    8   -5    8      0.50      0.00
    8   -5    9     -0.75      0.00
    8   -5   10      0.73      0.00
    8   -5   11     -0.49      0.00
    8   -5   12      0.33      0.00
    8   -5   13     -0.28      0.00
   -8    4   10     -0.21      0.00
   -8    4    9      0.23      0.00
   -8    4    8     -0.08      0.00
   -8    4    7     -0.06      0.00
   -8    4    6      0.00      0.00
   -8    4    5      0.18      0.00
   -8    4    4     -0.19      0.00
   -8    4    3      0.05      0.00
   -8    4    2     -0.15      0.00
   -8    4    1      0.57      0.00
   -8    4    0     -0.79      0.00
    8   -4    1      0.60      0.00
    8   -4    2     -0.47      0.00
    8   -4    3      0.61      0.00
    8   -4    4     -0.66      0.00
    8   -4    5      0.42      0.00
    8   -4    6     -0.12      0.00
    8   -4    7     -0.16      0.00
    8   -4    8      0.51      0.00
    8   -4    9     -0.69      0.00
    8   -4   10      0.60      0.00
    8   -4   11     -0.54      0.00
    8   -4   12      0.67      0.00
   -8    3   10     -0.13      0.00
   -8    3    9      0.08      0.00
   -8    3    8      0.03      0.00
   -8    3    7     -0.11      0.00
   -8    3    6      0.05      0.00
   -8    3    5      0.00      0.00
   -8    3    4      0.09      0.00
   -8    3    3     -0.06      0.00
   -8    3    2     -0.29      0.00
   -8    3    1      0.57      0.00
   -8    3    0     -0.47      0.00
    8   -3    1      0.40      0.00
    8   -3    2     -0.73      0.00
    8   -3    3      0.99      0.00
    8   -3    4     -0.77      0.00
    8   -3    5      0.43      0.00
    8   -3    6     -0.27      0.00
    8   -3    7      0.02      0.00
    8   -3    8      0.34      0.00
    8   -3    9     -0.47      0.00
    8   -3   10      0.51      0.00
    8   -3   11     -0.78      0.00
    8   -3   12      1.01      0.00
    8   -3   13     -0.75      0.00
    8   -3   14      0.30      0.00
    8   -3   15     -0.14      0.00
   -8    2   13      0.09      0.00
   -8    2   12     -0.07      0.00
   -8    2   11      0.02      0.00
   -8    2   10     -0.05      0.00
   -8    2    9      0.06      0.00
   -8    2    8      0.09      0.00
   -8    2    7     -0.24      0.00
   -8    2    6      0.21      0.00
   -8    2    5     -0.17      0.00
   -8    2    4      0.19      0.00
   -8    2    3     -0.05      0.00
   -8    2    2     -0.18      0.00
   -8    2    1      0.19      0.00
   -8    2    0     -0.18      0.00
    8   -2    1      0.57      0.00
    8   -2    2     -1.03      0.00
    8   -2    3      0.95      0.00
    8   -2    4     -0.63      0.00
    8   -2    5      0.61      0.00
    8   -2    6     -0.62      0.00
    8   -2    7      0.26      0.00
    8   -2    8      0.11      0.00
    8   -2    9     -0.25      0.00
    8   -2   10      0.55      0.00
    8   -2   11     -1.00      0.00
    8   -2   12      1.01      0.00
    8   -2   13     -0.61      0.00
    8   -2   14      0.47      0.00
    8   -2   15     -0.60      0.00
    8   -2   16      0.43      0.00
   -8    1   14     -0.18      0.00
   -8    1   13      0.12      0.00
   -8    1   12      0.02      0.00
   -8    1   11      0.02      0.00
   -8    1   10     -0.15      0.00
   -8    1    9      0.04      0.00
   -8    1    8      0.29      0.00
   -8    1    7     -0.38      0.00
   -8    1    6      0.21      0.00
   -8    1    5     -0.18      0.00
   -8    1    4      0.29      0.00
   -8    1    3     -0.27      0.00
   -8    1    2      0.17      0.00
   -8    1    1     -0.09      0.00
   -8    1    0     -0.24      0.00
    8   -1    1      0.74      0.00
    8   -1    2     -0.85      0.00
    8   -1    3      0.63      0.00
    8   -1    4     -0.72      0.00
    8   -1    5      1.02      0.00
    8   -1    6     -0.87      0.00
    8   -1    7      0.38      0.00
    8   -1    8     -0.14      0.00
    8   -1    9     -0.06      0.00
    8   -1   10      0.56      0.00
    8   -1   11     -0.91      0.00
    8   -1   12      0.73      0.00
    8   -1   13     -0.63      0.00
    8   -1   14      0.91      0.00
    8   -1   15     -0.95      0.00
    8   -1   16      0.42      0.00
   -8    0   14     -0.21      0.00
   -8    0   13      0.04      0.00
   -8    0   12     -0.02      0.00
   -8    0   11      0.22      0.00
   -8    0   10     -0.21      0.00
   -8    0    9     -0.17      0.00
   -8    0    8      0.41      0.00
   -8    0    7     -0.21      0.00
   -8    0    6      0.05      0.00
   -8    0    5     -0.31      0.00
   -8    0    4      0.59      0.00
   -8    0    3     -0.52      0.00
   -8    0    2      0.31      0.00
   -8    0    1     -0.10      0.00
    8    0    0     -0.23      0.00
    8    0    1      0.44      0.00
    8    0    2     -0.41      0.00
    8    0    3      0.57      0.00
    8    0    4     -1.06      0.00
    8    0    5      1.22      0.00
    8    0    6     -0.83      0.00
    8    0    7      0.53      0.00
    8    0    8     -0.48      0.00
    8    0    9      0.13      0.00
    8    0   10      0.42      0.00
    8    0   11     -0.55      0.00
    8    0   12      0.53      0.00
    8    0   13     -0.89      0.00
    8    0   14      1.23      0.00
    8    0   15     -0.89      0.00
    8    0   16      0.32      0.00
    8    0   17     -0.22      0.00
   -8   -1   15      0.28      0.00
   -8   -1   14     -0.13      0.00
   -8   -1   13      0.08      0.00
   -8   -1   12     -0.26      0.00
   -8   -1   11      0.36      0.00
   -8   -1   10     -0.06      0.00
   -8   -1    9     -0.27      0.00
   -8   -1    8      0.13      0.00
   -8   -1    7      0.13      0.00
   -8   -1    6      0.13      0.00
   -8   -1    5     -0.65      0.00
   -8   -1    4      0.72      0.00
   -8   -1    3     -0.42      0.00
   -8   -1    2      0.29      0.00
   -8   -1    1     -0.27      0.00
    8    1    0      0.13      0.00
    8    1    1      0.02      0.00
    8    1    2     -0.25      0.00
    8    1    3      0.74      0.00
    8    1    4     -1.13      0.00
    8    1    5      1.01      0.00
    8    1    6     -0.79      0.00
    8    1    7      0.86      0.00
    8    1    8     -0.78      0.00
    8    1    9      0.29      0.00
    8    1   10      0.08      0.00
    8    1   11     -0.17      0.00
    8    1   12      0.54      0.00
    8    1   13     -1.10      0.00
    8    1   14      1.09      0.00
    8    1   15     -0.62      0.00
    8    1   16      0.50      0.00
    8    1   17     -0.69      0.00
    8    1   18      0.51      0.00
   -8   -2   15      0.18      0.00
   -8   -2   14     -0.15      0.00
   -8   -2   13      0.29      0.00
   -8   -2   12     -0.41      0.00
   -8   -2   11      0.27      0.00
   -8   -2   10      0.00      0.00
   -8   -2    9      0.04      0.00
   -8   -2    8     -0.29      0.00
   -8   -2    7      0.15      0.00
   -8   -2    6      0.43      0.00
   -8   -2    5     -0.67      0.00
   -8   -2    4      0.39      0.00
   -8   -2    3     -0.28      0.00
   -8   -2    2      0.54      0.00
   -8   -2    1     -0.65      0.00
    8    2    0      0.42      0.00
    8    2    1     -0.12      0.00
    8    2    2     -0.23      0.00
    8    2    3      0.64      0.00
    8    2    4     -0.80      0.00
    8    2    5      0.78      0.00
    8    2    6     -0.94      0.00
    8    2    7      1.14      0.00
    8    2    8     -0.91      0.00
    8    2    9      0.52      0.00
    8    2   10     -0.34      0.00
    8    2   11      0.03      0.00
    8    2   12      0.59      0.00
    8    2   13     -0.89      0.00
    8    2   14      0.65      0.00
    8    2   15     -0.58      0.00
    8    2   16      0.91      0.00
    8    2   17     -0.93      0.00
    8    2   18      0.41      0.00
   -8   -3   14     -0.29      0.00
   -8   -3   13      0.39      0.00
   -8   -3   12     -0.38      0.00
   -8   -3   11      0.26      0.00
   -8   -3   10     -0.25      0.00
   -8   -3    9      0.42      0.00
   -8   -3    8     -0.39      0.00
   -8   -3    7     -0.04      0.00
   -8   -3    6      0.36      0.00
   -8   -3    5     -0.19      0.00
   -8   -3    4      0.09      0.00
   -8   -3    3     -0.49      0.00
   -8   -3    2      0.89      0.00
   -8   -3    1     -0.74      0.00
    8    3    0      0.41      0.00
    8    3    1     -0.24      0.00
    8    3    2      0.04      0.00
    8    3    3      0.26      0.00
    8    3    4     -0.47      0.00
    8    3    5      0.71      0.00
    8    3    6     -1.06      0.00
    8    3    7      1.17      0.00
    8    3    8     -0.97      0.00
    8    3    9      0.81      0.00
    8    3   10     -0.62      0.00
    8    3   11      0.11      0.00
    8    3   12      0.35      0.00
    8    3   13     -0.34      0.00
    8    3   14      0.36      0.00
    8    3   15     -0.83      0.00
    8    3   16      1.12      0.00
    8    3   17     -0.75      0.00
    8    3   18      0.27      0.00
    8    3   19     -0.21      0.00
   -8   -4   14     -0.31      0.00
   -8   -4   13      0.35      0.00
   -8   -4   12     -0.41      0.00
   -8   -4   11      0.44      0.00
   -8   -4   10     -0.49      0.00
   -8   -4    9      0.52      0.00
   -8   -4    8     -0.33      0.00
   -8   -4    7      0.09      0.00
   -8   -4    6     -0.12      0.00
   -8   -4    5      0.19      0.00
   -8   -4    4      0.20      0.00
   -8   -4    3     -0.75      0.00
   -8   -4    2      0.80      0.00
   -8   -4    1     -0.53      0.00
    8    4    0      0.50      0.00
    8    4    1     -0.59      0.00
    8    4    2      0.40      0.00
    8    4    3     -0.06      0.00
    8    4    4     -0.24      0.00
    8    4    5      0.60      0.00
    8    4    6     -0.95      0.00
    8    4    7      1.06      0.00
    8    4    8     -1.04      0.00
    8    4    9      0.99      0.00
    8    4   10     -0.72      0.00
    8    4   11      0.33      0.00
    8    4   12     -0.19      0.00
    8    4   13      0.10      0.00
    8    4   14      0.42      0.00
    8    4   15     -0.96      0.00
    8    4   16      0.86      0.00
    8    4   17     -0.42      0.00
    8    4   18      0.39      0.00
    8    4   19     -0.54      0.00
   -8   -5   14     -0.24      0.00
   -8   -5   13      0.39      0.00
   -8   -5   12     -0.51      0.00
   -8   -5   11      0.50      0.00
   -8   -5   10     -0.51      0.00
   -8   -5    9      0.55      0.00
   -8   -5    8     -0.51      0.00
   -8   -5    7      0.46      0.00
   -8   -5    6     -0.45      0.00
   -8   -5    5      0.19      0.00
   -8   -5    4      0.32      0.00
   -8   -5    3     -0.55      0.00
   -8   -5    2      0.42      0.00
   -8   -5    1     -0.48      0.00
    8    5    0      0.81      0.00
    8    5    1     -0.88      0.00
    8    5    2      0.59      0.00
    8    5    3     -0.30      0.00
    8    5    4      0.03      0.00
    8    5    5      0.36      0.00
    8    5    6     -0.71      0.00
    8    5    7      0.88      0.00
    8    5    8     -0.99      0.00
    8    5    9      1.00      0.00
    8    5   10     -0.84      0.00
    8    5   11      0.73      0.00
    8    5   12     -0.64      0.00
    8    5   13      0.18      0.00
    8    5   14      0.48      0.00
    8    5   15     -0.65      0.00
    8    5   16      0.36      0.00
    8    5   17     -0.35      0.00
    8    5   18      0.67      0.00
   -8   -6   12     -0.42      0.00
   -8   -6   11      0.40      0.00
   -8   -6   10     -0.58      0.00
   -8   -6    9      0.74      0.00
   -8   -6    8     -0.70      0.00
   -8   -6    7      0.61      0.00
   -8   -6    6     -0.50      0.00
   -8   -6    5      0.21      0.00
   -8   -6    4      0.09      0.00
   -8   -6    3     -0.14      0.00
   -8   -6    2      0.24      0.00
   -8   -6    1     -0.65      0.00
    8    6    0      0.99      0.00
    8    6    1     -0.92      0.00
    8    6    2      0.72      0.00
    8    6    3     -0.59      0.00
    8    6    4      0.32      0.00
    8    6    5      0.08      0.00
    8    6    6     -0.37      0.00
    8    6    7      0.59      0.00
    8    6    8     -0.84      0.00
    8    6    9      0.99      0.00
    8    6   10     -1.03      0.00
    8    6   11      1.01      0.00
    8    6   12     -0.74      0.00
    8    6   13      0.16      0.00
    8    6   14      0.19      0.00
    8    6   15     -0.07      0.00
    8    6   16      0.08      0.00
    8    6   17     -0.52      0.00
    8    6   18      0.78      0.00
   -8   -7   13      0.27      0.00
   -8   -7   12     -0.25      0.00
   -8   -7   11      0.46      0.00
   -8   -7   10     -0.75      0.00
   -8   -7    9      0.77      0.00
   -8   -7    8     -0.63      0.00
   -8   -7    7      0.62      0.00
   -8   -7    6     -0.61      0.00
   -8   -7    5      0.40      0.00
   -8   -7    4     -0.21      0.00
   -8   -7    3      0.09      0.00
   -8   -7    2      0.24      0.00
   -8   -7    1     -0.71      0.00
    8    7    0      0.91      0.00
    8    7    1     -0.89      0.00
    8    7    2      0.89      0.00
    8    7    3     -0.81      0.00
    8    7    4      0.55      0.00
    8    7    5     -0.30      0.00
    8    7    6      0.06      0.00
    8    7    7      0.32      0.00
    8    7    8     -0.73      0.00
    8    7    9      0.95      0.00
    8    7   10     -1.04      0.00
    8    7   11      1.00      0.00
    8    7   12     -0.69      0.00
    8    7   13      0.34      0.00
    8    7   14     -0.32      0.00
    8    7   15      0.32      0.00
    8    7   16      0.10      0.00
    8    7   17     -0.60      0.00
    8    7   18      0.57      0.00
   -8   -8   12     -0.29      0.00
   -8   -8   11      0.59      0.00
   -8   -8   10     -0.65      0.00
   -8   -8    9      0.50      0.00
   -8   -8    8     -0.56      0.00
   -8   -8    7      0.77      0.00
   -8   -8    6     -0.72      0.00
   -8   -8    5      0.48      0.00
   -8   -8    4     -0.36      0.00
   -8   -8    3      0.21      0.00
   -8   -8    2      0.19      0.00
   -8   -8    1     -0.60      0.00
    8    8    0      0.77      0.00
    8    8    1     -0.86      0.00
    8    8    2      0.94      0.00
    8    8    3     -0.93      0.00
    8    8    4      0.85      0.00
    8    8    5     -0.73      0.00
    8    8    6      0.36      0.00
    8    8    7      0.18      0.00
    8    8    8     -0.53      0.00
    8    8    9      0.67      0.00
    8    8   10     -0.84      0.00
    8    8   11      0.90      0.00
    8    8   12     -0.74      0.00
    8    8   13      0.64      0.00
    8    8   14     -0.67      0.00
    8    8   15      0.40      0.00
    8    8   16      0.15      0.00
    8    8   17     -0.42      0.00
    8    8   18      0.24      0.00
   -8   -9   11      0.43      0.00
   -8   -9   10     -0.29      0.00
   -8   -9    9      0.36      0.00
   -8   -9    8     -0.70      0.00
   -8   -9    7      0.80      0.00
   -8   -9    6     -0.57      0.00
   -8   -9    5      0.46      0.00
   -8   -9    4     -0.51      0.00
   -8   -9    3      0.31      0.00
   -8   -9    2      0.15      0.00
   -8   -9    1     -0.46      0.00
    8    9    0      0.58      0.00
    8    9    1     -0.73      0.00
    8    9    2      0.93      0.00
    8    9    3     -1.10      0.00
    8    9    4      1.16      0.00
    8    9    5     -0.91      0.00
    8    9    6      0.41      0.00
    8    9    7     -0.05      0.00
    8    9    8     -0.07      0.00
    8    9    9      0.31      0.00
    8    9   10     -0.69      0.00
    8    9   11      0.83      0.00
    8    9   12     -0.76      0.00
    8    9   13      0.80      0.00
    8    9   14     -0.77      0.00
    8    9   15      0.37      0.00
    8    9   16      0.05      0.00
    8    9   17     -0.10      0.00
   -8  -10   10     -0.15      0.00
   -8  -10    9      0.50      0.00
   -8  -10    8     -0.68      0.00
   -8  -10    7      0.48      0.00
   -8  -10    6     -0.38      0.00
   -8  -10    5      0.58      0.00
   -8  -10    4     -0.61      0.00
   -8  -10    3      0.24      0.00
   -8  -10    2      0.12      0.00
   -8  -10    1     -0.21      0.00
    8   10    0      0.31      0.00
    8   10    1     -0.62      0.00
    8   10    2      0.99      0.00
    8   10    3     -1.22      0.00
    8   10    4      1.15      0.00
    8   10    5     -0.80      0.00
    8   10    6      0.53      0.00
    8   10    7     -0.52      0.00
    8   10    8      0.36      0.00
    8   10    9      0.17      0.00
    8   10   10     -0.59      0.00
    8   10   11      0.63      0.00
    8   10   12     -0.65      0.00
    8   10   13      0.82      0.00
    8   10   14     -0.75      0.00
    8   10   15      0.35      0.00
    8   10   16     -0.13      0.00
    8   10   17      0.18      0.00
   -8  -11    9      0.46      0.00
   -8  -11    8     -0.29      0.00
   -8  -11    7      0.18      0.00
   -8  -11    6     -0.43      0.00
   -8  -11    5      0.65      0.00
   -8  -11    4     -0.42      0.00
   -8  -11    3      0.09      0.00
   -8  -11    2     -0.07      0.00
   -8  -11    1      0.09      0.00
    8   11    0      0.19      0.00
    8   11    1     -0.64      0.00
    8   11    2      0.96      0.00
    8   11    3     -1.03      0.00
    8   11    4      0.88      0.00
    8   11    5     -0.77      0.00
    8   11    6      0.87      0.00
    8   11    7     -0.88      0.00
    8   11    8      0.42      0.00
    8   11    9      0.15      0.00
    8   11   10     -0.30      0.00
    8   11   11      0.29      0.00
    8   11   12     -0.55      0.00
    8   11   13      0.80      0.00
    8   11   14     -0.62      0.00
    8   11   15      0.34      0.00
    8   11   16     -0.33      0.00
    8   11   17      0.36      0.00
   -8  -12    8      0.03      0.00
   -8  -12    7      0.19      0.00
   -8  -12    5      0.40      0.00
   -8  -12    4     -0.13      0.00
   -8  -12    3      0.16      0.00
   -8  -12    2     -0.32      0.00
   -8  -12    1      0.16      0.00
    8   12    0      0.24      0.00
    8   12    1     -0.55      0.00
    8   12    2      0.67      0.00
    8   12    3     -0.68      0.00
    8   12    4      0.71      0.00
    8   12    5     -0.90      0.00
    8   12    6      1.07      0.00
    8   12    7     -0.83      0.00
    8   12    8      0.30      0.00
    8   12    9     -0.08      0.00
    8   12   10      0.13      0.00
    8   12   11      0.10      0.00
    8   12   12     -0.54      0.00
    8   12   13      0.64      0.00
    8   12   14     -0.41      0.00
    8   12   15      0.37      0.00
    8   12   16     -0.49      0.00
   -8  -13    5      0.04      0.00
   -8  -13    4     -0.09      0.00
   -8  -13    3      0.33      0.00
   -8  -13    2     -0.31      0.00
   -8  -13    1      0.03      0.00
    8   13    0      0.19      0.00
    8   13    1     -0.26      0.00
    8   13    2      0.33      0.00
    8   13    3     -0.46      0.00
    8   13    4      0.67      0.00
    8   13    5     -0.91      0.00
    8   13    6      0.90      0.00
    8   13    7     -0.57      0.00
    8   13    8      0.35      0.00
    8   13    9     -0.42      0.00
    8   13   10      0.33      0.00
    8   13   11      0.12      0.00
    8   13   12     -0.42      0.00
    8   13   13      0.33      0.00
    8   13   14     -0.27      0.00
    8   13   15      0.45      0.00
   -8  -14    5     -0.05      0.00
   -8  -14    4     -0.18      0.00
   -8  -14    3      0.26      0.00
   -8  -14    2     -0.11      0.00
   -8  -14    1      0.00      0.00
    8   14    0     -0.02      0.00
    8   14    1     -0.03      0.00
    8   14    2      0.17      0.00
    8   14    3     -0.33      0.00
    8   14    4      0.53      0.00
    8   14    5     -0.68      0.00
    8   14    6      0.59      0.00
    8   14    7     -0.44      0.00
    8   14    8      0.50      0.00
    8   14    9     -0.55      0.00
    8   14   10      0.25      0.00
    8   14   11      0.11      0.00
    8   14   12     -0.14      0.00
    8   14   13      0.10      0.00
    8   15    1      0.02      0.00
    8   15    2      0.05      0.00
    8   15    3     -0.14      0.00
    8   15    4      0.32      0.00
    8   15    5     -0.42      0.00
    8   15    6      0.35      0.00
    8   15    7     -0.38      0.00
    8   15    8      0.52      0.00
    8   15    9     -0.43      0.00
   -9    8    2     -0.01      0.00
   -9    8    0     -0.07      0.00
    9   -8    1      0.20      0.00
    9   -8    2     -0.32      0.00
   -9    7    5      0.05      0.00
   -9    7    4     -0.01      0.00
   -9    7    3     -0.09      0.00
   -9    7    2      0.14      0.00
   -9    7    1     -0.08      0.00
   -9    7    0     -0.08      0.00
    9   -7    1      0.22      0.00
    9   -7    2     -0.20      0.00
    9   -7    3      0.12      0.00
    9   -7    4     -0.20      0.00
    9   -7    5      0.41      0.00
   -9    6    8      0.25      0.00
   -9    6    7     -0.22      0.00
   -9    6    5      0.01      0.00
   -9    6    4      0.12      0.00
   -9    6    3     -0.30      0.00
   -9    6    2      0.28      0.00
   -9    6    1     -0.07      0.00
   -9    6    0     -0.09      0.00
    9   -6    1      0.01      0.00
    9   -6    2      0.09      0.00
    9   -6    3      0.04      0.00
    9   -6    4     -0.34      0.00
    9   -6    5      0.56      0.00
    9   -6    6     -0.54      0.00
   -9    5    9     -0.21      0.00
   -9    5    8      0.30      0.00
   -9    5    7     -0.18      0.00
   -9    5    6      0.01      0.00
   -9    5    5     -0.08      0.00
   -9    5    4      0.35      0.00
   -9    5    3     -0.45      0.00
   -9    5    2      0.22      0.00
   -9    5    1     -0.04      0.00
   -9    5    0      0.19      0.00
    9   -5    1     -0.39      0.00
    9   -5    2      0.23      0.00
    9   -5    3      0.15      0.00
    9   -5    4     -0.41      0.00
    9   -5    5      0.45      0.00
    9   -5    6     -0.39      0.00
    9   -5    7      0.35      0.00
    9   -5    8     -0.43      0.00
    9   -5    9      0.54      0.00
    9   -5   10     -0.43      0.00
   -9    4    9     -0.25      0.00
   -9    4    8      0.23      0.00
   -9    4    7     -0.06      0.00
   -9    4    6      0.01      0.00
   -9    4    5     -0.26      0.00
   -9    4    4      0.49      0.00
   -9    4    3     -0.35      0.00
   -9    4    2      0.13      0.00
   -9    4    1     -0.31      0.00
   -9    4    0      0.64      0.00
    9   -4    1     -0.55      0.00
    9   -4    2      0.12      0.00
    9   -4    3      0.13      0.00
    9   -4    4     -0.13      0.00
    9   -4    5      0.17      0.00
    9   -4    6     -0.31      0.00
    9   -4    7      0.50      0.00
    9   -4    8     -0.71      0.00
    9   -4    9      0.75      0.00
    9   -4   10     -0.43      0.00
    9   -4   11      0.04      0.00
    9   -4   12      0.06      0.00
   -9    3   10      0.10      0.00
   -9    3    9     -0.17      0.00
   -9    3    8      0.10      0.00
   -9    3    7      0.03      0.00
   -9    3    6      0.08      0.00
   -9    3    5     -0.35      0.00
   -9    3    4      0.38      0.00
   -9    3    3     -0.18      0.00
   -9    3    2      0.30      0.00
   -9    3    1     -0.72      0.00
   -9    3    0      0.78      0.00
    9   -3    1     -0.39      0.00
    9   -3    2      0.16      0.00
    9   -3    3     -0.29      0.00
    9   -3    4      0.26      0.00
    9   -3    5      0.06      0.00
    9   -3    6     -0.38      0.00
    9   -3    7      0.61      0.00
    9   -3    8     -0.79      0.00
    9   -3    9      0.70      0.00
    9   -3   10     -0.39      0.00
    9   -3   11      0.29      0.00
    9   -3   12     -0.41      0.00
    9   -3   13      0.23      0.00
    9   -3   14      0.30      0.00
   -9    2   10      0.01      0.00
   -9    2    9     -0.07      0.00
   -9    2    8     -0.02      0.00
   -9    2    7      0.11      0.00
   -9    2    6      0.06      0.00
   -9    2    5     -0.26      0.00
   -9    2    4      0.20      0.00
   -9    2    3     -0.20      0.00
   -9    2    2      0.56      0.00
   -9    2    1     -0.80      0.00
   -9    2    0      0.57      0.00
    9   -2    1     -0.39      0.00
    9   -2    2      0.62      0.00
    9   -2    3     -0.73      0.00
    9   -2    4      0.34      0.00
    9   -2    5      0.10      0.00
    9   -2    6     -0.29      0.00
    9   -2    7      0.49      0.00
    9   -2    8     -0.67      0.00
    9   -2    9      0.61      0.00
    9   -2   10     -0.56      0.00
    9   -2   11      0.76      0.00
    9   -2   12     -0.74      0.00
    9   -2   13      0.19      0.00
    9   -2   14      0.33      0.00
    9   -2   15     -0.34      0.00
   -9    1   11      0.16      0.00
   -9    1   10     -0.01      0.00
   -9    1    9     -0.01      0.00
   -9    1    8     -0.20      0.00
   -9    1    7      0.24      0.00
   -9    1    6      0.02      0.00
   -9    1    5     -0.17      0.00
   -9    1    4      0.10      0.00
   -9    1    3     -0.22      0.00
   -9    1    2      0.54      0.00
   -9    1    1     -0.59      0.00
   -9    1    0      0.49      0.00
    9   -1    1     -0.74      0.00
    9   -1    2      1.01      0.00
    9   -1    3     -0.75      0.00
    9   -1    4      0.28      0.00
    9   -1    5     -0.14      0.00
    9   -1    6      0.05      0.00
    9   -1    7      0.29      0.00
    9   -1    8     -0.55      0.00
    9   -1    9      0.63      0.00
    9   -1   10     -0.86      0.00
    9   -1   11      1.05      0.00
    9   -1   12     -0.71      0.00
    9   -1   13      0.15      0.00
    9   -1   15      0.18      0.00
    9   -1   16      0.10      0.00
   -9    0   12     -0.23      0.00
   -9    0   11      0.11      0.00
   -9    0   10      0.02      0.00
   -9    0    9      0.18      0.00
   -9    0    8     -0.43      0.00
   -9    0    7      0.24      0.00
   -9    0    6      0.08      0.00
   -9    0    5     -0.03      0.00
   -9    0    4     -0.12      0.00
   -9    0    3     -0.09      0.00
   -9    0    2      0.40      0.00
   -9    0    1     -0.48      0.00
    9    0    0      0.64      0.00
    9    0    1     -0.96      0.00
    9    0    2      0.95      0.00
    9    0    3     -0.62      0.00
    9    0    4      0.52      0.00
    9    0    5     -0.60      0.00
    9    0    6      0.31      0.00
    9    0    7      0.19      0.00
    9    0    8     -0.44      0.00
    9    0    9      0.66      0.00
    9    0   10     -1.00      0.00
    9    0   11      1.00      0.00
    9    0   12     -0.60      0.00
    9    0   13      0.47      0.00
    9    0   14     -0.65      0.00
    9    0   15      0.45      0.00
    9    0   16      0.20      0.00
   -9   -1   13      0.19      0.00
   -9   -1   12     -0.16      0.00
   -9   -1   11     -0.02      0.00
   -9   -1   10     -0.09      0.00
   -9   -1    9      0.43      0.00
   -9   -1    8     -0.41      0.00
   -9   -1    7      0.03      0.00
   -9   -1    6      0.02      0.00
   -9   -1    5      0.33      0.00
   -9   -1    4     -0.36      0.00
   -9   -1    3     -0.07      0.00
   -9   -1    2      0.36      0.00
   -9   -1    1     -0.40      0.00
    9    1    0      0.59      0.00
    9    1    1     -0.82      0.00
    9    1    2      0.78      0.00
    9    1    3     -0.77      0.00
    9    1    4      0.94      0.00
    9    1    5     -0.84      0.00
    9    1    6      0.36      0.00
    9    1    7      0.02      0.00
    9    1    8     -0.23      0.00
    9    1    9      0.59      0.00
    9    1   10     -0.88      0.00
    9    1   11      0.79      0.00
    9    1   12     -0.73      0.00
    9    1   13      1.00      0.00
    9    1   14     -0.99      0.00
    9    1   15      0.36      0.00
    9    1   16      0.18      0.00
    9    1   17     -0.17      0.00
   -9   -2   13      0.12      0.00
   -9   -2   12      0.02      0.00
   -9   -2   11     -0.02      0.00
   -9   -2   10     -0.26      0.00
   -9   -2    9      0.38      0.00
   -9   -2    8     -0.10      0.00
   -9   -2    7     -0.03      0.00
   -9   -2    6     -0.35      0.00
   -9   -2    5      0.63      0.00
   -9   -2    4     -0.26      0.00
   -9   -2    3     -0.18      0.00
   -9   -2    2      0.15      0.00
   -9   -2    1     -0.08      0.00
    9    2    0      0.38      0.00
    9    2    1     -0.68      0.00
    9    2    2      0.80      0.00
    9    2    3     -0.97      0.00
    9    2    4      1.07      0.00
    9    2    5     -0.82      0.00
    9    2    6      0.48      0.00
    9    2    7     -0.30      0.00
    9    2    8      0.03      0.00
    9    2    9      0.39      0.00
    9    2   10     -0.60      0.00
    9    2   11      0.70      0.00
    9    2   12     -1.05      0.00
    9    2   13      1.28      0.00
    9    2   14     -0.86      0.00
    9    2   15      0.29      0.00
    9    2   16     -0.24      0.00
    9    2   17      0.35      0.00
   -9   -3   13     -0.04      0.00
   -9   -3   12      0.10      0.00
   -9   -3   11      0.03      0.00
   -9   -3   10     -0.18      0.00
   -9   -3    9      0.08      0.00
   -9   -3    8      0.06      0.00
   -9   -3    7      0.22      0.00
   -9   -3    6     -0.61      0.00
   -9   -3    5      0.44      0.00
   -9   -3    4      0.02      0.00
   -9   -3    3      0.02      0.00
   -9   -3    2     -0.34      0.00
   -9   -3    1      0.19      0.00
    9    3    0      0.35      0.00
    9    3    1     -0.64      0.00
    9    3    2      0.72      0.00
    9    3    3     -0.89      0.00
    9    3    4      0.97      0.00
    9    3    5     -0.86      0.00
    9    3    6      0.74      0.00
    9    3    7     -0.59      0.00
    9    3    8      0.26      0.00
    9    3    9      0.08      0.00
    9    3   10     -0.34      0.00
    9    3   11      0.76      0.00
    9    3   12     -1.18      0.00
    9    3   13      1.06      0.00
    9    3   14     -0.63      0.00
    9    3   15      0.60      0.00
    9    3   16     -0.82      0.00
    9    3   17      0.54      0.00
   -9   -4   13     -0.13      0.00
   -9   -4   12      0.15      0.00
   -9   -4   11     -0.08      0.00
   -9   -4   10      0.05      0.00
   -9   -4    9     -0.10      0.00
   -9   -4    8     -0.03      0.00
   -9   -4    7      0.34      0.00
   -9   -4    6     -0.36      0.00
   -9   -4    5      0.05      0.00
   -9   -4    4     -0.07      0.00
   -9   -4    3      0.53      0.00
   -9   -4    2     -0.61      0.00
   -9   -4    1      0.08      0.00
    9    4    0      0.34      0.00
    9    4    1     -0.34      0.00
    9    4    2      0.40      0.00
    9    4    3     -0.71      0.00
    9    4    4      0.92      0.00
    9    4    5     -0.94      0.00
    9    4    6      0.91      0.00
    9    4    7     -0.77      0.00
    9    4    8      0.52      0.00
    9    4    9     -0.23      0.00
    9    4   10     -0.21      0.00
    9    4   11      0.73      0.00
    9    4   12     -0.87      0.00
    9    4   13      0.64      0.00
    9    4   14     -0.70      0.00
    9    4   15      1.09      0.00
    9    4   16     -1.03      0.00
    9    4   17      0.38      0.00
    9    4   18      0.07      0.00
   -9   -5   13     -0.23      0.00
   -9   -5   12      0.27      0.00
   -9   -5   11     -0.21      0.00
   -9   -5   10      0.15      0.00
   -9   -5    9     -0.13      0.00
   -9   -5    8      0.02      0.00
   -9   -5    7      0.07      0.00
   -9   -5    6      0.02      0.00
   -9   -5    5      0.02      0.00
   -9   -5    4     -0.44      0.00
   -9   -5    3      0.72      0.00
   -9   -5    2     -0.39      0.00
   -9   -5    1     -0.03      0.00
    9    5    0     -0.02      0.00
    9    5    1      0.15      0.00
    9    5    2      0.17      0.00
    9    5    3     -0.63      0.00
    9    5    4      0.82      0.00
    9    5    5     -0.88      0.00
    9    5    6      0.95      0.00
    9    5    7     -0.92      0.00
    9    5    8      0.74      0.00
    9    5    9     -0.39      0.00
    9    5   10     -0.08      0.00
    9    5   11      0.35      0.00
    9    5   12     -0.32      0.00
    9    5   13      0.48      0.00
    9    5   14     -1.02      0.00
    9    5   15      1.25      0.00
    9    5   16     -0.76      0.00
    9    5   17      0.24      0.00
    9    5   18     -0.27      0.00
   -9   -6   12      0.32      0.00
   -9   -6   11     -0.20      0.00
   -9   -6   10      0.22      0.00
   -9   -6    9     -0.33      0.00
   -9   -6    8      0.30      0.00
   -9   -6    7     -0.20      0.00
   -9   -6    6      0.09      0.00
   -9   -6    5      0.18      0.00
   -9   -6    4     -0.50      0.00
   -9   -6    3      0.43      0.00
   -9   -6    2     -0.16      0.00
   -9   -6    1      0.24      0.00
    9    6    0     -0.52      0.00
    9    6    1      0.38      0.00
    9    6    2      0.12      0.00
    9    6    3     -0.44      0.00
    9    6    4      0.55      0.00
    9    6    5     -0.73      0.00
    9    6    6      0.94      0.00
    9    6    7     -0.97      0.00
    9    6    8      0.80      0.00
    9    6    9     -0.51      0.00
    9    6   10      0.27      0.00
    9    6   11     -0.19      0.00
    9    6   12     -0.01      0.00
    9    6   13      0.60      0.00
    9    6   14     -1.08      0.00
    9    6   15      0.88      0.00
    9    6   16     -0.42      0.00
    9    6   17      0.44      0.00
    9    6   18     -0.67      0.00
   -9   -7   12      0.21      0.00
   -9   -7   11     -0.25      0.00
   -9   -7   10      0.49      0.00
   -9   -7    9     -0.57      0.00
   -9   -7    8      0.38      0.00
   -9   -7    7     -0.21      0.00
   -9   -7    6      0.12      0.00
   -9   -7    5      0.07      0.00
   -9   -7    4     -0.21      0.00
   -9   -7    3      0.17      0.00
   -9   -7    2     -0.27      0.00
   -9   -7    1      0.60      0.00
    9    7    0     -0.70      0.00
    9    7    1      0.37      0.00
    9    7    2     -0.05      0.00
    9    7    3     -0.07      0.00
    9    7    4      0.27      0.00
    9    7    5     -0.59      0.00
    9    7    6      0.80      0.00
    9    7    7     -0.83      0.00
    9    7    8      0.81      0.00
    9    7    9     -0.75      0.00
    9    7   10      0.68      0.00
    9    7   11     -0.50      0.00
    9    7   12      0.01      0.00
    9    7   13      0.56      0.00
    9    7   14     -0.66      0.00
    9    7   15      0.37      0.00
    9    7   16     -0.39      0.00
    9    7   17      0.77      0.00
    9    7   18     -0.78      0.00
   -9   -8   11     -0.50      0.00
   -9   -8   10      0.67      0.00
   -9   -8    9     -0.49      0.00
   -9   -8    8      0.28      0.00
   -9   -8    7     -0.33      0.00
   -9   -8    6      0.36      0.00
   -9   -8    5     -0.15      0.00
   -9   -8    4     -0.03      0.00
   -9   -8    3      0.15      0.00
   -9   -8    2     -0.41      0.00
   -9   -8    1      0.67      0.00
    9    8    0     -0.64      0.00
    9    8    1      0.45      0.00
    9    8    2     -0.36      0.00
    9    8    3      0.23      0.00
    9    8    4      0.06      0.00
    9    8    5     -0.31      0.00
    9    8    6      0.49      0.00
    9    8    7     -0.70      0.00
    9    8    8      0.89      0.00
    9    8    9     -0.92      0.00
    9    8   10      0.80      0.00
    9    8   11     -0.52      0.00
    9    8   12      0.09      0.00
    9    8   13      0.17      0.00
    9    8   14     -0.10      0.00
    9    8   15      0.15      0.00
    9    8   16     -0.57      0.00
    9    8   17      0.84      0.00
   -9   -9   10      0.46      0.00
   -9   -9    9     -0.27      0.00
   -9   -9    8      0.41      0.00
   -9   -9    7     -0.62      0.00
   -9   -9    6      0.47      0.00
   -9   -9    5     -0.16      0.00
   -9   -9    4      0.04      0.00
   -9   -9    3      0.07      0.00
   -9   -9    2     -0.36      0.00
   -9   -9    1      0.60      0.00
    9    9    0     -0.61      0.00
    9    9    1      0.58      0.00
    9    9    2     -0.55      0.00
    9    9    3      0.42      0.00
    9    9    4     -0.25      0.00
    9    9    5      0.06      0.00
    9    9    6      0.28      0.00
    9    9    7     -0.67      0.00
    9    9    8      0.82      0.00
    9    9    9     -0.78      0.00
    9    9   10      0.73      0.00
    9    9   11     -0.59      0.00
    9    9   12      0.37      0.00
    9    9   13     -0.26      0.00
    9    9   14      0.19      0.00
    9    9   15      0.16      0.00
    9    9   16     -0.58      0.00
    9    9   17      0.60      0.00
   -9  -10    9     -0.36      0.00
   -9  -10    8      0.68      0.00
   -9  -10    7     -0.63      0.00
   -9  -10    6      0.29      0.00
   -9  -10    5     -0.18      0.00
   -9  -10    4      0.25      0.00
   -9  -10    3     -0.05      0.00
   -9  -10    2     -0.33      0.00
   -9  -10    1      0.52      0.00
    9   10    0     -0.54      0.00
    9   10    1      0.60      0.00
    9   10    2     -0.65      0.00
    9   10    3      0.66      0.00
    9   10    4     -0.57      0.00
    9   10    5      0.25      0.00
    9   10    6      0.21      0.00
    9   10    7     -0.46      0.00
    9   10    8      0.47      0.00
    9   10    9     -0.55      0.00
    9   10   10      0.74      0.00
    9   10   11     -0.73      0.00
    9   10   12      0.57      0.00
    9   10   13     -0.46      0.00
    9   10   14      0.27      0.00
    9   10   15      0.12      0.00
    9   10   16     -0.36      0.00
    9   10   17      0.28      0.00
   -9  -11    8      0.60      0.00
   -9  -11    5     -0.42      0.00
   -9  -11    4      0.38      0.00
   -9  -11    3      0.01      0.00
   -9  -11    2     -0.29      0.00
   -9  -11    1      0.33      0.00
    9   11    0     -0.40      0.00
    9   11    1      0.61      0.00
    9   11    2     -0.78      0.00
    9   11    3      0.83      0.00
    9   11    4     -0.65      0.00
    9   11    5      0.27      0.00
    9   11    6      0.00      0.00
    9   11    7     -0.01      0.00
    9   11    8      0.12      0.00
    9   11    9     -0.51      0.00
    9   11   10      0.77      0.00
    9   11   11     -0.68      0.00
    9   11   12      0.55      0.00
    9   11   13     -0.53      0.00
    9   11   14      0.33      0.00
    9   11   15     -0.02      0.00
    9   11   16     -0.10      0.00
   -9  -12    6      0.42      0.00
   -9  -12    5     -0.52      0.00
   -9  -12    4      0.22      0.00
   -9  -12    3      0.07      0.00
   -9  -12    2     -0.07      0.00
   -9  -12    1      0.10      0.00
    9   12    0     -0.37      0.00
    9   12    1      0.65      0.00
    9   12    2     -0.79      0.00
    9   12    3      0.77      0.00
    9   12    4     -0.58      0.00
    9   12    5      0.39      0.00
    9   12    6     -0.39      0.00
    9   12    7      0.34      0.00
    9   12    8      0.06      0.00
    9   12    9     -0.49      0.00
    9   12   10      0.54      0.00
    9   12   11     -0.44      0.00
    9   12   12      0.52      0.00
    9   12   13     -0.58      0.00
    9   12   14      0.36      0.00
    9   12   15     -0.14      0.00
   -9  -13    5     -0.28      0.00
   -9  -13    4      0.05      0.00
   -9  -13    3     -0.10      0.00
   -9  -13    2      0.16      0.00
   -9  -13    1      0.08      0.00
    9   13    0     -0.39      0.00
    9   13    1      0.55      0.00
    9   13    2     -0.61      0.00
    9   13    3      0.62      0.00
    9   13    4     -0.57      0.00
    9   13    5      0.60      0.00
    9   13    6     -0.63      0.00
    9   13    7      0.38      0.00
    9   13    8      0.06      0.00
    9   13    9     -0.23      0.00
    9   13   10      0.18      0.00
    9   13   11     -0.30      0.00
    9   13   12      0.54      0.00
    9   13   13     -0.51      0.00
    9   13   14      0.31      0.00
   -9  -14    3     -0.28      0.00
   -9  -14    2      0.12      0.00
   -9  -14    1      0.15      0.00
    9   14    0     -0.26      0.00
    9   14    1      0.31      0.00
    9   14    2     -0.44      0.00
    9   14    3      0.54      0.00
    9   14    4     -0.59      0.00
    9   14    5      0.67      0.00
    9   14    6     -0.61      0.00
    9   14    7      0.32      0.00
    9   14    8     -0.10      0.00
    9   14    9      0.10      0.00
    9   14   10      0.00      0.00
    9   14   11     -0.29      0.00
    9   14   12      0.42      0.00
    9   15    2     -0.36      0.00
    9   15    3      0.43      0.00
    9   15    4     -0.49      0.00
    9   15    5      0.58      0.00
    9   15    6     -0.51      0.00
    9   15    7      0.34      0.00
    9   15    8     -0.29      0.00
    9   15    9      0.25      0.00
    9   15   10     -0.02      0.00
  -10    6    4      0.24      0.00
  -10    6    3     -0.06      0.00
  -10    6    2      0.00      0.00
  -10    6    1     -0.16      0.00
  -10    6    0      0.35      0.00
   10   -6    1     -0.35      0.00
   10   -6    2      0.21      0.00
   10   -6    3     -0.14      0.00
  -10    5    6      0.14      0.00
  -10    5    4      0.04      0.00
  -10    5    3      0.16      0.00
  -10    5    2     -0.02      0.00
  -10    5    1     -0.29      0.00
  -10    5    0      0.33      0.00
   10   -5    1     -0.12      0.00
   10   -5    2      0.05      0.00
   10   -5    3     -0.24      0.00
   10   -5    4      0.46      0.00
   10   -5    5     -0.49      0.00
  -10    4    7      0.04      0.00
  -10    4    6      0.15      0.00
  -10    4    5     -0.05      0.00
  -10    4    4     -0.25      0.00
  -10    4    3      0.24      0.00
  -10    4    2      0.11      0.00
  -10    4    1     -0.26      0.00
  -10    4    0     -0.01      0.00
   10   -4    1      0.17      0.00
   10   -4    2      0.12      0.00
   10   -4    3     -0.48      0.00
   10   -4    4      0.53      0.00
   10   -4    5     -0.39      0.00
   10   -4    6      0.25      0.00
  -10    3    8     -0.16      0.00
  -10    3    7     -0.02      0.00
  -10    3    6      0.07      0.00
  -10    3    5      0.20      0.00
  -10    3    4     -0.38      0.00
  -10    3    3      0.12      0.00
  -10    3    2      0.13      0.00
  -10    3    1      0.13      0.00
  -10    3    0     -0.42      0.00
   10   -3    1      0.15      0.00
   10   -3    2      0.34      0.00
   10   -3    3     -0.44      0.00
   10   -3    4      0.27      0.00
   10   -3    5     -0.26      0.00
   10   -3    6      0.37      0.00
   10   -3    7     -0.47      0.00
   10   -3    8      0.50      0.00
   10   -3   10     -0.10      0.00
   10   -3   11      0.44      0.00
   10   -3   12     -0.38      0.00
  -10    2    8     -0.08      0.00
  -10    2    7     -0.07      0.00
  -10    2    6     -0.05      0.00
  -10    2    5      0.35      0.00
  -10    2    4     -0.31      0.00
  -10    2    3      0.05      0.00
  -10    2    2     -0.16      0.00
  -10    2    1      0.55      0.00
  -10    2    0     -0.46      0.00
   10   -2    1     -0.05      0.00
   10   -2    2      0.23      0.00
   10   -2    3     -0.01      0.00
   10   -2    4      0.04      0.00
   10   -2    5     -0.38      0.00
   10   -2    6      0.62      0.00
   10   -2    7     -0.64      0.00
   10   -2    8      0.57      0.00
   10   -2    9     -0.30      0.00
   10   -2   10     -0.03      0.00
   10   -2   11      0.08      0.00
   10   -2   12      0.00      0.00
   10   -2   13      0.28      0.00
  -10    1    8      0.05      0.00
  -10    1    7     -0.13      0.00
  -10    1    6     -0.13      0.00
  -10    1    5      0.36      0.00
  -10    1    4     -0.21      0.00
  -10    1    3      0.13      0.00
  -10    1    2     -0.48      0.00
  -10    1    1      0.65      0.00
  -10    1    0     -0.29      0.00
   10   -1    1      0.04      0.00
   10   -1    2     -0.26      0.00
   10   -1    3      0.32      0.00
   10   -1    4      0.14      0.00
   10   -1    5     -0.55      0.00
   10   -1    6      0.60      0.00
   10   -1    7     -0.58      0.00
   10   -1    8      0.57      0.00
   10   -1    9     -0.42      0.00
   10   -1   10      0.33      0.00
   10   -1   11     -0.38      0.00
   10   -1   12      0.15      0.00
   10   -1   13      0.44      0.00
  -10    0    9     -0.05      0.00
  -10    0    8      0.26      0.00
  -10    0    7     -0.15      0.00
  -10    0    6     -0.23      0.00
  -10    0    5      0.29      0.00
  -10    0    4     -0.08      0.00
  -10    0    3      0.22      0.00
  -10    0    2     -0.60      0.00
  -10    0    1      0.57      0.00
   10    0    0     -0.32      0.00
   10    0    1      0.43      0.00
   10    0    2     -0.61      0.00
   10    0    3      0.27      0.00
   10    0    4      0.25      0.00
   10    0    5     -0.37      0.00
   10    0    6      0.34      0.00
   10    0    7     -0.53      0.00
   10    0    8      0.69      0.00
   10    0    9     -0.69      0.00
   10    0   10      0.72      0.00
   10    0   11     -0.61      0.00
   10    0   12      0.10      0.00
   10    0   13      0.35      0.00
   10    0   14     -0.32      0.00
   10    0   15      0.22      0.00
  -10   -1   10      0.08      0.00
  -10   -1    9     -0.29      0.00
  -10   -1    8      0.37      0.00
  -10   -1    7     -0.02      0.00
  -10   -1    6     -0.25      0.00
  -10   -1    5      0.03      0.00
  -10   -1    4      0.10      0.00
  -10   -1    3      0.31      0.00
  -10   -1    2     -0.65      0.00
  -10   -1    1      0.52      0.00
   10    1    0     -0.46      0.00
   10    1    1      0.69      0.00
   10    1    2     -0.64      0.00
   10    1    3      0.21      0.00
   10    1    4      0.00      0.00
   10    1    5      0.02      0.00
   10    1    6      0.21      0.00
   10    1    7     -0.61      0.00
   10    1    8      0.81      0.00
   10    1    9     -0.88      0.00
   10    1   10      0.90      0.00
   10    1   11     -0.62      0.00
   10    1   12      0.22      0.00
   10    1   13     -0.14      0.00
   10    1   14      0.20      0.00
   10    1   15      0.14      0.00
  -10   -2   11     -0.15      0.00
  -10   -2   10      0.25      0.00
  -10   -2    9     -0.43      0.00
  -10   -2    8      0.24      0.00
  -10   -2    7      0.10      0.00
  -10   -2    6      0.03      0.00
  -10   -2    5     -0.34      0.00
  -10   -2    4      0.08      0.00
  -10   -2    3      0.49      0.00
  -10   -2    2     -0.58      0.00
  -10   -2    1      0.36      0.00
   10    2    0     -0.50      0.00
   10    2    1      0.77      0.00
   10    2    2     -0.65      0.00
   10    2    3      0.39      0.00
   10    2    4     -0.36      0.00
   10    2    5      0.23      0.00
   10    2    6      0.21      0.00
   10    2    7     -0.59      0.00
   10    2    8      0.77      0.00
   10    2    9     -0.90      0.00
   10    2   10      0.88      0.00
   10    2   11     -0.69      0.00
   10    2   12      0.64      0.00
   10    2   13     -0.72      0.00
   10    2   15      0.25      0.00
   10    2   16     -0.55      0.00
  -10   -3   11     -0.19      0.00
  -10   -3   10      0.34      0.00
  -10   -3    9     -0.32      0.00
  -10   -3    8      0.07      0.00
  -10   -3    7     -0.09      0.00
  -10   -3    6      0.43      0.00
  -10   -3    5     -0.39      0.00
  -10   -3    4     -0.20      0.00
  -10   -3    3      0.49      0.00
  -10   -3    2     -0.20      0.00
  -10   -3    1      0.13      0.00
   10    3    0     -0.59      0.00
   10    3    1      0.88      0.00
   10    3    2     -0.70      0.00
   10    3    3      0.56      0.00
   10    3    4     -0.55      0.00
   10    3    5      0.32      0.00
   10    3    6      0.09      0.00
   10    3    7     -0.39      0.00
   10    3    8      0.61      0.00
   10    3    9     -0.78      0.00
   10    3   10      0.83      0.00
   10    3   11     -0.93      0.00
   10    3   12      1.11      0.00
   10    3   13     -0.94      0.00
   10    3   14      0.32      0.00
   10    3   15      0.11      0.00
   10    3   16     -0.02      0.00
  -10   -4   11     -0.18      0.00
  -10   -4   10      0.25      0.00
  -10   -4    9     -0.18      0.00
  -10   -4    8      0.15      0.00
  -10   -4    7     -0.38      0.00
  -10   -4    6      0.47      0.00
  -10   -4    5     -0.07      0.00
  -10   -4    4     -0.29      0.00
  -10   -4    3      0.03      0.00
  -10   -4    2      0.23      0.00
  -10   -4    1      0.20      0.00
   10    4    0     -0.80      0.00
   10    4    1      0.82      0.00
   10    4    2     -0.58      0.00
   10    4    3      0.62      0.00
   10    4    4     -0.70      0.00
   10    4    5      0.48      0.00
   10    4    6     -0.13      0.00
   10    4    7     -0.15      0.00
   10    4    8      0.37      0.00
   10    4    9     -0.58      0.00
   10    4   10      0.85      0.00
   10    4   11     -1.19      0.00
   10    4   12      1.25      0.00
   10    4   13     -0.79      0.00
   10    4   14      0.36      0.00
   10    4   15     -0.43      0.00
   10    4   16      0.50      0.00
   10    4   17     -0.05      0.00
  -10   -5   11     -0.09      0.00
  -10   -5   10      0.19      0.00
  -10   -5    9     -0.20      0.00
  -10   -5    8      0.25      0.00
  -10   -5    7     -0.33      0.00
  -10   -5    5      0.08      0.00
  -10   -5    4      0.09      0.00
  -10   -5    3     -0.44      0.00
  -10   -5    2      0.19      0.00
  -10   -5    1      0.49      0.00
   10    5    0     -0.71      0.00
   10    5    1      0.44      0.00
   10    5    2     -0.43      0.00
   10    5    3      0.77      0.00
   10    5    4     -0.87      0.00
   10    5    5      0.61      0.00
   10    5    6     -0.32      0.00
   10    5    7      0.14      0.00
   10    5    8      0.07      0.00
   10    5    9     -0.42      0.00
   10    5   10      0.89      0.00
   10    5   11     -1.17      0.00
   10    5   12      0.97      0.00
   10    5   13     -0.65      0.00
   10    5   14      0.76      0.00
   10    5   15     -0.98      0.00
   10    5   16      0.61      0.00
   10    5   17      0.08      0.00
  -10   -6    9     -0.12      0.00
  -10   -6    8      0.08      0.00
  -10   -6    7     -0.08      0.00
  -10   -6    6      0.05      0.00
  -10   -6    5     -0.16      0.00
  -10   -6    4      0.44      0.00
  -10   -6    3     -0.39      0.00
  -10   -6    2     -0.13      0.00
  -10   -6    1      0.43      0.00
   10    6    0     -0.21      0.00
   10    6    1      0.11      0.00
   10    6    2     -0.53      0.00
   10    6    3      0.92      0.00
   10    6    4     -0.85      0.00
   10    6    5      0.62      0.00
   10    6    6     -0.54      0.00
   10    6    7      0.46      0.00
   10    6    8     -0.16      0.00
   10    6    9     -0.33      0.00
   10    6   10      0.73      0.00
   10    6   11     -0.76      0.00
   10    6   12      0.63      0.00
   10    6   13     -0.82      0.00
   10    6   14      1.21      0.00
   10    6   15     -1.07      0.00
   10    6   16      0.40      0.00
   10    6   17      0.01      0.00
  -10   -7   10      0.01      0.00
  -10   -7    9      0.17      0.00
  -10   -7    8     -0.11      0.00
  -10   -7    7     -0.06      0.00
  -10   -7    6      0.16      0.00
  -10   -7    5     -0.28      0.00
  -10   -7    4      0.33      0.00
  -10   -7    3     -0.10      0.00
  -10   -7    2     -0.13      0.00
  -10   -7    1     -0.01      0.00
   10    7    0      0.17      0.00
   10    7    1      0.15      0.00
   10    7    2     -0.64      0.00
   10    7    3      0.77      0.00
   10    7    4     -0.67      0.00
   10    7    5      0.70      0.00
   10    7    6     -0.78      0.00
   10    7    7      0.63      0.00
   10    7    8     -0.27      0.00
   10    7    9     -0.10      0.00
   10    7   10      0.27      0.00
   10    7   11     -0.31      0.00
   10    7   12      0.57      0.00
   10    7   13     -1.06      0.00
   10    7   14      1.21      0.00
   10    7   15     -0.74      0.00
   10    7   16      0.30      0.00
   10    7   17     -0.37      0.00
  -10   -8    9      0.30      0.00
  -10   -8    8     -0.01      0.00
  -10   -8    7     -0.12      0.00
  -10   -8    6      0.06      0.00
  -10   -8    5     -0.07      0.00
  -10   -8    4      0.11      0.00
  -10   -8    3     -0.08      0.00
  -10   -8    2      0.15      0.00
  -10   -8    1     -0.31      0.00
   10    8    0      0.17      0.00
   10    8    1      0.23      0.00
   10    8    2     -0.45      0.00
   10    8    3      0.47      0.00
   10    8    4     -0.59      0.00
   10    8    5      0.79      0.00
   10    8    6     -0.81      0.00
   10    8    7      0.64      0.00
   10    8    8     -0.46      0.00
   10    8    9      0.31      0.00
   10    8   10     -0.16      0.00
   10    8   11     -0.13      0.00
   10    8   12      0.61      0.00
   10    8   13     -0.94      0.00
   10    8   14      0.78      0.00
   10    8   15     -0.45      0.00
   10    8   16      0.51      0.00
   10    8   17     -0.73      0.00
  -10   -9    9      0.09      0.00
  -10   -9    8      0.05      0.00
  -10   -9    7      0.13      0.00
  -10   -9    6     -0.23      0.00
  -10   -9    5      0.04      0.00
  -10   -9    4      0.13      0.00
  -10   -9    3     -0.17      0.00
  -10   -9    2      0.26      0.00
  -10   -9    1     -0.29      0.00
   10    9    0      0.12      0.00
   10    9    1      0.06      0.00
   10    9    2     -0.15      0.00
   10    9    3      0.30      0.00
   10    9    4     -0.55      0.00
   10    9    5      0.66      0.00
   10    9    6     -0.67      0.00
   10    9    7      0.73      0.00
   10    9    8     -0.75      0.00
   10    9    9      0.59      0.00
   10    9   10     -0.31      0.00
   10    9   11     -0.05      0.00
   10    9   12      0.39      0.00
   10    9   13     -0.48      0.00
   10    9   14      0.38      0.00
   10    9   15     -0.46      0.00
   10    9   16      0.74      0.00
  -10  -10    8     -0.23      0.00
  -10  -10    6     -0.23      0.00
  -10  -10    5     -0.06      0.00
  -10  -10    4      0.10      0.00
  -10  -10    3     -0.08      0.00
  -10  -10    2      0.19      0.00
  -10  -10    1     -0.27      0.00
   10   10    0      0.22      0.00
   10   10    1     -0.13      0.00
   10   10    2      0.00      0.00
   10   10    3      0.19      0.00
   10   10    4     -0.32      0.00
   10   10    5      0.41      0.00
   10   10    6     -0.64      0.00
   10   10    7      0.86      0.00
   10   10    8     -0.81      0.00
   10   10    9      0.57      0.00
   10   10   10     -0.37      0.00
   10   10   11      0.20      0.00
   10   10   12     -0.02      0.00
   10   10   13     -0.10      0.00
   10   10   14      0.25      0.00
   10   10   15     -0.52      0.00
   10   10   16      0.69      0.00
  -10  -11    6     -0.04      0.00
  -10  -11    5      0.01      0.00
  -10  -11    4     -0.13      0.00
  -10  -11    3      0.02      0.00
  -10  -11    2      0.22      0.00
  -10  -11    1     -0.30      0.00
   10   11    0      0.25      0.00
   10   11    1     -0.20      0.00
   10   11    2      0.11      0.00
   10   11    3     -0.04      0.00
   10   11    4     -0.04      0.00
   10   11    5      0.30      0.00
   10   11    6     -0.66      0.00
   10   11    7      0.75      0.00
   10   11    8     -0.58      0.00
   10   11    9      0.52      0.00
   10   11   10     -0.57      0.00
   10   11   11      0.49      0.00
   10   11   12     -0.25      0.00
   10   11   13      0.04      0.00
   10   11   14      0.17      0.00
   10   11   15     -0.40      0.00
  -10  -12    5      0.28      0.00
  -10  -12    4     -0.22      0.00
  -10  -12    3     -0.07      0.00
  -10  -12    2      0.22      0.00
  -10  -12    1     -0.20      0.00
   10   12    0      0.21      0.00
   10   12    2      0.28      0.00
   10   12    3     -0.25      0.00
   10   12    5      0.27      0.00
   10   12    6     -0.47      0.00
   10   12    7      0.40      0.00
   10   12    8     -0.39      0.00
   10   12    9      0.62      0.00
   10   12   10     -0.72      0.00
   10   12   11      0.52      0.00
   10   12   12     -0.28      0.00
  -10  -13    3     -0.08      0.00
  -10  -13    2      0.04      0.00
  -10  -13    1     -0.09      0.00
   10   13    0      0.25      0.00
   10   13    1     -0.35      0.00
   10   13    2      0.35      0.00
   10   13    3     -0.30      0.00
   10   13    4      0.11      0.00
   10   13    5      0.10      0.00
   10   13    6     -0.12      0.00
   10   13    7      0.13      0.00
   10   13    8     -0.38      0.00
   10   13    9      0.64      0.00
   10   13   10     -0.58      0.00
   10   13   11      0.39      0.00
   10   13   12     -0.34      0.00
   10   13   13      0.29      0.00
   10   14    0      0.28      0.00
   10   14    1     -0.29      0.00
   10   14    2      0.32      0.00
   10   14    3     -0.32      0.00
   10   14    4      0.21      0.00
   10   14    5     -0.13      0.00
   10   14    6      0.12      0.00
   10   14    7      0.05      0.00
   10   14    8     -0.33      0.00
   10   14    9      0.42      0.00
   10   14   10     -0.34      0.00
   10   14   11      0.35      0.00
   10   15    5     -0.25      0.00
  -11    4    3     -0.03      0.00
  -11    4    2     -0.19      0.00
  -11    4    1      0.45      0.00
  -11    4    0     -0.32      0.00
   11   -4    1      0.02      0.00
   11   -4    2      0.00      0.00
  -11    3    5      0.19      0.00
  -11    3    2     -0.40      0.00
  -11    3    1      0.40      0.00
  -11    3    0     -0.02      0.00
   11   -3    1     -0.07      0.00
   11   -3    2     -0.27      0.00
   11   -3    3      0.48      0.00
   11   -3    4     -0.29      0.00
  -11    2    6     -0.23      0.00
  -11    2    5     -0.03      0.00
  -11    2    4      0.12      0.00
  -11    2    2     -0.39      0.00
  -11    2    1      0.05      0.00
  -11    2    0      0.19      0.00
   11   -2    1      0.17      0.00
   11   -2    2     -0.56      0.00
   11   -2    3      0.41      0.00
   11   -2    4     -0.09      0.00
   11   -2    5      0.09      0.00
   11   -2    8     -0.04      0.00
   11   -2    9     -0.19      0.00
  -11    1    7      0.21      0.00
  -11    1    6     -0.08      0.00
  -11    1    5     -0.17      0.00
  -11    1    4      0.04      0.00
  -11    1    3      0.27      0.00
  -11    1    1     -0.25      0.00
  -11    1    0      0.06      0.00
   11   -1    1      0.45      0.00
   11   -1    2     -0.44      0.00
   11   -1    3      0.08      0.00
   11   -1    4     -0.10      0.00
   11   -1    5      0.43      0.00
   11   -1    6     -0.50      0.00
   11   -1    7      0.28      0.00
   11   -1    9     -0.19      0.00
   11   -1   10      0.39      0.00
   11   -1   11     -0.38      0.00
  -11    0    7      0.20      0.00
  -11    0    6      0.08      0.00
  -11    0    5     -0.20      0.00
  -11    0    4     -0.08      0.00
  -11    0    3      0.17      0.00
   11    0    0     -0.15      0.00
   11    0    1      0.36      0.00
   11    0    2     -0.05      0.00
   11    0    3     -0.01      0.00
   11    0    4     -0.43      0.00
   11    0    5      0.69      0.00
   11    0    6     -0.49      0.00
   11    0    7      0.26      0.00
   11    0    8     -0.19      0.00
   11    0    9      0.08      0.00
   11    0   10      0.03      0.00
   11    0   11     -0.12      0.00
   11    0   12      0.39      0.00
   11    0   13     -0.75      0.00
  -11   -1    8     -0.26      0.00
  -11   -1    7      0.09      0.00
  -11   -1    6      0.20      0.00
  -11   -1    5     -0.08      0.00
  -11   -1    4     -0.21      0.00
  -11   -1    3      0.00      0.00
  -11   -1    2      0.37      0.00
  -11   -1    1     -0.20      0.00
   11    1    0     -0.16      0.00
   11    1    1      0.04      0.00
   11    1    2      0.16      0.00
   11    1    3      0.18      0.00
   11    1    4     -0.63      0.00
   11    1    5      0.58      0.00
   11    1    6     -0.36      0.00
   11    1    7      0.41      0.00
   11    1    8     -0.52      0.00
   11    1    9      0.43      0.00
   11    1   10     -0.25      0.00
   11    1   11     -0.03      0.00
   11    1   12      0.42      0.00
   11    1   13     -0.61      0.00
   11    1   14      0.47      0.00
  -11   -2    9      0.25      0.00
  -11   -2    8     -0.23      0.00
  -11   -2    7     -0.07      0.00
  -11   -2    6      0.13      0.00
  -11   -2    5      0.20      0.00
  -11   -2    4     -0.22      0.00
  -11   -2    3     -0.27      0.00
  -11   -2    2      0.44      0.00
  -11   -2    1     -0.08      0.00
   11    2    0     -0.06      0.00
   11    2    1     -0.21      0.00
   11    2    2      0.17      0.00
   11    2    3      0.29      0.00
   11    2    4     -0.48      0.00
   11    2    5      0.34      0.00
   11    2    6     -0.42      0.00
   11    2    7      0.70      0.00
   11    2    8     -0.79      0.00
   11    2    9      0.63      0.00
   11    2   10     -0.39      0.00
   11    2   11      0.07      0.00
   11    2   12      0.16      0.00
   11    2   13     -0.16      0.00
   11    2   14      0.20      0.00
  -11   -3    9      0.26      0.00
  -11   -3    8     -0.09      0.00
  -11   -3    7     -0.05      0.00
  -11   -3    6     -0.19      0.00
  -11   -3    5      0.36      0.00
  -11   -3    4      0.05      0.00
  -11   -3    3     -0.48      0.00
  -11   -3    2      0.27      0.00
  -11   -3    1      0.09      0.00
   11    3    0      0.12      0.00
   11    3    1     -0.43      0.00
   11    3    2      0.18      0.00
   11    3    3      0.20      0.00
   11    3    4     -0.23      0.00
   11    3    5      0.24      0.00
   11    3    6     -0.55      0.00
   11    3    7      0.85      0.00
   11    3    8     -0.86      0.00
   11    3    9      0.71      0.00
   11    3   10     -0.51      0.00
   11    3   11      0.35      0.00
   11    3   12     -0.33      0.00
   11    3   13      0.23      0.00
   11    3   14      0.18      0.00
  -11   -4    9      0.20      0.00
  -11   -4    8     -0.10      0.00
  -11   -4    7      0.20      0.00
  -11   -4    6     -0.39      0.00
  -11   -4    5      0.15      0.00
  -11   -4    4      0.34      0.00
  -11   -4    3     -0.31      0.00
  -11   -4    2     -0.12      0.00
  -11   -4    1      0.06      0.00
   11    4    0      0.47      0.00
   11    4    3      0.08      0.00
   11    4    4     -0.02      0.00
   11    4    5      0.17      0.00
   11    4    6     -0.55      0.00
   11    4    7      0.79      0.00
   11    4    8     -0.80      0.00
   11    4    9      0.73      0.00
   11    4   10     -0.70      0.00
   11    4   11      0.77      0.00
   11    4   12     -0.74      0.00
   11    4   13      0.34      0.00
   11    4   14      0.21      0.00
  -11   -5    9      0.24      0.00
  -11   -5    8     -0.24      0.00
  -11   -5    7      0.31      0.00
  -11   -5    5     -0.13      0.00
  -11   -5    4      0.21      0.00
  -11   -5    3      0.15      0.00
  -11   -5    2     -0.24      0.00
  -11   -5    1     -0.32      0.00
   11    5    0      0.73      0.00
   11    5    1     -0.43      0.00
   11    5    2      0.06      0.00
   11    5    3     -0.14      0.00
   11    5    4      0.25      0.00
   11    5    5      0.04      0.00
   11    5    6     -0.44      0.00
   11    5    7      0.63      0.00
   11    5    8     -0.66      0.00
   11    5    9      0.74      0.00
   11    5   10     -0.94      0.00
   11    5   11      1.08      0.00
   11    5   12     -0.83      0.00
   11    5   13      0.29      0.00
   11    5   14     -0.03      0.00
  -11   -6    7      0.15      0.00
  -11   -6    6     -0.03      0.00
  -11   -6    5     -0.03      0.00
  -11   -6    4     -0.19      0.00
  -11   -6    3      0.32      0.00
  -11   -6    2      0.10      0.00
  -11   -6    1     -0.62      0.00
   11    6    0      0.53      0.00
   11    6    1     -0.14      0.00
   11    6    2      0.19      0.00
   11    6    3     -0.51      0.00
   11    6    4      0.46      0.00
   11    6    5     -0.04      0.00
   11    6    6     -0.26      0.00
   11    6    7      0.34      0.00
   11    6    8     -0.47      0.00
   11    6    9      0.77      0.00
   11    6   10     -1.08      0.00
   11    6   11      1.06      0.00
   11    6   12     -0.68      0.00
   11    6   13      0.41      0.00
   11    6   14     -0.55      0.00
  -11   -7    8      0.00      0.00
  -11   -7    7      0.06      0.00
  -11   -7    6     -0.13      0.00
  -11   -7    5      0.22      0.00
  -11   -7    4     -0.28      0.00
  -11   -7    3      0.05      0.00
  -11   -7    2      0.36      0.00
  -11   -7    1     -0.42      0.00
   11    7    0      0.13      0.00
   11    7    1     -0.14      0.00
   11    7    2      0.55      0.00
   11    7    3     -0.73      0.00
   11    7    4      0.45      0.00
   11    7    5     -0.16      0.00
   11    7    6      0.08      0.00
   11    7    7      0.03      0.00
   11    7    8     -0.34      0.00
   11    7    9      0.73      0.00
   11    7   10     -0.92      0.00
   11    7   11      0.77      0.00
   11    7   12     -0.61      0.00
   11    7   13      0.77      0.00
   11    7   14     -0.94      0.00
  -11   -8    7      0.21      0.00
  -11   -8    6     -0.23      0.00
  -11   -8    5      0.16      0.00
  -11   -8    4     -0.05      0.00
  -11   -8    3     -0.13      0.00
  -11   -8    2      0.20      0.00
  -11   -8    1     -0.05      0.00
   11    8    0      0.06      0.00
   11    8    1     -0.42      0.00
   11    8    2      0.72      0.00
   11    8    3     -0.63      0.00
   11    8    4      0.44      0.00
   11    8    5     -0.44      0.00
   11    8    6      0.40      0.00
   11    8    7     -0.15      0.00
   11    8    8     -0.21      0.00
   11    8    9      0.46      0.00
   11    8   10     -0.52      0.00
   11    8   11      0.54      0.00
   11    8   12     -0.75      0.00
   11    8   13      1.02      0.00
   11    8   14     -0.88      0.00
  -11   -9    6     -0.01      0.00
  -11   -9    5     -0.06      0.00
  -11   -9    4      0.01      0.00
  -11   -9    3      0.01      0.00
  -11   -9    2     -0.03      0.00
  -11   -9    1      0.00      0.00
   11    9    0      0.24      0.00
   11    9    1     -0.51      0.00
   11    9    2      0.56      0.00
   11    9    3     -0.52      0.00
   11    9    4      0.61      0.00
   11    9    5     -0.67      0.00
   11    9    6      0.52      0.00
   11    9    7     -0.28      0.00
   11    9    8      0.11      0.00
   11    9    9      0.03      0.00
   11    9   10     -0.22      0.00
   11    9   11      0.50      0.00
   11    9   12     -0.79      0.00
   11    9   13      0.85      0.00
   11    9   14     -0.58      0.00
  -11  -10    6      0.20      0.00
  -11  -10    5     -0.02      0.00
  -11  -10    4     -0.12      0.00
  -11  -10    3      0.08      0.00
  -11  -10    2      0.00      0.00
  -11  -10    1     -0.11      0.00
   11   10    0      0.25      0.00
   11   10    1     -0.33      0.00
   11   10    2      0.40      0.00
   11   10    3     -0.58      0.00
   11   10    4      0.72      0.00
   11   10    5     -0.65      0.00
   11   10    6      0.54      0.00
   11   10    7     -0.54      0.00
   11   10    8      0.48      0.00
   11   10    9     -0.21      0.00
   11   10   10     -0.12      0.00
   11   10   11      0.38      0.00
   11   10   12     -0.52      0.00
   11   10   13      0.50      0.00
   11   10   14     -0.42      0.00
  -11  -11    5      0.12      0.00
  -11  -11    4     -0.06      0.00
  -11  -11    3     -0.06      0.00
  -11  -11    2      0.07      0.00
  -11  -11    1     -0.05      0.00
   11   11    0      0.10      0.00
   11   11    1     -0.20      0.00
   11   11    2      0.39      0.00
   11   11    3     -0.57      0.00
   11   11    4      0.58      0.00
   11   11    5     -0.56      0.00
   11   11    6      0.69      0.00
   11   11    7     -0.79      0.00
   11   11    8      0.58      0.00
   11   11    9     -0.24      0.00
   11   11   10      0.05      0.00
   11   11   11      0.04      0.00
   11   11   12     -0.17      0.00
   11   11   13      0.29      0.00
  -11  -12    1      0.02      0.00
   11   12    0      0.06      0.00
   11   12    1     -0.18      0.00
   11   12    2      0.33      0.00
   11   12    3     -0.38      0.00
   11   12    4      0.40      0.00
   11   12    5     -0.58      0.00
   11   12    6      0.81      0.00
   11   12    7     -0.75      0.00
   11   12    8      0.48      0.00
   11   12    9     -0.35      0.00
   11   12   10      0.36      0.00
   11   12   11     -0.24      0.00
   11   12   12     -0.01      0.00
   11   13   11     -0.28      0.00
   11   14    2      0.07      0.00
   11   14    3     -0.10      0.00
   11   14    4      0.24      0.00
   11   14    5     -0.42      0.00
   11   14    6      0.43      0.00
   11   14    7     -0.39      0.00
   11   14    8      0.49      0.00
  -12    2    2      0.47      0.00
  -12    2    1     -0.30      0.00
  -12    2    0     -0.11      0.00
   12   -2    1      0.11      0.00
   12   -2    2      0.21      0.00
  -12    1    4      0.12      0.00
  -12    1    3     -0.42      0.00
  -12    1    1     -0.06      0.00
  -12    1    0     -0.10      0.00
   12   -1    1     -0.27      0.00
   12   -1    2      0.46      0.00
   12   -1    3     -0.10      0.00
   12   -1    4     -0.24      0.00
  -12    0    4      0.27      0.00
  -12    0    3     -0.51      0.00
   12    0    0      0.19      0.00
   12    0    1     -0.56      0.00
   12    0    2      0.34      0.00
   12    0    3      0.09      0.00
   12    0    4     -0.03      0.00
   12    0    5     -0.25      0.00
   12    0    6      0.14      0.00
  -12   -1    5     -0.11      0.00
  -12   -1    4      0.42      0.00
  -12   -1    3     -0.43      0.00
  -12   -1    2      0.06      0.00
   12    1    0      0.46      0.00
   12    1    1     -0.52      0.00
   12    1    2      0.10      0.00
   12    1    3     -0.02      0.00
   12    1    4      0.40      0.00
   12    1    5     -0.48      0.00
   12    1    6      0.07      0.00
   12    1    7      0.21      0.00
   12    1    8     -0.19      0.00
  -12   -2    5     -0.27      0.00
  -12   -2    4      0.49      0.00
  -12   -2    3     -0.21      0.00
  -12   -2    2     -0.06      0.00
  -12   -2    1     -0.22      0.00
   12    2    1     -0.30      0.00
   12    2    2      0.05      0.00
   12    2    3     -0.34      0.00
   12    2    4      0.64      0.00
   12    2    5     -0.39      0.00
   12    2    6      0.05      0.00
   12    2    7     -0.08      0.00
   12    2    8      0.19      0.00
   12    2    9     -0.02      0.00
   12    2   11      0.49      0.00
  -12   -3    6      0.15      0.00
  -12   -3    5     -0.44      0.00
  -12   -3    4      0.34      0.00
  -12   -3    3      0.06      0.00
  -12   -3    2     -0.02      0.00
  -12   -3    1     -0.42      0.00
   12    3    2      0.14      0.00
   12    3    3     -0.54      0.00
   12    3    4      0.59      0.00
   12    3    5     -0.30      0.00
   12    3    6      0.27      0.00
   12    3    7     -0.47      0.00
   12    3    8      0.43      0.00
   12    3    9     -0.12      0.00
   12    3   10     -0.18      0.00
   12    3   11      0.34      0.00
   12    3   12     -0.36      0.00
  -12   -4    7     -0.11      0.00
  -12   -4    6      0.33      0.00
  -12   -4    5     -0.37      0.00
  -12   -4    4      0.01      0.00
  -12   -4    3      0.15      0.00
  -12   -4    2      0.25      0.00
  -12   -4    1     -0.51      0.00
   12    4    0      0.18      0.00
   12    4    1      0.08      0.00
   12    4    2      0.24      0.00
   12    4    3     -0.57      0.00
   12    4    4      0.46      0.00
   12    4    5     -0.34      0.00
   12    4    6      0.52      0.00
   12    4    7     -0.67      0.00
   12    4    8      0.51      0.00
   12    4    9     -0.22      0.00
   12    4   10      0.04      0.00
   12    4   11      0.01      0.00
   12    4   12     -0.03      0.00
   12    4   13      0.19      0.00
  -12   -5    7     -0.22      0.00
  -12   -5    6      0.29      0.00
  -12   -5    4     -0.14      0.00
  -12   -5    3     -0.11      0.00
  -12   -5    2      0.47      0.00
  -12   -5    1     -0.26      0.00
   12    5    0     -0.20      0.00
   12    5    1      0.10      0.00
   12    5    3     -0.48      0.00
   12    5    4      0.29      0.00
   12    5    5     -0.36      0.00
   12    5    6      0.63      0.00
   12    5    7     -0.71      0.00
   12    5    8      0.54      0.00
   12    5    9     -0.38      0.00
   12    5   10      0.33      0.00
   12    5   11     -0.34      0.00
   12    5   12      0.20      0.00
   12    5   13      0.19      0.00
  -12   -6    6      0.06      0.00
  -12   -6    5      0.05      0.00
  -12   -6    4      0.08      0.00
  -12   -6    3     -0.38      0.00
  -12   -6    2      0.29      0.00
  -12   -6    1      0.20      0.00
   12    6    0     -0.32      0.00
   12    6    1     -0.11      0.00
   12    6    2      0.38      0.00
   12    6    4      0.08      0.00
   12    6    5     -0.35      0.00
   12    6    6      0.63      0.00
   12    6    7     -0.64      0.00
   12    6    8      0.54      0.00
   12    6    9     -0.54      0.00
   12    6   10      0.62      0.00
   12    6   11     -0.58      0.00
   12    6   12      0.24      0.00
   12    6   13      0.15      0.00
  -12   -7    6      0.03      0.00
  -12   -7    5     -0.13      0.00
  -12   -7    4      0.28      0.00
  -12   -7    3     -0.24      0.00
  -12   -7    2     -0.13      0.00
  -12   -7    1      0.35      0.00
   12    7    0     -0.07      0.00
   12    7    1     -0.22      0.00
   12    7    2      0.06      0.00
   12    7    4     -0.02      0.00
   12    7    5     -0.33      0.00
   12    7    6      0.49      0.00
   12    7    7     -0.47      0.00
   12    7    8      0.51      0.00
   12    7    9     -0.67      0.00
   12    7   10      0.76      0.00
   12    7   11     -0.59      0.00
   12    7   12      0.23      0.00
   12    7   13     -0.08      0.00
  -12   -8    5     -0.21      0.00
  -12   -8    4      0.12      0.00
  -12   -8    3      0.08      0.00
  -12   -8    2     -0.25      0.00
  -12   -8    1      0.12      0.00
   12    8    0      0.08      0.00
   12    8    1      0.05      0.00
   12    8    2     -0.35      0.00
   12    8    3      0.32      0.00
   12    8    4     -0.02      0.00
   12    8    5     -0.17      0.00
   12    8    6      0.19      0.00
   12    8    7     -0.28      0.00
   12    8    8      0.49      0.00
   12    8    9     -0.67      0.00
   12    8   10      0.67      0.00
   12    8   11     -0.48      0.00
   12    8   12      0.36      0.00
   12    8   13     -0.44      0.00
  -12   -9    3      0.11      0.00
  -12   -9    2     -0.05      0.00
  -12   -9    1     -0.01      0.00
   12    9    0     -0.12      0.00
   12    9    1      0.39      0.00
   12    9    2     -0.45      0.00
   12    9    3      0.27      0.00
   12    9    4     -0.16      0.00
   12    9    5      0.16      0.00
   12    9    6     -0.06      0.00
   12    9    7     -0.17      0.00
   12    9    8      0.36      0.00
   12    9    9     -0.45      0.00
   12    9   10      0.46      0.00
   12    9   11     -0.47      0.00
   12    9   12      0.55      0.00
   12   10    0     -0.34      0.00
   12   10    1      0.42      0.00
   12   10    2     -0.36      0.00
   12   10    3      0.36      0.00
   12   10    4     -0.45      0.00
   12   10    5      0.39      0.00
   12   10    6     -0.17      0.00
   12   10    7      0.01      0.00
   12   10    8      0.06      0.00
   12   10    9     -0.18      0.00
   12   10   10      0.35      0.00
   12   10   11     -0.50      0.00
   12   11    1      0.30      0.00
   12   11    2     -0.38      0.00
   12   11    3      0.56      0.00
   12   11    4     -0.58      0.00
   12   11    5      0.41      0.00
   12   11    6     -0.30      0.00
   12   11    7      0.32      0.00
   12   11    8     -0.22      0.00
   12   11    9     -0.06      0.00
   12   12    2     -0.49      0.00
   12   12    3      0.60      0.00
   12   12    4     -0.51      0.00
   12   12    5      0.44      0.00
   12   12    6     -0.53      0.00
   12   12    7      0.55      0.00
   12   12    8     -0.29      0.00
   13    1    0     -0.17      0.00
   13    1    1      0.36      0.00
   13    1    2     -0.01      0.00
   13    1    3     -0.37      0.00
   13    1    4      0.22      0.00
   13    1    5      0.02      0.00
  -13   -2    2     -0.08      0.00
  -13   -2    1      0.13      0.00
   13    2    0     -0.44      0.00
   13    2    1      0.32      0.00
   13    2    2      0.12      0.00
   13    2    3     -0.14      0.00
   13    2    4     -0.17      0.00
   13    2    5      0.08      0.00
   13    2    6      0.36      0.00
  -13   -3    2     -0.10      0.00
  -13   -3    1      0.39      0.00
   13    3    0     -0.53      0.00
   13    3    1      0.19      0.00
   13    3    2      0.04      0.00
   13    3    3      0.20      0.00
   13    3    4     -0.33      0.00
   13    3    5     -0.02      0.00
   13    3    6      0.31      0.00
   13    3    7     -0.21      0.00
  -13   -4    2     -0.27      0.00
  -13   -4    1      0.59      0.00
   13    4    0     -0.45      0.00
   13    4    1      0.08      0.00
   13    4    2     -0.14      0.00
   13    4    3      0.42      0.00
   13    4    4     -0.32      0.00
   13    4    5     -0.01      0.00
   13    4    6      0.03      0.00
   13    4    7      0.10      0.00
   13    4    8      0.03      0.00
  -13   -5    1      0.59      0.00
   13    5    0     -0.21      0.00
   13    5    1      0.05      0.00
   13    5    2     -0.35      0.00
   13    5    3      0.51      0.00
   13    5    4     -0.28      0.00
   13    5    5      0.12      0.00
   13    5    6     -0.22      0.00
   13    5    7      0.23      0.00
   13    5    8     -0.01      0.00
  -13   -6    1      0.28      0.00
   13    6    0      0.01      0.00
   13    6    1      0.19      0.00
   13    6    2     -0.52      0.00
   13    6    4     -0.21      0.00
   13    6    5      0.23      0.00
   13    6    6     -0.36      0.00
   13    6    7      0.30      0.00
   13    6    8     -0.11      0.00
  -13   -7    1     -0.02      0.00
   13    7    0     -0.06      0.00
   13    7    1      0.41      0.00
   13    7    2     -0.46      0.00
   13    7    4     -0.15      0.00
   13    7    5      0.32      0.00
   13    7    6     -0.41      0.00
   13    7    7      0.33      0.00
   13    7    8     -0.22      0.00
   13    8    0     -0.27      0.00
   13    8    1      0.36      0.00
   13    8    2     -0.14      0.00
   13    8    4     -0.18      0.00
   13    8    5      0.35      0.00
   13    8    6     -0.36      0.00
   13    8    7      0.31      0.00
   13    8    8     -0.29      0.00
   13    9    2      0.11      0.00
   13    9    3      0.01      0.00
   13    9    5      0.22      0.00
   13    9    6     -0.21      0.00
   13    9    7      0.27      0.00
    1    0    0     -3.82      0.00
   13    0    0      0.17      0.00
  -13    1    0      0.32      0.00
    0    1    0      4.25      0.00
    0    2    0      2.26      0.00
   12    2    0      0.54      0.00
  -12    3    0      0.08      0.00
   12    3    0      0.45      0.00
   14    4    0      0.19      0.00
  -11    5    0     -0.36      0.00
   14    5    0      0.13      0.00
   14    6    0      0.01      0.00
  -10    7    0      0.23      0.00
   14    7    0      0.00      0.00
   13    9    0     -0.22      0.00
   -8   10    0     -0.09      0.00
   13   10    0      0.06      0.00
   -7   11    0      0.32      0.00
   12   11    0     -0.31      0.00
   13   11    0      0.20      0.00
   -6   12    0     -0.41      0.00
   12   12    0     -0.20      0.00
   -5   13    0      0.30      0.00
   11   13    0      0.04      0.00
   12   13    0     -0.19      0.00
   -3   14    0     -0.19      0.00
   11   14    0     -0.05      0.00
   -2   15    0      0.28      0.00
    1   15    0      0.23      0.00
    8   15    0     -0.12      0.00
    9   15    0     -0.04      0.00
   10   15    0      0.14      0.00
    0   16    0      0.09      0.00
    1   16    0     -0.02      0.00
    6   16    0      0.05      0.00
    7   16    0      0.06      0.00
    8   16    0     -0.08      0.00
    4   17    0      0.34      0.00
    5   17    0     -0.23      0.00
   -8  -16    1      0.10      0.00
   -7  -16    1      0.09      0.00
   -6  -16    1     -0.35      0.00
   -5  -16    1      0.41      0.00
   -1  -16    1     -0.21      0.00
    0  -16    1     -0.06      0.00
  -10  -15    1     -0.16      0.00
   -9  -15    1      0.05      0.00
   -8  -15    1      0.11      0.00
    1  -15    1      0.17      0.00
    2  -15    1     -0.19      0.00
  -11  -14    1     -0.02      0.00
  -10  -14    1     -0.14      0.00
    3  -14    1      0.03      0.00
  -11  -13    1     -0.02      0.00
    5  -13    1     -0.49      0.00
  -12  -12    1      0.18      0.00
    6  -12    1      0.53      0.00
  -12  -11    1      0.27      0.00
    7  -11    1     -0.35      0.00
  -13  -10    1      0.11      0.00
  -12  -10    1      0.15      0.00
    8  -10    1      0.08      0.00
  -13   -9    1      0.18      0.00
  -13   -8    1      0.01      0.00
   10   -7    1     -0.31      0.00
   11   -5    1      0.19      0.00
   12   -3    1      0.22      0.00
    1   -2    1      0.60      0.00
  -13   -1    1     -0.07      0.00
  -12   -1    1     -0.04      0.00
    1   -1    1      2.54      0.00
   13   -1    1     -0.21      0.00
  -13    0    1     -0.11      0.00
  -12    0    1      0.05      0.00
  -11    0    1     -0.28      0.00
    0    0    1     -3.85      0.00
    2    0    1     -0.87      0.00
   13    0    1      0.15      0.00
  -12    3    1     -0.37      0.00
   12    3    1     -0.10      0.00
   14    3    1      0.06      0.00
   11    4    1     -0.58      0.00
   14    4    1      0.13      0.00
  -11    5    1      0.26      0.00
   14    5    1      0.14      0.00
   14    6    1      0.04      0.00
  -10    7    1     -0.13      0.00
   -7    7    1     -0.34      0.00
    2    7    1     -1.41      0.00
   14    7    1     -0.18      0.00
   -9    8    1      0.02      0.00
    2    8    1     -1.50      0.00
   14    8    1     -0.33      0.00
   -8    9    1      0.19      0.00
   13    9    1      0.04      0.00
   -8   10    1      0.09      0.00
   -7   10    1     -0.37      0.00
   13   10    1     -0.18      0.00
   -7   11    1     -0.28      0.00
   13   11    1     -0.15      0.00
   -6   12    1      0.30      0.00
   10   12    1     -0.27      0.00
   12   12    1      0.30      0.00
   -5   13    1     -0.14      0.00
   11   13    1     -0.10      0.00
   12   13    1      0.32      0.00
   11   14    1     -0.01      0.00
   -2   15    1     -0.26      0.00
    9   15    1      0.18      0.00
   10   15    1     -0.18      0.00
    0   16    1      0.07      0.00
    2   16    1     -0.33      0.00
    5   16    1      0.24      0.00
    7   16    1     -0.26      0.00
    8   16    1      0.08      0.00
    9   16    1      0.15      0.00
    3   17    1      0.41      0.00
    4   17    1     -0.63      0.00
    5   17    1      0.48      0.00
    6   17    1     -0.10      0.00
   -7  -16    2     -0.15      0.00
   -6  -16    2      0.45      0.00
   -5  -16    2     -0.58      0.00
   -4  -16    2      0.34      0.00
   -3  -16    2      0.13      0.00
   -2  -16    2     -0.42      0.00
   -1  -16    2      0.32      0.00
   -9  -15    2      0.00      0.00
   -8  -15    2     -0.02      0.00
    1  -15    2     -0.20      0.00
  -10  -14    2     -0.08      0.00
    3  -14    2     -0.06      0.00
  -11  -13    2     -0.03      0.00
    4  -13    2     -0.14      0.00
  -12  -12    2     -0.19      0.00
  -11  -12    2     -0.02      0.00
    6  -12    2     -0.36      0.00
  -12  -11    2     -0.15      0.00
    7  -11    2      0.16      0.00
  -13  -10    2     -0.14      0.00
  -12  -10    2      0.00      0.00
    8  -10    2      0.10      0.00
  -13   -9    2     -0.02      0.00
  -13   -8    2      0.01      0.00
  -13   -7    2     -0.28      0.00
   10   -7    2      0.30      0.00
  -13   -6    2     -0.58      0.00
  -13   -5    2     -0.53      0.00
   11   -5    2      0.00      0.00
   12   -3    2     -0.14      0.00
    2   -2    2     -1.05      0.00
  -13   -1    2     -0.16      0.00
   13   -1    2     -0.05      0.00
  -13    0    2     -0.28      0.00
  -12    0    2      0.26      0.00
  -11    0    2      0.18      0.00
   13    0    2     -0.16      0.00
  -12    1    2      0.47      0.00
  -11    1    2     -0.11      0.00
  -12    3    2      0.24      0.00
   14    3    2     -0.38      0.00
   11    4    2      0.15      0.00
   14    4    2     -0.25      0.00
  -11    5    2     -0.05      0.00
   12    5    2      0.37      0.00
   14    5    2     -0.05      0.00
   14    6    2      0.16      0.00
  -10    7    2      0.11      0.00
   14    7    2      0.29      0.00
   14    8    2      0.23      0.00
   -8   10    2     -0.15      0.00
   13   10    2      0.10      0.00
   -7   11    2      0.31      0.00
   -6   11    2     -0.33      0.00
   13   11    2      0.08      0.00
   -6   12    2     -0.28      0.00
   -5   12    2      0.09      0.00
   13   12    2      0.21      0.00
   -5   13    2      0.09      0.00
   11   13    2      0.17      0.00
   12   13    2     -0.46      0.00
   -2   15    2      0.15      0.00
   10   15    2      0.32      0.00
    0   16    2     -0.25      0.00
    4   16    2      0.78      0.00
    5   16    2     -0.42      0.00
    6   16    2     -0.08      0.00
    7   16    2      0.29      0.00
    8   16    2     -0.10      0.00
    9   16    2     -0.22      0.00
    3   17    2     -0.20      0.00
    4   17    2      0.48      0.00
    5   17    2     -0.45      0.00
    6   17    2      0.16      0.00
    7   17    2      0.11      0.00
   -7  -16    3      0.19      0.00
   -6  -16    3     -0.35      0.00
   -5  -16    3      0.42      0.00
   -4  -16    3     -0.30      0.00
   -3  -16    3      0.03      0.00
   -2  -16    3      0.18      0.00
   -9  -15    3     -0.19      0.00
   -8  -15    3      0.06      0.00
    1  -15    3      0.31      0.00
  -10  -14    3      0.11      0.00
    3  -14    3      0.12      0.00
  -11  -13    3      0.01      0.00
    4  -13    3      0.10      0.00
  -11  -12    3     -0.09      0.00
    5  -12    3     -0.31      0.00
  -12  -11    3      0.00      0.00
    6  -11    3      0.35      0.00
  -12  -10    3     -0.04      0.00
  -13   -9    3     -0.01      0.00
  -13   -8    3      0.20      0.00
    9   -8    3      0.27      0.00
  -13   -7    3      0.46      0.00
   10   -7    3     -0.19      0.00
  -13   -6    3      0.42      0.00
  -13   -5    3      0.18      0.00
   11   -5    3     -0.02      0.00
  -13   -4    3      0.10      0.00
   11   -4    3      0.21      0.00
  -13   -3    3      0.24      0.00
    4   -3    3     -1.34      0.00
   12   -3    3     -0.04      0.00
  -13   -2    3      0.40      0.00
    3   -2    3     -0.60      0.00
   12   -2    3     -0.22      0.00
  -13   -1    3      0.46      0.00
   13   -1    3     -0.09      0.00
  -13    0    3      0.39      0.00
   13    0    3     -0.29      0.00
  -12    2    3     -0.20      0.00
  -11    2    3      0.20      0.00
  -12    3    3      0.00      0.00
  -11    3    3      0.03      0.00
   14    3    3      0.30      0.00
   14    4    3      0.05      0.00
  -11    5    3      0.07      0.00
   14    5    3     -0.09      0.00
   12    6    3     -0.19      0.00
   13    6    3      0.45      0.00
   14    6    3     -0.16      0.00
  -10    7    3     -0.20      0.00
   12    7    3      0.18      0.00
   13    7    3      0.22      0.00
   14    7    3     -0.13      0.00
   -9    8    3      0.02      0.00
   13    8    3      0.02      0.00
   14    8    3     -0.04      0.00
   14    9    3     -0.03      0.00
   -8   10    3      0.09      0.00
   13   10    3      0.02      0.00
   -7   11    3     -0.21      0.00
   13   11    3     -0.15      0.00
   -6   12    3      0.17      0.00
   13   12    3     -0.34      0.00
   -5   13    3     -0.01      0.00
   -4   13    3     -0.23      0.00
   11   13    3     -0.21      0.00
   12   13    3      0.48      0.00
   -3   14    3      0.27      0.00
   -2   14    3     -0.10      0.00
   -2   15    3     -0.14      0.00
   10   15    3     -0.36      0.00
   11   15    3      0.03      0.00
    0   16    3      0.18      0.00
    3   16    3      0.36      0.00
    4   16    3     -0.45      0.00
    5   16    3      0.22      0.00
    6   16    3      0.08      0.00
    7   16    3     -0.17      0.00
    8   16    3     -0.01      0.00
    9   16    3      0.25      0.00
    2   17    3      0.01      0.00
    3   17    3      0.12      0.00
    4   17    3     -0.15      0.00
    5   17    3      0.04      0.00
    6   17    3      0.10      0.00
    7   17    3     -0.12      0.00
   -5  -16    4     -0.10      0.00
   -4  -16    4     -0.06      0.00
   -3  -16    4      0.11      0.00
   -8  -15    4     -0.11      0.00
   -7  -15    4     -0.19      0.00
    0  -15    4      0.33      0.00
    1  -15    4     -0.33      0.00
   -9  -14    4      0.15      0.00
    1  -14    4     -0.42      0.00
    2  -14    4      0.24      0.00
  -10  -13    4     -0.07      0.00
    4  -13    4     -0.36      0.00
  -11  -12    4      0.14      0.00
   -4  -12    4      0.57      0.00
    5  -12    4      0.57      0.00
  -12  -11    4      0.09      0.00
    6  -11    4     -0.54      0.00
  -12  -10    4     -0.03      0.00
    7  -10    4      0.28      0.00
  -12   -9    4     -0.09      0.00
    8   -9    4      0.03      0.00
  -13   -8    4     -0.31      0.00
    9   -8    4     -0.17      0.00
  -13   -7    4     -0.33      0.00
   10   -7    4      0.09      0.00
  -13   -6    4     -0.15      0.00
   10   -6    4      0.21      0.00
  -13   -5    4     -0.13      0.00
   11   -5    4     -0.04      0.00
  -13   -4    4     -0.34      0.00
   11   -4    4     -0.27      0.00
  -13   -3    4     -0.52      0.00
   12   -3    4     -0.04      0.00
  -13   -2    4     -0.51      0.00
    4   -2    4      0.65      0.00
   12   -2    4     -0.12      0.00
  -13   -1    4     -0.38      0.00
   13   -1    4      0.44      0.00
   13    0    4      0.50      0.00
  -12    2    4      0.04      0.00
  -11    3    4      0.07      0.00
   14    3    4     -0.07      0.00
  -11    4    4     -0.13      0.00
   14    4    4     -0.05      0.00
  -11    5    4     -0.31      0.00
   14    5    4     -0.08      0.00
   14    6    4     -0.06      0.00
   14    7    4     -0.03      0.00
   -9    8    4     -0.11      0.00
   14    8    4      0.02      0.00
   13    9    4     -0.19      0.00
   14    9    4      0.13      0.00
   13   10    4     -0.01      0.00
   -7   11    4      0.08      0.00
   13   11    4      0.23      0.00
   -6   12    4     -0.08      0.00
   10   12    4      0.07      0.00
   13   12    4      0.30      0.00
   -5   13    4     -0.01      0.00
   11   13    4      0.32      0.00
   12   13    4     -0.44      0.00
   12   14    4     -0.41      0.00
   -2   15    4      0.13      0.00
   -1   15    4     -0.01      0.00
   10   15    4      0.27      0.00
   11   15    4      0.11      0.00
    0   16    4      0.01      0.00
    1   16    4     -0.13      0.00
    3   16    4     -0.30      0.00
    4   16    4      0.08      0.00
    5   16    4      0.25      0.00
    6   16    4     -0.39      0.00
    7   16    4      0.19      0.00
    8   16    4      0.18      0.00
    9   16    4     -0.38      0.00
    2   17    4      0.34      0.00
    3   17    4     -0.40      0.00
    4   17    4      0.17      0.00
    5   17    4      0.22      0.00
    6   17    4     -0.46      0.00
    7   17    4      0.34      0.00
   -7  -15    5      0.24      0.00
   -6  -15    5     -0.40      0.00
   -4  -15    5      0.22      0.00
   -1  -15    5     -0.07      0.00
    0  -15    5     -0.29      0.00
   -9  -14    5     -0.06      0.00
    2  -14    5     -0.05      0.00
  -10  -13    5      0.32      0.00
    2  -13    5     -0.12      0.00
    4  -13    5      0.57      0.00
  -11  -12    5      0.00      0.00
    5  -12    5     -0.66      0.00
    6  -11    5      0.49      0.00
  -12  -10    5      0.15      0.00
    7  -10    5     -0.16      0.00
  -12   -9    5      0.01      0.00
    8   -9    5     -0.14      0.00
    9   -8    5      0.23      0.00
  -13   -7    5      0.15      0.00
  -13   -6    5      0.13      0.00
   10   -6    5     -0.33      0.00
  -13   -5    5      0.33      0.00
  -12   -5    5     -0.07      0.00
   11   -5    5      0.06      0.00
  -13   -4    5      0.49      0.00
   11   -4    5      0.14      0.00
  -13   -3    5      0.45      0.00
   11   -3    5      0.04      0.00
   12   -3    5      0.24      0.00
  -13   -2    5      0.31      0.00
   12   -2    5      0.33      0.00
   12   -1    5      0.16      0.00
   13   -1    5     -0.48      0.00
  -12    0    5     -0.07      0.00
   13    0    5     -0.28      0.00
  -12    1    5     -0.13      0.00
  -12    2    5     -0.25      0.00
   14    3    5      0.22      0.00
  -11    4    5      0.37      0.00
   14    4    5      0.34      0.00
  -10    5    5     -0.23      0.00
   14    5    5      0.29      0.00
  -10    6    5     -0.28      0.00
   14    6    5      0.15      0.00
   14    7    5      0.02      0.00
   -9    8    5      0.13      0.00
   14    8    5     -0.08      0.00
   -8    9    5      0.02      0.00
   14    9    5     -0.14      0.00
   13   10    5     -0.01      0.00
   13   11    5     -0.11      0.00
   -6   12    5      0.24      0.00
   13   12    5     -0.13      0.00
   11   13    5     -0.57      0.00
   12   13    5      0.54      0.00
   -3   14    5      0.10      0.00
   12   14    5      0.55      0.00
   -2   15    5      0.02      0.00
   11   15    5     -0.24      0.00
    0   16    5      0.02      0.00
    3   16    5      0.57      0.00
    4   16    5     -0.13      0.00
    5   16    5     -0.41      0.00
    6   16    5      0.62      0.00
    7   16    5     -0.34      0.00
    8   16    5     -0.18      0.00
    9   16    5      0.47      0.00
    3   17    5      0.62      0.00
    4   17    5     -0.39      0.00
    5   17    5     -0.10      0.00
    6   17    5      0.47      0.00
    7   17    5     -0.43      0.00
   -6  -15    6      0.35      0.00
   -5  -15    6     -0.21      0.00
   -4  -15    6     -0.10      0.00
   -3  -15    6      0.37      0.00
   -2  -15    6     -0.37      0.00
   -1  -15    6      0.09      0.00
   -8  -14    6      0.07      0.00
   -7  -14    6     -0.35      0.00
   -6  -14    6      0.42      0.00
    1  -14    6     -0.23      0.00
    2  -14    6     -0.01      0.00
   -9  -13    6      0.47      0.00
   -8  -13    6     -0.24      0.00
   -7  -13    6     -0.23      0.00
    3  -13    6      0.26      0.00
  -10  -12    6     -0.10      0.00
   -8  -12    6     -0.49      0.00
    3  -12    6      0.10      0.00
    5  -12    6      0.37      0.00
  -11  -11    6      0.09      0.00
   -9  -11    6      0.23      0.00
    3  -11    6     -0.10      0.00
    6  -11    6     -0.13      0.00
    7  -10    6     -0.16      0.00
  -12   -9    6      0.16      0.00
    8   -9    6      0.35      0.00
  -12   -8    6      0.19      0.00
    8   -8    6      0.43      0.00
    9   -8    6     -0.34      0.00
    9   -7    6     -0.51      0.00
   10   -6    6      0.31      0.00
  -11   -5    6     -0.22      0.00
  -10   -5    6      0.17      0.00
   10   -5    6      0.32      0.00
   11   -5    6      0.02      0.00
   11   -4    6      0.08      0.00
   11   -3    6      0.07      0.00
   12   -3    6     -0.36      0.00
  -12   -2    6      0.02      0.00
   -2   -2    6      1.47      0.00
   11   -2    6     -0.20      0.00
   12   -2    6     -0.31      0.00
  -12   -1    6      0.08      0.00
   12   -1    6     -0.04      0.00
  -12    0    6      0.22      0.00
   13    0    6      0.17      0.00
  -12    1    6      0.34      0.00
   13    1    6      0.21      0.00
  -11    3    6     -0.32      0.00
  -11    4    6     -0.32      0.00
   14    4    6     -0.46      0.00
   14    5    6     -0.25      0.00
  -10    6    6      0.13      0.00
   -9    6    6      0.06      0.00
   14    6    6     -0.10      0.00
   -9    7    6      0.04      0.00
   14    7    6     -0.02      0.00
   -9    8    6      0.03      0.00
   14    8    6      0.07      0.00
   -8    9    6     -0.20      0.00
   14    9    6      0.11      0.00
   13   10    6     -0.11      0.00
   13   11    6     -0.06      0.00
   -5   12    6      0.17      0.00
   13   12    6      0.09      0.00
   -4   13    6     -0.05      0.00
   11   13    6      0.68      0.00
   12   13    6     -0.66      0.00
   -3   14    6      0.02      0.00
   12   14    6     -0.59      0.00
   -2   15    6     -0.07      0.00
    0   15    6     -0.02      0.00
   10   15    6      0.21      0.00
   11   15    6      0.24      0.00
    0   16    6     -0.15      0.00
    1   16    6     -0.15      0.00
    5   16    6      0.26      0.00
    6   16    6     -0.48      0.00
    7   16    6      0.26      0.00
    8   16    6      0.16      0.00
    9   16    6     -0.40      0.00
    3   17    6     -0.42      0.00
    4   17    6      0.30      0.00
    5   17    6      0.04      0.00
    6   17    6     -0.28      0.00
    7   17    6      0.24      0.00
   -5  -15    7      0.01      0.00
   -4  -15    7      0.15      0.00
   -3  -15    7     -0.15      0.00
   -2  -15    7      0.03      0.00
   -7  -14    7      0.24      0.00
    0  -14    7     -0.40      0.00
    1  -14    7      0.22      0.00
   -9  -13    7     -0.31      0.00
   -8  -13    7      0.25      0.00
    3  -13    7     -0.22      0.00
  -10  -12    7      0.10      0.00
   -9  -12    7     -0.17      0.00
    3  -12    7     -0.23      0.00
    4  -12    7      0.35      0.00
  -10  -11    7      0.35      0.00
   -9  -11    7     -0.31      0.00
  -11  -10    7     -0.09      0.00
  -10  -10    7      0.43      0.00
    7  -10    7      0.29      0.00
  -11   -9    7      0.22      0.00
    7   -9    7      0.19      0.00
  -12   -8    7     -0.06      0.00
    8   -8    7     -0.42      0.00
  -12   -7    7      0.02      0.00
    9   -7    7      0.38      0.00
  -12   -6    7     -0.14      0.00
    9   -6    7      0.36      0.00
   10   -6    7     -0.11      0.00
   -1   -5    7     -0.97      0.00
   10   -5    7     -0.07      0.00
   -1   -4    7     -0.99      0.00
   10   -4    7     -0.17      0.00
   11   -4    7     -0.27      0.00
  -12   -3    7     -0.03      0.00
   11   -3    7     -0.12      0.00
  -12   -2    7     -0.12      0.00
   11   -2    7      0.17      0.00
   12   -2    7      0.30      0.00
  -12   -1    7     -0.27      0.00
   12   -1    7      0.18      0.00
  -12    0    7     -0.34      0.00
   12    0    7      0.23      0.00
   13    0    7     -0.38      0.00
   13    1    7     -0.55      0.00
  -11    2    7      0.19      0.00
   -1    2    7      1.48      0.00
   13    2    7     -0.52      0.00
  -11    3    7      0.14      0.00
   14    4    7      0.28      0.00
  -10    5    7      0.07      0.00
   14    5    7      0.18      0.00
   14    6    7      0.16      0.00
   -9    7    7     -0.18      0.00
   14    7    7      0.09      0.00
   -8    8    7      0.30      0.00
   14    8    7     -0.02      0.00
   -8    9    7      0.34      0.00
   -7   10    7     -0.45      0.00
   13   10    7      0.23      0.00
   -6   11    7      0.37      0.00
   13   11    7      0.08      0.00
   -5   12    7     -0.14      0.00
   13   12    7     -0.14      0.00
   -4   13    7     -0.08      0.00
   11   13    7     -0.53      0.00
   12   13    7      0.53      0.00
   -3   14    7      0.17      0.00
   -1   15    7     -0.13      0.00
   10   15    7     -0.03      0.00
   11   15    7     -0.29      0.00
    0   16    7      0.06      0.00
    1   16    7      0.07      0.00
    2   16    7     -0.26      0.00
    6   16    7      0.30      0.00
    8   16    7     -0.30      0.00
    9   16    7      0.35      0.00
    3   17    7      0.15      0.00
    4   17    7      0.06      0.00
    5   17    7     -0.29      0.00
    6   17    7      0.32      0.00
    7   17    7     -0.09      0.00
   -6  -14    8      0.16      0.00
   -5  -14    8      0.12      0.00
   -4  -14    8     -0.49      0.00
   -2  -14    8     -0.18      0.00
   -1  -14    8     -0.27      0.00
    0  -14    8      0.40      0.00
   -8  -13    8      0.00      0.00
    2  -13    8     -0.11      0.00
   -9  -12    8      0.23      0.00
    4  -12    8     -0.41      0.00
  -10  -11    8     -0.49      0.00
    4  -11    8     -0.65      0.00
    5  -11    8      0.33      0.00
    6  -10    8     -0.05      0.00
  -11   -9    8     -0.21      0.00
    7   -9    8     -0.24      0.00
  -11   -8    8      0.00      0.00
    8   -8    8      0.34      0.00
    9   -7    8     -0.18      0.00
  -12   -6    8      0.16      0.00
  -11   -6    8     -0.20      0.00
    9   -6    8     -0.23      0.00
   10   -6    8     -0.14      0.00
  -12   -5    8      0.14      0.00
   -1   -5    8      1.31      0.00
   10   -5    8     -0.08      0.00
  -12   -4    8      0.08      0.00
   -1   -4    8      1.31      0.00
   10   -4    8      0.21      0.00
   11   -4    8      0.35      0.00
  -12   -3    8      0.13      0.00
   11   -3    8      0.12      0.00
  -12   -2    8      0.23      0.00
   12   -2    8     -0.34      0.00
  -12   -1    8      0.24      0.00
   -4   -1    8      0.27      0.00
   11   -1    8     -0.05      0.00
   12   -1    8     -0.38      0.00
  -11    0    8     -0.15      0.00
   -4    0    8      0.12      0.00
   12    0    8     -0.42      0.00
  -11    1    8     -0.04      0.00
   -4    1    8      0.17      0.00
   -3    1    8     -0.84      0.00
   13    1    8      0.55      0.00
  -11    2    8      0.01      0.00
   13    2    8      0.34      0.00
   13    3    8      0.10      0.00
  -10    4    8     -0.18      0.00
  -10    5    8     -0.12      0.00
   14    5    8     -0.30      0.00
   14    6    8     -0.29      0.00
   -9    7    8      0.15      0.00
   14    7    8     -0.15      0.00
   14    8    8     -0.04      0.00
   -7    9    8      0.38      0.00
   13    9    8     -0.32      0.00
   -7   10    8      0.21      0.00
   -6   10    8     -0.31      0.00
   13   10    8     -0.24      0.00
   -6   11    8     -0.05      0.00
   -5   11    8      0.12      0.00
   13   11    8     -0.07      0.00
   -5   12    8     -0.22      0.00
   -4   12    8      0.08      0.00
   13   12    8      0.04      0.00
   -4   13    8      0.40      0.00
   -3   13    8     -0.18      0.00
   11   13    8      0.45      0.00
   12   13    8     -0.28      0.00
   -3   14    8     -0.37      0.00
   -2   14    8      0.16      0.00
   -1   15    8     -0.10      0.00
    0   15    8      0.08      0.00
   10   15    8     -0.14      0.00
    1   16    8     -0.21      0.00
    2   16    8      0.23      0.00
    5   16    8      0.54      0.00
    6   16    8     -0.39      0.00
    8   16    8      0.38      0.00
    9   16    8     -0.35      0.00
    4   17    8     -0.20      0.00
    5   17    8      0.49      0.00
    6   17    8     -0.49      0.00
    7   17    8      0.16      0.00
   -5  -14    9     -0.13      0.00
   -4  -14    9      0.39      0.00
   -3  -14    9     -0.45      0.00
   -2  -14    9      0.20      0.00
   -7  -13    9      0.31      0.00
   -6  -13    9     -0.26      0.00
    1  -13    9      0.02      0.00
   -8  -12    9      0.11      0.00
    3  -12    9     -0.48      0.00
   -9  -11    9     -0.58      0.00
    5  -11    9     -0.12      0.00
  -10  -10    9      0.00      0.00
    5  -10    9     -0.28      0.00
    6  -10    9     -0.17      0.00
    7   -9    9      0.35      0.00
  -11   -8    9     -0.13      0.00
    8   -8    9     -0.30      0.00
  -11   -7    9      0.10      0.00
    9   -7    9      0.04      0.00
  -11   -6    9      0.28      0.00
   -1   -6    9     -0.98      0.00
    9   -6    9      0.22      0.00
   10   -5    9      0.06      0.00
   10   -4    9     -0.23      0.00
   11   -4    9     -0.26      0.00
    0   -3    9      0.92      0.00
   10   -3    9     -0.34      0.00
   11   -3    9     -0.15      0.00
    0   -2    9      1.06      0.00
   12   -2    9      0.35      0.00
  -11   -1    9      0.10      0.00
   12   -1    9      0.50      0.00
  -11    0    9     -0.02      0.00
   12    0    9      0.45      0.00
  -11    1    9     -0.06      0.00
  -10    1    9      0.08      0.00
   12    1    9      0.19      0.00
   13    1    9     -0.37      0.00
  -11    2    9     -0.05      0.00
  -10    2    9      0.13      0.00
   13    2    9     -0.28      0.00
  -10    3    9      0.16      0.00
   13    3    9     -0.30      0.00
  -10    4    9      0.12      0.00
   13    4    9     -0.32      0.00
   -7    5    9     -0.33      0.00
   13    5    9     -0.21      0.00
   -9    6    9     -0.11      0.00
   13    6    9     -0.01      0.00
   13    7    9      0.16      0.00
   -8    8    9      0.14      0.00
   13    8    9      0.29      0.00
   13    9    9      0.32      0.00
   13   10    9      0.24      0.00
   -6   11    9     -0.12      0.00
   -5   11    9      0.21      0.00
   13   11    9      0.17      0.00
   -5   12    9      0.29      0.00
   -4   12    9     -0.38      0.00
   12   12    9      0.00      0.00
   -4   13    9     -0.32      0.00
   -3   13    9      0.37      0.00
   11   13    9     -0.54      0.00
   12   13    9      0.18      0.00
   -2   14    9     -0.22      0.00
   11   14    9     -0.57      0.00
   -1   15    9      0.07      0.00
    0   15    9     -0.20      0.00
   10   15    9      0.17      0.00
    1   16    9      0.26      0.00
    2   16    9     -0.30      0.00
    5   16    9     -0.53      0.00
    7   16    9     -0.06      0.00
    8   16    9     -0.25      0.00
    9   16    9      0.24      0.00
    5   17    9     -0.39      0.00
   -6  -13   10      0.19      0.00
   -5  -13   10      0.09      0.00
   -4  -13   10     -0.27      0.00
   -3  -13   10      0.16      0.00
   -1  -13   10     -0.31      0.00
    0  -13   10      0.19      0.00
   -8  -12   10     -0.26      0.00
   -7  -12   10     -0.10      0.00
    2  -12   10     -0.30      0.00
   -9  -11   10      0.26      0.00
   -8  -11   10     -0.28      0.00
    4  -11   10     -0.28      0.00
   -9  -10   10      0.19      0.00
    5  -10   10      0.06      0.00
  -10   -9   10     -0.38      0.00
    5   -9   10      0.29      0.00
  -10   -8   10     -0.32      0.00
  -11   -7   10     -0.30      0.00
    8   -7   10      0.38      0.00
  -11   -6   10     -0.30      0.00
  -10   -6   10      0.19      0.00
    9   -6   10     -0.19      0.00
  -11   -5   10     -0.21      0.00
   10   -5   10     -0.06      0.00
  -11   -4   10     -0.21      0.00
   10   -4   10     -0.01      0.00
  -11   -3   10     -0.20      0.00
   11   -3   10      0.37      0.00
  -11   -2   10     -0.11      0.00
    0   -2   10     -0.82      0.00
   11   -2   10      0.52      0.00
  -11   -1   10     -0.03      0.00
   12   -1   10     -0.57      0.00
  -11    0   10     -0.01      0.00
  -10    0   10      0.02      0.00
   12    0   10     -0.48      0.00
  -10    1   10      0.01      0.00
   12    1   10     -0.33      0.00
  -10    2   10     -0.03      0.00
   12    2   10     -0.27      0.00
   13    2   10      0.43      0.00
  -10    3   10     -0.05      0.00
   13    3   10      0.53      0.00
   -9    4   10      0.10      0.00
   13    4   10      0.47      0.00
   -9    5   10      0.04      0.00
   13    5   10      0.27      0.00
   -9    6   10      0.02      0.00
   13    6   10      0.05      0.00
   -8    7   10     -0.11      0.00
   13    7   10     -0.14      0.00
   13    8   10     -0.25      0.00
   -7    9   10      0.14      0.00
   -6    9   10     -0.08      0.00
   13    9   10     -0.27      0.00
   -6   10   10     -0.01      0.00
   13   10   10     -0.26      0.00
   -5   11   10     -0.16      0.00
   12   11   10      0.29      0.00
   13   11   10     -0.27      0.00
   -4   12   10      0.22      0.00
   -3   12   10     -0.30      0.00
   12   12   10      0.08      0.00
   -3   13   10     -0.12      0.00
   11   13   10      0.52      0.00
   12   13   10     -0.18      0.00
   -2   14   10     -0.06      0.00
   11   14   10      0.45      0.00
    0   15   10      0.05      0.00
    8   15   10      0.15      0.00
   10   15   10     -0.22      0.00
    2   16   10      0.18      0.00
    3   16   10     -0.04      0.00
    5   16   10      0.31      0.00
    6   16   10     -0.20      0.00
    7   16   10     -0.02      0.00
    8   16   10      0.14      0.00
   -4  -13   11      0.34      0.00
   -3  -13   11     -0.16      0.00
   -2  -13   11     -0.20      0.00
   -6  -12   11     -0.07      0.00
    0  -12   11     -0.33      0.00
    1  -12   11      0.00      0.00
    2  -12   11      0.31      0.00
   -8  -11   11     -0.01      0.00
   -7  -11   11      0.17      0.00
    3  -11   11     -0.42      0.00
   -9  -10   11     -0.35      0.00
   -8  -10   11      0.08      0.00
    5  -10   11      0.09      0.00
   -9   -9   11     -0.61      0.00
    6   -9   11     -0.32      0.00
  -10   -8   11      0.06      0.00
    6   -8   11     -0.41      0.00
    7   -8   11      0.43      0.00
  -10   -7   11     -0.14      0.00
    8   -7   11     -0.32      0.00
  -10   -6   11     -0.11      0.00
    9   -6   11      0.03      0.00
    9   -5   11      0.06      0.00
  -11   -4   11      0.16      0.00
   10   -4   11      0.43      0.00
  -11   -3   11      0.17      0.00
   11   -2   11     -0.66      0.00
  -10   -1   11     -0.17      0.00
  -10    0   11     -0.19      0.00
    1    0   11     -0.11      0.00
   12    0   11      0.46      0.00
  -10    1   11     -0.12      0.00
   12    1   11      0.47      0.00
  -10    2   11     -0.04      0.00
   -9    2   11      0.06      0.00
   -9    3   11      0.00      0.00
   -8    3   11      0.10      0.00
   13    3   11     -0.55      0.00
   -9    4   11      0.02      0.00
   -8    4   11      0.06      0.00
   13    4   11     -0.43      0.00
   -9    5   11     -0.03      0.00
   -8    5   11      0.01      0.00
   13    5   11     -0.25      0.00
   -8    6   11      0.12      0.00
   -6    6   11      0.09      0.00
   13    6   11     -0.08      0.00
   -8    7   11      0.26      0.00
   -6    7   11      0.12      0.00
   13    7   11      0.05      0.00
   -7    8   11     -0.30      0.00
   13    8   11      0.11      0.00
   13    9   11      0.15      0.00
   -6   10   11      0.27      0.00
   13   10   11      0.23      0.00
   -5   11   11     -0.16      0.00
   12   11   11     -0.36      0.00
   -4   12   11      0.10      0.00
   -3   12   11      0.06      0.00
   12   12   11     -0.10      0.00
   -3   13   11     -0.13      0.00
   -1   14   11     -0.14      0.00
   11   14   11     -0.26      0.00
    0   15   11      0.10      0.00
    1   15   11      0.02      0.00
    4   15   11      0.24      0.00
    8   15   11     -0.04      0.00
    9   15   11     -0.19      0.00
   10   15   11      0.32      0.00
    2   16   11     -0.02      0.00
    3   16   11     -0.10      0.00
    4   16   11      0.24      0.00
    5   16   11     -0.23      0.00
    6   16   11      0.03      0.00
    7   16   11      0.16      0.00
    8   16   11     -0.17      0.00
   -5  -12   12      0.16      0.00
   -4  -12   12     -0.30      0.00
   -3  -12   12      0.24      0.00
   -2  -12   12      0.01      0.00
   -1  -12   12     -0.19      0.00
    0  -12   12      0.11      0.00
   -7  -11   12     -0.29      0.00
   -6  -11   12      0.26      0.00
   -4  -11   12     -0.20      0.00
    1  -11   12      0.19      0.00
    2  -11   12     -0.41      0.00
   -8  -10   12     -0.21      0.00
   -7  -10   12     -0.20      0.00
    4  -10   12     -0.05      0.00
   -8   -9   12     -0.39      0.00
    5   -9   12     -0.34      0.00
   -9   -8   12      0.23      0.00
    7   -7   12     -0.61      0.00
  -10   -6   12     -0.05      0.00
    7   -6   12     -0.57      0.00
    8   -6   12      0.24      0.00
  -10   -5   12      0.03      0.00
    9   -5   12      0.27      0.00
  -10   -4   12      0.14      0.00
   10   -4   12     -0.62      0.00
  -10   -3   12      0.21      0.00
  -10   -2   12      0.28      0.00
   11   -2   12      0.47      0.00
  -10   -1   12      0.30      0.00
   11   -1   12      0.33      0.00
  -10    0   12      0.21      0.00
   12    0   12     -0.42      0.00
  -10    1   12      0.10      0.00
   -9    1   12     -0.14      0.00
   12    1   12     -0.59      0.00
   -9    2   12     -0.06      0.00
   -6    2   12     -0.22      0.00
   12    2   12     -0.59      0.00
   -9    3   12     -0.06      0.00
   -8    3   12     -0.03      0.00
   -9    4   12      0.02      0.00
   -8    4   12      0.01      0.00
   -7    4   12      0.09      0.00
   13    4   12      0.33      0.00
   -8    5   12     -0.13      0.00
   -7    5   12      0.07      0.00
   13    5   12      0.25      0.00
   -8    6   12     -0.34      0.00
   -7    6   12      0.28      0.00
   13    6   12      0.19      0.00
   -7    7   12      0.44      0.00
   13    7   12      0.16      0.00
   -7    8   12      0.43      0.00
   13    8   12      0.10      0.00
   -6    9   12     -0.34      0.00
   13    9   12     -0.05      0.00
   -5   10   12      0.19      0.00
   12   10   12      0.57      0.00
   12   11   12      0.36      0.00
   12   12   12      0.19      0.00
   -2   13   12     -0.10      0.00
   11   13   12      0.05      0.00
   -1   14   12      0.10      0.00
    0   14   12     -0.07      0.00
   10   14   12     -0.40      0.00
    1   15   12      0.03      0.00
    4   15   12     -0.29      0.00
    8   15   12      0.08      0.00
    9   15   12      0.19      0.00
    4   16   12     -0.25      0.00
    5   16   12      0.23      0.00
    6   16   12     -0.06      0.00
    7   16   12     -0.11      0.00
   -5  -11   13     -0.01      0.00
   -4  -11   13      0.15      0.00
   -1  -11   13      0.35      0.00
    0  -11   13     -0.11      0.00
    1  -11   13     -0.25      0.00
   -7  -10   13      0.07      0.00
   -6  -10   13     -0.20      0.00
   -5  -10   13      0.01      0.00
    3  -10   13     -0.31      0.00
   -8   -9   13      0.16      0.00
   -7   -9   13      0.09      0.00
    4   -9   13      0.07      0.00
    5   -9   13      0.48      0.00
   -8   -8   13      0.11      0.00
    6   -8   13     -0.57      0.00
   -9   -7   13     -0.31      0.00
    7   -7   13      0.36      0.00
   -9   -6   13     -0.34      0.00
   -8   -6   13      0.42      0.00
    8   -6   13      0.03      0.00
    8   -4   13     -0.66      0.00
    9   -4   13     -0.03      0.00
   10   -3   13      0.29      0.00
   11   -1   13     -0.56      0.00
   -9    0   13      0.10      0.00
   -9    1   13      0.04      0.00
   12    1   13      0.63      0.00
   -9    2   13      0.07      0.00
   12    2   13      0.53      0.00
   -9    3   13      0.03      0.00
   -8    3   13      0.02      0.00
   12    3   13      0.32      0.00
   -8    4   13      0.13      0.00
   -7    4   13     -0.12      0.00
   -8    5   13      0.34      0.00
   -7    5   13     -0.33      0.00
   -7    6   13     -0.50      0.00
   -7    7   13     -0.41      0.00
   -6    7   13      0.48      0.00
   -6    8   13      0.30      0.00
   -5    8   13     -0.25      0.00
   -6    9   13      0.15      0.00
   -5    9   13     -0.11      0.00
   12    9   13     -0.60      0.00
   -5   10   13     -0.03      0.00
   12   10   13     -0.48      0.00
   -4   11   13     -0.07      0.00
   12   11   13     -0.32      0.00
   -3   12   13      0.11      0.00
   -2   12   13     -0.09      0.00
   10   12   13      0.15      0.00
   11   12   13      0.21      0.00
   -2   13   13     -0.09      0.00
   11   13   13      0.07      0.00
    0   14   13      0.00      0.00
    9   14   13     -0.32      0.00
   10   14   13      0.30      0.00
    2   15   13      0.04      0.00
    3   15   13     -0.11      0.00
    6   15   13      0.03      0.00
    7   15   13      0.02      0.00
    8   15   13      0.06      0.00
   -3  -11   14     -0.03      0.00
   -2  -11   14      0.29      0.00
   -1  -11   14     -0.31      0.00
   -5  -10   14      0.06      0.00
    1  -10   14      0.31      0.00
    2  -10   14     -0.49      0.00
   -7   -9   14     -0.22      0.00
   -6   -9   14      0.30      0.00
   -5   -9   14     -0.13      0.00
    2   -9   14     -0.61      0.00
    3   -9   14      0.47      0.00
    4   -9   14      0.01      0.00
   -7   -8   14     -0.20      0.00
    5   -8   14     -0.31      0.00
   -8   -7   14     -0.24      0.00
    6   -7   14      0.50      0.00
   -8   -6   14     -0.25      0.00
   -7   -6   14      0.03      0.00
    7   -6   14     -0.47      0.00
   -9   -5   14      0.15      0.00
    8   -5   14      0.17      0.00
   -9   -4   14      0.08      0.00
    8   -4   14      0.32      0.00
    9   -4   14      0.23      0.00
   -9   -3   14     -0.02      0.00
   -9   -2   14     -0.07      0.00
   10   -2   14     -0.76      0.00
   -9   -1   14     -0.01      0.00
    9   -1   14     -0.05      0.00
   10   -1   14     -0.76      0.00
   -9    0   14      0.01      0.00
   11    0   14      0.78      0.00
   -9    1   14     -0.07      0.00
   -8    2   14     -0.07      0.00
   10    2   14      0.40      0.00
   -8    3   14     -0.12      0.00
   12    3   14     -0.39      0.00
   -8    4   14     -0.29      0.00
   -7    4   14      0.35      0.00
   12    4   14     -0.49      0.00
   -7    5   14      0.47      0.00
   12    5   14     -0.48      0.00
   -7    6   14      0.31      0.00
   -6    6   14     -0.45      0.00
   12    6   14     -0.21      0.00
   -6    7   14     -0.18      0.00
   12    7   14      0.20      0.00
   -6    8   14      0.02      0.00
   -5    8   14     -0.08      0.00
   12    8   14      0.44      0.00
   -5    9   14     -0.14      0.00
   12    9   14      0.38      0.00
   -4   10   14      0.24      0.00
   12   10   14      0.26      0.00
   -3   11   14     -0.26      0.00
   11   11   14     -0.42      0.00
   -2   12   14      0.19      0.00
   10   12   14      0.01      0.00
   11   12   14     -0.33      0.00
   -1   13   14     -0.09      0.00
   10   13   14     -0.11      0.00
    1   14   14      0.02      0.00
    3   14   14     -0.03      0.00
    8   14   14     -0.28      0.00
    9   14   14      0.27      0.00
    3   15   14      0.04      0.00
    4   15   14      0.02      0.00
    5   15   14     -0.05      0.00
    6   15   14     -0.01      0.00
    7   15   14      0.14      0.00
   -3  -10   15     -0.02      0.00
   -2  -10   15     -0.20      0.00
   -1  -10   15      0.26      0.00
    0  -10   15     -0.01      0.00
   -5   -9   15      0.13      0.00
    2   -9   15      0.45      0.00
    3   -9   15     -0.20      0.00
   -6   -8   15     -0.25      0.00
    4   -8   15     -0.22      0.00
   -7   -7   15      0.15      0.00
    5   -7   15      0.66      0.00
   -7   -6   15      0.18      0.00
   -6   -6   15     -0.39      0.00
    6   -6   15     -0.81      0.00
   -8   -5   15      0.20      0.00
    7   -5   15      0.54      0.00
   -8   -4   15      0.24      0.00
    8   -4   15      0.06      0.00
   -8   -3   15      0.17      0.00
    9   -3   15     -0.63      0.00
   10   -1   15      0.57      0.00
   -8    0   15      0.26      0.00
   -8    1   15      0.13      0.00
   11    1   15     -0.40      0.00
   -8    2   15      0.12      0.00
   11    2   15     -0.52      0.00
   -7    3   15     -0.33      0.00
   11    3   15     -0.61      0.00
   -7    4   15     -0.40      0.00
   11    4   15     -0.36      0.00
   -7    5   15     -0.21      0.00
   -6    5   15      0.34      0.00
   11    5   15      0.17      0.00
   12    5   15      0.39      0.00
   -6    6   15      0.03      0.00
   11    6   15      0.59      0.00
   12    6   15      0.04      0.00
   -6    7   15     -0.15      0.00
   -5    7   15      0.29      0.00
   11    7   15      0.59      0.00
   12    7   15     -0.15      0.00
   -5    8   15      0.29      0.00
   11    8   15      0.37      0.00
   12    8   15     -0.10      0.00
   -4    9   15     -0.39      0.00
    0    9   15      0.27      0.00
   11    9   15      0.34      0.00
   -4   10   15     -0.16      0.00
   11   10   15      0.49      0.00
   -3   11   15      0.20      0.00
   11   11   15      0.53      0.00
   -2   12   15     -0.16      0.00
   -1   12   15      0.12      0.00
   10   12   15     -0.19      0.00
    0   13   15      0.00      0.00
    9   13   15     -0.24      0.00
    2   14   15      0.05      0.00
    3   14   15      0.06      0.00
    4   14   15     -0.21      0.00
    5   14   15      0.20      0.00
    6   14   15      0.03      0.00
    7   14   15     -0.32      0.00
    8   14   15      0.44      0.00
   -3   -9   16     -0.15      0.00
   -2   -9   16      0.30      0.00
   -1   -9   16     -0.25      0.00
    0   -9   16     -0.03      0.00
    1   -9   16      0.29      0.00
   -5   -8   16     -0.03      0.00
   -4   -8   16     -0.11      0.00
   -1   -8   16     -0.35      0.00
    2   -8   16     -0.42      0.00
    3   -8   16      0.04      0.00
   -6   -7   16      0.36      0.00
    3   -7   16      0.33      0.00
    4   -7   16      0.31      0.00
   -6   -6   16      0.43      0.00
    5   -6   16     -0.61      0.00
    6   -6   16      0.68      0.00
   -7   -5   16      0.00      0.00
    6   -5   16      0.71      0.00
    7   -5   16     -0.28      0.00
   -7   -4   16      0.05      0.00
    7   -4   16     -0.51      0.00
    8   -3   16      0.13      0.00
   -8   -2   16     -0.27      0.00
    9   -2   16      0.24      0.00
   -8   -1   16     -0.29      0.00
   10    0   16     -0.50      0.00
   10    1   16     -0.68      0.00
   -7    2   16      0.29      0.00
   -7    3   16      0.33      0.00
   11    3   16      0.60      0.00
   -6    4   16     -0.24      0.00
   11    4   16      0.18      0.00
   -6    5   16      0.05      0.00
   11    5   16     -0.13      0.00
   -6    6   16      0.19      0.00
   11    6   16     -0.12      0.00
   -5    7   16     -0.33      0.00
   11    7   16      0.01      0.00
   -4    8   16      0.44      0.00
   11    8   16     -0.09      0.00
   -4    9   16      0.10      0.00
   11    9   16     -0.40      0.00
   -3   10   16     -0.17      0.00
    0   10   16      0.19      0.00
   11   10   16     -0.58      0.00
   -2   11   16      0.16      0.00
   10   11   16      0.45      0.00
   -1   12   16     -0.09      0.00
    9   12   16      0.10      0.00
    1   13   16      0.06      0.00
    5   13   16     -0.26      0.00
    6   13   16     -0.10      0.00
    7   13   16      0.45      0.00
    8   13   16     -0.49      0.00
    9   13   16      0.23      0.00
    3   14   16     -0.03      0.00
    4   14   16      0.14      0.00
    5   14   16     -0.19      0.00
    6   14   16      0.05      0.00
    7   14   16      0.19      0.00
   -3   -8   17      0.01      0.00
   -2   -8   17     -0.24      0.00
   -1   -8   17      0.23      0.00
    0   -8   17      0.12      0.00
    1   -8   17     -0.51      0.00
   -4   -7   17     -0.07      0.00
   -3   -7   17      0.03      0.00
    1   -7   17     -0.49      0.00
    2   -7   17      0.69      0.00
    3   -7   17     -0.36      0.00
   -5   -6   17      0.28      0.00
    4   -6   17     -0.02      0.00
   -6   -5   17     -0.12      0.00
   -4   -5   17     -0.10      0.00
    4   -5   17      0.12      0.00
    6   -5   17     -0.53      0.00
   -6   -4   17     -0.18      0.00
    6   -4   17     -0.65      0.00
    7   -4   17      0.32      0.00
   -7   -3   17      0.02      0.00
    7   -3   17      0.45      0.00
   -7   -2   17     -0.19      0.00
    8   -2   17      0.07      0.00
   -7   -1   17     -0.26      0.00
    8   -1   17      0.07      0.00
    9   -1   17     -0.60      0.00
   -7    0   17     -0.21      0.00
    9    0   17     -0.58      0.00
   -7    1   17     -0.23      0.00
   10    1   17      0.77      0.00
   10    2   17      0.38      0.00
   -6    3   17      0.16      0.00
   10    3   17      0.00      0.00
   -6    4   17     -0.04      0.00
   -5    5   17      0.37      0.00
   11    5   17     -0.30      0.00
   -5    6   17      0.26      0.00
   11    6   17     -0.38      0.00
   -4    7   17     -0.37      0.00
   11    7   17     -0.20      0.00
   -4    8   17     -0.02      0.00
   -3    9   17      0.13      0.00
   10    9   17     -0.75      0.00
   -2   10   17     -0.15      0.00
   10   10   17     -0.52      0.00
   -1   11   17      0.09      0.00
    9   11   17      0.07      0.00
    0   12   17     -0.05      0.00
    1   12   17     -0.08      0.00
    5   12   17      0.22      0.00
    7   12   17     -0.44      0.00
    8   12   17      0.37      0.00
    9   12   17     -0.05      0.00
    2   13   17     -0.03      0.00
    3   13   17      0.06      0.00
    4   13   17     -0.16      0.00
    5   13   17      0.16      0.00
    6   13   17      0.01      0.00
    7   13   17     -0.21      0.00
   -2   -7   18      0.27      0.00
   -1   -7   18     -0.22      0.00
    0   -7   18     -0.02      0.00
    1   -7   18      0.32      0.00
   -4   -6   18      0.05      0.00
   -3   -6   18     -0.24      0.00
   -2   -6   18      0.43      0.00
    1   -6   18      0.25      0.00
    2   -6   18     -0.38      0.00
    3   -6   18      0.13      0.00
   -5   -5   18     -0.01      0.00
   -4   -5   18     -0.16      0.00
   -3   -5   18      0.01      0.00
   -2   -5   18      0.35      0.00
   -1   -5   18     -0.54      0.00
    0   -5   18      0.31      0.00
    4   -5   18      0.27      0.00
   -5   -4   18     -0.19      0.00
    5   -4   18     -0.60      0.00
    6   -4   18      0.55      0.00
   -5   -3   18     -0.32      0.00
    5   -3   18     -0.57      0.00
    6   -3   18      0.64      0.00
   -6   -2   18     -0.03      0.00
    7   -2   18     -0.34      0.00
   -6   -1   18     -0.10      0.00
    6   -1   18      0.83      0.00
    8   -1   18     -0.11      0.00
   -6    0   18     -0.07      0.00
    6    0   18      0.69      0.00
    8    0   18      0.30      0.00
   -6    1   18     -0.10      0.00
    9    1   18      0.09      0.00
   -6    2   18     -0.13      0.00
    9    2   18     -0.02      0.00
   -5    3   18     -0.12      0.00
    9    3   18      0.09      0.00
   -5    4   18     -0.24      0.00
   -3    4   18     -0.30      0.00
   10    4   18     -0.47      0.00
   -5    5   18     -0.12      0.00
   10    5   18     -0.32      0.00
   -4    6   18      0.21      0.00
   10    6   18      0.11      0.00
   10    7   18      0.48      0.00
   -3    8   18     -0.07      0.00
    9    8   18     -0.57      0.00
   10    8   18      0.53      0.00
   -2    9   18      0.13      0.00
    8    9   18      0.00      0.00
    9    9   18     -0.31      0.00
   -1   10   18     -0.10      0.00
    7   10   18      0.39      0.00
    8   10   18     -0.10      0.00
    9   10   18     -0.19      0.00
    0   11   18      0.06      0.00
    1   11   18      0.10      0.00
    6   11   18     -0.15      0.00
    8   11   18     -0.10      0.00
    2   12   18      0.03      0.00
    3   12   18     -0.05      0.00
    4   12   18      0.11      0.00
    5   12   18     -0.07      0.00
    6   12   18     -0.06      0.00
    7   12   18      0.13      0.00
   -3   -5   19     -0.11      0.00
   -2   -5   19     -0.08      0.00
   -1   -5   19      0.21      0.00
    0   -5   19     -0.02      0.00
    1   -5   19     -0.33      0.00
    2   -5   19      0.42      0.00
    3   -5   19     -0.06      0.00
   -4   -4   19     -0.14      0.00
   -3   -4   19      0.00      0.00
    1   -4   19     -0.31      0.00
    2   -4   19      0.51      0.00
    3   -4   19     -0.28      0.00
    4   -4   19     -0.27      0.00
   -4   -3   19     -0.23      0.00
    0   -3   19     -0.06      0.00
    5   -3   19      0.59      0.00
   -5   -2   19     -0.02      0.00
   -4   -2   19     -0.06      0.00
    6   -2   19     -0.69      0.00
   -5   -1   19     -0.02      0.00
   -4   -1   19      0.10      0.00
    6   -1   19     -0.64      0.00
    7   -1   19      0.48      0.00
   -5    0   19      0.05      0.00
    7    0   19      0.45      0.00
   -5    1   19      0.05      0.00
    8    1   19      0.00      0.00
   -5    2   19      0.06      0.00
   -4    2   19     -0.14      0.00
    7    2   19      0.38      0.00
    8    2   19      0.02      0.00
   -4    3   19     -0.25      0.00
    7    3   19      0.56      0.00
    9    3   19     -0.37      0.00
   -4    4   19     -0.24      0.00
   -3    4   19      0.36      0.00
    9    4   19     -0.01      0.00
   -4    5   19     -0.05      0.00
   -3    5   19      0.27      0.00
    8    5   19     -0.65      0.00
    9    5   19      0.36      0.00
   -3    6   19      0.05      0.00
    8    6   19     -0.48      0.00
    9    6   19      0.45      0.00
   -2    7   19      0.00      0.00
    8    7   19     -0.24      0.00
    9    7   19      0.30      0.00
   -2    8   19     -0.12      0.00
    8    8   19     -0.14      0.00
    9    8   19      0.17      0.00
   -1    9   19      0.11      0.00
    0    9   19      0.12      0.00
    7    9   19     -0.05      0.00
    8    9   19     -0.15      0.00
    0   10   19     -0.07      0.00
    1   10   19     -0.07      0.00
    6   10   19      0.08      0.00
    7   10   19     -0.01      0.00
    8   10   19     -0.18      0.00
    2   11   19     -0.02      0.00
    3   11   19      0.03      0.00
    4   11   19     -0.03      0.00
    5   11   19     -0.02      0.00
    6   11   19      0.06      0.00
    7   11   19      0.02      0.00
   -1   -4   20     -0.10      0.00
    0   -4   20     -0.12      0.00
    1   -4   20      0.38      0.00
    2   -4   20     -0.46      0.00
   -2   -3   20      0.41      0.00
   -1   -3   20     -0.38      0.00
    0   -3   20      0.08      0.00
    2   -3   20     -0.48      0.00
    3   -3   20      0.30      0.00
    4   -3   20      0.12      0.00
   -3   -2   20     -0.05      0.00
   -2   -2   20      0.38      0.00
    2   -2   20     -0.41      0.00
    3   -2   20      0.37      0.00
    4   -2   20      0.01      0.00
    5   -2   20     -0.37      0.00
   -3   -1   20      0.07      0.00
   -2   -1   20      0.18      0.00
    1   -1   20     -0.22      0.00
    2   -1   20     -0.23      0.00
    5   -1   20     -0.29      0.00
    6   -1   20      0.37      0.00
   -3    0   20      0.01      0.00
   -2    0   20      0.07      0.00
   -1    0   20     -0.36      0.00
    1    0   20     -0.40      0.00
    6    0   20      0.38      0.00
   -3    1   20     -0.10      0.00
   -2    1   20      0.12      0.00
   -1    1   20     -0.28      0.00
    7    1   20     -0.22      0.00
   -3    2   20     -0.19      0.00
    7    2   20     -0.43      0.00
   -3    3   20     -0.21      0.00
    8    3   20      0.23      0.00
   -3    4   20     -0.12      0.00
    8    4   20      0.32      0.00
   -2    5   20      0.09      0.00
    8    5   20      0.21      0.00
   -2    6   20     -0.02      0.00
   -1    6   20     -0.03      0.00
    4    6   20     -0.06      0.00
    8    6   20      0.10      0.00
   -1    7   20      0.03      0.00
    0    7   20      0.00      0.00
    3    7   20     -0.13      0.00
    7    7   20     -0.21      0.00
    8    7   20      0.16      0.00
    0    8   20     -0.04      0.00
    1    8   20     -0.02      0.00
    3    8   20     -0.20      0.00
    7    8   20     -0.22      0.00
    8    8   20      0.29      0.00
    1    9   20      0.01      0.00
    2    9   20      0.05      0.00
    5    9   20      0.00      0.00
    6    9   20      0.02      0.00
    7    9   20     -0.20      0.00
    2   10   20      0.03      0.00
    3   10   20     -0.02      0.00
    4   10   20      0.00      0.00
    5   10   20      0.04      0.00
    6   10   20      0.00      0.00
    0   -2   21     -0.27      0.00
    1   -2   21     -0.02      0.00
    2   -2   21      0.25      0.00
   -1   -1   21      0.21      0.00
    0   -1   21     -0.28      0.00
    1   -1   21      0.11      0.00
    2   -1   21      0.12      0.00
    3   -1   21     -0.14      0.00
    4   -1   21     -0.12      0.00
   -2    0   21     -0.14      0.00
   -1    0   21      0.20      0.00
    0    0   21     -0.24      0.00
    1    0   21      0.15      0.00
    2    0   21      0.04      0.00
    3    0   21     -0.10      0.00
    4    0   21     -0.10      0.00
    5    0   21      0.36      0.00
   -2    1   21     -0.24      0.00
   -1    1   21      0.29      0.00
    0    1   21     -0.28      0.00
    1    1   21      0.18      0.00
    2    1   21     -0.02      0.00
    3    1   21     -0.07      0.00
    4    1   21     -0.06      0.00
    5    1   21      0.32      0.00
   -2    2   21     -0.28      0.00
   -1    2   21      0.36      0.00
    0    2   21     -0.35      0.00
    1    2   21      0.23      0.00
    2    2   21     -0.07      0.00
    3    2   21     -0.03      0.00
    4    2   21     -0.03      0.00
    5    2   21      0.23      0.00
    6    2   21     -0.38      0.00
   -2    3   21     -0.23      0.00
   -1    3   21      0.36      0.00
    0    3   21     -0.39      0.00
    1    3   21      0.27      0.00
    2    3   21     -0.10      0.00
    5    3   21      0.17      0.00
    6    3   21     -0.27      0.00
   -1    4   21      0.27      0.00
    0    4   21     -0.37      0.00
    1    4   21      0.30      0.00
    6    4   21     -0.24      0.00
    7    4   21      0.14      0.00
   -1    5   21      0.12      0.00
    0    5   21     -0.28      0.00
    1    5   21      0.32      0.00
    5    5   21      0.12      0.00
    6    5   21     -0.27      0.00
    7    5   21      0.19      0.00
    0    6   21     -0.14      0.00
    1    6   21      0.26      0.00
    2    6   21     -0.24      0.00
    6    6   21     -0.24      0.00
    7    6   21      0.30      0.00
    0    7   21     -0.08      0.00
    1    7   21      0.14      0.00
    2    7   21     -0.23      0.00
    3    7   21      0.16      0.00
    4    7   21     -0.01      0.00
    5    7   21     -0.02      0.00
    6    7   21     -0.15      0.00
    2    8   21     -0.12      0.00
    3    8   21      0.15      0.00
    4    8   21     -0.09      0.00
    5    8   21      0.02      0.00
    6    8   21     -0.10      0.00
    4    9   21     -0.03      0.00
    1    1   22      0.02      0.00
    2    1   22     -0.13      0.00
    1    2   22     -0.10      0.00
    2    2   22     -0.09      0.00
    3    2   22      0.09      0.00
    4    2   22      0.08      0.00
    1    3   22     -0.22      0.00
    2    3   22     -0.01      0.00
    3    3   22      0.10      0.00
    4    3   22      0.03      0.00
    1    4   22     -0.30      0.00
    2    4   22      0.10      0.00
    3    4   22      0.08      0.00
    4    4   22     -0.04      0.00
    2    5   22      0.22      0.00
    3    5   22     -0.03      0.00
    4    5   22     -0.05      0.00
    3    6   22     -0.17      0.00
    4    6   22      0.04      0.00
    0    0    0      0.00      0.00
# SQUEEZE RESULTS (Version = 160617)
# Note: Data are Listed for all Voids in the P1 Unit Cell
# i.e. Centre of Gravity, Solvent Accessible Volume,
# Recovered number of Electrons in the Void and
# Details about the Squeezed Material
loop_
  _platon_squeeze_void_nr
  _platon_squeeze_void_average_x
  _platon_squeeze_void_average_y
  _platon_squeeze_void_average_z
  _platon_squeeze_void_volume
  _platon_squeeze_void_count_electrons
  _platon_squeeze_void_content
   1  0.375  0.173  0.718        11         1 ' '
   2  0.431  0.008  0.481         9         2 ' '
   3  0.585  0.990  0.523         8         2 ' '
   4  0.625  0.827  0.282        11         1 ' '
# Missing Reflections Below sin(th)/lambda = 0.25
loop_
  _platon_missing_refln_index_h
  _platon_missing_refln_index_k
  _platon_missing_refln_index_l
  _platon_missing_refln_theta
    1    0    0     4.330
    0    1    0     3.579
    0    2    0     7.173
    1   -2    1    10.059
    1   -1    1     7.006
    0    0    1     2.660
    2    0    1     8.785
    2   -2    2    14.119
    3   -2    3    18.680
   -2   -2    6    20.598
   -1    2    7    20.848
_platon_squeeze_void_probe_radius                  1.20
_platon_squeeze_details
)
TITL 180226cxx-1_a.res in P-1
CELL   10.9745   13.3310   17.0646     78.53     79.83     69.51
SPGR P-1
# Solvent Accessible Volume =        39
# Electrons Found in S.A.V. =         4
# Note: Atoms in Void are Labelled as Cxxx and Qxxx for all Others
Q101 0.298 0.055 0.451 !       3.37 eA-3
Q102 0.268 0.999 0.192 !       2.98 eA-3
Q103 0.283 0.998 0.113 !       2.52 eA-3
Q104 0.567 0.138 0.270 !       2.47 eA-3
Q105 0.812 0.241 0.215 !       2.45 eA-3
Q106 0.639 0.441 0.296 !       2.42 eA-3
Q107 0.391 0.394 0.297 !       2.29 eA-3
Q108 0.360 0.898 0.402 !       1.59 eA-3
Q109 0.114 0.072 0.440 !       1.58 eA-3
Q110 0.360 0.987 0.327 !       1.43 eA-3
Q111 0.452 0.777 0.177 !       1.39 eA-3
Q112 0.565 0.372 0.255 !       1.17 eA-3
Q113 0.665 0.312 0.251 !       1.15 eA-3
Q114 0.092 0.996 0.448 !       1.11 eA-3
Q115 0.561 0.292 0.313 !       1.04 eA-3
Q116 0.627 0.255 0.258 !       1.04 eA-3
Q117 0.112 0.730 0.200 !       0.99 eA-3
Q118 0.345 0.897 0.342 !       0.95 eA-3
Q119 0.623 0.184 0.169 !       0.92 eA-3
Q120 0.049 0.649 0.317 !       0.86 eA-3
Q121 0.673 0.185 0.111 !       0.86 eA-3
Q122 0.894 0.801 0.267 !       0.81 eA-3
Q123 0.748 0.579 0.059 !       0.77 eA-3
Q124 0.610 0.295 0.218 !       0.76 eA-3
Q125 0.548 0.284 0.250 !       0.74 eA-3
Q126 0.794 0.221 0.176 !       0.72 eA-3
Q127 0.718 0.144 0.136 !       0.71 eA-3
Q128 0.644 0.265 0.134 !       0.67 eA-3
Q129 0.722 0.219 0.171 !       0.66 eA-3
Q130 0.470 0.116 0.280 !       0.66 eA-3
Q131 0.747 0.219 0.123 !       0.66 eA-3
Q132 0.800 0.201 0.060 !       0.63 eA-3
Q133 0.235 0.927 0.416 !       0.62 eA-3
Q134 0.733 0.517 0.218 !       0.62 eA-3
Q135 0.517 0.237 0.301 !       0.62 eA-3
Q136 0.683 0.346 0.280 !       0.62 eA-3
Q137 0.192 0.456 0.136 !       0.61 eA-3
Q138 0.628 0.060 0.265 !       0.60 eA-3
Q139 0.017 0.026 0.061 !       0.60 eA-3
Q140 0.201 0.487 0.184 !       0.59 eA-3
Q141 0.739 0.396 0.375 !       0.59 eA-3
Q142 0.203 0.715 0.483 !       0.58 eA-3
Q143 0.576 0.787 0.468 !       0.58 eA-3
Q144 0.666 0.484 0.221 !       0.58 eA-3
Q145 0.202 0.971 0.346 !       0.58 eA-3
Q146 0.908 0.245 0.016 !       0.57 eA-3
Q147 0.934 0.852 0.280 !       0.57 eA-3
Q148 0.922 0.276 0.455 !       0.57 eA-3
Q149 0.875 0.133 0.224 !       0.57 eA-3
Q150 0.495 0.268 0.232 !       0.57 eA-3
Q151 0.787 0.615 0.100 !       0.57 eA-3
Q152 0.221 0.291 0.262 !       0.56 eA-3
Q153 0.658 0.451 0.093 !       0.56 eA-3
Q154 0.452 0.314 0.289 !       0.56 eA-3
Q155 0.603 0.126 0.185 !       0.56 eA-3
Q156 0.144 0.427 0.189 !       0.56 eA-3
Q157 0.628 0.166 0.082 !       0.56 eA-3
Q158 0.674 0.015 0.188 !       0.56 eA-3
Q159 0.453 0.797 0.336 !       0.56 eA-3
Q160 0.324 0.920 0.087 !       0.56 eA-3
Q161 0.489 0.351 0.105 !       0.55 eA-3
Q162 0.422 0.693 0.297 !       0.55 eA-3
Q163 0.262 0.389 0.422 !       0.55 eA-3
Q164 0.936 0.886 0.144 !       0.55 eA-3
Q165 0.613 0.172 0.045 !       0.55 eA-3
Q166 0.983 0.999 0.065 !       0.55 eA-3
Q167 0.090 0.826 0.291 !       0.55 eA-3
Q168 0.143 0.765 0.255 !       0.55 eA-3
Q169 0.706 0.053 0.093 !       0.55 eA-3
Q170 0.433 0.770 0.081 !       0.55 eA-3
Q171 0.749 0.586 0.248 !       0.55 eA-3
Q172 0.410 0.093 0.437 !       0.54 eA-3
Q173 0.217 0.818 0.184 !       0.54 eA-3
Q174 0.212 0.449 0.220 !       0.54 eA-3
Q175 0.482 0.337 0.326 !       0.53 eA-3
Q176 0.828 0.161 0.034 !       0.53 eA-3
Q177 0.467 0.174 0.317 !       0.53 eA-3
Q178 0.427 0.138 0.158 !       0.53 eA-3
Q179 0.719 0.227 0.013 !       0.53 eA-3
Q180 1.001 0.183 0.459 !       0.53 eA-3
Q181 0.143 0.173 0.390 !       0.53 eA-3
Q182 0.126 0.790 0.317 !       0.53 eA-3
Q183 0.845 0.230 0.060 !       0.53 eA-3
Q184 0.799 0.786 0.391 !       0.53 eA-3
Q185 0.676 0.451 0.361 !       0.53 eA-3
Q186 0.426 0.530 0.315 !       0.53 eA-3
Q187 0.468 0.512 0.392 !       0.52 eA-3
Q188 0.395 0.139 0.331 !       0.52 eA-3
Q189 0.984 0.030 0.093 !       0.52 eA-3
Q190 0.375 0.532 0.280 !       0.52 eA-3
Q191 0.360 0.490 0.309 !       0.52 eA-3
Q192 0.127 0.691 0.310 !       0.52 eA-3
Q193 0.528 0.376 0.093 !       0.52 eA-3
Q194 0.892 0.256 0.240 !       0.52 eA-3
Q195 0.787 0.107 0.095 !       0.52 eA-3
Q196 0.519 0.550 0.314 !       0.52 eA-3
Q197 0.907 0.664 0.063 !       0.52 eA-3
Q198 0.637 0.738 0.469 !       0.51 eA-3
Q199 0.643 0.009 0.341 !       0.51 eA-3
)
;
_shelx_fab_checksum              37353
_olex2_submission_special_instructions 'No special instructions were received'
loop_
_space_group_symop_operation_xyz
'x, y, z'
'-x, -y, -z'
loop_
_atom_site_label
_atom_site_type_symbol
_atom_site_fract_x
_atom_site_fract_y
_atom_site_fract_z
_atom_site_U_iso_or_equiv
_atom_site_adp_type
_atom_site_occupancy
_atom_site_site_symmetry_order
_atom_site_calc_flag
_atom_site_refinement_flags_posn
B1 B 0.9611(6) 0.2500(5) 0.7292(4) 0.0311(12) Uani 1 1 d .
F1 F 0.8970(3) 0.2665(3) 0.80542(19) 0.0415(8) Uani 1 1 d .
F2 F 0.9058(5) 0.1924(4) 0.6961(2) 0.0698(13) Uani 1 1 d .
F3 F 1.0924(3) 0.1920(3) 0.7348(2) 0.0514(9) Uani 1 1 d .
F4 F 0.9513(3) 0.3488(3) 0.6806(2) 0.0489(9) Uani 1 1 d .
C1 C 0.1235(6) 0.8919(5) 0.7038(4) 0.0465(15) Uani 1 1 d .
H1A H 0.0627 0.8784 0.6757 0.056 Uiso 1 1 calc R
H1B H 0.0739 0.9510 0.7339 0.056 Uiso 1 1 calc R
C2 C 0.2235(8) 0.9278(5) 0.6418(4) 0.0544(18) Uani 1 1 d .
H2A H 0.2731 0.8690 0.6115 0.065 Uiso 1 1 calc R
H2B H 0.1772 0.9884 0.6043 0.065 Uiso 1 1 calc R
C3 C 0.3177(7) 0.9610(5) 0.6768(4) 0.0497(17) Uani 1 1 d .
H3A H 0.2675 1.0176 0.7089 0.060 Uiso 1 1 calc R
H3B H 0.3693 0.9917 0.6329 0.060 Uiso 1 1 calc R
C4 C 0.1789(5) 0.9148(4) 0.9197(3) 0.0267(10) Uani 1 1 d .
C5 C 0.3028(5) 0.9281(4) 0.9111(3) 0.0280(10) Uani 1 1 d .
C6 C 0.3970(5) 0.8280(4) 0.9417(3) 0.0278(10) Uani 1 1 d .
C7 C 0.3270(5) 0.7524(4) 0.9728(3) 0.0252(9) Uani 1 1 d .
C8 C 0.1940(5) 0.8046(4) 0.9588(3) 0.0246(9) Uani 1 1 d .
C9 C 0.0873(5) 0.7554(5) 0.9836(3) 0.0331(11) Uani 1 1 d .
H9A H 0.0149 0.7958 0.9533 0.050 Uiso 1 1 calc GR
H9B H 0.0587 0.7568 1.0400 0.050 Uiso 1 1 calc GR
H9C H 0.1196 0.6818 0.9733 0.050 Uiso 1 1 calc GR
C10 C 0.0547(6) 0.9984(5) 0.8943(3) 0.0416(14) Uani 1 1 d .
H10A H 0.0746 1.0449 0.8468 0.062 Uiso 1 1 calc GR
H10B H 0.0115 1.0407 0.9367 0.062 Uiso 1 1 calc GR
H10C H -0.0018 0.9632 0.8830 0.062 Uiso 1 1 calc GR
C11 C 0.3346(7) 1.0305(4) 0.8767(4) 0.0431(14) Uani 1 1 d .
H11A H 0.4162 1.0133 0.8424 0.065 Uiso 1 1 calc GR
H11B H 0.3415 1.0641 0.9198 0.065 Uiso 1 1 calc GR
H11C H 0.2663 1.0793 0.8460 0.065 Uiso 1 1 calc GR
C12 C 0.5384(6) 0.8079(5) 0.9435(4) 0.0447(14) Uani 1 1 d .
H12A H 0.5850 0.7317 0.9464 0.067 Uiso 1 1 calc GR
H12B H 0.5497 0.8332 0.9897 0.067 Uiso 1 1 calc GR
H12C H 0.5719 0.8459 0.8955 0.067 Uiso 1 1 calc GR
C13 C 0.3831(6) 0.6402(4) 1.0171(3) 0.0364(12) Uani 1 1 d .
H13A H 0.3308 0.5972 1.0132 0.055 Uiso 1 1 calc GR
H13B H 0.3829 0.6440 1.0727 0.055 Uiso 1 1 calc GR
H13C H 0.4712 0.6077 0.9938 0.055 Uiso 1 1 calc GR
C14 C 0.8806(6) 0.5407(5) 0.8560(4) 0.0424(13) Uani 1 1 d .
H14 H 0.9222 0.4824 0.8927 0.051 Uiso 1 1 calc R
C15 C 0.9087(5) 0.6358(6) 0.8449(4) 0.0439(14) Uani 1 1 d .
H15 H 0.9687 0.6416 0.8746 0.053 Uiso 1 1 calc R
C16 C 0.8484(6) 0.7224(5) 0.7899(4) 0.0423(14) Uani 1 1 d .
H16 H 0.8681 0.7863 0.7824 0.051 Uiso 1 1 calc R
C17 C 0.7584(5) 0.7141(5) 0.7458(4) 0.0353(12) Uani 1 1 d .
H17 H 0.7188 0.7723 0.7083 0.042 Uiso 1 1 calc R
C18 C 0.7270(4) 0.6193(4) 0.7572(3) 0.0252(9) Uani 1 1 d .
C19 C 0.7894(5) 0.5315(4) 0.8122(3) 0.0303(10) Uani 1 1 d .
H19 H 0.7705 0.4673 0.8198 0.036 Uiso 1 1 calc R
C20 C 0.7753(6) 0.5816(5) 0.5564(3) 0.0368(12) Uani 1 1 d .
H20 H 0.8222 0.5157 0.5842 0.044 Uiso 1 1 calc R
C21 C 0.8174(6) 0.6122(6) 0.4766(4) 0.0430(14) Uani 1 1 d .
H21 H 0.8915 0.5659 0.4510 0.052 Uiso 1 1 calc R
C22 C 0.7524(7) 0.7079(6) 0.4358(4) 0.0493(16) Uani 1 1 d .
H22 H 0.7834 0.7285 0.3829 0.059 Uiso 1 1 calc R
C23 C 0.6411(9) 0.7748(6) 0.4721(5) 0.077(3) Uani 1 1 d .
H23 H 0.5958 0.8406 0.4435 0.093 Uiso 1 1 calc R
C24 C 0.5949(7) 0.7454(5) 0.5512(4) 0.062(2) Uani 1 1 d .
H24 H 0.5177 0.7906 0.5751 0.075 Uiso 1 1 calc R
C25 C 0.6637(5) 0.6490(4) 0.5948(3) 0.0264(10) Uani 1 1 d .
C26 C 0.2209(6) 0.6782(5) 0.4839(3) 0.0375(12) Uani 1 1 d .
H26 H 0.2547 0.6955 0.4310 0.045 Uiso 1 1 calc R
C27 C 0.0887(6) 0.6951(6) 0.5028(4) 0.0449(14) Uani 1 1 d .
H27 H 0.0332 0.7241 0.4627 0.054 Uiso 1 1 calc R
C28 C 0.0386(6) 0.6688(6) 0.5811(4) 0.0439(14) Uani 1 1 d .
H28 H -0.0507 0.6804 0.5937 0.053 Uiso 1 1 calc R
C29 C 0.1207(5) 0.6251(5) 0.6413(3) 0.0349(12) Uani 1 1 d .
H29 H 0.0861 0.6081 0.6941 0.042 Uiso 1 1 calc R
C30 C 0.2550(5) 0.6069(4) 0.6227(3) 0.0277(10) Uani 1 1 d .
C31 C 0.3046(5) 0.6353(4) 0.5440(3) 0.0325(11) Uani 1 1 d .
H31 H 0.3935 0.6259 0.5313 0.039 Uiso 1 1 calc R
C32 C 0.2456(5) 0.4025(4) 0.7685(4) 0.0345(11) Uani 1 1 d .
H32 H 0.2467 0.3931 0.7158 0.041 Uiso 1 1 calc R
C33 C 0.1998(6) 0.3378(5) 0.8320(4) 0.0431(14) Uani 1 1 d .
H33 H 0.1687 0.2856 0.8218 0.052 Uiso 1 1 calc R
C34 C 0.1999(6) 0.3499(4) 0.9097(4) 0.0401(13) Uani 1 1 d .
H34 H 0.1705 0.3050 0.9520 0.048 Uiso 1 1 calc R
C35 C 0.2438(5) 0.4289(4) 0.9257(3) 0.0350(11) Uani 1 1 d .
H35 H 0.2434 0.4371 0.9787 0.042 Uiso 1 1 calc R
C36 C 0.2885(5) 0.4958(4) 0.8621(3) 0.0279(10) Uani 1 1 d .
H36 H 0.3169 0.5493 0.8726 0.033 Uiso 1 1 calc R
C37 C 0.2907(5) 0.4827(4) 0.7837(3) 0.0256(10) Uani 1 1 d .
C38 C 0.5150(5) 0.4654(4) 0.6639(3) 0.0267(10) Uani 1 1 d .
H38A H 0.5077 0.3934 0.6741 0.032 Uiso 1 1 calc R
H38B H 0.5344 0.4848 0.6063 0.032 Uiso 1 1 calc R
C39 C 0.6233(4) 0.4678(4) 0.7078(3) 0.0251(9) Uani 1 1 d .
H39A H 0.7087 0.4279 0.6829 0.030 Uiso 1 1 calc R
H39B H 0.6132 0.4358 0.7638 0.030 Uiso 1 1 calc R
Co1 Co 0.31435(7) 0.80255(5) 0.85182(4) 0.01842(19) Uani 1 1 d .
H H 0.401(5) 0.693(4) 0.846(3) 0.012(11) Uiso 1 1 d .
Ni1 Ni 0.40258(7) 0.69509(6) 0.73384(4) 0.0202(2) Uani 1 1 d .
P1 P 0.36122(11) 0.56358(9) 0.70178(7) 0.0224(2) Uani 1 1 d .
P2 P 0.60693(11) 0.61140(9) 0.69988(7) 0.0214(2) Uani 1 1 d .
S1 S 0.19187(11) 0.77111(10) 0.77507(7) 0.0255(3) Uani 1 1 d .
S2 S 0.42991(12) 0.85272(9) 0.73957(8) 0.0295(3) Uani 1 1 d .
C40 C -0.1976(17) 1.0525(11) 0.5970(11) 0.145(7) Uani 1 1 d .
H40A H -0.1406 1.0591 0.6318 0.174 Uiso 1 1 calc R
H40B H -0.1967 1.1057 0.5491 0.174 Uiso 1 1 calc R
Cl1 Cl -0.3475(8) 1.0832(9) 0.6439(7) 0.310(6) Uani 1 1 d .
Cl2 Cl -0.1349(6) 0.9296(3) 0.5697(3) 0.175(2) Uani 1 1 d .
C41 C 0.7139(6) 0.1258(5) 0.8479(5) 0.0505(16) Uani 1 1 d .
H41A H 0.7729 0.1287 0.7986 0.061 Uiso 1 1 calc R
H41B H 0.7444 0.1506 0.8881 0.061 Uiso 1 1 calc R
Cl3 Cl 0.55474(18) 0.21352(14) 0.83004(13) 0.0634(5) Uani 1 1 d .
Cl4 Cl 0.7181(2) -0.00676(17) 0.8806(2) 0.1030(10) Uani 1 1 d .
loop_
_atom_site_aniso_label
_atom_site_aniso_U_11
_atom_site_aniso_U_22
_atom_site_aniso_U_33
_atom_site_aniso_U_23
_atom_site_aniso_U_13
_atom_site_aniso_U_12
B1 0.030(3) 0.028(3) 0.033(3) -0.004(2) -0.001(2) -0.007(2)
F1 0.050(2) 0.0391(18) 0.0297(16) -0.0064(13) 0.0077(14) -0.0125(15)
F2 0.091(3) 0.108(4) 0.042(2) -0.020(2) 0.002(2) -0.072(3)
F3 0.0323(17) 0.044(2) 0.055(2) 0.0084(16) -0.0033(15) 0.0063(15)
F4 0.0406(19) 0.0383(18) 0.045(2) 0.0123(15) 0.0040(15) 0.0005(15)
C1 0.040(3) 0.045(3) 0.043(3) -0.009(3) -0.021(3) 0.009(3)
C2 0.076(5) 0.038(3) 0.027(3) 0.002(2) -0.010(3) 0.007(3)
C3 0.071(4) 0.024(3) 0.036(3) 0.005(2) 0.011(3) -0.006(3)
C4 0.034(3) 0.019(2) 0.021(2) -0.0104(17) 0.0014(19) -0.0008(19)
C5 0.043(3) 0.020(2) 0.023(2) -0.0061(18) -0.003(2) -0.012(2)
C6 0.038(3) 0.026(2) 0.025(2) -0.0037(19) -0.007(2) -0.017(2)
C7 0.032(3) 0.021(2) 0.025(2) -0.0025(17) -0.0051(19) -0.0118(19)
C8 0.032(2) 0.024(2) 0.019(2) -0.0064(17) -0.0033(18) -0.0089(19)
C9 0.032(3) 0.042(3) 0.027(2) -0.010(2) 0.008(2) -0.017(2)
C10 0.044(3) 0.032(3) 0.032(3) -0.010(2) 0.005(2) 0.008(2)
C11 0.068(4) 0.023(3) 0.045(3) -0.002(2) -0.013(3) -0.022(3)
C12 0.040(3) 0.052(4) 0.051(4) 0.001(3) -0.016(3) -0.024(3)
C13 0.046(3) 0.028(3) 0.037(3) 0.003(2) -0.013(2) -0.016(2)
C14 0.028(3) 0.055(4) 0.042(3) -0.013(3) -0.004(2) -0.008(3)
C15 0.025(3) 0.067(4) 0.046(3) -0.023(3) 0.002(2) -0.016(3)
C16 0.031(3) 0.047(3) 0.059(4) -0.024(3) 0.009(3) -0.023(3)
C17 0.028(3) 0.034(3) 0.045(3) -0.013(2) 0.008(2) -0.013(2)
C18 0.017(2) 0.029(2) 0.029(2) -0.0084(19) 0.0028(18) -0.0071(18)
C19 0.028(2) 0.030(3) 0.033(3) -0.006(2) -0.001(2) -0.009(2)
C20 0.036(3) 0.041(3) 0.031(3) -0.011(2) 0.008(2) -0.013(2)
C21 0.038(3) 0.059(4) 0.035(3) -0.022(3) 0.009(2) -0.017(3)
C22 0.058(4) 0.055(4) 0.032(3) -0.004(3) 0.013(3) -0.024(3)
C23 0.088(6) 0.050(4) 0.047(4) 0.022(3) 0.013(4) 0.009(4)
C24 0.061(4) 0.040(3) 0.044(4) 0.010(3) 0.024(3) 0.012(3)
C25 0.026(2) 0.028(2) 0.026(2) -0.0062(19) 0.0052(18) -0.0122(19)
C26 0.040(3) 0.046(3) 0.026(3) -0.009(2) -0.004(2) -0.011(3)
C27 0.042(3) 0.059(4) 0.034(3) -0.012(3) -0.016(2) -0.008(3)
C28 0.028(3) 0.065(4) 0.040(3) -0.012(3) -0.012(2) -0.012(3)
C29 0.028(3) 0.054(3) 0.028(3) -0.018(2) 0.005(2) -0.017(2)
C30 0.027(2) 0.031(2) 0.027(2) -0.016(2) 0.0009(19) -0.007(2)
C31 0.031(3) 0.039(3) 0.028(3) -0.013(2) 0.004(2) -0.011(2)
C32 0.034(3) 0.032(3) 0.043(3) -0.012(2) -0.005(2) -0.014(2)
C33 0.035(3) 0.029(3) 0.070(4) -0.004(3) -0.010(3) -0.017(2)
C34 0.033(3) 0.028(3) 0.054(4) 0.010(2) -0.001(2) -0.014(2)
C35 0.032(3) 0.034(3) 0.034(3) 0.002(2) -0.003(2) -0.009(2)
C36 0.025(2) 0.029(2) 0.031(3) -0.005(2) -0.0004(19) -0.011(2)
C37 0.022(2) 0.020(2) 0.035(3) -0.0067(19) 0.0000(19) -0.0078(18)
C38 0.024(2) 0.025(2) 0.032(2) -0.0108(19) 0.0034(19) -0.0089(19)
C39 0.020(2) 0.022(2) 0.031(2) -0.0039(18) -0.0012(18) -0.0044(17)
Co1 0.0194(4) 0.0146(3) 0.0206(4) -0.0034(3) -0.0012(3) -0.0049(3)
Ni1 0.0186(4) 0.0176(4) 0.0222(4) -0.0059(3) 0.0019(3) -0.0034(3)
P1 0.0199(5) 0.0241(6) 0.0230(6) -0.0093(4) 0.0022(4) -0.0063(4)
P2 0.0186(5) 0.0191(5) 0.0243(6) -0.0049(4) 0.0035(4) -0.0055(4)
S1 0.0176(5) 0.0316(6) 0.0264(6) -0.0127(5) -0.0022(4) -0.0026(4)
S2 0.0315(6) 0.0193(5) 0.0341(6) -0.0050(4) 0.0092(5) -0.0094(5)
C40 0.165(15) 0.080(8) 0.205(18) -0.018(10) -0.094(14) -0.024(9)
Cl1 0.183(6) 0.403(14) 0.406(14) -0.201(11) 0.061(8) -0.141(8)
Cl2 0.316(7) 0.093(2) 0.134(3) 0.000(2) -0.125(4) -0.050(3)
C41 0.038(3) 0.044(3) 0.074(5) -0.017(3) 0.008(3) -0.022(3)
Cl3 0.0526(10) 0.0447(9) 0.0865(13) -0.0036(8) -0.0082(9) -0.0113(7)
Cl4 0.0641(13) 0.0449(10) 0.203(3) 0.0088(14) -0.0358(16) -0.0268(9)
loop_
_atom_type_symbol
_atom_type_description
_atom_type_scat_dispersion_real
_atom_type_scat_dispersion_imag
_atom_type_scat_source
C C 0.0181 0.0091 'International Tables Vol C Tables 4.2.6.8 and 6.1.1.4'
H H 0.0000 0.0000 'International Tables Vol C Tables 4.2.6.8 and 6.1.1.4'
B B 0.0090 0.0039 'International Tables Vol C Tables 4.2.6.8 and 6.1.1.4'
Cl Cl 0.3639 0.7018 'International Tables Vol C Tables 4.2.6.8 and 6.1.1.4'
Co Co -2.3653 3.6143 'International Tables Vol C Tables 4.2.6.8 and 6.1.1.4'
F F 0.0727 0.0534 'International Tables Vol C Tables 4.2.6.8 and 6.1.1.4'
Ni Ni -3.0029 0.5091 'International Tables Vol C Tables 4.2.6.8 and 6.1.1.4'
P P 0.2955 0.4335 'International Tables Vol C Tables 4.2.6.8 and 6.1.1.4'
S S 0.3331 0.5567 'International Tables Vol C Tables 4.2.6.8 and 6.1.1.4'
loop_
_geom_angle_atom_site_label_1
_geom_angle_atom_site_label_2
_geom_angle_atom_site_label_3
_geom_angle
F1 B1 F3 109.3(5)
F1 B1 F4 110.2(5)
F2 B1 F1 109.2(5)
F2 B1 F3 109.5(5)
F2 B1 F4 109.8(5)
F3 B1 F4 108.8(5)
H1A C1 H1B 107.5
C2 C1 H1A 108.5
C2 C1 H1B 108.5
C2 C1 S1 115.1(4)
S1 C1 H1A 108.5
S1 C1 H1B 108.5
C1 C2 H2A 108.7
C1 C2 H2B 108.7
H2A C2 H2B 107.6
C3 C2 C1 114.3(5)
C3 C2 H2A 108.7
C3 C2 H2B 108.7
C2 C3 H3A 108.4
C2 C3 H3B 108.4
C2 C3 S2 115.7(4)
H3A C3 H3B 107.4
S2 C3 H3A 108.4
S2 C3 H3B 108.4
C5 C4 C8 107.0(4)
C5 C4 C10 126.7(5)
C5 C4 Co1 70.2(3)
C8 C4 C10 126.2(5)
C8 C4 Co1 68.6(3)
C10 C4 Co1 126.7(4)
C4 C5 C6 109.5(4)
C4 C5 C11 126.5(5)
C4 C5 Co1 70.1(3)
C6 C5 C11 124.0(5)
C6 C5 Co1 68.6(3)
C11 C5 Co1 128.4(4)
C5 C6 C7 106.9(4)
C5 C6 C12 126.5(5)
C5 C6 Co1 70.6(3)
C7 C6 C12 126.6(5)
C7 C6 Co1 69.5(3)
C12 C6 Co1 126.5(4)
C6 C7 C13 125.8(5)
C6 C7 Co1 69.3(3)
C8 C7 C6 108.2(4)
C8 C7 C13 125.9(4)
C8 C7 Co1 69.8(3)
C13 C7 Co1 129.4(4)
C4 C8 C9 126.2(5)
C4 C8 Co1 70.3(3)
C7 C8 C4 108.4(4)
C7 C8 C9 125.4(4)
C7 C8 Co1 69.7(3)
C9 C8 Co1 127.8(3)
C8 C9 H9A 109.5
C8 C9 H9B 109.5
C8 C9 H9C 109.5
H9A C9 H9B 109.5
H9A C9 H9C 109.5
H9B C9 H9C 109.5
C4 C10 H10A 109.5
C4 C10 H10B 109.5
C4 C10 H10C 109.5
H10A C10 H10B 109.5
H10A C10 H10C 109.5
H10B C10 H10C 109.5
C5 C11 H11A 109.5
C5 C11 H11B 109.5
C5 C11 H11C 109.5
H11A C11 H11B 109.5
H11A C11 H11C 109.5
H11B C11 H11C 109.5
C6 C12 H12A 109.5
C6 C12 H12B 109.5
C6 C12 H12C 109.5
H12A C12 H12B 109.5
H12A C12 H12C 109.5
H12B C12 H12C 109.5
C7 C13 H13A 109.5
C7 C13 H13B 109.5
C7 C13 H13C 109.5
H13A C13 H13B 109.5
H13A C13 H13C 109.5
H13B C13 H13C 109.5
C15 C14 H14 119.9
C15 C14 C19 120.3(6)
C19 C14 H14 119.9
C14 C15 H15 119.9
C14 C15 C16 120.3(5)
C16 C15 H15 119.9
C15 C16 H16 120.0
C15 C16 C17 120.0(5)
C17 C16 H16 120.0
C16 C17 H17 119.7
C16 C17 C18 120.5(6)
C18 C17 H17 119.7
C17 C18 C19 119.2(5)
C17 C18 P2 119.6(4)
C19 C18 P2 121.2(4)
C14 C19 H19 120.1
C18 C19 C14 119.7(5)
C18 C19 H19 120.1
C21 C20 H20 120.0
C25 C20 H20 120.0
C25 C20 C21 120.1(6)
C20 C21 H21 119.5
C22 C21 C20 120.9(6)
C22 C21 H21 119.5
C21 C22 H22 120.0
C21 C22 C23 120.0(6)
C23 C22 H22 120.0
C22 C23 H23 119.8
C22 C23 C24 120.5(6)
C24 C23 H23 119.8
C23 C24 H24 120.0
C25 C24 C23 120.1(6)
C25 C24 H24 120.0
C20 C25 P2 121.0(4)
C24 C25 C20 118.4(5)
C24 C25 P2 120.5(4)
C27 C26 H26 119.9
C27 C26 C31 120.3(5)
C31 C26 H26 119.9
C26 C27 H27 120.0
C26 C27 C28 119.9(5)
C28 C27 H27 120.0
C27 C28 H28 119.8
C27 C28 C29 120.5(5)
C29 C28 H28 119.8
C28 C29 H29 120.0
C28 C29 C30 120.1(5)
C30 C29 H29 120.0
C29 C30 P1 120.7(4)
C31 C30 C29 119.2(5)
C31 C30 P1 119.6(4)
C26 C31 H31 120.0
C30 C31 C26 120.0(5)
C30 C31 H31 120.0
C33 C32 H32 120.0
C33 C32 C37 119.9(5)
C37 C32 H32 120.0
C32 C33 H33 119.8
C34 C33 C32 120.4(5)
C34 C33 H33 119.8
C33 C34 H34 119.8
C33 C34 C35 120.4(5)
C35 C34 H34 119.8
C34 C35 H35 120.2
C34 C35 C36 119.7(5)
C36 C35 H35 120.2
C35 C36 H36 119.9
C37 C36 C35 120.2(5)
C37 C36 H36 119.9
C32 C37 P1 121.0(4)
C36 C37 C32 119.4(5)
C36 C37 P1 119.5(4)
H38A C38 H38B 108.5
C39 C38 H38A 110.2
C39 C38 H38B 110.2
C39 C38 P1 107.5(3)
P1 C38 H38A 110.2
P1 C38 H38B 110.2
C38 C39 H39A 110.5
C38 C39 H39B 110.5
C38 C39 P2 106.0(3)
H39A C39 H39B 108.7
P2 C39 H39A 110.5
P2 C39 H39B 110.5
C4 Co1 C5 39.7(2)
C4 Co1 H 149.6(19)
C4 Co1 Ni1 156.42(14)
C4 Co1 S1 103.16(15)
C4 Co1 S2 121.88(14)
C5 Co1 H 136.5(19)
C5 Co1 Ni1 151.46(14)
C5 Co1 S1 136.63(15)
C5 Co1 S2 96.19(14)
C6 Co1 C4 68.6(2)
C6 Co1 C5 40.8(2)
C6 Co1 C7 41.11(18)
C6 Co1 C8 68.7(2)
C6 Co1 H 96.3(19)
C6 Co1 Ni1 134.42(15)
C6 Co1 S1 167.96(15)
C6 Co1 S2 103.75(15)
C7 Co1 C4 68.66(19)
C7 Co1 C5 68.09(18)
C7 Co1 C8 40.47(19)
C7 Co1 H 82.6(19)
C7 Co1 Ni1 130.06(14)
C7 Co1 S1 128.45(14)
C7 Co1 S2 140.90(14)
C8 Co1 C4 41.14(19)
C8 Co1 C5 67.69(19)
C8 Co1 H 109.4(19)
C8 Co1 Ni1 140.85(13)
C8 Co1 S1 99.25(14)
C8 Co1 S2 162.61(14)
Ni1 Co1 H 47.9(19)
S1 Co1 H 86.8(18)
S1 Co1 Ni1 54.91(4)
S1 Co1 S2 88.03(5)
S2 Co1 H 86.7(19)
S2 Co1 Ni1 55.55(4)
Co1 Ni1 H 34.1(14)
P1 Ni1 Co1 132.89(5)
P1 Ni1 H 116.1(14)
P1 Ni1 P2 87.42(5)
P1 Ni1 S1 90.51(5)
P1 Ni1 S2 166.64(6)
P2 Ni1 Co1 124.82(5)
P2 Ni1 H 101.0(14)
P2 Ni1 S1 175.99(6)
P2 Ni1 S2 95.34(5)
S1 Ni1 Co1 54.86(4)
S1 Ni1 H 76.8(14)
S1 Ni1 S2 87.46(5)
S2 Ni1 Co1 54.75(4)
S2 Ni1 H 76.2(14)
C30 P1 C37 107.2(2)
C30 P1 C38 106.8(2)
C30 P1 Ni1 112.79(17)
C37 P1 C38 103.9(2)
C37 P1 Ni1 116.02(16)
C38 P1 Ni1 109.39(16)
C18 P2 C25 105.3(2)
C18 P2 C39 107.7(2)
C18 P2 Ni1 118.38(15)
C25 P2 C39 104.2(2)
C25 P2 Ni1 113.91(17)
C39 P2 Ni1 106.31(15)
C1 S1 Co1 110.5(2)
C1 S1 Ni1 109.1(2)
Co1 S1 Ni1 70.23(4)
C3 S2 Co1 108.5(2)
C3 S2 Ni1 108.5(2)
Co1 S2 Ni1 69.70(4)
H40A C40 H40B 107.4
Cl1 C40 H40A 108.3
Cl1 C40 H40B 108.3
Cl1 C40 Cl2 115.9(10)
Cl2 C40 H40A 108.3
Cl2 C40 H40B 108.3
H41A C41 H41B 107.9
Cl3 C41 H41A 109.2
Cl3 C41 H41B 109.2
Cl4 C41 H41A 109.2
Cl4 C41 H41B 109.2
Cl4 C41 Cl3 112.2(3)
loop_
_geom_bond_atom_site_label_1
_geom_bond_atom_site_label_2
_geom_bond_distance
B1 F1 1.384(7)
B1 F2 1.379(7)
B1 F3 1.387(7)
B1 F4 1.390(7)
C1 H1A 0.9700
C1 H1B 0.9700
C1 C2 1.520(10)
C1 S1 1.826(6)
C2 H2A 0.9700
C2 H2B 0.9700
C2 C3 1.505(11)
C3 H3A 0.9700
C3 H3B 0.9700
C3 S2 1.831(7)
C4 C5 1.410(8)
C4 C8 1.452(7)
C4 C10 1.497(7)
C4 Co1 2.077(4)
C5 C6 1.439(7)
C5 C11 1.508(7)
C5 Co1 2.078(5)
C6 C7 1.441(6)
C6 C12 1.484(8)
C6 Co1 2.050(5)
C7 C8 1.420(7)
C7 C13 1.502(7)
C7 Co1 2.053(5)
C8 C9 1.495(7)
C8 Co1 2.054(5)
C9 H9A 0.9600
C9 H9B 0.9600
C9 H9C 0.9600
C10 H10A 0.9600
C10 H10B 0.9600
C10 H10C 0.9600
C11 H11A 0.9600
C11 H11B 0.9600
C11 H11C 0.9600
C12 H12A 0.9600
C12 H12B 0.9600
C12 H12C 0.9600
C13 H13A 0.9600
C13 H13B 0.9600
C13 H13C 0.9600
C14 H14 0.9300
C14 C15 1.377(9)
C14 C19 1.399(8)
C15 H15 0.9300
C15 C16 1.380(10)
C16 H16 0.9300
C16 C17 1.388(8)
C17 H17 0.9300
C17 C18 1.393(7)
C18 C19 1.396(7)
C18 P2 1.815(5)
C19 H19 0.9300
C20 H20 0.9300
C20 C21 1.387(8)
C20 C25 1.385(7)
C21 H21 0.9300
C21 C22 1.343(10)
C22 H22 0.9300
C22 C23 1.364(10)
C23 H23 0.9300
C23 C24 1.386(9)
C24 H24 0.9300
C24 C25 1.383(8)
C25 P2 1.822(5)
C26 H26 0.9300
C26 C27 1.377(9)
C26 C31 1.398(8)
C27 H27 0.9300
C27 C28 1.378(9)
C28 H28 0.9300
C28 C29 1.388(8)
C29 H29 0.9300
C29 C30 1.395(7)
C30 C31 1.388(7)
C30 P1 1.813(5)
C31 H31 0.9300
C32 H32 0.9300
C32 C33 1.383(8)
C32 C37 1.407(7)
C33 H33 0.9300
C33 C34 1.366(9)
C34 H34 0.9300
C34 C35 1.390(8)
C35 H35 0.9300
C35 C36 1.396(7)
C36 H36 0.9300
C36 C37 1.377(7)
C37 P1 1.822(5)
C38 H38A 0.9700
C38 H38B 0.9700
C38 C39 1.525(7)
C38 P1 1.840(5)
C39 H39A 0.9700
C39 H39B 0.9700
C39 P2 1.838(5)
Co1 H 1.45(5)
Co1 Ni1 2.5557(10)
Co1 S1 2.2209(13)
Co1 S2 2.2252(13)
Ni1 H 1.91(5)
Ni1 P1 2.1459(14)
Ni1 P2 2.1578(13)
Ni1 S1 2.2221(13)
Ni1 S2 2.2470(14)
C40 H40A 0.9700
C40 H40B 0.9700
C40 Cl1 1.646(19)
C40 Cl2 1.666(14)
C41 H41A 0.9700
C41 H41B 0.9700
C41 Cl3 1.768(7)
C41 Cl4 1.731(7)
