#------------------------------------------------------------------------------
#$Date: 2018-11-09 01:20:52 +0200 (Fri, 09 Nov 2018) $
#$Revision: 211862 $
#$URL: file:///home/coder/svn-repositories/cod/cif/1/55/02/1550204.cif $
#------------------------------------------------------------------------------
#
# This file is available in the Crystallography Open Database (COD),
# http://www.crystallography.net/
#
# All data on this site have been placed in the public domain by the
# contributors.
#
data_1550204
loop_
_publ_author_name
'Linares, F\'atima'
'Garcia-Fernandez, Emilio'
'L\'opez-Garz\'on, F Javier'
'Domingo-Garcia, Maria'
'Orte, Angel'
'Rodr\'iguez Di\'eguez, Antonio'
'Galindo Cuesta, Miguel Angel'
_publ_section_title
;
 Multifunctional Behavior of Molecules Comprising Stacked
 Cytosine-AgI-Cytosine Base Pairs; Towards Conducting and
 Photoluminescence Silver-DNA Nanowires
;
_journal_name_full               'Chemical Science'
_journal_paper_doi               10.1039/C8SC04036B
_journal_year                    2019
_chemical_formula_moiety         'C80 H112 Ag8 N48 O16, 7(Cl O4)'
_chemical_formula_sum            'C80 H112 Ag8 Cl8 N48 O48'
_chemical_formula_weight         3660.73
_space_group_crystal_system      orthorhombic
_space_group_IT_number           19
_space_group_name_Hall           'P 2ac 2ab'
_space_group_name_H-M_alt        'P 21 21 21'
_symmetry_space_group_name_Hall  'P 2ac 2ab'
_symmetry_space_group_name_H-M   'P 21 21 21'
_atom_sites_solution_hydrogens   geom
_audit_creation_date             2018-06-06
_audit_creation_method
;
Olex2 1.2
(compiled 2018.05.29 svn.r3508 for OlexSys, GUI svn.r5506)
;
_audit_update_record
;
2018-06-07 deposited with the CCDC.
2018-11-05 downloaded from the CCDC.
;
_cell_angle_alpha                90
_cell_angle_beta                 90
_cell_angle_gamma                90
_cell_formula_units_Z            4
_cell_length_a                   21.9528(19)
_cell_length_b                   22.8449(16)
_cell_length_c                   26.174(2)
_cell_measurement_reflns_used    9252
_cell_measurement_temperature    100(2)
_cell_measurement_theta_max      23.28
_cell_measurement_theta_min      2.33
_cell_volume                     13126.5(18)
_computing_cell_refinement       'Bruker ApexII'
_computing_data_collection       'Bruker ApexII'
_computing_data_reduction        'Bruker ApexII'
_computing_molecular_graphics    'Olex2 (Dolomanov et al., 2009)'
_computing_publication_material  'Olex2 (Dolomanov et al., 2009)'
_computing_structure_refinement  'XL (Sheldrick, 2008)'
_diffrn_ambient_temperature      100(2)
_diffrn_measured_fraction_theta_full 0.969
_diffrn_measured_fraction_theta_max 0.969
_diffrn_measurement_device_type  'Bruker D8 Venture'
_diffrn_measurement_method       '\f and \w scans'
_diffrn_radiation_type           MoK\a
_diffrn_radiation_wavelength     0.71069
_diffrn_reflns_av_R_equivalents  0.1453
_diffrn_reflns_av_unetI/netI     0.1436
_diffrn_reflns_Laue_measured_fraction_full 0.969
_diffrn_reflns_Laue_measured_fraction_max 0.969
_diffrn_reflns_limit_h_max       24
_diffrn_reflns_limit_h_min       -24
_diffrn_reflns_limit_k_max       25
_diffrn_reflns_limit_k_min       -25
_diffrn_reflns_limit_l_max       29
_diffrn_reflns_limit_l_min       -29
_diffrn_reflns_number            190510
_diffrn_reflns_point_group_measured_fraction_full 0.965
_diffrn_reflns_point_group_measured_fraction_max 0.965
_diffrn_reflns_theta_full        23.791
_diffrn_reflns_theta_max         23.791
_diffrn_reflns_theta_min         2.155
_diffrn_source                   'fine-focus sealed tube'
_diffrn_standards_number         0
_exptl_absorpt_coefficient_mu    1.432
_exptl_absorpt_correction_T_max  0.7449
_exptl_absorpt_correction_T_min  0.5157
_exptl_absorpt_correction_type   empirical
_exptl_absorpt_process_details
;
SADABS-2014/5 (Bruker,2014/5) was used for absorption correction.
wR2(int) was 0.1448 before and 0.0979 after correction.
The Ratio of minimum to maximum transmission is 0.6923.
The \l/2 correction factor is 0.00150.
;
_exptl_crystal_colour            Colourless
_exptl_crystal_density_diffrn    1.852
_exptl_crystal_description       Prismatic
_exptl_crystal_F_000             7296
_exptl_crystal_size_max          0.10
_exptl_crystal_size_mid          0.07
_exptl_crystal_size_min          0.05
_refine_diff_density_max         3.478
_refine_diff_density_min         -2.905
_refine_diff_density_rms         0.242
_refine_ls_abs_structure_details
;
 Flack x determined using 6424 quotients [(I+)-(I-)]/[(I+)+(I-)]
 (Parsons, Flack and Wagner, Acta Cryst. B69 (2013) 249-259).
;
_refine_ls_abs_structure_Flack   0.054(13)
_refine_ls_extinction_method     none
_refine_ls_goodness_of_fit_ref   1.095
_refine_ls_hydrogen_treatment    constr
_refine_ls_matrix_type           full
_refine_ls_number_parameters     1510
_refine_ls_number_reflns         19388
_refine_ls_number_restraints     0
_refine_ls_restrained_S_all      1.095
_refine_ls_R_factor_all          0.1115
_refine_ls_R_factor_gt           0.0767
_refine_ls_shift/su_max          0.000
_refine_ls_shift/su_mean         0.000
_refine_ls_structure_factor_coef Fsqd
_refine_ls_weighting_details
'w=1/[\s^2^(Fo^2^)+(0.1020P)^2^+185.9486P] where P=(Fo^2^+2Fc^2^)/3'
_refine_ls_weighting_scheme      calc
_refine_ls_wR_factor_gt          0.1857
_refine_ls_wR_factor_ref         0.2051
_reflns_Friedel_coverage         0.841
_reflns_Friedel_fraction_full    0.961
_reflns_Friedel_fraction_max     0.961
_reflns_number_gt                16090
_reflns_number_total             19388
_reflns_threshold_expression     'I > 2\s(I)'
_cod_data_source_file            c8sc04036b2.cif
_cod_data_source_block           Compound3
_cod_depositor_comments
;
The following automatic conversions were performed:

'_exptl_absorpt_correction_type' value 'Empirical' changed to
'empirical' according to
/home/data/users/saulius/crontab/automatic-downloads/rss-feeds/RSC/lib/dictionaries/cif_core.dic
dictionary named 'cif_core.dic' version 2.4.2 from 2011-04-26.

Automatic conversion script
Id: cif_fix_values 4973 2017-02-22 13:04:09Z antanas 
;
_cod_original_cell_volume        13126.3(18)
_cod_database_code               1550204
_shelx_shelxl_version_number     2017/1
_shelx_space_group_comment
;
The symmetry employed for this shelxl refinement is uniquely defined
by the following loop, which should always be used as a source of
symmetry information in preference to the above space-group names.
They are only intended as comments.
;
_olex2_refinement_description
;
1. Fixed Uiso
 At 1.2 times of:
  All C(H) groups, All N(H,H) groups
 At 1.5 times of:
  All C(H,H,H) groups
2.a Aromatic/amide H refined with riding coordinates:
 C2A(H2A), C2B(H2B), C2C(H2C), C2D(H2D), C2E(H2E), C2F(H2F), C2G(H2G),
 C2H(H2H), C2I(H2I), C2J(H2J), C2K(H2K), C2L(H2L), C2M(H2M), C2N(H2N), C2O(H2O),
  C2P(H2P), C3A(H3A), C3B(H3B), C3C(H3C), C3D(H3D), C3E(H3E), C3F(H3F),
 C3G(H3G), C3H(H3H), C3I(H3I), C3J(H3J), C3K(H3K), C3L(H3L), C3M(H3M), C3N(H3N),
  C3O(H3O), C3P(H3P)
2.b X=CH2 refined with riding coordinates:
 N3A(H3AA,H3AB), N3B(H3BA,H3BB), N3C(H3CA,H3CB), N3D(H3DA,H3DB), N3E(H3EA,
 H3EB), N3F(H3FA,H3FB), N3G(H3GA,H3GB), N3H(H3HA,H3HB), N3I(H3IA,H3IB),
 N3J(H3JA,H3JB), N3K(H3KA,H3KB), N3L(H3LA,H3LB), N3M(H3MA,H3MB), N3N(H3NA,H3NB),
  N3O(H3OA,H3OB), N3P(H3PA,H3PB)
2.c Idealised Me refined as rotating group:
 C1A(H1AA,H1AB,H1AC), C1B(H1BA,H1BB,H1BC), C1C(H1CA,H1CB,H1CC), C1D(H1DA,H1DB,
 H1DC), C1E(H1EA,H1EB,H1EC), C1F(H1FA,H1FB,H1FC), C1G(H1GA,H1GB,H1GC), C1H(H1HA,
 H1HB,H1HC), C1I(H1IA,H1IB,H1IC), C1J(H1JA,H1JB,H1JC), C1K(H1KA,H1KB,H1KC),
 C1L(H1LA,H1LB,H1LC), C1M(H1MA,H1MB,H1MC), C1N(H1NA,H1NB,H1NC), C1O(H1OA,H1OB,
 H1OC), C1P(H1PA,H1PB,H1PC)
;
_shelx_res_file
;
TITL mo_AGCL0_0m in P2(1)2(1)2(1)
    mo_agcl0_0m.res
    created by SHELXL-2017/1 at 21:26:29 on 06-Jun-2018
CELL 0.71069 21.9528 22.8449 26.1735 90 90 90
ZERR 4 0.0019 0.0016 0.0022 0 0 0
LATT -1
SYMM 0.5-X,-Y,0.5+Z
SYMM 0.5+X,0.5-Y,-Z
SYMM -X,0.5+Y,0.5-Z
SFAC C H N O Ag Cl
UNIT 320 448 192 192 32 32

L.S. 80
PLAN  20
ABIN
fmap 2
acta
MERG 2
REM <olex2.extras>
REM <HklSrc "%.\\mo_AGCL0_0m.hkl">
REM </olex2.extras>

WGHT    0.102000  185.948578
FVAR       0.06522
AG1   5    0.949760    0.501869    0.100207    11.00000    0.01628    0.01203 =
         0.05090   -0.00253   -0.00312    0.00024
AG2   5    0.814563    0.500970    0.103481    11.00000    0.01711    0.02432 =
         0.05161    0.01611   -0.00737   -0.00328
AG3   5    0.683257    0.489102    0.092892    11.00000    0.01263    0.04274 =
         0.02280   -0.00146   -0.00093    0.00399
AG4   5    0.558600    0.530715    0.096843    11.00000    0.01526    0.01437 =
         0.02916   -0.00612    0.00091   -0.00003
AG5   5    0.442144    0.494500    0.142416    11.00000    0.01667    0.01202 =
         0.03187    0.00251    0.00003    0.00209
AG6   5    0.328068    0.463854    0.092430    11.00000    0.01652    0.01324 =
         0.02821    0.00734    0.00140   -0.00018
AG7   5    0.208725    0.520454    0.096090    11.00000    0.01431    0.02100 =
         0.02422   -0.00037    0.00062    0.00066
AG8   5    0.083249    0.497533    0.124910    11.00000    0.01405    0.01798 =
         0.04474   -0.00922    0.00363    0.00042
C1A   1    1.036920    0.322175    0.212263    11.00000    0.03446
AFIX 137
H1AA  2    1.011367    0.323169    0.242015    11.00000   -1.50000
H1AB  2    1.069315    0.350066    0.216054    11.00000   -1.50000
H1AC  2    1.053796    0.283665    0.208368    11.00000   -1.50000
AFIX   0
C1B   1    0.851841    0.689399    0.188879    11.00000    0.04766    0.03011 =
         0.04881   -0.01216   -0.00751    0.01357
AFIX 137
H1BA  2    0.811469    0.674804    0.182845    11.00000   -1.50000
H1BB  2    0.850596    0.731260    0.191918    11.00000   -1.50000
H1BC  2    0.867532    0.672813    0.219904    11.00000   -1.50000
AFIX   0
C1C   1    0.756380    0.274102    0.128247    11.00000    0.08004    0.02402 =
         0.07859    0.00898   -0.03723   -0.03430
AFIX 137
H1CA  2    0.768156    0.238837    0.145578    11.00000   -1.50000
H1CB  2    0.769828    0.272444    0.093375    11.00000   -1.50000
H1CC  2    0.712848    0.277958    0.129157    11.00000   -1.50000
AFIX   0
C1D   1    0.899185    0.547352   -0.085169    11.00000    0.06834    0.05823 =
         0.03786    0.00962    0.00234    0.00948
AFIX 137
H1DA  2    0.892749    0.569163   -0.116051    11.00000   -1.50000
H1DB  2    0.886638    0.507518   -0.090241    11.00000   -1.50000
H1DC  2    0.941622    0.548313   -0.076353    11.00000   -1.50000
AFIX   0
C1E   1    0.742051    0.596582    0.266826    11.00000    0.05235    0.07337 =
         0.04192   -0.00553    0.00272   -0.01931
AFIX 137
H1EA  2    0.750922    0.591122    0.302424    11.00000   -1.50000
H1EB  2    0.715238    0.629452    0.262771    11.00000   -1.50000
H1EC  2    0.779228    0.603718    0.248546    11.00000   -1.50000
AFIX   0
C1F   1    0.634414    0.635306   -0.062998    11.00000    0.04563    0.03415 =
         0.03750    0.00688    0.00282    0.01313
AFIX 137
H1FA  2    0.643772    0.645800   -0.097637    11.00000   -1.50000
H1FB  2    0.650365    0.664519   -0.040279    11.00000   -1.50000
H1FC  2    0.591039    0.632812   -0.058871    11.00000   -1.50000
AFIX   0
C1G   1    0.535074    0.563414    0.301117    11.00000    0.04262
AFIX 137
H1GA  2    0.544691    0.587319    0.330184    11.00000   -1.50000
H1GB  2    0.555035    0.526209    0.304353    11.00000   -1.50000
H1GC  2    0.491812    0.557606    0.299397    11.00000   -1.50000
AFIX   0
C1H   1    0.601049    0.319246    0.014050    11.00000    0.05567    0.02750 =
         0.07296   -0.03310    0.00662    0.00532
AFIX 137
H1HA  2    0.592498    0.291836   -0.012810    11.00000   -1.50000
H1HB  2    0.584608    0.304840    0.045626    11.00000   -1.50000
H1HC  2    0.644319    0.324006    0.017353    11.00000   -1.50000
AFIX   0
C1I   1    0.459296    0.705573    0.050462    11.00000    0.03790    0.02226 =
         0.03841    0.00660    0.01388   -0.00193
AFIX 137
H1IA  2    0.456086    0.747274    0.054106    11.00000   -1.50000
H1IB  2    0.433778    0.692813    0.022836    11.00000   -1.50000
H1IC  2    0.500823    0.695225    0.043351    11.00000   -1.50000
AFIX   0
C1J   1    0.433741    0.286337    0.044407    11.00000    0.03367    0.03957 =
         0.03784    0.00629   -0.00614   -0.00471
AFIX 137
H1JA  2    0.441354    0.245007    0.046189    11.00000   -1.50000
H1JB  2    0.456726    0.302924    0.016765    11.00000   -1.50000
H1JC  2    0.391098    0.293005    0.038733    11.00000   -1.50000
AFIX   0
C1K   1    0.299761    0.679639    0.014488    11.00000    0.05276    0.02894 =
         0.04328    0.00823   -0.00350    0.01104
AFIX 137
H1KA  2    0.300099    0.704201   -0.015271    11.00000   -1.50000
H1KB  2    0.325668    0.696274    0.040223    11.00000   -1.50000
H1KC  2    0.258943    0.676731    0.027402    11.00000   -1.50000
AFIX   0
C1L   1    0.340049    0.420988    0.294786    11.00000    0.04450
AFIX 137
H1LA  2    0.339692    0.391934    0.321284    11.00000   -1.50000
H1LB  2    0.310628    0.450800    0.302486    11.00000   -1.50000
H1LC  2    0.379845    0.438235    0.292648    11.00000   -1.50000
AFIX   0
C1M   1    0.245183    0.369871   -0.062393    11.00000    0.03317
AFIX 137
H1MA  2    0.222386    0.340184   -0.044834    11.00000   -1.50000
H1MB  2    0.287310    0.367256   -0.052824    11.00000   -1.50000
H1MC  2    0.241369    0.364290   -0.098605    11.00000   -1.50000
AFIX   0
C1N   1    0.159054    0.449616    0.290001    11.00000    0.05735
AFIX 137
H1NA  2    0.177216    0.449426    0.323365    11.00000   -1.50000
H1NB  2    0.168194    0.413490    0.272904    11.00000   -1.50000
H1NC  2    0.115707    0.453808    0.293178    11.00000   -1.50000
AFIX   0
C1O   1    0.024579    0.431273   -0.061465    11.00000    0.03342    0.07528 =
         0.04963    0.00569   -0.00114    0.00514
AFIX 137
H1OA  2    0.044968    0.465326   -0.074483    11.00000   -1.50000
H1OB  2   -0.016509    0.441245   -0.052416    11.00000   -1.50000
H1OC  2    0.024167    0.401311   -0.087180    11.00000   -1.50000
AFIX   0
C1P   1    0.117629    0.728976    0.118172    11.00000    0.04362
AFIX 137
H1PA  2    0.110071    0.766088    0.134167    11.00000   -1.50000
H1PB  2    0.099592    0.728626    0.084760    11.00000   -1.50000
H1PC  2    0.160756    0.722871    0.115264    11.00000   -1.50000
AFIX   0
C2A   1    0.975589    0.295308    0.135676    11.00000    0.04120
AFIX  43
H2A   2    0.983365    0.256355    0.143680    11.00000   -1.20000
AFIX   0
C2B   1    0.916934    0.712052    0.113026    11.00000    0.02703    0.02418 =
         0.05611   -0.00162   -0.00669   -0.00112
AFIX  43
H2B   2    0.908407    0.751721    0.116567    11.00000   -1.20000
AFIX   0
C2C   1    0.811821    0.319264    0.200000    11.00000    0.06640    0.04402 =
         0.05694    0.01526   -0.04300   -0.03633
AFIX  43
H2C   2    0.813157    0.282529    0.215270    11.00000   -1.20000
AFIX   0
C2D   1    0.834040    0.625381   -0.045772    11.00000    0.02703    0.04525 =
         0.04685    0.00431   -0.00690    0.02406
AFIX  43
H2D   2    0.837438    0.645502   -0.076529    11.00000   -1.20000
AFIX   0
C2E   1    0.697010    0.501338    0.276883    11.00000    0.05820    0.06592 =
         0.06571   -0.01673   -0.00469   -0.01145
AFIX  43
H2E   2    0.701247    0.506619    0.311935    11.00000   -1.20000
AFIX   0
C2F   1    0.686946    0.543654   -0.088704    11.00000    0.04161    0.04251 =
         0.03565   -0.00354    0.01223    0.01371
AFIX  43
H2F   2    0.686207    0.556527   -0.122407    11.00000   -1.20000
AFIX   0
C2G   1    0.573900    0.650469    0.252521    11.00000    0.02648    0.06194 =
         0.04294   -0.01782   -0.01172   -0.00558
AFIX  43
H2G   2    0.573167    0.672181    0.282571    11.00000   -1.20000
AFIX   0
C2H   1    0.552867    0.389925   -0.044193    11.00000    0.02106    0.04117 =
         0.06185   -0.02550   -0.00941    0.00411
AFIX  43
H2H   2    0.553797    0.361304   -0.069449    11.00000   -1.20000
AFIX   0
C2I   1    0.422263    0.709613    0.141316    11.00000    0.04306    0.01936 =
         0.04742    0.00340    0.02230   -0.00533
AFIX  43
H2I   2    0.421898    0.750296    0.140078    11.00000   -1.20000
AFIX   0
C2J   1    0.467375    0.281623    0.134691    11.00000    0.06047    0.00843 =
         0.04511    0.00797   -0.00493    0.00537
AFIX  43
H2J   2    0.467885    0.241023    0.132117    11.00000   -1.20000
AFIX   0
C2K   1    0.338033    0.604500   -0.047823    11.00000    0.01478    0.04031 =
         0.03071    0.02081    0.00127    0.00731
AFIX  43
H2K   2    0.334857    0.631981   -0.073902    11.00000   -1.20000
AFIX   0
C2L   1    0.310539    0.334293    0.241329    11.00000    0.04297    0.02166 =
         0.03831    0.01305    0.00927    0.01044
AFIX  43
H2L   2    0.309781    0.311510    0.270769    11.00000   -1.20000
AFIX   0
C2M   1    0.197353    0.464110   -0.086687    11.00000    0.01903    0.04358 =
         0.02802   -0.00248   -0.00166    0.01185
AFIX  43
H2M   2    0.197297    0.452192   -0.120663    11.00000   -1.20000
AFIX   0
C2N   1    0.202130    0.551266    0.280301    11.00000    0.02815    0.08259 =
         0.04040   -0.02185    0.00258   -0.03107
AFIX  43
H2N   2    0.198222    0.554948    0.315535    11.00000   -1.20000
AFIX   0
C2O   1    0.080850    0.356242   -0.011929    11.00000    0.03343
AFIX  43
H2O   2    0.078457    0.331307   -0.039944    11.00000   -1.20000
AFIX   0
C2P   1    0.054964    0.695600    0.190135    11.00000    0.04006    0.01007 =
         0.04110    0.00452    0.01486   -0.00666
AFIX  43
H2P   2    0.049401    0.734611    0.199154    11.00000   -1.20000
AFIX   0
C3A   1    0.941250    0.306287    0.095108    11.00000    0.03420    0.00777 =
         0.06783   -0.00689    0.02070    0.00019
AFIX  43
H3A   2    0.924886    0.276302    0.075379    11.00000   -1.20000
AFIX   0
C3B   1    0.953389    0.694561    0.076212    11.00000    0.02563    0.02949 =
         0.04597    0.01204   -0.00275    0.00306
AFIX  43
H3B   2    0.969767    0.722081    0.053922    11.00000   -1.20000
AFIX   0
C3C   1    0.838153    0.368235    0.225171    11.00000    0.06750    0.02671 =
         0.02938    0.01811    0.01167    0.01131
AFIX  43
H3C   2    0.854332    0.365224    0.257905    11.00000   -1.20000
AFIX   0
C3D   1    0.801631    0.649840   -0.008919    11.00000    0.02559    0.02482 =
         0.04821    0.01813   -0.01312   -0.00256
AFIX  43
H3D   2    0.784771    0.687048   -0.011723    11.00000   -1.20000
AFIX   0
C3E   1    0.675204    0.451059    0.262310    11.00000    0.06322    0.05214 =
         0.04262    0.00531    0.00105   -0.00140
AFIX  43
H3E   2    0.665979    0.421522    0.285506    11.00000   -1.20000
AFIX   0
C3F   1    0.711828    0.492630   -0.078340    11.00000    0.04546    0.03511 =
         0.02203    0.00004    0.01847    0.00714
AFIX  43
H3F   2    0.727669    0.469068   -0.104089    11.00000   -1.20000
AFIX   0
C3G   1    0.592107    0.676183    0.209406    11.00000    0.05235    0.02639 =
         0.02559   -0.01713   -0.00506   -0.00500
AFIX  43
H3G   2    0.605634    0.714762    0.209386    11.00000   -1.20000
AFIX   0
C3H   1    0.531171    0.443831   -0.055801    11.00000    0.02463    0.03228 =
         0.02286   -0.01105    0.00529   -0.00360
AFIX  43
H3H   2    0.517963    0.452254   -0.088752    11.00000   -1.20000
AFIX   0
C3I   1    0.406117    0.681002    0.184553    11.00000    0.03282
AFIX  43
H3I   2    0.394879    0.701507    0.213766    11.00000   -1.20000
AFIX   0
C3J   1    0.481608    0.307389    0.179808    11.00000    0.03541    0.02270 =
         0.05876    0.02779   -0.01517   -0.00013
AFIX  43
H3J   2    0.493157    0.285579    0.208204    11.00000   -1.20000
AFIX   0
C3K   1    0.358112    0.550083   -0.059370    11.00000    0.00966    0.02188 =
         0.02304    0.01797    0.00959    0.00875
AFIX  43
H3K   2    0.371264    0.540692   -0.092137    11.00000   -1.20000
AFIX   0
C3L   1    0.298109    0.309836    0.195806    11.00000    0.02930
AFIX  43
H3L   2    0.289133    0.270169    0.193138    11.00000   -1.20000
AFIX   0
C3M   1    0.174652    0.515679   -0.073624    11.00000    0.04171    0.05881 =
         0.00671    0.00888    0.00270    0.00435
AFIX  43
H3M   2    0.158576    0.540230   -0.098554    11.00000   -1.20000
AFIX   0
C3N   1    0.224631    0.596059    0.254013    11.00000    0.03999
AFIX  43
H3N   2    0.235600    0.630718    0.270224    11.00000   -1.20000
AFIX   0
C3O   1    0.107289    0.337039    0.028876    11.00000    0.04174    0.00846 =
         0.08728   -0.01609    0.01721   -0.00260
AFIX  43
H3O   2    0.122207    0.298972    0.030281    11.00000   -1.20000
AFIX   0
C3P   1    0.027315    0.653373    0.217860    11.00000    0.02667    0.01961 =
         0.04247   -0.01307   -0.00248   -0.00016
AFIX  43
H3P   2    0.002773    0.661755    0.245883    11.00000   -1.20000
AFIX   0
C4A   1    0.930774    0.365718    0.083363    11.00000    0.03039
C4B   1    0.968405    0.633989    0.069723    11.00000    0.02753    0.01935 =
         0.04952    0.00650   -0.00674   -0.00854
C4C   1    0.838560    0.421353    0.198245    11.00000    0.03066    0.02498 =
         0.02854    0.00789   -0.01243   -0.00264
C4D   1    0.794555    0.613314    0.036704    11.00000    0.02496
C4E   1    0.665919    0.443605    0.206534    11.00000    0.05435
C4F   1    0.713626    0.474537   -0.025374    11.00000    0.02738
C4G   1    0.590231    0.642168    0.162299    11.00000    0.00907    0.03307 =
         0.04635   -0.01340    0.00543    0.00214
C4H   1    0.528806    0.487701   -0.016757    11.00000    0.02749
C4I   1    0.406779    0.621177    0.184112    11.00000    0.02321
C4J   1    0.478147    0.366155    0.181340    11.00000    0.02705    0.01765 =
         0.03678   -0.00537   -0.01097   -0.00723
C4K   1    0.358342    0.507526   -0.019236    11.00000    0.02712
C4L   1    0.299085    0.346515    0.151687    11.00000    0.02125
C4M   1    0.174769    0.533636   -0.021665    11.00000    0.02076
C4N   1    0.231585    0.589172    0.198978    11.00000    0.03743    0.03123 =
         0.04706    0.00176    0.00417   -0.02159
C4O   1    0.113161    0.374877    0.071367    11.00000    0.02680
C4P   1    0.038490    0.595262    0.201064    11.00000    0.03958    0.01572 =
         0.03452   -0.00127   -0.00955    0.00531
C5A   1    0.988596    0.394642    0.157138    11.00000    0.02790
C5B   1    0.901436    0.614969    0.141675    11.00000    0.02945
C5C   1    0.783917    0.378872    0.128344    11.00000    0.02291    0.03339 =
         0.02719    0.01269    0.00666   -0.00739
C5D   1    0.856970    0.538586    0.003167    11.00000    0.01906    0.04034 =
         0.04972   -0.00814   -0.00951   -0.01342
C5E   1    0.707877    0.539790    0.193905    11.00000    0.03226
C5F   1    0.661570    0.558388   -0.000185    11.00000    0.01431
C5G   1    0.552119    0.559702    0.208823    11.00000    0.00966    0.01769 =
         0.04755    0.00016   -0.00594   -0.00429
C5H   1    0.572203    0.419562    0.041933    11.00000    0.02312
C5I   1    0.442980    0.615180    0.102757    11.00000    0.00517    0.01267 =
         0.04405    0.01045    0.00738    0.00352
C5J   1    0.445666    0.374349    0.097964    11.00000    0.02978
C5K   1    0.321532    0.578599    0.041100    11.00000    0.01968
C5L   1    0.327235    0.427552    0.200352    11.00000    0.02956
C5M   1    0.222180    0.446294    0.003455    11.00000    0.01099    0.02240 =
         0.03427    0.00559   -0.00654   -0.00938
C5N   1    0.191831    0.492280    0.205237    11.00000    0.03406
C5O   1    0.058676    0.448173    0.024141    11.00000    0.02810
C5P   1    0.098950    0.625441    0.133815    11.00000    0.00838    0.06214 =
         0.04641    0.03087    0.00374    0.01173
N1A   3    0.956794    0.409253    0.113112    11.00000    0.01876    0.01309 =
         0.04697    0.00733    0.00475    0.00189
N1B   3    0.939431    0.596630    0.102577    11.00000    0.01076    0.01300 =
         0.07032   -0.00527   -0.00852    0.00025
N1C   3    0.810898    0.425768    0.152338    11.00000    0.01557    0.01537 =
         0.03541    0.00476    0.00208   -0.00266
N1D   3    0.819588    0.562188    0.042190    11.00000    0.02116
N1E   3    0.683246    0.486041    0.174959    11.00000    0.01820    0.03033 =
         0.05057   -0.00956    0.00839   -0.00374
N1F   3    0.687018    0.508158    0.011905    11.00000    0.01834
N1G   3    0.571611    0.587647    0.162675    11.00000    0.01550    0.01275 =
         0.04703   -0.00027    0.00885    0.00584
N1H   3    0.550076    0.473175    0.033118    11.00000    0.02622
N1I   3    0.425065    0.588264    0.146514    11.00000    0.00724    0.01580 =
         0.04846    0.00546   -0.00267   -0.00241
N1J   3    0.459024    0.400074    0.142244    11.00000    0.02940    0.02119 =
         0.01818    0.00385   -0.00062    0.00784
N1K   3    0.339501    0.524390    0.029248    11.00000    0.02172
N1L   3    0.315110    0.402208    0.154530    11.00000    0.00976    0.02393 =
         0.03744   -0.01102   -0.00321    0.00679
N1M   3    0.198206    0.497212    0.015796    11.00000    0.01690    0.01783 =
         0.03261   -0.00277    0.00126   -0.00474
N1N   3    0.213793    0.537640    0.178126    11.00000    0.02015
N1O   3    0.086177    0.429018    0.067204    11.00000    0.02834    0.01973 =
         0.06467   -0.00090    0.00811   -0.00726
N1P   3    0.073382    0.580926    0.161434    11.00000    0.02072    0.01783 =
         0.03929   -0.00586   -0.00305   -0.00381
N2A   3    1.000196    0.337075    0.166359    11.00000    0.02315    0.02055 =
         0.03229    0.00618   -0.00170   -0.00236
N2B   3    0.891475    0.673073    0.146031    11.00000    0.02063    0.01264 =
         0.06691    0.00328   -0.00134    0.00554
N2C   3    0.785035    0.325850    0.154272    11.00000    0.03787    0.03323 =
         0.05880    0.02243   -0.00137   -0.00846
N2D   3    0.861801    0.574548   -0.041909    11.00000    0.04541    0.04922 =
         0.03866    0.00255   -0.00490    0.00248
N2E   3    0.714025    0.546250    0.247504    11.00000    0.05956    0.05723 =
         0.01815    0.00608    0.00911    0.00426
N2F   3    0.661843    0.578811   -0.051170    11.00000    0.03049    0.02303 =
         0.02503    0.00809    0.00680    0.00127
N2G   3    0.556246    0.592978    0.253796    11.00000    0.02046    0.02126 =
         0.03187   -0.00191    0.00669   -0.00319
N2H   3    0.572487    0.377154    0.001520    11.00000    0.03652    0.00623 =
         0.05807   -0.01081   -0.01062    0.00305
N2I   3    0.439508    0.676831    0.098530    11.00000    0.01889    0.03923 =
         0.02758   -0.00657    0.00990    0.00078
N2J   3    0.452381    0.314310    0.093203    11.00000    0.03722    0.01324 =
         0.03169   -0.00201   -0.01092   -0.00306
N2K   3    0.322203    0.620674    0.000797    11.00000    0.04517    0.01397 =
         0.04674    0.01166    0.00573    0.00260
N2L   3    0.324345    0.392757    0.244521    11.00000    0.03410    0.02934 =
         0.02434    0.00519   -0.00551   -0.00393
N2M   3    0.221511    0.427662   -0.048535    11.00000    0.02261    0.03058 =
         0.02540    0.00161    0.00592    0.00393
N2N   3    0.185024    0.501611    0.258525    11.00000    0.04230    0.06037 =
         0.03762    0.00563   -0.00047   -0.01851
N2O   3    0.056645    0.409913   -0.016379    11.00000    0.04363    0.05724 =
         0.02965   -0.01204   -0.00420   -0.01208
N2P   3    0.090914    0.682264    0.149141    11.00000    0.02572    0.01386 =
         0.03667    0.00952    0.01120   -0.00018
N3A   3    0.901477    0.381419    0.041970    11.00000    0.03787    0.03170 =
         0.04683   -0.00356   -0.01231   -0.01257
AFIX  93
H3AA  2    0.898823    0.417837    0.033951    11.00000   -1.20000
H3AB  2    0.884898    0.355309    0.022816    11.00000   -1.20000
AFIX   0
N3B   3    1.004118    0.616731    0.034020    11.00000    0.02171    0.02615 =
         0.06208    0.01521   -0.00238    0.00766
AFIX  93
H3BA  2    1.010890    0.579971    0.029785    11.00000   -1.20000
H3BB  2    1.021305    0.641912    0.014304    11.00000   -1.20000
AFIX   0
N3C   3    0.864274    0.467378    0.218942    11.00000    0.04720    0.01833 =
         0.04006    0.01154    0.00149   -0.00933
AFIX  93
H3CA  2    0.863544    0.500462    0.203278    11.00000   -1.20000
H3CB  2    0.881877    0.464494    0.248187    11.00000   -1.20000
AFIX   0
N3D   3    0.763302    0.634481    0.075393    11.00000    0.03276    0.00991 =
         0.07696    0.01268   -0.02357   -0.00674
AFIX  93
H3DA  2    0.759984    0.614576    0.103143    11.00000   -1.20000
H3DB  2    0.746184    0.668225    0.072940    11.00000   -1.20000
AFIX   0
N3E   3    0.644698    0.398918    0.185218    11.00000    0.03709    0.05304 =
         0.03773    0.00362    0.00183   -0.00795
AFIX  93
H3EA  2    0.642234    0.397409    0.152452    11.00000   -1.20000
H3EB  2    0.632599    0.369761    0.203356    11.00000   -1.20000
AFIX   0
N3F   3    0.737312    0.424412   -0.013694    11.00000    0.04176    0.03982 =
         0.03328    0.00704    0.00630    0.00278
AFIX  93
H3FA  2    0.736359    0.412228    0.017385    11.00000   -1.20000
H3FB  2    0.754004    0.403289   -0.037012    11.00000   -1.20000
AFIX   0
N3G   3    0.606205    0.666486    0.118698    11.00000    0.04707    0.02627 =
         0.04164   -0.01149    0.00999   -0.01626
AFIX  93
H3GA  2    0.604367    0.646624    0.090828    11.00000   -1.20000
H3GB  2    0.618475    0.702230    0.118092    11.00000   -1.20000
AFIX   0
N3H   3    0.509313    0.539850   -0.024251    11.00000    0.00731    0.02697 =
         0.03385   -0.00052   -0.00153   -0.00220
AFIX  93
H3HA  2    0.496713    0.550119   -0.054043    11.00000   -1.20000
H3HB  2    0.508827    0.564591    0.000510    11.00000   -1.20000
AFIX   0
N3I   3    0.390178    0.589201    0.228101    11.00000    0.02866    0.02087 =
         0.02741   -0.01029   -0.00181   -0.00245
AFIX  93
H3IA  2    0.392727    0.551635    0.228114    11.00000   -1.20000
H3IB  2    0.377514    0.607282    0.254892    11.00000   -1.20000
AFIX   0
N3J   3    0.490433    0.395113    0.226417    11.00000    0.02998    0.02925 =
         0.05579    0.00835   -0.00972    0.00231
AFIX  93
H3JA  2    0.500226    0.375605    0.253292    11.00000   -1.20000
H3JB  2    0.488300    0.432675    0.227649    11.00000   -1.20000
AFIX   0
N3K   3    0.376959    0.455329   -0.027868    11.00000    0.02460    0.02627 =
         0.03315    0.01102    0.00959   -0.00050
AFIX  93
H3KA  2    0.377925    0.430136   -0.003466    11.00000   -1.20000
H3KB  2    0.388495    0.445469   -0.058067    11.00000   -1.20000
AFIX   0
N3L   3    0.288399    0.323853    0.105160    11.00000    0.03072    0.02472 =
         0.03539   -0.00404   -0.00489   -0.00556
AFIX  93
H3LA  2    0.292058    0.345452    0.078425    11.00000   -1.20000
H3LB  2    0.277902    0.287752    0.102122    11.00000   -1.20000
AFIX   0
N3M   3    0.153404    0.586723   -0.007614    11.00000    0.02850    0.03740 =
         0.02652    0.01110    0.00500    0.02443
AFIX  93
H3MA  2    0.154566    0.597165    0.023939    11.00000   -1.20000
H3MB  2    0.138643    0.610066   -0.030225    11.00000   -1.20000
AFIX   0
N3N   3    0.251241    0.632051    0.173579    11.00000    0.03711    0.03361 =
         0.02969   -0.01233    0.01136   -0.00881
AFIX  93
H3NA  2    0.254015    0.629657    0.140870    11.00000   -1.20000
H3NB  2    0.261882    0.663712    0.188952    11.00000   -1.20000
AFIX   0
N3O   3    0.140158    0.359446    0.115250    11.00000    0.04515    0.01993 =
         0.03334    0.00403    0.00085    0.00694
AFIX  93
H3OA  2    0.140561    0.383340    0.140638    11.00000   -1.20000
H3OB  2    0.157087    0.325647    0.118031    11.00000   -1.20000
AFIX   0
N3P   3    0.011014    0.549995    0.227229    11.00000    0.05157    0.02028 =
         0.03529   -0.00471    0.01928   -0.01170
AFIX  93
H3PA  2    0.016809    0.514405    0.217688    11.00000   -1.20000
H3PB  2   -0.011912    0.557359    0.253086    11.00000   -1.20000
AFIX   0

O1    4    0.966864    0.154886    0.153464    11.00000    0.03908    0.04258 =
         0.08575    0.00051   -0.00860   -0.01125
O1A   4    1.011138    0.432835    0.182916    11.00000    0.03349    0.01893 =
         0.03246   -0.00510   -0.00706   -0.00472
O1B   4    0.875472    0.578726    0.168965    11.00000    0.03526    0.02206 =
         0.04545    0.01075    0.01707    0.00971
O1C   4    0.756611    0.383369    0.088254    11.00000    0.03110    0.03124 =
         0.04208    0.00662   -0.00150   -0.01227
O1D   4    0.885592    0.494399    0.005617    11.00000    0.04958    0.03618 =
         0.05074    0.01116   -0.00050    0.02626
O1E   4    0.727185    0.579155    0.166613    11.00000    0.03898    0.05161 =
         0.03032    0.00621   -0.00303    0.00634
O1F   4    0.636272    0.591127    0.033267    11.00000    0.03906    0.02660 =
         0.03435    0.00531    0.00446   -0.00443
O1G   4    0.535297    0.509394    0.209936    11.00000    0.04458    0.01541 =
         0.02921   -0.01030    0.00395   -0.00874
O1H   4    0.592850    0.405318    0.083662    11.00000    0.02866    0.01954 =
         0.04697    0.00525    0.00346    0.00474
O1I   4    0.461080    0.588220    0.062823    11.00000    0.03309    0.03460 =
         0.03304   -0.00314    0.00016    0.00953
O1J   4    0.426467    0.401923    0.060964    11.00000    0.03616    0.02651 =
         0.03211    0.01175    0.00546    0.01629
O1K   4    0.302364    0.592432    0.080702    11.00000    0.02572    0.02812 =
         0.03587   -0.00401    0.00222    0.00165
O1L   4    0.342327    0.480206    0.205241    11.00000    0.05668    0.00692 =
         0.04626    0.01099   -0.01039   -0.00631
O1M   4    0.243243    0.411348    0.034493    11.00000    0.02957    0.01019 =
         0.03379   -0.00500   -0.01014   -0.00141
O1N   4    0.174378    0.446593    0.186861    11.00000    0.05115    0.02466 =
         0.03916   -0.00549   -0.00508   -0.00752
O1O   4    0.034740    0.496607    0.022012    11.00000    0.05857    0.03119 =
         0.01796   -0.00087    0.00446    0.02530
O1P   4    0.132940    0.616291    0.097931    11.00000    0.02358    0.02352 =
         0.03429    0.00084   -0.00173   -0.00150
O2    4    0.897195    0.079911    0.133519    11.00000    0.06969    0.01373 =
         0.04800   -0.00290    0.01471   -0.00982
O3    4    0.860427    0.170928    0.162468    11.00000    0.04522    0.03612 =
         0.06821   -0.00614    0.01918   -0.00815
O4    4    0.905024    0.163488    0.080771    11.00000    0.09749    0.02377 =
         0.03264    0.00976   -0.01262   -0.02495
O5    4    0.631942    0.119655    0.154870    11.00000    0.15735
O6    4    0.651905    0.198641    0.196750    11.00000    0.12561
O7    4    0.612885    0.217701    0.113719    11.00000    0.09111    0.05148 =
         0.02453    0.01371   -0.01810   -0.00819
O8    4    0.551026    0.177696    0.177815    11.00000    0.02472    0.03184 =
         0.05636   -0.00012   -0.00585    0.00201
O9    4    0.416222    0.148975    0.094031    11.00000    0.05221    0.04235 =
         0.03718    0.00490   -0.00855   -0.00355
O10   4    0.327386    0.097371    0.110087    11.00000    0.05276    0.03407 =
         0.06208   -0.01391    0.00496   -0.01734
O11   4    0.327607    0.171373    0.048353    11.00000    0.05401    0.05627 =
         0.05002    0.00624   -0.01641    0.00089
O12   4    0.336670    0.195944    0.134892    11.00000    0.10079    0.03250 =
         0.05085   -0.01906    0.00683    0.00402
O13   4    0.167745    0.139974    0.131788    11.00000    0.08883    0.02317 =
         0.18505   -0.01107   -0.05437   -0.00811
O14   4    0.187324    0.229817    0.100028    11.00000    0.05721    0.05949 =
         0.11604    0.04093    0.04287    0.01644
O15   4    0.180174    0.222375    0.185841    11.00000    0.14084    0.20611 =
         0.06324   -0.05841   -0.02482   -0.07295
O16   4    0.093460    0.212683    0.130986    11.00000    0.04465    0.05072 =
         0.07029   -0.01622   -0.00161   -0.00384
O17   4    1.025692    0.841444    0.164340    11.00000    0.04317    0.05280 =
         0.03965    0.00815    0.00753    0.03151
O18   4    0.979427    0.926639    0.133393    11.00000    0.04873    0.02213 =
         0.03071   -0.00449   -0.00730   -0.00527
O19   4    0.976720    0.839989    0.083272    11.00000    0.04934    0.02972 =
         0.02041   -0.00686    0.00010   -0.00508
O20   4    0.918480    0.848087    0.160416    11.00000    0.05016    0.03725 =
         0.06646   -0.02211    0.01992    0.00459
O21   4    0.712100    0.844340    0.097008    11.00000    0.05731    0.02079 =
         0.05494   -0.00400   -0.00219    0.01382
O22   4    0.695393    0.763584    0.151891    11.00000    0.06654    0.04840 =
         0.03273   -0.00517    0.01352   -0.02000
O23   4    0.788032    0.773506    0.105196    11.00000    0.02121    0.02889 =
         0.04666    0.01204    0.00921    0.00010
O24   4    0.696195    0.749514    0.062367    11.00000    0.04088    0.03879 =
         0.03367   -0.00667   -0.01349   -0.00977
O25   4    0.329768    0.825704    0.165866    11.00000    0.04770    0.09223 =
         0.03402   -0.00425   -0.00091   -0.01655
O26   4    0.225402    0.837734    0.161563    11.00000    0.06011    0.04783 =
         0.05099   -0.00105   -0.00138    0.02461
O27   4    0.263422    0.756346    0.205431    11.00000    0.09166    0.03827 =
         0.02839    0.00366    0.00886   -0.00396
O28   4    0.272982    0.761207    0.115138    11.00000    0.07746    0.03991 =
         0.02146   -0.02087   -0.00032   -0.00408
CL1   6    0.906892    0.142817    0.133711    11.00000    0.03215    0.01964 =
         0.04041    0.00209   -0.00218   -0.00242
CL2   6    0.610093    0.186792    0.162881    11.00000    0.04362    0.10120 =
         0.02507    0.01278   -0.00422    0.01693
CL3   6    0.352953    0.152340    0.098277    11.00000    0.03618    0.02836 =
         0.04133   -0.00618   -0.00574    0.00375
CL4   6    0.156330    0.200259    0.137735    11.00000    0.04592    0.02349 =
         0.05478    0.00058   -0.00907   -0.01000
CL5   6    0.974632    0.862906    0.135569    11.00000    0.03421    0.02196 =
         0.03116   -0.00019   -0.00212    0.00232
CL6   6    0.723045    0.784264    0.103916    11.00000    0.03449    0.02024 =
         0.03756    0.00312    0.00387   -0.00074
CL7   6    0.272576    0.796035    0.162640    11.00000    0.03957    0.02006 =
         0.03707   -0.00374    0.00197    0.00082
HKLF 4




REM  mo_AGCL0_0m in P2(1)2(1)2(1)
REM R1 =  0.0767 for   16090 Fo > 4sig(Fo)  and  0.1115 for all   19388 data
REM   1510 parameters refined using      0 restraints

END

WGHT      0.1013    188.0360

REM Highest difference peak  3.478,  deepest hole -2.905,  1-sigma level  0.242
Q1    1   0.9003  0.4939  0.0971  11.00000  0.05    3.48
Q2    1   0.0278  0.5013  0.1237  11.00000  0.05    3.00
Q3    1   0.7798  0.5291  0.0959  11.00000  0.05    2.80
Q4    1   0.1727  0.4960  0.1023  11.00000  0.05    2.69
Q5    1   0.4252  0.5206  0.0911  11.00000  0.05    2.28
Q6    1   0.2996  0.4956  0.1021  11.00000  0.05    2.12
Q7    1   0.5494  0.4619  0.0957  11.00000  0.05    2.10
Q8    1   0.6187  0.2507  0.1960  11.00000  0.05    1.66
Q9    1   0.7111  0.5183  0.0942  11.00000  0.05    1.63
Q10   1   0.4690  0.5160  0.1404  11.00000  0.05    1.61
Q11   1   0.3950  0.5019  0.1378  11.00000  0.05    1.53
Q12   1   0.6547  0.5108  0.0940  11.00000  0.05    1.39
Q13   1   0.2752  0.4654  0.0938  11.00000  0.05    1.34
Q14   1   0.6069  0.5039  0.0974  11.00000  0.05    1.34
Q15   1   0.7898  0.4737  0.1006  11.00000  0.05    1.33
Q16   1   0.6637  0.1567  0.1713  11.00000  0.05    1.28
Q17   1   0.6380  0.4771  0.0929  11.00000  0.05    1.27
Q18   1   0.2347  0.4956  0.0951  11.00000  0.05    1.24
Q19   1   0.3594  0.4347  0.0894  11.00000  0.05    1.21
Q20   1   0.1238  0.4817  0.1324  11.00000  0.05    1.19
;
_shelx_res_checksum              4225
_shelx_fab_file
;
-24 -6 -3 -5.4690 -40.7005
-24 -6 -2 -2.5151 -3.7875
-24 -6 -1 8.9253 -14.4836
-24 -5 -5 -10.3853 11.9174
-24 -5 -4 -2.7487 5.1472
-24 -5 -3 -16.1982 -5.6849
-24 -5 -2 -13.6244 -2.8906
-24 -5 -1 15.9508 9.4766
-24 -4 -6 9.0057 -3.8458
-24 -4 -5 -8.5480 27.1160
-24 -4 -4 -8.9769 31.2853
-24 -4 -3 1.0310 15.7799
-24 -4 -2 -4.9640 -3.1804
-24 -4 -1 4.5499 17.8396
-24 -3 -7 4.9866 -3.0622
-24 -3 -6 3.7248 11.7705
-24 -3 -5 10.6338 -10.6772
-24 -3 -4 -1.4681 3.6034
-24 -3 -3 11.9776 -7.3532
-24 -3 -2 -6.9805 -1.3197
-24 -3 -1 -6.3165 -8.7754
-24 -2 -7 5.8591 -13.8481
-24 -2 -6 9.9154 -1.4181
-24 -2 -5 10.0751 -25.6723
-24 -2 -4 -5.2434 -21.9024
-24 -2 -3 -4.6976 -10.7336
-24 -2 -2 7.7563 7.5429
-24 -2 -1 1.2298 -10.8003
-24 -1 -7 11.4401 -3.5940
-24 -1 -6 -11.8843 -14.8880
-24 -1 -5 -12.7206 20.8517
-24 -1 -4 3.4421 2.1317
-24 -1 -3 -2.7298 13.5433
-24 -1 -2 21.9511 4.6000
-24 -1 -1 7.6578 10.8093
-23 -9 -4 19.0066 14.7686
-23 -9 -3 7.5509 12.6373
-23 -9 -2 4.7834 -20.1632
-23 -9 -1 -13.0371 4.3605
-23 -8 -6 7.9958 -11.9465
-23 -8 -5 14.3661 -3.1764
-23 -8 -4 -8.8070 -4.7753
-23 -8 -3 -11.8213 -2.0608
-23 -8 -2 5.8298 -0.1034
-23 -8 -1 -8.5829 0.3864
-23 -7 -8 -18.4041 -6.8021
-23 -7 -7 0.7763 -8.7725
-23 -7 -6 5.0296 -1.1309
-23 -7 -5 4.8632 7.8878
-23 -7 -4 -11.5519 5.8208
-23 -7 -3 -5.3277 17.1681
-23 -7 -2 5.9968 4.7251
-23 -7 -1 12.4240 -12.8384
-23 -6 -9 -9.6020 12.0342
-23 -6 -8 1.2215 -9.5286
-23 -6 -6 7.9742 3.7040
-23 -6 -5 15.2382 8.9687
-23 -6 -4 16.6229 4.3657
-23 -6 -3 -0.5426 2.9383
-23 -6 -2 -3.6609 -3.9065
-23 -6 -1 0.4711 -11.3237
-23 -5 -9 -7.6075 1.6896
-23 -5 -7 -3.7525 -19.9049
-23 -5 -6 10.3167 -10.1006
-23 -5 -5 -1.5267 -6.5281
-23 -5 -4 6.9903 0.7475
-23 -5 -3 -5.9766 -14.6661
-23 -5 -2 -4.4087 9.8479
-23 -5 -1 -6.9217 19.6757
-23 -4 -10 -4.4584 -16.5990
-23 -4 -9 -15.3295 5.2812
-23 -4 -8 -8.4418 -2.4554
-23 -4 -7 -4.7114 -8.0981
-23 -4 -6 4.3680 -4.9861
-23 -4 -5 -17.0623 -8.7988
-23 -4 -4 -7.6343 7.8936
-23 -4 -3 21.3985 -4.6635
-23 -4 -2 7.4723 0.9234
-23 -4 -1 1.2637 14.4938
-23 -3 -10 3.8053 25.5156
-23 -3 -9 -6.6139 0.0783
-23 -3 -8 2.7034 -12.7473
-23 -3 -7 -7.2361 7.9656
-23 -3 -6 -2.7240 17.4860
-23 -3 -5 3.3194 -2.5436
-23 -3 -4 -6.0864 1.7094
-23 -3 -3 21.8602 -6.9526
-23 -3 -2 7.0731 -22.0782
-23 -3 -1 -0.1165 4.2999
-23 -2 -11 2.3056 10.7486
-23 -2 -10 -14.7768 2.2404
-23 -2 -9 6.6973 0.6845
-23 -2 -8 -5.1363 11.2815
-23 -2 -7 6.2318 1.7291
-23 -2 -6 11.4797 9.9759
-23 -2 -5 12.1910 -11.0855
-23 -2 -4 -25.0060 -17.5639
-23 -2 -3 -10.5474 4.6264
-23 -2 -2 -1.9493 -3.7347
-23 -2 -1 -0.9848 2.4046
-23 -1 -11 -0.4260 -16.5823
-23 -1 -10 0.2735 12.6143
-23 -1 -9 6.4304 -2.4126
-23 -1 -8 5.8809 -19.2024
-23 -1 -7 1.5512 -13.5543
-23 -1 -6 -19.7951 -1.5061
-23 -1 -5 -3.8940 10.0155
-23 -1 -4 -2.5816 1.7526
-23 -1 -3 -5.7910 12.8395
-23 -1 -2 5.3723 6.7068
-23 -1 -1 -1.3977 -7.0632
-22 -11 -5 -11.3018 -14.3922
-22 -11 -4 19.6215 -14.4908
-22 -11 -3 21.3552 -1.8686
-22 -11 -2 -10.9759 1.8531
-22 -11 -1 6.4928 7.0385
-22 -10 -7 -15.7193 12.1357
-22 -10 -6 -8.8998 -1.8038
-22 -10 -5 4.9022 -14.0963
-22 -10 -4 -5.0909 11.6666
-22 -10 -3 -2.3063 -1.4571
-22 -10 -2 14.1471 -5.1862
-22 -10 -1 5.4137 23.6968
-22 -9 -9 -0.5585 6.4594
-22 -9 -8 -5.0615 19.0446
-22 -9 -7 -6.4817 -4.9233
-22 -9 -6 -10.2686 2.3572
-22 -9 -5 1.1227 3.2433
-22 -9 -4 -14.5041 -0.7172
-22 -9 -3 7.9078 0.6773
-22 -9 -2 -5.7340 -7.2850
-22 -9 -1 9.1452 -12.0320
-22 -8 -10 14.5378 2.7377
-22 -8 -9 4.1715 -6.6233
-22 -8 -8 -4.7774 -4.1212
-22 -8 -7 9.9194 -13.9574
-22 -8 -6 0.0483 -3.9084
-22 -8 -5 1.7656 -0.0567
-22 -8 -4 0.5565 -13.8987
-22 -8 -3 -4.7104 -8.8710
-22 -8 -2 -7.4982 -11.8377
-22 -8 -1 -16.4990 -4.4841
-22 -7 -11 2.9876 2.5761
-22 -7 -10 17.0641 -3.5737
-22 -7 -9 -9.4588 -5.8758
-22 -7 -8 -2.2632 -10.2079
-22 -7 -7 2.4446 9.5918
-22 -7 -6 3.4338 -5.3399
-22 -7 -5 -2.0864 3.8481
-22 -7 -4 11.6427 -2.5026
-22 -7 -3 -15.3929 15.2464
-22 -7 -2 20.7609 11.9550
-22 -7 -1 14.7333 2.3643
-22 -6 -12 -6.1936 -17.7446
-22 -6 -11 -13.7007 19.6356
-22 -6 -10 -18.5974 9.8373
-22 -6 -9 -3.5386 10.9796
-22 -6 -8 1.4316 14.7632
-22 -6 -7 -0.5896 6.7618
-22 -6 -6 0.3248 -0.5421
-22 -6 -5 -5.2028 23.0794
-22 -6 -4 3.6246 -0.4088
-22 -6 -3 2.9721 -21.2529
-22 -6 -2 14.7717 2.7176
-22 -6 -1 7.4537 2.8454
-22 -5 -12 -3.9977 31.1218
-22 -5 -11 0.3763 9.8685
-22 -5 -10 12.9791 -5.1272
-22 -5 -9 -8.7545 -3.5096
-22 -5 -8 -15.9414 -6.2623
-22 -5 -7 16.6388 -6.7931
-22 -5 -6 -8.8079 8.2620
-22 -5 -5 -19.4710 -2.0157
-22 -5 -4 -18.8663 -10.0664
-22 -5 -3 -11.8868 -30.1449
-22 -5 -2 -22.3834 0.5768
-22 -5 -1 10.0660 -2.4965
-22 -4 -13 24.8443 -15.5145
-22 -4 -12 10.9461 -19.1560
-22 -4 -11 13.6453 1.2944
-22 -4 -10 -10.5448 6.7356
-22 -4 -9 -14.9404 -28.8499
-22 -4 -8 19.7029 1.3086
-22 -4 -7 8.9171 -1.1838
-22 -4 -6 0.5437 -2.9530
-22 -4 -5 -17.8252 3.4553
-22 -4 -4 -9.6081 17.3844
-22 -4 -3 -2.4584 -2.5419
-22 -4 -2 -0.2785 -0.5824
-22 -4 -1 5.6274 -2.2725
-22 -3 -13 1.7388 -14.1176
-22 -3 -12 8.3468 -9.4893
-22 -3 -11 -10.4250 29.7432
-22 -3 -10 18.0064 -5.8900
-22 -3 -9 -2.0192 -2.1147
-22 -3 -8 2.5650 -3.3051
-22 -3 -7 9.8768 10.8018
-22 -3 -6 23.6598 23.1446
-22 -3 -5 8.2279 11.8171
-22 -3 -4 18.1006 3.6860
-22 -3 -3 11.7298 14.6172
-22 -3 -2 14.2291 -3.0889
-22 -3 -1 -7.8035 5.0625
-22 -2 -13 3.4860 11.0217
-22 -2 -12 -4.3961 5.5256
-22 -2 -11 -13.1586 12.0142
-22 -2 -10 5.5789 5.0360
-22 -2 -9 -6.2491 0.8147
-22 -2 -8 6.8580 4.4925
-22 -2 -7 8.8251 0.0695
-22 -2 -6 -3.0199 -2.1005
-22 -2 -5 15.4758 -1.1161
-22 -2 -4 -9.1117 -11.2775
-22 -2 -3 -1.4837 8.6828
-22 -2 -2 -1.2329 3.4123
-22 -2 -1 -10.3244 4.4641
-22 -1 -13 9.0662 9.9939
-22 -1 -12 -3.5612 8.0398
-22 -1 -11 4.0590 -16.0558
-22 -1 -10 -15.7383 -2.5318
-22 -1 -9 -7.6780 -15.9222
-22 -1 -8 -12.3924 6.8638
-22 -1 -7 12.3922 -25.2821
-22 -1 -6 -31.7607 -9.6526
-22 -1 -5 -5.5643 -3.9724
-22 -1 -4 -18.3669 -9.0372
-22 -1 -3 -6.3156 -0.2916
-22 -1 -2 -7.3005 11.1718
-22 -1 -1 1.0788 -12.1908
-21 -13 -4 -6.1950 -13.0408
-21 -13 -3 -0.3307 -7.5069
-21 -13 -2 -2.3185 17.7638
-21 -13 -1 0.3597 -2.8912
-21 -12 -7 2.5655 16.4572
-21 -12 -6 4.9230 6.3184
-21 -12 -5 -12.9283 -5.2381
-21 -12 -4 15.1792 2.5211
-21 -12 -3 -6.9449 -1.4789
-21 -12 -2 -3.2597 0.7860
-21 -12 -1 14.0161 4.1388
-21 -11 -9 17.6949 1.0621
-21 -11 -8 13.4340 -10.3734
-21 -11 -7 -7.8813 3.0998
-21 -11 -6 9.1665 3.5636
-21 -11 -5 -2.1541 -2.9187
-21 -11 -4 -2.2864 15.9946
-21 -11 -3 5.1515 -15.7182
-21 -11 -2 -2.8068 0.3246
-21 -11 -1 -7.4423 -8.3548
-21 -10 -11 2.7788 -10.5572
-21 -10 -10 -9.4997 -19.3330
-21 -10 -9 -9.5150 3.4338
-21 -10 -8 1.1327 -2.8257
-21 -10 -7 -9.8585 -5.4331
-21 -10 -6 8.8058 -0.9832
-21 -10 -5 5.9575 1.6973
-21 -10 -4 -14.7480 6.1552
-21 -10 -3 0.7761 3.3291
-21 -10 -2 -25.6167 -7.8836
-21 -10 -1 1.5590 15.5428
-21 -9 -12 -10.0424 2.1688
-21 -9 -11 6.2650 4.5932
-21 -9 -10 -12.9271 -3.1196
-21 -9 -9 -15.8031 11.2244
-21 -9 -8 -1.4618 -0.9397
-21 -9 -7 14.0506 -8.8900
-21 -9 -6 -3.1110 5.0363
-21 -9 -5 1.1786 -3.4461
-21 -9 -4 -1.4256 7.0854
-21 -9 -3 13.1181 27.0209
-21 -9 -2 5.2927 -12.9328
-21 -9 -1 -6.1724 -3.5372
-21 -8 -13 14.0785 -12.9617
-21 -8 -12 -11.4535 11.9133
-21 -8 -11 5.3969 20.4723
-21 -8 -10 10.0802 15.7703
-21 -8 -9 4.1203 -10.6626
-21 -8 -8 2.9517 -4.5137
-21 -8 -7 -2.5046 -1.7986
-21 -8 -6 3.3158 1.0860
-21 -8 -5 21.6788 1.3078
-21 -8 -4 -3.3212 -3.0112
-21 -8 -3 -12.7127 -6.4663
-21 -8 -2 8.0655 -1.9331
-21 -8 -1 -12.2916 3.5667
-21 -7 -13 30.9976 -1.3933
-21 -7 -12 20.0375 -3.0396
-21 -7 -11 0.5733 2.3989
-21 -7 -10 -5.4025 -3.9424
-21 -7 -9 -3.1512 -6.4831
-21 -7 -8 -10.9119 -0.4455
-21 -7 -7 0.1463 -7.7201
-21 -7 -6 12.7470 5.4422
-21 -7 -5 -10.1968 9.9801
-21 -7 -4 -11.3329 0.3291
-21 -7 -3 -13.6318 5.0833
-21 -7 -2 7.4079 11.2101
-21 -7 -1 4.5184 -3.6349
-21 -6 -14 -12.7622 -22.3740
-21 -6 -13 2.2875 -4.6731
-21 -6 -12 8.6300 -18.1531
-21 -6 -11 -6.9329 2.4650
-21 -6 -10 -9.1926 16.4996
-21 -6 -9 -13.7429 11.8051
-21 -6 -8 6.4397 -25.5137
-21 -6 -7 12.9681 2.5744
-21 -6 -6 3.4402 8.6391
-21 -6 -5 -1.9986 18.8120
-21 -6 -4 12.2613 3.0730
-21 -6 -3 4.1157 -5.8681
-21 -6 -2 -1.6896 -1.9046
-21 -6 -1 4.0980 -3.9749
-21 -5 -14 -25.0374 -11.6755
-21 -5 -13 -8.5090 8.2953
-21 -5 -12 12.6843 -1.4763
-21 -5 -11 11.4457 11.5993
-21 -5 -10 -9.1495 3.5001
-21 -5 -9 2.8448 -7.5870
-21 -5 -8 9.3705 -9.0136
-21 -5 -7 10.0184 -1.5467
-21 -5 -6 15.5837 -13.7929
-21 -5 -5 2.6484 -2.3680
-21 -5 -4 5.7426 1.6472
-21 -5 -3 3.1221 -9.6821
-21 -5 -2 -12.6607 0.9520
-21 -5 -1 -1.3741 14.6825
-21 -4 -15 3.6665 7.5775
-21 -4 -14 -3.0188 8.8091
-21 -4 -13 5.2021 0.3119
-21 -4 -12 11.7272 1.4722
-21 -4 -11 -7.7713 -0.2797
-21 -4 -10 -2.9061 -11.0871
-21 -4 -9 1.0103 -13.1527
-21 -4 -8 -14.3500 -6.8392
-21 -4 -7 -2.4771 -1.1536
-21 -4 -6 4.3495 -0.1604
-21 -4 -5 -13.0334 -13.8166
-21 -4 -4 -0.9630 12.6287
-21 -4 -3 16.5255 1.6485
-21 -4 -2 -2.9850 8.1981
-21 -4 -1 -3.6214 12.1215
-21 -3 -15 4.5334 -5.6648
-21 -3 -14 9.6648 -14.5063
-21 -3 -13 16.2961 -0.4361
-21 -3 -12 -17.0361 3.1526
-21 -3 -11 -31.1660 -8.0315
-21 -3 -10 -0.6801 17.9388
-21 -3 -9 -4.8680 -4.6588
-21 -3 -8 0.5757 -6.3052
-21 -3 -7 -10.2053 8.1085
-21 -3 -6 0.8986 8.6346
-21 -3 -5 -5.2976 -14.0229
-21 -3 -4 -3.5862 6.8328
-21 -3 -3 15.5283 -3.0992
-21 -3 -2 9.7797 -2.7045
-21 -3 -1 -3.4541 5.1291
-21 -2 -15 -7.5042 -20.2549
-21 -2 -14 -8.7194 -7.3278
-21 -2 -13 -5.4509 27.9250
-21 -2 -12 19.3230 3.5157
-21 -2 -11 -0.2078 15.6945
-21 -2 -10 -9.8105 4.0201
-21 -2 -9 7.7138 -15.1514
-21 -2 -8 2.7336 4.0899
-21 -2 -7 -5.3423 11.0442
-21 -2 -6 9.4722 10.7726
-21 -2 -5 8.3550 -11.5422
-21 -2 -4 -6.8107 -19.5684
-21 -2 -3 0.6050 -0.4165
-21 -2 -2 -4.7894 -4.3583
-21 -2 -1 -1.5572 -4.1706
-21 -1 -15 9.0311 10.7299
-21 -1 -14 -2.3135 -0.1696
-21 -1 -13 7.1235 0.0711
-21 -1 -12 22.8649 -0.3246
-21 -1 -11 -14.8917 -2.5084
-21 -1 -10 -2.1247 7.1959
-21 -1 -9 11.0577 7.5753
-21 -1 -8 8.3066 -8.8364
-21 -1 -7 13.4535 -5.0079
-21 -1 -6 -16.5818 -5.2835
-21 -1 -5 -7.0240 4.9293
-21 -1 -4 -5.7922 2.3189
-21 -1 -3 -6.8811 10.8489
-21 -1 -2 4.2232 -0.2040
-21 -1 -1 5.2344 -0.4621
-20 -14 -6 -16.7972 -16.5682
-20 -14 -5 -3.5707 7.2866
-20 -14 -4 9.1341 -6.8825
-20 -14 -3 4.9175 3.4516
-20 -14 -2 -6.9044 3.3604
-20 -14 -1 -2.6375 -5.5836
-20 -13 -8 -15.6479 9.8838
-20 -13 -7 7.5069 6.6357
-20 -13 -6 3.8915 -14.0465
-20 -13 -5 -3.5477 0.7646
-20 -13 -4 15.7837 -6.6180
-20 -13 -3 -4.4721 -8.4660
-20 -13 -2 6.0706 8.4855
-20 -13 -1 -6.9828 4.9970
-20 -12 -10 -3.3157 16.6233
-20 -12 -9 10.8331 4.8245
-20 -12 -8 -2.9284 0.8920
-20 -12 -7 4.6924 15.0766
-20 -12 -6 0.9709 -12.2563
-20 -12 -5 -3.8185 -4.2171
-20 -12 -4 12.3311 11.3869
-20 -12 -3 2.9801 -0.5815
-20 -12 -2 6.8265 20.1567
-20 -12 -1 10.2042 -1.5672
-20 -11 -10 -1.6699 6.6835
-20 -11 -9 13.7438 7.3612
-20 -11 -8 -11.1366 -7.2510
-20 -11 -7 -19.4903 -3.0981
-20 -11 -6 6.6886 0.4370
-20 -11 -5 -6.6903 -0.1237
-20 -11 -4 5.6471 -1.5678
-20 -11 -3 13.7600 -3.2765
-20 -11 -2 -15.6311 1.1168
-20 -11 -1 3.9193 6.3167
-20 -10 -13 -14.9198 -3.0616
-20 -10 -12 8.1748 6.7026
-20 -10 -11 10.9879 -16.9660
-20 -10 -10 -4.5024 -12.1004
-20 -10 -9 -7.0479 6.4654
-20 -10 -8 3.3662 -3.4591
-20 -10 -7 -14.6889 -0.7210
-20 -10 -6 -7.0283 -2.1865
-20 -10 -5 8.1875 -25.5673
-20 -10 -4 -1.7093 6.8298
-20 -10 -3 -9.3968 -0.8564
-20 -10 -2 -3.0562 -9.3914
-20 -10 -1 8.2115 13.7189
-20 -9 -14 12.2024 -0.3482
-20 -9 -13 -12.3979 -18.6208
-20 -9 -12 1.5929 7.0391
-20 -9 -11 7.9982 1.4739
-20 -9 -10 0.6544 -5.8543
-20 -9 -9 -7.5413 14.2180
-20 -9 -8 16.6615 13.8220
-20 -9 -7 1.1677 -11.1149
-20 -9 -6 1.7453 -1.0481
-20 -9 -5 3.7903 6.5075
-20 -9 -4 -4.8748 -2.8525
-20 -9 -3 17.5029 0.2313
-20 -9 -2 7.3761 -1.4501
-20 -9 -1 -2.4382 -6.3589
-20 -8 -15 -25.9482 18.0252
-20 -8 -13 8.8265 -11.7419
-20 -8 -12 -21.1293 0.5805
-20 -8 -11 12.6345 17.0187
-20 -8 -10 10.6437 3.1945
-20 -8 -9 1.3104 0.4785
-20 -8 -8 -5.9760 2.5264
-20 -8 -7 11.2289 -4.4839
-20 -8 -6 -3.9833 8.0307
-20 -8 -5 6.1107 11.8672
-20 -8 -4 -0.5009 -8.6990
-20 -8 -3 -2.5455 3.9935
-20 -8 -2 5.2334 -11.9460
-20 -8 -1 -9.8249 -0.5688
-20 -7 -15 1.2637 -6.8136
-20 -7 -14 -13.7710 22.1564
-20 -7 -13 5.7351 -11.6201
-20 -7 -12 -11.7512 -10.7494
-20 -7 -11 5.4954 5.6006
-20 -7 -10 -2.0891 -8.1036
-20 -7 -9 -10.7705 -15.5836
-20 -7 -8 -13.7995 -7.7631
-20 -7 -7 6.8452 5.2186
-20 -7 -6 -12.1676 -3.1381
-20 -7 -5 -4.9427 -0.3064
-20 -7 -4 -6.3050 -11.1483
-20 -7 -3 -15.7528 10.3818
-20 -7 -2 0.8770 15.1976
-20 -7 -1 3.0432 1.0685
-20 -6 -16 8.7836 3.3460
-20 -6 -15 9.8622 -13.1145
-20 -6 -14 -0.5603 4.8901
-20 -6 -13 7.8676 6.1230
-20 -6 -12 -4.4058 -8.7863
-20 -6 -11 -13.0768 -6.7862
-20 -6 -10 -13.0143 -5.7322
-20 -6 -9 -8.8209 -4.3662
-20 -6 -8 11.7666 8.6341
-20 -6 -7 -0.9819 -2.5637
-20 -6 -6 2.8843 -7.6187
-20 -6 -5 -7.8459 4.5077
-20 -6 -4 10.3294 -4.5247
-20 -6 -3 5.3261 -18.7086
-20 -6 -2 22.5292 5.5002
-20 -6 -1 3.6994 -5.1174
-20 -5 -16 5.1846 -3.6406
-20 -5 -15 7.8270 -6.0212
-20 -5 -14 4.4406 -12.7509
-20 -5 -13 -3.4944 14.6790
-20 -5 -12 6.5137 27.8103
-20 -5 -11 -14.4733 23.5266
-20 -5 -10 12.6816 -7.8802
-20 -5 -9 8.4818 5.2086
-20 -5 -8 15.6451 -4.0406
-20 -5 -7 5.4652 -1.0620
-20 -5 -6 -3.5029 10.8723
-20 -5 -5 -11.6604 -2.7638
-20 -5 -4 11.4344 -12.1459
-20 -5 -3 1.1625 -19.6664
-20 -5 -2 -0.8444 -0.5789
-20 -5 -1 7.7565 0.5865
-20 -4 -17 -1.1447 -14.5903
-20 -4 -16 -22.8185 4.0156
-20 -4 -15 -8.9573 13.1548
-20 -4 -14 17.5855 -0.8704
-20 -4 -13 22.8966 13.7583
-20 -4 -12 2.0670 6.3296
-20 -4 -11 11.5216 2.6234
-20 -4 -10 -14.1600 -0.9943
-20 -4 -9 -17.0036 -9.2668
-20 -4 -8 10.2735 4.3377
-20 -4 -7 3.7172 22.0864
-20 -4 -6 -15.7961 5.8594
-20 -4 -5 -12.6750 1.9146
-20 -4 -4 -22.0458 3.0574
-20 -4 -3 -1.4287 4.2797
-20 -4 -2 -13.7945 1.3947
-20 -4 -1 -0.7652 7.9652
-20 -3 -17 15.7654 7.6592
-20 -3 -16 -9.7311 0.6542
-20 -3 -15 13.2355 -13.7875
-20 -3 -14 4.1656 -12.6522
-20 -3 -13 -2.8849 -22.0298
-20 -3 -12 -10.7662 -0.9115
-20 -3 -11 -5.5816 12.8029
-20 -3 -10 -11.2531 -11.7421
-20 -3 -9 11.5543 -4.1790
-20 -3 -8 -5.5301 6.2544
-20 -3 -7 -2.6670 -2.9655
-20 -3 -6 -3.1815 17.0796
-20 -3 -5 -2.4370 6.9690
-20 -3 -4 -6.5512 5.6730
-20 -3 -3 5.3514 10.0160
-20 -3 -2 -5.3603 -8.6464
-20 -3 -1 -5.7079 -3.7209
-20 -2 -17 -2.3433 -13.7567
-20 -2 -16 3.8661 -19.8372
-20 -2 -15 -6.1653 -3.5501
-20 -2 -14 -4.3970 2.3338
-20 -2 -13 -0.2548 1.5804
-20 -2 -12 3.6534 6.8136
-20 -2 -11 -5.8426 -17.0518
-20 -2 -10 12.7337 -8.1402
-20 -2 -9 -3.7109 1.9669
-20 -2 -8 23.5486 1.1187
-20 -2 -7 6.0289 -8.1460
-20 -2 -6 9.7034 1.5246
-20 -2 -5 14.8073 -10.6958
-20 -2 -4 7.3157 -0.5788
-20 -2 -3 -3.1438 -1.2316
-20 -2 -2 12.8595 -3.5449
-20 -2 -1 -9.9637 -7.6092
-20 -1 -17 -11.4764 4.5914
-20 -1 -16 5.3556 -5.1928
-20 -1 -15 2.8396 7.0316
-20 -1 -14 17.3819 2.7311
-20 -1 -13 -3.3239 15.1585
-20 -1 -12 1.8975 7.9691
-20 -1 -11 0.8111 -3.7000
-20 -1 -10 8.1475 -5.9225
-20 -1 -9 0.9562 -4.7394
-20 -1 -8 13.0324 2.2362
-20 -1 -7 -1.5397 -10.3647
-20 -1 -6 -0.1554 1.4082
-20 -1 -5 7.5968 -0.5570
-20 -1 -4 0.7477 -9.4457
-20 -1 -3 -4.3066 5.8767
-20 -1 -2 3.1315 6.8250
-20 -1 -1 -3.0156 -5.0664
-19 -16 -2 -0.8832 4.0677
-19 -16 -1 -5.0960 1.1536
-19 -15 -6 -7.6139 -1.1448
-19 -15 -5 0.0168 -11.7090
-19 -15 -4 -5.7583 -8.9910
-19 -15 -3 -2.0100 9.2568
-19 -15 -2 12.3691 3.5099
-19 -15 -1 7.4011 -0.6972
-19 -14 -9 8.8183 -11.4021
-19 -14 -8 2.7544 -5.6644
-19 -14 -7 3.8539 -6.5921
-19 -14 -6 -8.7426 7.8580
-19 -14 -5 -4.7524 6.2557
-19 -14 -4 6.1573 -14.5993
-19 -14 -3 0.5491 -11.0278
-19 -14 -2 9.1570 -1.2307
-19 -14 -1 -0.9143 -9.8539
-19 -13 -11 -13.2609 -10.7309
-19 -13 -10 -3.5026 -2.9970
-19 -13 -9 0.9978 -7.7430
-19 -13 -8 -6.0472 6.3482
-19 -13 -7 4.1817 10.0280
-19 -13 -6 -3.2785 -7.3683
-19 -13 -5 -3.3296 10.6887
-19 -13 -4 -1.4982 -3.9935
-19 -13 -3 -9.9603 -11.0969
-19 -13 -2 -9.4874 5.8473
-19 -13 -1 3.0665 0.9213
-19 -12 -12 -6.9468 6.7216
-19 -12 -11 -22.2796 4.2171
-19 -12 -10 -0.3001 7.7308
-19 -12 -9 11.7888 -0.9699
-19 -12 -8 -8.7617 3.6808
-19 -12 -7 1.6305 18.5436
-19 -12 -6 3.8622 -6.8293
-19 -12 -5 -14.9559 -0.0890
-19 -12 -4 10.1320 12.8922
-19 -12 -3 -4.1155 9.7768
-19 -12 -2 -13.5552 -2.5252
-19 -12 -1 7.9112 -1.8660
-19 -11 -13 0.6977 24.1761
-19 -11 -12 6.1279 6.6826
-19 -11 -11 0.8357 -6.8061
-19 -11 -10 -0.6288 -0.7801
-19 -11 -9 16.2270 1.4504
-19 -11 -8 2.0450 -6.7479
-19 -11 -7 -3.9539 5.8325
-19 -11 -6 10.5759 -10.2742
-19 -11 -5 -1.4693 -5.0844
-19 -11 -4 -0.9505 23.9283
-19 -11 -3 7.3432 -12.0630
-19 -11 -2 0.6889 -0.6984
-19 -11 -1 -4.4307 -0.6067
-19 -10 -15 23.0368 13.7752
-19 -10 -14 9.2188 -6.5959
-19 -10 -13 -10.5447 -14.3577
-19 -10 -12 5.0965 6.5671
-19 -10 -11 9.6292 -10.0540
-19 -10 -10 -7.3900 -6.6213
-19 -10 -9 -1.3942 -5.0161
-19 -10 -8 3.7942 -9.6782
-19 -10 -7 -6.7471 -0.4995
-19 -10 -6 12.1895 11.8464
-19 -10 -5 5.1806 -11.8117
-19 -10 -4 -3.0198 0.6006
-19 -10 -3 7.9649 0.0094
-19 -10 -2 -20.4457 -2.1721
-19 -10 -1 -0.5523 2.5744
-19 -9 -16 11.9294 -28.0685
-19 -9 -15 -16.1618 5.0207
-19 -9 -14 14.8672 5.4133
-19 -9 -13 -10.6086 -6.8752
-19 -9 -12 -10.4161 5.5043
-19 -9 -11 5.3377 -0.7379
-19 -9 -10 -11.8822 -0.7873
-19 -9 -9 -12.5176 8.0824
-19 -9 -8 3.9321 -0.5773
-19 -9 -7 4.2427 -9.7127
-19 -9 -6 1.2854 12.9096
-19 -9 -5 -2.5969 -3.8339
-19 -9 -4 -14.5210 -3.7163
-19 -9 -3 3.0133 17.0860
-19 -9 -2 9.5822 2.1735
-19 -9 -1 -1.6073 2.2304
-19 -8 -16 4.1351 -7.9122
-19 -8 -15 -15.9161 -0.2233
-19 -8 -14 19.3080 19.6650
-19 -8 -13 9.1777 -11.4376
-19 -8 -12 -11.9817 11.7195
-19 -8 -11 -8.1816 19.1826
-19 -8 -10 4.6139 -1.0445
-19 -8 -9 -1.7554 1.4474
-19 -8 -8 7.4371 -5.8048
-19 -8 -7 -0.8186 -2.2752
-19 -8 -6 -12.8201 -2.4102
-19 -8 -5 9.3707 16.0620
-19 -8 -4 -0.0309 -6.2990
-19 -8 -3 -7.8730 -8.1092
-19 -8 -2 4.8201 -18.7384
-19 -8 -1 -10.0057 6.3163
-19 -7 -17 -6.1526 21.5280
-19 -7 -16 5.2519 -6.7443
-19 -7 -15 -5.2442 -21.6117
-19 -7 -14 -3.5560 10.5718
-19 -7 -13 26.8097 5.0379
-19 -7 -12 1.4879 1.1147
-19 -7 -11 9.4428 10.1126
-19 -7 -10 -3.1436 -7.2290
-19 -7 -9 -3.5943 -16.3375
-19 -7 -8 -5.4869 1.5311
-19 -7 -7 11.7999 4.6520
-19 -7 -6 5.5064 3.6238
-19 -7 -5 -9.1303 11.5417
-19 -7 -4 -5.5588 -11.3257
-19 -7 -3 -8.9989 -5.0654
-19 -7 -2 3.6097 8.1359
-19 -7 -1 4.5615 0.9831
-19 -6 -17 -18.2334 9.1203
-19 -6 -16 9.6663 8.5641
-19 -6 -15 1.3230 -19.4889
-19 -6 -14 -11.1067 -10.6531
-19 -6 -13 22.7683 -6.5365
-19 -6 -12 2.3946 -9.7398
-19 -6 -11 -13.3062 4.3617
-19 -6 -10 -6.8680 7.6249
-19 -6 -9 0.3748 -0.5950
-19 -6 -8 3.6104 -2.8399
-19 -6 -7 21.5329 7.8709
-19 -6 -6 1.5383 8.1165
-19 -6 -5 -13.0954 7.1606
-19 -6 -4 2.6092 16.5474
-19 -6 -3 2.6089 -3.8434
-19 -6 -2 2.2945 10.2556
-19 -6 -1 6.7179 -8.2273
-19 -5 -18 4.6515 -6.1742
-19 -5 -17 4.2831 -7.7670
-19 -5 -16 0.0174 10.1147
-19 -5 -15 -9.5645 -15.2360
-19 -5 -14 -12.1972 -6.8816
-19 -5 -13 -2.2410 8.1642
-19 -5 -12 4.9794 -2.2454
-19 -5 -11 -3.2760 8.0366
-19 -5 -10 4.3198 4.1318
-19 -5 -9 4.5924 -19.4635
-19 -5 -8 9.5047 -2.4563
-19 -5 -7 -0.2899 12.9131
-19 -5 -6 12.7709 -4.3466
-19 -5 -5 -0.9694 -3.5856
-19 -5 -4 6.9325 8.9733
-19 -5 -3 -1.0538 -1.8183
-19 -5 -2 -14.1457 -2.9564
-19 -5 -1 -1.9352 -1.3811
-19 -4 -18 12.4696 -5.8065
-19 -4 -17 -12.2676 3.3843
-19 -4 -16 -11.6774 0.3814
-19 -4 -15 6.3515 9.3715
-19 -4 -14 5.2635 7.7974
-19 -4 -13 0.8901 6.1792
-19 -4 -12 1.8871 -6.2996
-19 -4 -11 -16.3950 -2.5061
-19 -4 -10 6.9068 -15.6987
-19 -4 -9 12.0274 -6.5573
-19 -4 -8 -6.6573 -8.9829
-19 -4 -7 -4.4132 -3.8647
-19 -4 -6 7.6932 -5.8871
-19 -4 -5 -4.8351 -5.1847
-19 -4 -4 2.6691 0.2824
-19 -4 -3 5.4399 2.5513
-19 -4 -2 -4.4169 -0.4267
-19 -4 -1 -5.5244 7.7932
-19 -3 -18 -9.8725 10.0454
-19 -3 -17 -7.1640 4.5682
-19 -3 -16 5.3874 0.2630
-19 -3 -15 9.1927 -2.2824
-19 -3 -14 2.9968 -3.3734
-19 -3 -13 5.1062 7.0247
-19 -3 -12 -16.6638 4.5978
-19 -3 -11 -15.6726 -9.8053
-19 -3 -10 -2.3858 -3.8115
-19 -3 -9 -4.9420 -2.4247
-19 -3 -8 -1.2893 -2.1090
-19 -3 -7 0.6235 10.9663
-19 -3 -6 -2.0664 -2.1824
-19 -3 -5 3.9231 -11.2041
-19 -3 -4 -0.4687 -0.0442
-19 -3 -3 6.0230 3.0051
-19 -3 -2 5.3741 4.5658
-19 -3 -1 0.8530 7.2599
-19 -2 -18 -8.3473 9.7064
-19 -2 -17 6.6476 -4.8075
-19 -2 -16 3.2937 -8.2593
-19 -2 -15 -4.4801 -14.5499
-19 -2 -14 -5.7015 3.7542
-19 -2 -13 -0.8749 13.1578
-19 -2 -12 -4.9767 4.3965
-19 -2 -11 1.4946 9.0674
-19 -2 -10 -9.9386 6.0203
-19 -2 -9 1.4091 -10.7770
-19 -2 -8 4.9352 7.8466
-19 -2 -7 -3.0115 0.3863
-19 -2 -6 -5.5135 4.4305
-19 -2 -5 -2.9730 0.2465
-19 -2 -4 0.5286 -2.9289
-19 -2 -3 11.6352 -1.7607
-19 -2 -2 0.8868 0.5415
-19 -2 -1 -2.7667 -7.7158
-19 -1 -18 8.6568 -14.6517
-19 -1 -17 -2.5328 8.9784
-19 -1 -16 -7.0685 -0.5408
-19 -1 -15 1.2308 3.2809
-19 -1 -14 10.1074 13.6968
-19 -1 -13 5.5359 -3.2564
-19 -1 -12 9.5901 -8.5256
-19 -1 -11 -7.4272 4.8002
-19 -1 -10 6.6982 -0.0141
-19 -1 -9 0.8344 2.6459
-19 -1 -8 -0.8190 4.8188
-19 -1 -7 9.9453 -4.7463
-19 -1 -6 -3.1054 0.2780
-19 -1 -5 -5.0143 -3.0412
-19 -1 -4 -2.6285 -0.9746
-19 -1 -3 -9.4692 -3.3540
-19 -1 -2 3.4713 -7.4546
-19 -1 -1 7.0508 5.9032
-18 -17 -3 5.4178 5.9521
-18 -17 -2 -2.1200 -7.8423
-18 -17 -1 0.8872 1.2230
-18 -16 -7 2.4097 -1.4537
-18 -16 -6 -2.8788 6.0511
-18 -16 -5 3.9922 7.6368
-18 -16 -4 -10.6720 -3.3634
-18 -16 -3 -10.7542 -0.1632
-18 -16 -2 -6.5603 -8.8803
-18 -16 -1 -10.6790 0.9366
-18 -15 -9 -8.8297 -1.6717
-18 -15 -8 4.1392 5.6034
-18 -15 -7 11.6184 -13.4475
-18 -15 -6 1.5023 -3.8237
-18 -15 -5 8.7565 6.0559
-18 -15 -4 -1.2824 2.0638
-18 -15 -3 -6.7759 4.8014
-18 -15 -2 0.0590 7.4179
-18 -15 -1 -7.7003 -16.4861
-18 -14 -12 0.6168 13.8082
-18 -14 -11 8.4737 13.2524
-18 -14 -10 4.9236 -4.3216
-18 -14 -9 -5.4015 -4.2617
-18 -14 -8 -4.7989 10.5015
-18 -14 -7 11.6487 -11.0242
-18 -14 -6 -1.6916 -9.5001
-18 -14 -5 8.3062 4.7895
-18 -14 -4 14.9532 3.2368
-18 -14 -3 1.2153 11.6277
-18 -14 -2 6.4660 9.7796
-18 -14 -1 -3.3501 -10.9424
-18 -13 -13 22.0641 -7.8134
-18 -13 -12 5.2334 -3.2462
-18 -13 -11 -9.3289 -0.0107
-18 -13 -10 1.2536 4.6655
-18 -13 -9 0.0298 -4.7449
-18 -13 -8 -10.4540 5.5767
-18 -13 -7 -11.6020 2.8848
-18 -13 -6 -11.8089 -8.3769
-18 -13 -5 10.9997 6.1905
-18 -13 -4 19.0997 -4.1623
-18 -13 -3 -10.7762 2.6193
-18 -13 -2 -2.8915 11.0456
-18 -13 -1 -1.7318 15.7749
-18 -12 -14 -2.8728 -8.4304
-18 -12 -13 -8.0541 5.0667
-18 -12 -12 5.2502 -15.3923
-18 -12 -11 -5.4287 -5.8400
-18 -12 -10 3.4399 14.3935
-18 -12 -9 1.0923 5.9926
-18 -12 -8 -5.1801 -1.9748
-18 -12 -7 0.5446 5.6398
-18 -12 -6 -1.2121 -12.2477
-18 -12 -5 -7.4682 -7.3837
-18 -12 -4 3.5071 -6.8173
-18 -12 -3 -0.0350 -0.6217
-18 -12 -2 -5.4164 16.1313
-18 -12 -1 11.9502 1.5781
-18 -11 -15 12.6423 5.5214
-18 -11 -14 -10.8411 -5.7681
-18 -11 -13 -12.5690 12.3007
-18 -11 -12 14.0243 -0.9093
-18 -11 -11 7.4084 -9.2784
-18 -11 -10 4.0701 3.3794
-18 -11 -9 14.8613 3.9816
-18 -11 -8 -1.7233 -5.0444
-18 -11 -7 -8.3591 -3.4734
-18 -11 -6 9.4566 -6.4677
-18 -11 -5 -6.3572 -0.8393
-18 -11 -4 3.1867 8.5900
-18 -11 -3 14.4173 -14.6639
-18 -11 -2 2.8740 -13.0431
-18 -11 -1 1.2004 -5.9830
-18 -10 -16 -1.3219 2.9092
-18 -10 -15 8.4846 18.0727
-18 -10 -14 0.6335 -15.4279
-18 -10 -13 -8.5554 4.3436
-18 -10 -12 4.8684 5.3581
-18 -10 -11 8.6924 -12.7850
-18 -10 -10 -10.2788 -4.7632
-18 -10 -9 0.2638 12.9164
-18 -10 -8 -2.0327 -4.0815
-18 -10 -7 -1.7498 4.7179
-18 -10 -6 2.5366 11.7330
-18 -10 -5 2.9984 -11.6605
-18 -10 -4 -1.0928 8.2731
-18 -10 -3 -2.6370 2.5342
-18 -10 -2 -9.0213 -7.7330
-18 -10 -1 -1.1938 7.8759
-18 -9 -17 23.9172 0.2279
-18 -9 -16 -7.8333 -2.0743
-18 -9 -15 -14.1623 -1.9994
-18 -9 -14 12.8847 0.2913
-18 -9 -13 -10.2109 -15.5939
-18 -9 -12 -10.4373 7.8598
-18 -9 -11 1.0143 -2.3497
-18 -9 -10 -4.0298 0.8061
-18 -9 -9 -7.1051 6.4879
-18 -9 -8 4.4406 3.5282
-18 -9 -7 -6.5335 -4.6330
-18 -9 -6 5.5716 3.7442
-18 -9 -5 6.0274 5.6513
-18 -9 -4 -23.6671 1.6365
-18 -9 -3 3.2416 11.6072
-18 -9 -2 5.2045 -1.3855
-18 -9 -1 -4.6495 2.2163
-18 -8 -18 6.0143 -5.8687
-18 -8 -17 -4.0844 6.5066
-18 -8 -16 6.4339 -13.3509
-18 -8 -15 -20.5014 9.6619
-18 -8 -14 0.8390 15.5404
-18 -8 -13 2.9090 -21.4991
-18 -8 -12 -4.1298 3.8852
-18 -8 -11 6.7340 9.4802
-18 -8 -10 7.3181 -2.2028
-18 -8 -9 -1.3743 -12.2129
-18 -8 -8 5.5030 -1.3903
-18 -8 -7 3.7217 -12.0358
-18 -8 -6 -5.4905 5.8282
-18 -8 -5 8.0922 1.2985
-18 -8 -4 2.0190 -6.4795
-18 -8 -3 -4.1311 6.3084
-18 -8 -2 6.5013 -10.0303
-18 -8 -1 -3.1150 -7.6190
-18 -7 -18 -7.1848 -2.8140
-18 -7 -17 -6.7609 12.5989
-18 -7 -16 24.3074 11.4852
-18 -7 -15 -7.0185 -2.2803
-18 -7 -14 1.1568 10.2436
-18 -7 -13 5.7016 0.1064
-18 -7 -12 -2.6994 -9.3062
-18 -7 -11 5.0629 3.3774
-18 -7 -10 2.7114 -10.6092
-18 -7 -9 -6.1313 -3.2933
-18 -7 -8 1.4532 -0.0641
-18 -7 -7 13.8339 0.9442
-18 -7 -6 -7.6124 -5.1478
-18 -7 -5 3.0931 2.6234
-18 -7 -4 10.2449 -14.0454
-18 -7 -3 -2.8534 -0.6931
-18 -7 -2 -2.5635 14.3337
-18 -7 -1 -5.5103 -2.8030
-18 -6 -19 12.1746 5.0570
-18 -6 -18 2.1608 -13.6812
-18 -6 -17 5.6370 5.0931
-18 -6 -16 1.3218 4.4855
-18 -6 -15 9.3418 -11.9637
-18 -6 -14 -12.9438 6.5560
-18 -6 -13 7.8017 14.4965
-18 -6 -12 -13.3067 -2.7028
-18 -6 -11 -11.7990 0.0997
-18 -6 -10 -8.0478 -6.6580
-18 -6 -9 4.1938 2.5600
-18 -6 -8 1.3540 7.7631
-18 -6 -7 -6.8306 8.3959
-18 -6 -6 -5.7792 -9.8312
-18 -6 -5 -4.6629 5.8337
-18 -6 -4 13.2025 -1.1239
-18 -6 -3 -0.1196 -1.7143
-18 -6 -2 10.0865 7.4231
-18 -6 -1 6.8556 5.2953
-18 -5 -19 -11.0076 -0.4596
-18 -5 -18 6.4219 -4.4484
-18 -5 -17 -4.3732 -4.6985
-18 -5 -16 -5.6355 -0.6339
-18 -5 -15 12.7149 -6.8401
-18 -5 -14 -3.5583 -0.9473
-18 -5 -13 -0.4542 10.8380
-18 -5 -12 -7.9871 7.6866
-18 -5 -11 -14.5147 2.4310
-18 -5 -10 -3.2198 -2.9317
-18 -5 -9 7.8635 0.2105
-18 -5 -8 1.8950 0.3162
-18 -5 -7 -2.2904 3.8675
-18 -5 -6 -6.1629 2.4581
-18 -5 -5 -16.7029 -15.4027
-18 -5 -4 5.4915 -4.2644
-18 -5 -3 8.6451 -8.5123
-18 -5 -2 3.3977 1.5816
-18 -5 -1 4.2696 0.7158
-18 -4 -19 -3.4666 0.6721
-18 -4 -18 12.9779 5.3512
-18 -4 -17 -8.6080 -19.3476
-18 -4 -16 0.1426 0.3236
-18 -4 -15 -2.6939 3.7290
-18 -4 -14 12.4920 -1.7737
-18 -4 -13 5.5771 6.9652
-18 -4 -12 8.9831 11.3556
-18 -4 -11 0.2368 -10.9869
-18 -4 -10 4.0528 -0.8063
-18 -4 -9 -1.2922 -8.8650
-18 -4 -8 7.4289 -1.7069
-18 -4 -7 -10.2901 9.4645
-18 -4 -6 -6.1276 5.8672
-18 -4 -5 -3.6695 -10.0756
-18 -4 -4 -13.7787 -4.4425
-18 -4 -3 7.8653 -14.6818
-18 -4 -2 -4.7639 -4.0144
-18 -4 -1 -5.2756 2.2400
-18 -3 -19 -11.6026 4.4685
-18 -3 -18 -8.2546 -7.4722
-18 -3 -17 5.0464 6.0237
-18 -3 -16 4.6952 10.5828
-18 -3 -15 10.0928 -2.0193
-18 -3 -14 14.9309 -6.0127
-18 -3 -13 -8.6939 -0.9373
-18 -3 -12 3.1195 -4.5217
-18 -3 -11 4.3571 2.0496
-18 -3 -10 -5.8840 -1.3997
-18 -3 -9 12.2993 10.5549
-18 -3 -8 5.3694 6.9769
-18 -3 -7 -5.9895 2.1551
-18 -3 -6 0.0119 12.6817
-18 -3 -5 -2.7433 2.8382
-18 -3 -4 -11.2321 -4.0351
-18 -3 -3 -3.1532 12.9094
-18 -3 -2 -4.9362 -5.8939
-18 -3 -1 8.2502 -0.5048
-18 -2 -20 -8.5080 -0.4702
-18 -2 -19 -2.3152 2.5011
-18 -2 -18 -0.4995 7.9052
-18 -2 -17 0.2927 -4.6436
-18 -2 -16 1.3010 -20.5928
-18 -2 -15 5.8538 7.0702
-18 -2 -14 -18.7101 8.4459
-18 -2 -13 -7.4856 2.7150
-18 -2 -12 -3.2465 1.5895
-18 -2 -11 4.5679 -4.7543
-18 -2 -10 4.0233 -9.8150
-18 -2 -9 1.2795 16.2052
-18 -2 -8 5.9281 -0.5370
-18 -2 -7 0.8034 6.0885
-18 -2 -6 -0.6128 6.2617
-18 -2 -5 8.5271 4.7343
-18 -2 -4 -1.6458 5.6479
-18 -2 -3 -8.2343 4.5187
-18 -2 -2 13.8936 -5.2252
-18 -2 -1 -4.2075 3.7985
-18 -1 -20 -5.6679 6.8633
-18 -1 -19 -2.6986 2.1382
-18 -1 -18 -9.3381 -5.4816
-18 -1 -17 -1.5922 -15.2853
-18 -1 -16 -7.6752 2.2276
-18 -1 -15 0.8655 5.7144
-18 -1 -14 6.0767 4.9258
-18 -1 -13 -0.7216 -2.5621
-18 -1 -12 -17.5177 -3.5540
-18 -1 -11 -1.6456 -9.3899
-18 -1 -10 4.6325 -2.6506
-18 -1 -9 0.7983 -5.6266
-18 -1 -8 8.3909 1.3128
-18 -1 -7 -2.0004 -9.1418
-18 -1 -6 3.1251 2.2666
-18 -1 -5 3.0673 -1.1356
-18 -1 -4 4.3809 -5.5390
-18 -1 -3 2.6823 -4.2775
-18 -1 -2 -0.0562 6.0054
-18 -1 -1 -4.3836 -10.5974
-17 -18 -4 -2.4120 10.2825
-17 -18 -3 -0.8481 5.9344
-17 -18 -2 -7.1607 -0.6056
-17 -18 -1 5.0064 1.8288
-17 -17 -8 0.7848 -8.3406
-17 -17 -7 -7.8657 -4.2017
-17 -17 -6 2.8873 -0.0801
-17 -17 -5 8.4635 -9.5425
-17 -17 -4 -1.1246 3.5517
-17 -17 -3 -0.1363 5.5600
-17 -17 -2 -2.1154 0.2753
-17 -17 -1 -8.6527 0.2399
-17 -16 -10 -5.0912 0.8194
-17 -16 -9 2.2732 0.5971
-17 -16 -8 2.2334 2.5706
-17 -16 -7 -15.1655 -8.0855
-17 -16 -6 -4.8165 -2.1384
-17 -16 -5 5.4734 -3.4487
-17 -16 -4 3.8555 -6.4075
-17 -16 -3 6.7512 7.1859
-17 -16 -2 1.5720 0.0164
-17 -16 -1 -11.8283 0.2222
-17 -15 -12 -1.0752 -1.4134
-17 -15 -11 3.2450 2.0904
-17 -15 -10 5.3231 -0.4299
-17 -15 -9 1.3803 7.0515
-17 -15 -8 -3.1041 12.7030
-17 -15 -7 5.3475 10.7034
-17 -15 -6 -6.5422 5.3928
-17 -15 -5 2.9137 -8.3604
-17 -15 -4 2.2419 -12.8043
-17 -15 -3 -1.6659 6.1189
-17 -15 -2 10.8989 7.0890
-17 -15 -1 8.8266 9.6676
-17 -14 -13 -1.4536 2.0264
-17 -14 -12 -6.8576 1.5592
-17 -14 -11 2.8644 -3.6841
-17 -14 -10 17.3773 0.3050
-17 -14 -9 9.1355 -0.5090
-17 -14 -8 6.5233 5.4870
-17 -14 -7 6.0918 -1.6706
-17 -14 -6 -12.6543 -2.4101
-17 -14 -5 -10.5520 11.5639
-17 -14 -4 -0.7344 -1.8677
-17 -14 -3 7.2988 -14.1236
-17 -14 -2 13.7443 0.4659
-17 -14 -1 5.6877 -11.1479
-17 -13 -15 -11.3363 2.0837
-17 -13 -14 4.7763 11.7787
-17 -13 -13 -0.8295 6.7459
-17 -13 -12 -7.2683 -15.2655
-17 -13 -11 -4.9317 -9.4481
-17 -13 -10 0.8607 -13.4457
-17 -13 -9 -3.0973 -18.7019
-17 -13 -8 -3.3311 7.8092
-17 -13 -7 3.6058 10.1081
-17 -13 -6 -0.3857 -8.8673
-17 -13 -5 -4.8115 0.8252
-17 -13 -4 1.7534 -0.5205
-17 -13 -3 -16.0863 -13.1155
-17 -13 -2 -15.9223 -10.5196
-17 -13 -1 9.2883 -9.6407
-17 -12 -16 -4.3566 -5.2131
-17 -12 -15 14.2752 2.3688
-17 -12 -14 -7.1396 1.7394
-17 -12 -13 -5.4784 -5.1661
-17 -12 -12 -14.8138 -1.9207
-17 -12 -11 -21.9584 5.4828
-17 -12 -10 0.5165 -0.8164
-17 -12 -9 10.8600 -1.5838
-17 -12 -8 -10.8444 -0.2495
-17 -12 -7 5.5252 0.8213
-17 -12 -6 7.8123 -6.1244
-17 -12 -5 -10.0488 7.9934
-17 -12 -4 1.8438 11.9519
-17 -12 -3 -8.9400 4.1268
-17 -12 -2 -12.4274 2.2125
-17 -12 -1 5.1650 -5.1756
-17 -11 -16 7.1304 5.0094
-17 -11 -15 -1.2642 8.7693
-17 -11 -14 -2.2334 -8.1823
-17 -11 -13 -1.4098 19.9421
-17 -11 -12 5.3203 15.6175
-17 -11 -11 7.8890 -5.1367
-17 -11 -10 0.7761 4.7529
-17 -11 -9 -1.2461 3.0646
-17 -11 -8 -1.7250 -5.2205
-17 -11 -7 2.0439 10.2290
-17 -11 -6 7.5569 -5.9011
-17 -11 -5 3.4264 2.6381
-17 -11 -4 4.2349 19.3641
-17 -11 -3 0.7900 0.5232
-17 -11 -2 -7.3128 6.9824
-17 -11 -1 -7.2434 3.4393
-17 -10 -17 11.7437 1.7786
-17 -10 -16 -10.9818 2.1812
-17 -10 -15 19.3292 17.1739
-17 -10 -14 18.9402 5.7178
-17 -10 -13 -13.2847 -9.7115
-17 -10 -12 15.4686 -0.7199
-17 -10 -11 8.6078 -3.7674
-17 -10 -10 -10.7045 6.8366
-17 -10 -9 -1.1464 3.0537
-17 -10 -8 6.9107 -9.6044
-17 -10 -7 -9.7042 -4.5786
-17 -10 -6 6.9729 8.5618
-17 -10 -5 0.6744 -6.7630
-17 -10 -4 7.3383 -4.8957
-17 -10 -3 11.6188 3.4787
-17 -10 -2 -12.7121 2.9621
-17 -10 -1 -5.2743 2.8740
-17 -9 -18 2.3655 10.8335
-17 -9 -17 15.0938 2.1658
-17 -9 -16 6.0708 -25.8618
-17 -9 -15 -10.7374 14.7601
-17 -9 -14 3.6267 -9.6983
-17 -9 -13 -9.0425 -7.3746
-17 -9 -12 -8.5021 10.1097
-17 -9 -11 6.5449 -6.4332
-17 -9 -10 -6.3796 -6.7226
-17 -9 -9 -1.2669 10.0422
-17 -9 -8 3.3632 1.3596
-17 -9 -7 -2.6801 -13.6680
-17 -9 -6 -2.0631 4.1332
-17 -9 -5 7.0397 -11.1008
-17 -9 -4 -11.2974 -5.0279
-17 -9 -3 4.0686 -2.9796
-17 -9 -2 14.1944 0.3066
-17 -9 -1 5.0563 13.8372
-17 -8 -19 8.7038 -22.4566
-17 -8 -18 -8.9473 -10.2714
-17 -8 -17 -5.6231 -4.0395
-17 -8 -16 -3.6987 -8.4648
-17 -8 -15 -14.9035 1.9234
-17 -8 -14 14.7508 12.4594
-17 -8 -13 -2.8197 -9.3059
-17 -8 -12 -10.5721 4.9755
-17 -8 -11 3.2032 6.6759
-17 -8 -10 1.5288 -9.0964
-17 -8 -9 -1.5631 0.6216
-17 -8 -8 5.4917 4.6383
-17 -8 -7 1.5054 0.9085
-17 -8 -6 -17.8469 2.8120
-17 -8 -5 1.4015 6.0094
-17 -8 -4 -4.6699 -8.3684
-17 -8 -3 6.9412 -0.5421
-17 -8 -2 7.6005 -11.0772
-17 -8 -1 -2.1466 -4.0242
-17 -7 -19 -2.4822 -4.2875
-17 -7 -18 -12.2079 -7.3858
-17 -7 -17 5.0290 13.6075
-17 -7 -16 13.3711 1.1798
-17 -7 -15 -1.8573 -19.5693
-17 -7 -14 4.5841 8.1460
-17 -7 -13 13.1044 1.4260
-17 -7 -12 -7.1920 4.8321
-17 -7 -11 0.2841 0.7564
-17 -7 -10 6.3624 -4.5350
-17 -7 -9 -4.4237 -8.2690
-17 -7 -8 -0.1720 8.3902
-17 -7 -7 6.3723 10.7823
-17 -7 -6 -5.7854 6.0095
-17 -7 -5 -15.6809 9.3701
-17 -7 -4 -1.0683 -16.2074
-17 -7 -3 -12.5726 -2.1941
-17 -7 -2 5.0970 -0.4104
-17 -7 -1 -2.9454 -0.8672
-17 -6 -20 -3.4559 21.1836
-17 -6 -19 1.9478 3.7061
-17 -6 -18 6.0736 -8.1593
-17 -6 -17 -9.8374 8.0796
-17 -6 -16 6.0190 -1.8431
-17 -6 -15 1.6401 -4.4582
-17 -6 -14 -6.8909 2.3682
-17 -6 -13 14.7087 0.1111
-17 -6 -12 2.9409 -6.1692
-17 -6 -11 -13.6907 8.6196
-17 -6 -10 -2.5640 -3.2139
-17 -6 -9 9.3886 -7.7746
-17 -6 -8 4.1409 6.7685
-17 -6 -7 9.0097 16.3505
-17 -6 -6 -1.8026 -5.6932
-17 -6 -5 -11.9274 1.8174
-17 -6 -4 -1.6584 7.2635
-17 -6 -3 -11.2585 -6.4598
-17 -6 -2 4.2109 3.3537
-17 -6 -1 2.5040 -4.8810
-17 -5 -20 -6.9864 0.1476
-17 -5 -19 5.9712 16.5978
-17 -5 -18 -9.4059 1.6302
-17 -5 -17 -3.9100 -7.5267
-17 -5 -16 0.0730 10.0608
-17 -5 -15 -5.1376 -1.6071
-17 -5 -14 -5.1612 -8.4118
-17 -5 -13 1.8409 9.2662
-17 -5 -12 -7.1376 -1.6908
-17 -5 -11 -3.2007 -1.5911
-17 -5 -10 10.8639 3.1302
-17 -5 -9 12.4279 -9.0509
-17 -5 -8 1.5095 -5.0450
-17 -5 -7 3.4574 10.3549
-17 -5 -6 9.5384 2.7724
-17 -5 -5 -3.2376 4.3530
-17 -5 -4 5.7165 7.6768
-17 -5 -3 11.0753 -2.9066
-17 -5 -2 -11.4775 3.0368
-17 -5 -1 6.3810 -4.2266
-17 -4 -20 1.9605 -1.6470
-17 -4 -19 2.7227 -0.3252
-17 -4 -18 7.4095 -0.7955
-17 -4 -17 -5.0672 2.1190
-17 -4 -16 -9.8527 -6.8163
-17 -4 -15 10.5244 -3.9570
-17 -4 -14 2.4047 12.5111
-17 -4 -13 -11.2950 1.0830
-17 -4 -12 4.4126 -8.4729
-17 -4 -11 -1.7852 -10.9878
-17 -4 -10 -2.5328 -7.0399
-17 -4 -9 9.5187 -1.4793
-17 -4 -8 1.1055 0.9089
-17 -4 -7 2.6380 -1.9816
-17 -4 -6 7.8888 0.7308
-17 -4 -5 -0.0562 -5.2733
-17 -4 -4 2.6757 8.9281
-17 -4 -3 6.5029 -0.2933
-17 -4 -2 -3.9255 0.5969
-17 -4 -1 0.0223 11.8575
-17 -3 -21 -7.2711 -3.9248
-17 -3 -20 18.0630 -10.1190
-17 -3 -19 5.7941 -6.6955
-17 -3 -18 -3.9290 4.4168
-17 -3 -17 -5.4919 -1.8452
-17 -3 -16 15.5703 -4.0768
-17 -3 -15 3.3513 3.6391
-17 -3 -14 1.5819 -0.6771
-17 -3 -13 -3.9645 -1.6678
-17 -3 -12 -7.7340 6.7046
-17 -3 -11 -5.6047 -9.5851
-17 -3 -10 0.5920 -5.3533
-17 -3 -9 -4.6448 -0.6930
-17 -3 -8 2.8772 -8.1267
-17 -3 -7 -3.5447 2.8051
-17 -3 -6 -5.6069 -0.2937
-17 -3 -5 1.5533 -9.5761
-17 -3 -4 -0.1862 -3.3728
-17 -3 -3 3.2164 1.2504
-17 -3 -2 -0.6636 0.2587
-17 -3 -1 -11.8073 8.1007
-17 -2 -21 -1.1360 0.4477
-17 -2 -20 -9.1285 -0.6736
-17 -2 -19 -1.8818 -3.0132
-17 -2 -18 1.6652 3.2975
-17 -2 -17 5.2301 8.2492
-17 -2 -16 0.2066 -3.6736
-17 -2 -15 -6.3052 -2.9340
-17 -2 -14 0.9720 5.8221
-17 -2 -13 2.0358 8.8953
-17 -2 -12 -8.4489 2.3793
-17 -2 -11 3.1495 4.9029
-17 -2 -10 -8.2677 -2.9438
-17 -2 -9 -5.0739 -0.6782
-17 -2 -8 3.6171 5.2047
-17 -2 -7 -5.1707 -1.7936
-17 -2 -6 -3.2526 -3.8186
-17 -2 -5 -4.6667 0.1158
-17 -2 -4 -3.5655 -6.7358
-17 -2 -3 8.1340 3.0416
-17 -2 -2 7.6095 1.1933
-17 -2 -1 -4.1903 1.8214
-17 -1 -21 -4.9742 9.5725
-17 -1 -20 -5.9259 6.6728
-17 -1 -19 -1.5866 -0.9588
-17 -1 -18 -2.5185 -10.3325
-17 -1 -17 6.8519 6.3665
-17 -1 -16 -8.5627 7.4620
-17 -1 -15 -7.3888 -0.5966
-17 -1 -14 3.0892 3.8025
-17 -1 -13 8.3778 -1.9036
-17 -1 -12 -4.1496 -6.0047
-17 -1 -11 -2.5679 10.6746
-17 -1 -10 4.0538 -0.4193
-17 -1 -9 0.6891 6.0435
-17 -1 -8 -2.6878 5.1358
-17 -1 -7 3.7243 -2.3637
-17 -1 -6 -1.0534 5.9236
-17 -1 -5 -3.4271 0.5621
-17 -1 -4 4.4553 -5.2313
-17 -1 -3 0.8953 -3.7429
-17 -1 -2 7.6047 -4.5416
-17 -1 -1 5.4701 5.5002
-16 -19 -4 2.0668 2.6194
-16 -19 -3 0.3471 5.3846
-16 -19 -2 -2.4585 2.9627
-16 -19 -1 0.1273 9.9143
-16 -18 -8 5.4778 -5.0752
-16 -18 -7 -3.6075 8.5716
-16 -18 -6 -5.7430 3.9210
-16 -18 -5 -0.5811 1.0925
-16 -18 -4 -1.8234 1.6994
-16 -18 -3 6.0222 -5.9556
-16 -18 -2 -9.0034 -0.8328
-16 -18 -1 0.1024 10.2979
-16 -17 -10 -8.0453 -6.1164
-16 -17 -9 1.1126 1.0944
-16 -17 -8 8.4821 2.6455
-16 -17 -7 5.3453 -9.8097
-16 -17 -6 5.4796 4.7390
-16 -17 -5 -7.9230 -5.8855
-16 -17 -4 -12.0724 -4.2025
-16 -17 -3 7.4557 -5.7901
-16 -17 -2 2.0664 -8.4382
-16 -17 -1 8.1592 -8.0015
-16 -16 -12 -5.0403 7.5525
-16 -16 -11 -0.7509 0.2960
-16 -16 -10 4.7055 -13.7509
-16 -16 -9 -2.7105 -2.0892
-16 -16 -8 1.6703 -5.7594
-16 -16 -7 4.0966 -6.3502
-16 -16 -6 0.8808 14.1884
-16 -16 -5 8.3343 5.6811
-16 -16 -4 -6.2263 1.4074
-16 -16 -3 -9.9145 -4.8521
-16 -16 -2 10.8212 -17.9841
-16 -16 -1 -4.7531 -1.8168
-16 -15 -14 11.4284 -6.1313
-16 -15 -13 2.5141 -1.6794
-16 -15 -12 -9.4695 4.7011
-16 -15 -11 -4.6391 -0.2565
-16 -15 -10 -4.6425 1.5945
-16 -15 -9 -15.2250 -2.3538
-16 -15 -8 10.8399 2.7884
-16 -15 -7 6.0574 -2.1509
-16 -15 -6 2.4086 -0.2367
-16 -15 -5 7.2950 15.4949
-16 -15 -4 -8.1110 1.6771
-16 -15 -3 -14.4171 17.0931
-16 -15 -2 -2.0627 3.6733
-16 -15 -1 -8.7639 -4.3843
-16 -14 -15 -4.6718 -10.8612
-16 -14 -14 -1.4435 3.1998
-16 -14 -13 -4.0496 3.5583
-16 -14 -12 7.6137 7.7535
-16 -14 -11 -2.5280 16.1186
-16 -14 -10 -5.9455 -1.0084
-16 -14 -9 2.6038 -7.0485
-16 -14 -8 -4.2553 1.8446
-16 -14 -7 -5.4420 -11.9377
-16 -14 -6 -0.9214 -3.5951
-16 -14 -5 13.7113 5.7750
-16 -14 -4 9.0250 2.0032
-16 -14 -3 -12.1386 13.6969
-16 -14 -2 -10.1992 6.0310
-16 -14 -1 -0.9214 -14.3289
-16 -13 -16 3.1708 -6.3165
-16 -13 -15 -1.5527 7.6728
-16 -13 -14 -7.8033 7.2701
-16 -13 -13 22.1909 0.0147
-16 -13 -12 10.5318 -6.2447
-16 -13 -11 -4.2206 -3.1095
-16 -13 -10 -1.7404 7.1224
-16 -13 -9 -1.1610 9.7678
-16 -13 -8 -9.0565 -6.0812
-16 -13 -7 0.4404 -8.3027
-16 -13 -6 -9.5556 -9.0527
-16 -13 -5 11.2195 -7.4427
-16 -13 -4 15.6210 2.4736
-16 -13 -3 0.7019 -6.1346
-16 -13 -2 -4.2573 11.2720
-16 -13 -1 -6.4768 0.5272
-16 -12 -17 -1.0162 -1.5031
-16 -12 -16 7.4862 10.7752
-16 -12 -15 9.9281 -13.2324
-16 -12 -14 -1.8132 -10.3914
-16 -12 -13 -5.1818 3.3256
-16 -12 -12 -6.1658 -12.1989
-16 -12 -11 13.9933 0.0969
-16 -12 -10 10.9144 15.2185
-16 -12 -9 -5.0928 5.8269
-16 -12 -8 -11.2329 2.8353
-16 -12 -7 1.5716 7.3995
-16 -12 -6 8.7856 -8.8498
-16 -12 -5 -9.2059 -3.2906
-16 -12 -4 2.6311 -6.2680
-16 -12 -3 18.4213 -0.0979
-16 -12 -2 4.4215 14.7345
-16 -12 -1 3.1431 11.1371
-16 -11 -18 -1.7090 -7.0083
-16 -11 -17 1.1230 -6.1477
-16 -11 -16 -9.9159 0.4649
-16 -11 -15 4.1833 -5.2039
-16 -11 -14 -14.1073 4.6228
-16 -11 -13 -8.5788 -1.8946
-16 -11 -12 13.0818 -6.0009
-16 -11 -11 3.3793 -4.5653
-16 -11 -10 4.7982 2.4518
-16 -11 -9 9.1349 -0.6788
-16 -11 -8 -0.3677 6.1666
-16 -11 -7 -8.8433 6.3708
-16 -11 -6 3.3429 -5.5106
-16 -11 -5 -13.6511 -2.5552
-16 -11 -4 2.3845 10.0880
-16 -11 -3 6.6328 -2.2486
-16 -11 -2 7.7809 -21.6740
-16 -11 -1 11.2069 10.6149
-16 -10 -18 0.8184 5.2474
-16 -10 -17 -3.7325 10.1017
-16 -10 -16 -0.6092 -3.5381
-16 -10 -15 -4.4377 13.0726
-16 -10 -14 2.4340 -6.4339
-16 -10 -13 -2.1964 -2.5019
-16 -10 -12 -1.5829 -3.0472
-16 -10 -11 -6.1567 -11.8168
-16 -10 -10 5.1591 -5.7243
-16 -10 -9 5.1252 3.5302
-16 -10 -8 -6.6250 -5.8401
-16 -10 -7 -3.4954 3.9187
-16 -10 -6 7.5888 10.4165
-16 -10 -5 -0.9780 -8.2863
-16 -10 -4 -18.5938 1.9009
-16 -10 -3 -5.0601 -13.8640
-16 -10 -2 -7.8566 -11.2385
-16 -10 -1 -0.8052 0.7958
-16 -9 -19 7.2596 6.8611
-16 -9 -18 -3.7486 5.9318
-16 -9 -17 17.4760 -0.9264
-16 -9 -16 1.9808 -4.7319
-16 -9 -15 -17.3829 8.8993
-16 -9 -14 13.8487 -1.9950
-16 -9 -13 -3.2864 -4.6707
-16 -9 -12 -11.8368 1.0878
-16 -9 -11 -1.6188 5.1535
-16 -9 -10 -0.2142 -2.1479
-16 -9 -9 -0.6984 0.9549
-16 -9 -8 8.8967 -3.7687
-16 -9 -7 -1.6094 -1.3577
-16 -9 -6 5.5136 7.3624
-16 -9 -5 5.6711 2.4920
-16 -9 -4 -21.0493 3.7361
-16 -9 -3 -2.2073 4.1240
-16 -9 -2 -3.0651 -7.5582
-16 -9 -1 1.9664 -10.8732
-16 -8 -20 6.3155 4.1218
-16 -8 -19 6.3704 -2.3534
-16 -8 -18 -3.9093 -12.6199
-16 -8 -17 6.7184 14.3247
-16 -8 -16 -5.5471 -9.7683
-16 -8 -15 -3.9859 1.4231
-16 -8 -14 -3.0431 14.8147
-16 -8 -13 0.8042 -8.8815
-16 -8 -12 -1.6729 6.5105
-16 -8 -11 11.5590 12.4231
-16 -8 -10 -6.3475 -5.2095
-16 -8 -9 -7.5535 -6.3020
-16 -8 -8 14.9103 3.8332
-16 -8 -7 9.1782 -8.7487
-16 -8 -6 -11.2567 9.0099
-16 -8 -5 6.0862 6.3146
-16 -8 -4 14.6535 4.6722
-16 -8 -3 -3.8692 13.6795
-16 -8 -2 -3.4331 -7.0654
-16 -8 -1 -8.2096 -1.1702
-16 -7 -20 -0.1268 2.0580
-16 -7 -19 1.9758 -12.0693
-16 -7 -18 -5.6253 4.6346
-16 -7 -17 -7.7698 10.5141
-16 -7 -16 15.1408 7.2712
-16 -7 -15 -8.6867 -3.4369
-16 -7 -14 -2.1004 2.4616
-16 -7 -13 14.1582 -5.4774
-16 -7 -12 -5.5635 1.4698
-16 -7 -11 -2.5239 -3.3182
-16 -7 -10 3.1138 -11.0348
-16 -7 -9 -6.7342 -1.7248
-16 -7 -8 -4.6780 9.2576
-16 -7 -7 7.8316 -6.4732
-16 -7 -6 -3.0514 -9.2201
-16 -7 -5 12.1684 9.0583
-16 -7 -4 6.8883 -8.4405
-16 -7 -3 -1.0833 3.8071
-16 -7 -2 -0.3827 13.6726
-16 -7 -1 -9.6814 2.3863
-16 -6 -21 -4.2180 -6.2189
-16 -6 -20 -5.1434 -1.5575
-16 -6 -19 6.0185 0.8923
-16 -6 -18 13.0050 0.1645
-16 -6 -17 4.6040 -2.0135
-16 -6 -16 4.1936 3.0271
-16 -6 -15 -4.6991 -14.9057
-16 -6 -14 1.5064 6.1244
-16 -6 -13 -3.5454 2.2829
-16 -6 -12 -7.2823 -10.5015
-16 -6 -11 -8.0200 1.8533
-16 -6 -10 5.3266 5.2637
-16 -6 -9 3.4003 -5.0080
-16 -6 -8 -5.2455 0.5849
-16 -6 -7 -2.8484 1.4907
-16 -6 -6 -5.2269 -16.6356
-16 -6 -5 -5.1141 -2.5865
-16 -6 -4 9.5112 -5.2623
-16 -6 -3 3.1133 7.3156
-16 -6 -2 5.3515 5.4951
-16 -6 -1 1.2599 0.0785
-16 -5 -21 -1.8144 -1.4134
-16 -5 -20 -5.0377 -19.2852
-16 -5 -19 2.3927 -0.2851
-16 -5 -18 4.0569 -9.9735
-16 -5 -17 -5.1634 0.1124
-16 -5 -16 -2.7095 -0.8365
-16 -5 -15 9.7159 8.3429
-16 -5 -14 -3.8013 1.3555
-16 -5 -13 -3.8089 9.9254
-16 -5 -12 4.1668 0.4307
-16 -5 -11 -3.1448 -2.1071
-16 -5 -10 4.2766 -0.4564
-16 -5 -9 3.3723 2.8177
-16 -5 -8 -11.2856 -0.4388
-16 -5 -7 -3.8483 10.9538
-16 -5 -6 1.6554 -1.1851
-16 -5 -5 -12.0521 -18.8785
-16 -5 -4 7.4325 -4.0320
-16 -5 -3 8.9359 -6.2524
-16 -5 -2 7.0039 10.3686
-16 -5 -1 -2.5683 0.2254
-16 -4 -22 -11.6390 3.0047
-16 -4 -21 -9.2708 7.0208
-16 -4 -20 -17.3079 3.8186
-16 -4 -19 -3.2412 4.5966
-16 -4 -18 2.6848 -4.4737
-16 -4 -17 0.2887 0.0529
-16 -4 -16 -2.6671 0.4565
-16 -4 -15 7.6904 8.5911
-16 -4 -14 0.7327 -6.3605
-16 -4 -13 -2.3352 5.1547
-16 -4 -12 1.0129 4.5315
-16 -4 -11 -0.7361 -8.3286
-16 -4 -10 -4.4342 7.6127
-16 -4 -9 11.6736 6.8377
-16 -4 -8 7.7224 -0.8851
-16 -4 -7 -20.0198 6.5433
-16 -4 -6 -4.0789 0.1129
-16 -4 -5 1.3784 -11.5989
-16 -4 -4 -2.1148 1.6285
-16 -4 -3 8.4533 -14.1537
-16 -4 -2 5.2015 -1.5764
-16 -4 -1 2.0198 -2.1670
-16 -3 -22 0.6684 17.5831
-16 -3 -21 8.9129 8.4558
-16 -3 -20 -0.0999 3.2089
-16 -3 -19 -4.8721 -0.4517
-16 -3 -18 -5.6613 -1.7115
-16 -3 -17 3.0635 -8.6614
-16 -3 -16 1.3535 6.0139
-16 -3 -15 -3.8947 -1.8964
-16 -3 -14 4.5382 -3.1478
-16 -3 -13 -7.1257 -3.4994
-16 -3 -12 -1.4429 5.2524
-16 -3 -11 10.7465 -9.2457
-16 -3 -10 -4.4583 -3.8995
-16 -3 -9 9.6633 9.3509
-16 -3 -8 -0.9430 4.1380
-16 -3 -7 -11.7474 1.6481
-16 -3 -6 1.2229 12.1230
-16 -3 -5 -0.8773 -6.4655
-16 -3 -4 -11.0665 -11.2391
-16 -3 -3 0.2001 11.3892
-16 -3 -2 -6.0815 -3.8868
-16 -3 -1 4.8078 3.4090
-16 -2 -22 26.7267 -0.7607
-16 -2 -21 10.7801 -3.4347
-16 -2 -20 -5.0730 -1.5397
-16 -2 -19 -7.8537 0.7170
-16 -2 -18 13.0912 2.3314
-16 -2 -17 -0.3184 -4.2165
-16 -2 -16 0.8265 -6.1705
-16 -2 -15 0.4915 0.3296
-16 -2 -14 2.3319 10.4573
-16 -2 -13 -7.5979 -12.3476
-16 -2 -12 0.0366 -1.0236
-16 -2 -11 8.0322 -2.6738
-16 -2 -10 1.0825 -10.2165
-16 -2 -9 -0.4885 11.7493
-16 -2 -8 8.7184 0.5463
-16 -2 -7 0.4749 6.2766
-16 -2 -6 -12.6862 5.0085
-16 -2 -5 2.6663 0.8482
-16 -2 -4 -5.3783 4.1806
-16 -2 -3 -1.8663 14.7798
-16 -2 -2 4.8332 -6.0854
-16 -2 -1 -12.4078 8.3899
-16 -1 -22 -4.9504 -2.1842
-16 -1 -21 -2.1420 -5.4981
-16 -1 -20 3.7978 -0.3067
-16 -1 -19 0.1341 11.2091
-16 -1 -18 -1.1275 -5.3411
-16 -1 -17 -0.3798 -5.1159
-16 -1 -16 6.3200 6.5053
-16 -1 -15 -2.0740 11.2541
-16 -1 -14 0.6625 -1.3581
-16 -1 -13 4.8643 -3.6009
-16 -1 -12 -8.6460 0.4034
-16 -1 -11 -2.1793 2.1869
-16 -1 -10 4.7483 -8.1992
-16 -1 -9 -1.1895 -0.5854
-16 -1 -8 13.3019 6.2861
-16 -1 -7 -3.3774 -1.2335
-16 -1 -6 0.4512 1.0733
-16 -1 -5 4.4920 0.7260
-16 -1 -4 6.5284 -7.0146
-16 -1 -3 5.1849 0.7556
-16 -1 -2 0.3678 11.3543
-16 -1 -1 -10.7708 -13.1545
-15 -20 -3 -13.1548 -3.8682
-15 -20 -2 2.6083 5.4846
-15 -20 -1 10.5259 -1.4824
-15 -19 -7 2.1102 -3.6863
-15 -19 -6 3.0572 -3.3101
-15 -19 -5 -6.7656 9.9872
-15 -19 -4 -2.1999 9.2546
-15 -19 -3 -1.7387 -6.1225
-15 -19 -2 -3.7379 1.1305
-15 -19 -1 0.7239 -16.2701
-15 -18 -10 -6.1164 -1.4164
-15 -18 -9 5.2152 -0.2464
-15 -18 -8 -6.1369 -3.4790
-15 -18 -7 -0.5578 0.9949
-15 -18 -6 13.7952 0.3307
-15 -18 -5 3.1210 -0.2358
-15 -18 -4 3.2933 9.4895
-15 -18 -3 -6.4914 0.5189
-15 -18 -2 -12.6255 -4.3735
-15 -18 -1 6.1664 0.4625
-15 -17 -12 3.6756 3.6179
-15 -17 -11 -1.5286 -3.8129
-15 -17 -10 1.4793 1.8026
-15 -17 -9 1.7126 10.8296
-15 -17 -8 1.2580 -11.8439
-15 -17 -7 -2.1626 -1.8864
-15 -17 -6 3.6796 -0.8122
-15 -17 -5 10.9619 -4.3716
-15 -17 -4 -0.6275 7.5999
-15 -17 -3 3.2905 5.2728
-15 -17 -2 -3.3634 -1.4184
-15 -17 -1 -1.7623 5.2373
-15 -16 -14 0.7629 4.6995
-15 -16 -13 -3.0457 -1.3657
-15 -16 -12 3.2918 -1.0397
-15 -16 -11 8.7769 2.7241
-15 -16 -10 -3.7745 4.1080
-15 -16 -9 -7.5732 -4.8435
-15 -16 -8 4.0460 8.2123
-15 -16 -7 -11.8357 -3.5484
-15 -16 -6 -4.1699 -6.7782
-15 -16 -5 2.0302 -7.9440
-15 -16 -4 -3.3038 -3.6774
-15 -16 -3 9.3450 10.8975
-15 -16 -2 1.5623 0.2218
-15 -16 -1 -13.9373 -0.1990
-15 -15 -15 1.3139 8.9817
-15 -15 -14 0.5431 1.7766
-15 -15 -13 -7.5790 -9.6547
-15 -15 -12 -3.1030 -4.1673
-15 -15 -11 -2.1832 5.4769
-15 -15 -10 7.9990 -2.8845
-15 -15 -9 -3.0393 3.8330
-15 -15 -8 -9.5727 12.4113
-15 -15 -7 -1.6392 -1.1139
-15 -15 -6 -11.9762 6.5456
-15 -15 -5 -4.5481 -6.3063
-15 -15 -4 8.6921 -13.2216
-15 -15 -3 -2.4031 1.4871
-15 -15 -2 7.6566 1.5396
-15 -15 -1 -2.0610 10.1484
-15 -14 -16 1.2850 -8.9809
-15 -14 -15 -3.2145 -0.7369
-15 -14 -14 -7.0412 -3.0010
-15 -14 -13 -1.4427 1.5939
-15 -14 -12 -6.4827 -3.1456
-15 -14 -11 2.5292 -7.1200
-15 -14 -10 15.8563 -4.0285
-15 -14 -9 6.9392 6.5589
-15 -14 -8 5.5303 9.7181
-15 -14 -7 9.7285 6.4326
-15 -14 -6 -9.3908 -8.3660
-15 -14 -5 -3.8972 9.8738
-15 -14 -4 -2.4247 -3.4692
-15 -14 -3 2.8637 -11.4445
-15 -14 -2 22.8702 7.1187
-15 -14 -1 9.8514 -7.2268
-15 -13 -17 7.2677 -9.7463
-15 -13 -16 -1.3852 3.8815
-15 -13 -15 -2.6916 -0.2287
-15 -13 -14 6.3094 5.7923
-15 -13 -13 2.3658 2.9495
-15 -13 -12 -6.6445 -10.8490
-15 -13 -11 7.8042 -12.1571
-15 -13 -10 5.4398 -2.3440
-15 -13 -9 8.0878 -13.3365
-15 -13 -8 2.6100 0.0325
-15 -13 -7 5.5708 8.2231
-15 -13 -6 0.5539 4.8484
-15 -13 -5 -1.8960 8.6507
-15 -13 -4 4.6302 -9.9697
-15 -13 -3 -10.7467 -11.9197
-15 -13 -2 -12.7463 -4.6123
-15 -13 -1 16.8377 -17.5281
-15 -12 -18 10.0869 -4.1449
-15 -12 -17 4.0982 4.4337
-15 -12 -16 -5.4853 11.4194
-15 -12 -15 13.7374 4.3578
-15 -12 -14 -3.1294 5.8433
-15 -12 -13 -10.3154 -6.0839
-15 -12 -12 -0.2779 4.5031
-15 -12 -11 -13.5484 0.0140
-15 -12 -10 -12.2684 -5.3584
-15 -12 -9 6.5922 -0.9845
-15 -12 -8 -2.6351 2.5433
-15 -12 -7 4.1487 -11.9369
-15 -12 -6 3.0707 -4.4826
-15 -12 -5 -8.2713 7.8598
-15 -12 -4 -7.2754 14.5215
-15 -12 -3 -20.1391 -5.1129
-15 -12 -2 -9.6663 -2.9322
-15 -12 -1 9.3958 -5.1129
-15 -11 -19 -2.3421 -6.0453
-15 -11 -18 3.0415 9.9148
-15 -11 -17 -5.7452 -8.5312
-15 -11 -16 8.1833 3.4127
-15 -11 -15 -0.2387 15.7041
-15 -11 -14 -14.0905 -15.1618
-15 -11 -13 -8.4023 14.4083
-15 -11 -12 2.7197 17.0570
-15 -11 -11 0.7934 -1.1163
-15 -11 -10 -3.7737 1.4928
-15 -11 -9 -14.6154 4.5721
-15 -11 -8 -4.6124 -15.2980
-15 -11 -7 -0.6867 4.4792
-15 -11 -6 5.5326 -1.1592
-15 -11 -5 8.3323 6.2517
-15 -11 -4 3.4591 14.6991
-15 -11 -3 -2.4830 2.7381
-15 -11 -2 -14.4016 -0.2338
-15 -11 -1 -9.4584 -5.0453
-15 -10 -20 -4.5363 -7.4028
-15 -10 -19 -3.4014 -7.2039
-15 -10 -18 -8.5644 -4.7572
-15 -10 -17 12.8194 -9.4138
-15 -10 -16 -17.4949 2.9473
-15 -10 -15 1.0910 1.6017
-15 -10 -14 14.1863 -0.0042
-15 -10 -13 -5.5797 2.6175
-15 -10 -12 13.1043 -13.1360
-15 -10 -11 7.9312 -0.0842
-15 -10 -10 -12.6734 13.2742
-15 -10 -9 -2.1194 10.6240
-15 -10 -8 5.5861 -10.4258
-15 -10 -7 -8.5137 -4.4600
-15 -10 -6 16.2033 0.9844
-15 -10 -5 5.9230 -1.7418
-15 -10 -4 6.5797 -2.0130
-15 -10 -3 8.9960 16.3284
-15 -10 -2 -8.0502 8.1419
-15 -10 -1 -6.9591 6.5168
-15 -9 -20 -3.5501 -1.5923
-15 -9 -19 -2.4814 -1.3954
-15 -9 -18 4.9864 2.2224
-15 -9 -17 12.9594 7.1042
-15 -9 -16 3.0448 -11.9711
-15 -9 -15 7.6004 4.1630
-15 -9 -14 -2.4121 -10.4941
-15 -9 -13 1.0710 -17.7690
-15 -9 -12 4.8687 9.8589
-15 -9 -11 7.0866 0.1809
-15 -9 -10 2.6913 -0.1820
-15 -9 -9 5.8748 7.3916
-15 -9 -8 -3.4153 1.7458
-15 -9 -7 -9.4423 -8.8701
-15 -9 -6 -1.0917 2.3264
-15 -9 -5 9.0725 -20.7946
-15 -9 -4 -1.8224 4.0345
-15 -9 -3 4.0339 5.9123
-15 -9 -2 15.4598 1.5612
-15 -9 -1 -3.7840 10.5465
-15 -8 -21 1.3808 13.6876
-15 -8 -20 7.0287 13.2843
-15 -8 -19 11.5041 -10.9915
-15 -8 -18 7.1329 -9.3422
-15 -8 -17 -3.7288 6.0487
-15 -8 -16 2.5439 2.6492
-15 -8 -15 -13.2979 2.8371
-15 -8 -14 3.8682 4.8997
-15 -8 -13 -1.1426 3.5401
-15 -8 -12 -4.4321 -0.7114
-15 -8 -11 10.9465 -3.2004
-15 -8 -10 6.4319 0.4918
-15 -8 -9 -4.8181 1.3329
-15 -8 -8 -0.3876 6.2519
-15 -8 -7 -6.9342 -3.7400
-15 -8 -6 -16.5908 2.6238
-15 -8 -5 4.0808 -6.1392
-15 -8 -4 -7.0057 -15.7258
-15 -8 -3 15.2656 -5.1038
-15 -8 -2 8.6785 -2.3099
-15 -8 -1 -2.2123 -1.7083
-15 -7 -21 -4.0564 -2.8728
-15 -7 -20 -10.7440 -6.6541
-15 -7 -19 -4.3961 1.0534
-15 -7 -18 -17.3376 2.1423
-15 -7 -17 -0.3400 6.8729
-15 -7 -16 11.1924 9.0908
-15 -7 -15 -5.0441 -4.1047
-15 -7 -14 -5.7716 7.2071
-15 -7 -13 4.3098 -0.4107
-15 -7 -12 -2.3898 -8.0381
-15 -7 -11 -10.1802 -1.5538
-15 -7 -10 7.1816 -5.2943
-15 -7 -9 1.1971 2.5842
-15 -7 -8 -0.5819 15.2731
-15 -7 -7 3.8981 1.5667
-15 -7 -6 -10.4225 0.0390
-15 -7 -5 -9.0943 4.7991
-15 -7 -4 1.3043 -20.2450
-15 -7 -3 -0.7371 -1.9487
-15 -7 -2 6.9116 -7.3357
-15 -7 -1 5.8745 3.1212
-15 -6 -22 -2.7929 3.3432
-15 -6 -21 -6.1756 -2.3915
-15 -6 -20 -2.8969 11.2421
-15 -6 -19 -1.6509 5.8264
-15 -6 -18 2.8961 -9.4299
-15 -6 -17 -0.7524 -6.2974
-15 -6 -16 -4.1469 -7.9702
-15 -6 -15 5.3519 -8.0104
-15 -6 -14 -7.8184 3.4231
-15 -6 -13 -1.4043 -0.4112
-15 -6 -12 -4.3083 -10.9647
-15 -6 -11 -7.9810 6.1148
-15 -6 -10 9.7769 1.7483
-15 -6 -9 7.0147 -12.9112
-15 -6 -8 0.4457 7.9873
-15 -6 -7 4.8869 22.3790
-15 -6 -6 -10.7749 -7.8428
-15 -6 -5 -6.6061 3.0165
-15 -6 -4 1.4424 5.1665
-15 -6 -3 -16.3483 -3.6646
-15 -6 -2 4.5658 2.0009
-15 -6 -1 -2.0216 -2.0298
-15 -5 -22 10.1160 4.9088
-15 -5 -21 5.5469 -4.7905
-15 -5 -20 8.3173 -4.7774
-15 -5 -19 5.4890 -1.5998
-15 -5 -18 -3.2367 7.0967
-15 -5 -17 -11.4805 -4.5327
-15 -5 -16 3.7837 -3.8384
-15 -5 -15 3.2033 6.6807
-15 -5 -14 -0.3867 -3.8228
-15 -5 -13 3.0850 10.5835
-15 -5 -12 -0.7290 -0.9809
-15 -5 -11 -5.2754 -8.9729
-15 -5 -10 9.2620 2.1921
-15 -5 -9 11.4335 -1.9064
-15 -5 -8 -7.4309 4.0950
-15 -5 -7 3.3419 6.5603
-15 -5 -6 7.1021 -2.4547
-15 -5 -5 -15.5535 12.7963
-15 -5 -4 3.5152 7.3370
-15 -5 -3 4.2778 -1.8694
-15 -5 -2 -10.8914 9.4163
-15 -5 -1 -3.3605 -7.0805
-15 -4 -22 -6.1309 -18.6356
-15 -4 -21 7.1758 5.3917
-15 -4 -20 8.6439 2.3351
-15 -4 -19 2.5927 3.7421
-15 -4 -18 -1.6218 9.6773
-15 -4 -17 7.1070 16.0605
-15 -4 -16 -1.6748 -2.2343
-15 -4 -15 3.1744 -3.6252
-15 -4 -14 8.9581 8.2839
-15 -4 -13 -11.7509 8.4158
-15 -4 -12 6.6574 -5.8526
-15 -4 -11 3.4315 -9.0080
-15 -4 -10 -6.7308 2.5095
-15 -4 -9 8.3179 -1.2489
-15 -4 -8 2.7541 -3.2599
-15 -4 -7 3.5178 4.8632
-15 -4 -6 6.5731 0.2771
-15 -4 -5 2.9581 -11.8014
-15 -4 -4 12.1000 7.9889
-15 -4 -3 2.1281 -0.7945
-15 -4 -2 -7.7750 2.7370
-15 -4 -1 6.6990 9.1378
-15 -3 -23 -10.9238 -3.5072
-15 -3 -22 -5.8626 -7.5769
-15 -3 -21 -10.6891 4.5934
-15 -3 -20 8.5466 -2.2943
-15 -3 -19 12.7051 -2.7513
-15 -3 -18 -6.1648 1.4481
-15 -3 -17 1.1230 1.2566
-15 -3 -16 3.3774 -5.9533
-15 -3 -15 -4.8832 5.4434
-15 -3 -14 -1.9053 -0.1982
-15 -3 -13 0.1840 -13.6660
-15 -3 -12 -6.3405 11.8086
-15 -3 -11 -5.6223 -7.1081
-15 -3 -10 0.7548 -4.6428
-15 -3 -9 6.4996 2.0786
-15 -3 -8 4.9079 -9.7939
-15 -3 -7 -8.2718 -4.5141
-15 -3 -6 0.0814 -3.3995
-15 -3 -5 8.2548 -10.9598
-15 -3 -4 2.6809 -0.5828
-15 -3 -3 12.7950 1.2752
-15 -3 -2 -2.1833 4.0877
-15 -3 -1 -7.0725 0.0885
-15 -2 -23 -2.0656 7.0883
-15 -2 -22 -5.6527 4.7831
-15 -2 -21 1.0308 -16.4693
-15 -2 -20 -0.6704 -1.5569
-15 -2 -19 -6.8569 -14.1435
-15 -2 -18 -0.0047 -7.2589
-15 -2 -17 5.0792 3.4220
-15 -2 -16 -3.1698 -2.0190
-15 -2 -15 -12.4967 -9.7026
-15 -2 -14 6.4574 4.5982
-15 -2 -13 3.5792 0.6646
-15 -2 -12 -13.0350 3.6383
-15 -2 -11 9.9886 -1.9767
-15 -2 -10 -3.5538 -9.9286
-15 -2 -9 -8.9503 2.2537
-15 -2 -8 -3.0476 7.0637
-15 -2 -7 -11.2031 -2.3068
-15 -2 -6 -3.8329 -1.6698
-15 -2 -5 3.0342 -2.8607
-15 -2 -4 -1.1673 -7.4372
-15 -2 -3 2.1655 7.2463
-15 -2 -2 -3.1056 1.9648
-15 -2 -1 -5.0225 6.5228
-15 -1 -23 6.6529 1.4530
-15 -1 -22 -6.0578 -1.9483
-15 -1 -21 -2.8891 -2.2742
-15 -1 -20 -4.8286 -2.8369
-15 -1 -19 -0.8100 2.7605
-15 -1 -18 0.5758 3.2258
-15 -1 -17 -1.0804 0.3274
-15 -1 -16 8.4131 -0.3105
-15 -1 -15 -4.3477 5.1774
-15 -1 -14 2.5548 5.7384
-15 -1 -13 10.1469 -6.2379
-15 -1 -12 -3.4373 -7.0172
-15 -1 -11 -4.0752 16.3321
-15 -1 -10 -1.1321 -4.3501
-15 -1 -9 -1.4478 12.2131
-15 -1 -8 3.3312 14.0965
-15 -1 -7 0.4356 -2.6260
-15 -1 -6 -11.9281 -3.8478
-15 -1 -5 -1.4753 1.7555
-15 -1 -4 2.4348 -1.5416
-15 -1 -3 -3.1210 3.5733
-15 -1 -2 8.1870 1.8726
-15 -1 -1 2.3175 3.4354
-14 -21 -1 -19.2166 7.0717
-14 -20 -7 5.1352 -6.4296
-14 -20 -6 -1.7086 -5.2653
-14 -20 -5 3.6824 -6.2070
-14 -20 -4 2.8088 -4.1353
-14 -20 -3 -4.6918 7.8931
-14 -20 -2 -5.0662 11.3091
-14 -20 -1 1.0556 -8.8428
-14 -19 -10 -2.2041 -2.4578
-14 -19 -9 0.6809 -5.1284
-14 -19 -8 -6.7992 -0.7466
-14 -19 -7 -3.6465 -4.4634
-14 -19 -6 -7.2200 -6.9045
-14 -19 -5 -6.0459 -5.2178
-14 -19 -4 4.9382 0.7875
-14 -19 -3 0.5181 -11.6687
-14 -19 -2 -1.4392 2.8794
-14 -19 -1 5.6865 -7.3253
-14 -18 -12 0.5127 0.8540
-14 -18 -11 0.9841 -6.8842
-14 -18 -10 -1.1422 1.8947
-14 -18 -9 -1.3842 3.7778
-14 -18 -8 3.4253 -3.9885
-14 -18 -7 0.2633 10.7707
-14 -18 -6 -0.0789 0.8295
-14 -18 -5 -9.4643 0.9208
-14 -18 -4 5.3977 3.0505
-14 -18 -3 7.9054 -11.9433
-14 -18 -2 3.5652 -2.2734
-14 -18 -1 4.0327 13.4282
-14 -17 -14 6.4367 0.5649
-14 -17 -13 -3.8886 1.3351
-14 -17 -12 -4.9880 5.6340
-14 -17 -11 5.3225 -2.3792
-14 -17 -10 -2.5012 -2.5456
-14 -17 -9 8.7316 3.3510
-14 -17 -8 7.9643 2.5479
-14 -17 -7 -2.3903 8.3531
-14 -17 -6 14.0053 10.7581
-14 -17 -5 -5.1872 2.1057
-14 -17 -4 -14.1297 -3.9703
-14 -17 -3 5.0322 0.0549
-14 -17 -2 2.3161 -2.3960
-14 -17 -1 11.8033 15.2439
-14 -16 -15 1.1627 2.3465
-14 -16 -14 3.7618 4.3134
-14 -16 -13 0.1301 1.4568
-14 -16 -12 -2.5189 8.0738
-14 -16 -11 -2.3493 2.0130
-14 -16 -10 -4.7243 -12.3505
-14 -16 -9 5.3507 1.7310
-14 -16 -8 7.6042 -6.8875
-14 -16 -7 1.4261 -4.9021
-14 -16 -6 -7.0829 16.5540
-14 -16 -5 1.8737 -1.0722
-14 -16 -4 -15.5739 3.6081
-14 -16 -3 -2.4653 -0.9152
-14 -16 -2 -0.8554 -20.0588
-14 -16 -1 3.1660 -3.1993
-14 -15 -16 3.3654 1.5793
-14 -15 -15 -2.2452 3.2520
-14 -15 -14 3.3040 -6.7752
-14 -15 -13 8.0998 1.8167
-14 -15 -12 -5.0756 4.1628
-14 -15 -11 -7.0859 -3.1555
-14 -15 -10 -6.1492 -5.6722
-14 -15 -9 -13.2072 -5.1134
-14 -15 -8 9.3463 -5.6116
-14 -15 -7 3.3137 -4.3968
-14 -15 -6 -1.1208 2.5208
-14 -15 -5 10.5915 3.1792
-14 -15 -4 -11.5153 -3.2848
-14 -15 -3 -12.5568 1.6575
-14 -15 -2 -3.8567 -3.3241
-14 -15 -1 -10.2314 -12.6458
-14 -14 -17 7.8377 1.7528
-14 -14 -16 2.5852 -0.6337
-14 -14 -15 -3.4616 -11.5500
-14 -14 -14 0.8950 1.0825
-14 -14 -13 -2.6003 -0.1658
-14 -14 -12 5.0600 -2.9396
-14 -14 -11 -1.8943 12.1981
-14 -14 -10 -6.9473 7.8295
-14 -14 -9 0.8700 -9.8811
-14 -14 -8 0.4971 -1.1903
-14 -14 -7 -3.4277 -13.4659
-14 -14 -6 7.6951 -2.2242
-14 -14 -5 7.6753 11.9208
-14 -14 -4 16.1707 2.4733
-14 -14 -3 -9.1287 12.7628
-14 -14 -2 2.2701 3.7599
-14 -14 -1 -4.3014 -12.7079
-14 -13 -18 3.5265 -0.1465
-14 -13 -17 -6.1204 1.4150
-14 -13 -16 -0.6023 -7.6880
-14 -13 -15 0.9404 2.2623
-14 -13 -14 -7.9654 9.6932
-14 -13 -13 6.3713 -5.4641
-14 -13 -12 11.3971 2.4666
-14 -13 -11 4.5854 -1.3521
-14 -13 -10 4.1014 8.6742
-14 -13 -9 -11.3655 9.9396
-14 -13 -8 -19.1498 -0.0639
-14 -13 -7 13.9827 -3.0448
-14 -13 -6 3.9007 -10.4199
-14 -13 -5 0.4782 -4.6644
-14 -13 -4 11.8945 9.3415
-14 -13 -3 2.5758 0.4747
-14 -13 -2 -1.7495 10.5646
-14 -13 -1 -10.6522 5.9033
-14 -12 -19 1.4398 -3.1487
-14 -12 -18 -4.6659 4.0689
-14 -12 -17 -6.5019 -1.1572
-14 -12 -16 7.1631 10.2656
-14 -12 -15 -2.5385 3.0819
-14 -12 -14 3.9117 -9.5872
-14 -12 -13 0.0991 -3.8521
-14 -12 -12 -7.9268 -4.9499
-14 -12 -11 11.7184 4.7094
-14 -12 -10 9.7296 14.7863
-14 -12 -9 -1.4062 5.4162
-14 -12 -8 -14.2941 1.8622
-14 -12 -7 -7.0407 6.0250
-14 -12 -6 -1.7129 -17.7022
-14 -12 -5 -5.0169 -0.3139
-14 -12 -4 -4.4154 2.2105
-14 -12 -3 15.3636 -7.0652
-14 -12 -2 -12.3824 15.7086
-14 -12 -1 9.0201 12.4691
-14 -11 -20 2.9202 1.2416
-14 -11 -19 5.7049 -0.5910
-14 -11 -18 1.0114 0.2247
-14 -11 -17 13.7454 0.8344
-14 -11 -16 -9.1744 -1.2998
-14 -11 -15 -4.2086 -5.5699
-14 -11 -14 -2.1303 3.5780
-14 -11 -13 -3.3631 -3.4666
-14 -11 -12 6.4319 -9.9444
-14 -11 -11 8.8573 0.7825
-14 -11 -10 3.7810 -3.6959
-14 -11 -9 8.1477 3.2046
-14 -11 -8 -3.6685 5.9981
-14 -11 -7 -8.8784 7.1471
-14 -11 -6 1.8821 -2.8088
-14 -11 -5 -12.0648 -5.2285
-14 -11 -4 8.5000 2.6323
-14 -11 -3 6.7258 -6.9590
-14 -11 -2 3.4311 -16.5306
-14 -11 -1 25.3779 12.0888
-14 -10 -21 5.7860 -10.3406
-14 -10 -20 1.9944 -2.5632
-14 -10 -19 -7.0289 -10.3545
-14 -10 -18 1.6559 -0.0692
-14 -10 -17 8.1217 9.0526
-14 -10 -16 -10.4154 -7.3611
-14 -10 -15 -1.5232 11.2158
-14 -10 -14 -0.3827 -2.5117
-14 -10 -13 2.9858 -12.5972
-14 -10 -12 -7.6247 -1.1956
-14 -10 -11 -0.6415 -6.9770
-14 -10 -10 6.8749 -8.9293
-14 -10 -9 4.2280 4.1753
-14 -10 -8 2.4972 -3.4923
-14 -10 -7 2.2926 5.2028
-14 -10 -6 9.6507 8.8331
-14 -10 -5 -4.4314 -6.2925
-14 -10 -4 -8.9507 -1.0604
-14 -10 -3 -3.9177 -23.1074
-14 -10 -2 10.3923 -12.5122
-14 -10 -1 4.2249 9.7575
-14 -9 -21 -9.6302 -5.2207
-14 -9 -20 -11.4536 4.9902
-14 -9 -19 6.7510 -1.2231
-14 -9 -18 -2.6271 13.5500
-14 -9 -17 2.9309 -5.7624
-14 -9 -16 7.2000 -3.7537
-14 -9 -15 -14.6797 11.4035
-14 -9 -14 3.5926 -0.1572
-14 -9 -13 -5.4444 -7.5687
-14 -9 -12 -8.2751 5.2102
-14 -9 -11 2.5346 3.2867
-14 -9 -10 -9.3002 -6.3536
-14 -9 -9 -5.8437 -2.0939
-14 -9 -8 20.9114 -3.2248
-14 -9 -7 0.2906 -4.3469
-14 -9 -6 -4.7087 7.0545
-14 -9 -5 -6.7016 9.2247
-14 -9 -4 -15.0861 2.3533
-14 -9 -3 -0.5205 -2.9473
-14 -9 -2 -12.5864 -8.8105
-14 -9 -1 4.2511 -7.9449
-14 -8 -22 -5.8025 4.4428
-14 -8 -21 -0.6460 3.8379
-14 -8 -20 10.4600 1.2259
-14 -8 -19 5.4053 -2.3631
-14 -8 -18 -8.6311 -10.3099
-14 -8 -17 3.3884 9.0227
-14 -8 -16 -0.4421 2.9763
-14 -8 -15 -6.5863 -9.5268
-14 -8 -14 7.1431 9.8968
-14 -8 -13 -5.8833 1.2291
-14 -8 -12 -2.3409 8.7683
-14 -8 -11 6.4583 8.7168
-14 -8 -10 -5.3394 -9.3074
-14 -8 -9 -14.3825 -0.0647
-14 -8 -8 9.6390 2.8516
-14 -8 -7 7.9540 -10.1783
-14 -8 -6 -8.0693 15.4472
-14 -8 -5 3.5351 8.6971
-14 -8 -4 1.0648 8.9595
-14 -8 -3 -8.3667 10.4591
-14 -8 -2 -13.0015 -11.3579
-14 -8 -1 -4.1313 -2.5442
-14 -7 -22 4.3207 0.3378
-14 -7 -21 -2.3902 -3.0840
-14 -7 -20 -0.1070 -10.1572
-14 -7 -19 4.6206 -0.6835
-14 -7 -18 4.1291 0.7224
-14 -7 -17 -9.2892 14.8207
-14 -7 -16 4.0839 -7.2456
-14 -7 -15 6.3460 1.2377
-14 -7 -14 -2.4840 2.2028
-14 -7 -13 16.6481 -1.8279
-14 -7 -12 -0.0761 1.6321
-14 -7 -11 -2.9822 5.5079
-14 -7 -10 6.5691 -6.9799
-14 -7 -9 -6.3144 -2.9015
-14 -7 -8 -5.4066 7.1918
-14 -7 -7 6.2111 -8.6209
-14 -7 -6 6.8962 -3.9019
-14 -7 -5 21.8426 6.4592
-14 -7 -4 -4.9681 -0.4990
-14 -7 -3 -3.3522 2.8584
-14 -7 -2 2.3385 10.4850
-14 -7 -1 -11.3618 -1.3738
-14 -6 -23 -0.1045 7.9051
-14 -6 -22 -4.6697 1.9875
-14 -6 -21 0.7888 -11.2661
-14 -6 -20 -9.3901 -0.9699
-14 -6 -19 9.8462 8.1123
-14 -6 -18 12.8624 3.2156
-14 -6 -17 1.8832 -4.2436
-14 -6 -16 -2.9840 5.3323
-14 -6 -15 2.3218 -6.3727
-14 -6 -14 1.9523 -9.0142
-14 -6 -13 1.3646 6.4971
-14 -6 -12 -5.6511 -15.9152
-14 -6 -11 -1.0243 2.6458
-14 -6 -10 2.8567 14.8226
-14 -6 -9 -1.7571 -5.3867
-14 -6 -8 -4.4944 -3.2390
-14 -6 -7 7.2584 -6.2676
-14 -6 -6 -1.6082 -17.5552
-14 -6 -5 -3.1181 -4.1539
-14 -6 -4 12.6580 -3.1078
-14 -6 -3 6.2770 16.6535
-14 -6 -2 7.6125 1.5285
-14 -6 -1 -4.0416 -5.6600
-14 -5 -23 -8.0089 2.7737
-14 -5 -22 -5.0370 4.4234
-14 -5 -21 -1.4646 -2.0897
-14 -5 -20 -5.1015 -5.0795
-14 -5 -19 6.9625 -8.6814
-14 -5 -18 2.6967 -6.5448
-14 -5 -17 -5.6961 -10.1015
-14 -5 -16 -9.1764 10.0501
-14 -5 -15 6.1858 0.9206
-14 -5 -14 -11.7462 -4.5714
-14 -5 -13 -13.0298 3.3821
-14 -5 -12 16.4149 7.0180
-14 -5 -11 -5.7727 -3.0990
-14 -5 -10 4.8047 0.2594
-14 -5 -9 7.3673 -0.4064
-14 -5 -8 -22.3241 -1.9398
-14 -5 -7 -12.9972 10.1514
-14 -5 -6 2.7613 -7.4524
-14 -5 -5 0.9639 -5.3103
-14 -5 -4 15.1390 -3.9461
-14 -5 -3 -0.6930 0.2309
-14 -5 -2 1.5380 7.3818
-14 -5 -1 -6.4531 7.0053
-14 -4 -23 -4.3737 -1.6842
-14 -4 -22 1.3766 8.3363
-14 -4 -21 -8.6817 -6.6991
-14 -4 -20 -7.7878 -4.5971
-14 -4 -19 -16.9167 1.4022
-14 -4 -18 -0.1011 -3.2323
-14 -4 -17 5.9875 -2.1762
-14 -4 -16 -0.1485 3.9808
-14 -4 -15 0.2883 8.9670
-14 -4 -14 6.1630 -6.7567
-14 -4 -13 -2.4167 2.1463
-14 -4 -12 6.3344 0.8450
-14 -4 -11 -5.8100 -22.0039
-14 -4 -10 -7.6631 17.3992
-14 -4 -9 11.1243 14.2733
-14 -4 -8 2.8480 1.7570
-14 -4 -7 -16.6273 9.2974
-14 -4 -6 0.5996 -11.6158
-14 -4 -5 -0.9358 -13.1525
-14 -4 -4 -1.8264 10.0713
-14 -4 -3 2.9971 -2.6548
-14 -4 -2 -2.2893 0.0446
-14 -4 -1 4.5070 -5.5544
-14 -3 -24 -0.1397 -25.8338
-14 -3 -23 4.2384 16.0596
-14 -3 -22 -3.2841 14.5991
-14 -3 -21 4.3020 7.1991
-14 -3 -20 -3.7252 7.2853
-14 -3 -19 -2.0750 8.2706
-14 -3 -18 1.1130 -0.1367
-14 -3 -17 2.4800 -0.2545
-14 -3 -16 6.6626 -11.0108
-14 -3 -15 0.5712 6.4330
-14 -3 -14 4.2991 -1.8286
-14 -3 -13 -13.7799 -1.0123
-14 -3 -12 0.7398 6.2326
-14 -3 -11 14.7943 -4.9598
-14 -3 -10 -2.0972 -0.1829
-14 -3 -9 17.2400 5.5392
-14 -3 -8 -4.6808 -3.4787
-14 -3 -7 -15.7674 -2.1507
-14 -3 -6 2.5681 9.7298
-14 -3 -5 -2.9691 -15.5023
-14 -3 -4 -5.8673 2.3494
-14 -3 -3 9.0501 -0.0820
-14 -3 -2 -15.3581 -7.3625
-14 -3 -1 -7.1326 -8.3624
-14 -2 -24 11.7011 1.6955
-14 -2 -23 -1.0248 4.5911
-14 -2 -22 18.3432 -6.4611
-14 -2 -21 9.3131 7.7641
-14 -2 -20 -4.4343 7.4525
-14 -2 -19 10.0811 6.1320
-14 -2 -18 -7.5383 -7.9967
-14 -2 -17 -6.9061 2.6125
-14 -2 -16 1.1940 -0.0948
-14 -2 -15 0.1402 1.6029
-14 -2 -14 0.2656 7.5617
-14 -2 -13 -3.0969 -3.1763
-14 -2 -12 -0.8982 2.0796
-14 -2 -11 10.0365 -7.4885
-14 -2 -10 -5.1809 -13.5768
-14 -2 -9 -2.4975 14.7506
-14 -2 -8 6.5045 -0.7518
-14 -2 -7 -3.2528 5.3016
-14 -2 -6 -3.8383 3.7422
-14 -2 -5 7.6499 -9.0215
-14 -2 -4 -2.8667 5.9344
-14 -2 -3 0.8686 14.4029
-14 -2 -2 -4.3973 -6.2532
-14 -2 -1 -15.5837 3.2404
-14 -1 -24 0.5402 2.4258
-14 -1 -23 0.8261 -27.2888
-14 -1 -22 4.4368 0.3344
-14 -1 -21 -0.0008 -12.4150
-14 -1 -20 2.9208 0.3522
-14 -1 -19 3.4829 -1.1297
-14 -1 -18 -6.7172 -5.4327
-14 -1 -17 -8.4990 2.8107
-14 -1 -16 7.4546 6.0677
-14 -1 -15 2.0182 -8.5252
-14 -1 -14 -3.8235 2.8194
-14 -1 -13 4.4972 -2.5812
-14 -1 -12 -9.8910 -2.3147
-14 -1 -11 -3.0476 -0.2642
-14 -1 -10 0.8686 -3.9384
-14 -1 -9 -0.6787 8.3400
-14 -1 -8 13.3268 5.2480
-14 -1 -7 -8.9529 -1.5348
-14 -1 -6 4.2296 -4.2363
-14 -1 -5 12.1835 8.9490
-14 -1 -4 3.7432 -0.5868
-14 -1 -3 0.2528 19.2756
-14 -1 -2 7.2910 5.1630
-14 -1 -1 -7.9856 1.0159
-13 -21 -6 -11.0080 8.6472
-13 -21 -5 5.1941 3.0244
-13 -21 -4 -0.9538 -8.5306
-13 -21 -3 2.2854 -6.8702
-13 -21 -2 4.5790 -1.6651
-13 -21 -1 -1.8018 -4.4788
-13 -20 -9 -1.8836 0.8793
-13 -20 -8 2.0094 5.1375
-13 -20 -7 8.5963 -1.2245
-13 -20 -6 2.7536 2.3928
-13 -20 -5 -2.0365 6.9699
-13 -20 -4 -6.6571 -11.2417
-13 -20 -3 -15.6870 -2.5279
-13 -20 -2 6.0747 -1.1268
-13 -20 -1 12.6881 -2.5838
-13 -19 -11 -2.7892 -2.8106
-13 -19 -10 6.4707 1.0188
-13 -19 -9 2.2519 -6.4754
-13 -19 -8 -0.2428 0.6867
-13 -19 -7 6.1692 -1.3193
-13 -19 -6 0.4023 -6.4673
-13 -19 -5 -6.9228 14.9897
-13 -19 -4 -2.9510 11.6593
-13 -19 -3 -13.3540 -5.1965
-13 -19 -2 8.3941 -4.9623
-13 -19 -1 5.4148 -13.6877
-13 -18 -13 2.6865 3.4838
-13 -18 -12 4.8830 0.9405
-13 -18 -11 -3.0558 -0.8953
-13 -18 -10 -8.4615 5.0363
-13 -18 -9 5.1413 -6.5270
-13 -18 -8 -5.9325 -1.5700
-13 -18 -7 1.2031 3.7411
-13 -18 -6 8.6865 1.0813
-13 -18 -5 -0.1810 6.6172
-13 -18 -4 5.2359 7.6554
-13 -18 -3 -4.2742 -6.5149
-13 -18 -2 -15.7938 -0.8695
-13 -18 -1 0.7014 -6.8266
-13 -17 -15 -5.1806 1.8896
-13 -17 -14 -4.9348 -7.1359
-13 -17 -13 0.2567 -6.4904
-13 -17 -12 4.6208 5.5381
-13 -17 -11 -3.4675 2.4602
-13 -17 -10 -4.5273 0.0394
-13 -17 -9 -0.4757 4.1787
-13 -17 -8 -2.0914 -10.4109
-13 -17 -7 3.9894 2.8632
-13 -17 -6 6.0256 -1.9150
-13 -17 -5 1.5094 -13.4523
-13 -17 -4 1.8511 8.7560
-13 -17 -3 9.1733 7.5679
-13 -17 -2 -9.3400 2.2940
-13 -17 -1 2.9476 5.5411
-13 -16 -16 -3.8948 1.0826
-13 -16 -15 -8.2226 2.3580
-13 -16 -14 0.8443 -3.9482
-13 -16 -13 -3.1412 -6.6472
-13 -16 -12 -1.6932 -6.0020
-13 -16 -11 14.1032 5.9256
-13 -16 -10 -0.6948 -0.1946
-13 -16 -9 -8.1161 -3.0595
-13 -16 -8 5.5587 -1.8712
-13 -16 -7 -10.0826 0.8048
-13 -16 -6 1.0347 -6.6119
-13 -16 -5 6.3341 -10.6977
-13 -16 -4 -2.9293 -3.1186
-13 -16 -3 16.0019 7.2179
-13 -16 -2 5.5101 -1.1060
-13 -16 -1 -10.2134 9.1759
-13 -15 -17 5.1725 4.5195
-13 -15 -16 -0.5763 2.8480
-13 -15 -15 3.9683 1.0157
-13 -15 -14 -0.8130 6.6380
-13 -15 -13 2.7540 -6.2599
-13 -15 -12 -2.1826 -6.3849
-13 -15 -11 3.6335 -1.6918
-13 -15 -10 8.0715 -2.1422
-13 -15 -9 0.3028 14.2148
-13 -15 -8 -7.3980 10.1549
-13 -15 -7 -5.8678 -14.6665
-13 -15 -6 -12.0951 9.6544
-13 -15 -5 -3.3406 0.1376
-13 -15 -4 1.2185 -16.6452
-13 -15 -3 0.0991 0.7198
-13 -15 -2 7.2570 -1.1826
-13 -15 -1 -11.9653 12.1202
-13 -14 -18 6.6385 6.4607
-13 -14 -17 1.8206 3.8720
-13 -14 -16 4.1655 -0.7254
-13 -14 -15 0.9800 1.7442
-13 -14 -14 -4.6372 7.0800
-13 -14 -13 -3.4995 3.6864
-13 -14 -12 -3.6350 -1.1102
-13 -14 -11 -0.2872 -4.1893
-13 -14 -10 12.2741 5.6701
-13 -14 -9 0.4569 4.2926
-13 -14 -8 2.6892 13.7606
-13 -14 -7 -0.3006 6.4949
-13 -14 -6 -15.3145 2.5127
-13 -14 -5 2.1943 4.6626
-13 -14 -4 -7.6310 -7.9044
-13 -14 -3 -10.4583 -2.8435
-13 -14 -2 24.5160 8.8085
-13 -14 -1 5.2920 -5.3534
-13 -13 -19 -2.6916 0.8194
-13 -13 -18 -0.0971 0.7532
-13 -13 -17 -4.8446 -6.7181
-13 -13 -16 1.1155 7.6502
-13 -13 -15 -8.4045 3.6233
-13 -13 -14 1.0943 -5.6940
-13 -13 -13 -4.8316 5.8838
-13 -13 -12 0.0875 -1.2793
-13 -13 -11 -4.6221 -9.0663
-13 -13 -10 5.3383 -4.0016
-13 -13 -9 6.0200 -7.7125
-13 -13 -8 8.4986 3.0861
-13 -13 -7 5.2565 4.8984
-13 -13 -6 1.8237 1.6080
-13 -13 -5 -1.2393 13.5076
-13 -13 -4 8.3534 -8.5480
-13 -13 -3 -4.2163 -10.8533
-13 -13 -2 -1.9508 -10.0502
-13 -13 -1 16.0803 -22.9497
-13 -12 -20 -0.5864 -2.6924
-13 -12 -19 -3.7312 0.3623
-13 -12 -18 1.3809 -10.5558
-13 -12 -17 2.8744 -1.3945
-13 -12 -16 -9.3720 6.7914
-13 -12 -15 7.5650 -8.3045
-13 -12 -14 -4.1768 -5.8617
-13 -12 -13 -8.1196 -2.7130
-13 -12 -12 7.5075 -0.6061
-13 -12 -11 -3.6814 -3.3098
-13 -12 -10 -17.5508 -9.9941
-13 -12 -9 7.0552 -7.9316
-13 -12 -8 3.1088 -5.4506
-13 -12 -7 14.2746 -5.3448
-13 -12 -6 9.6819 -8.2288
-13 -12 -5 -7.2336 3.3259
-13 -12 -4 -8.8992 12.4455
-13 -12 -3 -18.2008 -5.7648
-13 -12 -2 -4.6778 -7.8163
-13 -12 -1 18.3970 -3.4900
-13 -11 -21 -0.8909 5.3316
-13 -11 -20 2.9224 -0.7629
-13 -11 -19 0.7651 -11.4330
-13 -11 -18 10.3238 6.5695
-13 -11 -17 -2.8795 0.6411
-13 -11 -16 3.2383 -3.7822
-13 -11 -15 11.9618 7.8654
-13 -11 -14 -10.8377 -5.0422
-13 -11 -13 8.8187 -0.5355
-13 -11 -12 1.6712 9.3377
-13 -11 -11 1.1657 2.9830
-13 -11 -10 -10.2912 13.6269
-13 -11 -9 -3.5911 -3.9231
-13 -11 -8 -15.3406 -31.5153
-13 -11 -7 2.1786 4.9489
-13 -11 -6 5.4242 14.0980
-13 -11 -5 3.9791 6.1315
-13 -11 -4 -9.9951 13.5087
-13 -11 -3 -0.4333 1.5676
-13 -11 -2 -10.4014 1.3416
-13 -11 -1 -9.5375 -10.1918
-13 -10 -21 0.3130 -0.6474
-13 -10 -20 1.1774 -0.0953
-13 -10 -19 3.2551 2.4986
-13 -10 -18 -1.1922 6.6430
-13 -10 -17 10.6766 -6.5348
-13 -10 -16 -0.8536 10.3642
-13 -10 -15 -11.0877 1.6583
-13 -10 -14 10.4932 -1.3048
-13 -10 -13 4.7342 8.9035
-13 -10 -12 9.4453 -0.5817
-13 -10 -11 4.0786 8.3980
-13 -10 -10 -14.5689 19.8976
-13 -10 -9 -8.5447 5.8543
-13 -10 -8 -2.7307 -8.3542
-13 -10 -7 -8.3773 3.2444
-13 -10 -6 26.2342 -0.2755
-13 -10 -5 5.1704 -5.2033
-13 -10 -4 -5.4993 1.6696
-13 -10 -3 4.2481 15.3430
-13 -10 -2 -11.6604 -4.0918
-13 -10 -1 -12.5246 4.0428
-13 -9 -22 2.4341 -0.1978
-13 -9 -21 -2.5582 2.6872
-13 -9 -20 -9.6513 2.9357
-13 -9 -19 -1.5907 -1.6647
-13 -9 -18 -3.5845 -4.1001
-13 -9 -17 -0.2858 13.9817
-13 -9 -16 -9.5239 -0.8807
-13 -9 -15 0.2258 -4.8546
-13 -9 -14 -0.7381 -2.9829
-13 -9 -13 -3.7254 -13.7338
-13 -9 -12 12.9515 3.6694
-13 -9 -11 -1.2958 8.3408
-13 -9 -10 3.2095 -0.1220
-13 -9 -9 -2.2727 13.2789
-13 -9 -8 1.5592 -4.9246
-13 -9 -7 -11.1817 -14.2730
-13 -9 -6 10.8092 -2.7045
-13 -9 -5 1.0325 -13.6184
-13 -9 -4 3.5904 9.1799
-13 -9 -3 5.2988 8.7153
-13 -9 -2 13.3389 -2.1884
-13 -9 -1 -6.4918 17.4168
-13 -8 -23 -3.5818 -7.5902
-13 -8 -22 -8.2573 4.7711
-13 -8 -21 -2.3983 -5.0981
-13 -8 -20 -2.6166 4.9340
-13 -8 -19 1.4860 -3.2596
-13 -8 -18 1.5044 -6.6582
-13 -8 -17 -3.3382 2.1535
-13 -8 -16 2.8799 -7.6937
-13 -8 -15 -13.4913 -5.1992
-13 -8 -14 -9.1419 -6.4467
-13 -8 -13 8.4516 -3.6534
-13 -8 -12 -6.8009 -7.0761
-13 -8 -11 12.4319 -2.8527
-13 -8 -10 10.6253 1.3590
-13 -8 -9 -9.1275 4.5931
-13 -8 -8 1.7033 -3.7491
-13 -8 -7 -9.3233 -5.7286
-13 -8 -6 -12.9052 6.6160
-13 -8 -5 10.4812 -2.3464
-13 -8 -4 1.7014 -4.1377
-13 -8 -3 16.5293 -8.2819
-13 -8 -2 7.6223 4.4639
-13 -8 -1 -4.2736 9.7647
-13 -7 -23 -1.5330 0.7515
-13 -7 -22 0.2516 6.9364
-13 -7 -21 8.8484 -3.2557
-13 -7 -20 1.9538 -10.1104
-13 -7 -19 0.6364 -2.3751
-13 -7 -18 -4.8485 2.4601
-13 -7 -17 -3.5724 -3.9460
-13 -7 -16 12.0244 6.7873
-13 -7 -15 -2.4288 2.3174
-13 -7 -14 -5.1483 10.2589
-13 -7 -13 11.7029 -6.3565
-13 -7 -12 2.5802 -15.5437
-13 -7 -11 1.9306 10.4732
-13 -7 -10 1.3054 -9.7620
-13 -7 -9 1.6293 -4.4216
-13 -7 -8 -4.0587 27.6786
-13 -7 -7 6.3034 -0.1371
-13 -7 -6 -6.6901 -5.5810
-13 -7 -5 -0.6069 -7.4136
-13 -7 -4 -9.8450 -14.2233
-13 -7 -3 7.1344 5.1631
-13 -7 -2 4.9074 -5.0615
-13 -7 -1 3.9897 -4.7757
-13 -6 -24 17.6161 3.4262
-13 -6 -23 3.8483 4.6118
-13 -6 -22 0.8729 -4.2115
-13 -6 -21 0.3257 8.0017
-13 -6 -20 2.1699 3.8651
-13 -6 -19 -1.3442 16.0644
-13 -6 -18 4.5513 -0.1066
-13 -6 -17 6.2965 0.1362
-13 -6 -16 -0.0273 5.8041
-13 -6 -15 11.0185 -7.1145
-13 -6 -14 -3.4848 2.3035
-13 -6 -13 -3.9465 2.7331
-13 -6 -12 -10.7294 -6.1518
-13 -6 -11 -8.8091 4.9586
-13 -6 -10 22.0771 6.9406
-13 -6 -9 -1.8002 -10.0871
-13 -6 -8 -3.7102 3.2636
-13 -6 -7 8.6417 5.9425
-13 -6 -6 -19.2073 -5.6866
-13 -6 -5 -3.4832 -0.9277
-13 -6 -4 3.2566 -1.6488
-13 -6 -3 -12.7244 -0.3041
-13 -6 -2 0.9302 -13.8191
-13 -6 -1 -0.8759 -2.9591
-13 -5 -24 -9.2060 4.2189
-13 -5 -23 15.6249 -8.4089
-13 -5 -22 2.3544 6.5926
-13 -5 -21 3.2044 7.9017
-13 -5 -20 6.7937 -1.1922
-13 -5 -19 -0.9607 -0.3650
-13 -5 -18 -3.2937 7.4012
-13 -5 -17 -11.0694 -4.0196
-13 -5 -16 -10.8119 -10.2229
-13 -5 -15 3.6875 7.4171
-13 -5 -14 -10.3052 0.8178
-13 -5 -13 -3.9276 14.3382
-13 -5 -12 5.4176 -4.1435
-13 -5 -11 -9.5369 -10.9025
-13 -5 -10 1.6850 4.5245
-13 -5 -9 1.2780 -4.2285
-13 -5 -8 -6.4807 8.0593
-13 -5 -7 -1.3139 1.3293
-13 -5 -6 7.5080 -4.6731
-13 -5 -5 -8.5527 20.0363
-13 -5 -4 2.1141 -1.1285
-13 -5 -3 -5.1922 -0.0646
-13 -5 -2 -2.0074 12.7031
-13 -5 -1 -5.4767 -7.2316
-13 -4 -24 -2.0354 -5.3765
-13 -4 -23 0.9068 -10.7117
-13 -4 -22 -13.8017 -19.5698
-13 -4 -21 10.4670 -1.9723
-13 -4 -20 6.5500 5.0634
-13 -4 -19 -8.4376 -4.9924
-13 -4 -18 -8.9583 9.2092
-13 -4 -17 6.4658 -0.1996
-13 -4 -16 -5.5534 1.5631
-13 -4 -15 -1.3471 4.9262
-13 -4 -14 14.4025 -8.8294
-13 -4 -13 -11.7916 4.2695
-13 -4 -12 6.4477 -1.2254
-13 -4 -11 1.5350 -3.3937
-13 -4 -10 -4.6732 6.5370
-13 -4 -9 8.6811 4.5080
-13 -4 -8 -3.1178 -7.0479
-13 -4 -7 2.9170 9.2541
-13 -4 -6 7.5767 2.2850
-13 -4 -5 7.3220 -3.0654
-13 -4 -4 14.5233 9.5096
-13 -4 -3 -10.9909 6.7571
-13 -4 -2 -5.5984 10.2621
-13 -4 -1 6.8361 1.6166
-13 -3 -24 -11.3248 6.4530
-13 -3 -23 -16.9953 -8.0274
-13 -3 -22 7.8309 -11.8639
-13 -3 -21 -0.4945 -0.6195
-13 -3 -20 9.1620 -5.7612
-13 -3 -19 1.3611 -0.9061
-13 -3 -18 6.3208 7.9773
-13 -3 -17 13.1220 -1.3581
-13 -3 -16 0.5563 -10.7066
-13 -3 -15 -3.1554 11.4708
-13 -3 -14 13.0449 -2.1534
-13 -3 -13 -3.3882 -18.1273
-13 -3 -12 2.1076 15.8063
-13 -3 -11 5.7918 -6.9216
-13 -3 -10 2.0446 -3.3925
-13 -3 -9 7.7556 12.8499
-13 -3 -8 1.8146 -7.4500
-13 -3 -7 -8.4218 -11.6009
-13 -3 -6 7.0405 -12.6890
-13 -3 -5 10.8617 -3.3870
-13 -3 -4 -1.0643 9.8051
-13 -3 -3 8.7659 -0.3247
-13 -3 -2 0.9289 -0.1219
-13 -3 -1 -0.0325 -9.3464
-13 -2 -24 -0.8003 5.9836
-13 -2 -23 -6.4271 3.7132
-13 -2 -22 -4.0286 8.7566
-13 -2 -21 0.0672 -4.6019
-13 -2 -20 10.3266 -2.5169
-13 -2 -19 -1.5686 -1.2180
-13 -2 -18 -0.6682 -2.6281
-13 -2 -17 10.4247 -0.3160
-13 -2 -16 0.0393 -6.7447
-13 -2 -15 -14.8005 3.2654
-13 -2 -14 5.5533 5.9053
-13 -2 -13 -3.2978 -7.7750
-13 -2 -12 -13.5855 5.7633
-13 -2 -11 24.2289 -8.7700
-13 -2 -10 -3.9153 -9.3587
-13 -2 -9 -12.1649 5.1287
-13 -2 -8 -5.8054 3.4710
-13 -2 -7 -16.3259 -17.5915
-13 -2 -6 -0.4410 0.6291
-13 -2 -5 10.3608 -6.4722
-13 -2 -4 1.4926 -6.0792
-13 -2 -3 -3.0892 -0.4770
-13 -2 -2 -6.9963 -9.6956
-13 -2 -1 2.4849 -2.1349
-13 -1 -25 -11.3360 12.1485
-13 -1 -24 19.6322 1.7975
-13 -1 -23 11.3565 7.9267
-13 -1 -22 -13.5582 3.2994
-13 -1 -21 3.7743 0.2936
-13 -1 -20 -9.7529 -2.0005
-13 -1 -19 -3.0683 -2.5206
-13 -1 -18 -11.9407 -1.2810
-13 -1 -17 -5.9582 4.4230
-13 -1 -16 0.3782 -1.8678
-13 -1 -15 2.5696 7.7282
-13 -1 -14 -4.9989 14.5350
-13 -1 -13 -1.9126 -16.3058
-13 -1 -12 -11.6962 -11.9244
-13 -1 -11 5.7133 11.8226
-13 -1 -10 -5.5534 -6.0600
-13 -1 -9 -11.4277 16.0868
-13 -1 -8 3.6678 14.9092
-13 -1 -7 0.7292 -5.1727
-13 -1 -6 -11.6334 -3.2118
-13 -1 -5 7.9119 -5.6540
-13 -1 -4 -5.6095 -0.6372
-13 -1 -3 -15.8674 9.5719
-13 -1 -2 8.3382 2.3779
-13 -1 -1 6.7590 -6.1785
-12 -22 -4 -27.2437 11.6364
-12 -22 -3 2.6909 2.2352
-12 -22 -2 -5.2704 -7.2643
-12 -22 -1 3.4124 -9.9541
-12 -21 -8 -0.7258 -1.3931
-12 -21 -7 -6.9960 -3.6505
-12 -21 -6 1.0406 10.5174
-12 -21 -5 10.2417 10.1549
-12 -21 -4 3.2656 5.2906
-12 -21 -3 -7.0113 4.3382
-12 -21 -2 -10.4925 -17.0340
-12 -21 -1 -6.7201 -1.3230
-12 -20 -11 -0.2706 0.3283
-12 -20 -10 2.4744 -0.5169
-12 -20 -9 -0.5689 1.4332
-12 -20 -8 7.1066 2.2719
-12 -20 -7 9.1031 -2.8888
-12 -20 -6 8.7857 -7.4481
-12 -20 -5 11.9928 -1.3961
-12 -20 -4 9.3062 -3.8848
-12 -20 -3 -11.2171 7.9145
-12 -20 -2 5.5166 10.9325
-12 -20 -1 -3.3394 2.0863
-12 -19 -13 -2.8844 -0.8875
-12 -19 -12 4.3677 -1.7366
-12 -19 -11 1.1426 2.7193
-12 -19 -10 1.5152 -0.1327
-12 -19 -9 3.8884 -6.6433
-12 -19 -8 -2.6282 -0.8766
-12 -19 -7 3.5569 -2.6676
-12 -19 -6 -7.6090 -10.8389
-12 -19 -5 -6.6865 3.7304
-12 -19 -4 10.9550 -1.3035
-12 -19 -3 9.5266 0.0726
-12 -19 -2 6.1235 9.5359
-12 -19 -1 4.5430 -3.8523
-12 -18 -14 -0.8132 -0.7809
-12 -18 -13 -7.1217 4.2000
-12 -18 -12 0.3659 1.1862
-12 -18 -11 -2.4003 -9.3981
-12 -18 -10 -4.5718 6.6918
-12 -18 -9 -2.5190 -0.2544
-12 -18 -8 -10.5142 0.1469
-12 -18 -7 -0.8015 12.6457
-12 -18 -6 -8.9439 1.9831
-12 -18 -5 -15.4392 -5.8596
-12 -18 -4 0.2507 -4.2794
-12 -18 -3 6.7576 -15.8814
-12 -18 -2 -6.1866 3.5631
-12 -18 -1 5.9160 7.5991
-12 -17 -16 0.7149 1.4174
-12 -17 -15 1.7263 1.0891
-12 -17 -14 5.5456 -0.2230
-12 -17 -13 -9.2714 0.0152
-12 -17 -12 -1.7666 5.8181
-12 -17 -11 -4.7316 -7.4819
-12 -17 -10 -4.0360 1.3945
-12 -17 -9 13.1944 2.1205
-12 -17 -8 2.6692 -0.7187
-12 -17 -7 -10.9170 9.6835
-12 -17 -6 7.9324 7.7034
-12 -17 -5 -11.3464 -7.2036
-12 -17 -4 -13.0206 -2.1691
-12 -17 -3 1.5476 -15.0333
-12 -17 -2 3.4188 1.8772
-12 -17 -1 11.1545 11.0948
-12 -16 -17 -0.6416 -0.9630
-12 -16 -16 -4.3179 -4.2323
-12 -16 -15 2.8135 -1.4642
-12 -16 -14 5.5891 2.1771
-12 -16 -13 -0.2460 3.3986
-12 -16 -12 -1.1959 7.3276
-12 -16 -11 3.9259 -6.3137
-12 -16 -10 -2.6684 -11.0236
-12 -16 -9 9.7672 3.4005
-12 -16 -8 14.9100 -7.4568
-12 -16 -7 0.8374 2.3091
-12 -16 -6 6.3520 12.2805
-12 -16 -5 -0.7785 -2.4682
-12 -16 -4 -7.4467 5.3146
-12 -16 -3 6.6748 0.8040
-12 -16 -2 9.2464 -16.6390
-12 -16 -1 5.7838 -0.6268
-12 -15 -18 -3.5555 5.7146
-12 -15 -17 -3.6521 2.9363
-12 -15 -16 4.3426 -3.6732
-12 -15 -15 1.2295 2.5567
-12 -15 -14 1.8521 -2.0653
-12 -15 -13 11.5974 2.3789
-12 -15 -12 -3.1618 4.2842
-12 -15 -11 -3.1557 1.9888
-12 -15 -10 -5.1402 -8.2555
-12 -15 -9 -2.8301 0.8645
-12 -15 -8 9.4019 -5.6849
-12 -15 -7 4.5094 -1.6179
-12 -15 -6 0.6616 8.0250
-12 -15 -5 15.3305 5.4806
-12 -15 -4 -9.4194 -4.4267
-12 -15 -3 -8.7456 10.2181
-12 -15 -2 -9.5878 -7.8968
-12 -15 -1 -8.5291 -0.9079
-12 -14 -19 5.2593 0.9007
-12 -14 -18 -2.8514 1.4862
-12 -14 -17 1.2370 1.6825
-12 -14 -16 0.0586 1.0719
-12 -14 -15 -3.3922 -9.4187
-12 -14 -14 2.6557 -0.0083
-12 -14 -13 -2.0338 2.4915
-12 -14 -12 1.0031 -3.5706
-12 -14 -11 -2.5114 14.3980
-12 -14 -10 -7.3496 8.3041
-12 -14 -9 -10.8746 -9.0255
-12 -14 -8 0.2293 0.7158
-12 -14 -7 0.2039 -13.3714
-12 -14 -6 -5.1435 -4.3951
-12 -14 -5 3.6495 13.3278
-12 -14 -4 3.1045 4.7097
-12 -14 -3 -8.1444 14.9159
-12 -14 -2 -0.8946 5.0854
-12 -14 -1 -7.8320 -11.4867
-12 -13 -20 1.4491 -0.7406
-12 -13 -19 0.6431 -2.5096
-12 -13 -18 3.3416 -1.6488
-12 -13 -17 -4.1744 2.6697
-12 -13 -16 -6.1566 -3.1074
-12 -13 -15 0.1544 -2.8054
-12 -13 -14 -4.0679 -0.5610
-12 -13 -13 0.7968 -8.0261
-12 -13 -12 10.7374 5.3790
-12 -13 -11 0.1304 1.7952
-12 -13 -10 6.4849 3.0047
-12 -13 -9 -18.2439 -1.5841
-12 -13 -8 -21.8101 4.7342
-12 -13 -7 12.8958 -8.3940
-12 -13 -6 5.7782 -7.8747
-12 -13 -5 -0.4176 -2.8545
-12 -13 -4 19.8301 0.3402
-12 -13 -3 -4.1572 -8.1253
-12 -13 -2 5.6185 10.5357
-12 -13 -1 -6.1010 -7.5477
-12 -12 -21 -5.2649 2.9982
-12 -12 -20 -0.5174 -1.0033
-12 -12 -19 -0.4433 -4.0015
-12 -12 -18 3.3298 5.5172
-12 -12 -17 -4.4074 0.7795
-12 -12 -16 -1.3223 1.6352
-12 -12 -15 -5.5298 5.0000
-12 -12 -14 3.0689 -9.7804
-12 -12 -13 4.4789 -6.9440
-12 -12 -12 -0.9688 -2.5474
-12 -12 -11 8.1640 0.1241
-12 -12 -10 2.5869 16.6647
-12 -12 -9 1.3432 2.7191
-12 -12 -8 -3.8351 0.1901
-12 -12 -7 1.5854 -1.0727
-12 -12 -6 -7.2576 -21.5633
-12 -12 -5 -3.3035 2.1924
-12 -12 -4 5.4323 -2.4547
-12 -12 -3 3.5728 -17.5738
-12 -12 -2 -7.1970 22.3129
-12 -12 -1 9.8058 11.2185
-12 -11 -22 1.9280 -2.9900
-12 -11 -21 0.2103 3.1767
-12 -11 -20 2.9343 2.4829
-12 -11 -19 -1.6041 -0.7466
-12 -11 -18 0.1383 8.5981
-12 -11 -17 12.2364 0.6744
-12 -11 -16 -7.6931 5.6601
-12 -11 -15 -8.4918 -0.5803
-12 -11 -14 5.4423 0.6885
-12 -11 -13 -3.1503 -3.3483
-12 -11 -12 4.2223 0.1145
-12 -11 -11 12.8884 2.9430
-12 -11 -10 0.2525 -0.5012
-12 -11 -9 10.6463 3.7060
-12 -11 -8 -7.4289 2.7453
-12 -11 -7 -4.6380 10.8162
-12 -11 -6 -2.6162 2.5696
-12 -11 -5 -13.6064 8.6672
-12 -11 -4 2.5100 -3.0515
-12 -11 -3 9.6290 -1.6349
-12 -11 -2 1.8254 1.2199
-12 -11 -1 31.7834 17.3573
-12 -10 -22 3.5142 -1.4398
-12 -10 -21 -1.7802 -5.8680
-12 -10 -20 9.2512 1.4967
-12 -10 -19 -0.0147 -3.9004
-12 -10 -18 -1.6068 1.3505
-12 -10 -17 9.8410 3.1711
-12 -10 -16 -8.2038 -5.0116
-12 -10 -15 -0.3756 8.3262
-12 -10 -14 -0.8488 -0.6620
-12 -10 -13 -0.9226 -13.2993
-12 -10 -12 0.1973 7.1070
-12 -10 -11 1.9909 -5.7167
-12 -10 -10 -4.2027 -11.2867
-12 -10 -9 3.5134 7.5821
-12 -10 -8 8.2645 -2.4147
-12 -10 -7 6.0478 12.6891
-12 -10 -6 4.4798 14.0651
-12 -10 -5 -5.2893 -4.1742
-12 -10 -4 1.4350 -5.4368
-12 -10 -3 -2.0336 -20.2740
-12 -10 -2 11.1376 -9.5043
-12 -10 -1 11.7438 16.7650
-12 -9 -23 -1.7935 0.0373
-12 -9 -22 0.6359 -5.0858
-12 -9 -21 -7.1176 -6.7525
-12 -9 -20 0.3312 0.8239
-12 -9 -19 7.6445 -8.5373
-12 -9 -18 -4.7623 4.8187
-12 -9 -17 -3.9116 4.6799
-12 -9 -16 6.9842 -11.2278
-12 -9 -15 -3.7073 8.2805
-12 -9 -14 0.9392 -6.1150
-12 -9 -13 -5.2795 -4.3362
-12 -9 -12 -7.0158 4.4503
-12 -9 -11 4.1454 -2.9898
-12 -9 -10 -17.7886 -11.0324
-12 -9 -9 -2.8723 -1.2667
-12 -9 -8 32.1396 -10.5345
-12 -9 -7 -2.2212 -7.5560
-12 -9 -6 -6.3128 0.8624
-12 -9 -5 -9.9375 3.1287
-12 -9 -4 -11.6584 -2.1738
-12 -9 -3 -0.2175 -18.4725
-12 -9 -2 0.4545 -3.3333
-12 -9 -1 1.5962 -4.3780
-12 -8 -24 10.4676 -8.8463
-12 -8 -23 4.2220 5.4001
-12 -8 -22 -8.9570 5.0509
-12 -8 -21 -5.0873 -3.8540
-12 -8 -20 4.2109 0.5080
-12 -8 -19 12.6057 1.8850
-12 -8 -18 -9.0936 -2.8294
-12 -8 -17 1.2358 5.1688
-12 -8 -16 1.6515 2.5044
-12 -8 -15 -9.7603 -10.3498
-12 -8 -14 9.5340 5.0521
-12 -8 -13 -3.1788 7.2866
-12 -8 -12 -9.3243 10.1817
-12 -8 -11 1.5498 6.8382
-12 -8 -10 -6.2122 -16.2668
-12 -8 -9 -12.6551 0.6388
-12 -8 -8 3.0696 -5.3997
-12 -8 -7 -1.7615 -8.6499
-12 -8 -6 0.5798 22.6559
-12 -8 -5 -4.0350 4.1694
-12 -8 -4 -6.6143 -2.4393
-12 -8 -3 -7.2834 7.8953
-12 -8 -2 -6.8566 -7.3622
-12 -8 -1 8.0278 -9.4703
-12 -7 -24 -1.6857 4.3174
-12 -7 -23 -2.1153 -4.0196
-12 -7 -22 7.6391 4.5880
-12 -7 -21 -1.4774 -4.3470
-12 -7 -20 -11.0909 -2.3758
-12 -7 -19 6.4580 0.4852
-12 -7 -18 9.7230 1.7006
-12 -7 -17 -10.4832 9.2640
-12 -7 -16 -8.1358 0.5239
-12 -7 -15 8.8450 -5.3127
-12 -7 -14 1.1054 14.8071
-12 -7 -13 13.3161 -4.9451
-12 -7 -12 -1.7272 6.5012
-12 -7 -11 -5.2294 15.2165
-12 -7 -10 4.4558 0.0324
-12 -7 -9 -9.6326 -2.8259
-12 -7 -8 3.0280 6.8735
-12 -7 -7 5.8016 -2.1944
-12 -7 -6 3.9903 6.9005
-12 -7 -5 17.8442 5.7675
-12 -7 -4 -9.9540 4.6961
-12 -7 -3 -1.7084 0.8752
-12 -7 -2 1.6547 1.3230
-12 -7 -1 -13.2900 5.3199
-12 -6 -24 -8.4957 -1.8577
-12 -6 -23 -4.6872 1.0226
-12 -6 -22 -4.4802 4.1324
-12 -6 -21 3.6167 -7.1496
-12 -6 -20 -1.3274 -1.6365
-12 -6 -19 -0.3698 3.7594
-12 -6 -18 9.4050 -3.2197
-12 -6 -17 -0.5623 -4.1838
-12 -6 -16 6.0389 11.9688
-12 -6 -15 1.5211 -6.2639
-12 -6 -14 -2.9332 -15.7180
-12 -6 -13 17.6701 8.5807
-12 -6 -12 0.1943 -11.6158
-12 -6 -11 -0.7035 0.6240
-12 -6 -10 4.9394 12.0049
-12 -6 -9 -4.6894 -7.3361
-12 -6 -8 -0.2872 4.5819
-12 -6 -7 15.0992 -9.7505
-12 -6 -6 -3.0099 -11.1573
-12 -6 -5 1.8009 -3.2722
-12 -6 -4 2.0956 1.5762
-12 -6 -3 2.5501 16.4458
-12 -6 -2 0.6098 0.5413
-12 -6 -1 3.6606 -3.5880
-12 -5 -25 1.5939 17.9860
-12 -5 -24 4.6136 3.9752
-12 -5 -23 -5.5333 1.7745
-12 -5 -22 -1.3199 -10.4081
-12 -5 -21 2.6194 4.4059
-12 -5 -20 -1.2082 -6.0514
-12 -5 -19 -2.9598 -2.1527
-12 -5 -18 6.9773 -9.1196
-12 -5 -17 5.7677 -5.0370
-12 -5 -16 -0.6709 2.7847
-12 -5 -15 4.1560 -3.6247
-12 -5 -14 -15.8473 -11.9086
-12 -5 -13 -9.6958 6.2694
-12 -5 -12 20.7547 -9.4336
-12 -5 -11 -13.5754 7.0652
-12 -5 -10 8.0247 0.6796
-12 -5 -9 16.2414 -8.6001
-12 -5 -8 -24.1569 -3.6325
-12 -5 -7 -14.2023 0.7103
-12 -5 -6 -0.1386 -10.0799
-12 -5 -5 10.6978 9.8042
-12 -5 -4 11.8167 -2.9362
-12 -5 -3 -5.0927 -8.0805
-12 -5 -2 -1.5355 -1.7555
-12 -5 -1 -3.1432 5.0005
-12 -4 -25 13.8065 -13.1416
-12 -4 -24 1.4164 4.3826
-12 -4 -23 -6.3876 6.6536
-12 -4 -22 -0.6334 4.7008
-12 -4 -21 -4.6025 -0.9454
-12 -4 -20 -1.7662 -3.2220
-12 -4 -19 -8.9159 -1.9825
-12 -4 -18 -8.0845 -2.1182
-12 -4 -17 3.4317 -7.1601
-12 -4 -16 -3.8461 1.2864
-12 -4 -15 -1.6320 17.8313
-12 -4 -14 -4.6617 0.2259
-12 -4 -13 -2.4686 8.9394
-12 -4 -12 9.7283 -7.7852
-12 -4 -11 -10.4230 -27.0435
-12 -4 -10 -1.6660 22.1035
-12 -4 -9 -3.3281 12.4724
-12 -4 -8 -5.3662 -1.2663
-12 -4 -7 1.2589 15.4278
-12 -4 -6 11.2575 -16.6299
-12 -4 -5 -11.3938 -8.6308
-12 -4 -4 3.6953 6.5585
-12 -4 -3 -5.4338 4.1086
-12 -4 -2 0.4172 -5.1421
-12 -4 -1 6.6799 -7.1011
-12 -3 -25 7.0108 2.0383
-12 -3 -24 -8.7824 -7.7900
-12 -3 -23 16.4852 4.0021
-12 -3 -22 -4.5071 10.0411
-12 -3 -21 -12.5199 -1.5537
-12 -3 -20 -5.8922 15.6298
-12 -3 -19 1.0258 -4.9443
-12 -3 -18 -13.6331 2.1517
-12 -3 -17 0.2520 2.3410
-12 -3 -16 7.3298 -1.2820
-12 -3 -15 11.8458 0.0184
-12 -3 -14 2.3882 1.8369
-12 -3 -13 -28.3104 -2.9829
-12 -3 -12 -2.1250 5.5820
-12 -3 -11 14.7515 -2.4502
-12 -3 -10 -4.5275 12.7470
-12 -3 -9 17.9531 -2.6331
-12 -3 -8 -4.3082 -7.3314
-12 -3 -7 -9.5893 -3.0273
-12 -3 -6 6.3383 3.8650
-12 -3 -5 -11.5039 -3.2521
-12 -3 -4 0.8630 16.1564
-12 -3 -3 5.9243 -6.7337
-12 -3 -2 -11.2560 -10.8419
-12 -3 -1 -10.0651 -7.8522
-12 -2 -25 -9.6281 -0.4648
-12 -2 -24 7.0394 -6.3702
-12 -2 -23 -2.7473 8.8917
-12 -2 -22 17.8200 -8.2492
-12 -2 -21 2.5426 11.9060
-12 -2 -20 -3.9603 15.9432
-12 -2 -19 9.0639 -3.8235
-12 -2 -18 -3.3399 -9.0352
-12 -2 -17 0.4740 3.4975
-12 -2 -16 8.8209 -9.6953
-12 -2 -15 -4.9757 0.0215
-12 -2 -14 0.6131 10.6900
-12 -2 -13 4.7932 -3.4124
-12 -2 -12 2.7890 10.0537
-12 -2 -11 7.0286 -12.3632
-12 -2 -10 -4.8816 -15.9434
-12 -2 -9 -1.6707 10.0952
-12 -2 -8 -10.0206 -4.7462
-12 -2 -7 -2.1723 0.9956
-12 -2 -6 6.6312 6.9683
-12 -2 -5 13.2963 -3.5463
-12 -2 -4 -15.8263 10.3791
-12 -2 -3 -4.6916 -1.8053
-12 -2 -2 -17.6299 -2.2921
-12 -2 -1 -6.7112 -0.3011
-12 -1 -25 -4.5880 8.4769
-12 -1 -24 1.3607 -4.4196
-12 -1 -23 -0.9458 -12.6939
-12 -1 -22 24.0192 3.5521
-12 -1 -21 1.0215 -1.4555
-12 -1 -20 3.7854 0.6023
-12 -1 -19 1.6630 0.3424
-12 -1 -18 0.9950 -10.4699
-12 -1 -17 -1.9480 10.8442
-12 -1 -16 6.8323 -0.5544
-12 -1 -15 -8.5911 -3.4708
-12 -1 -14 14.9834 6.3807
-12 -1 -13 13.5773 1.1099
-12 -1 -12 -17.4023 -12.0405
-12 -1 -11 0.3198 5.1619
-12 -1 -10 1.6359 7.2386
-12 -1 -9 -11.9217 11.2663
-12 -1 -8 8.7448 -2.4559
-12 -1 -7 2.4324 -6.7976
-12 -1 -6 10.9647 -6.6345
-12 -1 -5 7.8533 9.1768
-12 -1 -4 -9.1236 5.9799
-12 -1 -3 -3.5497 18.3006
-12 -1 -2 4.2094 0.2147
-12 -1 -1 6.9141 2.2496
-11 -22 -6 2.2264 -0.2891
-11 -22 -5 -2.6817 -8.0565
-11 -22 -4 0.3245 2.4666
-11 -22 -3 1.9239 8.5481
-11 -22 -2 8.3404 1.7179
-11 -22 -1 2.0353 3.5631
-11 -21 -10 1.4536 -3.5305
-11 -21 -9 -6.0378 -4.1062
-11 -21 -8 -0.8151 -1.6857
-11 -21 -7 -4.2047 0.9209
-11 -21 -6 -9.9705 7.1380
-11 -21 -5 5.8083 -2.6560
-11 -21 -4 0.9317 -4.0146
-11 -21 -3 5.5073 -4.9073
-11 -21 -2 9.2901 -5.9524
-11 -21 -1 -10.9258 -5.2751
-11 -20 -12 -4.1890 -2.6771
-11 -20 -11 -9.3131 3.6720
-11 -20 -10 -1.2165 -0.4976
-11 -20 -9 -0.1678 6.3884
-11 -20 -8 3.1642 10.5085
-11 -20 -7 4.1876 0.9457
-11 -20 -6 -2.8577 -1.3583
-11 -20 -5 -1.0457 6.6040
-11 -20 -4 -11.0647 -18.5454
-11 -20 -3 -6.0802 -2.8993
-11 -20 -2 4.9171 -4.5065
-11 -20 -1 8.2808 5.3435
-11 -19 -14 -0.9485 -1.7452
-11 -19 -13 0.5049 8.0743
-11 -19 -12 -0.3280 4.0403
-11 -19 -11 -5.0678 3.5281
-11 -19 -10 7.3858 -1.3237
-11 -19 -9 2.6114 -8.3573
-11 -19 -8 0.5027 0.1281
-11 -19 -7 7.8006 2.6607
-11 -19 -6 -8.3212 0.9896
-11 -19 -5 -9.9342 10.4235
-11 -19 -4 -1.3715 0.0727
-11 -19 -3 -7.5194 -2.8527
-11 -19 -2 11.9319 -3.9779
-11 -19 -1 11.1238 -5.0326
-11 -18 -16 -2.3041 -0.0736
-11 -18 -15 2.7847 -4.2929
-11 -18 -14 6.3411 -3.1842
-11 -18 -13 3.4818 0.8420
-11 -18 -12 6.3308 -2.9815
-11 -18 -11 -4.0322 -2.9101
-11 -18 -10 -3.8528 1.8885
-11 -18 -9 -0.2036 -12.1935
-11 -18 -8 -0.8709 0.3414
-11 -18 -7 7.9059 9.5385
-11 -18 -6 6.4801 0.5865
-11 -18 -5 -5.6617 4.3107
-11 -18 -4 5.8161 9.1236
-11 -18 -3 -3.5790 -9.6132
-11 -18 -2 -9.3194 5.1568
-11 -18 -1 -4.3998 -9.4649
-11 -17 -17 2.2073 1.0952
-11 -17 -16 -1.6338 -6.8879
-11 -17 -15 2.0637 3.5427
-11 -17 -14 -0.5957 -5.5326
-11 -17 -13 2.3357 -9.0563
-11 -17 -12 3.6172 8.5508
-11 -17 -11 -0.2053 2.9352
-11 -17 -10 -2.5032 3.1001
-11 -17 -9 5.8259 -0.4022
-11 -17 -8 -3.7421 -4.9819
-11 -17 -7 2.4317 0.9609
-11 -17 -6 11.1494 -3.9049
-11 -17 -5 -5.4253 -7.2728
-11 -17 -4 3.3580 13.9411
-11 -17 -3 6.4910 5.3663
-11 -17 -2 -15.9886 7.2884
-11 -17 -1 -3.2650 6.6762
-11 -16 -18 -0.5894 3.0953
-11 -16 -17 -0.7461 0.2106
-11 -16 -16 -5.4848 2.4823
-11 -16 -15 -12.5226 1.6769
-11 -16 -14 6.0788 2.6832
-11 -16 -13 -2.8399 0.4624
-11 -16 -12 -4.7847 -0.1140
-11 -16 -11 13.4704 -2.4316
-11 -16 -10 -2.1723 5.7415
-11 -16 -9 -4.9600 6.5554
-11 -16 -8 -0.5926 -7.0090
-11 -16 -7 -12.9503 -2.2489
-11 -16 -6 2.2979 -2.4091
-11 -16 -5 12.5603 -9.9984
-11 -16 -4 2.7423 0.0412
-11 -16 -3 16.2241 2.5441
-11 -16 -2 0.7521 -2.8580
-11 -16 -1 -4.1759 19.8566
-11 -15 -19 -2.5211 -3.2095
-11 -15 -18 -1.9853 5.2275
-11 -15 -17 -1.6600 6.7310
-11 -15 -16 -0.3906 0.0209
-11 -15 -15 -2.9001 -0.9745
-11 -15 -14 -2.5523 7.0848
-11 -15 -13 -3.7283 -10.3090
-11 -15 -12 -1.1365 -5.7502
-11 -15 -11 -1.6692 -0.7199
-11 -15 -10 1.7691 -8.4703
-11 -15 -9 -0.7069 16.6111
-11 -15 -8 -2.1334 5.9099
-11 -15 -7 -11.4247 -14.8958
-11 -15 -6 -6.3853 2.3454
-11 -15 -5 2.9257 -11.3018
-11 -15 -4 -2.6429 -20.6549
-11 -15 -3 12.1852 5.7903
-11 -15 -2 5.5859 -4.6776
-11 -15 -1 -11.1782 4.6896
-11 -14 -20 -2.7157 0.5645
-11 -14 -19 0.7353 0.8812
-11 -14 -18 8.0424 -4.7011
-11 -14 -17 5.0264 -0.1323
-11 -14 -16 1.8656 -2.1384
-11 -14 -15 -0.2037 -1.4575
-11 -14 -14 -5.3396 -3.9198
-11 -14 -13 1.5372 2.5270
-11 -14 -12 -7.1939 -4.3258
-11 -14 -11 3.2833 0.4585
-11 -14 -10 9.6506 -3.3893
-11 -14 -9 -3.0637 -0.1375
-11 -14 -8 7.6624 9.7914
-11 -14 -7 -3.9515 8.6550
-11 -14 -6 -22.3033 2.1142
-11 -14 -5 1.8233 -2.4719
-11 -14 -4 -9.4643 -3.8248
-11 -14 -3 -12.0332 6.0600
-11 -14 -2 21.2002 3.5447
-11 -14 -1 2.6547 2.7657
-11 -13 -21 2.2619 3.2445
-11 -13 -20 2.3873 -2.3802
-11 -13 -19 3.7200 -2.8566
-11 -13 -18 2.9803 -7.2829
-11 -13 -17 -4.1016 -0.7366
-11 -13 -16 6.2778 9.2248
-11 -13 -15 5.6451 3.1917
-11 -13 -14 -0.7942 -5.6522
-11 -13 -13 4.2631 9.3206
-11 -13 -12 5.6735 3.0541
-11 -13 -11 -2.4068 -0.8464
-11 -13 -10 4.2801 -5.1876
-11 -13 -9 7.1825 -7.0200
-11 -13 -8 5.3223 13.0708
-11 -13 -7 11.7057 5.6265
-11 -13 -6 -1.5448 8.4003
-11 -13 -5 -7.9401 22.9282
-11 -13 -4 3.2740 -2.7155
-11 -13 -3 2.7884 -11.4178
-11 -13 -2 7.9514 -7.6388
-11 -13 -1 1.3308 -17.3986
-11 -12 -22 0.6457 -3.2216
-11 -12 -21 -3.6301 0.3066
-11 -12 -20 -4.0615 -0.2295
-11 -12 -19 -1.2182 5.4617
-11 -12 -18 2.6109 0.8294
-11 -12 -17 -1.4983 -2.5487
-11 -12 -16 -1.0257 6.7850
-11 -12 -15 3.2787 -7.4496
-11 -12 -14 1.5643 5.9467
-11 -12 -13 -5.7084 2.6527
-11 -12 -12 8.5922 -1.4706
-11 -12 -11 -11.6887 -1.6667
-11 -12 -10 -9.2845 10.1840
-11 -12 -9 1.7735 -20.8510
-11 -12 -8 4.0626 -8.3515
-11 -12 -7 22.9585 5.2881
-11 -12 -6 17.0049 1.8019
-11 -12 -5 -11.2232 -4.3317
-11 -12 -4 -6.4240 -5.9623
-11 -12 -3 -16.0613 -10.0499
-11 -12 -2 -4.6716 -2.1554
-11 -12 -1 16.6842 0.1743
-11 -11 -22 -5.2352 4.7250
-11 -11 -21 -0.2808 -2.3500
-11 -11 -20 -2.7061 0.6064
-11 -11 -19 -4.5940 1.2444
-11 -11 -18 0.2052 2.6825
-11 -11 -17 -7.4614 -2.9528
-11 -11 -16 -6.9011 -3.4898
-11 -11 -15 3.0412 0.4819
-11 -11 -14 -7.5002 -1.1130
-11 -11 -13 3.7614 -4.9600
-11 -11 -12 0.1357 8.2930
-11 -11 -11 -17.4898 4.0224
-11 -11 -10 -8.6976 11.2684
-11 -11 -9 3.5059 -20.1913
-11 -11 -8 -15.3931 -33.0526
-11 -11 -7 2.3972 4.0320
-11 -11 -6 5.1890 3.9118
-11 -11 -5 -8.7451 1.8891
-11 -11 -4 -7.8827 17.9360
-11 -11 -3 4.0410 -3.5877
-11 -11 -2 -0.9009 -3.0683
-11 -11 -1 2.9214 -3.0237
-11 -10 -23 1.8993 1.2543
-11 -10 -22 3.3289 8.9203
-11 -10 -21 -5.8485 -5.3042
-11 -10 -20 -3.1736 -1.5387
-11 -10 -19 4.3426 -1.4935
-11 -10 -18 -1.1299 4.3700
-11 -10 -17 1.1796 -3.4880
-11 -10 -16 -1.3587 -0.3028
-11 -10 -15 -5.5649 -4.9473
-11 -10 -14 6.5582 -14.1206
-11 -10 -13 13.8851 13.9798
-11 -10 -12 2.1179 4.8828
-11 -10 -11 3.0248 1.2144
-11 -10 -10 -19.9300 3.5081
-11 -10 -9 -3.8370 5.4264
-11 -10 -8 -11.5939 -6.9734
-11 -10 -7 0.5829 14.9555
-11 -10 -6 20.6588 -7.8532
-11 -10 -5 1.2157 5.1935
-11 -10 -4 -6.4971 8.3198
-11 -10 -3 15.5177 -1.5140
-11 -10 -2 -15.7487 -7.4028
-11 -10 -1 -12.9744 6.3919
-11 -9 -24 12.5677 -10.7697
-11 -9 -23 -5.2630 0.8416
-11 -9 -22 7.3800 3.3872
-11 -9 -21 0.8910 -1.1090
-11 -9 -20 0.3216 1.4075
-11 -9 -19 5.7102 -7.8627
-11 -9 -18 3.0898 -4.6843
-11 -9 -17 1.9299 13.0222
-11 -9 -16 -4.9391 -3.1176
-11 -9 -15 2.8844 -11.8145
-11 -9 -14 11.4968 2.7940
-11 -9 -13 4.8699 -3.4874
-11 -9 -12 13.9682 2.5874
-11 -9 -11 6.2948 12.8306
-11 -9 -10 -7.8488 2.3647
-11 -9 -9 8.4227 14.7945
-11 -9 -8 7.1295 -6.1059
-11 -9 -7 -3.2717 -4.2949
-11 -9 -6 8.2156 -2.4933
-11 -9 -5 -10.4386 -7.7222
-11 -9 -4 1.6782 3.4731
-11 -9 -3 2.7004 3.7736
-11 -9 -2 -3.5660 0.0610
-11 -9 -1 -8.9156 28.0903
-11 -8 -24 6.7577 -5.5576
-11 -8 -23 -0.4741 -1.0272
-11 -8 -22 7.2644 6.1388
-11 -8 -21 0.3164 -5.8229
-11 -8 -20 -4.0308 -1.3439
-11 -8 -19 1.8591 7.1225
-11 -8 -18 -3.4025 -1.8260
-11 -8 -17 -1.3221 6.4796
-11 -8 -16 10.8907 -2.6134
-11 -8 -15 -12.4102 -0.1442
-11 -8 -14 -6.7755 -3.2673
-11 -8 -13 11.7997 -16.4345
-11 -8 -12 -6.5575 10.6262
-11 -8 -11 1.3607 3.7473
-11 -8 -10 12.5003 -0.9401
-11 -8 -9 -9.7338 -1.5397
-11 -8 -8 8.5975 -5.6116
-11 -8 -7 -11.7107 1.4464
-11 -8 -6 -9.3098 13.3558
-11 -8 -5 -4.3118 -12.8486
-11 -8 -4 9.4034 9.1823
-11 -8 -3 13.8316 0.3923
-11 -8 -2 6.2531 -0.8754
-11 -8 -1 -9.8454 5.3784
-11 -7 -25 10.1858 9.5491
-11 -7 -24 -2.2106 2.3068
-11 -7 -23 -7.8344 -5.9894
-11 -7 -22 -7.9129 3.1906
-11 -7 -21 6.8674 4.4407
-11 -7 -20 -10.4299 9.5757
-11 -7 -19 3.5228 5.4093
-11 -7 -18 -1.9542 -11.1511
-11 -7 -17 -10.2087 -2.1108
-11 -7 -16 -1.2555 6.8470
-11 -7 -15 -11.5545 -3.3001
-11 -7 -14 -7.4855 10.0188
-11 -7 -13 2.8915 -1.1315
-11 -7 -12 -5.0952 -11.3205
-11 -7 -11 8.1661 10.9824
-11 -7 -10 -3.9176 -18.5047
-11 -7 -9 -11.3241 -12.2316
-11 -7 -8 6.4796 30.3312
-11 -7 -7 -0.4126 4.6211
-11 -7 -6 9.7407 -4.7951
-11 -7 -5 9.2796 -11.2632
-11 -7 -4 -15.7710 -3.4389
-11 -7 -3 10.4445 -1.0904
-11 -7 -2 9.8632 3.4710
-11 -7 -1 2.6462 -0.0467
-11 -6 -25 -13.9937 -3.7432
-11 -6 -24 0.0768 10.0029
-11 -6 -23 3.1140 5.5943
-11 -6 -22 -2.9762 6.0665
-11 -6 -21 5.5609 -5.3843
-11 -6 -20 -5.6658 -1.6494
-11 -6 -19 -4.9842 9.0380
-11 -6 -18 -2.5698 -0.1207
-11 -6 -17 -7.4844 -3.0357
-11 -6 -16 3.7607 10.5619
-11 -6 -15 16.8198 -8.5177
-11 -6 -14 -1.5961 -0.7881
-11 -6 -13 3.6714 -0.4283
-11 -6 -12 -13.4395 -13.9799
-11 -6 -11 -12.8484 4.9060
-11 -6 -10 21.4461 0.1284
-11 -6 -9 2.1638 6.8133
-11 -6 -8 0.6428 -13.8853
-11 -6 -7 17.1721 -18.0130
-11 -6 -6 -19.5279 7.1600
-11 -6 -5 -3.2571 7.7361
-11 -6 -4 2.9453 -11.9172
-11 -6 -3 3.7492 4.0171
-11 -6 -2 -7.2889 -13.7870
-11 -6 -1 3.5332 -0.5901
-11 -5 -25 6.2938 -6.2592
-11 -5 -24 8.7660 5.4896
-11 -5 -23 3.9354 -14.0387
-11 -5 -22 3.6183 2.3948
-11 -5 -21 5.0626 3.6934
-11 -5 -20 5.7803 -4.9601
-11 -5 -19 -3.9508 4.9412
-11 -5 -18 11.7994 9.6518
-11 -5 -17 -0.5777 -13.4040
-11 -5 -16 -4.4191 -9.5489
-11 -5 -15 8.5465 -2.9750
-11 -5 -14 -11.3988 0.4300
-11 -5 -13 0.8425 18.3130
-11 -5 -12 10.8561 -3.5667
-11 -5 -11 -1.2042 -6.5152
-11 -5 -10 -3.4727 5.1351
-11 -5 -9 -9.0320 -16.4228
-11 -5 -8 -6.8112 4.3695
-11 -5 -7 -2.6393 3.0181
-11 -5 -6 0.3563 -3.6695
-11 -5 -5 8.0520 14.2137
-11 -5 -4 -9.1968 -8.0434
-11 -5 -3 -16.7129 -0.1944
-11 -5 -2 6.0253 3.4373
-11 -5 -1 -5.7081 0.9548
-11 -4 -25 0.7047 -1.8549
-11 -4 -24 8.5562 -13.1271
-11 -4 -23 4.6847 -3.9719
-11 -4 -22 -3.4931 -7.7568
-11 -4 -21 13.7756 6.1330
-11 -4 -20 10.3184 -3.3157
-11 -4 -19 -8.4955 3.0782
-11 -4 -18 1.8789 3.4571
-11 -4 -17 5.9270 -3.8097
-11 -4 -16 -17.3875 8.7795
-11 -4 -15 2.6275 14.7676
-11 -4 -14 12.4990 -16.2277
-11 -4 -13 -8.0921 4.9718
-11 -4 -12 7.4670 6.5989
-11 -4 -11 -8.0042 2.8832
-11 -4 -10 -11.3790 14.8995
-11 -4 -9 4.7605 7.1981
-11 -4 -8 -11.5185 1.0530
-11 -4 -7 3.4091 -2.9682
-11 -4 -6 8.8767 0.0793
-11 -4 -5 1.6685 4.4602
-11 -4 -4 5.0516 12.7140
-11 -4 -3 -14.9910 5.9910
-11 -4 -2 0.6742 -1.0024
-11 -4 -1 -3.4284 -2.6649
-11 -3 -26 -0.8255 -0.5719
-11 -3 -25 -6.7848 5.5202
-11 -3 -24 -10.9615 -4.4437
-11 -3 -23 -6.0509 -3.0497
-11 -3 -22 6.5858 -1.5476
-11 -3 -21 3.1112 8.8449
-11 -3 -20 -1.6454 -10.3590
-11 -3 -19 -6.5029 -1.8453
-11 -3 -18 3.6431 10.3518
-11 -3 -17 9.7464 7.2651
-11 -3 -16 -9.7913 -5.8242
-11 -3 -15 -1.7374 14.8550
-11 -3 -14 6.1466 -13.9789
-11 -3 -13 -10.6123 -9.9216
-11 -3 -12 16.5071 18.3220
-11 -3 -11 11.3979 -6.9255
-11 -3 -10 -0.1762 7.2493
-11 -3 -9 0.8172 22.9041
-11 -3 -8 0.9436 -15.2697
-11 -3 -7 -3.9523 -10.3118
-11 -3 -6 15.2434 -8.2405
-11 -3 -5 8.2876 8.7231
-11 -3 -4 -2.0613 14.7150
-11 -3 -3 6.4715 0.3391
-11 -3 -2 12.8243 -0.1677
-11 -3 -1 3.8627 -6.1675
-11 -2 -26 -23.4396 3.3072
-11 -2 -25 -2.6280 7.0865
-11 -2 -24 0.9457 3.1407
-11 -2 -23 -3.7578 -7.2522
-11 -2 -22 -13.1431 3.2864
-11 -2 -21 -8.7261 -3.4430
-11 -2 -20 -0.8238 4.4634
-11 -2 -19 1.5055 -7.5689
-11 -2 -18 0.2687 2.0612
-11 -2 -17 8.8676 -7.8105
-11 -2 -16 5.6914 -1.1456
-11 -2 -15 -14.9661 3.2847
-11 -2 -14 2.9644 -6.7500
-11 -2 -13 -12.7169 -19.4669
-11 -2 -12 9.0623 0.7005
-11 -2 -11 37.4081 -10.0164
-11 -2 -10 -7.6528 -0.1537
-11 -2 -9 -11.3386 3.1927
-11 -2 -8 3.3836 -11.7889
-11 -2 -7 -16.9792 -11.3971
-11 -2 -6 11.7863 8.3198
-11 -2 -5 13.3356 -8.0643
-11 -2 -4 0.1927 -13.0149
-11 -2 -3 -2.5757 1.7950
-11 -2 -2 3.0059 -8.9758
-11 -2 -1 10.2009 -9.9317
-11 -1 -26 1.2111 -7.2860
-11 -1 -25 -10.0004 8.1862
-11 -1 -24 5.8977 -3.5675
-11 -1 -23 6.1151 2.2907
-11 -1 -22 -0.0415 13.9680
-11 -1 -21 1.1512 -4.7754
-11 -1 -20 -2.7304 -2.2418
-11 -1 -19 1.7701 -9.7782
-11 -1 -18 -2.6713 -11.3376
-11 -1 -17 1.3902 -0.3785
-11 -1 -16 -5.6577 7.7766
-11 -1 -15 -2.1247 5.4643
-11 -1 -14 -4.5236 13.9681
-11 -1 -13 -7.6228 -29.4443
-11 -1 -12 -7.4060 -13.6617
-11 -1 -11 11.4146 0.6394
-11 -1 -10 -10.0272 -3.6291
-11 -1 -9 -11.9920 17.1134
-11 -1 -8 -1.1932 3.1260
-11 -1 -7 1.8369 -13.6766
-11 -1 -6 -10.0290 9.1386
-11 -1 -5 6.5088 -15.5995
-11 -1 -4 -15.6089 -6.5655
-11 -1 -3 -18.8955 3.1855
-11 -1 -2 11.0135 -4.5099
-11 -1 -1 10.0583 -11.0237
-10 -23 -4 2.8599 -2.2512
-10 -23 -3 -2.5328 -10.2962
-10 -23 -2 5.8922 -3.1511
-10 -23 -1 1.9016 7.8209
-10 -22 -8 8.8007 -3.5355
-10 -22 -7 -1.8077 -2.7134
-10 -22 -6 -1.6956 -4.8263
-10 -22 -5 -0.0412 -2.1670
-10 -22 -4 -8.2288 4.5330
-10 -22 -3 -3.0522 -11.7085
-10 -22 -2 1.9270 -0.6683
-10 -22 -1 14.6271 -6.8401
-10 -21 -11 -2.5519 -0.9238
-10 -21 -10 -1.9396 -5.3336
-10 -21 -9 -1.9720 -2.2492
-10 -21 -8 -4.4048 2.2357
-10 -21 -7 -0.7049 0.2982
-10 -21 -6 -3.5999 9.5900
-10 -21 -5 0.8184 11.2235
-10 -21 -4 -1.9234 1.7204
-10 -21 -3 -0.7443 1.8725
-10 -21 -2 -11.9224 -14.9183
-10 -21 -1 4.2197 0.4547
-10 -20 -13 1.3378 1.3943
-10 -20 -12 -2.8195 -0.9046
-10 -20 -11 -1.3904 1.2833
-10 -20 -10 -2.1598 6.3632
-10 -20 -9 -4.9691 1.6414
-10 -20 -8 1.5204 5.7882
-10 -20 -7 13.2617 2.5633
-10 -20 -6 0.1316 0.2882
-10 -20 -5 2.2774 3.1716
-10 -20 -4 -3.3136 1.0668
-10 -20 -3 -5.1757 7.3745
-10 -20 -2 -2.7717 6.8133
-10 -20 -1 -14.1245 9.6766
-10 -19 -15 6.2466 0.8628
-10 -19 -14 -4.3045 0.6402
-10 -19 -13 -3.9008 -0.9302
-10 -19 -12 7.8099 -5.7302
-10 -19 -11 0.5447 2.5048
-10 -19 -10 4.9757 1.8823
-10 -19 -9 3.3133 -8.6853
-10 -19 -8 0.1888 -5.8222
-10 -19 -7 0.8008 -4.8097
-10 -19 -6 -1.7543 -8.9130
-10 -19 -5 -2.3070 -0.1815
-10 -19 -4 13.5474 -4.0940
-10 -19 -3 7.4374 2.7656
-10 -19 -2 9.3295 14.1299
-10 -19 -1 -1.7953 -9.8855
-10 -18 -16 2.9816 2.5611
-10 -18 -15 3.1803 7.0394
-10 -18 -14 -2.4035 -8.3886
-10 -18 -13 -1.7535 6.9881
-10 -18 -12 1.3865 -3.9527
-10 -18 -11 -4.6776 -12.6898
-10 -18 -10 5.2624 1.7925
-10 -18 -9 2.9722 0.7358
-10 -18 -8 -10.7860 -1.5221
-10 -18 -7 -6.4830 7.3637
-10 -18 -6 4.5356 -8.7496
-10 -18 -5 -2.3842 -11.9055
-10 -18 -4 9.9791 -8.8688
-10 -18 -3 1.6603 -7.9038
-10 -18 -2 10.3856 4.7604
-10 -18 -1 8.0947 -1.3154
-10 -17 -18 2.3367 1.9316
-10 -17 -17 2.5724 -2.3365
-10 -17 -16 1.7316 -0.7860
-10 -17 -15 3.1405 0.0009
-10 -17 -14 3.2684 1.6887
-10 -17 -13 -13.2027 8.8667
-10 -17 -12 0.2072 2.2978
-10 -17 -11 -4.1796 -5.6767
-10 -17 -10 -4.1319 4.7672
-10 -17 -9 16.5805 8.7369
-10 -17 -8 -4.2476 6.0078
-10 -17 -7 -12.5200 9.9992
-10 -17 -6 -0.5275 -0.6590
-10 -17 -5 -11.3494 -4.6816
-10 -17 -4 -9.3145 1.2788
-10 -17 -3 6.3519 -7.7482
-10 -17 -2 -1.4764 3.8201
-10 -17 -1 2.5736 15.3904
-10 -16 -19 3.1015 -1.3910
-10 -16 -18 -4.5647 -4.3106
-10 -16 -17 -1.7375 -6.1522
-10 -16 -16 -3.6439 -3.5521
-10 -16 -15 2.5461 -0.3378
-10 -16 -14 3.3881 8.6053
-10 -16 -13 -1.5203 1.9075
-10 -16 -12 -2.2923 10.0684
-10 -16 -11 -0.5063 -11.3017
-10 -16 -10 -3.7843 -0.2089
-10 -16 -9 7.5657 4.4689
-10 -16 -8 8.0114 -3.6882
-10 -16 -7 -4.6802 9.8685
-10 -16 -6 -7.2283 16.4705
-10 -16 -5 -3.9432 -7.1391
-10 -16 -4 -5.1234 10.6076
-10 -16 -3 7.4011 1.9241
-10 -16 -2 -7.1800 -12.3623
-10 -16 -1 5.1541 -1.4005
-10 -15 -20 -1.5765 -1.0041
-10 -15 -19 -4.0265 -1.1801
-10 -15 -18 -9.5567 5.9343
-10 -15 -17 -5.8107 3.7490
-10 -15 -16 6.9642 -6.7888
-10 -15 -15 3.2687 -3.1092
-10 -15 -14 1.4855 0.7383
-10 -15 -13 8.1243 -4.2468
-10 -15 -12 -2.1262 1.7772
-10 -15 -11 -1.0597 -0.5662
-10 -15 -10 -7.9722 -10.7536
-10 -15 -9 1.1897 -6.8616
-10 -15 -8 11.8830 -3.5429
-10 -15 -7 -1.3037 -3.2408
-10 -15 -6 9.0100 8.5178
-10 -15 -5 15.8455 -3.4260
-10 -15 -4 -9.8558 -6.4762
-10 -15 -3 -7.3628 2.5513
-10 -15 -2 -10.1156 -11.0926
-10 -15 -1 -10.6418 -6.2729
-10 -14 -21 -3.0032 3.7705
-10 -14 -20 6.6823 5.5138
-10 -14 -19 0.8363 6.4033
-10 -14 -18 1.0255 -1.1285
-10 -14 -17 -1.4750 2.6332
-10 -14 -16 0.9081 -3.0027
-10 -14 -15 -2.8856 -8.8149
-10 -14 -14 7.4157 -4.4127
-10 -14 -13 2.0325 5.1216
-10 -14 -12 -4.7948 -5.0409
-10 -14 -11 1.8369 13.3610
-10 -14 -10 -0.2149 -0.6870
-10 -14 -9 -12.8237 -1.2164
-10 -14 -8 7.3726 -7.3582
-10 -14 -7 11.1462 -16.3310
-10 -14 -6 -0.8289 -7.6265
-10 -14 -5 0.9878 10.6391
-10 -14 -4 -6.9552 3.9196
-10 -14 -3 -3.5037 25.3530
-10 -14 -2 12.0693 0.8012
-10 -14 -1 -13.3711 -8.2068
-10 -13 -22 2.1227 -0.0065
-10 -13 -21 1.9999 -2.1046
-10 -13 -20 4.0179 -2.1223
-10 -13 -19 6.0753 1.8795
-10 -13 -18 1.6812 4.1265
-10 -13 -17 -5.2390 0.0784
-10 -13 -16 -6.2482 -3.0491
-10 -13 -15 1.6218 -0.2102
-10 -13 -14 -2.9140 2.5759
-10 -13 -13 3.0113 0.8784
-10 -13 -12 11.7471 6.5813
-10 -13 -11 0.2705 10.7422
-10 -13 -10 5.5338 -1.3982
-10 -13 -9 -16.4504 -1.1150
-10 -13 -8 -15.7063 5.5232
-10 -13 -7 5.0455 -7.5977
-10 -13 -6 -1.2142 5.5680
-10 -13 -5 10.3211 12.7460
-10 -13 -4 23.6988 -8.9185
-10 -13 -3 -1.8439 3.0975
-10 -13 -2 5.6511 10.8210
-10 -13 -1 -8.9694 -6.9877
-10 -12 -22 -3.4367 -0.2608
-10 -12 -21 3.5009 0.0545
-10 -12 -20 2.1074 -3.6710
-10 -12 -19 -2.2361 -1.3992
-10 -12 -18 -1.4330 6.7112
-10 -12 -17 -0.4682 0.0927
-10 -12 -16 -7.8271 2.9436
-10 -12 -15 -1.6387 1.2178
-10 -12 -14 3.5285 -9.1630
-10 -12 -13 6.3042 -5.7994
-10 -12 -12 -1.6193 -0.2171
-10 -12 -11 -5.7797 -5.1609
-10 -12 -10 -2.1738 17.7628
-10 -12 -9 -0.6735 0.5223
-10 -12 -8 1.1224 9.9384
-10 -12 -7 2.3713 -4.2434
-10 -12 -6 -13.1182 -15.5598
-10 -12 -5 5.8703 -9.4873
-10 -12 -4 5.9284 -8.7510
-10 -12 -3 -12.2788 -18.3467
-10 -12 -2 3.6205 24.1526
-10 -12 -1 3.3690 -0.3267
-10 -11 -23 0.2779 0.7741
-10 -11 -22 -1.9917 -0.4778
-10 -11 -21 -5.2962 -0.7532
-10 -11 -20 4.9426 -2.2732
-10 -11 -19 -8.2426 0.2056
-10 -11 -18 3.7367 9.1355
-10 -11 -17 3.5197 -2.7977
-10 -11 -16 -8.8884 0.2966
-10 -11 -15 -7.4322 -1.4169
-10 -11 -14 5.1318 -8.1631
-10 -11 -13 -9.0000 -0.0424
-10 -11 -12 2.7264 5.2924
-10 -11 -11 4.7189 -3.1934
-10 -11 -10 0.5777 -1.2307
-10 -11 -9 15.4945 -7.6604
-10 -11 -8 -6.1406 2.6127
-10 -11 -7 -9.8480 7.6705
-10 -11 -6 -11.7519 -1.3801
-10 -11 -5 -15.3996 4.7211
-10 -11 -4 -4.1797 -10.7235
-10 -11 -3 6.4092 1.3415
-10 -11 -2 4.9900 19.0671
-10 -11 -1 22.1315 4.4266
-10 -10 -24 -1.5265 -1.5791
-10 -10 -23 3.4442 -2.4774
-10 -10 -22 1.7445 -5.0786
-10 -10 -21 -5.4124 3.6241
-10 -10 -20 7.0801 0.1594
-10 -10 -19 3.7683 -3.6994
-10 -10 -18 2.1065 9.3327
-10 -10 -17 3.8851 -0.6821
-10 -10 -16 -5.4984 -3.1828
-10 -10 -15 5.0246 7.1235
-10 -10 -14 2.2838 -0.9864
-10 -10 -13 -7.2794 -2.4232
-10 -10 -12 11.0981 11.9321
-10 -10 -11 1.9311 -12.3497
-10 -10 -10 -11.8442 -14.0931
-10 -10 -9 12.0505 9.3742
-10 -10 -8 9.6813 -1.0598
-10 -10 -7 7.7328 22.5175
-10 -10 -6 -3.6088 17.3778
-10 -10 -5 -9.3040 3.3417
-10 -10 -4 16.6684 -12.1450
-10 -10 -3 9.3379 -2.8233
-10 -10 -2 3.3424 -2.9005
-10 -10 -1 5.3615 19.4127
-10 -9 -24 -0.8529 2.9299
-10 -9 -23 -2.0610 1.9971
-10 -9 -22 -2.6767 -2.2732
-10 -9 -21 4.9379 -0.4686
-10 -9 -20 9.1267 0.9448
-10 -9 -19 7.2632 -8.0230
-10 -9 -18 -7.9594 1.9698
-10 -9 -17 4.3486 3.5628
-10 -9 -16 -3.1163 -4.7376
-10 -9 -15 5.9381 8.1301
-10 -9 -14 8.5650 -4.1281
-10 -9 -13 -1.1150 -0.6473
-10 -9 -12 -9.3236 9.1932
-10 -9 -11 2.6306 -12.7177
-10 -9 -10 -20.0195 -4.9188
-10 -9 -9 12.6113 3.6529
-10 -9 -8 35.5763 -14.3817
-10 -9 -7 1.2469 5.5821
-10 -9 -6 -4.7362 -4.0031
-10 -9 -5 -0.0136 -9.3264
-10 -9 -4 -5.9134 -0.0307
-10 -9 -3 0.1431 -15.8625
-10 -9 -2 13.3796 1.3325
-10 -9 -1 -2.0671 7.1195
-10 -8 -25 -0.7364 8.8134
-10 -8 -24 1.5519 1.9427
-10 -8 -23 1.5109 2.1436
-10 -8 -22 0.9216 1.5377
-10 -8 -21 -5.9718 -11.6610
-10 -8 -20 -3.7150 -2.8948
-10 -8 -19 2.4158 5.8989
-10 -8 -18 -2.2342 3.8629
-10 -8 -17 2.4619 2.1896
-10 -8 -16 -0.6011 -8.9732
-10 -8 -15 -8.3655 -6.3111
-10 -8 -14 11.7296 -2.4679
-10 -8 -13 -5.9056 4.5820
-10 -8 -12 -18.1913 14.7255
-10 -8 -11 2.6641 2.5721
-10 -8 -10 -4.6151 -24.5494
-10 -8 -9 -2.0031 -4.7449
-10 -8 -8 -8.0457 -12.5108
-10 -8 -7 -16.5511 -9.4069
-10 -8 -6 13.3331 20.8084
-10 -8 -5 -9.2755 -5.8913
-10 -8 -4 -13.6853 -15.1231
-10 -8 -3 7.1883 1.6699
-10 -8 -2 1.0937 6.6097
-10 -8 -1 5.8385 -17.9486
-10 -7 -25 2.8552 -8.4988
-10 -7 -24 9.7293 0.7877
-10 -7 -23 -15.0519 -1.5461
-10 -7 -22 -2.5934 1.7913
-10 -7 -21 0.5211 -3.2159
-10 -7 -20 -4.5704 1.3654
-10 -7 -19 1.8093 0.5679
-10 -7 -18 11.2414 -3.3039
-10 -7 -17 -14.7895 5.3908
-10 -7 -16 -7.5275 -1.2913
-10 -7 -15 -2.7550 -5.0861
-10 -7 -14 8.4250 16.9756
-10 -7 -13 5.3223 -3.8225
-10 -7 -12 -2.7825 2.2234
-10 -7 -11 -9.3313 14.7285
-10 -7 -10 -5.1621 -2.7748
-10 -7 -9 -17.9959 9.8061
-10 -7 -8 13.0509 5.9926
-10 -7 -7 -3.8726 2.2952
-10 -7 -6 -4.8810 7.3528
-10 -7 -5 6.5403 -6.2645
-10 -7 -4 -3.5383 8.4134
-10 -7 -3 -2.2325 3.2545
-10 -7 -2 7.0513 -12.8466
-10 -7 -1 -11.3181 4.3936
-10 -6 -25 -3.7388 0.6601
-10 -6 -24 0.1880 -3.6945
-10 -6 -23 1.8210 -3.3815
-10 -6 -22 -10.1052 10.3230
-10 -6 -21 7.4873 -0.3739
-10 -6 -20 1.8771 -8.8630
-10 -6 -19 4.3571 2.2165
-10 -6 -18 -2.6329 1.6891
-10 -6 -17 0.1386 0.3521
-10 -6 -16 11.8988 17.3468
-10 -6 -15 -1.1727 -7.0766
-10 -6 -14 -12.4188 -6.1985
-10 -6 -13 25.7723 7.4000
-10 -6 -12 0.7576 1.2809
-10 -6 -11 0.2366 5.1849
-10 -6 -10 12.9699 8.4677
-10 -6 -9 -3.1724 -0.0743
-10 -6 -8 6.0775 13.2976
-10 -6 -7 2.8502 -8.3440
-10 -6 -6 -6.8751 0.7049
-10 -6 -5 8.7836 -0.4165
-10 -6 -4 -3.5107 -4.1675
-10 -6 -3 -5.8303 14.0595
-10 -6 -2 -5.5294 9.6840
-10 -6 -1 7.5003 4.6991
-10 -5 -26 -0.6686 0.0134
-10 -5 -25 -1.3095 6.0671
-10 -5 -24 -4.6518 9.1714
-10 -5 -23 7.3062 -0.6890
-10 -5 -22 2.0496 -6.5293
-10 -5 -21 4.0810 1.5909
-10 -5 -20 -9.1780 -7.6051
-10 -5 -19 -3.1369 -0.0812
-10 -5 -18 10.9936 -3.7388
-10 -5 -17 13.3008 1.2326
-10 -5 -16 -6.1419 4.9300
-10 -5 -15 11.6920 -9.9995
-10 -5 -14 -14.0108 -4.3620
-10 -5 -13 0.3704 0.3702
-10 -5 -12 9.4011 -26.0496
-10 -5 -11 -2.5037 10.0777
-10 -5 -10 9.7551 2.5580
-10 -5 -9 17.6010 -14.9468
-10 -5 -8 -18.4721 5.5129
-10 -5 -7 -1.9353 -6.9262
-10 -5 -6 -12.1749 -5.2621
-10 -5 -5 11.9829 16.3517
-10 -5 -4 3.1499 -2.5250
-10 -5 -3 4.6594 -12.5480
-10 -5 -2 1.2616 -4.8906
-10 -5 -1 -1.4043 4.5006
-10 -4 -26 12.4051 18.6878
-10 -4 -25 -5.9445 -7.9735
-10 -4 -24 0.6808 -5.1367
-10 -4 -23 1.2814 1.4951
-10 -4 -22 -4.0376 0.7623
-10 -4 -21 -14.9673 4.6098
-10 -4 -20 5.7677 0.7449
-10 -4 -19 0.1301 -9.5416
-10 -4 -18 6.9073 -5.5229
-10 -4 -17 -5.6884 -11.5168
-10 -4 -16 1.2166 -4.6869
-10 -4 -15 -0.5265 16.9744
-10 -4 -14 -13.5677 -6.5975
-10 -4 -13 -8.2297 6.9002
-10 -4 -12 9.6378 -13.3567
-10 -4 -11 -6.6643 -23.6881
-10 -4 -10 9.9826 6.2823
-10 -4 -9 -17.8265 3.5818
-10 -4 -8 -9.1780 -0.0807
-10 -4 -7 28.1443 17.9842
-10 -4 -6 7.1118 -14.7027
-10 -4 -5 -21.5836 -5.2143
-10 -4 -4 3.1184 -9.8401
-10 -4 -3 -1.4818 1.0733
-10 -4 -2 -0.8529 -1.9446
-10 -4 -1 5.8640 -2.3913
-10 -3 -26 -3.9878 -1.6751
-10 -3 -25 6.3924 -0.5129
-10 -3 -24 -10.7804 4.7357
-10 -3 -23 6.1434 2.3864
-10 -3 -22 7.5735 0.7986
-10 -3 -21 -10.8704 4.1437
-10 -3 -20 -2.3371 3.3138
-10 -3 -19 -6.0478 -13.6423
-10 -3 -18 -13.4198 -0.3666
-10 -3 -17 4.3808 4.3884
-10 -3 -16 5.8497 10.9595
-10 -3 -15 -0.2274 6.0256
-10 -3 -14 13.3621 -0.6129
-10 -3 -13 -28.9183 1.5184
-10 -3 -12 -5.1721 1.0595
-10 -3 -11 -1.0248 5.7744
-10 -3 -10 -0.3912 14.7568
-10 -3 -9 14.8607 -12.7255
-10 -3 -8 9.8127 -6.4771
-10 -3 -7 -6.5226 -0.3177
-10 -3 -6 8.5624 -1.5945
-10 -3 -5 -21.6554 13.2450
-10 -3 -4 7.3636 14.1991
-10 -3 -3 -3.4119 -14.3580
-10 -3 -2 11.1688 -11.5965
-10 -3 -1 2.1937 -3.1174
-10 -2 -26 -3.7265 -1.1541
-10 -2 -25 3.5168 1.9918
-10 -2 -24 -2.1897 -9.6617
-10 -2 -23 1.4329 12.1496
-10 -2 -22 1.7860 -4.4473
-10 -2 -21 0.5618 8.3253
-10 -2 -20 -12.0013 11.8841
-10 -2 -19 -3.3179 -1.2542
-10 -2 -18 -1.3116 0.8633
-10 -2 -17 19.1877 11.4088
-10 -2 -16 -4.4409 -17.2467
-10 -2 -15 -6.1364 5.0722
-10 -2 -14 -0.6639 21.3255
-10 -2 -13 9.7797 -6.7826
-10 -2 -12 -0.3028 21.8573
-10 -2 -11 -2.4206 -1.0964
-10 -2 -10 -6.6692 -18.1269
-10 -2 -9 -2.0575 -4.2925
-10 -2 -8 -15.9106 -6.7569
-10 -2 -7 3.4747 1.6449
-10 -2 -6 13.6311 19.4854
-10 -2 -5 8.2935 5.8281
-10 -2 -4 -17.0439 6.0683
-10 -2 -3 -13.8671 -22.8501
-10 -2 -2 -6.2336 -0.9656
-10 -2 -1 2.1263 -2.2578
-10 -1 -26 -2.5572 -3.8563
-10 -1 -25 -3.8504 7.6379
-10 -1 -24 3.3827 -3.4866
-10 -1 -23 2.6297 -1.8917
-10 -1 -22 10.5752 6.7629
-10 -1 -21 -7.0403 4.4348
-10 -1 -20 6.5289 0.2668
-10 -1 -19 9.8531 -5.2847
-10 -1 -18 -4.8164 -4.4870
-10 -1 -17 -0.2695 0.4098
-10 -1 -16 7.1606 -6.3962
-10 -1 -15 -14.4489 3.8264
-10 -1 -14 16.7984 -1.1764
-10 -1 -13 27.4977 -3.9422
-10 -1 -12 -24.9518 -2.1300
-10 -1 -11 4.5353 8.3778
-10 -1 -10 -15.8317 7.4808
-10 -1 -9 -28.7567 2.7169
-10 -1 -8 9.8370 -6.5038
-10 -1 -7 26.4113 -5.6534
-10 -1 -6 -1.9884 -2.0044
-10 -1 -5 -2.2850 8.7870
-10 -1 -4 -23.7569 2.4700
-10 -1 -3 -7.1359 11.0132
-10 -1 -2 -15.2040 7.5513
-10 -1 -1 16.4472 -0.0505
-9 -23 -6 3.6047 1.3650
-9 -23 -5 1.9838 1.3830
-9 -23 -4 -5.1032 -1.9656
-9 -23 -3 -3.6675 3.0447
-9 -23 -2 -2.0094 2.2552
-9 -23 -1 -0.9117 -5.1771
-9 -22 -10 4.9669 2.3378
-9 -22 -9 -1.1309 5.9656
-9 -22 -8 5.5467 3.5236
-9 -22 -7 -1.2538 -1.0383
-9 -22 -6 -0.5793 -1.3668
-9 -22 -5 -1.7947 0.3516
-9 -22 -4 2.2833 0.9748
-9 -22 -3 -2.0014 9.6505
-9 -22 -2 2.3009 -2.5483
-9 -22 -1 2.0098 3.0952
-9 -21 -12 -2.7332 -5.0620
-9 -21 -11 4.6357 -4.3862
-9 -21 -10 4.9838 -1.3628
-9 -21 -9 -1.7954 -4.7864
-9 -21 -8 -3.2032 0.8739
-9 -21 -7 -1.8617 -3.8090
-9 -21 -6 -8.7474 4.1402
-9 -21 -5 4.4489 -1.4626
-9 -21 -4 4.8781 -3.0754
-9 -21 -3 8.9366 -6.5934
-9 -21 -2 3.0168 2.6971
-9 -21 -1 -7.3197 2.8900
-9 -20 -14 -3.4935 1.2098
-9 -20 -13 1.6216 -4.8308
-9 -20 -12 -1.6129 -6.0642
-9 -20 -11 -5.9021 -2.4252
-9 -20 -10 -1.2695 -4.6688
-9 -20 -9 1.5099 -1.6247
-9 -20 -8 -0.8778 12.3065
-9 -20 -7 5.3024 0.1223
-9 -20 -6 -5.6359 -4.4425
-9 -20 -5 -1.9916 -4.8396
-9 -20 -4 -2.3113 -8.9400
-9 -20 -3 5.6925 -5.2863
-9 -20 -2 -1.1749 5.7933
-9 -20 -1 1.1246 8.8445
-9 -19 -16 2.0432 1.2426
-9 -19 -15 -1.1341 3.4382
-9 -19 -14 -1.7851 -1.3390
-9 -19 -13 2.1782 7.0873
-9 -19 -12 -4.2989 2.7779
-9 -19 -11 -0.5694 4.2732
-9 -19 -10 9.2047 0.3183
-9 -19 -9 5.0348 -5.1649
-9 -19 -8 1.2743 2.1116
-9 -19 -7 3.6478 7.3840
-9 -19 -6 -7.4954 -3.4718
-9 -19 -5 -12.1323 4.5806
-9 -19 -4 1.9613 -1.3954
-9 -19 -3 -0.9186 -0.4605
-9 -19 -2 8.7001 -2.6527
-9 -19 -1 4.1767 0.7239
-9 -18 -17 -0.3832 -0.2819
-9 -18 -16 -4.8458 4.6999
-9 -18 -15 1.8386 1.2559
-9 -18 -14 7.8257 2.5487
-9 -18 -13 -1.9303 3.3677
-9 -18 -12 2.1920 -1.7604
-9 -18 -11 -3.8439 1.0190
-9 -18 -10 0.2580 -0.6407
-9 -18 -9 -0.4063 -2.0360
-9 -18 -8 -3.6279 0.8972
-9 -18 -7 3.5174 11.5976
-9 -18 -6 6.0140 -0.5573
-9 -18 -5 -4.8511 6.4264
-9 -18 -4 5.1153 0.7327
-9 -18 -3 -8.7175 -6.2404
-9 -18 -2 -7.0817 -5.1590
-9 -18 -1 -1.4264 -7.1982
-9 -17 -18 4.9745 5.8035
-9 -17 -17 1.7036 0.2226
-9 -17 -16 -4.5352 -10.5021
-9 -17 -15 2.8529 -0.9710
-9 -17 -14 0.0750 -2.9886
-9 -17 -13 -7.0387 -7.7947
-9 -17 -12 2.2479 4.5241
-9 -17 -11 -2.2911 -2.5321
-9 -17 -10 -3.1570 4.2024
-9 -17 -9 0.2033 2.1035
-9 -17 -8 0.5072 -4.8862
-9 -17 -7 -0.0611 -5.2109
-9 -17 -6 8.5922 -5.3262
-9 -17 -5 -0.9956 -0.5993
-9 -17 -4 -1.3175 14.8375
-9 -17 -3 -2.1472 4.3691
-9 -17 -2 -14.1769 12.6197
-9 -17 -1 1.3501 -3.6845
-9 -16 -19 3.5399 -0.5489
-9 -16 -18 2.6658 -0.0000
-9 -16 -17 1.8107 -2.3141
-9 -16 -16 -1.1953 -5.1620
-9 -16 -15 -11.3858 4.8121
-9 -16 -14 5.0394 -5.5869
-9 -16 -13 0.1465 -0.5018
-9 -16 -12 -0.4780 1.9094
-9 -16 -11 14.2013 -6.8243
-9 -16 -10 -1.0966 2.5210
-9 -16 -9 -3.3525 3.7162
-9 -16 -8 -1.2034 -8.6315
-9 -16 -7 -11.3123 -8.5504
-9 -16 -6 1.3812 4.2102
-9 -16 -5 17.2362 -5.1734
-9 -16 -4 13.8633 11.7855
-9 -16 -3 10.0255 4.8655
-9 -16 -2 -12.0465 5.5385
-9 -16 -1 -0.2838 9.1425
-9 -15 -21 -2.4367 2.2601
-9 -15 -20 0.8044 -2.7996
-9 -15 -19 -0.4885 -4.3448
-9 -15 -18 -0.0437 -1.1459
-9 -15 -17 -0.6253 8.6594
-9 -15 -16 0.0043 6.9837
-9 -15 -15 -0.2302 5.8546
-9 -15 -14 4.3170 6.5212
-9 -15 -13 0.4460 -12.4190
-9 -15 -12 2.9657 -2.9600
-9 -15 -11 5.7263 4.3109
-9 -15 -10 -4.9955 -9.1905
-9 -15 -9 2.1598 13.8274
-9 -15 -8 -0.4202 11.8981
-9 -15 -7 -6.8292 -11.7053
-9 -15 -6 4.0240 -6.8442
-9 -15 -5 8.7276 -15.0298
-9 -15 -4 -2.5187 -14.2086
-9 -15 -3 11.8146 6.9424
-9 -15 -2 2.9274 0.1284
-9 -15 -1 -11.5741 3.7005
-9 -14 -22 -3.4776 -4.0653
-9 -14 -21 -3.4845 -3.5602
-9 -14 -20 -7.8974 6.5226
-9 -14 -19 -0.0596 1.9067
-9 -14 -18 -1.3355 -1.3704
-9 -14 -17 6.6084 3.6222
-9 -14 -16 7.8380 7.3402
-9 -14 -15 -1.0514 -7.4563
-9 -14 -14 -12.3897 -1.0122
-9 -14 -13 -2.9441 0.7259
-9 -14 -12 -14.3890 5.7613
-9 -14 -11 4.3447 0.3796
-9 -14 -10 11.0335 -0.3944
-9 -14 -9 -9.1181 4.3006
-9 -14 -8 4.2384 2.4574
-9 -14 -7 -2.3795 2.1193
-9 -14 -6 -25.5343 0.6895
-9 -14 -5 -5.4116 -8.2353
-9 -14 -4 -4.9426 -7.9494
-9 -14 -3 -6.6582 5.4927
-9 -14 -2 12.1925 -9.5852
-9 -14 -1 -1.2587 12.2794
-9 -13 -22 3.8581 0.3869
-9 -13 -21 -5.1159 4.2111
-9 -13 -20 -1.3864 2.6266
-9 -13 -19 10.9481 -1.9357
-9 -13 -18 -0.1098 -11.9911
-9 -13 -17 -9.5309 -4.9987
-9 -13 -16 0.9912 -0.3840
-9 -13 -15 2.9746 1.8994
-9 -13 -14 -8.4538 8.7604
-9 -13 -13 1.7628 8.4476
-9 -13 -12 2.2018 -9.8957
-9 -13 -11 -6.0770 3.7006
-9 -13 -10 1.4436 -6.0318
-9 -13 -9 0.1268 -9.8545
-9 -13 -8 5.3824 13.6373
-9 -13 -7 2.4607 8.9608
-9 -13 -6 -7.5182 9.5085
-9 -13 -5 -8.3471 22.4683
-9 -13 -4 -5.7657 -4.7034
-9 -13 -3 9.4744 -6.9331
-9 -13 -2 17.8336 1.2306
-9 -13 -1 -2.8375 -12.3868
-9 -12 -23 -3.1503 2.6761
-9 -12 -22 9.1677 -0.5756
-9 -12 -21 0.7233 -12.9502
-9 -12 -20 -1.3764 0.4588
-9 -12 -19 -5.4865 3.1668
-9 -12 -18 4.2590 -3.6516
-9 -12 -17 -3.7496 -2.7484
-9 -12 -16 9.6079 -0.2187
-9 -12 -15 5.0028 -2.7855
-9 -12 -14 9.4822 0.0085
-9 -12 -13 5.5817 6.7521
-9 -12 -12 3.1321 -12.2820
-9 -12 -11 -18.4379 2.1431
-9 -12 -10 7.3387 0.4465
-9 -12 -9 6.9173 -19.2947
-9 -12 -8 5.4220 -0.4809
-9 -12 -7 22.7979 12.2636
-9 -12 -6 13.9758 6.0077
-9 -12 -5 -2.6353 0.4344
-9 -12 -4 3.2806 -14.6229
-9 -12 -3 -13.5215 -7.9949
-9 -12 -2 -7.5355 3.0029
-9 -12 -1 11.9289 -0.9983
-9 -11 -24 0.8253 -8.0435
-9 -11 -23 -11.4312 3.6335
-9 -11 -22 -0.5612 3.3138
-9 -11 -21 -0.7234 -2.8002
-9 -11 -20 0.2475 -0.9299
-9 -11 -19 -1.3090 0.0879
-9 -11 -18 -0.4157 2.1654
-9 -11 -17 -3.5043 -1.4561
-9 -11 -16 1.8949 -1.1228
-9 -11 -15 5.9813 -10.8377
-9 -11 -14 2.5824 -0.4716
-9 -11 -13 2.3625 5.2135
-9 -11 -12 -1.7752 11.9986
-9 -11 -11 -18.8491 -0.7740
-9 -11 -10 4.0505 4.6551
-9 -11 -9 11.0311 -23.3297
-9 -11 -8 -7.2519 -10.7443
-9 -11 -7 13.4111 -4.8141
-9 -11 -6 -5.0117 -10.8690
-9 -11 -5 -15.2716 -0.0121
-9 -11 -4 3.4702 18.6315
-9 -11 -3 -5.4328 -5.5768
-9 -11 -2 2.0593 0.0600
-9 -11 -1 9.3414 1.8907
-9 -10 -24 4.1651 5.3510
-9 -10 -23 -2.0322 4.6724
-9 -10 -22 -0.6974 0.3073
-9 -10 -21 -7.9230 3.4260
-9 -10 -20 -2.2987 0.5842
-9 -10 -19 4.9766 0.4875
-9 -10 -18 -7.6123 5.2421
-9 -10 -17 -0.7512 3.9040
-9 -10 -16 -6.9542 -6.1679
-9 -10 -15 -3.6773 -6.0811
-9 -10 -14 -2.7767 2.5792
-9 -10 -13 11.0063 16.0290
-9 -10 -12 -0.6917 13.6544
-9 -10 -11 -5.4674 -11.6518
-9 -10 -10 -20.2033 4.2548
-9 -10 -9 -4.7238 -5.0322
-9 -10 -8 -17.9132 7.0446
-9 -10 -7 1.5430 13.6079
-9 -10 -6 1.9395 -11.6436
-9 -10 -5 -3.9134 10.1096
-9 -10 -4 5.7081 7.8077
-9 -10 -3 18.7657 -19.1930
-9 -10 -2 -15.2923 5.5488
-9 -10 -1 -9.7838 -0.3379
-9 -9 -25 9.4509 -6.3999
-9 -9 -24 7.0240 -1.3620
-9 -9 -23 2.7072 12.2720
-9 -9 -22 -5.2866 3.6768
-9 -9 -21 -0.8689 -3.5164
-9 -9 -20 5.4119 10.1116
-9 -9 -19 6.9493 -4.8870
-9 -9 -18 -9.4965 -3.9964
-9 -9 -17 1.2496 10.4934
-9 -9 -16 -4.3144 -4.8550
-9 -9 -15 -1.4756 -2.4380
-9 -9 -14 12.6087 0.4176
-9 -9 -13 -0.2043 -3.4367
-9 -9 -12 -0.8432 -2.4435
-9 -9 -11 2.7143 15.4222
-9 -9 -10 -11.6068 4.8161
-9 -9 -9 13.9948 7.4539
-9 -9 -8 3.5023 -3.7483
-9 -9 -7 -2.0459 16.4402
-9 -9 -6 1.0650 -12.4118
-9 -9 -5 -15.5329 -11.2378
-9 -9 -4 11.5133 -4.1541
-9 -9 -3 4.0975 4.5412
-9 -9 -2 -25.0560 1.2394
-9 -9 -1 0.3303 22.5366
-9 -8 -25 6.2260 -2.3466
-9 -8 -24 -4.6701 0.2301
-9 -8 -23 1.1356 1.5718
-9 -8 -22 14.1131 2.8684
-9 -8 -21 -3.5370 -10.3576
-9 -8 -20 -6.4002 4.6567
-9 -8 -19 9.0367 -5.6522
-9 -8 -18 -6.0181 -0.1552
-9 -8 -17 -3.0377 4.7757
-9 -8 -16 15.6399 -5.3233
-9 -8 -15 -5.8941 1.2323
-9 -8 -14 4.2440 -3.6766
-9 -8 -13 7.5997 -20.6497
-9 -8 -12 -3.5250 11.9232
-9 -8 -11 2.6615 1.5975
-9 -8 -10 19.2643 -20.8879
-9 -8 -9 5.2640 8.1111
-9 -8 -8 2.4984 -7.4826
-9 -8 -7 -10.5173 10.1731
-9 -8 -6 -2.2492 2.1977
-9 -8 -5 -19.5139 -11.0932
-9 -8 -4 6.4777 13.8373
-9 -8 -3 15.2210 8.7763
-9 -8 -2 3.6913 -2.5390
-9 -8 -1 -14.9242 5.6766
-9 -7 -26 -0.2321 -0.8931
-9 -7 -25 -2.2526 -1.5144
-9 -7 -24 4.9462 -5.0465
-9 -7 -23 -9.7925 -4.6021
-9 -7 -22 3.7044 -6.3176
-9 -7 -21 -6.9718 -7.6404
-9 -7 -20 -9.5870 10.5634
-9 -7 -19 6.4863 7.1919
-9 -7 -18 5.6813 -14.0889
-9 -7 -17 -1.6576 -0.5284
-9 -7 -16 2.5474 -2.6644
-9 -7 -15 -11.2407 -13.8979
-9 -7 -14 2.4670 17.4130
-9 -7 -13 -2.1876 6.2255
-9 -7 -12 -15.5918 -7.6609
-9 -7 -11 20.9552 -6.1407
-9 -7 -10 -2.3023 -9.6930
-9 -7 -9 -13.2500 -7.6098
-9 -7 -8 17.6155 21.8345
-9 -7 -7 -7.9986 11.3619
-9 -7 -6 11.0176 10.5990
-9 -7 -5 16.4821 -11.3852
-9 -7 -4 -11.8105 1.8008
-9 -7 -3 1.8956 -13.6728
-9 -7 -2 5.3450 11.1552
-9 -7 -1 -7.3170 16.8126
-9 -6 -26 8.2365 -4.0725
-9 -6 -25 -6.8119 7.4181
-9 -6 -24 -2.6745 -3.6848
-9 -6 -23 -8.0666 1.2570
-9 -6 -22 1.8650 15.9167
-9 -6 -21 8.2310 0.0304
-9 -6 -20 2.0867 -12.8360
-9 -6 -19 -4.4944 4.9875
-9 -6 -18 -4.8027 -4.6240
-9 -6 -17 -16.8927 4.0466
-9 -6 -16 3.8308 2.1981
-9 -6 -15 11.9565 3.6301
-9 -6 -14 -2.2417 13.9783
-9 -6 -13 9.5250 -1.5621
-9 -6 -12 -14.7420 -11.0505
-9 -6 -11 -23.4665 8.8141
-9 -6 -10 7.5775 -2.8199
-9 -6 -9 14.1110 16.6049
-9 -6 -8 12.7061 -8.8901
-9 -6 -7 15.6427 -36.6366
-9 -6 -6 -11.3014 21.6137
-9 -6 -5 -8.3757 8.4647
-9 -6 -4 -2.1489 -12.5591
-9 -6 -3 20.6473 9.7497
-9 -6 -2 -2.8881 1.7969
-9 -6 -1 4.8567 -7.7340
-9 -5 -26 -4.4519 2.2721
-9 -5 -25 11.2810 8.4989
-9 -5 -24 14.1558 13.0880
-9 -5 -23 1.8864 -2.5458
-9 -5 -22 -9.3069 0.1536
-9 -5 -21 14.3096 3.8549
-9 -5 -20 -7.9756 1.0693
-9 -5 -19 -9.6933 9.6984
-9 -5 -18 6.3796 13.4291
-9 -5 -17 4.2996 -7.7584
-9 -5 -16 1.1149 -0.2193
-9 -5 -15 4.5510 -12.2297
-9 -5 -14 -10.0667 -10.0434
-9 -5 -13 3.4300 21.9180
-9 -5 -12 4.4686 6.1837
-9 -5 -11 -0.2699 0.3624
-9 -5 -10 0.9568 -10.4262
-9 -5 -9 -22.7167 -30.4797
-9 -5 -8 -2.0581 -7.5655
-9 -5 -7 -2.1104 12.9387
-9 -5 -6 -4.8780 -5.1349
-9 -5 -5 23.8906 6.1506
-9 -5 -4 -5.2910 -6.5351
-9 -5 -3 -19.3413 -3.1634
-9 -5 -2 10.1443 -17.7197
-9 -5 -1 5.6406 7.8951
-9 -4 -26 -0.4914 -5.1329
-9 -4 -25 4.4982 -2.5886
-9 -4 -24 -0.4958 0.2875
-9 -4 -23 7.4553 -3.3490
-9 -4 -22 -9.2178 4.5141
-9 -4 -21 3.6724 8.3173
-9 -4 -20 3.0978 -1.7329
-9 -4 -19 5.2446 2.5857
-9 -4 -18 1.5330 2.3944
-9 -4 -17 1.2759 -12.0590
-9 -4 -16 -24.9446 11.7852
-9 -4 -15 9.2948 -2.3034
-9 -4 -14 8.0898 -16.5712
-9 -4 -13 1.4662 0.9636
-9 -4 -12 14.3880 1.9042
-9 -4 -11 -15.6549 2.9047
-9 -4 -10 -28.4749 14.5146
-9 -4 -9 -2.6442 1.4261
-9 -4 -8 -11.5597 3.6417
-9 -4 -7 10.6897 -14.4873
-9 -4 -6 12.8685 -10.7986
-9 -4 -5 -12.7613 10.3804
-9 -4 -4 -10.6808 3.6450
-9 -4 -3 -11.4770 1.5848
-9 -4 -2 -1.8144 -10.6935
-9 -4 -1 -14.8138 -4.3286
-9 -3 -27 -8.4976 -11.6576
-9 -3 -26 -5.1594 -8.4376
-9 -3 -25 -4.3714 -6.7699
-9 -3 -24 -0.4024 -6.5562
-9 -3 -23 2.0911 -3.8796
-9 -3 -22 4.9648 0.4584
-9 -3 -21 -3.3649 -1.4373
-9 -3 -20 7.0443 -13.1068
-9 -3 -19 -1.7543 -6.7255
-9 -3 -18 6.2421 4.1840
-9 -3 -17 -4.7668 10.6554
-9 -3 -16 -9.7406 -4.3417
-9 -3 -15 5.5353 9.9062
-9 -3 -14 -6.3511 -22.2763
-9 -3 -13 -3.7981 -3.7095
-9 -3 -12 27.9332 22.3681
-9 -3 -11 8.4594 7.6763
-9 -3 -10 -5.3545 27.5098
-9 -3 -9 1.8096 17.1477
-9 -3 -8 -10.2914 -30.4173
-9 -3 -7 3.1824 0.4370
-9 -3 -6 8.0056 11.5360
-9 -3 -5 -3.0347 3.4447
-9 -3 -4 -5.4156 17.6101
-9 -3 -3 3.7593 10.5231
-9 -3 -2 11.8590 8.3845
-9 -3 -1 -2.4646 -0.2281
-9 -2 -27 0.8116 -2.7279
-9 -2 -26 -11.1349 7.3477
-9 -2 -25 -2.7395 -8.4783
-9 -2 -24 13.4032 -11.2508
-9 -2 -23 -1.1796 2.2931
-9 -2 -22 -0.3317 -1.0737
-9 -2 -21 -9.7159 -11.0978
-9 -2 -20 -2.1109 -3.1397
-9 -2 -19 1.7680 2.9188
-9 -2 -18 13.9181 7.6996
-9 -2 -17 1.3840 0.5419
-9 -2 -16 5.1768 4.1344
-9 -2 -15 -19.6936 9.7757
-9 -2 -14 9.9083 -17.8634
-9 -2 -13 -5.2329 -7.8960
-9 -2 -12 27.0995 -6.1880
-9 -2 -11 35.6108 2.6810
-9 -2 -10 -7.5281 16.6831
-9 -2 -9 -6.8326 -2.2235
-9 -2 -8 8.9477 -18.7684
-9 -2 -7 -21.2820 17.2389
-9 -2 -6 26.5222 13.5558
-9 -2 -5 20.7414 -11.1628
-9 -2 -4 -1.2683 -10.7775
-9 -2 -3 12.8754 4.8377
-9 -2 -2 12.0536 0.1916
-9 -2 -1 0.7126 -4.2511
-9 -1 -27 1.8861 11.7335
-9 -1 -26 -4.1311 -8.8866
-9 -1 -25 1.1306 9.6620
-9 -1 -24 -7.9749 -3.6446
-9 -1 -23 -4.7305 9.7968
-9 -1 -22 4.9678 16.8118
-9 -1 -21 -1.2857 4.0328
-9 -1 -20 -8.0251 -4.8741
-9 -1 -19 8.6437 -2.9706
-9 -1 -18 5.1893 -7.2109
-9 -1 -17 6.0302 2.4057
-9 -1 -16 -16.6240 16.0242
-9 -1 -15 -10.0574 -7.8463
-9 -1 -14 -3.5334 3.6282
-9 -1 -13 -4.5979 -33.3226
-9 -1 -12 5.0990 -11.8946
-9 -1 -11 -1.7249 -12.4699
-9 -1 -10 -3.9245 -6.7621
-9 -1 -9 3.6795 21.5327
-9 -1 -8 2.0920 -0.0453
-9 -1 -7 0.9181 -26.5039
-9 -1 -6 5.2234 11.7575
-9 -1 -5 -8.2670 -20.4836
-9 -1 -4 -9.1512 -16.1201
-9 -1 -3 -0.0254 0.0622
-9 -1 -2 15.2309 -14.1869
-9 -1 -1 6.5862 8.0100
-8 -24 -2 -3.7481 2.2897
-8 -24 -1 -1.6906 1.8130
-8 -23 -8 4.8284 2.2265
-8 -23 -7 0.9271 2.8777
-8 -23 -6 -0.7821 4.0475
-8 -23 -5 2.1806 3.5351
-8 -23 -4 5.5771 -4.9041
-8 -23 -3 -2.4218 6.8038
-8 -23 -2 1.5750 3.8701
-8 -23 -1 5.0146 8.9105
-8 -22 -11 -0.7678 4.3842
-8 -22 -10 -1.4025 -2.6490
-8 -22 -9 0.5015 -6.1994
-8 -22 -8 11.6588 2.8910
-8 -22 -7 2.2382 -1.9729
-8 -22 -6 -3.7470 -2.0656
-8 -22 -5 -0.2713 -0.2253
-8 -22 -4 2.6495 -1.0753
-8 -22 -3 -0.1764 -4.6420
-8 -22 -2 9.3886 5.8197
-8 -22 -1 5.4374 0.5314
-8 -21 -13 2.1652 1.5395
-8 -21 -12 5.0170 1.4703
-8 -21 -11 -4.3708 -0.0637
-8 -21 -10 4.0766 -7.4470
-8 -21 -9 -7.0289 -5.7974
-8 -21 -8 -5.5907 -1.2718
-8 -21 -7 6.7558 -6.5616
-8 -21 -6 -3.7198 4.8400
-8 -21 -5 -9.3784 1.6143
-8 -21 -4 -1.1027 -4.6032
-8 -21 -3 6.4316 -11.4657
-8 -21 -2 -1.3038 -3.9509
-8 -21 -1 -2.4409 -7.5942
-8 -20 -15 -0.1744 1.2255
-8 -20 -14 0.2266 0.5207
-8 -20 -13 -0.4143 1.9068
-8 -20 -12 -4.2887 -3.7387
-8 -20 -11 -2.0800 1.2382
-8 -20 -10 -1.5542 13.4556
-8 -20 -9 -5.1298 -3.9815
-8 -20 -8 -3.5166 2.1356
-8 -20 -7 7.2042 4.9616
-8 -20 -6 1.1943 -1.6156
-8 -20 -5 1.6018 2.3369
-8 -20 -4 -5.0119 0.3256
-8 -20 -3 -7.1046 1.8549
-8 -20 -2 -6.9591 2.3426
-8 -20 -1 -3.3433 4.0524
-8 -19 -16 -1.0707 1.7436
-8 -19 -15 4.2031 -2.9470
-8 -19 -14 -5.6746 7.1634
-8 -19 -13 -3.7928 3.7252
-8 -19 -12 6.1287 -3.0755
-8 -19 -11 -0.6133 2.7583
-8 -19 -10 4.2954 7.6684
-8 -19 -9 10.8931 1.0802
-8 -19 -8 -11.4594 -2.1610
-8 -19 -7 -2.2767 0.3620
-8 -19 -6 7.5316 -8.2888
-8 -19 -5 6.6896 7.7737
-8 -19 -4 5.0360 9.7526
-8 -19 -3 -0.6379 13.5044
-8 -19 -2 4.1718 0.7005
-8 -19 -1 0.4624 0.4344
-8 -18 -18 -4.4798 -5.3828
-8 -18 -17 -1.4611 0.6466
-8 -18 -16 3.3487 -2.9489
-8 -18 -15 6.7895 3.9009
-8 -18 -14 -7.0146 -4.8537
-8 -18 -13 3.0336 2.9341
-8 -18 -12 2.3704 -6.8091
-8 -18 -11 -3.5991 -14.9516
-8 -18 -10 4.3843 2.4922
-8 -18 -9 2.1639 5.1109
-8 -18 -8 -13.2542 -3.7321
-8 -18 -7 -5.9385 4.1989
-8 -18 -6 9.2116 -13.3568
-8 -18 -5 4.0908 -13.3099
-8 -18 -4 9.2798 2.3876
-8 -18 -3 2.3776 1.8920
-8 -18 -2 -1.2089 3.0455
-8 -18 -1 -3.2064 -3.0161
-8 -17 -19 -3.9270 2.4983
-8 -17 -18 -1.8832 -0.8232
-8 -17 -17 0.4558 -0.8533
-8 -17 -16 8.8713 -1.5469
-8 -17 -15 1.9785 1.4733
-8 -17 -14 0.2710 -4.7139
-8 -17 -13 -11.6918 4.1792
-8 -17 -12 1.2577 -7.9030
-8 -17 -11 -1.0208 -1.8196
-8 -17 -10 -4.1326 5.8594
-8 -17 -9 11.0488 -0.5231
-8 -17 -8 2.7646 -0.5064
-8 -17 -7 -17.5501 1.3174
-8 -17 -6 -4.1324 -9.8258
-8 -17 -5 -10.2203 -11.9588
-8 -17 -4 4.6354 3.5852
-8 -17 -3 11.4457 -7.7938
-8 -17 -2 -10.1600 0.6592
-8 -17 -1 -5.5322 2.0995
-8 -16 -20 4.2189 7.8463
-8 -16 -19 -1.3023 3.5482
-8 -16 -18 -0.9032 -3.4889
-8 -16 -17 3.4809 -9.1394
-8 -16 -16 3.2020 -3.4788
-8 -16 -15 -6.0312 2.8620
-8 -16 -14 1.8947 12.1042
-8 -16 -13 -1.3901 3.6460
-8 -16 -12 6.0648 8.1633
-8 -16 -11 -3.2315 -4.9059
-8 -16 -10 4.0044 -1.7345
-8 -16 -9 3.3850 7.1772
-8 -16 -8 0.0222 -0.8316
-8 -16 -7 -2.1225 11.3732
-8 -16 -6 0.1814 16.3915
-8 -16 -5 -8.3751 -10.2798
-8 -16 -4 -1.6721 5.9500
-8 -16 -3 4.1212 4.1103
-8 -16 -2 -4.2038 -11.0994
-8 -16 -1 12.0726 1.9607
-8 -15 -21 16.0208 7.1260
-8 -15 -20 -0.1879 -2.2780
-8 -15 -19 -3.8285 -7.6708
-8 -15 -18 -11.1407 0.6671
-8 -15 -17 -4.6671 5.7980
-8 -15 -16 0.8296 -3.3170
-8 -15 -15 8.6331 -0.2072
-8 -15 -14 6.7126 9.7001
-8 -15 -13 3.6192 -4.4140
-8 -15 -12 -8.9935 2.0810
-8 -15 -11 4.6989 1.8406
-8 -15 -10 -2.5008 1.1839
-8 -15 -9 -1.7113 -4.9871
-8 -15 -8 5.8618 -0.2369
-8 -15 -7 4.3155 4.0708
-8 -15 -6 11.1674 9.7792
-8 -15 -5 10.2222 5.3401
-8 -15 -4 -21.6070 4.1277
-8 -15 -3 1.8797 -10.1493
-8 -15 -2 -0.2387 -15.9456
-8 -15 -1 -12.9909 3.2245
-8 -14 -22 -1.2217 -6.0688
-8 -14 -21 -7.1119 -1.2240
-8 -14 -20 2.3084 2.9649
-8 -14 -19 -1.1459 13.8587
-8 -14 -18 -4.9589 3.0831
-8 -14 -17 -1.1331 -1.2359
-8 -14 -16 2.7698 -7.3797
-8 -14 -15 0.3246 -7.5087
-8 -14 -14 0.5838 -3.8283
-8 -14 -13 5.0068 -0.5369
-8 -14 -12 -12.7059 -4.2230
-8 -14 -11 0.9819 4.7299
-8 -14 -10 -6.6571 -3.5957
-8 -14 -9 -8.8591 -0.9588
-8 -14 -8 3.9751 -6.5343
-8 -14 -7 13.5575 -18.0365
-8 -14 -6 1.2646 -4.1361
-8 -14 -5 -1.8162 3.1992
-8 -14 -4 -18.2103 3.6121
-8 -14 -3 -5.6525 21.1804
-8 -14 -2 -3.8039 -3.9664
-8 -14 -1 -3.1505 -10.3092
-8 -13 -23 -8.7309 4.7543
-8 -13 -22 0.4178 3.7694
-8 -13 -21 -1.3145 -3.2654
-8 -13 -20 4.7840 4.3058
-8 -13 -19 -0.5276 1.3360
-8 -13 -18 4.8987 4.3027
-8 -13 -17 -9.6215 -4.7438
-8 -13 -16 -1.5242 -3.9115
-8 -13 -15 -4.8581 -7.7850
-8 -13 -14 -4.3413 -0.0742
-8 -13 -13 2.4445 5.5848
-8 -13 -12 9.4092 4.6399
-8 -13 -11 -5.1517 11.3728
-8 -13 -10 6.7046 -10.8722
-8 -13 -9 -3.2859 -4.6174
-8 -13 -8 -7.2636 -1.0000
-8 -13 -7 -15.1504 -10.2492
-8 -13 -6 -1.7712 6.3389
-8 -13 -5 20.4398 15.4255
-8 -13 -4 21.6126 -2.8979
-8 -13 -3 -7.4993 13.4349
-8 -13 -2 3.2737 -3.2434
-8 -13 -1 -7.7869 -6.5507
-8 -12 -24 11.7385 -6.5595
-8 -12 -23 -1.4600 7.0229
-8 -12 -22 -1.5919 -2.1018
-8 -12 -21 5.9492 -4.5319
-8 -12 -20 2.0177 -5.7453
-8 -12 -19 2.1158 3.1433
-8 -12 -18 2.6924 -1.9139
-8 -12 -17 -3.6665 -3.6496
-8 -12 -16 -10.3870 11.4719
-8 -12 -15 5.0377 2.3292
-8 -12 -14 11.1958 -5.4543
-8 -12 -13 11.0611 2.5702
-8 -12 -12 3.9209 -4.5342
-8 -12 -11 -11.4077 -8.2315
-8 -12 -10 6.2031 10.5122
-8 -12 -9 -4.7099 9.2500
-8 -12 -8 5.8010 14.3268
-8 -12 -7 3.3576 2.4607
-8 -12 -6 -3.6498 -10.3833
-8 -12 -5 15.2632 -18.0232
-8 -12 -4 8.8298 -9.7913
-8 -12 -3 -13.8635 2.3888
-8 -12 -2 14.6546 15.3639
-8 -12 -1 -11.8740 -5.3032
-8 -11 -24 6.8349 -7.4958
-8 -11 -23 5.2551 0.0470
-8 -11 -22 3.2683 4.7399
-8 -11 -21 1.6585 -1.9189
-8 -11 -20 -2.0061 -11.5648
-8 -11 -19 -0.4913 8.2121
-8 -11 -18 7.1298 6.8807
-8 -11 -17 -0.2812 0.0337
-8 -11 -16 -5.2923 -0.9227
-8 -11 -15 14.1013 -0.4056
-8 -11 -14 -6.7989 -13.5868
-8 -11 -13 -17.8402 7.4663
-8 -11 -12 1.0483 2.8767
-8 -11 -11 6.4919 -3.6799
-8 -11 -10 0.8359 7.2287
-8 -11 -9 14.2054 -10.4605
-8 -11 -8 -0.1575 5.3066
-8 -11 -7 -8.0658 1.5476
-8 -11 -6 -27.3631 -4.8314
-8 -11 -5 -12.5254 -4.0434
-8 -11 -4 -2.9794 -14.4827
-8 -11 -3 13.0919 3.8105
-8 -11 -2 -3.9030 27.2795
-8 -11 -1 -5.6918 -15.0038
-8 -10 -25 -4.9448 1.1017
-8 -10 -24 3.0359 4.9297
-8 -10 -23 -1.9896 -7.6073
-8 -10 -22 -2.6730 5.6351
-8 -10 -21 1.3113 3.1401
-8 -10 -20 1.3489 3.6976
-8 -10 -19 -5.8920 0.2020
-8 -10 -18 5.1738 12.0680
-8 -10 -17 -1.8652 -9.1774
-8 -10 -16 -4.3437 1.0928
-8 -10 -15 3.0694 7.6387
-8 -10 -14 -6.2375 -0.1431
-8 -10 -13 -14.6459 8.0481
-8 -10 -12 15.1605 8.0076
-8 -10 -11 -6.1394 -21.2000
-8 -10 -10 -13.4523 -12.0800
-8 -10 -9 20.1112 3.4424
-8 -10 -8 -6.3606 9.4637
-8 -10 -7 -3.5908 17.8458
-8 -10 -6 -8.7339 13.1915
-8 -10 -5 -6.7462 3.5169
-8 -10 -4 15.3412 -13.4514
-8 -10 -3 7.2721 3.7081
-8 -10 -2 -3.8728 6.9181
-8 -10 -1 0.4647 7.8204
-8 -9 -25 -10.7221 5.2577
-8 -9 -24 -0.3617 -0.1497
-8 -9 -23 -7.3351 -4.9914
-8 -9 -22 -5.6012 0.4313
-8 -9 -21 3.1430 1.5535
-8 -9 -20 7.3134 4.7719
-8 -9 -19 -1.3415 -4.3155
-8 -9 -18 -2.9979 0.3260
-8 -9 -17 2.5455 -9.5177
-8 -9 -16 -10.2000 5.1213
-8 -9 -15 5.1477 6.3074
-8 -9 -14 21.0597 1.9251
-8 -9 -13 -4.0419 4.5547
-8 -9 -12 -12.0111 7.4303
-8 -9 -11 -6.1867 -28.5041
-8 -9 -10 -0.9001 9.7971
-8 -9 -9 18.3669 13.4330
-8 -9 -8 20.9631 -14.1761
-8 -9 -7 8.2249 18.4346
-8 -9 -6 9.8684 -7.2985
-8 -9 -5 1.0511 -14.6425
-8 -9 -4 1.0295 9.8846
-8 -9 -3 -2.4139 2.7457
-8 -9 -2 26.5342 3.1131
-8 -9 -1 1.8236 18.9801
-8 -8 -26 3.8397 -5.9405
-8 -8 -25 4.0442 7.6308
-8 -8 -24 -4.8829 2.4109
-8 -8 -23 -3.0218 0.8164
-8 -8 -22 9.0500 -10.6157
-8 -8 -21 2.8114 -9.2455
-8 -8 -20 -5.8885 -10.2772
-8 -8 -19 2.6892 5.3463
-8 -8 -18 -5.0322 0.6133
-8 -8 -17 1.7503 6.4115
-8 -8 -16 3.2163 -16.3512
-8 -8 -15 13.4924 -4.9424
-8 -8 -14 7.0183 -6.4717
-8 -8 -13 -10.9923 2.3164
-8 -8 -12 -12.9833 15.1105
-8 -8 -11 13.1544 1.8927
-8 -8 -10 -3.8742 -20.4533
-8 -8 -9 17.7638 -10.4809
-8 -8 -8 -11.0140 -16.7505
-8 -8 -7 -28.3495 -4.3372
-8 -8 -6 23.6603 6.1602
-8 -8 -5 -1.8052 -0.9937
-8 -8 -4 -9.6927 -10.5749
-8 -8 -3 24.9772 -2.6075
-8 -8 -2 -2.1447 8.8837
-8 -8 -1 -7.9175 -7.4390
-8 -7 -26 -1.7616 -2.0189
-8 -7 -25 11.9704 -2.6562
-8 -7 -24 11.1100 -4.6454
-8 -7 -23 -9.7658 2.3314
-8 -7 -22 -9.5198 1.7934
-8 -7 -21 2.3501 -9.5554
-8 -7 -20 5.6782 6.9879
-8 -7 -19 8.4821 9.9364
-8 -7 -18 2.5206 -10.4940
-8 -7 -17 -12.0827 1.5039
-8 -7 -16 0.0225 -8.1314
-8 -7 -15 -10.0410 -3.9192
-8 -7 -14 0.9200 7.5040
-8 -7 -13 8.9818 2.3562
-8 -7 -12 2.0622 -7.4473
-8 -7 -11 -7.9665 0.8663
-8 -7 -10 -26.3957 -10.2913
-8 -7 -9 -18.4411 23.0994
-8 -7 -8 8.3176 -3.8146
-8 -7 -7 -9.2257 1.6536
-8 -7 -6 -14.8571 0.3880
-8 -7 -5 7.3361 -33.2487
-8 -7 -4 1.2752 7.8754
-8 -7 -3 -7.0450 14.7730
-8 -7 -2 -8.6158 -28.1011
-8 -7 -1 -1.1207 -11.9169
-8 -6 -26 -1.1719 -2.4217
-8 -6 -25 -5.6136 3.2407
-8 -6 -24 0.2679 4.8493
-8 -6 -23 -3.4563 -0.6421
-8 -6 -22 2.2283 16.1207
-8 -6 -21 5.1152 -6.8461
-8 -6 -20 -6.9112 -2.4874
-8 -6 -19 5.6202 1.1120
-8 -6 -18 1.8002 11.0487
-8 -6 -17 -13.3327 1.4966
-8 -6 -16 7.9797 18.8361
-8 -6 -15 -8.9894 -10.5100
-8 -6 -14 -8.4145 1.6012
-8 -6 -13 11.1570 -2.6520
-8 -6 -12 -3.2554 9.4694
-8 -6 -11 -1.8459 12.3304
-8 -6 -10 22.0522 11.4462
-8 -6 -9 -6.6374 9.1735
-8 -6 -8 7.9785 11.0043
-8 -6 -7 -20.2190 -15.2113
-8 -6 -6 -4.1844 3.9758
-8 -6 -5 12.3844 -2.3893
-8 -6 -4 -11.3612 -9.4298
-8 -6 -3 -6.2902 8.6668
-8 -6 -2 0.2240 17.5834
-8 -6 -1 -15.8689 -1.2880
-8 -5 -27 -3.4188 11.8340
-8 -5 -26 -4.4048 5.1200
-8 -5 -25 -6.6277 -1.8500
-8 -5 -24 0.7794 2.4314
-8 -5 -23 1.7181 -4.1775
-8 -5 -22 0.4840 1.3208
-8 -5 -21 -1.3657 0.4601
-8 -5 -20 -7.7796 -9.4071
-8 -5 -19 2.1617 4.8992
-8 -5 -18 10.4387 1.1896
-8 -5 -17 5.3756 7.0068
-8 -5 -16 -12.0376 14.3568
-8 -5 -15 13.0508 -6.9636
-8 -5 -14 -4.5506 9.5824
-8 -5 -13 0.9517 -4.2132
-8 -5 -12 6.3870 -22.0700
-8 -5 -11 21.0626 8.8922
-8 -5 -10 15.2958 7.1298
-8 -5 -9 0.3583 -9.9661
-8 -5 -8 -3.5536 23.6672
-8 -5 -7 7.1163 -10.0748
-8 -5 -6 -17.3383 7.8863
-8 -5 -5 1.5000 14.2052
-8 -5 -4 16.2150 -1.9403
-8 -5 -3 16.5924 3.8528
-8 -5 -2 16.1209 2.0403
-8 -5 -1 -8.5480 -6.2562
-8 -4 -27 1.3516 0.9953
-8 -4 -26 8.3406 5.9914
-8 -4 -25 -7.5299 1.8198
-8 -4 -24 -4.9801 -10.3156
-8 -4 -23 9.6511 -3.9626
-8 -4 -22 -10.2330 -3.9003
-8 -4 -21 -7.5842 7.7212
-8 -4 -20 7.6245 -5.7122
-8 -4 -19 4.0949 -6.6636
-8 -4 -18 10.0941 -4.2792
-8 -4 -17 4.3572 -0.7338
-8 -4 -16 4.2737 -11.9515
-8 -4 -15 4.1014 16.1529
-8 -4 -14 -20.6979 -15.7321
-8 -4 -13 -0.2930 -1.4561
-8 -4 -12 -2.0106 -11.3748
-8 -4 -11 -0.2727 -13.1666
-8 -4 -10 11.3843 -14.7762
-8 -4 -9 -9.3971 6.3674
-8 -4 -8 -9.6369 11.0071
-8 -4 -7 36.9106 22.2219
-8 -4 -6 -13.6637 -10.0014
-8 -4 -5 -6.2863 -1.6017
-8 -4 -4 4.0198 -27.2731
-8 -4 -3 -5.9715 -5.2845
-8 -4 -2 -6.6847 16.5860
-8 -4 -1 6.0889 17.1235
-8 -3 -27 4.7278 -2.2882
-8 -3 -26 -3.1525 2.7154
-8 -3 -25 4.0726 -6.9072
-8 -3 -24 -6.2385 12.6482
-8 -3 -23 -1.0989 2.7951
-8 -3 -22 4.9276 -9.3918
-8 -3 -21 2.5757 3.5710
-8 -3 -20 1.7825 -2.8541
-8 -3 -19 -7.8411 -19.3698
-8 -3 -18 -8.9091 -1.0098
-8 -3 -17 13.9192 -4.8223
-8 -3 -16 -0.7545 4.7526
-8 -3 -15 -21.3332 5.4528
-8 -3 -14 18.5830 -3.3805
-8 -3 -13 -16.5777 3.7492
-8 -3 -12 -18.4399 -5.7797
-8 -3 -11 -14.1889 4.3996
-8 -3 -10 -0.5069 -3.6009
-8 -3 -9 20.3396 -17.7654
-8 -3 -8 22.0913 -4.8029
-8 -3 -7 -10.7935 3.9721
-8 -3 -6 -7.9113 -12.9099
-8 -3 -5 -26.2678 23.2224
-8 -3 -4 -4.5203 -4.4614
-8 -3 -3 -3.0271 -12.1898
-8 -3 -2 20.4069 3.6312
-8 -3 -1 30.1416 6.9742
-8 -2 -27 5.7001 -2.0505
-8 -2 -26 -2.7116 4.3940
-8 -2 -25 4.7899 1.5430
-8 -2 -24 -2.8436 -0.5768
-8 -2 -23 5.3102 2.6516
-8 -2 -22 -6.3722 -1.4772
-8 -2 -21 -11.3565 -1.5495
-8 -2 -20 -0.1028 7.2729
-8 -2 -19 -5.7619 -3.8086
-8 -2 -18 -5.4159 6.0258
-8 -2 -17 11.8513 10.7149
-8 -2 -16 -7.3977 -13.2545
-8 -2 -15 1.4185 1.5584
-8 -2 -14 11.3128 29.5906
-8 -2 -13 -1.6277 -11.6799
-8 -2 -12 2.3870 28.6992
-8 -2 -11 -10.8048 1.9420
-8 -2 -10 -7.4218 -29.2407
-8 -2 -9 -6.8722 -20.5600
-8 -2 -8 8.9874 -5.1070
-8 -2 -7 7.1313 0.9876
-8 -2 -6 8.1585 37.8033
-8 -2 -5 -10.8481 0.7020
-8 -2 -4 9.0189 -5.2077
-8 -2 -3 -8.0419 -41.0087
-8 -2 -2 16.9882 -16.7209
-8 -2 -1 7.8018 -5.9879
-8 -1 -27 -1.8827 2.2461
-8 -1 -26 -3.2452 -5.4560
-8 -1 -25 2.5010 4.3669
-8 -1 -24 2.3407 -1.9669
-8 -1 -23 -0.7270 11.6909
-8 -1 -22 -2.8786 1.9887
-8 -1 -21 -8.3410 7.0197
-8 -1 -20 9.8207 0.6001
-8 -1 -19 11.4001 2.3792
-8 -1 -18 -8.5892 8.3779
-8 -1 -17 -5.3397 0.9885
-8 -1 -16 16.5731 -13.5181
-8 -1 -15 -6.2968 11.4463
-8 -1 -14 9.6066 -8.6197
-8 -1 -13 32.1198 3.5689
-8 -1 -12 -21.9028 24.9287
-8 -1 -11 -0.7597 7.3335
-8 -1 -10 -28.7619 -5.9737
-8 -1 -9 -33.9802 -4.0844
-8 -1 -8 31.4826 -2.8975
-8 -1 -7 37.0446 -2.5297
-8 -1 -6 -11.5421 15.9000
-8 -1 -5 -0.2147 -3.1989
-8 -1 -4 -25.7162 -13.7159
-8 -1 -3 -16.9783 -10.9697
-8 -1 -2 -19.8444 17.4899
-8 -1 -1 5.6539 -7.9747
-7 -24 -5 5.0878 -6.1746
-7 -24 -4 -0.8023 -4.8394
-7 -24 -3 1.2162 1.8263
-7 -24 -2 0.4424 -1.0597
-7 -24 -1 1.1826 -1.6129
-7 -23 -9 -2.3766 3.9389
-7 -23 -8 -4.8511 -0.0874
-7 -23 -7 -1.7375 -11.5620
-7 -23 -6 -4.5573 -0.6408
-7 -23 -5 1.2189 -1.5344
-7 -23 -4 -5.0256 -6.3174
-7 -23 -3 0.0750 -1.2176
-7 -23 -2 0.3774 -2.4971
-7 -23 -1 3.3730 0.3862
-7 -22 -12 -1.6930 -0.0064
-7 -22 -11 2.3752 2.4666
-7 -22 -10 7.1943 1.0970
-7 -22 -9 -10.6847 8.2766
-7 -22 -8 0.2867 -0.1899
-7 -22 -7 1.3601 -3.5633
-7 -22 -6 -6.9380 -2.2011
-7 -22 -5 2.1295 4.6632
-7 -22 -4 -0.3079 -1.0700
-7 -22 -3 -2.4303 -1.4133
-7 -22 -2 2.2682 3.0875
-7 -22 -1 2.4678 0.8289
-7 -21 -14 5.1185 4.5044
-7 -21 -13 4.0491 2.1503
-7 -21 -12 2.5308 -3.4139
-7 -21 -11 5.9685 3.9610
-7 -21 -10 12.3218 4.1966
-7 -21 -9 -1.9733 -1.9125
-7 -21 -8 2.4476 11.6478
-7 -21 -7 -2.3019 -2.7837
-7 -21 -6 -0.7139 -2.5903
-7 -21 -5 -1.4061 7.1625
-7 -21 -4 11.6260 1.1255
-7 -21 -3 -1.3477 -1.4390
-7 -21 -2 -5.2471 2.3544
-7 -21 -1 -6.5835 -1.3892
-7 -20 -16 -2.1370 -2.5809
-7 -20 -15 3.4109 -2.5317
-7 -20 -14 -0.7121 1.8358
-7 -20 -13 -1.0424 -6.6095
-7 -20 -12 2.5271 -2.4146
-7 -20 -11 -3.8089 1.7156
-7 -20 -10 3.9819 -1.6378
-7 -20 -9 2.6030 -3.8435
-7 -20 -8 -6.4806 16.1114
-7 -20 -7 4.7480 4.0813
-7 -20 -6 -4.2558 -7.5164
-7 -20 -5 -2.0158 -5.6019
-7 -20 -4 5.7629 3.2788
-7 -20 -3 -2.5077 2.6370
-7 -20 -2 -3.1858 2.9257
-7 -20 -1 -0.1052 3.0451
-7 -19 -17 -4.1355 -1.6566
-7 -19 -16 -2.1228 -4.8752
-7 -19 -15 -4.1058 1.2594
-7 -19 -14 -6.4656 -6.4909
-7 -19 -13 -0.3572 -0.1035
-7 -19 -12 -6.2558 2.4733
-7 -19 -11 -2.7218 -5.4449
-7 -19 -10 3.6394 3.2877
-7 -19 -9 4.4978 -5.4145
-7 -19 -8 -6.2061 -2.9260
-7 -19 -7 1.7861 6.9461
-7 -19 -6 -7.8388 -3.9108
-7 -19 -5 -0.1154 -0.2975
-7 -19 -4 -2.8016 -3.2247
-7 -19 -3 4.3996 -2.8143
-7 -19 -2 3.7072 4.2803
-7 -19 -1 5.1579 -2.8247
-7 -18 -18 2.4761 1.6133
-7 -18 -17 -1.1363 1.2427
-7 -18 -16 -5.1865 3.2130
-7 -18 -15 -2.1458 3.4194
-7 -18 -14 8.9945 -2.0083
-7 -18 -13 -3.1038 4.1516
-7 -18 -12 4.7856 -8.3540
-7 -18 -11 2.5105 -2.5085
-7 -18 -10 -9.6524 -0.7379
-7 -18 -9 4.1211 1.3364
-7 -18 -8 1.7928 -8.9992
-7 -18 -7 2.1786 1.6455
-7 -18 -6 4.9915 4.4946
-7 -18 -5 -5.1409 5.0907
-7 -18 -4 0.9345 -8.0760
-7 -18 -3 -3.1365 -1.5966
-7 -18 -2 -5.4493 -4.4561
-7 -18 -1 5.8062 -12.8751
-7 -17 -20 -5.5887 -1.6876
-7 -17 -19 0.5283 2.3715
-7 -17 -18 2.7084 5.7481
-7 -17 -17 6.5124 7.3633
-7 -17 -16 -2.6470 0.2886
-7 -17 -15 6.4619 0.5115
-7 -17 -14 -0.4699 -4.3911
-7 -17 -13 -5.9290 -4.5889
-7 -17 -12 9.0165 9.2700
-7 -17 -11 4.0037 1.8492
-7 -17 -10 -6.2084 -0.4183
-7 -17 -9 -2.8167 9.3802
-7 -17 -8 8.7222 -10.8350
-7 -17 -7 -0.0645 -4.3862
-7 -17 -6 9.9573 2.8608
-7 -17 -5 2.4904 4.4470
-7 -17 -4 -5.2700 11.2396
-7 -17 -3 -22.1951 -1.3517
-7 -17 -2 0.0271 1.8149
-7 -17 -1 3.9524 -1.5846
-7 -16 -21 -2.9487 3.9406
-7 -16 -20 -1.3734 -2.0430
-7 -16 -19 6.5932 0.8198
-7 -16 -18 2.0739 -3.5967
-7 -16 -17 3.1926 -1.4648
-7 -16 -16 -4.5024 0.8369
-7 -16 -15 -8.3756 5.8044
-7 -16 -14 -3.1588 -8.1991
-7 -16 -13 0.8682 -4.6045
-7 -16 -12 -1.4865 13.7527
-7 -16 -11 10.1317 -2.1481
-7 -16 -10 -2.2752 5.9543
-7 -16 -9 -8.3735 7.5769
-7 -16 -8 1.3867 -7.2234
-7 -16 -7 -9.7873 -12.5827
-7 -16 -6 5.6955 9.1904
-7 -16 -5 11.6680 10.2628
-7 -16 -4 4.0141 16.1653
-7 -16 -3 2.3826 3.8603
-7 -16 -2 -10.3663 -1.1330
-7 -16 -1 -4.3416 -8.2433
-7 -15 -22 -0.7473 -2.6006
-7 -15 -21 -2.4781 -0.2292
-7 -15 -20 4.6412 -0.0909
-7 -15 -19 -1.1378 -10.4195
-7 -15 -18 3.3303 -8.1487
-7 -15 -17 -4.1819 3.5381
-7 -15 -16 -0.5089 5.2388
-7 -15 -15 -10.2238 3.1629
-7 -15 -14 4.0680 4.8562
-7 -15 -13 -3.7924 -9.1522
-7 -15 -12 7.6947 -5.7035
-7 -15 -11 10.4137 0.5006
-7 -15 -10 -10.1571 -6.7179
-7 -15 -9 -7.3869 4.7537
-7 -15 -8 -1.8570 13.9077
-7 -15 -7 -4.5947 -8.4576
-7 -15 -6 12.6058 -7.1894
-7 -15 -5 16.1134 -13.1484
-7 -15 -4 -7.4273 -3.6246
-7 -15 -3 6.3448 9.2222
-7 -15 -2 -1.7304 0.9030
-7 -15 -1 0.3636 4.3961
-7 -14 -23 11.0126 8.7526
-7 -14 -22 2.1071 0.7735
-7 -14 -21 -7.0881 -7.5401
-7 -14 -20 0.5679 -0.9947
-7 -14 -19 -2.2294 -3.1290
-7 -14 -18 -4.3687 4.1560
-7 -14 -17 3.4811 5.6889
-7 -14 -16 20.5969 7.9763
-7 -14 -15 0.5417 -4.8354
-7 -14 -14 -3.6422 -2.9448
-7 -14 -13 -2.9170 -11.7994
-7 -14 -12 -10.7639 -3.7374
-7 -14 -11 -2.4210 0.1204
-7 -14 -10 14.5255 -1.4695
-7 -14 -9 1.5484 8.7386
-7 -14 -8 1.5448 -10.0034
-7 -14 -7 -0.7817 -10.5031
-7 -14 -6 -21.1717 1.1689
-7 -14 -5 -5.2674 -15.2348
-7 -14 -4 3.1078 -7.4815
-7 -14 -3 4.5185 9.4583
-7 -14 -2 4.9802 -13.2158
-7 -14 -1 -3.5014 7.0019
-7 -13 -23 -1.9711 6.2448
-7 -13 -22 2.4075 -7.1498
-7 -13 -21 -9.5363 9.4821
-7 -13 -20 -6.2792 8.8896
-7 -13 -19 10.0527 4.1770
-7 -13 -18 5.7372 -8.7301
-7 -13 -17 4.9681 -1.7317
-7 -13 -16 -4.2362 -8.3611
-7 -13 -15 -1.0228 -0.9426
-7 -13 -14 -13.9239 19.8358
-7 -13 -13 5.2121 12.7222
-7 -13 -12 -6.7280 -8.9075
-7 -13 -11 4.0631 2.6384
-7 -13 -10 3.2771 -4.7561
-7 -13 -9 0.5668 -8.8316
-7 -13 -8 4.1375 11.3003
-7 -13 -7 -8.3578 14.7792
-7 -13 -6 -11.7750 7.0620
-7 -13 -5 3.8040 7.5171
-7 -13 -4 -12.1165 -8.9531
-7 -13 -3 2.9339 -5.5594
-7 -13 -2 20.9816 7.7795
-7 -13 -1 -9.3916 0.5808
-7 -12 -24 -6.4618 -6.1006
-7 -12 -23 -4.3363 3.9228
-7 -12 -22 8.3232 3.8157
-7 -12 -21 3.7561 -1.5669
-7 -12 -20 1.5017 -3.5274
-7 -12 -19 -4.7455 -4.1573
-7 -12 -18 -7.6012 -7.8961
-7 -12 -17 -5.4806 4.2723
-7 -12 -16 3.8362 2.0308
-7 -12 -15 7.4190 6.8450
-7 -12 -14 3.6925 5.1467
-7 -12 -13 10.0413 11.0475
-7 -12 -12 -8.2609 -9.3499
-7 -12 -11 -14.4133 4.8656
-7 -12 -10 6.6289 -5.1080
-7 -12 -9 4.8477 -4.2698
-7 -12 -8 6.8974 17.8830
-7 -12 -7 13.3246 7.1774
-7 -12 -6 4.0271 7.5761
-7 -12 -5 -2.6463 10.9983
-7 -12 -4 4.1011 -15.3376
-7 -12 -3 -2.6426 -0.0546
-7 -12 -2 -2.7445 1.7527
-7 -12 -1 3.9430 -3.6594
-7 -11 -25 6.3297 15.0055
-7 -11 -24 -6.1707 -7.7624
-7 -11 -23 -3.0535 -10.2039
-7 -11 -22 -0.6995 -1.8454
-7 -11 -21 2.2791 -3.0924
-7 -11 -20 0.3618 1.7092
-7 -11 -19 -2.9716 -6.5623
-7 -11 -18 -3.9156 5.8084
-7 -11 -17 0.9239 -4.9801
-7 -11 -16 12.5749 -1.8798
-7 -11 -15 4.8287 -14.3104
-7 -11 -14 7.4291 -4.8451
-7 -11 -13 -6.0346 4.4868
-7 -11 -12 -1.2901 3.8877
-7 -11 -11 -18.7612 -2.0328
-7 -11 -10 17.2038 -4.3497
-7 -11 -9 1.1676 -11.5923
-7 -11 -8 1.5180 0.6335
-7 -11 -7 16.6653 -15.0411
-7 -11 -6 -11.1255 -11.7567
-7 -11 -5 -12.1082 7.2229
-7 -11 -4 16.0204 6.5895
-7 -11 -3 -14.7759 -4.0939
-7 -11 -2 4.1074 -0.6059
-7 -11 -1 14.3427 3.3813
-7 -10 -25 -5.8097 3.4514
-7 -10 -24 2.4120 14.3389
-7 -10 -23 -8.5479 4.9586
-7 -10 -22 -3.2247 -7.8764
-7 -10 -21 -3.5340 -3.5802
-7 -10 -20 6.6087 8.2348
-7 -10 -19 -2.7780 1.5024
-7 -10 -18 -3.7317 5.7493
-7 -10 -17 4.3211 -9.7015
-7 -10 -16 -5.8190 -11.8069
-7 -10 -15 -4.4882 -4.0715
-7 -10 -14 -0.8122 9.0849
-7 -10 -13 1.2457 2.1502
-7 -10 -12 6.7274 5.5236
-7 -10 -11 -1.3103 -14.0024
-7 -10 -10 -5.0898 0.9305
-7 -10 -9 -10.1756 -19.3235
-7 -10 -8 -16.6088 12.0348
-7 -10 -7 1.8720 5.8046
-7 -10 -6 -8.6821 -22.0419
-7 -10 -5 4.8481 7.5693
-7 -10 -4 11.6283 5.7867
-7 -10 -3 1.1333 -22.6619
-7 -10 -2 -8.4958 18.2084
-7 -10 -1 -0.6202 -15.6344
-7 -9 -26 8.5203 5.5998
-7 -9 -25 4.2177 -3.2620
-7 -9 -24 3.2888 10.2377
-7 -9 -23 -4.6614 10.7439
-7 -9 -22 -4.5190 -1.5715
-7 -9 -21 -9.1702 -0.4830
-7 -9 -20 12.5055 5.5264
-7 -9 -19 -0.1824 -0.5428
-7 -9 -18 -12.8022 2.5226
-7 -9 -17 -2.0590 6.9758
-7 -9 -16 -8.6329 -4.5622
-7 -9 -15 0.1551 15.5707
-7 -9 -14 13.4100 -1.2014
-7 -9 -13 -4.7521 -7.3770
-7 -9 -12 -16.8525 -2.3610
-7 -9 -11 9.9323 9.1300
-7 -9 -10 -3.7522 16.4727
-7 -9 -9 15.1636 5.5424
-7 -9 -8 -13.8022 7.7589
-7 -9 -7 5.5650 13.1667
-7 -9 -6 -4.7024 -16.9911
-7 -9 -5 -10.5345 -12.2145
-7 -9 -4 22.0777 -2.0492
-7 -9 -3 3.5662 5.4952
-7 -9 -2 -43.2678 7.7284
-7 -9 -1 12.2476 -1.1618
-7 -8 -26 5.1108 -8.2252
-7 -8 -25 14.9214 -2.5975
-7 -8 -24 -7.0095 1.9017
-7 -8 -23 4.7260 4.0397
-7 -8 -22 8.5167 -4.3181
-7 -8 -21 -5.3433 -1.0697
-7 -8 -20 -2.4735 1.8398
-7 -8 -19 10.3875 -7.3077
-7 -8 -18 -4.8728 6.2760
-7 -8 -17 1.3896 11.3783
-7 -8 -16 5.5648 -13.1303
-7 -8 -15 -3.6275 11.3925
-7 -8 -14 4.1503 6.6405
-7 -8 -13 -6.5223 -9.9927
-7 -8 -12 0.0681 6.9649
-7 -8 -11 8.4625 -0.7870
-7 -8 -10 14.6745 -21.3338
-7 -8 -9 16.1301 25.7530
-7 -8 -8 -6.8478 1.7154
-7 -8 -7 -14.5733 7.5478
-7 -8 -6 -0.9031 -13.3594
-7 -8 -5 -18.1564 1.1504
-7 -8 -4 5.6586 17.2683
-7 -8 -3 13.7213 4.8815
-7 -8 -2 -1.1766 4.5668
-7 -8 -1 -9.1782 13.1538
-7 -7 -26 2.4736 2.8931
-7 -7 -25 -1.9322 0.9720
-7 -7 -24 2.0486 -15.7106
-7 -7 -23 5.4342 4.9436
-7 -7 -22 2.0158 -0.5081
-7 -7 -21 3.1740 -8.4315
-7 -7 -20 -4.5393 1.9874
-7 -7 -19 9.2014 0.8567
-7 -7 -18 -2.4977 -2.5934
-7 -7 -17 16.6553 1.4533
-7 -7 -16 9.1982 -6.1163
-7 -7 -15 -9.0762 -14.5280
-7 -7 -14 6.1540 14.3640
-7 -7 -13 -5.9664 4.9370
-7 -7 -12 -23.0165 -8.6589
-7 -7 -11 18.2780 -24.0393
-7 -7 -10 6.0142 -3.5001
-7 -7 -9 -15.2472 4.4773
-7 -7 -8 18.8443 -1.0883
-7 -7 -7 -22.4467 20.6446
-7 -7 -6 2.3206 21.2337
-7 -7 -5 12.8365 -8.7536
-7 -7 -4 7.4374 -9.7934
-7 -7 -3 -5.7175 -12.7467
-7 -7 -2 -14.3775 4.8478
-7 -7 -1 -24.6476 25.9745
-7 -6 -27 -1.5354 -3.1661
-7 -6 -26 -5.2057 -0.7622
-7 -6 -25 -0.9234 10.6574
-7 -6 -24 -0.8271 3.2537
-7 -6 -23 -17.5541 -10.7712
-7 -6 -22 3.7025 9.6361
-7 -6 -21 5.5788 3.6965
-7 -6 -20 0.9342 -2.7642
-7 -6 -19 -1.9847 -3.1379
-7 -6 -18 -0.6877 -12.1981
-7 -6 -17 -12.6828 -3.9678
-7 -6 -16 1.2751 -1.9902
-7 -6 -15 8.7724 4.9392
-7 -6 -14 -3.4584 19.2311
-7 -6 -13 8.4882 -8.0748
-7 -6 -12 -9.6523 -3.2626
-7 -6 -11 -21.3469 7.5345
-7 -6 -10 -11.8212 -16.6803
-7 -6 -9 26.0355 9.4741
-7 -6 -8 22.9965 16.3612
-7 -6 -7 12.0611 -34.2808
-7 -6 -6 -2.4628 10.5226
-7 -6 -5 -13.3205 -5.0659
-7 -6 -4 -21.9718 0.0803
-7 -6 -3 17.1871 22.8921
-7 -6 -2 14.6351 14.4706
-7 -6 -1 1.5589 -8.6430
-7 -5 -27 -1.7510 -3.6195
-7 -5 -26 -0.6417 0.9752
-7 -5 -25 -7.5695 5.5791
-7 -5 -24 5.8073 11.4509
-7 -5 -23 -5.7346 -4.5735
-7 -5 -22 -10.2296 -0.4877
-7 -5 -21 2.1740 -12.0631
-7 -5 -20 -6.8093 4.6730
-7 -5 -19 -18.7334 11.3243
-7 -5 -18 1.3322 4.1378
-7 -5 -17 -10.6392 -8.1695
-7 -5 -16 12.3722 8.3548
-7 -5 -15 5.6866 -7.8027
-7 -5 -14 1.0609 -16.9879
-7 -5 -13 2.9388 23.2994
-7 -5 -12 0.2350 21.3764
-7 -5 -11 1.4979 6.0944
-7 -5 -10 14.4424 -18.0555
-7 -5 -9 -18.9669 -35.6579
-7 -5 -8 4.9697 -16.9811
-7 -5 -7 11.5353 16.5452
-7 -5 -6 -15.3762 8.6640
-7 -5 -5 32.2854 6.7715
-7 -5 -4 10.3019 5.3569
-7 -5 -3 -2.7984 -9.1266
-7 -5 -2 15.9345 -30.2105
-7 -5 -1 19.0767 -3.8487
-7 -4 -27 5.0112 -4.1180
-7 -4 -26 5.2870 0.1620
-7 -4 -25 5.2543 -5.6234
-7 -4 -24 4.1828 2.3229
-7 -4 -23 0.4977 -1.9195
-7 -4 -22 -6.5930 3.6511
-7 -4 -21 2.5283 7.3586
-7 -4 -20 1.6340 -3.1645
-7 -4 -19 12.6472 9.3133
-7 -4 -18 0.6961 5.5916
-7 -4 -17 -7.8243 -10.8477
-7 -4 -16 -17.9092 2.1175
-7 -4 -15 13.7901 -12.6734
-7 -4 -14 12.4808 -5.1730
-7 -4 -13 4.5664 6.1077
-7 -4 -12 18.1254 -9.9329
-7 -4 -11 -22.5677 6.3971
-7 -4 -10 -34.8052 16.4169
-7 -4 -9 -12.5422 -12.6755
-7 -4 -8 -0.8092 -0.1591
-7 -4 -7 16.8334 -7.5410
-7 -4 -6 28.6729 -14.4370
-7 -4 -5 -16.1690 12.2796
-7 -4 -4 -12.9427 -24.5075
-7 -4 -3 -12.9182 -9.8610
-7 -4 -2 -9.4655 -3.8142
-7 -4 -1 -5.3840 -12.3663
-7 -3 -27 0.2899 3.1518
-7 -3 -26 0.8945 -6.3549
-7 -3 -25 10.1458 -3.2761
-7 -3 -24 3.0438 -5.1734
-7 -3 -23 9.3114 13.0775
-7 -3 -22 4.9791 6.4668
-7 -3 -21 6.3606 -5.8578
-7 -3 -20 7.4023 -12.4430
-7 -3 -19 9.0051 8.3325
-7 -3 -18 -0.2982 6.8530
-7 -3 -17 -5.8633 8.0137
-7 -3 -16 -18.4061 -13.7765
-7 -3 -15 8.5596 -0.4931
-7 -3 -14 -19.2123 -14.1549
-7 -3 -13 11.6404 -5.4464
-7 -3 -12 11.7677 20.3616
-7 -3 -11 -12.1576 22.4739
-7 -3 -10 -11.1054 31.0291
-7 -3 -9 7.2573 0.8877
-7 -3 -8 -31.7904 -38.5979
-7 -3 -7 5.2299 5.0210
-7 -3 -6 -1.9926 11.2833
-7 -3 -5 -30.4033 -8.6073
-7 -3 -4 -6.5335 22.2071
-7 -3 -3 -11.4601 21.4288
-7 -3 -2 -6.3097 14.3979
-7 -3 -1 -5.2149 5.2411
-7 -2 -28 -7.0589 2.0260
-7 -2 -27 -7.1862 -4.5863
-7 -2 -26 -9.7191 5.7109
-7 -2 -25 1.7042 -0.0041
-7 -2 -24 5.8139 -10.2877
-7 -2 -23 -0.3788 7.6418
-7 -2 -22 0.5641 -4.0964
-7 -2 -21 -5.1640 -11.5329
-7 -2 -20 -8.1927 -1.5876
-7 -2 -19 4.9266 4.6289
-7 -2 -18 9.8715 6.1934
-7 -2 -17 -6.8334 11.5451
-7 -2 -16 -3.0218 7.6687
-7 -2 -15 -22.7535 -4.3811
-7 -2 -14 12.3203 -19.9074
-7 -2 -13 18.0710 15.7071
-7 -2 -12 14.0321 -5.4034
-7 -2 -11 25.7272 1.7131
-7 -2 -10 -4.0594 19.5552
-7 -2 -9 -5.3222 -3.4960
-7 -2 -8 -5.6914 -9.2592
-7 -2 -7 -24.6238 37.8678
-7 -2 -6 14.8894 -1.2900
-7 -2 -5 24.9035 -0.2298
-7 -2 -4 2.5797 27.1619
-7 -2 -3 34.9994 -11.2370
-7 -2 -2 -3.2896 0.4276
-7 -2 -1 -24.8552 21.5991
-7 -1 -28 -12.0801 17.0221
-7 -1 -27 0.5915 -5.4161
-7 -1 -26 -13.4059 -8.2953
-7 -1 -25 3.5588 -4.8414
-7 -1 -24 -11.0594 -1.9751
-7 -1 -23 -14.2337 -6.5735
-7 -1 -22 -0.3783 7.3379
-7 -1 -21 -5.8854 0.2991
-7 -1 -20 -0.8157 0.5433
-7 -1 -19 12.9101 -9.7023
-7 -1 -18 8.0802 -8.5200
-7 -1 -17 -6.0078 11.7738
-7 -1 -16 1.1098 18.9188
-7 -1 -15 -7.2853 -25.4995
-7 -1 -14 6.8452 -0.9838
-7 -1 -13 2.5555 -21.5325
-7 -1 -12 28.7553 -15.1910
-7 -1 -11 -19.2127 -7.6926
-7 -1 -10 13.5064 -13.5253
-7 -1 -9 23.5775 28.3701
-7 -1 -8 14.2834 23.0318
-7 -1 -7 0.5349 -29.0313
-7 -1 -6 31.6443 -2.2123
-7 -1 -5 -21.8799 -23.0259
-7 -1 -4 9.1451 -24.4342
-7 -1 -3 41.1482 5.6228
-7 -1 -2 -3.4678 -9.2016
-7 -1 -1 -11.2099 40.7633
-6 -24 -7 -2.6262 2.6126
-6 -24 -6 -5.9983 7.4728
-6 -24 -5 4.4559 -8.3509
-6 -24 -4 -1.1634 2.8606
-6 -24 -3 -6.7516 -2.6529
-6 -24 -2 -3.6195 -1.1281
-6 -24 -1 -2.9961 -1.7945
-6 -23 -10 6.7770 -6.2051
-6 -23 -9 2.5251 2.6438
-6 -23 -8 5.6837 4.0157
-6 -23 -7 -0.8799 3.3021
-6 -23 -6 -3.0877 3.3711
-6 -23 -5 4.4682 4.8109
-6 -23 -4 -9.9925 -5.5550
-6 -23 -3 0.0630 7.1524
-6 -23 -2 -3.5704 8.9870
-6 -23 -1 -1.3378 0.4720
-6 -22 -12 -4.2797 -4.5663
-6 -22 -11 6.0895 -0.7360
-6 -22 -10 -5.7526 -1.5874
-6 -22 -9 -3.7635 -3.8158
-6 -22 -8 14.7047 4.5551
-6 -22 -7 8.9364 -3.1839
-6 -22 -6 -3.6327 1.6781
-6 -22 -5 -4.1496 7.1607
-6 -22 -4 7.5162 -2.8467
-6 -22 -3 4.3840 8.0132
-6 -22 -2 9.9749 0.7081
-6 -22 -1 -3.1961 2.5061
-6 -21 -15 -5.5007 4.8650
-6 -21 -14 -7.7666 0.4189
-6 -21 -13 -1.4591 -5.4425
-6 -21 -12 5.0515 -1.2455
-6 -21 -11 -10.0951 7.1846
-6 -21 -10 5.2987 -10.6203
-6 -21 -9 -2.6953 -7.8185
-6 -21 -8 -3.0014 -2.7881
-6 -21 -7 7.4942 -7.0947
-6 -21 -6 -0.1763 2.8663
-6 -21 -5 0.5801 2.0605
-6 -21 -4 8.8610 -4.0256
-6 -21 -3 -2.7898 -8.8642
-6 -21 -2 5.4417 1.6086
-6 -21 -1 1.5413 -0.2705
-6 -20 -16 3.7700 7.0145
-6 -20 -15 -4.9782 5.5753
-6 -20 -14 4.4202 -8.4635
-6 -20 -13 0.4798 3.4117
-6 -20 -12 -7.8102 -7.9864
-6 -20 -11 -7.2153 -1.6559
-6 -20 -10 6.5023 10.8131
-6 -20 -9 -10.8597 -10.8096
-6 -20 -8 -9.0822 -2.0582
-6 -20 -7 3.2726 1.7020
-6 -20 -6 3.6857 -8.1392
-6 -20 -5 3.1184 3.1916
-6 -20 -4 -8.7816 2.6247
-6 -20 -3 -7.1630 -9.3383
-6 -20 -2 -7.9533 2.9997
-6 -20 -1 7.4223 -1.3380
-6 -19 -18 1.7220 3.6262
-6 -19 -17 9.1589 2.2916
-6 -19 -16 3.2716 0.0649
-6 -19 -15 3.7158 -4.5249
-6 -19 -14 -5.5068 11.0252
-6 -19 -13 -4.3808 5.6138
-6 -19 -12 10.7921 -3.3199
-6 -19 -11 1.4240 5.1501
-6 -19 -10 -1.7700 11.7099
-6 -19 -9 6.6226 -2.9357
-6 -19 -8 -15.5833 3.6897
-6 -19 -7 6.7546 -2.0136
-6 -19 -6 8.2241 -9.4653
-6 -19 -5 -6.6801 5.8886
-6 -19 -4 0.4200 15.6317
-6 -19 -3 1.5789 7.5148
-6 -19 -2 -6.7272 -11.8472
-6 -19 -1 3.8938 -2.3684
-6 -18 -19 3.3216 -3.7262
-6 -18 -18 -7.6466 -3.9426
-6 -18 -17 8.1217 -4.1166
-6 -18 -16 2.6351 2.0971
-6 -18 -15 3.2073 6.6771
-6 -18 -14 -8.4850 5.2579
-6 -18 -13 10.4800 -4.7855
-6 -18 -12 8.8261 2.0607
-6 -18 -11 -1.7021 -6.2945
-6 -18 -10 1.4702 10.2413
-6 -18 -9 4.9638 4.4552
-6 -18 -8 -9.6655 -6.5590
-6 -18 -7 1.8521 8.9908
-6 -18 -6 6.2397 -7.5771
-6 -18 -5 3.9859 -4.2464
-6 -18 -4 14.5472 7.6291
-6 -18 -3 -0.4978 -1.8978
-6 -18 -2 -11.7798 1.2888
-6 -18 -1 -9.6388 6.6092
-6 -17 -20 -1.1006 0.6308
-6 -17 -19 -9.4594 -0.1303
-6 -17 -18 -4.6345 -10.5569
-6 -17 -17 0.5699 2.5057
-6 -17 -16 6.4081 -1.4676
-6 -17 -15 -3.3854 7.4236
-6 -17 -14 1.0406 -9.3267
-6 -17 -13 -5.1363 -3.2745
-6 -17 -12 -7.4261 -9.5119
-6 -17 -11 0.8138 1.2906
-6 -17 -10 -3.9888 5.9948
-6 -17 -9 5.9219 -0.6291
-6 -17 -8 3.0271 -4.7957
-6 -17 -7 -14.0568 2.9978
-6 -17 -6 0.3634 -15.3418
-6 -17 -5 -5.7324 -2.9706
-6 -17 -4 1.4562 6.8072
-6 -17 -3 7.4855 -4.0802
-6 -17 -2 0.0606 2.1392
-6 -17 -1 7.3468 0.0578
-6 -16 -21 -3.3671 3.5104
-6 -16 -20 -3.9557 4.8919
-6 -16 -19 -5.7275 6.0884
-6 -16 -18 1.7350 1.8832
-6 -16 -17 3.0668 -3.9953
-6 -16 -16 7.1156 -11.5809
-6 -16 -15 -9.7994 -2.0418
-6 -16 -14 0.6792 5.7165
-6 -16 -13 -13.2862 3.7386
-6 -16 -12 -2.0823 1.0332
-6 -16 -11 3.0127 -0.5703
-6 -16 -10 7.7086 -15.7740
-6 -16 -9 -6.3948 3.4217
-6 -16 -8 -13.0835 1.2903
-6 -16 -7 1.2960 2.2788
-6 -16 -6 10.1701 13.3176
-6 -16 -5 -16.3173 -5.6921
-6 -16 -4 -4.3109 -7.0037
-6 -16 -3 5.4661 -6.5544
-6 -16 -2 -0.8040 -4.4495
-6 -16 -1 15.3175 6.0244
-6 -15 -22 -6.3358 3.5477
-6 -15 -21 10.2025 7.0229
-6 -15 -20 5.7838 4.4299
-6 -15 -19 3.4029 -7.2841
-6 -15 -18 -7.7442 -3.9042
-6 -15 -17 -8.2764 -2.9146
-6 -15 -16 -3.6244 -0.5807
-6 -15 -15 7.3749 2.2917
-6 -15 -14 12.4186 20.0000
-6 -15 -13 4.8693 -6.7579
-6 -15 -12 -5.9604 1.3526
-6 -15 -11 1.3939 -0.0220
-6 -15 -10 2.4134 3.5429
-6 -15 -9 -4.9898 -3.1698
-6 -15 -8 17.9634 2.0420
-6 -15 -7 10.5212 2.6632
-6 -15 -6 -3.5430 6.1015
-6 -15 -5 0.0039 1.9817
-6 -15 -4 -8.8401 13.8717
-6 -15 -3 0.5846 -21.6842
-6 -15 -2 6.2696 -15.8460
-6 -15 -1 -0.0189 10.7503
-6 -14 -23 7.8669 3.2194
-6 -14 -22 10.3202 -11.3382
-6 -14 -21 -4.2849 -8.0353
-6 -14 -20 -3.0639 -7.3969
-6 -14 -19 -2.3636 11.2863
-6 -14 -18 -7.8249 3.3649
-6 -14 -17 1.5967 3.3340
-6 -14 -16 10.3860 -2.4890
-6 -14 -15 4.5333 -6.6402
-6 -14 -14 1.6187 -3.2636
-6 -14 -13 16.9507 -0.5780
-6 -14 -12 -9.6629 6.8807
-6 -14 -11 -3.1831 3.6912
-6 -14 -10 -3.6022 -4.2642
-6 -14 -9 2.2878 -4.2687
-6 -14 -8 5.5893 3.3393
-6 -14 -7 3.5198 -7.6775
-6 -14 -6 4.5759 2.0730
-6 -14 -5 5.8211 5.7271
-6 -14 -4 -17.8621 -0.7996
-6 -14 -3 -7.7078 4.8300
-6 -14 -2 -14.9150 -2.1857
-6 -14 -1 12.9650 -6.0038
-6 -13 -24 -7.0031 -2.8390
-6 -13 -23 -9.7380 2.0143
-6 -13 -22 3.8310 -4.1583
-6 -13 -21 0.7596 -0.4567
-6 -13 -20 -0.8848 11.6185
-6 -13 -19 2.0020 4.9178
-6 -13 -18 13.0648 -4.6248
-6 -13 -17 -7.1460 1.0699
-6 -13 -16 -3.0076 -4.1135
-6 -13 -15 -6.1354 -13.3229
-6 -13 -14 -5.4138 -5.3726
-6 -13 -13 -0.8249 9.1922
-6 -13 -12 -2.9678 -1.0357
-6 -13 -11 -3.4597 16.0182
-6 -13 -10 0.5091 -8.0574
-6 -13 -9 1.2558 -1.6858
-6 -13 -8 -11.5277 -6.0007
-6 -13 -7 -14.2091 -8.3139
-6 -13 -6 -1.2483 4.3046
-6 -13 -5 11.2934 12.5461
-6 -13 -4 -1.0716 2.2443
-6 -13 -3 -3.4948 18.9230
-6 -13 -2 -0.7779 -17.8562
-6 -13 -1 -7.0966 -4.5384
-6 -12 -24 1.6534 1.1190
-6 -12 -23 -0.5387 9.3722
-6 -12 -22 1.4157 10.8430
-6 -12 -21 0.8980 -6.6957
-6 -12 -20 0.3263 1.7341
-6 -12 -19 10.3039 6.0508
-6 -12 -18 -2.5719 -0.9620
-6 -12 -17 -15.9969 -9.3125
-6 -12 -16 -7.6472 16.5646
-6 -12 -15 4.0808 3.2404
-6 -12 -14 -4.2648 4.6392
-6 -12 -13 3.8002 1.5980
-6 -12 -12 12.8932 -12.2373
-6 -12 -11 -1.8133 -10.1689
-6 -12 -10 3.5103 5.2743
-6 -12 -9 -18.0531 11.8262
-6 -12 -8 3.1864 4.6223
-6 -12 -7 9.0683 1.1800
-6 -12 -6 0.2663 -2.1695
-6 -12 -5 10.7551 -19.6015
-6 -12 -4 10.8397 -6.1165
-6 -12 -3 -4.7774 16.0540
-6 -12 -2 11.9317 3.6325
-6 -12 -1 -30.3463 -5.7638
-6 -11 -25 4.5872 -3.6845
-6 -11 -24 12.7413 -5.7852
-6 -11 -23 -11.7916 3.9136
-6 -11 -22 -1.4464 4.0591
-6 -11 -21 2.9100 -6.8909
-6 -11 -20 -2.8304 -8.2384
-6 -11 -19 -6.9418 6.9971
-6 -11 -18 0.8902 2.2169
-6 -11 -17 -0.9290 3.1902
-6 -11 -16 7.7402 7.6403
-6 -11 -15 19.3008 -3.7774
-6 -11 -14 -15.4685 -11.7572
-6 -11 -13 -12.9707 2.7619
-6 -11 -12 4.2323 -6.7141
-6 -11 -11 3.4807 -9.1965
-6 -11 -10 12.4398 16.9142
-6 -11 -9 13.5346 -5.0200
-6 -11 -8 8.5441 6.7848
-6 -11 -7 -11.6403 -9.8729
-6 -11 -6 -15.1049 -8.2524
-6 -11 -5 4.5796 -7.6302
-6 -11 -4 6.0582 -7.0733
-6 -11 -3 7.7577 9.0830
-6 -11 -2 5.2011 22.3130
-6 -11 -1 -15.4635 -27.7951
-6 -10 -25 -0.6223 -3.2128
-6 -10 -24 7.0307 -2.5877
-6 -10 -23 -5.9821 -7.3425
-6 -10 -22 1.8948 -4.8926
-6 -10 -21 1.4870 2.4630
-6 -10 -20 -1.8692 -4.8262
-6 -10 -19 -5.1188 -0.0882
-6 -10 -18 13.0878 -3.6514
-6 -10 -17 -0.4043 -7.5545
-6 -10 -16 -0.7484 -4.1751
-6 -10 -15 3.0758 5.0902
-6 -10 -14 -6.1244 0.5465
-6 -10 -13 -16.4456 19.5555
-6 -10 -12 7.9762 -8.9546
-6 -10 -11 -7.6580 -15.7438
-6 -10 -10 2.5415 -4.0769
-6 -10 -9 22.8149 -0.7014
-6 -10 -8 -26.5242 14.3112
-6 -10 -7 -18.4446 10.8380
-6 -10 -6 -2.1684 2.3219
-6 -10 -5 4.6572 5.5428
-6 -10 -4 1.6075 -7.3274
-6 -10 -3 -2.2191 3.5808
-6 -10 -2 -6.3888 5.8283
-6 -10 -1 -6.8462 -2.4820
-6 -9 -26 3.7381 0.7939
-6 -9 -25 -8.3858 10.5897
-6 -9 -24 -4.0488 -6.0333
-6 -9 -23 13.5574 -8.9020
-6 -9 -22 4.3021 3.9701
-6 -9 -21 -2.5220 0.8793
-6 -9 -20 1.7714 7.5411
-6 -9 -19 7.3159 -0.9408
-6 -9 -18 0.7008 -2.1648
-6 -9 -17 -0.8252 -13.2015
-6 -9 -16 -5.6417 7.2185
-6 -9 -15 7.3954 8.8162
-6 -9 -14 13.6492 6.9664
-6 -9 -13 -6.5418 12.6149
-6 -9 -12 -8.8628 3.5357
-6 -9 -11 -15.4930 -30.7543
-6 -9 -10 5.9779 12.4598
-6 -9 -9 6.7636 21.7199
-6 -9 -8 -8.7855 -8.1977
-6 -9 -7 20.0870 24.3529
-6 -9 -6 9.7648 -11.7146
-6 -9 -5 -13.7895 -18.8477
-6 -9 -4 -4.7776 13.4804
-6 -9 -3 -1.9528 19.7817
-6 -9 -2 -0.0123 8.5293
-6 -9 -1 3.9407 19.3609
-6 -8 -26 1.3411 19.2995
-6 -8 -25 2.8274 -1.8682
-6 -8 -24 -2.9695 2.7898
-6 -8 -23 -7.5118 6.3787
-6 -8 -22 6.3717 -0.2944
-6 -8 -21 11.5449 -5.1318
-6 -8 -20 -2.8158 10.5570
-6 -8 -19 -0.6884 -2.0301
-6 -8 -18 -18.8750 4.0511
-6 -8 -17 1.7726 6.6852
-6 -8 -16 11.9878 -1.4805
-6 -8 -15 22.8405 -6.7918
-6 -8 -14 -2.3839 0.2327
-6 -8 -13 -7.8789 -5.7707
-6 -8 -12 1.5225 15.9835
-6 -8 -11 12.5272 5.8224
-6 -8 -10 -11.0057 4.9244
-6 -8 -9 35.7753 -26.3447
-6 -8 -8 7.4478 -17.0804
-6 -8 -7 -35.0645 -0.1117
-6 -8 -6 17.6892 -8.7838
-6 -8 -5 11.6291 5.6751
-6 -8 -4 11.3910 20.0542
-6 -8 -3 32.6545 -11.1382
-6 -8 -2 -6.4764 -8.7634
-6 -8 -1 -9.7256 3.3140
-6 -7 -27 2.8138 0.3657
-6 -7 -26 -1.7507 5.1844
-6 -7 -25 3.1969 3.1799
-6 -7 -24 -4.0559 -6.5513
-6 -7 -23 -16.7630 1.2186
-6 -7 -22 3.3239 -2.3265
-6 -7 -21 -6.9186 -9.1617
-6 -7 -20 0.3715 8.8294
-6 -7 -19 3.4162 18.0777
-6 -7 -18 -3.3757 -12.4734
-6 -7 -17 -4.4343 -4.4144
-6 -7 -16 2.3171 -17.2031
-6 -7 -15 -18.1570 -4.4599
-6 -7 -14 -1.1623 0.8988
-6 -7 -13 20.5746 5.8704
-6 -7 -12 10.7714 -10.2300
-6 -7 -11 1.5040 -12.7215
-6 -7 -10 -23.8735 -11.7216
-6 -7 -9 -13.7968 25.3609
-6 -7 -8 -10.8282 -12.6935
-6 -7 -7 3.4541 -2.0040
-6 -7 -6 16.1428 6.3616
-6 -7 -5 12.3993 -47.2880
-6 -7 -4 4.5564 4.2120
-6 -7 -3 -3.1682 22.3199
-6 -7 -2 -13.8150 -36.8247
-6 -7 -1 5.2339 -18.1421
-6 -6 -27 -3.1948 -5.7534
-6 -6 -26 -1.4155 -10.8470
-6 -6 -25 -4.5328 8.1494
-6 -6 -24 -4.1789 -6.8996
-6 -6 -23 -6.8342 0.3693
-6 -6 -22 9.5987 2.7525
-6 -6 -21 6.4277 -10.1100
-6 -6 -20 -5.3282 -8.0358
-6 -6 -19 2.2005 -1.4559
-6 -6 -18 2.2327 0.6445
-6 -6 -17 -25.2668 7.7742
-6 -6 -16 1.6028 0.1579
-6 -6 -15 -5.2136 -8.4768
-6 -6 -14 -1.2845 -6.1003
-6 -6 -13 -14.1283 -12.0189
-6 -6 -12 -9.2515 -3.8760
-6 -6 -11 0.8233 23.4718
-6 -6 -10 16.5537 14.6382
-6 -6 -9 -19.2722 21.1562
-6 -6 -8 3.0005 -8.0262
-6 -6 -7 -30.1352 -15.5666
-6 -6 -6 -3.7657 -11.1447
-6 -6 -5 11.5255 2.3328
-6 -6 -4 -30.6217 -2.1579
-6 -6 -3 -3.3628 14.9289
-6 -6 -2 2.2291 4.8897
-6 -6 -1 -47.6892 -1.2215
-6 -5 -27 5.1964 3.0715
-6 -5 -26 -4.1355 9.1073
-6 -5 -25 -3.6885 -0.9963
-6 -5 -24 13.9037 -0.6653
-6 -5 -23 7.7484 -11.7694
-6 -5 -22 -8.2934 2.5389
-6 -5 -21 -0.1676 -0.2983
-6 -5 -20 1.1868 -2.4917
-6 -5 -19 12.4219 6.9304
-6 -5 -18 0.6407 9.2243
-6 -5 -17 0.4096 0.2080
-6 -5 -16 -9.6296 16.5771
-6 -5 -15 3.2696 -1.1689
-6 -5 -14 -6.2436 15.7613
-6 -5 -13 -3.9710 -4.3606
-6 -5 -12 9.7202 -6.8186
-6 -5 -11 27.7223 -2.0270
-6 -5 -10 10.1732 5.5748
-6 -5 -9 -14.9798 1.4748
-6 -5 -8 -1.1770 31.7762
-6 -5 -7 -9.9944 -19.2198
-6 -5 -6 -22.5493 10.1246
-6 -5 -5 -4.2518 9.9213
-6 -5 -4 22.3024 -3.9806
-6 -5 -3 9.7821 32.8796
-6 -5 -2 10.8613 7.5174
-6 -5 -1 -9.3503 -30.1234
-6 -4 -28 3.0415 9.2770
-6 -4 -27 1.0106 9.6070
-6 -4 -26 7.7646 0.8566
-6 -4 -25 -3.4898 -3.7606
-6 -4 -24 -7.2118 7.1587
-6 -4 -23 4.7134 -4.4073
-6 -4 -22 -8.5927 4.8280
-6 -4 -21 8.1806 8.0035
-6 -4 -20 9.6309 2.4749
-6 -4 -19 -4.4421 -4.2569
-6 -4 -18 7.8216 8.0999
-6 -4 -17 19.9050 6.4391
-6 -4 -16 1.6783 0.8558
-6 -4 -15 7.1612 13.0892
-6 -4 -14 -6.8828 -10.5287
-6 -4 -13 11.0602 -9.6916
-6 -4 -12 -10.5608 3.8906
-6 -4 -11 1.7418 -19.0438
-6 -4 -10 15.5243 -17.3419
-6 -4 -9 18.3235 12.3466
-6 -4 -8 -8.3139 27.1219
-6 -4 -7 20.1294 12.5251
-6 -4 -6 -25.0082 1.5259
-6 -4 -5 30.7294 -17.5444
-6 -4 -4 20.7817 -28.9958
-6 -4 -3 -21.2452 -23.5447
-6 -4 -2 -0.4238 28.5802
-6 -4 -1 -1.0965 13.6201
-6 -3 -28 6.8725 5.1796
-6 -3 -27 -4.6905 0.2928
-6 -3 -26 -0.1606 0.4344
-6 -3 -25 -7.6505 -2.5179
-6 -3 -24 -2.4227 11.2307
-6 -3 -23 0.2138 3.8099
-6 -3 -22 2.4392 -14.5992
-6 -3 -21 2.1001 5.4722
-6 -3 -20 3.7940 -6.9506
-6 -3 -19 -8.7598 -10.7263
-6 -3 -18 -0.6976 1.3930
-6 -3 -17 14.0270 -9.2967
-6 -3 -16 -2.9264 -10.9138
-6 -3 -15 -17.5022 10.5381
-6 -3 -14 19.0591 -5.5451
-6 -3 -13 -16.4586 9.8726
-6 -3 -12 -24.4374 -4.6037
-6 -3 -11 -3.1277 0.0546
-6 -3 -10 -1.5496 -18.4830
-6 -3 -9 33.3638 -6.6406
-6 -3 -8 35.0673 1.2954
-6 -3 -7 -12.8328 16.7368
-6 -3 -6 -20.8552 -25.0512
-6 -3 -5 -23.0181 17.1892
-6 -3 -4 -16.8127 -24.8614
-6 -3 -3 14.3813 -3.1427
-6 -3 -2 20.7856 44.4426
-6 -3 -1 37.1737 19.0277
-6 -2 -28 -0.7842 -3.9820
-6 -2 -27 1.7957 -0.5696
-6 -2 -26 -3.1467 5.3761
-6 -2 -25 2.8026 -4.9539
-6 -2 -24 -2.2398 -3.2058
-6 -2 -23 3.9935 -4.1778
-6 -2 -22 -10.1680 -4.7488
-6 -2 -21 -13.4093 -3.6170
-6 -2 -20 8.0075 -1.2302
-6 -2 -19 -4.9009 -0.9232
-6 -2 -18 -12.1505 -0.5978
-6 -2 -17 -1.3668 -3.0632
-6 -2 -16 -10.1460 -15.2674
-6 -2 -15 6.1002 5.7844
-6 -2 -14 14.9753 26.0524
-6 -2 -13 -16.4306 -3.1710
-6 -2 -12 0.9606 19.8327
-6 -2 -11 -12.8013 -6.7935
-6 -2 -10 -16.0754 -44.7726
-6 -2 -9 -5.5132 -8.1897
-6 -2 -8 30.9100 -9.2751
-6 -2 -7 -2.3200 18.5788
-6 -2 -6 -9.3092 49.3407
-6 -2 -5 -38.3125 -0.8917
-6 -2 -4 37.7740 -15.0247
-6 -2 -3 16.8675 -9.1838
-6 -2 -2 31.6454 -37.6310
-6 -2 -1 24.9698 9.6057
-6 -1 -28 4.9621 -1.8672
-6 -1 -27 -4.7207 3.2937
-6 -1 -26 -3.7775 -2.4611
-6 -1 -25 6.7215 -1.8195
-6 -1 -24 -2.2078 0.1936
-6 -1 -23 -1.5463 8.8560
-6 -1 -22 -7.7709 1.1273
-6 -1 -21 3.9223 1.5406
-6 -1 -20 3.9702 -0.3220
-6 -1 -19 1.2573 1.6354
-6 -1 -18 -12.8871 16.3226
-6 -1 -17 -9.5061 -1.4972
-6 -1 -16 16.5810 -13.8872
-6 -1 -15 12.8427 3.9602
-6 -1 -14 3.4831 -9.6845
-6 -1 -13 16.9869 2.5671
-6 -1 -12 -24.9312 39.0337
-6 -1 -11 -15.4323 -8.0804
-6 -1 -10 -25.2909 -18.8661
-6 -1 -9 -15.7806 -9.1013
-6 -1 -8 43.5775 -0.8827
-6 -1 -7 12.5190 -0.5185
-6 -1 -6 -4.7066 36.2483
-6 -1 -5 17.8227 -25.3838
-6 -1 -4 -32.9809 -27.0193
-6 -1 -3 -22.0977 -45.5857
-6 -1 -2 -5.2509 6.8701
-6 -1 -1 -29.7659 1.5980
-5 -24 -8 8.6991 -8.6804
-5 -24 -7 -1.1326 -2.5058
-5 -24 -6 4.5748 7.0169
-5 -24 -5 6.1650 3.5516
-5 -24 -4 4.5827 -1.6082
-5 -24 -3 4.5947 -4.4369
-5 -24 -2 -4.2907 4.0189
-5 -24 -1 2.1912 4.4256
-5 -23 -11 5.1540 6.4285
-5 -23 -10 -9.1441 -0.7818
-5 -23 -9 -1.9264 -2.9180
-5 -23 -8 -2.7797 6.2459
-5 -23 -7 6.4077 -15.3125
-5 -23 -6 6.5644 0.8587
-5 -23 -5 0.3958 -3.5605
-5 -23 -4 -2.4663 -2.8690
-5 -23 -3 3.3730 -0.0997
-5 -23 -2 4.6586 1.8296
-5 -23 -1 4.4059 4.1191
-5 -22 -13 0.1620 0.3822
-5 -22 -12 -4.8902 3.3524
-5 -22 -11 0.1951 7.3138
-5 -22 -10 4.6060 1.6083
-5 -22 -9 -11.7794 6.9718
-5 -22 -8 -8.9570 -3.2389
-5 -22 -7 2.6186 -1.4374
-5 -22 -6 -14.3385 -6.6520
-5 -22 -5 4.6683 -1.8355
-5 -22 -4 -3.0130 2.1594
-5 -22 -3 -4.3077 -1.3474
-5 -22 -2 5.5221 -7.2940
-5 -22 -1 1.3204 -2.0781
-5 -21 -15 -1.5641 2.2869
-5 -21 -14 3.0520 6.2857
-5 -21 -13 1.5037 4.3611
-5 -21 -12 1.2663 -7.7145
-5 -21 -11 -0.8293 6.2870
-5 -21 -10 5.2429 2.2337
-5 -21 -9 -6.9328 0.9913
-5 -21 -8 0.7711 10.4909
-5 -21 -7 -11.2835 -0.7026
-5 -21 -6 -4.2354 -10.5348
-5 -21 -5 -2.4236 11.2948
-5 -21 -4 2.9359 -6.7378
-5 -21 -3 -0.2275 0.8198
-5 -21 -2 -7.1606 -6.1465
-5 -21 -1 -2.8763 -10.8550
-5 -20 -17 -3.2485 -3.9372
-5 -20 -16 0.2516 -0.8606
-5 -20 -15 7.5725 -2.4885
-5 -20 -14 6.5109 -4.4771
-5 -20 -13 0.7492 -4.3093
-5 -20 -12 4.5106 -5.5809
-5 -20 -11 -3.5944 3.8712
-5 -20 -10 11.7524 -1.6744
-5 -20 -9 2.8796 -4.8489
-5 -20 -8 -3.8006 8.4007
-5 -20 -7 3.6799 3.1917
-5 -20 -6 0.0856 5.7588
-5 -20 -5 -2.3034 -7.9306
-5 -20 -4 6.5758 -4.0493
-5 -20 -3 -11.7243 4.9243
-5 -20 -2 0.5212 10.4108
-5 -20 -1 6.3887 3.0014
-5 -19 -18 -3.5571 3.8242
-5 -19 -17 1.2847 4.7693
-5 -19 -16 -4.1608 -5.7391
-5 -19 -15 3.2077 -4.1929
-5 -19 -14 -8.9614 -7.5585
-5 -19 -13 3.5440 1.2337
-5 -19 -12 3.9254 6.1799
-5 -19 -11 0.5032 -7.4000
-5 -19 -10 2.1522 6.7672
-5 -19 -9 7.3071 -7.8949
-5 -19 -8 3.7719 -0.3270
-5 -19 -7 8.4656 7.5233
-5 -19 -6 -6.1574 4.3742
-5 -19 -5 2.2155 -0.8656
-5 -19 -4 -1.0160 4.0269
-5 -19 -3 5.3094 -6.1121
-5 -19 -2 7.9807 7.3463
-5 -19 -1 -2.9991 -4.5226
-5 -18 -19 3.0610 0.4892
-5 -18 -18 1.2598 1.0713
-5 -18 -17 -1.4672 -0.6418
-5 -18 -16 -8.3722 4.5195
-5 -18 -15 -10.8791 2.6403
-5 -18 -14 3.0593 -3.4180
-5 -18 -13 2.2331 8.7853
-5 -18 -12 5.7125 0.1579
-5 -18 -11 -1.8509 -10.1039
-5 -18 -10 -19.7967 5.3431
-5 -18 -9 9.2060 2.2321
-5 -18 -8 2.5112 -4.3221
-5 -18 -7 4.3583 -2.2072
-5 -18 -6 6.1030 3.3193
-5 -18 -5 -9.2112 11.8203
-5 -18 -4 -10.4645 -7.2075
-5 -18 -3 6.1069 -4.7861
-5 -18 -2 -0.7026 -9.2497
-5 -18 -1 3.4703 -3.2743
-5 -17 -20 -1.5426 0.2995
-5 -17 -19 3.2988 -5.3513
-5 -17 -18 -0.1715 2.8901
-5 -17 -17 -2.7175 9.2041
-5 -17 -16 -2.3476 7.1903
-5 -17 -15 4.3484 -4.2537
-5 -17 -14 6.8813 -6.1584
-5 -17 -13 -14.1892 -6.1858
-5 -17 -12 6.7545 9.7342
-5 -17 -11 -2.8305 4.3017
-5 -17 -10 -9.5218 -0.5091
-5 -17 -9 -2.0169 3.3527
-5 -17 -8 -1.7762 -24.5060
-5 -17 -7 -4.1423 3.5449
-5 -17 -6 8.7393 10.0869
-5 -17 -5 -0.1815 1.7795
-5 -17 -4 -10.3768 1.5580
-5 -17 -3 -21.6886 -4.6730
-5 -17 -2 8.2141 -17.0268
-5 -17 -1 11.7014 9.5902
-5 -16 -21 -6.7071 3.3726
-5 -16 -20 -0.8151 -3.3004
-5 -16 -19 11.1387 5.2178
-5 -16 -18 4.8576 0.5778
-5 -16 -17 2.2581 4.3021
-5 -16 -16 1.4156 -5.5291
-5 -16 -15 -4.3357 3.1975
-5 -16 -14 -3.9901 -11.5438
-5 -16 -13 4.4345 -6.2449
-5 -16 -12 5.1930 11.7950
-5 -16 -11 4.3856 0.5028
-5 -16 -10 -6.9443 -0.3021
-5 -16 -9 -8.5022 6.8850
-5 -16 -8 4.0121 -13.2165
-5 -16 -7 -5.8256 -3.6808
-5 -16 -6 13.4420 2.1120
-5 -16 -5 0.9134 1.4745
-5 -16 -4 -13.0429 15.2302
-5 -16 -3 3.9337 4.1174
-5 -16 -2 3.4198 -6.1957
-5 -16 -1 -9.2307 -23.6970
-5 -15 -22 -6.9136 0.0444
-5 -15 -21 -0.1443 3.2343
-5 -15 -20 8.2542 -3.6619
-5 -15 -19 -0.1197 -2.1965
-5 -15 -18 3.0952 -9.6987
-5 -15 -17 2.7252 8.1885
-5 -15 -16 -4.9350 -0.3220
-5 -15 -15 -14.8475 1.6884
-5 -15 -14 -1.3809 0.8506
-5 -15 -13 6.5599 2.6739
-5 -15 -12 7.3663 -4.7497
-5 -15 -11 19.6628 3.1003
-5 -15 -10 -8.2907 0.8850
-5 -15 -9 -2.2581 1.6210
-5 -15 -8 3.1133 8.0310
-5 -15 -7 -6.1358 -0.9637
-5 -15 -6 15.6158 1.8720
-5 -15 -5 17.7192 -9.2687
-5 -15 -4 -3.7960 5.9743
-5 -15 -3 1.4643 6.3376
-5 -15 -2 -9.7147 0.7922
-5 -15 -1 3.2003 8.1692
-5 -14 -23 6.4172 2.4855
-5 -14 -22 2.9818 -1.1267
-5 -14 -21 -4.1769 -1.5086
-5 -14 -20 -4.8311 -8.0822
-5 -14 -19 -1.4120 -12.0507
-5 -14 -18 -3.6207 6.1593
-5 -14 -17 -2.7464 6.5522
-5 -14 -16 10.1450 12.0940
-5 -14 -15 -0.0282 1.4169
-5 -14 -14 2.8285 5.9017
-5 -14 -13 2.5686 -20.2621
-5 -14 -12 -6.1956 -11.3092
-5 -14 -11 -8.3863 -0.7496
-5 -14 -10 11.9184 7.9816
-5 -14 -9 10.3921 16.5670
-5 -14 -8 -0.1131 -6.9105
-5 -14 -7 -0.7836 -19.2538
-5 -14 -6 -7.9061 10.9481
-5 -14 -5 -6.5775 -7.9318
-5 -14 -4 5.9297 -5.9187
-5 -14 -3 14.6040 9.9907
-5 -14 -2 3.0785 -0.2272
-5 -14 -1 -3.6731 11.3253
-5 -13 -24 3.7758 -7.4950
-5 -13 -23 3.6319 2.2661
-5 -13 -22 -3.3992 -5.5450
-5 -13 -21 -6.9462 -2.1696
-5 -13 -20 -5.6558 8.5370
-5 -13 -19 1.4700 1.7941
-5 -13 -18 8.6600 -0.7387
-5 -13 -17 14.5389 -7.4205
-5 -13 -16 5.6431 -3.9199
-5 -13 -15 -3.9966 -12.1827
-5 -13 -14 -16.9708 14.6381
-5 -13 -13 -11.3424 1.7971
-5 -13 -12 -9.5680 -0.7732
-5 -13 -11 7.7448 -2.6069
-5 -13 -10 9.8172 -4.9166
-5 -13 -9 -12.6881 -12.8686
-5 -13 -8 -0.9317 3.5678
-5 -13 -7 -12.4487 15.8631
-5 -13 -6 -14.9479 2.0423
-5 -13 -5 7.8231 -8.8775
-5 -13 -4 -8.3103 -8.9969
-5 -13 -3 -0.1794 -6.1927
-5 -13 -2 12.3671 0.5155
-5 -13 -1 -15.0330 11.3862
-5 -12 -25 1.4274 -4.6554
-5 -12 -24 2.4477 -2.1567
-5 -12 -23 -9.0244 1.4052
-5 -12 -22 7.0871 8.0981
-5 -12 -21 4.2591 8.1055
-5 -12 -20 7.7917 -0.9328
-5 -12 -19 -3.9657 -4.6683
-5 -12 -18 -4.2150 -10.8223
-5 -12 -17 -8.1740 -2.3377
-5 -12 -16 1.6448 2.2620
-5 -12 -15 4.0668 16.8095
-5 -12 -14 -1.2531 7.6565
-5 -12 -13 8.4929 12.6967
-5 -12 -12 -8.0279 -9.1629
-5 -12 -11 -4.0851 1.0244
-5 -12 -10 -4.3199 -13.7517
-5 -12 -9 -2.2361 4.5862
-5 -12 -8 6.1693 22.8038
-5 -12 -7 6.3718 -3.9405
-5 -12 -6 -4.0932 -7.5991
-5 -12 -5 -3.0112 11.6311
-5 -12 -4 -8.3020 -10.3045
-5 -12 -3 4.6002 2.6485
-5 -12 -2 1.4082 -2.8872
-5 -12 -1 -1.9714 -0.6749
-5 -11 -25 4.7019 15.2162
-5 -11 -24 -7.5529 -0.1952
-5 -11 -23 -0.3377 -8.0003
-5 -11 -22 4.5260 -4.2944
-5 -11 -21 2.2993 4.0270
-5 -11 -20 -2.8246 -1.2140
-5 -11 -19 -12.5293 4.8491
-5 -11 -18 -3.6769 4.2012
-5 -11 -17 1.3940 0.2451
-5 -11 -16 9.2585 -0.8907
-5 -11 -15 10.9227 1.0077
-5 -11 -14 12.1142 -8.3797
-5 -11 -13 -1.7174 4.5071
-5 -11 -12 -3.3396 -3.2357
-5 -11 -11 -10.0497 10.8901
-5 -11 -10 17.8165 -3.6472
-5 -11 -9 5.1180 6.8136
-5 -11 -8 4.1189 -0.1852
-5 -11 -7 15.5980 -22.5844
-5 -11 -6 -9.5474 3.0164
-5 -11 -5 0.9646 17.6154
-5 -11 -4 20.4131 -4.1992
-5 -11 -3 -12.5310 4.3869
-5 -11 -2 9.7028 0.2452
-5 -11 -1 17.6738 -6.8068
-5 -10 -26 8.4076 -4.0896
-5 -10 -25 -11.7509 2.6137
-5 -10 -24 -6.8994 -3.4396
-5 -10 -23 -2.2296 2.6216
-5 -10 -22 -6.3524 -10.6248
-5 -10 -21 3.6894 -3.3134
-5 -10 -20 4.5859 0.0973
-5 -10 -19 -5.2069 5.8893
-5 -10 -18 1.7360 6.6729
-5 -10 -17 8.3151 -18.2620
-5 -10 -16 -10.4786 -17.3329
-5 -10 -15 0.2412 -4.6771
-5 -10 -14 -0.9002 5.1283
-5 -10 -13 -7.5768 -6.3698
-5 -10 -12 13.2379 3.9758
-5 -10 -11 13.1668 -2.9362
-5 -10 -10 9.3297 5.7012
-5 -10 -9 -25.0120 -23.3167
-5 -10 -8 -6.5114 8.4972
-5 -10 -7 0.6902 8.8525
-5 -10 -6 -3.8603 -12.4242
-5 -10 -5 22.2311 0.7542
-5 -10 -4 15.8002 -1.0591
-5 -10 -3 -30.2169 -9.5010
-5 -10 -2 2.7091 25.4847
-5 -10 -1 9.0411 -31.9290
-5 -9 -26 7.2148 2.7168
-5 -9 -25 -3.1774 3.2587
-5 -9 -24 0.9941 10.1596
-5 -9 -23 -1.4286 -1.0532
-5 -9 -22 -2.7845 -8.0426
-5 -9 -21 -0.7913 0.5162
-5 -9 -20 14.2892 1.6360
-5 -9 -19 1.0143 -9.7259
-5 -9 -18 -11.4273 6.5830
-5 -9 -17 -2.8328 -7.1584
-5 -9 -16 -13.3306 5.3197
-5 -9 -15 -1.3462 16.3810
-5 -9 -14 7.3272 -10.2102
-5 -9 -13 -2.7998 -19.5204
-5 -9 -12 -13.4011 -0.3869
-5 -9 -11 6.0600 -8.0015
-5 -9 -10 -4.8530 18.0681
-5 -9 -9 3.7310 15.1022
-5 -9 -8 -19.0925 15.9996
-5 -9 -7 2.3083 -20.8734
-5 -9 -6 -7.7069 -20.2352
-5 -9 -5 -10.0130 7.0436
-5 -9 -4 20.4406 2.4240
-5 -9 -3 -7.7631 1.2231
-5 -9 -2 -45.4372 11.7330
-5 -9 -1 15.3857 -25.0356
-5 -8 -27 1.6304 6.7075
-5 -8 -26 2.4539 4.0199
-5 -8 -25 10.7790 -0.0947
-5 -8 -24 0.6928 15.0140
-5 -8 -23 -2.3517 -0.4622
-5 -8 -22 5.0232 -1.6232
-5 -8 -21 -8.7657 2.1515
-5 -8 -20 2.4730 9.1999
-5 -8 -19 -3.0099 -3.8635
-5 -8 -18 0.9843 15.9680
-5 -8 -17 10.3177 14.1750
-5 -8 -16 -1.4600 -7.3788
-5 -8 -15 -8.6049 8.2020
-5 -8 -14 -4.0390 11.3213
-5 -8 -13 -22.0683 -1.3659
-5 -8 -12 6.6477 -2.8674
-5 -8 -11 22.4314 -5.9982
-5 -8 -10 0.9372 -11.0502
-5 -8 -9 14.3049 27.9074
-5 -8 -8 -14.4911 2.1103
-5 -8 -7 -11.1040 -5.3704
-5 -8 -6 -10.5218 -21.5433
-5 -8 -5 6.8542 5.4162
-5 -8 -4 0.3811 17.7543
-5 -8 -3 0.2640 -5.5184
-5 -8 -2 -7.1812 8.3295
-5 -8 -1 14.7177 18.9581
-5 -7 -27 6.0990 -4.9267
-5 -7 -26 6.5028 1.5933
-5 -7 -25 -0.3294 4.4753
-5 -7 -24 -7.8585 -15.6295
-5 -7 -23 0.6256 6.2665
-5 -7 -22 -2.5279 13.0601
-5 -7 -21 0.4935 -1.1043
-5 -7 -20 3.1796 0.9816
-5 -7 -19 4.0551 -1.4009
-5 -7 -18 -6.5665 -0.6261
-5 -7 -17 9.7602 4.0655
-5 -7 -16 15.4341 1.6032
-5 -7 -15 -4.3715 11.4169
-5 -7 -14 6.7442 5.7805
-5 -7 -13 -9.5443 -5.3380
-5 -7 -12 -18.5267 -3.7070
-5 -7 -11 10.6960 -20.4084
-5 -7 -10 22.5329 -2.7085
-5 -7 -9 -6.5249 11.5981
-5 -7 -8 12.1985 -13.8837
-5 -7 -7 -25.5004 18.9444
-5 -7 -6 1.9655 18.6524
-5 -7 -5 12.9599 -7.6394
-5 -7 -4 19.5879 -15.1842
-5 -7 -3 9.3139 2.1751
-5 -7 -2 -24.3184 -17.7012
-5 -7 -1 -31.9602 -2.9085
-5 -6 -27 3.5061 -7.8144
-5 -6 -26 -12.9581 -11.4441
-5 -6 -25 -5.1324 0.4236
-5 -6 -24 9.3899 -0.2184
-5 -6 -23 -5.9254 -1.0707
-5 -6 -22 8.6097 -12.9229
-5 -6 -21 7.8020 -6.6973
-5 -6 -20 -9.2589 -1.1040
-5 -6 -19 4.8056 3.8028
-5 -6 -18 2.3542 -22.9641
-5 -6 -17 1.5090 -12.9229
-5 -6 -16 3.3680 -7.8490
-5 -6 -15 9.3769 8.1576
-5 -6 -14 -6.1180 14.7226
-5 -6 -13 -1.7544 -1.8774
-5 -6 -12 -4.5943 1.2896
-5 -6 -11 -8.5657 6.9258
-5 -6 -10 -20.6956 -26.6608
-5 -6 -9 13.7506 2.1912
-5 -6 -8 28.2264 44.1842
-5 -6 -7 1.4974 -8.1903
-5 -6 -6 12.6222 -5.3047
-5 -6 -5 -14.2732 -22.3940
-5 -6 -4 -34.9967 8.1271
-5 -6 -3 -18.9165 37.3612
-5 -6 -2 27.2728 10.7769
-5 -6 -1 -6.7411 5.7140
-5 -5 -28 3.9541 -1.1084
-5 -5 -27 -7.3478 4.4793
-5 -5 -26 3.0808 -1.7694
-5 -5 -25 1.2548 4.4900
-5 -5 -24 8.8804 -5.3046
-5 -5 -23 -3.1308 -11.9420
-5 -5 -22 -0.9499 2.5885
-5 -5 -21 1.1306 -9.6374
-5 -5 -20 -0.7017 -0.3325
-5 -5 -19 -8.5000 5.9455
-5 -5 -18 -6.6199 -5.7537
-5 -5 -17 -12.0574 -7.7618
-5 -5 -16 11.6521 3.3715
-5 -5 -15 14.5228 -5.2684
-5 -5 -14 4.3612 -6.7111
-5 -5 -13 5.1211 21.8365
-5 -5 -12 -16.9127 15.6904
-5 -5 -11 -4.3664 6.8850
-5 -5 -10 16.2342 -6.1576
-5 -5 -9 -2.7898 -16.1859
-5 -5 -8 1.8906 -30.6910
-5 -5 -7 16.9176 4.0761
-5 -5 -6 -38.1696 36.0233
-5 -5 -5 19.0090 29.4539
-5 -5 -4 10.5363 8.4452
-5 -5 -3 9.1567 -6.8739
-5 -5 -2 31.4546 -7.3048
-5 -5 -1 15.1613 -16.0744
-5 -4 -28 1.5343 5.7055
-5 -4 -27 -5.3129 2.6049
-5 -4 -26 -0.4147 10.8799
-5 -4 -25 -2.5151 -2.0257
-5 -4 -24 -1.2457 3.8942
-5 -4 -23 -8.3287 5.1220
-5 -4 -22 -4.8112 11.9631
-5 -4 -21 3.2968 6.2012
-5 -4 -20 -0.2145 7.3264
-5 -4 -19 0.8490 7.3213
-5 -4 -18 -1.1791 14.7749
-5 -4 -17 -10.4802 -8.8300
-5 -4 -16 -4.8503 -6.8989
-5 -4 -15 7.6197 -18.5874
-5 -4 -14 19.4348 13.4397
-5 -4 -13 8.4296 3.0708
-5 -4 -12 12.6359 -15.8448
-5 -4 -11 -17.5785 -0.2582
-5 -4 -10 -23.6763 11.5203
-5 -4 -9 -13.3080 -32.5774
-5 -4 -8 3.7135 -1.4116
-5 -4 -7 25.9152 3.1218
-5 -4 -6 32.5445 -10.3694
-5 -4 -5 8.1144 14.9784
-5 -4 -4 -2.4320 -50.7623
-5 -4 -3 -8.6357 -29.2352
-5 -4 -2 -19.5982 5.8651
-5 -4 -1 20.1559 -25.9141
-5 -3 -28 1.9128 10.0843
-5 -3 -27 0.1022 4.7446
-5 -3 -26 -6.8758 1.7199
-5 -3 -25 8.2170 -6.9245
-5 -3 -24 -11.4690 4.8352
-5 -3 -23 5.3387 8.8373
-5 -3 -22 3.0730 4.3011
-5 -3 -21 1.3467 -7.3851
-5 -3 -20 2.1341 0.2511
-5 -3 -19 4.9787 6.8073
-5 -3 -18 -9.0630 8.0416
-5 -3 -17 -5.7866 4.6858
-5 -3 -16 -7.4234 -16.4754
-5 -3 -15 -0.4658 -13.9689
-5 -3 -14 -10.2028 -3.4516
-5 -3 -13 12.4412 -11.4655
-5 -3 -12 3.3542 22.7061
-5 -3 -11 -22.8723 15.3339
-5 -3 -10 2.4480 5.0898
-5 -3 -9 8.6227 -12.7192
-5 -3 -8 -26.5190 -11.9327
-5 -3 -7 14.7515 -20.8817
-5 -3 -6 7.2138 -29.4954
-5 -3 -5 -48.0352 -14.3600
-5 -3 -4 6.7065 32.9922
-5 -3 -3 -31.6204 5.1981
-5 -3 -2 -24.1442 0.3732
-5 -3 -1 14.0228 14.2331
-5 -2 -28 8.7381 -4.2433
-5 -2 -27 -4.0972 -19.8078
-5 -2 -26 -4.3809 -3.3606
-5 -2 -25 1.8630 -0.2271
-5 -2 -24 6.8940 -5.0328
-5 -2 -23 6.0289 0.4366
-5 -2 -22 1.2950 -19.5699
-5 -2 -21 -3.5240 -6.5977
-5 -2 -20 0.3592 9.6998
-5 -2 -19 13.0932 -2.9893
-5 -2 -18 -9.0183 -9.6947
-5 -2 -17 -5.9938 23.2526
-5 -2 -16 -2.6234 5.5879
-5 -2 -15 -20.5532 -7.9439
-5 -2 -14 6.8643 -12.7692
-5 -2 -13 29.8947 33.8534
-5 -2 -12 -18.2397 -0.2430
-5 -2 -11 16.7276 1.0075
-5 -2 -10 6.4629 9.3186
-5 -2 -9 -16.4858 13.4944
-5 -2 -8 -23.1164 0.5186
-5 -2 -7 -25.4174 37.4349
-5 -2 -6 -14.9153 -21.7897
-5 -2 -5 10.6703 21.1758
-5 -2 -4 26.5361 73.3666
-5 -2 -3 37.0381 -24.4452
-5 -2 -2 -30.1551 0.6453
-5 -2 -1 -45.2759 33.3406
-5 -1 -28 -1.7107 11.9874
-5 -1 -27 -7.9512 1.9445
-5 -1 -26 7.5542 -2.4746
-5 -1 -25 12.6454 -6.3444
-5 -1 -24 0.3997 -4.8883
-5 -1 -23 -13.5937 -1.0786
-5 -1 -22 8.8611 -0.9764
-5 -1 -21 -7.1516 -0.4063
-5 -1 -20 9.3330 4.5306
-5 -1 -19 17.2569 -3.6524
-5 -1 -18 -0.1159 -8.0442
-5 -1 -17 -9.9675 18.7692
-5 -1 -16 12.1522 1.2634
-5 -1 -15 0.7103 -13.3605
-5 -1 -14 1.0036 17.2831
-5 -1 -13 4.3311 -11.4900
-5 -1 -12 16.9798 -30.7399
-5 -1 -11 -15.4152 30.7767
-5 -1 -10 5.7556 -15.0582
-5 -1 -9 24.9281 28.2545
-5 -1 -8 1.2588 52.0713
-5 -1 -7 -10.7180 9.6740
-5 -1 -6 38.5468 -18.3120
-5 -1 -5 -12.2755 -24.7954
-5 -1 -4 14.8717 -30.5046
-5 -1 -3 68.3831 35.1248
-5 -1 -2 -47.0382 26.8023
-5 -1 -1 -36.1895 39.8262
-4 -25 -2 3.3708 -2.2953
-4 -25 -1 0.2581 -3.0789
-4 -24 -8 -6.1164 5.3662
-4 -24 -7 -3.5498 -0.6259
-4 -24 -6 -4.9781 12.0344
-4 -24 -5 -0.1042 -10.6131
-4 -24 -4 1.6488 -0.4906
-4 -24 -3 -9.2078 -0.6321
-4 -24 -2 2.0030 -2.9925
-4 -24 -1 2.3765 -2.8490
-4 -23 -11 -0.2829 -0.9563
-4 -23 -10 3.0386 -1.1205
-4 -23 -9 1.2410 5.0015
-4 -23 -8 12.0031 8.2201
-4 -23 -7 -0.0567 0.8156
-4 -23 -6 -9.2958 2.1279
-4 -23 -5 3.9499 3.1366
-4 -23 -4 -13.2641 -1.6464
-4 -23 -3 5.4943 -8.3937
-4 -23 -2 -6.4911 7.6077
-4 -23 -1 -10.8996 -2.5458
-4 -22 -13 2.9269 1.6222
-4 -22 -12 -2.0937 1.8776
-4 -22 -11 2.9506 -5.5465
-4 -22 -10 2.3781 -6.3010
-4 -22 -9 2.4867 -4.7917
-4 -22 -8 12.2000 3.4666
-4 -22 -7 6.8843 1.8195
-4 -22 -6 -1.9914 4.5083
-4 -22 -5 -5.8815 4.5683
-4 -22 -4 0.5056 -2.4763
-4 -22 -3 1.3722 17.7285
-4 -22 -2 -0.9232 -1.8386
-4 -22 -1 3.8776 -2.4662
-4 -21 -16 -15.6272 3.5958
-4 -21 -15 1.3838 0.8938
-4 -21 -14 -1.2450 0.1532
-4 -21 -13 7.2976 0.0173
-4 -21 -12 -3.4494 -2.5196
-4 -21 -11 -3.1879 7.9021
-4 -21 -10 1.1109 -9.5730
-4 -21 -9 7.3313 -7.1072
-4 -21 -8 -1.3494 -4.9552
-4 -21 -7 5.2315 -0.7825
-4 -21 -6 4.0296 6.7446
-4 -21 -5 6.9276 5.5221
-4 -21 -4 8.1042 -0.3225
-4 -21 -3 -6.8811 -1.1819
-4 -21 -2 8.7773 0.0345
-4 -21 -1 -2.9405 6.6237
-4 -20 -17 -0.0737 3.0987
-4 -20 -16 0.2397 7.6273
-4 -20 -15 -3.6689 7.3328
-4 -20 -14 -3.1882 -6.5862
-4 -20 -13 3.9356 0.8024
-4 -20 -12 -5.2463 -3.0378
-4 -20 -11 -7.8332 1.3770
-4 -20 -10 1.8764 5.6759
-4 -20 -9 -14.6775 -8.2295
-4 -20 -8 -1.9242 -3.8720
-4 -20 -7 6.2441 -1.5375
-4 -20 -6 4.0989 -6.7669
-4 -20 -5 2.5266 3.6736
-4 -20 -4 -4.5892 0.5902
-4 -20 -3 -0.9812 -10.7526
-4 -20 -2 1.7928 7.6515
-4 -20 -1 1.3045 -1.4699
-4 -19 -19 -13.1827 -8.0976
-4 -19 -18 4.0328 4.0753
-4 -19 -17 5.5745 0.5835
-4 -19 -16 7.4325 1.0173
-4 -19 -15 -9.7058 -3.0965
-4 -19 -14 -4.0400 3.6903
-4 -19 -13 -14.1890 3.3072
-4 -19 -12 13.7280 -5.1614
-4 -19 -11 -5.9230 9.5897
-4 -19 -10 -4.8579 8.6657
-4 -19 -9 -8.1087 -8.2792
-4 -19 -8 -7.6036 5.7592
-4 -19 -7 6.7532 -7.6967
-4 -19 -6 0.3395 -6.9132
-4 -19 -5 -10.2968 2.6918
-4 -19 -4 4.7310 3.7853
-4 -19 -3 0.4303 3.6056
-4 -19 -2 -9.8029 -7.0373
-4 -19 -1 13.2349 -7.0579
-4 -18 -20 -3.0253 2.3835
-4 -18 -19 5.7226 -1.3271
-4 -18 -18 -4.1923 -1.9397
-4 -18 -17 10.3317 -6.1948
-4 -18 -16 -0.6587 -0.9556
-4 -18 -15 0.5493 9.7596
-4 -18 -14 -3.0688 2.1090
-4 -18 -13 8.2643 -7.8621
-4 -18 -12 9.9269 4.3080
-4 -18 -11 -3.3225 -3.9785
-4 -18 -10 7.5026 7.7472
-4 -18 -9 4.4648 1.6969
-4 -18 -8 -12.1194 -2.4665
-4 -18 -7 3.7544 1.0335
-4 -18 -6 -2.7198 -5.1724
-4 -18 -5 5.8444 6.1653
-4 -18 -4 10.0306 4.3860
-4 -18 -3 -6.8148 -12.0731
-4 -18 -2 -7.3411 0.9441
-4 -18 -1 -7.5230 13.2573
-4 -17 -21 2.8194 -2.1324
-4 -17 -20 -1.8966 -1.8762
-4 -17 -19 3.1326 -2.6931
-4 -17 -18 -5.2932 -8.8247
-4 -17 -17 6.5562 4.8059
-4 -17 -16 -4.6387 -2.6430
-4 -17 -15 8.2627 8.1706
-4 -17 -14 8.2842 -5.1329
-4 -17 -13 3.0955 -4.1005
-4 -17 -12 -11.9385 -6.4820
-4 -17 -11 17.0927 -6.7798
-4 -17 -10 0.3400 8.6330
-4 -17 -9 5.4511 2.0195
-4 -17 -8 0.5797 1.6582
-4 -17 -7 3.3979 6.1204
-4 -17 -6 1.3615 -14.7303
-4 -17 -5 -4.6393 0.8471
-4 -17 -4 -2.6989 4.6815
-4 -17 -3 3.6710 0.3818
-4 -17 -2 10.2525 12.0611
-4 -17 -1 14.4529 -1.2032
-4 -16 -22 0.3876 -3.6094
-4 -16 -21 -5.6145 -0.6736
-4 -16 -20 -7.0474 -1.3517
-4 -16 -19 -4.6030 -0.0924
-4 -16 -18 0.2122 4.1825
-4 -16 -17 0.4330 2.7288
-4 -16 -16 11.2957 -9.7846
-4 -16 -15 -5.5061 -2.0022
-4 -16 -14 0.0203 0.6842
-4 -16 -13 -19.2141 -1.8218
-4 -16 -12 -6.5996 6.3427
-4 -16 -11 6.7326 5.9141
-4 -16 -10 3.0363 -20.3572
-4 -16 -9 2.5726 1.8936
-4 -16 -8 -8.4313 3.5247
-4 -16 -7 -6.3709 3.1698
-4 -16 -6 6.3742 10.6202
-4 -16 -5 -13.6705 5.0809
-4 -16 -4 6.4536 -16.2098
-4 -16 -3 9.2372 -11.5038
-4 -16 -2 -1.6022 4.2723
-4 -16 -1 7.5935 7.5011
-4 -15 -23 0.9993 5.0605
-4 -15 -22 -4.5991 4.1254
-4 -15 -21 -1.4074 5.4155
-4 -15 -20 7.3360 10.0725
-4 -15 -19 1.5175 0.5495
-4 -15 -18 -1.1351 -10.3217
-4 -15 -17 -6.3900 -7.0618
-4 -15 -16 -2.3157 -1.3562
-4 -15 -15 -14.5254 3.0946
-4 -15 -14 8.0687 20.1840
-4 -15 -13 1.6014 -0.1768
-4 -15 -12 -4.0991 2.7771
-4 -15 -11 -12.2280 -5.5628
-4 -15 -10 -6.8362 -7.1359
-4 -15 -9 -11.7773 6.5222
-4 -15 -8 24.2549 -1.5333
-4 -15 -7 5.9308 4.5627
-4 -15 -6 -14.7192 3.6727
-4 -15 -5 -8.1883 -9.5862
-4 -15 -4 1.5622 6.5515
-4 -15 -3 -8.7841 -11.9117
-4 -15 -2 9.5282 -8.2430
-4 -15 -1 13.1006 13.3793
-4 -14 -24 -9.7973 5.7223
-4 -14 -23 5.7400 12.6591
-4 -14 -22 15.5827 -4.1439
-4 -14 -21 5.2852 -2.3260
-4 -14 -20 -7.7367 -1.6833
-4 -14 -19 -2.3195 2.7614
-4 -14 -18 -10.7425 2.6202
-4 -14 -17 -3.7704 8.7905
-4 -14 -16 9.2074 2.0175
-4 -14 -15 10.1808 -3.2790
-4 -14 -14 5.0886 -0.2131
-4 -14 -13 16.4597 -5.9112
-4 -14 -12 -10.0502 8.1029
-4 -14 -11 -1.6940 5.2639
-4 -14 -10 -0.9457 -3.6565
-4 -14 -9 2.7626 -12.0042
-4 -14 -8 8.1169 -1.2203
-4 -14 -7 -2.8045 -8.2616
-4 -14 -6 5.4841 9.1887
-4 -14 -5 8.1839 5.7855
-4 -14 -4 -18.2484 -5.0898
-4 -14 -3 2.4449 -14.7465
-4 -14 -2 -2.2407 4.4317
-4 -14 -1 9.1351 -3.1992
-4 -13 -24 -0.0812 -5.1386
-4 -13 -23 -6.5092 -3.0097
-4 -13 -22 -1.1038 -8.8838
-4 -13 -21 -7.7352 -3.5363
-4 -13 -20 -0.4974 12.5830
-4 -13 -19 5.4707 10.2102
-4 -13 -18 5.1322 -5.0995
-4 -13 -17 -3.1956 0.0547
-4 -13 -16 3.8899 -6.3014
-4 -13 -15 3.1604 -16.3172
-4 -13 -14 -4.3019 -6.5680
-4 -13 -13 0.8967 2.9666
-4 -13 -12 0.2045 -4.2023
-4 -13 -11 12.7626 17.6682
-4 -13 -10 -3.2927 2.7328
-4 -13 -9 -3.7376 -3.9200
-4 -13 -8 -5.7256 -4.7023
-4 -13 -7 5.4779 -8.9583
-4 -13 -6 3.4768 8.9523
-4 -13 -5 0.1205 6.0913
-4 -13 -4 -9.6142 2.0243
-4 -13 -3 8.4864 12.4207
-4 -13 -2 -7.6055 -19.5246
-4 -13 -1 -5.4982 -6.4680
-4 -12 -25 1.1732 8.7151
-4 -12 -24 -5.3323 -6.6587
-4 -12 -23 -6.3467 1.9477
-4 -12 -22 1.5655 3.1726
-4 -12 -21 0.7181 -4.5724
-4 -12 -20 7.0012 -4.0506
-4 -12 -19 10.1304 -1.5271
-4 -12 -18 -3.9020 -4.2811
-4 -12 -17 -17.3749 -5.0145
-4 -12 -16 -2.6275 7.6509
-4 -12 -15 -7.3701 -0.3244
-4 -12 -14 -13.9778 7.1328
-4 -12 -13 3.8492 3.3388
-4 -12 -12 20.0425 -10.8438
-4 -12 -11 0.9259 -2.0513
-4 -12 -10 2.7749 4.4414
-4 -12 -9 -21.6389 18.1334
-4 -12 -8 -6.4172 0.4750
-4 -12 -7 7.2748 3.8090
-4 -12 -6 2.8025 -0.7498
-4 -12 -5 3.7197 -6.2410
-4 -12 -4 3.1254 5.5944
-4 -12 -3 -7.9519 24.4502
-4 -12 -2 -0.5981 -9.6273
-4 -12 -1 -27.1172 6.8564
-4 -11 -26 2.7524 3.0197
-4 -11 -25 9.7620 0.5564
-4 -11 -24 10.2540 -1.8867
-4 -11 -23 -0.5935 5.7048
-4 -11 -22 -1.2676 -0.9271
-4 -11 -21 7.9180 -7.0408
-4 -11 -20 -1.5687 -3.9481
-4 -11 -19 -4.8503 2.9036
-4 -11 -18 1.7468 2.6775
-4 -11 -17 6.2214 13.2665
-4 -11 -16 7.0245 15.2713
-4 -11 -15 6.7487 -3.0065
-4 -11 -14 -14.5400 -6.9969
-4 -11 -13 -0.0774 -4.2974
-4 -11 -12 -4.1945 -15.1858
-4 -11 -11 -8.1641 -6.9287
-4 -11 -10 18.6627 19.1621
-4 -11 -9 11.5582 0.6907
-4 -11 -8 -3.3655 1.9283
-4 -11 -7 -19.3315 -9.3913
-4 -11 -6 4.4861 -14.8145
-4 -11 -5 14.7454 -0.8477
-4 -11 -4 1.8061 3.9882
-4 -11 -3 -2.6247 12.0146
-4 -11 -2 10.2658 9.0302
-4 -11 -1 -10.8954 -21.7644
-4 -10 -26 -8.4222 -3.5831
-4 -10 -25 3.2183 -5.9916
-4 -10 -24 3.7761 4.5230
-4 -10 -23 1.2760 4.4735
-4 -10 -22 1.8803 -0.5818
-4 -10 -21 -4.8799 8.6119
-4 -10 -20 -5.4656 5.1148
-4 -10 -19 6.2797 -2.0684
-4 -10 -18 15.9579 -6.2696
-4 -10 -17 3.0438 -4.9762
-4 -10 -16 -0.2500 3.6339
-4 -10 -15 2.4986 2.8586
-4 -10 -14 -8.1979 4.9657
-4 -10 -13 -12.1191 12.7856
-4 -10 -12 -1.3883 -21.7401
-4 -10 -11 2.4566 -9.6546
-4 -10 -10 10.9986 5.2672
-4 -10 -9 18.8390 -16.7983
-4 -10 -8 -24.2212 6.5827
-4 -10 -7 -8.9224 -1.6085
-4 -10 -6 3.1686 -9.6660
-4 -10 -5 7.8462 -6.2133
-4 -10 -4 5.3867 6.1187
-4 -10 -3 1.1689 -9.4203
-4 -10 -2 -5.3444 -9.6696
-4 -10 -1 -7.8510 -20.2830
-4 -9 -26 -1.9669 -0.6037
-4 -9 -25 -6.4638 4.4005
-4 -9 -24 -10.0843 -6.4921
-4 -9 -23 3.3960 -0.3881
-4 -9 -22 12.8567 5.7292
-4 -9 -21 -17.2964 0.2432
-4 -9 -20 1.2027 -0.4655
-4 -9 -19 -8.1180 -3.2272
-4 -9 -18 -7.5373 -6.2043
-4 -9 -17 -2.1242 -11.1238
-4 -9 -16 14.3243 4.6630
-4 -9 -15 1.4906 10.3467
-4 -9 -14 -9.1910 7.1714
-4 -9 -13 -6.5344 10.6673
-4 -9 -12 11.9518 5.2589
-4 -9 -11 -21.1410 -16.1668
-4 -9 -10 3.4125 -1.1495
-4 -9 -9 -2.7077 11.2042
-4 -9 -8 -22.0547 4.1969
-4 -9 -7 23.5301 21.3585
-4 -9 -6 11.4702 -8.3401
-4 -9 -5 -17.2094 -15.0712
-4 -9 -4 -3.2871 9.3931
-4 -9 -3 -7.9523 5.4144
-4 -9 -2 -38.7016 15.5528
-4 -9 -1 7.7160 16.6311
-4 -8 -27 -9.7865 3.0079
-4 -8 -26 -6.0180 13.3717
-4 -8 -25 0.3598 -5.8079
-4 -8 -24 1.1738 -19.3231
-4 -8 -23 -4.7977 4.2267
-4 -8 -22 1.8351 -6.1003
-4 -8 -21 5.8978 -6.1682
-4 -8 -20 0.3386 17.3011
-4 -8 -19 -9.3981 -9.2330
-4 -8 -18 -16.3725 -6.8655
-4 -8 -17 2.0941 0.2701
-4 -8 -16 10.8561 -0.7994
-4 -8 -15 15.1111 -0.7891
-4 -8 -14 3.4068 7.7954
-4 -8 -13 -2.3564 -2.8467
-4 -8 -12 1.2186 1.1975
-4 -8 -11 -5.4198 13.6615
-4 -8 -10 -14.8409 38.1926
-4 -8 -9 19.3042 -17.3344
-4 -8 -8 23.9252 -17.4426
-4 -8 -7 -23.4065 6.3985
-4 -8 -6 1.8160 -17.7328
-4 -8 -5 -5.4809 27.2772
-4 -8 -4 13.8930 55.6630
-4 -8 -3 21.7766 -3.4093
-4 -8 -2 -6.8235 -26.4157
-4 -8 -1 11.2523 21.7271
-4 -7 -27 11.0840 0.4598
-4 -7 -26 -0.5775 2.6038
-4 -7 -25 6.4345 -2.8537
-4 -7 -24 -8.3140 -8.5605
-4 -7 -23 -2.7556 -1.7333
-4 -7 -22 17.1973 -2.7122
-4 -7 -21 4.6933 -1.5679
-4 -7 -20 -9.4673 8.5085
-4 -7 -19 15.9393 12.7439
-4 -7 -18 -7.1272 -0.0320
-4 -7 -17 10.4399 -8.0354
-4 -7 -16 2.8317 -19.8983
-4 -7 -15 -5.1324 -8.4545
-4 -7 -14 -2.9310 -0.9076
-4 -7 -13 22.7893 6.3686
-4 -7 -12 9.6654 0.9238
-4 -7 -11 21.6009 -7.6444
-4 -7 -10 -3.1582 -11.8530
-4 -7 -9 -12.1564 7.4945
-4 -7 -8 -46.3782 -15.9892
-4 -7 -7 19.7715 -6.1247
-4 -7 -6 54.2260 18.6388
-4 -7 -5 11.1443 -23.2557
-4 -7 -4 -2.8779 -1.2680
-4 -7 -3 8.1173 5.5096
-4 -7 -2 -17.2383 -37.7819
-4 -7 -1 4.3430 -0.7259
-4 -6 -28 9.0837 3.1236
-4 -6 -27 5.8363 7.5923
-4 -6 -26 -6.4062 -2.7269
-4 -6 -25 -4.6729 10.2271
-4 -6 -24 -0.1720 2.6450
-4 -6 -23 -1.7175 0.2358
-4 -6 -22 7.2876 7.2107
-4 -6 -21 7.4494 -4.3046
-4 -6 -20 6.7112 3.4919
-4 -6 -19 2.9197 -1.7342
-4 -6 -18 -4.5456 -9.6942
-4 -6 -17 -22.1371 12.2852
-4 -6 -16 -3.8684 0.9553
-4 -6 -15 5.3047 -5.8424
-4 -6 -14 6.1257 -10.4430
-4 -6 -13 -12.9855 -21.4355
-4 -6 -12 -3.6346 -20.9722
-4 -6 -11 9.7884 17.7190
-4 -6 -10 3.1298 17.0112
-4 -6 -9 -18.8946 18.1705
-4 -6 -8 1.7468 -23.2056
-4 -6 -7 -3.9907 -20.3736
-4 -6 -6 -2.1627 -34.6498
-4 -6 -5 20.5172 -8.7779
-4 -6 -4 -41.8777 13.2246
-4 -6 -3 -4.1697 7.1438
-4 -6 -2 -0.8122 -19.3745
-4 -6 -1 -42.3283 -6.7178
-4 -5 -28 1.5644 0.8949
-4 -5 -27 -2.8979 8.4580
-4 -5 -26 0.2746 1.4578
-4 -5 -25 -14.4481 6.2071
-4 -5 -24 11.7784 4.9761
-4 -5 -23 -4.2152 -9.8034
-4 -5 -22 -5.2525 -5.5018
-4 -5 -21 -8.6341 -2.9339
-4 -5 -20 -6.5375 1.6377
-4 -5 -19 -8.5566 10.2232
-4 -5 -18 3.5697 8.7717
-4 -5 -17 -4.9496 -2.9449
-4 -5 -16 -0.7329 9.1451
-4 -5 -15 -23.3672 3.6054
-4 -5 -14 -16.1441 6.1200
-4 -5 -13 -8.9342 1.1829
-4 -5 -12 16.2670 2.4082
-4 -5 -11 6.5274 -7.0144
-4 -5 -10 10.4151 4.2838
-4 -5 -9 -12.1799 9.9151
-4 -5 -8 -6.2410 26.0091
-4 -5 -7 -41.3067 -26.9419
-4 -5 -6 -8.8075 0.0452
-4 -5 -5 3.8765 12.6161
-4 -5 -4 17.1496 -3.9884
-4 -5 -3 -8.8557 44.7167
-4 -5 -2 7.0677 10.8411
-4 -5 -1 0.8772 -44.8551
-4 -4 -28 -11.0638 -4.3879
-4 -4 -27 -3.4813 5.0482
-4 -4 -26 7.9506 -2.2627
-4 -4 -25 -0.1784 -7.1894
-4 -4 -24 -6.2874 -0.6491
-4 -4 -23 -7.6810 -6.3810
-4 -4 -22 -11.5288 7.3273
-4 -4 -21 12.6884 6.8599
-4 -4 -20 6.8526 0.8709
-4 -4 -19 -10.1748 -1.2412
-4 -4 -18 3.3022 0.7435
-4 -4 -17 16.5780 -2.0534
-4 -4 -16 -3.2615 15.7399
-4 -4 -15 4.4032 16.4645
-4 -4 -14 -0.4373 -3.5422
-4 -4 -13 3.7570 -9.7705
-4 -4 -12 -11.7473 6.9450
-4 -4 -11 -8.5529 -22.0983
-4 -4 -10 17.2993 1.7819
-4 -4 -9 25.7949 20.5414
-4 -4 -8 -14.2003 28.7883
-4 -4 -7 -10.8399 7.3097
-4 -4 -6 -19.6587 18.7232
-4 -4 -5 40.2508 -25.8550
-4 -4 -4 50.3033 -17.6227
-4 -4 -3 -32.8300 -16.4992
-4 -4 -2 15.8642 22.6652
-4 -4 -1 -12.3570 1.0039
-4 -3 -28 9.9085 1.6982
-4 -3 -27 2.8396 -1.0140
-4 -3 -26 0.4492 -8.3064
-4 -3 -25 0.1289 -3.3854
-4 -3 -24 1.6592 9.8086
-4 -3 -23 9.0151 4.6329
-4 -3 -22 6.0665 -6.8895
-4 -3 -21 13.6110 1.0079
-4 -3 -20 -1.7020 -9.7076
-4 -3 -19 0.2286 -3.0243
-4 -3 -18 3.0933 5.0279
-4 -3 -17 14.6212 -13.7262
-4 -3 -16 1.2427 -12.6766
-4 -3 -15 16.4875 8.3074
-4 -3 -14 4.8935 1.3285
-4 -3 -13 -24.5918 9.8365
-4 -3 -12 -15.6922 -6.3938
-4 -3 -11 26.2433 -12.0509
-4 -3 -10 -10.3889 -8.1761
-4 -3 -9 35.7980 0.4791
-4 -3 -8 30.4965 6.2755
-4 -3 -7 -5.5020 29.9065
-4 -3 -6 -31.8176 -37.7682
-4 -3 -5 -12.6129 -4.5414
-4 -3 -4 -28.6796 -28.5523
-4 -3 -3 30.7669 -3.2183
-4 -3 -2 -1.2754 74.4923
-4 -3 -1 2.6384 29.8649
-4 -2 -28 -2.6070 3.9390
-4 -2 -27 -2.8800 -8.4702
-4 -2 -26 1.0550 4.6891
-4 -2 -25 2.7531 2.0417
-4 -2 -24 9.4190 -1.8945
-4 -2 -23 3.4952 -8.5916
-4 -2 -22 -6.9650 0.9322
-4 -2 -21 -10.5015 -2.1476
-4 -2 -20 9.7981 0.5999
-4 -2 -19 -3.2541 7.5295
-4 -2 -18 -7.2148 -4.0475
-4 -2 -17 -4.4433 -16.2879
-4 -2 -16 2.0841 -13.0383
-4 -2 -15 10.4853 9.9375
-4 -2 -14 6.6781 16.3892
-4 -2 -13 -15.4166 10.8289
-4 -2 -12 7.2818 5.4326
-4 -2 -11 -3.4458 -24.8701
-4 -2 -10 -13.5047 -46.8477
-4 -2 -9 13.1950 17.3876
-4 -2 -8 17.1488 -14.0851
-4 -2 -7 -8.1370 25.5248
-4 -2 -6 -19.9071 37.6878
-4 -2 -5 -58.6916 -7.2409
-4 -2 -4 31.8106 -15.5430
-4 -2 -3 50.5109 39.7448
-4 -2 -2 5.4779 -38.6549
-4 -2 -1 47.1599 10.7139
-4 -1 -28 -2.9971 1.6333
-4 -1 -27 -4.8875 4.7644
-4 -1 -26 -5.5976 -6.2370
-4 -1 -25 3.0475 -0.5970
-4 -1 -24 -3.4636 3.1439
-4 -1 -23 -7.2079 3.1359
-4 -1 -22 -4.4278 3.9502
-4 -1 -21 9.6560 3.3278
-4 -1 -20 -4.6056 2.7284
-4 -1 -19 -6.7308 -3.6540
-4 -1 -18 -8.2376 4.9803
-4 -1 -17 -18.7534 1.6569
-4 -1 -16 5.2258 -3.2663
-4 -1 -15 24.8026 -2.2530
-4 -1 -14 10.0586 -4.6764
-4 -1 -13 -6.7057 4.6199
-4 -1 -12 -30.4941 17.8271
-4 -1 -11 -26.0277 -14.7629
-4 -1 -10 2.2899 -10.6641
-4 -1 -9 9.6008 -0.4805
-4 -1 -8 35.7041 -5.4211
-4 -1 -7 -28.7003 13.9579
-4 -1 -6 27.2566 36.3144
-4 -1 -5 38.2004 -36.4765
-4 -1 -4 -23.1489 -6.2694
-4 -1 -3 -12.0382 -70.0541
-4 -1 -2 32.5048 -34.4823
-4 -1 -1 -65.9491 26.5904
-3 -25 -4 -3.3166 0.0022
-3 -25 -3 -7.1010 -7.5728
-3 -25 -2 7.1084 3.0408
-3 -25 -1 -4.0794 7.1782
-3 -24 -9 -14.1066 -2.5479
-3 -24 -8 6.1283 -3.8022
-3 -24 -7 1.1011 -1.5477
-3 -24 -6 1.9150 6.6786
-3 -24 -5 -6.6057 8.0659
-3 -24 -4 4.7526 -0.6130
-3 -24 -3 4.6615 -0.3546
-3 -24 -2 -5.4895 5.7585
-3 -24 -1 -5.9766 -3.1307
-3 -23 -12 -3.5825 5.2245
-3 -23 -11 -4.0921 9.1191
-3 -23 -10 -4.7962 0.3338
-3 -23 -9 -13.6052 -12.4182
-3 -23 -8 3.9143 12.8734
-3 -23 -7 5.7167 -6.1647
-3 -23 -6 9.9649 -4.9778
-3 -23 -5 1.0460 -5.9411
-3 -23 -4 4.8875 2.3071
-3 -23 -3 1.5907 2.5141
-3 -23 -2 0.9610 1.9714
-3 -23 -1 4.3694 4.6758
-3 -22 -14 -1.9599 -1.5705
-3 -22 -13 6.5658 -0.9235
-3 -22 -12 -2.6059 -1.4624
-3 -22 -11 2.1175 8.1545
-3 -22 -10 1.5798 3.6447
-3 -22 -9 0.8811 2.2762
-3 -22 -8 -9.1971 -6.7032
-3 -22 -7 8.7311 -10.5898
-3 -22 -6 -15.3800 -7.2780
-3 -22 -5 7.4046 -7.2488
-3 -22 -4 3.8151 4.7586
-3 -22 -3 4.5362 -3.0681
-3 -22 -2 2.9731 -3.6252
-3 -22 -1 5.2976 3.6989
-3 -21 -16 -2.5267 -3.9050
-3 -21 -15 2.1173 2.2648
-3 -21 -14 -0.5162 6.0407
-3 -21 -13 2.7741 2.5130
-3 -21 -12 0.1385 -6.5489
-3 -21 -11 9.9320 5.6866
-3 -21 -10 0.6332 1.9313
-3 -21 -9 -2.1415 1.5590
-3 -21 -8 -5.9512 2.5216
-3 -21 -7 -10.5957 3.4403
-3 -21 -6 -4.5639 -4.8624
-3 -21 -5 2.3288 6.5370
-3 -21 -4 -5.0873 -14.9790
-3 -21 -3 8.3634 -0.8751
-3 -21 -2 0.3824 5.4644
-3 -21 -1 -3.6046 -9.9434
-3 -20 -17 -5.8073 -5.2715
-3 -20 -16 2.2758 3.8960
-3 -20 -15 5.6529 0.8092
-3 -20 -14 3.2107 -0.0713
-3 -20 -13 -0.3167 -3.7523
-3 -20 -12 3.8135 0.5399
-3 -20 -11 -7.2783 3.4103
-3 -20 -10 8.3867 -3.5451
-3 -20 -9 -3.6404 5.8547
-3 -20 -8 2.1915 10.4263
-3 -20 -7 -4.7889 5.9083
-3 -20 -6 -0.9842 9.2155
-3 -20 -5 -8.8871 -7.4879
-3 -20 -4 5.4222 -9.8915
-3 -20 -3 -15.5809 6.2040
-3 -20 -2 -0.5587 -0.2337
-3 -20 -1 2.4668 6.2012
-3 -19 -19 -3.9208 -1.3265
-3 -19 -18 -3.1251 2.0576
-3 -19 -17 5.2646 6.4260
-3 -19 -16 -3.9069 -2.9530
-3 -19 -15 -0.2704 -10.9371
-3 -19 -14 -2.1879 -8.1712
-3 -19 -13 -0.1728 8.8628
-3 -19 -12 0.3967 4.4508
-3 -19 -11 -8.6885 -8.1267
-3 -19 -10 7.9835 3.0014
-3 -19 -9 -0.5563 -2.9965
-3 -19 -8 12.9718 4.3718
-3 -19 -7 2.2072 1.0564
-3 -19 -6 -9.3733 1.0247
-3 -19 -5 -5.0970 4.3918
-3 -19 -4 -1.7140 10.4590
-3 -19 -3 3.9862 -9.1761
-3 -19 -2 11.2339 -5.7830
-3 -19 -1 -6.6518 0.9799
-3 -18 -20 0.0571 4.0201
-3 -18 -19 3.3654 -1.0484
-3 -18 -18 4.4392 2.4782
-3 -18 -17 -3.5492 0.8537
-3 -18 -16 -8.1660 -8.5981
-3 -18 -15 -6.7947 4.1405
-3 -18 -14 1.3148 -4.7658
-3 -18 -13 4.9891 11.8217
-3 -18 -12 6.9202 -6.1030
-3 -18 -11 -4.7486 -6.0156
-3 -18 -10 -14.0314 -1.3446
-3 -18 -9 13.2480 -12.8292
-3 -18 -8 -3.1938 0.1916
-3 -18 -7 9.9028 1.0045
-3 -18 -6 8.7671 2.0674
-3 -18 -5 -1.9181 7.1380
-3 -18 -4 -16.1524 -8.3617
-3 -18 -3 11.7370 -10.1747
-3 -18 -2 2.2385 0.0876
-3 -18 -1 3.3292 4.0459
-3 -17 -21 1.0572 -0.7118
-3 -17 -20 3.6016 -0.0794
-3 -17 -19 5.9849 -3.3363
-3 -17 -18 -9.7654 0.5142
-3 -17 -17 -3.4861 6.6563
-3 -17 -16 -3.4398 7.0278
-3 -17 -15 7.0074 -1.2049
-3 -17 -14 8.9719 -7.1185
-3 -17 -13 -4.9343 -7.2147
-3 -17 -12 2.7950 8.3150
-3 -17 -11 -6.8147 6.3473
-3 -17 -10 -8.0347 7.5622
-3 -17 -9 10.0517 -10.9629
-3 -17 -8 -8.2812 -25.5937
-3 -17 -7 11.4829 13.0361
-3 -17 -6 3.9834 12.3397
-3 -17 -5 -6.4746 -8.2576
-3 -17 -4 -1.9694 0.5735
-3 -17 -3 -3.7144 5.0092
-3 -17 -2 3.9493 -15.3484
-3 -17 -1 12.6286 4.2777
-3 -16 -22 -3.8433 -6.2575
-3 -16 -21 1.7026 -1.4344
-3 -16 -20 -4.1094 0.4849
-3 -16 -19 5.9555 3.1381
-3 -16 -18 0.5992 7.1181
-3 -16 -17 5.3479 5.6435
-3 -16 -16 2.0883 -5.9059
-3 -16 -15 -4.2493 -5.7050
-3 -16 -14 -4.6619 -2.6621
-3 -16 -13 7.8473 -4.8983
-3 -16 -12 11.7249 19.6748
-3 -16 -11 -1.5371 -2.5436
-3 -16 -10 -14.0984 5.7615
-3 -16 -9 -6.3377 1.3763
-3 -16 -8 2.2645 -7.0101
-3 -16 -7 -4.9162 8.0774
-3 -16 -6 16.4368 -5.5474
-3 -16 -5 -9.6334 -0.2656
-3 -16 -4 -15.2377 15.1860
-3 -16 -3 1.9707 -3.1279
-3 -16 -2 11.2346 -5.7305
-3 -16 -1 -13.7667 -11.3978
-3 -15 -23 0.2607 -2.1233
-3 -15 -22 -4.5709 2.9054
-3 -15 -21 0.9374 0.9442
-3 -15 -20 8.1024 -3.1698
-3 -15 -19 4.9895 0.3332
-3 -15 -18 4.8280 -4.1975
-3 -15 -17 0.2891 5.9931
-3 -15 -16 -4.3661 -1.2487
-3 -15 -15 -18.6690 -4.5166
-3 -15 -14 4.0861 -0.1390
-3 -15 -13 3.9973 6.2165
-3 -15 -12 1.7609 -4.8049
-3 -15 -11 12.6691 4.8421
-3 -15 -10 -4.9963 11.8927
-3 -15 -9 -6.6861 7.7755
-3 -15 -8 -0.7111 -10.8875
-3 -15 -7 -14.3634 0.5177
-3 -15 -6 10.5824 11.0535
-3 -15 -5 2.7937 2.8482
-3 -15 -4 0.3756 -1.7993
-3 -15 -3 -1.3558 -6.6469
-3 -15 -2 -19.0379 2.4769
-3 -15 -1 -5.0324 17.5061
-3 -14 -24 -6.3383 4.5322
-3 -14 -23 -2.1112 4.3237
-3 -14 -22 8.8138 -2.3593
-3 -14 -21 -0.4023 -0.9726
-3 -14 -20 -3.1972 -7.8105
-3 -14 -19 -1.1663 -6.1078
-3 -14 -18 5.7874 1.2466
-3 -14 -17 -11.4695 10.8298
-3 -14 -16 2.7653 5.9341
-3 -14 -15 -1.4220 10.1861
-3 -14 -14 2.0192 5.0177
-3 -14 -13 3.1228 -18.1258
-3 -14 -12 4.5599 -19.1727
-3 -14 -11 -3.2005 7.2557
-3 -14 -10 3.0003 -3.0381
-3 -14 -9 7.3990 16.8837
-3 -14 -8 1.2616 -1.7556
-3 -14 -7 3.8341 -13.6427
-3 -14 -6 2.2260 2.4463
-3 -14 -5 -5.6594 -7.7883
-3 -14 -4 -0.6861 -1.9776
-3 -14 -3 20.0117 12.5549
-3 -14 -2 3.2947 7.8274
-3 -14 -1 3.0944 9.4389
-3 -13 -24 2.2101 -9.4750
-3 -13 -23 1.4885 4.4478
-3 -13 -22 -5.0775 -0.8268
-3 -13 -21 -7.2662 -6.2456
-3 -13 -20 -5.3774 -0.2047
-3 -13 -19 -1.0694 9.6878
-3 -13 -18 3.9305 -4.2552
-3 -13 -17 15.2499 -6.5170
-3 -13 -16 11.9021 5.9997
-3 -13 -15 -0.5357 -9.7203
-3 -13 -14 -16.5488 -5.8095
-3 -13 -13 -9.2309 -6.5566
-3 -13 -12 -11.4469 7.1064
-3 -13 -11 11.8450 -3.5984
-3 -13 -10 17.4871 -10.1485
-3 -13 -9 -6.1840 -15.4177
-3 -13 -8 3.3555 3.4118
-3 -13 -7 -2.5991 7.7046
-3 -13 -6 -12.2804 -1.1694
-3 -13 -5 14.1401 -16.4224
-3 -13 -4 6.7545 4.5544
-3 -13 -3 7.0692 -4.7555
-3 -13 -2 5.9488 -12.4927
-3 -13 -1 -9.4045 5.9459
-3 -12 -25 -1.1812 -2.6478
-3 -12 -24 4.1806 -4.6975
-3 -12 -23 -10.3068 -1.6493
-3 -12 -22 -2.9805 4.8267
-3 -12 -21 9.1894 7.4227
-3 -12 -20 -4.1302 -0.3335
-3 -12 -19 -2.3861 -10.6215
-3 -12 -18 1.9126 -14.3013
-3 -12 -17 -2.4672 -9.2750
-3 -12 -16 -7.2084 2.9022
-3 -12 -15 2.5929 6.6174
-3 -12 -14 -4.2223 13.7399
-3 -12 -13 7.0707 11.5765
-3 -12 -12 -5.9448 -1.6728
-3 -12 -11 0.0021 -9.6766
-3 -12 -10 -10.7689 -6.4811
-3 -12 -9 -5.7607 0.4186
-3 -12 -8 6.6786 19.7118
-3 -12 -7 -1.7081 -7.2209
-3 -12 -6 -3.5530 -1.5300
-3 -12 -5 0.6117 6.4062
-3 -12 -4 -14.6584 -9.5348
-3 -12 -3 -4.9671 -0.3557
-3 -12 -2 2.8528 3.3856
-3 -12 -1 -7.6651 3.8605
-3 -11 -26 -1.5328 -4.8447
-3 -11 -25 1.0643 2.6462
-3 -11 -24 -4.3824 5.7355
-3 -11 -23 6.7780 -10.9030
-3 -11 -22 8.0204 3.6713
-3 -11 -21 4.1407 3.0912
-3 -11 -20 -8.0262 -4.2849
-3 -11 -19 -11.2057 7.2531
-3 -11 -18 -1.7300 9.4006
-3 -11 -17 -2.2220 -5.8880
-3 -11 -16 7.0225 2.2182
-3 -11 -15 13.5059 9.9858
-3 -11 -14 12.5507 0.7625
-3 -11 -13 -1.2835 -0.9687
-3 -11 -12 -0.7197 -3.1258
-3 -11 -11 -13.5221 22.3795
-3 -11 -10 -5.0929 4.1678
-3 -11 -9 2.0723 12.2969
-3 -11 -8 2.9020 -7.9001
-3 -11 -7 5.2059 -12.9316
-3 -11 -6 -8.5573 15.1705
-3 -11 -5 -2.7966 16.4199
-3 -11 -4 -1.5010 -15.0314
-3 -11 -3 -11.3882 24.1348
-3 -11 -2 16.0415 4.4793
-3 -11 -1 11.0340 -23.1722
-3 -10 -26 6.5830 2.6492
-3 -10 -25 -8.2472 2.6546
-3 -10 -24 -2.8603 -2.7761
-3 -10 -23 6.8983 -1.0347
-3 -10 -22 -1.8857 -2.7818
-3 -10 -21 3.7026 6.2951
-3 -10 -20 12.1416 5.3630
-3 -10 -19 -10.0011 14.9890
-3 -10 -18 7.3861 3.3648
-3 -10 -17 3.8362 -11.0080
-3 -10 -16 -3.1588 -8.2859
-3 -10 -15 1.4530 -6.0040
-3 -10 -14 1.2616 -11.7398
-3 -10 -13 -10.8912 0.4011
-3 -10 -12 15.2596 14.2580
-3 -10 -11 19.4671 8.4498
-3 -10 -10 11.2671 2.3550
-3 -10 -9 -27.1191 -11.6083
-3 -10 -8 0.1680 -14.7304
-3 -10 -7 -0.9905 5.3151
-3 -10 -6 -1.1017 1.8426
-3 -10 -5 35.3031 5.0241
-3 -10 -4 12.4667 -5.8035
-3 -10 -3 -38.2399 -6.7523
-3 -10 -2 8.3588 -3.7263
-3 -10 -1 15.3224 -27.4714
-3 -9 -27 -1.7013 -0.3207
-3 -9 -26 -1.5641 -5.1817
-3 -9 -25 -4.9689 11.0089
-3 -9 -24 -6.1231 3.6814
-3 -9 -23 -2.9995 -0.2887
-3 -9 -22 -2.5887 -16.3820
-3 -9 -21 2.6622 7.8913
-3 -9 -20 11.8782 0.6047
-3 -9 -19 -2.7628 -9.9165
-3 -9 -18 -4.1194 -0.5084
-3 -9 -17 -11.8048 -9.1870
-3 -9 -16 -16.1176 5.9737
-3 -9 -15 -4.9076 12.3152
-3 -9 -14 1.7240 -18.7263
-3 -9 -13 8.6470 -18.3275
-3 -9 -12 13.0684 -3.5164
-3 -9 -11 6.8290 -23.9306
-3 -9 -10 -12.7257 10.0797
-3 -9 -9 -4.2325 25.4913
-3 -9 -8 -2.6346 16.6838
-3 -9 -7 1.4782 -52.3408
-3 -9 -6 16.1067 -15.6759
-3 -9 -5 -2.7825 20.0756
-3 -9 -4 -0.2433 7.2763
-3 -9 -3 -12.5234 -9.9646
-3 -9 -2 -16.4364 10.6209
-3 -9 -1 12.9302 -29.4046
-3 -8 -27 -0.4076 -0.2339
-3 -8 -26 -3.9078 8.6610
-3 -8 -25 2.4851 -2.3321
-3 -8 -24 2.7149 -0.3018
-3 -8 -23 -12.7784 2.2847
-3 -8 -22 2.1889 -9.1925
-3 -8 -21 -4.9657 -8.0943
-3 -8 -20 -4.5024 -6.6155
-3 -8 -19 -11.3115 -3.0356
-3 -8 -18 -3.3187 16.0262
-3 -8 -17 19.3967 9.2740
-3 -8 -16 -8.5021 0.2614
-3 -8 -15 -4.0425 -3.3607
-3 -8 -14 -11.7746 -3.9962
-3 -8 -13 -31.2819 -5.3434
-3 -8 -12 4.1373 -9.5993
-3 -8 -11 34.7748 0.7167
-3 -8 -10 -2.2605 11.4862
-3 -8 -9 3.0925 15.2246
-3 -8 -8 -14.3486 -9.2202
-3 -8 -7 -7.8294 -1.7153
-3 -8 -6 -8.0736 2.5767
-3 -8 -5 22.7619 -8.6043
-3 -8 -4 -4.5888 22.5808
-3 -8 -3 -16.9808 5.4623
-3 -8 -2 -2.4142 5.1319
-3 -8 -1 26.4696 9.7960
-3 -7 -27 4.1184 -3.7862
-3 -7 -26 3.7301 -2.5007
-3 -7 -25 14.1873 3.8976
-3 -7 -24 -1.2651 -5.9603
-3 -7 -23 -4.1110 -3.5014
-3 -7 -22 -0.2840 19.2869
-3 -7 -21 -6.4153 -1.8999
-3 -7 -20 5.4525 11.0721
-3 -7 -19 12.3860 -1.2395
-3 -7 -18 4.9701 -3.3474
-3 -7 -17 6.4811 -9.8356
-3 -7 -16 2.6006 12.7142
-3 -7 -15 -1.3302 37.2056
-3 -7 -14 -5.9537 3.8654
-3 -7 -13 -6.8404 -19.9579
-3 -7 -12 -6.6437 5.1983
-3 -7 -11 0.1043 -6.7481
-3 -7 -10 12.0066 -7.1317
-3 -7 -9 6.7040 18.7166
-3 -7 -8 -0.2436 -10.4738
-3 -7 -7 -22.8695 12.1723
-3 -7 -6 -2.3774 0.6228
-3 -7 -5 11.4419 1.6163
-3 -7 -4 -4.2104 -7.6324
-3 -7 -3 32.8567 17.4452
-3 -7 -2 -9.3279 -41.6875
-3 -7 -1 -26.7212 -30.7481
-3 -6 -28 1.1917 4.4370
-3 -6 -27 8.8776 -9.7168
-3 -6 -26 -7.0830 -9.0875
-3 -6 -25 -3.4754 7.4628
-3 -6 -24 11.7106 3.7819
-3 -6 -23 5.9648 15.0109
-3 -6 -22 10.0010 4.5481
-3 -6 -21 15.8713 -3.7703
-3 -6 -20 -7.6895 4.1509
-3 -6 -19 -4.1158 -0.9095
-3 -6 -18 2.7858 -9.5286
-3 -6 -17 13.6574 -2.2489
-3 -6 -16 14.9387 2.5864
-3 -6 -15 3.9178 3.4823
-3 -6 -14 -4.2200 10.4929
-3 -6 -13 -15.0067 8.1233
-3 -6 -12 -2.7511 2.9988
-3 -6 -11 7.0983 -12.1916
-3 -6 -10 -17.3546 -19.6610
-3 -6 -9 -5.5948 -6.7372
-3 -6 -8 16.4766 27.9574
-3 -6 -7 -6.7258 -0.0521
-3 -6 -6 16.0466 4.1945
-3 -6 -5 -5.1503 -27.7692
-3 -6 -4 -34.1961 -27.4356
-3 -6 -3 -40.4531 16.2088
-3 -6 -2 15.9646 -8.0164
-3 -6 -1 -9.9197 31.9701
-3 -5 -28 -13.7429 -13.1065
-3 -5 -27 -9.4764 5.5337
-3 -5 -26 -7.3092 -1.4898
-3 -5 -25 4.6579 3.4359
-3 -5 -24 10.3736 -9.5143
-3 -5 -23 -1.4369 -15.7936
-3 -5 -22 -2.8667 -4.4413
-3 -5 -21 -3.9943 8.7297
-3 -5 -20 -6.3804 -4.8908
-3 -5 -19 -7.5549 0.7444
-3 -5 -18 -7.7400 -11.0726
-3 -5 -17 -5.4207 -3.2250
-3 -5 -16 8.0759 -8.4455
-3 -5 -15 7.8336 2.1510
-3 -5 -14 11.4142 6.6449
-3 -5 -13 3.3805 12.5455
-3 -5 -12 -14.9292 -2.5710
-3 -5 -11 -14.5562 2.5163
-3 -5 -10 10.7846 11.2959
-3 -5 -9 5.0020 3.5092
-3 -5 -8 15.5014 -30.0025
-3 -5 -7 18.0367 -17.0328
-3 -5 -6 -39.4824 46.8328
-3 -5 -5 -11.2288 32.3286
-3 -5 -4 -3.1148 12.2523
-3 -5 -3 1.1881 -2.3271
-3 -5 -2 53.3875 25.9773
-3 -5 -1 0.6907 -14.8068
-3 -4 -28 -0.7529 4.4461
-3 -4 -27 -18.7636 1.3777
-3 -4 -26 9.3754 -8.7166
-3 -4 -25 -11.1485 -17.3691
-3 -4 -24 -11.3355 -3.0651
-3 -4 -23 -7.4437 -1.2546
-3 -4 -22 0.1122 -0.6111
-3 -4 -21 -1.6461 1.6758
-3 -4 -20 0.3439 3.8248
-3 -4 -19 -8.8440 2.0499
-3 -4 -18 -5.2783 1.9009
-3 -4 -17 -2.5391 -6.3191
-3 -4 -16 1.9560 -14.0395
-3 -4 -15 2.8260 -4.9926
-3 -4 -14 12.8277 6.6840
-3 -4 -13 6.4327 4.6700
-3 -4 -12 8.7850 -1.8140
-3 -4 -11 -0.5735 13.9737
-3 -4 -10 -3.9335 -5.7408
-3 -4 -9 -10.5904 -22.7530
-3 -4 -8 6.0870 13.6117
-3 -4 -7 25.0878 22.3013
-3 -4 -6 27.5352 -4.1238
-3 -4 -5 26.6236 43.9382
-3 -4 -4 18.4084 -24.5326
-3 -4 -3 3.0739 -31.4857
-3 -4 -2 -20.0636 -0.4491
-3 -4 -1 25.5524 -38.3802
-3 -3 -28 4.1390 6.5456
-3 -3 -27 -8.8748 3.9686
-3 -3 -26 3.6332 8.4656
-3 -3 -25 3.2210 -7.6399
-3 -3 -24 -2.7543 13.6743
-3 -3 -23 7.7467 -0.5507
-3 -3 -22 9.9989 -4.5553
-3 -3 -21 -1.0836 -2.0579
-3 -3 -20 10.1116 14.1004
-3 -3 -19 1.4986 -9.8780
-3 -3 -18 -9.4405 4.3969
-3 -3 -17 -0.1837 1.2661
-3 -3 -16 0.1627 -4.9719
-3 -3 -15 -3.0868 -16.8432
-3 -3 -14 -2.0395 -0.7950
-3 -3 -13 3.8421 -14.1451
-3 -3 -12 -5.1307 19.3027
-3 -3 -11 -5.8371 0.4193
-3 -3 -10 2.5069 -15.2478
-3 -3 -9 3.4873 -5.4439
-3 -3 -8 -19.0003 12.2789
-3 -3 -7 29.0172 -35.1348
-3 -3 -6 15.8528 -61.3952
-3 -3 -5 -26.5490 -5.0036
-3 -3 -4 12.1767 24.3953
-3 -3 -3 -52.9535 -9.8149
-3 -3 -2 -38.8272 -9.8796
-3 -3 -1 47.4760 22.9322
-3 -2 -28 5.5682 -3.4531
-3 -2 -27 3.1081 -3.6516
-3 -2 -26 2.2357 3.1505
-3 -2 -25 1.8442 6.7349
-3 -2 -24 -4.1914 -0.8940
-3 -2 -23 10.6705 9.2492
-3 -2 -22 -1.0369 -11.0503
-3 -2 -21 -1.7303 1.4198
-3 -2 -20 5.7388 14.0927
-3 -2 -19 9.4764 -3.6517
-3 -2 -18 -17.0057 0.9471
-3 -2 -17 4.6374 8.1201
-3 -2 -16 0.4206 1.4329
-3 -2 -15 -17.4774 -0.6481
-3 -2 -14 0.3963 6.5567
-3 -2 -13 20.6665 -2.1769
-3 -2 -12 -35.2345 -1.9385
-3 -2 -11 12.0521 -14.6805
-3 -2 -10 9.6427 7.9350
-3 -2 -9 -22.7420 0.8765
-3 -2 -8 -37.0438 -16.5499
-3 -2 -7 -21.2424 -4.8699
-3 -2 -6 -39.9327 -25.1411
-3 -2 -5 -5.7289 5.1809
-3 -2 -4 39.1410 70.5983
-3 -2 -3 21.6116 -11.2855
-3 -2 -2 -47.8766 16.0889
-3 -2 -1 -40.6406 -17.2532
-3 -1 -29 -6.7670 -12.2631
-3 -1 -28 -5.0992 -6.2948
-3 -1 -27 -11.6380 6.0664
-3 -1 -26 -1.3578 3.6958
-3 -1 -25 12.2143 -4.3204
-3 -1 -24 -6.8704 -0.2988
-3 -1 -23 -11.2440 3.5107
-3 -1 -22 3.1408 -7.9283
-3 -1 -21 -3.9128 2.4906
-3 -1 -20 2.6983 3.1841
-3 -1 -19 7.5640 4.5976
-3 -1 -18 -5.1709 -2.2611
-3 -1 -17 3.1169 16.2727
-3 -1 -16 7.5775 -16.8618
-3 -1 -15 2.0378 11.5108
-3 -1 -14 0.5696 31.1666
-3 -1 -13 -8.3461 -8.8414
-3 -1 -12 0.2525 -38.0441
-3 -1 -11 11.9088 49.7151
-3 -1 -10 -3.6058 -8.1062
-3 -1 -9 0.2138 17.8366
-3 -1 -8 -6.8886 59.0318
-3 -1 -7 -31.4858 31.7528
-3 -1 -6 36.8511 -27.0443
-3 -1 -5 23.7866 -23.2563
-3 -1 -4 23.3015 -19.1076
-3 -1 -3 45.0462 40.0432
-3 -1 -2 -78.5123 55.6431
-3 -1 -1 -43.7741 16.3497
-2 -25 -5 1.1951 -3.2330
-2 -25 -4 -1.1430 -4.8263
-2 -25 -3 -0.2214 2.0570
-2 -25 -2 3.3477 -1.9850
-2 -25 -1 -0.1003 -5.8094
-2 -24 -9 -11.0616 5.1144
-2 -24 -8 -4.7481 1.5527
-2 -24 -7 -9.8165 -1.9499
-2 -24 -6 0.1904 11.9002
-2 -24 -5 -6.7321 -8.2939
-2 -24 -4 9.8544 -5.0610
-2 -24 -3 -3.3694 1.4190
-2 -24 -2 5.6328 0.8999
-2 -24 -1 -0.8437 -4.1995
-2 -23 -12 3.4639 -16.5980
-2 -23 -11 -2.6943 2.8873
-2 -23 -10 0.8110 0.7046
-2 -23 -9 4.5025 9.4020
-2 -23 -8 8.5299 16.4774
-2 -23 -7 -0.8345 8.8223
-2 -23 -6 -5.8851 -4.5947
-2 -23 -5 2.9284 -1.7263
-2 -23 -4 -8.8332 7.4315
-2 -23 -3 4.8549 -9.8150
-2 -23 -2 2.5541 -2.2895
-2 -23 -1 -12.7496 0.8259
-2 -22 -14 -3.0644 -0.3580
-2 -22 -13 -0.1556 -0.1440
-2 -22 -12 -5.7230 8.5095
-2 -22 -11 -11.8027 -7.0318
-2 -22 -10 15.8285 -0.0625
-2 -22 -9 15.2994 -5.4131
-2 -22 -8 -1.7516 0.8582
-2 -22 -7 1.2317 5.0823
-2 -22 -6 1.0761 5.8844
-2 -22 -5 -6.6109 -1.4441
-2 -22 -4 -12.4166 -4.3314
-2 -22 -3 1.0491 16.3961
-2 -22 -2 -14.9685 0.2928
-2 -22 -1 5.6988 -5.0298
-2 -21 -16 -8.2876 7.0393
-2 -21 -15 -4.9289 -7.4027
-2 -21 -14 0.0371 0.5990
-2 -21 -13 6.1310 5.0529
-2 -21 -12 -1.0934 1.0342
-2 -21 -11 -3.7319 -6.3109
-2 -21 -10 -5.0307 -3.5749
-2 -21 -9 6.9227 -11.9360
-2 -21 -8 1.8601 -8.0752
-2 -21 -7 -0.4498 3.7668
-2 -21 -6 1.1693 8.7710
-2 -21 -5 5.8998 2.1835
-2 -21 -4 3.7131 8.0845
-2 -21 -3 -3.2338 2.5368
-2 -21 -2 3.1504 -8.3086
-2 -21 -1 -7.0222 1.9335
-2 -20 -18 2.0316 -5.7193
-2 -20 -17 2.3568 5.2410
-2 -20 -16 -1.5086 -0.7034
-2 -20 -15 7.0870 7.5298
-2 -20 -14 -7.0749 -10.6891
-2 -20 -13 8.2351 -0.7649
-2 -20 -12 1.8686 -5.9216
-2 -20 -11 1.2254 6.7026
-2 -20 -10 -11.7329 -4.6706
-2 -20 -9 -9.8347 -2.7700
-2 -20 -8 10.0807 -4.7519
-2 -20 -7 6.4392 -1.6335
-2 -20 -6 7.0701 -4.6191
-2 -20 -5 7.3042 1.2068
-2 -20 -4 1.1353 0.6389
-2 -20 -3 -2.0575 -3.2582
-2 -20 -2 4.5979 6.7095
-2 -20 -1 -4.6383 -0.5802
-2 -19 -19 -7.1027 -1.0448
-2 -19 -18 0.6024 3.1817
-2 -19 -17 5.5728 -3.3904
-2 -19 -16 2.0539 1.3631
-2 -19 -15 -4.4006 1.4079
-2 -19 -14 -2.1332 -5.9389
-2 -19 -13 -6.8635 4.2038
-2 -19 -12 5.9786 -3.8259
-2 -19 -11 0.0799 15.9795
-2 -19 -10 1.0878 -0.5858
-2 -19 -9 -11.0949 2.1221
-2 -19 -8 -2.6542 2.6865
-2 -19 -7 6.8859 -15.1632
-2 -19 -6 -0.1819 -1.0165
-2 -19 -5 -4.9848 5.8806
-2 -19 -4 5.9215 -5.0862
-2 -19 -3 0.7895 6.5826
-2 -19 -2 -4.6745 2.8485
-2 -19 -1 9.8471 -7.4710
-2 -18 -20 -0.2014 5.1978
-2 -18 -19 2.0818 -3.4056
-2 -18 -18 1.4916 8.4339
-2 -18 -17 -1.5367 -5.6184
-2 -18 -16 -7.8052 2.6183
-2 -18 -15 -0.9111 5.0405
-2 -18 -14 2.6455 8.7559
-2 -18 -13 -4.1550 -7.6476
-2 -18 -12 6.6005 7.2951
-2 -18 -11 -6.8132 -1.0005
-2 -18 -10 14.2017 10.6689
-2 -18 -9 -9.2781 -1.4446
-2 -18 -8 -10.5784 5.4115
-2 -18 -7 -0.2442 -4.3156
-2 -18 -6 -10.8027 -2.7995
-2 -18 -5 6.6598 7.8704
-2 -18 -4 4.7979 1.7964
-2 -18 -3 -7.1427 -11.1867
-2 -18 -2 2.4429 -0.0742
-2 -18 -1 -9.4738 9.2079
-2 -17 -21 -0.0131 0.4450
-2 -17 -20 2.3184 -1.1818
-2 -17 -19 5.1578 -3.4979
-2 -17 -18 -1.5766 -0.7030
-2 -17 -17 4.2298 5.1843
-2 -17 -16 -4.2308 -0.7950
-2 -17 -15 0.1319 5.6259
-2 -17 -14 8.6210 -6.2205
-2 -17 -13 1.0885 -0.5931
-2 -17 -12 -7.1357 -0.4599
-2 -17 -11 10.0448 -15.4920
-2 -17 -10 0.7160 9.9804
-2 -17 -9 0.8762 -2.7034
-2 -17 -8 -3.7897 10.5982
-2 -17 -7 6.7934 6.7077
-2 -17 -6 -1.5459 -9.4357
-2 -17 -5 -3.7414 -6.6528
-2 -17 -4 -3.6896 -6.9023
-2 -17 -3 -1.4447 7.1417
-2 -17 -2 7.6371 21.1934
-2 -17 -1 12.0254 -4.1653
-2 -16 -22 -1.9345 -8.7827
-2 -16 -21 2.7459 1.3616
-2 -16 -20 -5.6344 -2.5802
-2 -16 -19 0.0260 -3.0998
-2 -16 -18 -3.1056 -4.9621
-2 -16 -17 10.1312 9.7285
-2 -16 -16 7.0862 -9.6055
-2 -16 -15 1.2460 -0.2996
-2 -16 -14 1.3009 -8.5403
-2 -16 -13 -11.1441 -5.3451
-2 -16 -12 0.3243 0.6781
-2 -16 -11 6.4775 5.2622
-2 -16 -10 -7.4150 -17.8169
-2 -16 -9 28.4156 -0.9672
-2 -16 -8 4.4310 -3.4013
-2 -16 -7 -10.9533 2.1850
-2 -16 -6 -6.8545 4.1838
-2 -16 -5 -2.1068 8.7588
-2 -16 -4 12.5361 -13.7078
-2 -16 -3 14.6327 -10.6182
-2 -16 -2 3.6642 5.1006
-2 -16 -1 -1.9746 4.7211
-2 -15 -23 -1.2797 -1.9152
-2 -15 -22 -2.8776 -1.8951
-2 -15 -21 -8.6213 3.4749
-2 -15 -20 0.9720 5.9654
-2 -15 -19 1.4984 0.5805
-2 -15 -18 -3.1136 -9.3024
-2 -15 -17 -0.0470 -8.3530
-2 -15 -16 1.2175 -7.2519
-2 -15 -15 -14.3393 4.3852
-2 -15 -14 0.5145 12.1687
-2 -15 -13 3.5462 3.6526
-2 -15 -12 -0.1107 9.5691
-2 -15 -11 -4.7518 -13.4725
-2 -15 -10 -9.4375 -16.4873
-2 -15 -9 -10.4619 13.8242
-2 -15 -8 20.4510 -7.2885
-2 -15 -7 8.6711 13.9921
-2 -15 -6 -7.7102 12.0172
-2 -15 -5 -9.6362 -16.2426
-2 -15 -4 4.6145 -10.0297
-2 -15 -3 -7.6470 3.4847
-2 -15 -2 8.1530 3.3876
-2 -15 -1 11.8187 10.9753
-2 -14 -24 -7.3988 4.3330
-2 -14 -23 -0.6663 11.0480
-2 -14 -22 6.2124 -2.1990
-2 -14 -21 2.0629 -2.4083
-2 -14 -20 0.3524 5.1743
-2 -14 -19 -6.8172 -3.5613
-2 -14 -18 -11.1125 1.9746
-2 -14 -17 -13.0384 4.8384
-2 -14 -16 5.1693 6.1200
-2 -14 -15 8.0319 0.9514
-2 -14 -14 10.5779 7.7648
-2 -14 -13 0.8917 -7.4730
-2 -14 -12 -14.0602 10.2190
-2 -14 -11 -3.6734 11.9310
-2 -14 -10 -8.3094 2.6505
-2 -14 -9 -6.9124 -10.2501
-2 -14 -8 18.6019 -1.7024
-2 -14 -7 -9.2559 -4.0560
-2 -14 -6 -0.2228 11.7150
-2 -14 -5 -2.8724 6.6298
-2 -14 -4 -12.2327 -1.6162
-2 -14 -3 5.7540 -15.7998
-2 -14 -2 12.1353 6.3069
-2 -14 -1 -3.3275 0.6653
-2 -13 -25 10.6687 5.7422
-2 -13 -24 5.8838 -1.2343
-2 -13 -23 4.4514 -1.4218
-2 -13 -22 2.1965 -6.6828
-2 -13 -21 -3.9423 0.6542
-2 -13 -20 3.1599 7.2016
-2 -13 -19 6.4619 11.7642
-2 -13 -18 0.1741 4.0141
-2 -13 -17 0.8252 1.8239
-2 -13 -16 5.8130 -7.9190
-2 -13 -15 1.8969 -16.3077
-2 -13 -14 -0.6224 -5.6758
-2 -13 -13 2.8029 1.8345
-2 -13 -12 -1.1945 2.2839
-2 -13 -11 9.4314 14.5032
-2 -13 -10 -4.8772 -2.3833
-2 -13 -9 -10.1782 -8.2367
-2 -13 -8 -5.5518 -1.3456
-2 -13 -7 11.3473 -12.9861
-2 -13 -6 1.7196 6.5028
-2 -13 -5 -6.5372 1.7600
-2 -13 -4 -9.9976 -0.8047
-2 -13 -3 10.8808 -1.1451
-2 -13 -2 -10.2733 -14.4745
-2 -13 -1 -1.8451 -12.0755
-2 -12 -25 6.0083 2.2599
-2 -12 -24 -4.1567 -3.5635
-2 -12 -23 -4.4131 -0.2968
-2 -12 -22 0.1214 2.6092
-2 -12 -21 8.8439 2.8740
-2 -12 -20 6.5147 -2.1772
-2 -12 -19 7.5311 -3.8843
-2 -12 -18 0.8314 -2.5159
-2 -12 -17 -5.9834 2.8994
-2 -12 -16 -9.2037 -2.0469
-2 -12 -15 -14.4068 -5.6989
-2 -12 -14 -5.9408 1.9149
-2 -12 -13 17.9219 0.9856
-2 -12 -12 16.7904 -8.7282
-2 -12 -11 -0.4556 0.6436
-2 -12 -10 7.4711 -0.9178
-2 -12 -9 -7.8098 7.3162
-2 -12 -8 -14.9141 -1.6585
-2 -12 -7 9.4549 1.5347
-2 -12 -6 3.1910 -5.0346
-2 -12 -5 9.8844 -1.3082
-2 -12 -4 -6.9508 7.2356
-2 -12 -3 -13.8606 13.8889
-2 -12 -2 -14.3395 -12.4274
-2 -12 -1 -4.1122 10.0765
-2 -11 -26 -0.5828 2.6559
-2 -11 -25 -2.1724 -1.7519
-2 -11 -24 -0.8603 6.6638
-2 -11 -23 -0.8994 1.0585
-2 -11 -22 -3.5146 -1.4993
-2 -11 -21 -1.7695 -7.2710
-2 -11 -20 -1.2707 -6.7224
-2 -11 -19 -6.3640 0.3339
-2 -11 -18 -1.0825 5.5566
-2 -11 -17 2.7329 16.7338
-2 -11 -16 5.0620 15.3974
-2 -11 -15 -4.0684 2.5662
-2 -11 -14 -8.2176 -5.3141
-2 -11 -13 7.5045 -14.4550
-2 -11 -12 -1.9016 -14.5146
-2 -11 -11 -11.2655 5.9932
-2 -11 -10 16.8532 21.5463
-2 -11 -9 11.2224 1.9864
-2 -11 -8 -2.2822 4.7347
-2 -11 -7 -13.9280 0.4507
-2 -11 -6 11.9029 -11.4086
-2 -11 -5 12.8016 14.1179
-2 -11 -4 4.1824 13.2384
-2 -11 -3 -6.6208 7.7631
-2 -11 -2 8.5010 6.2203
-2 -11 -1 0.1021 -0.5505
-2 -10 -26 1.6518 1.3868
-2 -10 -25 -1.6320 -8.6368
-2 -10 -24 -1.7375 -2.1327
-2 -10 -23 6.6662 7.5902
-2 -10 -22 -10.8072 -8.7187
-2 -10 -21 -9.2944 4.2126
-2 -10 -20 -1.4746 4.5398
-2 -10 -19 7.7509 -2.7569
-2 -10 -18 14.9267 -9.4524
-2 -10 -17 10.2185 -4.1444
-2 -10 -16 4.1284 5.4408
-2 -10 -15 -11.1699 2.3832
-2 -10 -14 -17.2777 5.7090
-2 -10 -13 -9.2186 8.0118
-2 -10 -12 -3.6857 -17.1090
-2 -10 -11 9.7746 -1.6910
-2 -10 -10 7.9238 7.4588
-2 -10 -9 -1.6133 -13.8622
-2 -10 -8 -5.0467 3.8607
-2 -10 -7 7.3467 -1.4248
-2 -10 -6 2.4000 -9.9550
-2 -10 -5 -9.1279 -4.5927
-2 -10 -4 25.2511 12.2470
-2 -10 -3 -0.5664 -11.7169
-2 -10 -2 5.9679 -13.9527
-2 -10 -1 9.7532 -18.0896
-2 -9 -27 -5.0643 0.6261
-2 -9 -26 -0.8755 -2.5950
-2 -9 -25 9.8406 -9.8131
-2 -9 -24 -6.0880 -2.4485
-2 -9 -23 4.5744 9.2059
-2 -9 -22 15.5433 -2.3942
-2 -9 -21 -7.9315 12.1848
-2 -9 -20 4.2905 -12.9073
-2 -9 -19 -3.8244 -16.9087
-2 -9 -18 -11.0462 -8.8601
-2 -9 -17 2.3812 -1.7858
-2 -9 -16 19.9264 4.2446
-2 -9 -15 6.6521 9.0301
-2 -9 -14 -19.6594 9.9909
-2 -9 -13 -5.5099 -4.2504
-2 -9 -12 12.4681 -3.4936
-2 -9 -11 -13.2062 1.8022
-2 -9 -10 -4.2009 -21.1399
-2 -9 -9 -6.7766 -11.0556
-2 -9 -8 -21.2100 0.3183
-2 -9 -7 16.3330 4.9676
-2 -9 -6 0.8747 -6.7536
-2 -9 -5 -12.7043 4.8017
-2 -9 -4 -0.5448 -9.3412
-2 -9 -3 -9.4695 -37.1983
-2 -9 -2 -49.1749 12.7311
-2 -9 -1 6.0149 17.9103
-2 -8 -27 -6.8627 1.0946
-2 -8 -26 -2.6467 9.8610
-2 -8 -25 4.7312 0.3511
-2 -8 -24 -1.2511 -10.1313
-2 -8 -23 13.6111 4.2557
-2 -8 -22 10.3682 1.2720
-2 -8 -21 -14.7339 -4.8818
-2 -8 -20 -1.0339 24.3012
-2 -8 -19 -15.7008 -5.4920
-2 -8 -18 0.7596 -4.6429
-2 -8 -17 8.5683 -3.7321
-2 -8 -16 4.1656 0.7275
-2 -8 -15 0.7327 1.2775
-2 -8 -14 17.0598 14.2958
-2 -8 -13 8.7964 0.3377
-2 -8 -12 -12.8771 -9.0145
-2 -8 -11 -14.4083 6.5381
-2 -8 -10 -7.0565 38.7986
-2 -8 -9 -15.0149 -6.2223
-2 -8 -8 17.3970 -11.3090
-2 -8 -7 19.7998 1.1386
-2 -8 -6 -5.3303 -17.4365
-2 -8 -5 -31.1270 26.0890
-2 -8 -4 -24.0954 48.8682
-2 -8 -3 6.5944 0.1496
-2 -8 -2 -5.5779 -21.3028
-2 -8 -1 41.8084 20.1094
-2 -7 -28 -8.8253 19.7986
-2 -7 -27 0.8482 1.6630
-2 -7 -26 0.5547 4.7240
-2 -7 -25 -3.6269 -3.4662
-2 -7 -24 -9.1275 -11.0432
-2 -7 -23 -9.5351 1.8010
-2 -7 -22 14.5248 1.4820
-2 -7 -21 2.2264 7.9377
-2 -7 -20 -12.9454 17.5481
-2 -7 -19 6.3537 -4.4159
-2 -7 -18 -8.3833 8.2786
-2 -7 -17 5.5135 -2.0579
-2 -7 -16 6.4682 -8.9036
-2 -7 -15 -1.9654 -5.8218
-2 -7 -14 -1.0970 -4.6069
-2 -7 -13 10.4550 1.7600
-2 -7 -12 4.7982 26.4885
-2 -7 -11 21.1469 26.6287
-2 -7 -10 19.2998 -0.5708
-2 -7 -9 -7.8479 -19.6535
-2 -7 -8 -48.0450 -4.1603
-2 -7 -7 17.9718 -10.4220
-2 -7 -6 59.7341 41.0324
-2 -7 -5 7.1874 18.3181
-2 -7 -4 -6.3660 6.6889
-2 -7 -3 11.6335 -25.3793
-2 -7 -2 -0.3125 -26.1002
-2 -7 -1 2.1698 12.2619
-2 -6 -28 3.0336 0.9055
-2 -6 -27 8.0008 4.4826
-2 -6 -26 -19.9022 -10.4307
-2 -6 -25 -8.9884 6.7317
-2 -6 -24 -0.2283 0.2988
-2 -6 -23 -4.1489 -4.0411
-2 -6 -22 4.8403 -4.8878
-2 -6 -21 7.7764 -2.0445
-2 -6 -20 5.9599 2.7639
-2 -6 -19 6.3575 0.1217
-2 -6 -18 -10.9620 -23.8463
-2 -6 -17 0.9853 7.6717
-2 -6 -16 -14.8219 0.2112
-2 -6 -15 -6.3539 -0.7121
-2 -6 -14 6.2738 -9.0728
-2 -6 -13 16.9447 -16.6205
-2 -6 -12 13.6828 -27.5538
-2 -6 -11 8.3689 8.8960
-2 -6 -10 -15.8844 13.0585
-2 -6 -9 -19.6945 12.9522
-2 -6 -8 13.1554 -19.3032
-2 -6 -7 23.1045 -13.8945
-2 -6 -6 6.9598 -31.9992
-2 -6 -5 31.7801 -11.2457
-2 -6 -4 -17.4797 13.3894
-2 -6 -3 -23.0327 1.4668
-2 -6 -2 8.5961 -19.9574
-2 -6 -1 -6.4499 -4.8983
-2 -5 -28 2.8081 0.4142
-2 -5 -27 2.6081 8.3247
-2 -5 -26 4.7606 -5.7512
-2 -5 -25 -1.3052 10.2236
-2 -5 -24 7.6746 -1.8828
-2 -5 -23 -3.2947 -9.8895
-2 -5 -22 1.5970 -7.9959
-2 -5 -21 4.2113 -7.8906
-2 -5 -20 -8.2604 -9.4226
-2 -5 -19 -12.7126 0.5587
-2 -5 -18 3.2574 3.9793
-2 -5 -17 5.3092 6.8319
-2 -5 -16 9.9558 -2.6841
-2 -5 -15 -23.5950 -0.9916
-2 -5 -14 -23.9896 -13.6603
-2 -5 -13 -1.2418 -13.3552
-2 -5 -12 13.7905 -6.8794
-2 -5 -11 -8.0001 3.9066
-2 -5 -10 4.6841 -0.5987
-2 -5 -9 2.0564 6.2025
-2 -5 -8 -8.0214 -3.7043
-2 -5 -7 -48.3180 -24.2232
-2 -5 -6 -5.7215 -23.5486
-2 -5 -5 16.3910 29.7612
-2 -5 -4 8.0170 -11.8332
-2 -5 -3 -22.6770 52.9946
-2 -5 -2 -0.4950 7.3407
-2 -5 -1 13.0139 -22.1440
-2 -4 -28 -4.1555 -0.7919
-2 -4 -27 3.4412 -3.9771
-2 -4 -26 12.7476 5.3428
-2 -4 -25 -2.0374 3.2751
-2 -4 -24 -0.7511 0.7558
-2 -4 -23 -4.2899 -5.8073
-2 -4 -22 -8.7981 14.8902
-2 -4 -21 -7.3311 5.9285
-2 -4 -20 5.0441 7.7849
-2 -4 -19 0.6857 1.4349
-2 -4 -18 9.8276 0.1482
-2 -4 -17 -1.7419 -8.5358
-2 -4 -16 3.6087 21.6538
-2 -4 -15 -4.6051 14.4736
-2 -4 -14 -3.4313 7.7377
-2 -4 -13 -13.6470 -7.6856
-2 -4 -12 -0.0580 1.6059
-2 -4 -11 -2.9243 -16.1374
-2 -4 -10 14.0260 14.9833
-2 -4 -9 -0.9642 16.1433
-2 -4 -8 -29.3627 18.3558
-2 -4 -7 -7.7049 1.1808
-2 -4 -6 -16.3226 19.9383
-2 -4 -5 8.5809 -21.0577
-2 -4 -4 51.2586 -8.1050
-2 -4 -3 -6.6579 -1.1784
-2 -4 -2 -1.6457 10.5169
-2 -4 -1 -35.4798 -9.3792
-2 -3 -28 4.5111 -8.6349
-2 -3 -27 8.8253 3.7143
-2 -3 -26 -2.5988 2.5399
-2 -3 -25 -3.0404 -2.6696
-2 -3 -24 0.4613 8.8825
-2 -3 -23 1.3466 15.3767
-2 -3 -22 6.3037 2.4919
-2 -3 -21 8.2374 2.4564
-2 -3 -20 -7.1592 -0.0056
-2 -3 -19 -0.3245 -5.4803
-2 -3 -18 1.3759 -0.8195
-2 -3 -17 2.9934 -0.3682
-2 -3 -16 5.4842 7.2337
-2 -3 -15 25.8798 2.0559
-2 -3 -14 -6.2143 12.3617
-2 -3 -13 -28.8782 11.6950
-2 -3 -12 -2.9034 -4.3057
-2 -3 -11 36.4952 -17.6250
-2 -3 -10 -9.9414 24.6807
-2 -3 -9 13.0562 -5.2278
-2 -3 -8 18.3300 15.6568
-2 -3 -7 8.2216 22.4951
-2 -3 -6 -26.9718 -38.7488
-2 -3 -5 -10.5169 -46.2493
-2 -3 -4 -17.6849 1.8831
-2 -3 -3 36.8377 -40.2906
-2 -3 -2 -13.9968 63.8608
-2 -3 -1 -35.6855 0.3646
-2 -2 -29 3.9888 3.5064
-2 -2 -28 2.6488 3.0496
-2 -2 -27 -11.9494 -19.4776
-2 -2 -26 2.3592 -3.1285
-2 -2 -25 8.2838 11.2816
-2 -2 -24 0.9417 -4.4785
-2 -2 -23 1.2761 -11.6846
-2 -2 -22 6.0173 -2.0533
-2 -2 -21 -11.0631 -0.8685
-2 -2 -20 -7.2167 0.0805
-2 -2 -19 0.8274 7.2125
-2 -2 -18 -3.2080 -10.3508
-2 -2 -17 2.1972 -13.1753
-2 -2 -16 6.9910 -8.4348
-2 -2 -15 9.5766 8.2790
-2 -2 -14 -10.4439 3.7461
-2 -2 -13 4.2177 11.9671
-2 -2 -12 6.9228 -4.6235
-2 -2 -11 -1.9586 -23.1378
-2 -2 -10 4.3833 -30.5486
-2 -2 -9 40.2402 25.1722
-2 -2 -8 -26.4613 -10.9664
-2 -2 -7 -19.9852 16.4745
-2 -2 -6 19.6205 15.7526
-2 -2 -5 -54.2762 -9.2041
-2 -2 -4 4.7130 -9.4001
-2 -2 -3 53.8512 53.8351
-2 -2 -2 -7.1701 -18.4975
-2 -2 -1 68.2185 1.6780
-2 -1 -29 -7.6589 1.9854
-2 -1 -28 -8.5879 -3.6222
-2 -1 -27 2.2024 -3.6354
-2 -1 -26 1.5516 0.7401
-2 -1 -25 5.8784 -6.3626
-2 -1 -24 -3.4634 -4.9918
-2 -1 -23 -10.1041 2.2641
-2 -1 -22 4.2669 5.8464
-2 -1 -21 11.9421 -5.3491
-2 -1 -20 -8.6993 10.6412
-2 -1 -19 -5.0738 -8.1001
-2 -1 -18 1.9106 -13.3103
-2 -1 -17 -12.2722 -4.9112
-2 -1 -16 -4.8897 6.6834
-2 -1 -15 17.5297 -8.3996
-2 -1 -14 15.4183 -1.8581
-2 -1 -13 -10.4568 0.3900
-2 -1 -12 -28.5238 -20.0694
-2 -1 -11 -19.9890 -7.9781
-2 -1 -10 22.9365 11.6696
-2 -1 -9 18.3945 17.8345
-2 -1 -8 7.7906 -23.6046
-2 -1 -7 -42.9566 50.8164
-2 -1 -6 43.7260 13.8851
-2 -1 -5 41.3617 -4.6522
-2 -1 -4 -18.6046 45.5759
-2 -1 -3 -5.6242 -31.8142
-2 -1 -2 51.8557 -94.5657
-2 -1 -1 -57.4562 84.5355
-1 -25 -5 7.3740 1.6175
-1 -25 -4 4.7019 -3.6755
-1 -25 -3 -7.5557 -3.8688
-1 -25 -2 2.0918 0.5879
-1 -25 -1 1.0790 6.1746
-1 -24 -10 -0.8254 -41.8042
-1 -24 -9 -6.6033 -0.9822
-1 -24 -8 1.3016 3.7107
-1 -24 -7 3.6759 -2.3694
-1 -24 -6 -2.1149 -4.7828
-1 -24 -5 -4.6874 9.1623
-1 -24 -4 1.1999 -1.5285
-1 -24 -3 4.1943 5.9679
-1 -24 -2 -3.4234 6.9893
-1 -24 -1 -3.3999 -12.3402
-1 -23 -12 -12.4655 7.0765
-1 -23 -11 -13.0105 2.5038
-1 -23 -10 -1.7531 1.8609
-1 -23 -9 -21.4427 -7.0383
-1 -23 -8 11.1615 10.6036
-1 -23 -7 3.8875 -3.7367
-1 -23 -6 2.7166 -1.6811
-1 -23 -5 4.2347 -2.0020
-1 -23 -4 14.9827 4.8947
-1 -23 -3 -7.0195 -1.7428
-1 -23 -2 -7.5514 2.7192
-1 -23 -1 0.7145 4.3388
-1 -22 -14 1.6472 5.1465
-1 -22 -13 1.2486 -2.4636
-1 -22 -12 0.5201 0.7143
-1 -22 -11 0.4931 11.6516
-1 -22 -10 1.7267 18.8438
-1 -22 -9 -0.7432 -5.8972
-1 -22 -8 -1.9454 -2.9734
-1 -22 -7 3.4935 -15.8134
-1 -22 -6 -4.7002 1.3550
-1 -22 -5 0.3548 -9.8824
-1 -22 -4 5.2799 2.7534
-1 -22 -3 2.2787 1.3407
-1 -22 -2 0.6851 10.5985
-1 -22 -1 0.9368 2.0869
-1 -21 -16 3.2151 -1.5703
-1 -21 -15 2.7736 4.1141
-1 -21 -14 -5.0729 -0.4226
-1 -21 -13 -1.2334 -1.0566
-1 -21 -12 6.4637 -3.9196
-1 -21 -11 12.1372 5.9658
-1 -21 -10 -2.9351 -2.9117
-1 -21 -9 3.3745 1.2555
-1 -21 -8 -12.3717 -3.5658
-1 -21 -7 -13.0211 5.6164
-1 -21 -6 -3.0794 -4.5105
-1 -21 -5 10.8935 1.5437
-1 -21 -4 -7.5116 -10.2310
-1 -21 -3 11.6935 1.7343
-1 -21 -2 6.5914 2.6613
-1 -21 -1 1.0157 -4.8394
-1 -20 -18 -2.0798 6.6057
-1 -20 -17 -1.5182 0.4384
-1 -20 -16 0.2810 0.0982
-1 -20 -15 2.1354 -4.5504
-1 -20 -14 -1.2613 -0.6926
-1 -20 -13 1.9604 5.6504
-1 -20 -12 -0.2269 -3.6931
-1 -20 -11 -1.4589 -8.4109
-1 -20 -10 -0.4613 -14.3269
-1 -20 -9 0.4269 23.6368
-1 -20 -8 0.0504 4.3348
-1 -20 -7 -1.7053 1.4001
-1 -20 -6 -3.4383 -0.3254
-1 -20 -5 -1.1619 -3.8557
-1 -20 -4 0.8683 -10.1714
-1 -20 -3 -4.7125 2.0081
-1 -20 -2 -2.0641 -15.4011
-1 -20 -1 2.8551 7.4255
-1 -19 -19 1.8027 -1.4345
-1 -19 -18 0.0823 1.6681
-1 -19 -17 4.4256 3.4366
-1 -19 -16 -8.1694 -0.9210
-1 -19 -15 5.0290 -8.0298
-1 -19 -14 2.8467 -1.7861
-1 -19 -13 3.8356 4.8176
-1 -19 -12 -12.2170 2.7597
-1 -19 -11 -8.1748 -7.6057
-1 -19 -10 12.5615 4.7712
-1 -19 -9 -0.8222 -1.1548
-1 -19 -8 18.6478 4.8848
-1 -19 -7 -1.9432 -5.1988
-1 -19 -6 -9.9284 4.5311
-1 -19 -5 -9.2433 2.3156
-1 -19 -4 -3.8733 7.4490
-1 -19 -3 1.4756 -6.2818
-1 -19 -2 13.3760 -0.7421
-1 -19 -1 -6.7928 1.5617
-1 -18 -20 -1.4114 2.2859
-1 -18 -19 2.9541 -2.8039
-1 -18 -18 2.9732 2.8629
-1 -18 -17 -2.0652 -2.2415
-1 -18 -16 -2.5965 -7.3988
-1 -18 -15 -1.0997 3.6855
-1 -18 -14 2.2618 0.0057
-1 -18 -13 -0.1445 7.8116
-1 -18 -12 7.5711 -1.1489
-1 -18 -11 -4.2621 9.3190
-1 -18 -10 -2.2489 -3.6732
-1 -18 -9 2.5860 -35.2939
-1 -18 -8 1.1289 14.5148
-1 -18 -7 2.4555 13.9315
-1 -18 -6 6.6900 9.8316
-1 -18 -5 -2.3811 -3.4506
-1 -18 -4 -5.7197 -7.1041
-1 -18 -3 1.6474 -6.6822
-1 -18 -2 2.1806 8.4542
-1 -18 -1 -1.7697 1.6016
-1 -17 -21 0.5974 -0.4221
-1 -17 -20 4.7782 2.4853
-1 -17 -19 0.0395 -0.8173
-1 -17 -18 -11.5304 -0.4475
-1 -17 -17 -1.7556 1.8852
-1 -17 -16 0.9550 5.1228
-1 -17 -15 -1.2193 3.1726
-1 -17 -14 10.1962 -6.6331
-1 -17 -13 2.3108 -1.0360
-1 -17 -12 5.1897 4.1075
-1 -17 -11 -26.9102 6.7193
-1 -17 -10 -3.1025 1.3115
-1 -17 -9 9.4150 -4.3339
-1 -17 -8 -8.3861 -13.3146
-1 -17 -7 24.2767 10.0780
-1 -17 -6 -2.4908 0.6288
-1 -17 -5 -19.3718 -2.6694
-1 -17 -4 2.9443 -1.5755
-1 -17 -3 10.7613 5.8877
-1 -17 -2 -3.3673 -10.7363
-1 -17 -1 8.4890 0.2714
-1 -16 -22 0.8870 -1.2615
-1 -16 -21 2.1414 -3.8034
-1 -16 -20 -1.6604 3.1656
-1 -16 -19 -1.6823 4.1802
-1 -16 -18 0.2039 7.5976
-1 -16 -17 1.9757 9.8615
-1 -16 -16 -1.9131 -14.4882
-1 -16 -15 -2.5123 -10.3878
-1 -16 -14 -4.0540 1.7481
-1 -16 -13 4.3069 6.2798
-1 -16 -12 2.8457 9.8526
-1 -16 -11 0.8117 -5.9390
-1 -16 -10 -12.0107 10.4154
-1 -16 -9 -0.2455 -8.0779
-1 -16 -8 -3.7642 -16.9509
-1 -16 -7 1.6292 12.6023
-1 -16 -6 5.5598 -10.5140
-1 -16 -5 -2.2627 5.4675
-1 -16 -4 -9.2877 4.3691
-1 -16 -3 4.1210 -17.6746
-1 -16 -2 5.4008 -0.9216
-1 -16 -1 -2.5368 12.6725
-1 -15 -23 2.7703 -0.6113
-1 -15 -22 0.2237 0.3744
-1 -15 -21 -2.1358 1.3149
-1 -15 -20 1.9790 -4.9387
-1 -15 -19 15.4314 2.2798
-1 -15 -18 -1.5619 -0.7680
-1 -15 -17 -6.0670 0.1332
-1 -15 -16 -4.3969 -3.2908
-1 -15 -15 -8.5111 -4.7365
-1 -15 -14 4.9740 0.4454
-1 -15 -13 8.9235 -1.5890
-1 -15 -12 -4.3384 -2.6435
-1 -15 -11 9.7605 -0.6576
-1 -15 -10 -9.3133 11.0010
-1 -15 -9 3.0413 0.5281
-1 -15 -8 -5.9314 -8.5474
-1 -15 -7 -10.2920 -2.9127
-1 -15 -6 6.5371 12.1611
-1 -15 -5 -6.1961 0.4067
-1 -15 -4 6.2104 -0.7561
-1 -15 -3 4.6506 -6.7963
-1 -15 -2 -21.6340 6.2870
-1 -15 -1 -11.7707 8.0808
-1 -14 -24 -4.4373 -3.9820
-1 -14 -23 -0.9539 8.5582
-1 -14 -22 1.2217 -3.3396
-1 -14 -21 3.5983 -7.9507
-1 -14 -20 -1.9117 -0.5607
-1 -14 -19 1.8408 -1.6245
-1 -14 -18 4.3226 -7.3407
-1 -14 -17 -4.0976 12.0059
-1 -14 -16 1.5222 10.6247
-1 -14 -15 0.3418 1.4796
-1 -14 -14 2.7186 1.9503
-1 -14 -13 2.4129 -11.8796
-1 -14 -12 9.1254 -0.7777
-1 -14 -11 -0.9862 9.7514
-1 -14 -10 2.3639 -14.4374
-1 -14 -9 0.6295 13.8234
-1 -14 -8 6.2877 20.4417
-1 -14 -7 -0.5450 3.1723
-1 -14 -6 5.7057 -8.8179
-1 -14 -5 -5.5563 -13.5211
-1 -14 -4 -0.3108 14.8968
-1 -14 -3 5.1213 19.3456
-1 -14 -2 3.4644 7.6901
-1 -14 -1 -1.2093 5.9638
-1 -13 -25 4.0999 5.1841
-1 -13 -24 -0.9106 -2.5540
-1 -13 -23 0.1001 -2.5778
-1 -13 -22 4.3125 2.4960
-1 -13 -21 -6.5023 -4.0220
-1 -13 -20 -7.3414 1.0374
-1 -13 -19 4.3829 3.6569
-1 -13 -18 8.8949 -1.2249
-1 -13 -17 6.9368 -0.3139
-1 -13 -16 15.7377 8.6167
-1 -13 -15 -2.8694 -2.5993
-1 -13 -14 -6.2737 -7.0967
-1 -13 -13 -4.6086 1.1353
-1 -13 -12 -10.9631 6.5778
-1 -13 -11 -0.6646 1.1448
-1 -13 -10 24.5701 -7.4727
-1 -13 -9 0.7049 -1.6809
-1 -13 -8 10.5455 -0.1348
-1 -13 -7 -6.4507 4.1039
-1 -13 -6 -11.9401 -2.9475
-1 -13 -5 8.1379 -3.6815
-1 -13 -4 15.7769 0.8593
-1 -13 -3 12.0950 -1.1467
-1 -13 -2 3.4200 -12.4922
-1 -13 -1 -6.6936 2.5159
-1 -12 -25 -3.1135 3.9918
-1 -12 -24 5.3119 -8.9396
-1 -12 -23 -5.9364 0.1592
-1 -12 -22 -0.3307 8.7154
-1 -12 -21 2.7653 1.5851
-1 -12 -20 -2.8321 -0.7998
-1 -12 -19 -4.0748 -6.3289
-1 -12 -18 3.0654 -15.8738
-1 -12 -17 -3.0923 -9.1273
-1 -12 -16 -6.3421 -1.8768
-1 -12 -15 -1.1283 3.3666
-1 -12 -14 -4.8123 15.2157
-1 -12 -13 0.6767 10.0617
-1 -12 -12 -5.2920 -9.6124
-1 -12 -11 -0.4383 -11.3945
-1 -12 -10 -11.0521 -4.8249
-1 -12 -9 -2.1624 -16.0627
-1 -12 -8 0.1887 1.3230
-1 -12 -7 0.0512 1.8363
-1 -12 -6 -4.8871 6.2018
-1 -12 -5 3.9800 -12.1118
-1 -12 -4 -10.1886 -22.2235
-1 -12 -3 -0.8688 -2.6900
-1 -12 -2 0.4065 4.1599
-1 -12 -1 -0.3243 0.8115
-1 -11 -26 -0.8096 -2.9462
-1 -11 -25 -6.7829 1.3591
-1 -11 -24 -0.5974 3.6018
-1 -11 -23 2.0841 -1.2858
-1 -11 -22 3.9012 1.0513
-1 -11 -21 2.5815 2.5389
-1 -11 -20 -18.1363 -5.1489
-1 -11 -19 -11.0742 6.8233
-1 -11 -18 -6.9516 2.5533
-1 -11 -17 -6.3143 -6.9082
-1 -11 -16 5.3827 -1.7633
-1 -11 -15 15.8165 6.0494
-1 -11 -14 3.2330 -0.3025
-1 -11 -13 0.0438 -6.1109
-1 -11 -12 0.1424 -1.5881
-1 -11 -11 -14.8439 9.2702
-1 -11 -10 -25.2628 2.3846
-1 -11 -9 7.4265 -0.1921
-1 -11 -8 0.6787 -3.6803
-1 -11 -7 4.8919 -5.0115
-1 -11 -6 -0.3097 10.4663
-1 -11 -5 -6.5834 1.3347
-1 -11 -4 -25.6474 -4.3455
-1 -11 -3 -2.9218 14.4392
-1 -11 -2 21.9978 5.2520
-1 -11 -1 7.7427 -15.0616
-1 -10 -26 -0.9072 5.6068
-1 -10 -25 -1.3948 1.2114
-1 -10 -24 -3.2563 0.9545
-1 -10 -23 5.2601 -10.6221
-1 -10 -22 -3.7880 -0.7688
-1 -10 -21 4.0345 14.4118
-1 -10 -20 5.5982 8.3972
-1 -10 -19 -3.0328 13.9666
-1 -10 -18 2.5107 -7.9612
-1 -10 -17 3.9604 -3.7141
-1 -10 -16 0.2048 4.6820
-1 -10 -15 4.7811 -15.8770
-1 -10 -14 4.0266 -21.0306
-1 -10 -13 -2.7286 15.9658
-1 -10 -12 8.8187 27.8456
-1 -10 -11 10.6166 6.0295
-1 -10 -10 8.9765 10.1328
-1 -10 -9 -10.3526 12.9765
-1 -10 -8 4.4341 -31.2165
-1 -10 -7 -2.8366 -1.8079
-1 -10 -6 3.8195 20.1224
-1 -10 -5 15.4969 24.8108
-1 -10 -4 6.2303 4.4074
-1 -10 -3 -19.5345 -12.2802
-1 -10 -2 6.6763 -30.8473
-1 -10 -1 3.6026 -3.8277
-1 -9 -27 -2.0558 -2.3480
-1 -9 -26 -3.7254 -4.2284
-1 -9 -25 9.8713 3.4750
-1 -9 -24 -11.7999 -1.0744
-1 -9 -23 3.7448 -3.0552
-1 -9 -22 5.6032 -6.4113
-1 -9 -21 13.4684 2.4852
-1 -9 -20 10.4112 1.0538
-1 -9 -19 -2.4460 -6.6274
-1 -9 -18 12.7567 3.5214
-1 -9 -17 -15.3495 -4.4921
-1 -9 -16 -13.0960 3.1223
-1 -9 -15 -2.4152 4.6840
-1 -9 -14 -2.0346 -4.5001
-1 -9 -13 15.0321 -3.9930
-1 -9 -12 40.6111 -1.4359
-1 -9 -11 9.9862 -11.6507
-1 -9 -10 -23.7194 5.0115
-1 -9 -9 -13.8604 17.2641
-1 -9 -8 6.1052 5.6194
-1 -9 -7 -3.9936 -24.0549
-1 -9 -6 39.8291 -5.4580
-1 -9 -5 -2.7853 12.0944
-1 -9 -4 -26.4740 -0.3012
-1 -9 -3 -14.3135 -3.7654
-1 -9 -2 9.9337 1.8715
-1 -9 -1 -0.0611 -12.4744
-1 -8 -27 0.3453 -5.9853
-1 -8 -26 -0.7683 14.2497
-1 -8 -25 0.6783 4.7181
-1 -8 -24 5.0915 -13.6149
-1 -8 -23 -8.7250 14.8718
-1 -8 -22 3.7893 -11.3224
-1 -8 -21 -1.6511 -12.0763
-1 -8 -20 -0.5265 -11.9088
-1 -8 -19 -9.7266 2.5964
-1 -8 -18 -1.1340 11.3647
-1 -8 -17 7.3691 1.8556
-1 -8 -16 -4.2603 23.5084
-1 -8 -15 -3.7019 -5.9220
-1 -8 -14 -6.6381 -32.0785
-1 -8 -13 -19.0447 -19.7291
-1 -8 -12 -1.5446 -8.4539
-1 -8 -11 15.2001 6.1628
-1 -8 -10 -3.6831 24.5796
-1 -8 -9 -1.1676 -3.5391
-1 -8 -8 -9.0304 -22.9024
-1 -8 -7 -3.4203 -2.6211
-1 -8 -6 -5.6113 18.8806
-1 -8 -5 13.6371 -30.7238
-1 -8 -4 -5.6370 27.1989
-1 -8 -3 -7.5323 10.8769
-1 -8 -2 -0.5579 -10.7228
-1 -8 -1 15.9179 3.6385
-1 -7 -28 7.9978 5.3668
-1 -7 -27 1.4159 -1.2384
-1 -7 -26 -6.8558 -0.9971
-1 -7 -25 13.4914 5.5500
-1 -7 -24 -0.2203 2.2173
-1 -7 -23 -19.3590 -2.2263
-1 -7 -22 0.9735 6.9100
-1 -7 -21 -23.1136 2.5388
-1 -7 -20 -8.2195 7.4223
-1 -7 -19 8.6243 2.9615
-1 -7 -18 19.0143 -6.6664
-1 -7 -17 5.1262 -6.8859
-1 -7 -16 -15.6884 5.6470
-1 -7 -15 -9.1051 22.5146
-1 -7 -14 -24.9246 -2.6403
-1 -7 -13 -7.1368 -11.9641
-1 -7 -12 17.6946 2.4871
-1 -7 -11 -4.0138 -3.6798
-1 -7 -10 -3.4924 -7.2273
-1 -7 -9 15.8123 9.1077
-1 -7 -8 0.6746 -2.7622
-1 -7 -7 -11.9788 -0.7191
-1 -7 -6 2.4654 -3.8955
-1 -7 -5 11.5583 2.1644
-1 -7 -4 -25.2371 1.3944
-1 -7 -3 55.5483 5.4825
-1 -7 -2 14.7389 -20.9646
-1 -7 -1 -11.0864 -15.1331
-1 -6 -28 -3.7548 6.3787
-1 -6 -27 2.0901 -15.1483
-1 -6 -26 -1.1418 -6.8846
-1 -6 -25 -1.7644 8.2563
-1 -6 -24 0.9574 -2.9782
-1 -6 -23 3.3294 8.8756
-1 -6 -22 0.8909 28.5697
-1 -6 -21 11.2745 -0.5985
-1 -6 -20 -4.9300 -5.5623
-1 -6 -19 -4.0499 -19.0765
-1 -6 -18 -2.6635 -2.9895
-1 -6 -17 11.3442 11.7110
-1 -6 -16 8.0165 12.1931
-1 -6 -15 4.4430 3.9528
-1 -6 -14 -2.5414 0.6951
-1 -6 -13 -7.8424 16.6829
-1 -6 -12 -0.3588 -2.6406
-1 -6 -11 9.9193 -16.6002
-1 -6 -10 -4.2328 -1.2262
-1 -6 -9 -5.5510 -5.8714
-1 -6 -8 6.3083 -7.6135
-1 -6 -7 -3.9481 12.5417
-1 -6 -6 10.0078 25.9852
-1 -6 -5 -1.9868 -15.6799
-1 -6 -4 -11.9744 -65.4198
-1 -6 -3 -21.1818 -1.7846
-1 -6 -2 4.2119 -20.5105
-1 -6 -1 -7.9129 43.7385
-1 -5 -28 -25.2398 -12.1566
-1 -5 -27 8.8218 1.2738
-1 -5 -26 0.9727 -2.7901
-1 -5 -25 1.9660 -1.6093
-1 -5 -24 20.3149 -3.9649
-1 -5 -23 17.9409 -8.9890
-1 -5 -22 4.2092 -5.5032
-1 -5 -21 1.6215 3.4242
-1 -5 -20 -15.3914 -1.3312
-1 -5 -19 -0.5578 -2.1646
-1 -5 -18 5.0953 -3.3099
-1 -5 -17 10.5210 -6.0479
-1 -5 -16 2.3127 -3.4507
-1 -5 -15 2.0695 3.2448
-1 -5 -14 8.1040 8.3989
-1 -5 -13 6.4288 1.0243
-1 -5 -12 -7.9433 -2.5868
-1 -5 -11 -19.7878 1.5164
-1 -5 -10 -13.8546 9.6540
-1 -5 -9 1.2581 5.6047
-1 -5 -8 16.5961 -9.5338
-1 -5 -7 17.4092 -7.6301
-1 -5 -6 -40.7605 18.7600
-1 -5 -5 -38.0145 13.1901
-1 -5 -4 -25.2253 8.2531
-1 -5 -3 -24.0456 3.7057
-1 -5 -2 54.8097 13.8781
-1 -5 -1 -12.8188 -5.3659
-1 -4 -28 -1.6040 -6.1791
-1 -4 -27 -10.4026 20.8731
-1 -4 -26 10.2020 -22.1418
-1 -4 -25 -3.6810 -12.5742
-1 -4 -24 -6.0958 -4.0934
-1 -4 -23 -2.1212 -4.1895
-1 -4 -22 4.6565 -4.8657
-1 -4 -21 -2.3768 17.7967
-1 -4 -20 4.0548 1.5477
-1 -4 -19 -6.7828 -0.1100
-1 -4 -18 0.6882 -7.4051
-1 -4 -17 -0.9584 1.1512
-1 -4 -16 4.6405 -3.2540
-1 -4 -15 -0.9650 -1.5955
-1 -4 -14 5.3700 -7.3771
-1 -4 -13 -1.3611 -0.0931
-1 -4 -12 4.1171 17.9270
-1 -4 -11 1.9902 17.7132
-1 -4 -10 1.8546 -9.4362
-1 -4 -9 -4.6253 -17.0274
-1 -4 -8 0.4667 20.7760
-1 -4 -7 9.3431 12.3655
-1 -4 -6 8.7864 8.7157
-1 -4 -5 15.2378 66.9194
-1 -4 -4 11.7399 9.2257
-1 -4 -3 6.3959 -34.5152
-1 -4 -2 -10.2740 2.6616
-1 -4 -1 11.6684 -51.3673
-1 -3 -29 4.6504 5.2558
-1 -3 -28 -7.9656 0.3793
-1 -3 -27 -12.4946 1.1165
-1 -3 -26 1.0758 8.2179
-1 -3 -25 -17.1932 -1.8596
-1 -3 -24 -3.8256 8.0955
-1 -3 -23 5.7467 -0.1754
-1 -3 -22 4.3912 -3.2016
-1 -3 -21 -6.4008 4.7077
-1 -3 -20 10.6804 7.7346
-1 -3 -19 -10.7585 -5.1291
-1 -3 -18 -0.9867 -0.1479
-1 -3 -17 -0.3107 3.7269
-1 -3 -16 1.4116 -1.1984
-1 -3 -15 -10.9278 -4.1581
-1 -3 -14 8.7841 -1.7804
-1 -3 -13 -2.3081 -4.5127
-1 -3 -12 10.1458 4.0987
-1 -3 -11 12.7602 -2.9629
-1 -3 -10 11.3723 -8.5399
-1 -3 -9 -5.9066 -0.2023
-1 -3 -8 2.7335 5.8314
-1 -3 -7 41.8137 -18.1306
-1 -3 -6 37.7233 -29.9526
-1 -3 -5 13.5909 -3.2813
-1 -3 -4 27.9081 4.7233
-1 -3 -3 -69.8542 -7.5969
-1 -3 -2 -43.3480 0.4989
-1 -3 -1 77.7963 11.4459
-1 -2 -29 3.2276 6.4358
-1 -2 -28 -0.1408 0.3456
-1 -2 -27 1.9037 1.3754
-1 -2 -26 3.0043 7.0349
-1 -2 -25 -0.4288 -4.4202
-1 -2 -24 -7.8078 -2.7790
-1 -2 -23 5.0984 -4.0163
-1 -2 -22 -3.2884 0.9032
-1 -2 -21 0.3392 -4.5432
-1 -2 -20 -1.1481 3.2964
-1 -2 -19 1.9188 -6.8715
-1 -2 -18 -11.7468 15.3835
-1 -2 -17 6.4202 -11.5925
-1 -2 -16 -3.2655 -1.8180
-1 -2 -15 -6.3401 14.6154
-1 -2 -14 -4.5782 12.4041
-1 -2 -13 7.4837 -34.2257
-1 -2 -12 -18.0547 -6.5710
-1 -2 -11 6.4780 -10.1708
-1 -2 -10 4.2854 7.4342
-1 -2 -9 -10.2805 0.5748
-1 -2 -8 -17.7671 -34.7944
-1 -2 -7 -8.7646 -39.0292
-1 -2 -6 -20.8362 -30.4942
-1 -2 -5 -6.5232 5.2054
-1 -2 -4 21.8327 52.9748
-1 -2 -3 6.4499 15.3529
-1 -2 -2 -24.2140 23.5019
-1 -1 -29 -6.6938 -5.0620
-1 -1 -28 6.5963 -9.0317
-1 -1 -27 3.9077 2.2182
-1 -1 -26 -0.7030 1.8485
-1 -1 -25 -1.8012 -1.0900
-1 -1 -24 2.8229 2.1165
-1 -1 -23 -2.8758 -1.2985
-1 -1 -22 3.1501 -6.7208
-1 -1 -21 4.1716 -0.2548
-1 -1 -20 1.9601 2.1373
-1 -1 -19 -1.4213 -1.1286
-1 -1 -18 -4.4981 0.3669
-1 -1 -17 20.0091 2.3627
-1 -1 -16 -7.7009 -8.7930
-1 -1 -15 0.9347 6.3018
-1 -1 -14 -11.5461 15.3859
-1 -1 -13 -18.1752 -5.6482
-1 -1 -12 -25.0400 -17.2219
-1 -1 -11 38.2039 21.3050
-1 -1 -10 -30.5370 -1.6812
-1 -1 -9 -29.3710 8.4903
-1 -1 -8 -31.2237 28.5994
-1 -1 -7 -45.0373 15.1535
-1 -1 -6 12.4742 -15.2460
-1 -1 -5 59.8474 -4.5755
-1 -1 -4 16.8025 -3.1289
-1 -1 -3 -5.9100 13.8228
0 0 4 -19.6723 1.8411
0 0 6 83.6892 0.9691
0 0 8 27.7891 -0.7040
0 0 10 2.0326 -0.6564
0 0 12 33.8894 -0.1885
0 0 14 -53.7326 0.3270
0 0 16 21.8826 0.7095
0 0 18 -21.4134 0.2117
0 0 20 -13.5443 -0.6763
0 0 22 4.6760 -0.6072
0 0 24 0.7013 0.3458
0 0 26 -10.0531 0.7127
0 0 28 11.2420 0.0576
0 1 3 0.4437 45.1922
0 1 4 0.4003 -78.5834
0 1 5 1.2001 16.3295
0 1 6 -0.6059 -1.8219
0 1 7 0.0148 -46.1433
0 1 8 -0.0016 34.4648
0 1 9 -0.8359 -15.8839
0 1 10 0.1888 -25.2408
0 1 11 -0.7108 5.3988
0 1 12 -0.1041 36.5310
0 1 13 0.0798 -0.4302
0 1 14 -0.0216 2.1660
0 1 15 0.7326 3.1332
0 1 16 0.1658 -10.2085
0 1 17 0.5142 3.0341
0 1 18 -0.0626 20.3679
0 1 19 -0.3406 0.5636
0 1 20 -0.2101 -14.7111
0 1 21 -0.6526 6.2425
0 1 22 0.0511 -7.6879
0 1 23 -0.1436 -9.8311
0 1 24 0.2238 11.7802
0 1 25 0.5018 3.4901
0 1 26 -0.1218 -12.3346
0 1 27 0.2590 5.0367
0 1 28 0.1402 8.1866
0 1 29 -0.2035 -9.0242
0 2 2 -48.8954 -0.3951
0 2 3 42.2495 -0.3080
0 2 4 -56.8534 -0.6522
0 2 5 -35.8987 0.2117
0 2 6 27.5386 -0.3099
0 2 7 -29.4674 0.4883
0 2 8 -71.9569 -0.1067
0 2 9 60.4678 0.1058
0 2 10 10.4919 0.4365
0 2 11 -4.8429 -0.1484
0 2 12 4.9654 0.2322
0 2 13 20.4441 -0.2310
0 2 14 -11.5853 -0.3672
0 2 15 5.1716 -0.1465
0 2 16 12.5471 -0.4535
0 2 17 9.4223 0.1665
0 2 18 6.7716 0.0935
0 2 19 1.7314 0.2904
0 2 20 -13.2754 0.3388
0 2 21 -8.8998 0.0529
0 2 22 23.0581 0.0929
0 2 23 -0.1059 -0.3324
0 2 24 -5.0963 -0.0435
0 2 25 17.6339 -0.1959
0 2 26 9.0884 -0.4585
0 2 27 -14.4764 0.1149
0 2 28 16.6402 -0.1081
0 2 29 5.1690 0.0869
0 3 1 0.5376 -21.4519
0 3 2 -0.3791 -44.8231
0 3 3 -0.1953 22.9338
0 3 4 0.2340 -19.8083
0 3 5 -0.2640 38.5356
0 3 6 0.3388 40.8572
0 3 7 0.0316 -34.7848
0 3 8 0.0904 -14.3334
0 3 9 0.1397 1.1541
0 3 10 0.0595 -39.6690
0 3 11 0.2546 15.3594
0 3 12 -0.1724 3.6430
0 3 13 -0.0564 -6.6774
0 3 14 -0.2417 -14.6824
0 3 15 -0.2933 8.0963
0 3 16 0.0459 -21.3677
0 3 17 -0.0886 -2.5783
0 3 18 0.2126 7.6354
0 3 19 0.1856 18.0667
0 3 20 0.1156 -7.0912
0 3 21 0.0799 0.4878
0 3 22 -0.0197 -3.4923
0 3 23 -0.0883 -15.7978
0 3 24 -0.2343 -0.9533
0 3 25 0.0104 7.6896
0 3 26 -0.0824 -12.4052
0 3 27 -0.0469 -0.3627
0 3 28 0.3256 25.5018
0 3 29 0.1140 -9.6662
0 4 0 -17.8148 -0.2146
0 4 1 -61.0150 0.1128
0 4 2 19.9411 -0.2722
0 4 3 18.7149 0.3709
0 4 4 73.5308 0.1964
0 4 5 -26.3552 -0.2900
0 4 6 8.2632 0.3915
0 4 7 2.1542 -0.1420
0 4 8 -27.2174 0.1259
0 4 9 -31.4098 -0.0369
0 4 10 15.5567 -0.1689
0 4 11 5.0560 0.0468
0 4 12 3.1777 -0.0736
0 4 13 -26.4075 0.1531
0 4 14 -11.0587 0.2146
0 4 15 -10.9422 0.0653
0 4 16 -1.2140 0.1544
0 4 17 -11.8167 -0.1724
0 4 18 11.1833 -0.1723
0 4 19 9.1185 -0.0932
0 4 20 -5.0642 -0.2011
0 4 21 -26.4817 0.0666
0 4 22 -8.2513 0.1133
0 4 23 -0.0717 0.0878
0 4 24 -6.8126 0.1478
0 4 25 -13.0497 0.0648
0 4 26 10.1611 -0.0719
0 4 27 5.2125 -0.0064
0 4 28 -0.2256 0.0408
0 5 1 -0.0851 39.3161
0 5 2 0.2195 -6.6131
0 5 3 -0.0441 -28.6672
0 5 4 0.1163 9.1701
0 5 5 0.0365 -15.9665
0 5 6 -0.1497 29.8336
0 5 7 0.1171 35.2760
0 5 8 -0.1049 13.8530
0 5 9 -0.0963 2.6519
0 5 10 -0.1334 -1.5712
0 5 11 -0.2258 -14.6914
0 5 12 0.2033 10.0959
0 5 13 0.0379 21.0363
0 5 14 0.2162 22.7264
0 5 15 0.2442 -2.6188
0 5 16 -0.1830 7.4278
0 5 17 0.0141 -23.4719
0 5 18 -0.2044 -2.7084
0 5 19 -0.1523 3.1682
0 5 20 0.1059 16.4373
0 5 21 -0.0189 2.7324
0 5 22 0.0916 2.0465
0 5 23 0.0819 6.5784
0 5 24 -0.1048 3.4788
0 5 25 -0.0584 -17.4480
0 5 26 -0.0364 -1.5987
0 5 27 0.0533 -12.6190
0 5 28 0.0838 -5.9052
0 6 0 28.9613 0.0730
0 6 1 17.1326 -0.0815
0 6 2 -16.7923 -0.0930
0 6 3 -32.7033 -0.1583
0 6 4 -14.8845 -0.0478
0 6 5 48.7589 0.1256
0 6 6 -5.3830 -0.1874
0 6 7 38.5572 0.0050
0 6 8 18.5498 -0.0400
0 6 9 -13.7394 0.1708
0 6 10 -28.3110 0.0711
0 6 11 11.3908 0.0095
0 6 12 31.9447 -0.0265
0 6 13 37.9131 -0.3090
0 6 14 9.1770 -0.0533
0 6 15 -17.5802 -0.0145
0 6 16 -11.3843 -0.0177
0 6 17 16.6484 0.3111
0 6 18 -9.1643 0.0547
0 6 19 9.9433 -0.0093
0 6 20 8.9795 0.0643
0 6 21 10.3332 -0.2082
0 6 22 7.8218 0.0161
0 6 23 -1.2006 0.0723
0 6 24 5.1150 -0.0220
0 6 25 -5.0562 -0.0507
0 6 26 -23.9335 -0.1185
0 6 27 17.7744 -0.0450
0 6 28 8.1673 0.0075
0 7 1 0.0150 -37.0864
0 7 2 -0.0803 21.9760
0 7 3 0.0975 18.6151
0 7 4 0.0471 -5.4643
0 7 5 -0.0111 -52.0183
0 7 6 0.0134 -44.9957
0 7 7 -0.0478 6.7621
0 7 8 0.0832 6.4283
0 7 9 0.1253 30.8365
0 7 10 0.1166 -2.1302
0 7 11 -0.0101 -44.4760
0 7 12 -0.2033 -33.7594
0 7 13 -0.0703 10.1749
0 7 14 -0.1858 8.3298
0 7 15 0.0477 7.6695
0 7 16 0.2045 3.0086
0 7 17 -0.0327 3.2223
0 7 18 0.1561 -8.1315
0 7 19 -0.0337 20.0498
0 7 20 -0.1609 -22.6150
0 7 21 0.0377 -9.6352
0 7 22 -0.0153 1.3674
0 7 23 0.0408 1.2619
0 7 24 0.1275 20.1619
0 7 25 -0.1251 3.3093
0 7 26 -0.0192 0.2197
0 7 27 0.0541 7.0488
0 7 28 0.1824 -14.5698
0 8 0 -29.0494 -0.0598
0 8 1 53.6170 0.0643
0 8 2 17.0084 -0.0889
0 8 3 -8.1827 0.0004
0 8 4 -42.6767 0.0911
0 8 5 -47.4474 0.0025
0 8 6 4.9765 0.1393
0 8 7 33.2726 0.0463
0 8 8 6.7158 -0.1019
0 8 9 -38.9671 -0.1230
0 8 10 -2.4893 0.0456
0 8 11 -22.4282 0.0225
0 8 12 -28.2531 0.1215
0 8 13 14.3069 0.2031
0 8 14 16.5666 -0.1111
0 8 15 -12.5614 -0.0296
0 8 16 -3.7948 -0.1044
0 8 17 17.7791 -0.2210
0 8 18 5.2996 0.1060
0 8 19 -24.1105 0.0771
0 8 20 -6.1027 -0.0153
0 8 21 -27.0799 0.1566
0 8 22 16.3623 -0.1580
0 8 23 16.5964 -0.0356
0 8 24 -9.9585 0.0717
0 8 25 2.1118 0.0193
0 8 26 -1.6576 0.0504
0 8 27 -10.3098 -0.1014
0 9 1 -0.0902 -5.7585
0 9 2 0.1098 -13.6744
0 9 3 -0.0220 69.2948
0 9 4 0.0222 13.9915
0 9 5 0.1517 -9.7668
0 9 6 -0.0738 -2.7752
0 9 7 -0.0754 6.3135
0 9 8 -0.0134 -3.7189
0 9 9 -0.1634 19.7499
0 9 10 0.0231 22.8523
0 9 11 0.1577 -15.9757
0 9 12 0.0602 5.5831
0 9 13 0.0311 9.5105
0 9 14 0.0675 -15.9455
0 9 15 -0.1864 -14.8297
0 9 16 -0.0866 -7.2874
0 9 17 0.0730 -7.3308
0 9 18 -0.0660 8.8322
0 9 19 0.1760 24.5787
0 9 20 0.0517 14.2698
0 9 21 -0.1596 -23.7459
0 9 22 0.0243 4.1765
0 9 23 -0.0743 -14.3431
0 9 24 -0.0617 -6.6294
0 9 25 0.0617 14.5239
0 9 26 -0.0647 -6.3793
0 9 27 -0.0453 -4.7450
0 10 0 3.7891 -0.0291
0 10 1 19.8173 -0.0969
0 10 2 5.9897 -0.0152
0 10 3 5.1135 -0.1489
0 10 4 32.5431 -0.0603
0 10 5 -14.5302 0.0938
0 10 6 -1.3509 -0.0799
0 10 7 25.1841 0.1216
0 10 8 8.0437 0.0910
0 10 9 -8.6362 -0.0694
0 10 10 11.4543 -0.0064
0 10 11 21.2947 -0.0592
0 10 12 0.2036 -0.1068
0 10 13 -7.3582 -0.0084
0 10 14 -15.7630 0.1236
0 10 15 -16.4723 0.0207
0 10 16 9.0978 0.1066
0 10 17 14.7644 0.0387
0 10 18 17.0574 -0.1474
0 10 19 9.0989 0.0101
0 10 20 1.0506 -0.0208
0 10 21 -8.9962 -0.0131
0 10 22 -16.9378 0.1861
0 10 23 16.6619 -0.1036
0 10 24 -5.0269 -0.0472
0 10 25 -1.5337 0.0028
0 10 26 9.1122 0.0357
0 10 27 -0.4472 -0.0043
0 11 1 -0.0749 -16.7169
0 11 2 -0.2018 -5.3810
0 11 3 0.0905 -8.2562
0 11 4 0.0316 -8.8515
0 11 5 0.0103 -23.5755
0 11 6 0.1911 16.5186
0 11 7 -0.0344 -2.0241
0 11 8 -0.0036 -1.6965
0 11 9 0.0507 -0.1018
0 11 10 -0.1106 -14.1530
0 11 11 -0.0921 -6.3283
0 11 12 -0.0014 17.5621
0 11 13 -0.0175 23.1416
0 11 14 0.0329 8.7934
0 11 15 0.1663 -2.2661
0 11 16 -0.0382 -10.4488
0 11 17 -0.0659 -15.6817
0 11 18 0.0275 -3.7732
0 11 19 -0.1338 0.4259
0 11 20 0.0771 11.8011
0 11 21 0.0674 6.0322
0 11 22 -0.0031 7.0846
0 11 23 0.0400 2.0591
0 11 24 -0.0459 -7.1774
0 11 25 -0.0128 5.6847
0 11 26 0.1378 7.9868
0 12 0 -4.1252 0.2494
0 12 1 9.8813 0.1129
0 12 2 -19.2924 -0.0636
0 12 3 -23.4859 0.1057
0 12 4 -7.5447 -0.2056
0 12 5 11.8621 -0.0859
0 12 6 -2.9717 0.0874
0 12 7 1.5792 -0.1028
0 12 8 -18.2803 0.0789
0 12 9 -4.9324 0.1124
0 12 10 3.7414 -0.0422
0 12 11 -7.4689 0.0610
0 12 12 10.4035 0.0340
0 12 13 21.4551 -0.1227
0 12 14 -4.0954 -0.0563
0 12 15 -18.2932 -0.0114
0 12 16 -11.8888 -0.0686
0 12 17 -1.6423 0.0900
0 12 18 0.5392 0.0594
0 12 19 3.4646 -0.0671
0 12 20 9.6291 0.0555
0 12 21 9.9614 -0.0374
0 12 22 -1.1273 -0.0255
0 12 23 -5.5054 0.1049
0 12 24 1.1989 0.0057
0 12 25 4.1197 -0.0231
0 13 1 0.2060 16.4047
0 13 2 -0.0039 6.8380
0 13 3 -0.2479 7.7299
0 13 4 0.0493 -1.3859
0 13 5 -0.1191 -1.9294
0 13 6 -0.0152 -11.1897
0 13 7 0.1827 12.1073
0 13 8 -0.0458 -7.6226
0 13 9 0.0366 5.5935
0 13 10 0.0629 2.8594
0 13 11 -0.0834 -16.1912
0 13 12 0.0159 -12.5671
0 13 13 0.0177 -6.0532
0 13 14 -0.0564 -1.4150
0 13 15 -0.0001 14.3232
0 13 16 0.0272 6.4256
0 13 17 0.0046 -2.7723
0 13 18 0.0370 -14.2050
0 13 19 0.0011 -7.7289
0 13 20 -0.0559 -7.5085
0 13 21 0.0563 -3.1925
0 13 22 0.0025 -0.5582
0 13 23 -0.0115 2.8653
0 13 24 -0.0106 -5.8455
0 13 25 -0.0345 -7.1440
0 14 0 4.7808 -0.2982
0 14 1 -8.2295 0.1138
0 14 2 20.8142 -0.0195
0 14 3 8.1694 0.0569
0 14 4 -7.7757 0.2248
0 14 5 -5.1547 -0.1528
0 14 6 -0.5252 -0.0303
0 14 7 -7.0509 0.0114
0 14 8 28.3425 -0.1024
0 14 9 -4.5968 0.0984
0 14 10 -7.9789 0.0516
0 14 11 -1.8344 -0.0499
0 14 12 -17.2713 0.0167
0 14 13 -1.4828 -0.0176
0 14 14 18.2553 0.0216
0 14 15 6.5002 0.0439
0 14 16 -0.2933 0.0130
0 14 17 -10.4078 0.0333
0 14 18 -11.1781 -0.0403
0 14 19 -8.9340 -0.0070
0 14 20 1.3259 -0.0145
0 14 21 2.1015 -0.0172
0 14 22 -2.5827 -0.0702
0 14 23 -0.1142 -0.0329
0 14 24 -9.3622 0.0983
0 15 1 -0.1500 -7.8496
0 15 2 0.2264 -7.7055
0 15 3 0.1088 -8.2050
0 15 4 -0.0536 23.0214
0 15 5 0.0845 20.8994
0 15 6 -0.1335 -12.6514
0 15 7 -0.0354 -17.9341
0 15 8 0.1212 13.3601
0 15 9 -0.0511 -10.3738
0 15 10 0.0377 28.3621
0 15 11 -0.0445 19.2471
0 15 12 -0.1130 -10.8718
0 15 13 0.0036 -0.7646
0 15 14 0.0183 -1.1847
0 15 15 0.0891 -6.9594
0 15 16 0.0101 15.6859
0 15 17 -0.0215 7.3928
0 15 18 0.0079 10.7774
0 15 19 -0.0684 -1.9756
0 15 20 -0.0268 2.5130
0 15 21 -0.0393 -6.0725
0 15 22 -0.0023 9.6984
0 15 23 0.0470 2.2754
0 16 0 -24.3819 0.1047
0 16 1 -8.2344 -0.2028
0 16 2 4.0625 0.0023
0 16 3 17.2220 -0.1237
0 16 4 12.3988 -0.0605
0 16 5 -2.1760 0.1968
0 16 6 -20.9954 -0.0749
0 16 7 -12.4614 0.0129
0 16 8 9.6013 -0.0101
0 16 9 34.7322 -0.1207
0 16 10 -17.4646 0.0969
0 16 11 3.1979 0.0628
0 16 12 3.5139 0.0565
0 16 13 -12.8011 -0.0311
0 16 14 2.7998 -0.1401
0 16 15 2.0987 -0.0520
0 16 16 3.9443 -0.0545
0 16 17 10.5348 -0.0043
0 16 18 -2.6797 0.0968
0 16 19 0.9672 0.0032
0 16 20 0.8293 0.0843
0 16 21 2.8244 -0.0250
0 16 22 -0.5768 -0.0159
0 17 1 -0.0123 2.1644
0 17 2 -0.2368 -26.0056
0 17 3 0.0697 -12.4864
0 17 4 0.0794 12.9734
0 17 5 -0.0522 6.7443
0 17 6 0.1105 2.9103
0 17 7 -0.1227 -8.6541
0 17 8 -0.0417 -19.0535
0 17 9 0.0853 2.3067
0 17 10 0.0074 -13.1968
0 17 11 0.1609 16.5841
0 17 12 0.0287 -8.7653
0 17 13 -0.0697 -4.0746
0 17 14 -0.0923 3.8602
0 17 15 -0.1236 -2.7504
0 17 16 0.1057 -5.2219
0 17 17 0.0279 -4.6751
0 17 18 0.0449 -8.6556
0 17 19 0.0905 7.8877
0 17 20 -0.0124 -5.1782
0 17 21 0.0277 -1.3385
0 18 0 -24.3576 0.0604
0 18 1 -7.2509 0.1189
0 18 2 12.2367 -0.0900
0 18 3 -8.1390 0.0601
0 18 4 7.2382 -0.0723
0 18 5 11.0365 -0.0706
0 18 6 -9.7632 0.1703
0 18 7 -2.6081 -0.0300
0 18 8 -2.4876 0.0677
0 18 9 -13.0420 -0.0315
0 18 10 19.3132 -0.1419
0 18 11 -7.4232 -0.0003
0 18 12 7.1180 -0.0271
0 18 13 -2.9425 0.1588
0 18 14 5.8166 0.1406
0 18 15 -0.3601 0.0197
0 18 16 -11.4504 0.0320
0 18 17 -1.3304 -0.0935
0 18 18 0.4969 -0.0411
0 18 19 -0.0947 0.0092
0 18 20 1.0199 -0.0457
0 19 1 0.0119 11.4094
0 19 2 0.0722 -6.8968
0 19 3 -0.1279 -3.4455
0 19 4 0.0295 8.0151
0 19 5 0.0880 -3.9058
0 19 6 0.0254 -2.3525
0 19 7 0.0932 22.8722
0 19 8 -0.0986 2.5627
0 19 9 -0.0589 -4.8350
0 19 10 -0.0949 8.8373
0 19 11 -0.1241 -18.1256
0 19 12 0.0868 6.6055
0 19 13 0.0808 -1.7396
0 19 14 0.1214 12.8751
0 19 15 0.0327 -3.7387
0 19 16 -0.1842 6.2596
0 19 17 -0.0201 4.6232
0 19 18 -0.0836 -1.2533
0 19 19 -0.0057 -3.0274
0 20 0 4.6866 -0.0016
0 20 1 -8.6430 0.0018
0 20 2 -2.3960 0.0588
0 20 3 -1.4355 -0.0383
0 20 4 -5.1056 -0.0389
0 20 5 7.0709 -0.0677
0 20 6 5.2789 -0.1020
0 20 7 8.2519 0.0441
0 20 8 8.0837 0.0354
0 20 9 -10.3288 0.1286
0 20 10 -20.7498 0.0529
0 20 11 6.6187 -0.0171
0 20 12 -1.8561 -0.0863
0 20 13 5.6417 -0.2468
0 20 14 -4.3207 -0.0340
0 20 15 9.9312 0.0309
0 20 16 -6.3475 0.0347
0 20 17 -0.1612 0.1000
0 20 18 4.1477 -0.0527
0 21 1 0.0427 -4.8714
0 21 2 -0.0612 14.9491
0 21 3 0.0038 -10.2625
0 21 4 -0.0508 -14.1251
0 21 5 -0.1516 -5.7328
0 21 6 0.0461 -5.9909
0 21 7 0.0799 -11.8153
0 21 8 0.1061 6.8639
0 21 9 0.0556 11.9364
0 21 10 0.0709 1.0769
0 21 11 -0.0299 10.1862
0 21 12 -0.1125 -8.8666
0 21 13 -0.0802 -8.0105
0 21 14 -0.0272 -3.3042
0 21 15 0.1605 9.4465
0 21 16 0.1385 -11.5029
0 22 0 22.1254 -0.0412
0 22 1 4.3365 0.0339
0 22 2 -16.8522 -0.0770
0 22 3 0.4319 0.1037
0 22 4 -6.0278 0.0726
0 22 5 -7.6891 -0.0214
0 22 6 6.5195 0.0777
0 22 7 -1.8828 -0.1183
0 22 8 -0.8900 -0.0560
0 22 9 21.6654 -0.0278
0 22 10 24.3320 0.0215
0 22 11 -19.5824 0.0649
0 22 12 -2.7158 0.1514
0 22 13 0.6384 0.1034
0 22 14 -2.0674 -0.0688
0 23 1 -0.0966 6.6469
0 23 2 0.0628 8.0106
0 23 3 0.0210 15.1177
0 23 4 0.1285 -14.1511
0 23 5 0.1208 12.1859
0 23 6 -0.1025 7.0867
0 23 7 -0.0679 -7.6062
0 23 8 -0.1335 -21.4036
0 23 9 -0.0118 -6.1976
0 23 10 0.0133 -0.6134
0 23 11 0.0655 -2.4518
0 23 12 0.0593 24.6316
0 24 0 0.4061 0.1437
0 24 1 -3.9736 -0.1184
0 24 2 -0.5636 0.0406
0 24 3 1.2587 -0.2401
0 24 4 1.5616 -0.1901
0 24 5 -6.2311 0.0588
0 24 6 -1.2095 0.0854
0 24 7 -13.9933 0.1823
0 24 8 -10.5291 0.0369
0 24 9 -9.0570 -0.0546
0 24 10 4.8357 -0.1550
0 25 1 -0.0421 -0.7517
0 25 2 -0.3853 2.6953
0 25 3 -0.0169 -13.0607
0 25 4 -0.0943 6.9357
0 25 5 0.0712 4.0125
1 0 3 -0.7191 -67.7808
1 0 4 35.8467 -0.6357
1 0 5 0.2799 14.0664
1 0 6 -14.5985 -0.1887
1 0 7 0.9484 55.1129
1 0 8 4.9629 1.3078
1 0 9 0.3885 -87.5019
1 0 10 43.1627 0.5412
1 0 11 -0.2545 -14.1074
1 0 12 -3.1376 -1.4573
1 0 13 -0.5904 -1.2254
1 0 14 3.8745 -0.3803
1 0 15 -0.5547 -28.6287
1 0 16 17.8412 1.1527
1 0 17 0.5720 -2.3680
1 0 18 -2.3230 0.1564
1 0 19 0.8677 5.9408
1 0 20 9.2335 -0.5522
1 0 21 -0.1030 -3.6807
1 0 22 3.2305 0.1070
1 0 23 -0.8518 7.8053
1 0 24 -4.8284 0.0305
1 0 25 -0.2969 -9.6880
1 0 26 12.0288 -0.4567
1 0 27 0.4296 3.0723
1 0 28 -5.3384 0.0446
1 0 29 0.0417 -1.5258
1 1 3 -5.9100 -13.8228
1 1 4 16.8025 3.1289
1 1 5 59.8474 4.5755
1 1 6 12.4742 15.2460
1 1 7 -45.0373 -15.1535
1 1 8 -31.2237 -28.5994
1 1 9 -29.3710 -8.4903
1 1 10 -30.5370 1.6812
1 1 11 38.2039 -21.3050
1 1 12 -25.0400 17.2219
1 1 13 -18.1752 5.6482
1 1 14 -11.5461 -15.3859
1 1 15 0.9347 -6.3018
1 1 16 -7.7009 8.7930
1 1 17 20.0091 -2.3627
1 1 18 -4.4981 -0.3669
1 1 19 -1.4213 1.1286
1 1 20 1.9601 -2.1373
1 1 21 4.1716 0.2548
1 1 22 3.1501 6.7208
1 1 23 -2.8758 1.2985
1 1 24 2.8229 -2.1165
1 1 25 -1.8012 1.0900
1 1 26 -0.7030 -1.8485
1 1 27 3.9077 -2.2182
1 1 28 6.5963 9.0317
1 1 29 -6.6938 5.0620
1 2 1 -16.5483 73.9197
1 2 2 -24.2140 -23.5019
1 2 3 6.4499 -15.3529
1 2 4 21.8327 -52.9748
1 2 5 -6.5232 -5.2054
1 2 6 -20.8362 30.4942
1 2 7 -8.7646 39.0292
1 2 8 -17.7671 34.7944
1 2 9 -10.2805 -0.5748
1 2 10 4.2854 -7.4342
1 2 11 6.4780 10.1708
1 2 12 -18.0547 6.5710
1 2 13 7.4837 34.2257
1 2 14 -4.5782 -12.4041
1 2 15 -6.3401 -14.6154
1 2 16 -3.2655 1.8180
1 2 17 6.4202 11.5925
1 2 18 -11.7468 -15.3835
1 2 19 1.9188 6.8715
1 2 20 -1.1481 -3.2964
1 2 21 0.3392 4.5432
1 2 22 -3.2884 -0.9032
1 2 23 5.0984 4.0163
1 2 24 -7.8078 2.7790
1 2 25 -0.4288 4.4202
1 2 26 3.0043 -7.0349
1 2 27 1.9037 -1.3754
1 2 28 -0.1408 -0.3456
1 2 29 3.2276 -6.4358
1 3 0 -0.2840 29.9147
1 3 1 77.7963 -11.4459
1 3 2 -43.3480 -0.4989
1 3 3 -69.8542 7.5969
1 3 4 27.9081 -4.7233
1 3 5 13.5909 3.2813
1 3 6 37.7233 29.9526
1 3 7 41.8137 18.1306
1 3 8 2.7335 -5.8314
1 3 9 -5.9066 0.2023
1 3 10 11.3723 8.5399
1 3 11 12.7602 2.9629
1 3 12 10.1458 -4.0987
1 3 13 -2.3081 4.5127
1 3 14 8.7841 1.7804
1 3 15 -10.9278 4.1581
1 3 16 1.4116 1.1984
1 3 17 -0.3107 -3.7269
1 3 18 -0.9867 0.1479
1 3 19 -10.7585 5.1291
1 3 20 10.6804 -7.7346
1 3 21 -6.4008 -4.7077
1 3 22 4.3912 3.2016
1 3 23 5.7467 0.1754
1 3 24 -3.8256 -8.0955
1 3 25 -17.1932 1.8596
1 3 26 1.0758 -8.2179
1 3 27 -12.4946 -1.1165
1 3 28 -7.9656 -0.3793
1 3 29 4.6504 -5.2558
1 4 0 -0.2623 -56.0648
1 4 1 11.6684 51.3673
1 4 2 -10.2740 -2.6616
1 4 3 6.3959 34.5152
1 4 4 11.7399 -9.2257
1 4 5 15.2378 -66.9194
1 4 6 8.7864 -8.7157
1 4 7 9.3431 -12.3655
1 4 8 0.4667 -20.7760
1 4 9 -4.6253 17.0274
1 4 10 1.8546 9.4362
1 4 11 1.9902 -17.7132
1 4 12 4.1171 -17.9270
1 4 13 -1.3611 0.0931
1 4 14 5.3700 7.3771
1 4 15 -0.9650 1.5955
1 4 16 4.6405 3.2540
1 4 17 -0.9584 -1.1512
1 4 18 0.6882 7.4051
1 4 19 -6.7828 0.1100
1 4 20 4.0548 -1.5477
1 4 21 -2.3768 -17.7967
1 4 22 4.6565 4.8657
1 4 23 -2.1212 4.1895
1 4 24 -6.0958 4.0934
1 4 25 -3.6810 12.5742
1 4 26 10.2020 22.1418
1 4 27 -10.4026 -20.8731
1 4 28 -1.6040 6.1791
1 5 0 -0.0718 -3.9173
1 5 1 -12.8188 5.3659
1 5 2 54.8097 -13.8781
1 5 3 -24.0456 -3.7057
1 5 4 -25.2253 -8.2531
1 5 5 -38.0145 -13.1901
1 5 6 -40.7605 -18.7600
1 5 7 17.4092 7.6301
1 5 8 16.5961 9.5338
1 5 9 1.2581 -5.6047
1 5 10 -13.8546 -9.6540
1 5 11 -19.7878 -1.5164
1 5 12 -7.9433 2.5868
1 5 13 6.4288 -1.0243
1 5 14 8.1040 -8.3989
1 5 15 2.0695 -3.2448
1 5 16 2.3127 3.4507
1 5 17 10.5210 6.0479
1 5 18 5.0953 3.3099
1 5 19 -0.5578 2.1646
1 5 20 -15.3914 1.3312
1 5 21 1.6215 -3.4242
1 5 22 4.2092 5.5032
1 5 23 17.9409 8.9890
1 5 24 20.3149 3.9649
1 5 25 1.9660 1.6093
1 5 26 0.9727 2.7901
1 5 27 8.8218 -1.2738
1 5 28 -25.2398 12.1566
1 6 0 -0.2144 -16.6810
1 6 1 -7.9129 -43.7385
1 6 2 4.2119 20.5105
1 6 3 -21.1818 1.7846
1 6 4 -11.9744 65.4198
1 6 5 -1.9868 15.6799
1 6 6 10.0078 -25.9852
1 6 7 -3.9481 -12.5417
1 6 8 6.3083 7.6135
1 6 9 -5.5510 5.8714
1 6 10 -4.2328 1.2262
1 6 11 9.9193 16.6002
1 6 12 -0.3588 2.6406
1 6 13 -7.8424 -16.6829
1 6 14 -2.5414 -0.6951
1 6 15 4.4430 -3.9528
1 6 16 8.0165 -12.1931
1 6 17 11.3442 -11.7110
1 6 18 -2.6635 2.9895
1 6 19 -4.0499 19.0765
1 6 20 -4.9300 5.5623
1 6 21 11.2745 0.5985
1 6 22 0.8909 -28.5697
1 6 23 3.3294 -8.8756
1 6 24 0.9574 2.9782
1 6 25 -1.7644 -8.2563
1 6 26 -1.1418 6.8846
1 6 27 2.0901 15.1483
1 6 28 -3.7548 -6.3787
1 7 0 -0.2914 -4.7529
1 7 1 -11.0864 15.1331
1 7 2 14.7389 20.9646
1 7 3 55.5483 -5.4825
1 7 4 -25.2371 -1.3944
1 7 5 11.5583 -2.1644
1 7 6 2.4654 3.8955
1 7 7 -11.9788 0.7191
1 7 8 0.6746 2.7622
1 7 9 15.8123 -9.1077
1 7 10 -3.4924 7.2273
1 7 11 -4.0138 3.6798
1 7 12 17.6946 -2.4871
1 7 13 -7.1368 11.9641
1 7 14 -24.9246 2.6403
1 7 15 -9.1051 -22.5146
1 7 16 -15.6884 -5.6470
1 7 17 5.1262 6.8859
1 7 18 19.0143 6.6664
1 7 19 8.6243 -2.9615
1 7 20 -8.2195 -7.4223
1 7 21 -23.1136 -2.5388
1 7 22 0.9735 -6.9100
1 7 23 -19.3590 2.2263
1 7 24 -0.2203 -2.2173
1 7 25 13.4914 -5.5500
1 7 26 -6.8558 0.9971
1 7 27 1.4159 1.2384
1 7 28 7.9978 -5.3668
1 8 0 -0.3039 -20.8139
1 8 1 15.9179 -3.6385
1 8 2 -0.5579 10.7228
1 8 3 -7.5323 -10.8769
1 8 4 -5.6370 -27.1989
1 8 5 13.6371 30.7238
1 8 6 -5.6113 -18.8806
1 8 7 -3.4203 2.6211
1 8 8 -9.0304 22.9024
1 8 9 -1.1676 3.5391
1 8 10 -3.6831 -24.5796
1 8 11 15.2001 -6.1628
1 8 12 -1.5446 8.4539
1 8 13 -19.0447 19.7291
1 8 14 -6.6381 32.0785
1 8 15 -3.7019 5.9220
1 8 16 -4.2603 -23.5084
1 8 17 7.3691 -1.8556
1 8 18 -1.1340 -11.3647
1 8 19 -9.7266 -2.5964
1 8 20 -0.5265 11.9088
1 8 21 -1.6511 12.0763
1 8 22 3.7893 11.3224
1 8 23 -8.7250 -14.8718
1 8 24 5.0915 13.6149
1 8 25 0.6783 -4.7181
1 8 26 -0.7683 -14.2497
1 8 27 0.3453 5.9853
1 9 0 0.0875 -4.1597
1 9 1 -0.0611 12.4744
1 9 2 9.9337 -1.8715
1 9 3 -14.3135 3.7654
1 9 4 -26.4740 0.3012
1 9 5 -2.7853 -12.0944
1 9 6 39.8291 5.4580
1 9 7 -3.9936 24.0549
1 9 8 6.1052 -5.6194
1 9 9 -13.8604 -17.2641
1 9 10 -23.7194 -5.0115
1 9 11 9.9862 11.6507
1 9 12 40.6111 1.4359
1 9 13 15.0321 3.9930
1 9 14 -2.0346 4.5001
1 9 15 -2.4152 -4.6840
1 9 16 -13.0960 -3.1223
1 9 17 -15.3495 4.4921
1 9 18 12.7567 -3.5214
1 9 19 -2.4460 6.6274
1 9 20 10.4112 -1.0538
1 9 21 13.4684 -2.4852
1 9 22 5.6032 6.4113
1 9 23 3.7448 3.0552
1 9 24 -11.7999 1.0744
1 9 25 9.8713 -3.4750
1 9 26 -3.7254 4.2284
1 9 27 -2.0558 2.3480
1 10 0 -0.0048 -33.6708
1 10 1 3.6026 3.8277
1 10 2 6.6763 30.8473
1 10 3 -19.5345 12.2802
1 10 4 6.2303 -4.4074
1 10 5 15.4969 -24.8108
1 10 6 3.8195 -20.1224
1 10 7 -2.8366 1.8079
1 10 8 4.4341 31.2165
1 10 9 -10.3526 -12.9765
1 10 10 8.9765 -10.1328
1 10 11 10.6166 -6.0295
1 10 12 8.8187 -27.8456
1 10 13 -2.7286 -15.9658
1 10 14 4.0266 21.0306
1 10 15 4.7811 15.8770
1 10 16 0.2048 -4.6820
1 10 17 3.9604 3.7141
1 10 18 2.5107 7.9612
1 10 19 -3.0328 -13.9666
1 10 20 5.5982 -8.3972
1 10 21 4.0345 -14.4118
1 10 22 -3.7880 0.7688
1 10 23 5.2601 10.6221
1 10 24 -3.2563 -0.9545
1 10 25 -1.3948 -1.2114
1 10 26 -0.9072 -5.6068
1 10 27 4.0849 8.0358
1 11 0 0.4590 -3.9346
1 11 1 7.7427 15.0616
1 11 2 21.9978 -5.2520
1 11 3 -2.9218 -14.4392
1 11 4 -25.6474 4.3455
1 11 5 -6.5834 -1.3347
1 11 6 -0.3097 -10.4663
1 11 7 4.8919 5.0115
1 11 8 0.6787 3.6803
1 11 9 7.4265 0.1921
1 11 10 -25.2628 -2.3846
1 11 11 -14.8439 -9.2702
1 11 12 0.1424 1.5881
1 11 13 0.0438 6.1109
1 11 14 3.2330 0.3025
1 11 15 15.8165 -6.0494
1 11 16 5.3827 1.7633
1 11 17 -6.3143 6.9082
1 11 18 -6.9516 -2.5533
1 11 19 -11.0742 -6.8233
1 11 20 -18.1363 5.1489
1 11 21 2.5815 -2.5389
1 11 22 3.9012 -1.0513
1 11 23 2.0841 1.2858
1 11 24 -0.5974 -3.6018
1 11 25 -6.7829 -1.3591
1 11 26 -0.8096 2.9462
1 12 0 -0.3068 -7.7389
1 12 1 -0.3243 -0.8115
1 12 2 0.4065 -4.1599
1 12 3 -0.8688 2.6900
1 12 4 -10.1886 22.2235
1 12 5 3.9800 12.1118
1 12 6 -4.8871 -6.2018
1 12 7 0.0512 -1.8363
1 12 8 0.1887 -1.3230
1 12 9 -2.1624 16.0627
1 12 10 -11.0521 4.8249
1 12 11 -0.4383 11.3945
1 12 12 -5.2920 9.6124
1 12 13 0.6767 -10.0617
1 12 14 -4.8123 -15.2157
1 12 15 -1.1283 -3.3666
1 12 16 -6.3421 1.8768
1 12 17 -3.0923 9.1273
1 12 18 3.0654 15.8738
1 12 19 -4.0748 6.3289
1 12 20 -2.8321 0.7998
1 12 21 2.7653 -1.5851
1 12 22 -0.3307 -8.7154
1 12 23 -5.9364 -0.1592
1 12 24 5.3119 8.9396
1 12 25 -3.1135 -3.9918
1 13 0 0.1953 -1.8903
1 13 1 -6.6936 -2.5159
1 13 2 3.4200 12.4922
1 13 3 12.0950 1.1467
1 13 4 15.7769 -0.8593
1 13 5 8.1379 3.6815
1 13 6 -11.9401 2.9475
1 13 7 -6.4507 -4.1039
1 13 8 10.5455 0.1348
1 13 9 0.7049 1.6809
1 13 10 24.5701 7.4727
1 13 11 -0.6646 -1.1448
1 13 12 -10.9631 -6.5778
1 13 13 -4.6086 -1.1353
1 13 14 -6.2737 7.0967
1 13 15 -2.8694 2.5993
1 13 16 15.7377 -8.6167
1 13 17 6.9368 0.3139
1 13 18 8.8949 1.2249
1 13 19 4.3829 -3.6569
1 13 20 -7.3414 -1.0374
1 13 21 -6.5023 4.0220
1 13 22 4.3125 -2.4960
1 13 23 0.1001 2.5778
1 13 24 -0.9106 2.5540
1 13 25 4.0999 -5.1841
1 14 0 -0.2173 4.9260
1 14 1 -1.2093 -5.9638
1 14 2 3.4644 -7.6901
1 14 3 5.1213 -19.3456
1 14 4 -0.3108 -14.8968
1 14 5 -5.5563 13.5211
1 14 6 5.7057 8.8179
1 14 7 -0.5450 -3.1723
1 14 8 6.2877 -20.4417
1 14 9 0.6295 -13.8234
1 14 10 2.3639 14.4374
1 14 11 -0.9862 -9.7514
1 14 12 9.1254 0.7777
1 14 13 2.4129 11.8796
1 14 14 2.7186 -1.9503
1 14 15 0.3418 -1.4796
1 14 16 1.5222 -10.6247
1 14 17 -4.0976 -12.0059
1 14 18 4.3226 7.3407
1 14 19 1.8408 1.6245
1 14 20 -1.9117 0.5607
1 14 21 3.5983 7.9507
1 14 22 1.2217 3.3396
1 14 23 -0.9539 -8.5582
1 14 24 -4.4373 3.9820
1 15 0 0.3281 -6.0563
1 15 1 -11.7707 -8.0808
1 15 2 -21.6340 -6.2870
1 15 3 4.6506 6.7963
1 15 4 6.2104 0.7561
1 15 5 -6.1961 -0.4067
1 15 6 6.5371 -12.1611
1 15 7 -10.2920 2.9127
1 15 8 -5.9314 8.5474
1 15 9 3.0413 -0.5281
1 15 10 -9.3133 -11.0010
1 15 11 9.7605 0.6576
1 15 12 -4.3384 2.6435
1 15 13 8.9235 1.5890
1 15 14 4.9740 -0.4454
1 15 15 -8.5111 4.7365
1 15 16 -4.3969 3.2908
1 15 17 -6.0670 -0.1332
1 15 18 -1.5619 0.7680
1 15 19 15.4314 -2.2798
1 15 20 1.9790 4.9387
1 15 21 -2.1358 -1.3149
1 15 22 0.2237 -0.3744
1 15 23 2.7703 0.6113
1 16 0 0.2504 26.0000
1 16 1 -2.5368 -12.6725
1 16 2 5.4008 0.9216
1 16 3 4.1210 17.6746
1 16 4 -9.2877 -4.3691
1 16 5 -2.2627 -5.4675
1 16 6 5.5598 10.5140
1 16 7 1.6292 -12.6023
1 16 8 -3.7642 16.9509
1 16 9 -0.2455 8.0779
1 16 10 -12.0107 -10.4154
1 16 11 0.8117 5.9390
1 16 12 2.8457 -9.8526
1 16 13 4.3069 -6.2798
1 16 14 -4.0540 -1.7481
1 16 15 -2.5123 10.3878
1 16 16 -1.9131 14.4882
1 16 17 1.9757 -9.8615
1 16 18 0.2039 -7.5976
1 16 19 -1.6823 -4.1802
1 16 20 -1.6604 -3.1656
1 16 21 2.1414 3.8034
1 16 22 0.8870 1.2615
1 17 0 0.1820 -4.5725
1 17 1 8.4890 -0.2714
1 17 2 -3.3673 10.7363
1 17 3 10.7613 -5.8877
1 17 4 2.9443 1.5755
1 17 5 -19.3718 2.6694
1 17 6 -2.4908 -0.6288
1 17 7 24.2767 -10.0780
1 17 8 -8.3861 13.3146
1 17 9 9.4150 4.3339
1 17 10 -3.1025 -1.3115
1 17 11 -26.9102 -6.7193
1 17 12 5.1897 -4.1075
1 17 13 2.3108 1.0360
1 17 14 10.1962 6.6331
1 17 15 -1.2193 -3.1726
1 17 16 0.9550 -5.1228
1 17 17 -1.7556 -1.8852
1 17 18 -11.5304 0.4475
1 17 19 0.0395 0.8173
1 17 20 4.7782 -2.4853
1 17 21 0.5974 0.4221
1 18 0 -0.0629 -9.0987
1 18 1 -1.7697 -1.6016
1 18 2 2.1806 -8.4542
1 18 3 1.6474 6.6822
1 18 4 -5.7197 7.1041
1 18 5 -2.3811 3.4506
1 18 6 6.6900 -9.8316
1 18 7 2.4555 -13.9315
1 18 8 1.1289 -14.5148
1 18 9 2.5860 35.2939
1 18 10 -2.2489 3.6732
1 18 11 -4.2621 -9.3190
1 18 12 7.5711 1.1489
1 18 13 -0.1445 -7.8116
1 18 14 2.2618 -0.0057
1 18 15 -1.0997 -3.6855
1 18 16 -2.5965 7.3988
1 18 17 -2.0652 2.2415
1 18 18 2.9732 -2.8629
1 18 19 2.9541 2.8039
1 18 20 -1.4114 -2.2859
1 19 0 0.0996 -4.5948
1 19 1 -6.7928 -1.5617
1 19 2 13.3760 0.7421
1 19 3 1.4756 6.2818
1 19 4 -3.8733 -7.4490
1 19 5 -9.2433 -2.3156
1 19 6 -9.9284 -4.5311
1 19 7 -1.9432 5.1988
1 19 8 18.6478 -4.8848
1 19 9 -0.8222 1.1548
1 19 10 12.5615 -4.7712
1 19 11 -8.1748 7.6057
1 19 12 -12.2170 -2.7597
1 19 13 3.8356 -4.8176
1 19 14 2.8467 1.7861
1 19 15 5.0290 8.0298
1 19 16 -8.1694 0.9210
1 19 17 4.4256 -3.4366
1 19 18 0.0823 -1.6681
1 19 19 1.8027 1.4345
1 20 0 0.2375 -14.7351
1 20 1 2.8551 -7.4255
1 20 2 -2.0641 15.4011
1 20 3 -4.7125 -2.0081
1 20 4 0.8683 10.1714
1 20 5 -1.1619 3.8557
1 20 6 -3.4383 0.3254
1 20 7 -1.7053 -1.4001
1 20 8 0.0504 -4.3348
1 20 9 0.4269 -23.6368
1 20 10 -0.4613 14.3269
1 20 11 -1.4589 8.4109
1 20 12 -0.2269 3.6931
1 20 13 1.9604 -5.6504
1 20 14 -1.2613 0.6926
1 20 15 2.1354 4.5504
1 20 16 0.2810 -0.0982
1 20 17 -1.5182 -0.4384
1 20 18 -2.0798 -6.6057
1 21 0 -0.0586 8.2350
1 21 1 1.0157 4.8394
1 21 2 6.5914 -2.6613
1 21 3 11.6935 -1.7343
1 21 4 -7.5116 10.2310
1 21 5 10.8935 -1.5437
1 21 6 -3.0794 4.5105
1 21 7 -13.0211 -5.6164
1 21 8 -12.3717 3.5658
1 21 9 3.3745 -1.2555
1 21 10 -2.9351 2.9117
1 21 11 12.1372 -5.9658
1 21 12 6.4637 3.9196
1 21 13 -1.2334 1.0566
1 21 14 -5.0729 0.4226
1 21 15 2.7736 -4.1141
1 21 16 3.2151 1.5703
1 22 0 0.1277 3.5869
1 22 1 0.9368 -2.0869
1 22 2 0.6851 -10.5985
1 22 3 2.2787 -1.3407
1 22 4 5.2799 -2.7534
1 22 5 0.3548 9.8824
1 22 6 -4.7002 -1.3550
1 22 7 3.4935 15.8134
1 22 8 -1.9454 2.9734
1 22 9 -0.7432 5.8972
1 22 10 1.7267 -18.8438
1 22 11 0.4931 -11.6516
1 22 12 0.5201 -0.7143
1 22 13 1.2486 2.4636
1 22 14 1.6472 -5.1465
1 23 0 -0.2262 -2.7873
1 23 1 0.7145 -4.3388
1 23 2 -7.5514 -2.7192
1 23 3 -7.0195 1.7428
1 23 4 14.9827 -4.8947
1 23 5 4.2347 2.0020
1 23 6 2.7166 1.6811
1 23 7 3.8875 3.7367
1 23 8 11.1615 -10.6036
1 23 9 -21.4427 7.0383
1 23 10 -1.7531 -1.8609
1 23 11 -13.0105 -2.5038
1 23 12 -12.4655 -7.0765
1 24 0 0.5481 5.2775
1 24 1 -3.3999 12.3402
1 24 2 -3.4234 -6.9893
1 24 3 4.1943 -5.9679
1 24 4 1.1999 1.5285
1 24 5 -4.6874 -9.1623
1 24 6 -2.1149 4.7828
1 24 7 3.6759 2.3694
1 24 8 1.3016 -3.7107
1 24 9 -6.6033 0.9822
1 24 10 -0.8254 41.8042
1 25 0 -0.0735 6.0926
1 25 1 1.0790 -6.1746
1 25 2 2.0918 -0.5879
1 25 3 -7.5557 3.8688
1 25 4 4.7019 3.6755
1 25 5 7.3740 -1.6175
2 0 2 -45.9309 -0.6454
2 0 3 -0.0580 -53.2920
2 0 4 -79.8185 1.2737
2 0 5 -1.2022 54.0575
2 0 6 50.1201 0.7206
2 0 7 -0.7004 23.0990
2 0 8 5.0524 -0.8178
2 0 9 0.7709 0.3839
2 0 10 3.4834 -0.6208
2 0 11 1.2945 20.9369
2 0 12 9.0221 -0.0099
2 0 13 -0.5957 -29.0628
2 0 14 -24.4207 0.2306
2 0 15 -1.0992 6.7883
2 0 16 10.2026 0.3573
2 0 17 0.1995 12.7096
2 0 18 -4.9176 0.3085
2 0 19 0.4958 -21.5555
2 0 20 -12.8452 -0.5419
2 0 21 0.0787 6.8002
2 0 22 10.0314 -0.5736
2 0 23 0.2306 -2.0262
2 0 24 1.1267 0.2701
2 0 25 -0.1209 -5.8031
2 0 26 2.7620 0.4395
2 0 27 -0.6907 2.9293
2 0 28 0.8316 -0.1212
2 0 29 -0.0264 -6.1854
2 1 1 -57.4562 -84.5355
2 1 2 51.8557 94.5657
2 1 3 -5.6242 31.8142
2 1 4 -18.6046 -45.5759
2 1 5 41.3617 4.6522
2 1 6 43.7260 -13.8851
2 1 7 -42.9566 -50.8164
2 1 8 7.7906 23.6046
2 1 9 18.3945 -17.8345
2 1 10 22.9365 -11.6696
2 1 11 -19.9890 7.9781
2 1 12 -28.5238 20.0694
2 1 13 -10.4568 -0.3900
2 1 14 15.4183 1.8581
2 1 15 17.5297 8.3996
2 1 16 -4.8897 -6.6834
2 1 17 -12.2722 4.9112
2 1 18 1.9106 13.3103
2 1 19 -5.0738 8.1001
2 1 20 -8.6993 -10.6412
2 1 21 11.9421 5.3491
2 1 22 4.2669 -5.8464
2 1 23 -10.1041 -2.2641
2 1 24 -3.4634 4.9918
2 1 25 5.8784 6.3626
2 1 26 1.5516 -0.7401
2 1 27 2.2024 3.6354
2 1 28 -8.5879 3.6222
2 1 29 -7.6589 -1.9854
2 2 0 3.5597 0.5150
2 2 1 68.2185 -1.6780
2 2 2 -7.1701 18.4975
2 2 3 53.8512 -53.8351
2 2 4 4.7130 9.4001
2 2 5 -54.2762 9.2041
2 2 6 19.6205 -15.7526
2 2 7 -19.9852 -16.4745
2 2 8 -26.4613 10.9664
2 2 9 40.2402 -25.1722
2 2 10 4.3833 30.5486
2 2 11 -1.9586 23.1378
2 2 12 6.9228 4.6235
2 2 13 4.2177 -11.9671
2 2 14 -10.4439 -3.7461
2 2 15 9.5766 -8.2790
2 2 16 6.9910 8.4348
2 2 17 2.1972 13.1753
2 2 18 -3.2080 10.3508
2 2 19 0.8274 -7.2125
2 2 20 -7.2167 -0.0805
2 2 21 -11.0631 0.8685
2 2 22 6.0173 2.0533
2 2 23 1.2761 11.6846
2 2 24 0.9417 4.4785
2 2 25 8.2838 -11.2816
2 2 26 2.3592 3.1285
2 2 27 -11.9494 19.4776
2 2 28 2.6488 -3.0496
2 2 29 3.9888 -3.5064
2 3 0 -8.6408 0.0450
2 3 1 -35.6855 -0.3646
2 3 2 -13.9968 -63.8608
2 3 3 36.8377 40.2906
2 3 4 -17.6849 -1.8831
2 3 5 -10.5169 46.2493
2 3 6 -26.9718 38.7488
2 3 7 8.2216 -22.4951
2 3 8 18.3300 -15.6568
2 3 9 13.0562 5.2278
2 3 10 -9.9414 -24.6807
2 3 11 36.4952 17.6250
2 3 12 -2.9034 4.3057
2 3 13 -28.8782 -11.6950
2 3 14 -6.2143 -12.3617
2 3 15 25.8798 -2.0559
2 3 16 5.4842 -7.2337
2 3 17 2.9934 0.3682
2 3 18 1.3759 0.8195
2 3 19 -0.3245 5.4803
2 3 20 -7.1592 0.0056
2 3 21 8.2374 -2.4564
2 3 22 6.3037 -2.4919
2 3 23 1.3466 -15.3767
2 3 24 0.4613 -8.8825
2 3 25 -3.0404 2.6696
2 3 26 -2.5988 -2.5399
2 3 27 8.8253 -3.7143
2 3 28 4.5111 8.6349
2 3 29 -25.3269 -11.9188
2 4 0 -61.8848 0.1566
2 4 1 -35.4798 9.3792
2 4 2 -1.6457 -10.5169
2 4 3 -6.6579 1.1784
2 4 4 51.2586 8.1050
2 4 5 8.5809 21.0577
2 4 6 -16.3226 -19.9383
2 4 7 -7.7049 -1.1808
2 4 8 -29.3627 -18.3558
2 4 9 -0.9642 -16.1433
2 4 10 14.0260 -14.9833
2 4 11 -2.9243 16.1374
2 4 12 -0.0580 -1.6059
2 4 13 -13.6470 7.6856
2 4 14 -3.4313 -7.7377
2 4 15 -4.6051 -14.4736
2 4 16 3.6087 -21.6538
2 4 17 -1.7419 8.5358
2 4 18 9.8276 -0.1482
2 4 19 0.6857 -1.4349
2 4 20 5.0441 -7.7849
2 4 21 -7.3311 -5.9285
2 4 22 -8.7981 -14.8902
2 4 23 -4.2899 5.8073
2 4 24 -0.7511 -0.7558
2 4 25 -2.0374 -3.2751
2 4 26 12.7476 -5.3428
2 4 27 3.4412 3.9771
2 4 28 -4.1555 0.7919
2 5 0 7.5411 -0.0664
2 5 1 13.0139 22.1440
2 5 2 -0.4950 -7.3407
2 5 3 -22.6770 -52.9946
2 5 4 8.0170 11.8332
2 5 5 16.3910 -29.7612
2 5 6 -5.7215 23.5486
2 5 7 -48.3180 24.2232
2 5 8 -8.0214 3.7043
2 5 9 2.0564 -6.2025
2 5 10 4.6841 0.5987
2 5 11 -8.0001 -3.9066
2 5 12 13.7905 6.8794
2 5 13 -1.2418 13.3552
2 5 14 -23.9896 13.6603
2 5 15 -23.5950 0.9916
2 5 16 9.9558 2.6841
2 5 17 5.3092 -6.8319
2 5 18 3.2574 -3.9793
2 5 19 -12.7126 -0.5587
2 5 20 -8.2604 9.4226
2 5 21 4.2113 7.8906
2 5 22 1.5970 7.9959
2 5 23 -3.2947 9.8895
2 5 24 7.6746 1.8828
2 5 25 -1.3052 -10.2236
2 5 26 4.7606 5.7512
2 5 27 2.6081 -8.3247
2 5 28 2.8081 -0.4142
2 6 0 38.1563 0.1411
2 6 1 -6.4499 4.8983
2 6 2 8.5961 19.9574
2 6 3 -23.0327 -1.4668
2 6 4 -17.4797 -13.3894
2 6 5 31.7801 11.2457
2 6 6 6.9598 31.9992
2 6 7 23.1045 13.8945
2 6 8 13.1554 19.3032
2 6 9 -19.6945 -12.9522
2 6 10 -15.8844 -13.0585
2 6 11 8.3689 -8.8960
2 6 12 13.6828 27.5538
2 6 13 16.9447 16.6205
2 6 14 6.2738 9.0728
2 6 15 -6.3539 0.7121
2 6 16 -14.8219 -0.2112
2 6 17 0.9853 -7.6717
2 6 18 -10.9620 23.8463
2 6 19 6.3575 -0.1217
2 6 20 5.9599 -2.7639
2 6 21 7.7764 2.0445
2 6 22 4.8403 4.8878
2 6 23 -4.1489 4.0411
2 6 24 -0.2283 -0.2988
2 6 25 -8.9884 -6.7317
2 6 26 -19.9022 10.4307
2 6 27 8.0008 -4.4826
2 6 28 3.0336 -0.9055
2 7 0 30.1526 -0.1608
2 7 1 2.1698 -12.2619
2 7 2 -0.3125 26.1002
2 7 3 11.6335 25.3793
2 7 4 -6.3660 -6.6889
2 7 5 7.1874 -18.3181
2 7 6 59.7341 -41.0324
2 7 7 17.9718 10.4220
2 7 8 -48.0450 4.1603
2 7 9 -7.8479 19.6535
2 7 10 19.2998 0.5708
2 7 11 21.1469 -26.6287
2 7 12 4.7982 -26.4885
2 7 13 10.4550 -1.7600
2 7 14 -1.0970 4.6069
2 7 15 -1.9654 5.8218
2 7 16 6.4682 8.9036
2 7 17 5.5135 2.0579
2 7 18 -8.3833 -8.2786
2 7 19 6.3537 4.4159
2 7 20 -12.9454 -17.5481
2 7 21 2.2264 -7.9377
2 7 22 14.5248 -1.4820
2 7 23 -9.5351 -1.8010
2 7 24 -9.1275 11.0432
2 7 25 -3.6269 3.4662
2 7 26 0.5547 -4.7240
2 7 27 0.8482 -1.6630
2 7 28 -8.8253 -19.7986
2 8 0 -11.6134 0.1021
2 8 1 41.8084 -20.1094
2 8 2 -5.5779 21.3028
2 8 3 6.5944 -0.1496
2 8 4 -24.0954 -48.8682
2 8 5 -31.1270 -26.0890
2 8 6 -5.3303 17.4365
2 8 7 19.7998 -1.1386
2 8 8 17.3970 11.3090
2 8 9 -15.0149 6.2223
2 8 10 -7.0565 -38.7986
2 8 11 -14.4083 -6.5381
2 8 12 -12.8771 9.0145
2 8 13 8.7964 -0.3377
2 8 14 17.0598 -14.2958
2 8 15 0.7327 -1.2775
2 8 16 4.1656 -0.7275
2 8 17 8.5683 3.7321
2 8 18 0.7596 4.6429
2 8 19 -15.7008 5.4920
2 8 20 -1.0339 -24.3012
2 8 21 -14.7339 4.8818
2 8 22 10.3682 -1.2720
2 8 23 13.6111 -4.2557
2 8 24 -1.2511 10.1313
2 8 25 4.7312 -0.3511
2 8 26 -2.6467 -9.8610
2 8 27 -6.8627 -1.0946
2 9 0 22.4965 -0.4703
2 9 1 6.0149 -17.9103
2 9 2 -49.1749 -12.7311
2 9 3 -9.4695 37.1983
2 9 4 -0.5448 9.3412
2 9 5 -12.7043 -4.8017
2 9 6 0.8747 6.7536
2 9 7 16.3330 -4.9676
2 9 8 -21.2100 -0.3183
2 9 9 -6.7766 11.0556
2 9 10 -4.2009 21.1399
2 9 11 -13.2062 -1.8022
2 9 12 12.4681 3.4936
2 9 13 -5.5099 4.2504
2 9 14 -19.6594 -9.9909
2 9 15 6.6521 -9.0301
2 9 16 19.9264 -4.2446
2 9 17 2.3812 1.7858
2 9 18 -11.0462 8.8601
2 9 19 -3.8244 16.9087
2 9 20 4.2905 12.9073
2 9 21 -7.9315 -12.1848
2 9 22 15.5433 2.3942
2 9 23 4.5744 -9.2059
2 9 24 -6.0880 2.4485
2 9 25 9.8406 9.8131
2 9 26 -0.8755 2.5950
2 9 27 -5.0643 -0.6261
2 10 0 -4.6653 0.2766
2 10 1 9.7532 18.0896
2 10 2 5.9679 13.9527
2 10 3 -0.5664 11.7169
2 10 4 25.2511 -12.2470
2 10 5 -9.1279 4.5927
2 10 6 2.4000 9.9550
2 10 7 7.3467 1.4248
2 10 8 -5.0467 -3.8607
2 10 9 -1.6133 13.8622
2 10 10 7.9238 -7.4588
2 10 11 9.7746 1.6910
2 10 12 -3.6857 17.1090
2 10 13 -9.2186 -8.0118
2 10 14 -17.2777 -5.7090
2 10 15 -11.1699 -2.3832
2 10 16 4.1284 -5.4408
2 10 17 10.2185 4.1444
2 10 18 14.9267 9.4524
2 10 19 7.7509 2.7569
2 10 20 -1.4746 -4.5398
2 10 21 -9.2944 -4.2126
2 10 22 -10.8072 8.7187
2 10 23 6.6662 -7.5902
2 10 24 -1.7375 2.1327
2 10 25 -1.6320 8.6368
2 10 26 1.6518 -1.3868
2 11 0 27.8749 -0.1616
2 11 1 0.1021 0.5505
2 11 2 8.5010 -6.2203
2 11 3 -6.6208 -7.7631
2 11 4 4.1824 -13.2384
2 11 5 12.8016 -14.1179
2 11 6 11.9029 11.4086
2 11 7 -13.9280 -0.4507
2 11 8 -2.2822 -4.7347
2 11 9 11.2224 -1.9864
2 11 10 16.8532 -21.5463
2 11 11 -11.2655 -5.9932
2 11 12 -1.9016 14.5146
2 11 13 7.5045 14.4550
2 11 14 -8.2176 5.3141
2 11 15 -4.0684 -2.5662
2 11 16 5.0620 -15.3974
2 11 17 2.7329 -16.7338
2 11 18 -1.0825 -5.5566
2 11 19 -6.3640 -0.3339
2 11 20 -1.2707 6.7224
2 11 21 -1.7695 7.2710
2 11 22 -3.5146 1.4993
2 11 23 -0.8994 -1.0585
2 11 24 -0.8603 -6.6638
2 11 25 -2.1724 1.7519
2 11 26 -0.5828 -2.6559
2 12 0 2.4978 0.3231
2 12 1 -4.1122 -10.0765
2 12 2 -14.3395 12.4274
2 12 3 -13.8606 -13.8889
2 12 4 -6.9508 -7.2356
2 12 5 9.8844 1.3082
2 12 6 3.1910 5.0346
2 12 7 9.4549 -1.5347
2 12 8 -14.9141 1.6585
2 12 9 -7.8098 -7.3162
2 12 10 7.4711 0.9178
2 12 11 -0.4556 -0.6436
2 12 12 16.7904 8.7282
2 12 13 17.9219 -0.9856
2 12 14 -5.9408 -1.9149
2 12 15 -14.4068 5.6989
2 12 16 -9.2037 2.0469
2 12 17 -5.9834 -2.8994
2 12 18 0.8314 2.5159
2 12 19 7.5311 3.8843
2 12 20 6.5147 2.1772
2 12 21 8.8439 -2.8740
2 12 22 0.1214 -2.6092
2 12 23 -4.4131 0.2968
2 12 24 -4.1567 3.5635
2 12 25 6.0083 -2.2599
2 13 0 -3.9397 0.0180
2 13 1 -1.8451 12.0755
2 13 2 -10.2733 14.4745
2 13 3 10.8808 1.1451
2 13 4 -9.9976 0.8047
2 13 5 -6.5372 -1.7600
2 13 6 1.7196 -6.5028
2 13 7 11.3473 12.9861
2 13 8 -5.5518 1.3456
2 13 9 -10.1782 8.2367
2 13 10 -4.8772 2.3833
2 13 11 9.4314 -14.5032
2 13 12 -1.1945 -2.2839
2 13 13 2.8029 -1.8345
2 13 14 -0.6224 5.6758
2 13 15 1.8969 16.3077
2 13 16 5.8130 7.9190
2 13 17 0.8252 -1.8239
2 13 18 0.1741 -4.0141
2 13 19 6.4619 -11.7642
2 13 20 3.1599 -7.2016
2 13 21 -3.9423 -0.6542
2 13 22 2.1965 6.6828
2 13 23 4.4514 1.4218
2 13 24 5.8838 1.2343
2 13 25 10.6687 -5.7422
2 14 0 11.4744 0.1281
2 14 1 -3.3275 -0.6653
2 14 2 12.1353 -6.3069
2 14 3 5.7540 15.7998
2 14 4 -12.2327 1.6162
2 14 5 -2.8724 -6.6298
2 14 6 -0.2228 -11.7150
2 14 7 -9.2559 4.0560
2 14 8 18.6019 1.7024
2 14 9 -6.9124 10.2501
2 14 10 -8.3094 -2.6505
2 14 11 -3.6734 -11.9310
2 14 12 -14.0602 -10.2190
2 14 13 0.8917 7.4730
2 14 14 10.5779 -7.7648
2 14 15 8.0319 -0.9514
2 14 16 5.1693 -6.1200
2 14 17 -13.0384 -4.8384
2 14 18 -11.1125 -1.9746
2 14 19 -6.8172 3.5613
2 14 20 0.3524 -5.1743
2 14 21 2.0629 2.4083
2 14 22 6.2124 2.1990
2 14 23 -0.6663 -11.0480
2 14 24 -7.3988 -4.3330
2 15 0 -6.2439 -0.1384
2 15 1 11.8187 -10.9753
2 15 2 8.1530 -3.3876
2 15 3 -7.6470 -3.4847
2 15 4 4.6145 10.0297
2 15 5 -9.6362 16.2426
2 15 6 -7.7102 -12.0172
2 15 7 8.6711 -13.9921
2 15 8 20.4510 7.2885
2 15 9 -10.4619 -13.8242
2 15 10 -9.4375 16.4873
2 15 11 -4.7518 13.4725
2 15 12 -0.1107 -9.5691
2 15 13 3.5462 -3.6526
2 15 14 0.5145 -12.1687
2 15 15 -14.3393 -4.3852
2 15 16 1.2175 7.2519
2 15 17 -0.0470 8.3530
2 15 18 -3.1136 9.3024
2 15 19 1.4984 -0.5805
2 15 20 0.9720 -5.9654
2 15 21 -8.6213 -3.4749
2 15 22 -2.8776 1.8951
2 15 23 -1.2797 1.9152
2 16 0 -18.6728 0.1408
2 16 1 -1.9746 -4.7211
2 16 2 3.6642 -5.1006
2 16 3 14.6327 10.6182
2 16 4 12.5361 13.7078
2 16 5 -2.1068 -8.7588
2 16 6 -6.8545 -4.1838
2 16 7 -10.9533 -2.1850
2 16 8 4.4310 3.4013
2 16 9 28.4156 0.9672
2 16 10 -7.4150 17.8169
2 16 11 6.4775 -5.2622
2 16 12 0.3243 -0.6781
2 16 13 -11.1441 5.3451
2 16 14 1.3009 8.5403
2 16 15 1.2460 0.2996
2 16 16 7.0862 9.6055
2 16 17 10.1312 -9.7285
2 16 18 -3.1056 4.9621
2 16 19 0.0260 3.0998
2 16 20 -5.6344 2.5802
2 16 21 2.7459 -1.3616
2 16 22 -1.9345 8.7827
2 17 0 -5.8704 0.1012
2 17 1 12.0254 4.1653
2 17 2 7.6371 -21.1934
2 17 3 -1.4447 -7.1417
2 17 4 -3.6896 6.9023
2 17 5 -3.7414 6.6528
2 17 6 -1.5459 9.4357
2 17 7 6.7934 -6.7077
2 17 8 -3.7897 -10.5982
2 17 9 0.8762 2.7034
2 17 10 0.7160 -9.9804
2 17 11 10.0448 15.4920
2 17 12 -7.1357 0.4599
2 17 13 1.0885 0.5931
2 17 14 8.6210 6.2205
2 17 15 0.1319 -5.6259
2 17 16 -4.2308 0.7950
2 17 17 4.2298 -5.1843
2 17 18 -1.5766 0.7030
2 17 19 5.1578 3.4979
2 17 20 2.3184 1.1818
2 17 21 -0.0131 -0.4450
2 18 0 -19.7004 0.1706
2 18 1 -9.4738 -9.2079
2 18 2 2.4429 0.0742
2 18 3 -7.1427 11.1867
2 18 4 4.7979 -1.7964
2 18 5 6.6598 -7.8704
2 18 6 -10.8027 2.7995
2 18 7 -0.2442 4.3156
2 18 8 -10.5784 -5.4115
2 18 9 -9.2781 1.4446
2 18 10 14.2017 -10.6689
2 18 11 -6.8132 1.0005
2 18 12 6.6005 -7.2951
2 18 13 -4.1550 7.6476
2 18 14 2.6455 -8.7559
2 18 15 -0.9111 -5.0405
2 18 16 -7.8052 -2.6183
2 18 17 -1.5367 5.6184
2 18 18 1.4916 -8.4339
2 18 19 2.0818 3.4056
2 18 20 -0.2014 -5.1978
2 19 0 -0.3891 0.0680
2 19 1 9.8471 7.4710
2 19 2 -4.6745 -2.8485
2 19 3 0.7895 -6.5826
2 19 4 5.9215 5.0862
2 19 5 -4.9848 -5.8806
2 19 6 -0.1819 1.0165
2 19 7 6.8859 15.1632
2 19 8 -2.6542 -2.6865
2 19 9 -11.0949 -2.1221
2 19 10 1.0878 0.5858
2 19 11 0.0799 -15.9795
2 19 12 5.9786 3.8259
2 19 13 -6.8635 -4.2038
2 19 14 -2.1332 5.9389
2 19 15 -4.4006 -1.4079
2 19 16 2.0539 -1.3631
2 19 17 5.5728 3.3904
2 19 18 0.6024 -3.1817
2 19 19 -7.1027 1.0448
2 20 0 10.2092 0.0611
2 20 1 -4.6383 0.5802
2 20 2 4.5979 -6.7095
2 20 3 -2.0575 3.2582
2 20 4 1.1353 -0.6389
2 20 5 7.3042 -1.2068
2 20 6 7.0701 4.6191
2 20 7 6.4392 1.6335
2 20 8 10.0807 4.7519
2 20 9 -9.8347 2.7700
2 20 10 -11.7329 4.6706
2 20 11 1.2254 -6.7026
2 20 12 1.8686 5.9216
2 20 13 8.2351 0.7649
2 20 14 -7.0749 10.6891
2 20 15 7.0870 -7.5298
2 20 16 -1.5086 0.7034
2 20 17 2.3568 -5.2410
2 21 0 -5.9862 0.2521
2 21 1 -7.0222 -1.9335
2 21 2 3.1504 8.3086
2 21 3 -3.2338 -2.5368
2 21 4 3.7131 -8.0845
2 21 5 5.8998 -2.1835
2 21 6 1.1693 -8.7710
2 21 7 -0.4498 -3.7668
2 21 8 1.8601 8.0752
2 21 9 6.9227 11.9360
2 21 10 -5.0307 3.5749
2 21 11 -3.7319 6.3109
2 21 12 -1.0934 -1.0342
2 21 13 6.1310 -5.0529
2 21 14 0.0371 -0.5990
2 21 15 -4.9289 7.4027
2 21 16 -8.2876 -7.0393
2 22 0 1.8340 -0.0189
2 22 1 5.6988 5.0298
2 22 2 -14.9685 -0.2928
2 22 3 1.0491 -16.3961
2 22 4 -12.4166 4.3314
2 22 5 -6.6109 1.4441
2 22 6 1.0761 -5.8844
2 22 7 1.2317 -5.0823
2 22 8 -1.7516 -0.8582
2 22 9 15.2994 5.4131
2 22 10 15.8285 0.0625
2 22 11 -11.8027 7.0318
2 22 12 -5.7230 -8.5095
2 22 13 -0.1556 0.1440
2 22 14 -3.0644 0.3580
2 23 0 -2.0746 -0.0142
2 23 1 -12.7496 -0.8259
2 23 2 2.5541 2.2895
2 23 3 4.8549 9.8150
2 23 4 -8.8332 -7.4315
2 23 5 2.9284 1.7263
2 23 6 -5.8851 4.5947
2 23 7 -0.8345 -8.8223
2 23 8 8.5299 -16.4774
2 23 9 4.5025 -9.4020
2 23 10 0.8110 -0.7046
2 23 11 -2.6943 -2.8873
2 23 12 3.4639 16.5980
2 24 0 5.7072 0.2073
2 24 1 -0.8437 4.1995
2 24 2 5.6328 -0.8999
2 24 3 -3.3694 -1.4190
2 24 4 9.8544 5.0610
2 24 5 -6.7321 8.2939
2 24 6 0.1904 -11.9002
2 24 7 -9.8165 1.9499
2 24 8 -4.7481 -1.5527
2 24 9 -11.0616 -5.1144
2 25 0 -3.7060 0.2061
2 25 1 -0.1003 5.8094
2 25 2 3.3477 1.9850
2 25 3 -0.2214 -2.0570
2 25 4 -1.1430 4.8263
2 25 5 1.1951 3.2330
3 0 1 0.3828 -82.2901
3 0 2 4.6693 -0.2420
3 0 3 -0.5326 -56.5855
3 0 4 69.2819 -0.4893
3 0 5 0.2706 55.5035
3 0 6 -39.8954 -0.2447
3 0 7 0.3700 12.2742
3 0 8 16.3741 1.5716
3 0 9 0.1090 -36.6808
3 0 10 89.4759 0.6584
3 0 11 -0.0293 -2.4410
3 0 12 -13.9154 -1.4463
3 0 13 -0.1495 -0.4678
3 0 14 -2.5001 -1.0140
3 0 15 -0.3521 -7.9926
3 0 16 28.1836 0.9650
3 0 17 0.0461 2.7969
3 0 18 -9.1996 0.8602
3 0 19 0.6405 1.9944
3 0 20 4.5414 -0.3028
3 0 21 -0.0221 20.3431
3 0 22 2.0206 -0.3293
3 0 23 -0.5672 -2.9181
3 0 24 -10.3977 -0.3164
3 0 25 -0.1383 6.1075
3 0 26 7.5620 -0.1035
3 0 27 0.4318 20.6600
3 0 28 -4.7891 0.2806
3 0 29 -0.0026 -14.1982
3 1 0 -0.0765 33.0197
3 1 1 -43.7741 -16.3497
3 1 2 -78.5123 -55.6431
3 1 3 45.0462 -40.0432
3 1 4 23.3015 19.1076
3 1 5 23.7866 23.2563
3 1 6 36.8511 27.0443
3 1 7 -31.4858 -31.7528
3 1 8 -6.8886 -59.0318
3 1 9 0.2138 -17.8366
3 1 10 -3.6058 8.1062
3 1 11 11.9088 -49.7151
3 1 12 0.2525 38.0441
3 1 13 -8.3461 8.8414
3 1 14 0.5696 -31.1666
3 1 15 2.0378 -11.5108
3 1 16 7.5775 16.8618
3 1 17 3.1169 -16.2727
3 1 18 -5.1709 2.2611
3 1 19 7.5640 -4.5976
3 1 20 2.6983 -3.1841
3 1 21 -3.9128 -2.4906
3 1 22 3.1408 7.9283
3 1 23 -11.2440 -3.5107
3 1 24 -6.8704 0.2988
3 1 25 12.2143 4.3204
3 1 26 -1.3578 -3.6958
3 1 27 -11.6380 -6.0664
3 1 28 -5.0992 6.2948
3 1 29 -6.7670 12.2631
3 2 0 -0.3775 101.0599
3 2 1 -40.6406 17.2532
3 2 2 -47.8766 -16.0889
3 2 3 21.6116 11.2855
3 2 4 39.1410 -70.5983
3 2 5 -5.7289 -5.1809
3 2 6 -39.9327 25.1411
3 2 7 -21.2424 4.8699
3 2 8 -37.0438 16.5499
3 2 9 -22.7420 -0.8765
3 2 10 9.6427 -7.9350
3 2 11 12.0521 14.6805
3 2 12 -35.2345 1.9385
3 2 13 20.6665 2.1769
3 2 14 0.3963 -6.5567
3 2 15 -17.4774 0.6481
3 2 16 0.4206 -1.4329
3 2 17 4.6374 -8.1201
3 2 18 -17.0057 -0.9471
3 2 19 9.4764 3.6517
3 2 20 5.7388 -14.0927
3 2 21 -1.7303 -1.4198
3 2 22 -1.0369 11.0503
3 2 23 10.6705 -9.2492
3 2 24 -4.1914 0.8940
3 2 25 1.8442 -6.7349
3 2 26 2.2357 -3.1505
3 2 27 3.1081 3.6516
3 2 28 5.5682 3.4531
3 2 29 10.3399 -21.6258
3 3 0 -0.2268 56.8059
3 3 1 47.4760 -22.9322
3 3 2 -38.8272 9.8796
3 3 3 -52.9535 9.8149
3 3 4 12.1767 -24.3953
3 3 5 -26.5490 5.0036
3 3 6 15.8528 61.3952
3 3 7 29.0172 35.1348
3 3 8 -19.0003 -12.2789
3 3 9 3.4873 5.4439
3 3 10 2.5069 15.2478
3 3 11 -5.8371 -0.4193
3 3 12 -5.1307 -19.3027
3 3 13 3.8421 14.1451
3 3 14 -2.0395 0.7950
3 3 15 -3.0868 16.8432
3 3 16 0.1627 4.9719
3 3 17 -0.1837 -1.2661
3 3 18 -9.4405 -4.3969
3 3 19 1.4986 9.8780
3 3 20 10.1116 -14.1004
3 3 21 -1.0836 2.0579
3 3 22 9.9989 4.5553
3 3 23 7.7467 0.5507
3 3 24 -2.7543 -13.6743
3 3 25 3.2210 7.6399
3 3 26 3.6332 -8.4656
3 3 27 -8.8748 -3.9686
3 3 28 4.1390 -6.5456
3 4 0 -0.2743 -29.8154
3 4 1 25.5524 38.3802
3 4 2 -20.0636 0.4491
3 4 3 3.0739 31.4857
3 4 4 18.4084 24.5326
3 4 5 26.6236 -43.9382
3 4 6 27.5352 4.1238
3 4 7 25.0878 -22.3013
3 4 8 6.0870 -13.6117
3 4 9 -10.5904 22.7530
3 4 10 -3.9335 5.7408
3 4 11 -0.5735 -13.9737
3 4 12 8.7850 1.8140
3 4 13 6.4327 -4.6700
3 4 14 12.8277 -6.6840
3 4 15 2.8260 4.9926
3 4 16 1.9560 14.0395
3 4 17 -2.5391 6.3191
3 4 18 -5.2783 -1.9009
3 4 19 -8.8440 -2.0499
3 4 20 0.3439 -3.8248
3 4 21 -1.6461 -1.6758
3 4 22 0.1122 0.6111
3 4 23 -7.4437 1.2546
3 4 24 -11.3355 3.0651
3 4 25 -11.1485 17.3691
3 4 26 9.3754 8.7166
3 4 27 -18.7636 -1.3777
3 4 28 -0.7529 -4.4461
3 5 0 -0.3822 -15.9836
3 5 1 0.6907 14.8068
3 5 2 53.3875 -25.9773
3 5 3 1.1881 2.3271
3 5 4 -3.1148 -12.2523
3 5 5 -11.2288 -32.3286
3 5 6 -39.4824 -46.8328
3 5 7 18.0367 17.0328
3 5 8 15.5014 30.0025
3 5 9 5.0020 -3.5092
3 5 10 10.7846 -11.2959
3 5 11 -14.5562 -2.5163
3 5 12 -14.9292 2.5710
3 5 13 3.3805 -12.5455
3 5 14 11.4142 -6.6449
3 5 15 7.8336 -2.1510
3 5 16 8.0759 8.4455
3 5 17 -5.4207 3.2250
3 5 18 -7.7400 11.0726
3 5 19 -7.5549 -0.7444
3 5 20 -6.3804 4.8908
3 5 21 -3.9943 -8.7297
3 5 22 -2.8667 4.4413
3 5 23 -1.4369 15.7936
3 5 24 10.3736 9.5143
3 5 25 4.6579 -3.4359
3 5 26 -7.3092 1.4898
3 5 27 -9.4764 -5.5337
3 5 28 -13.7429 13.1065
3 6 0 -0.4990 -31.4175
3 6 1 -9.9197 -31.9701
3 6 2 15.9646 8.0164
3 6 3 -40.4531 -16.2088
3 6 4 -34.1961 27.4356
3 6 5 -5.1503 27.7692
3 6 6 16.0466 -4.1945
3 6 7 -6.7258 0.0521
3 6 8 16.4766 -27.9574
3 6 9 -5.5948 6.7372
3 6 10 -17.3546 19.6610
3 6 11 7.0983 12.1916
3 6 12 -2.7511 -2.9988
3 6 13 -15.0067 -8.1233
3 6 14 -4.2200 -10.4929
3 6 15 3.9178 -3.4823
3 6 16 14.9387 -2.5864
3 6 17 13.6574 2.2489
3 6 18 2.7858 9.5286
3 6 19 -4.1158 0.9095
3 6 20 -7.6895 -4.1509
3 6 21 15.8713 3.7703
3 6 22 10.0010 -4.5481
3 6 23 5.9648 -15.0109
3 6 24 11.7106 -3.7819
3 6 25 -3.4754 -7.4628
3 6 26 -7.0830 9.0875
3 6 27 8.8776 9.7168
3 6 28 1.1917 -4.4370
3 7 0 -0.5967 -4.2981
3 7 1 -26.7212 30.7481
3 7 2 -9.3279 41.6875
3 7 3 32.8567 -17.4452
3 7 4 -4.2104 7.6324
3 7 5 11.4419 -1.6163
3 7 6 -2.3774 -0.6228
3 7 7 -22.8695 -12.1723
3 7 8 -0.2436 10.4738
3 7 9 6.7040 -18.7166
3 7 10 12.0066 7.1317
3 7 11 0.1043 6.7481
3 7 12 -6.6437 -5.1983
3 7 13 -6.8404 19.9579
3 7 14 -5.9537 -3.8654
3 7 15 -1.3302 -37.2056
3 7 16 2.6006 -12.7142
3 7 17 6.4811 9.8356
3 7 18 4.9701 3.3474
3 7 19 12.3860 1.2395
3 7 20 5.4525 -11.0721
3 7 21 -6.4153 1.8999
3 7 22 -0.2840 -19.2869
3 7 23 -4.1110 3.5014
3 7 24 -1.2651 5.9603
3 7 25 14.1873 -3.8976
3 7 26 3.7301 2.5007
3 7 27 4.1184 3.7862
3 7 28 7.3602 -6.6205
3 8 0 -0.3134 28.7070
3 8 1 26.4696 -9.7960
3 8 2 -2.4142 -5.1319
3 8 3 -16.9808 -5.4623
3 8 4 -4.5888 -22.5808
3 8 5 22.7619 8.6043
3 8 6 -8.0736 -2.5767
3 8 7 -7.8294 1.7153
3 8 8 -14.3486 9.2202
3 8 9 3.0925 -15.2246
3 8 10 -2.2605 -11.4862
3 8 11 34.7748 -0.7167
3 8 12 4.1373 9.5993
3 8 13 -31.2819 5.3434
3 8 14 -11.7746 3.9962
3 8 15 -4.0425 3.3607
3 8 16 -8.5021 -0.2614
3 8 17 19.3967 -9.2740
3 8 18 -3.3187 -16.0262
3 8 19 -11.3115 3.0356
3 8 20 -4.5024 6.6155
3 8 21 -4.9657 8.0943
3 8 22 2.1889 9.1925
3 8 23 -12.7784 -2.2847
3 8 24 2.7149 0.3018
3 8 25 2.4851 2.3321
3 8 26 -3.9078 -8.6610
3 8 27 -0.4076 0.2339
3 9 0 -0.3720 -9.9890
3 9 1 12.9302 29.4046
3 9 2 -16.4364 -10.6209
3 9 3 -12.5234 9.9646
3 9 4 -0.2433 -7.2763
3 9 5 -2.7825 -20.0756
3 9 6 16.1067 15.6759
3 9 7 1.4782 52.3408
3 9 8 -2.6346 -16.6838
3 9 9 -4.2325 -25.4913
3 9 10 -12.7257 -10.0797
3 9 11 6.8290 23.9306
3 9 12 13.0684 3.5164
3 9 13 8.6470 18.3275
3 9 14 1.7240 18.7263
3 9 15 -4.9076 -12.3152
3 9 16 -16.1176 -5.9737
3 9 17 -11.8048 9.1870
3 9 18 -4.1194 0.5084
3 9 19 -2.7628 9.9165
3 9 20 11.8782 -0.6047
3 9 21 2.6622 -7.8913
3 9 22 -2.5887 16.3820
3 9 23 -2.9995 0.2887
3 9 24 -6.1231 -3.6814
3 9 25 -4.9689 -11.0089
3 9 26 -1.5641 5.1817
3 9 27 -1.7013 0.3207
3 10 0 -0.2792 0.1664
3 10 1 15.3224 27.4714
3 10 2 8.3588 3.7263
3 10 3 -38.2399 6.7523
3 10 4 12.4667 5.8035
3 10 5 35.3031 -5.0241
3 10 6 -1.1017 -1.8426
3 10 7 -0.9905 -5.3151
3 10 8 0.1680 14.7304
3 10 9 -27.1191 11.6083
3 10 10 11.2671 -2.3550
3 10 11 19.4671 -8.4498
3 10 12 15.2596 -14.2580
3 10 13 -10.8912 -0.4011
3 10 14 1.2616 11.7398
3 10 15 1.4530 6.0040
3 10 16 -3.1588 8.2859
3 10 17 3.8362 11.0080
3 10 18 7.3861 -3.3648
3 10 19 -10.0011 -14.9890
3 10 20 12.1416 -5.3630
3 10 21 3.7026 -6.2951
3 10 22 -1.8857 2.7818
3 10 23 6.8983 1.0347
3 10 24 -2.8603 2.7761
3 10 25 -8.2472 -2.6546
3 10 26 6.5830 -2.6492
3 11 0 -0.3230 0.1204
3 11 1 11.0340 23.1722
3 11 2 16.0415 -4.4793
3 11 3 -11.3882 -24.1348
3 11 4 -1.5010 15.0314
3 11 5 -2.7966 -16.4199
3 11 6 -8.5573 -15.1705
3 11 7 5.2059 12.9316
3 11 8 2.9020 7.9001
3 11 9 2.0723 -12.2969
3 11 10 -5.0929 -4.1678
3 11 11 -13.5221 -22.3795
3 11 12 -0.7197 3.1258
3 11 13 -1.2835 0.9687
3 11 14 12.5507 -0.7625
3 11 15 13.5059 -9.9858
3 11 16 7.0225 -2.2182
3 11 17 -2.2220 5.8880
3 11 18 -1.7300 -9.4006
3 11 19 -11.2057 -7.2531
3 11 20 -8.0262 4.2849
3 11 21 4.1407 -3.0912
3 11 22 8.0204 -3.6713
3 11 23 6.7780 10.9030
3 11 24 -4.3824 -5.7355
3 11 25 1.0643 -2.6462
3 11 26 -1.5328 4.8447
3 12 0 -0.2608 -22.0588
3 12 1 -7.6651 -3.8605
3 12 2 2.8528 -3.3856
3 12 3 -4.9671 0.3557
3 12 4 -14.6584 9.5348
3 12 5 0.6117 -6.4062
3 12 6 -3.5530 1.5300
3 12 7 -1.7081 7.2209
3 12 8 6.6786 -19.7118
3 12 9 -5.7607 -0.4186
3 12 10 -10.7689 6.4811
3 12 11 0.0021 9.6766
3 12 12 -5.9448 1.6728
3 12 13 7.0707 -11.5765
3 12 14 -4.2223 -13.7399
3 12 15 2.5929 -6.6174
3 12 16 -7.2084 -2.9022
3 12 17 -2.4672 9.2750
3 12 18 1.9126 14.3013
3 12 19 -2.3861 10.6215
3 12 20 -4.1302 0.3335
3 12 21 9.1894 -7.4227
3 12 22 -2.9805 -4.8267
3 12 23 -10.3068 1.6493
3 12 24 4.1806 4.6975
3 12 25 -1.1812 2.6478
3 13 0 -0.3647 -5.9033
3 13 1 -9.4045 -5.9459
3 13 2 5.9488 12.4927
3 13 3 7.0692 4.7555
3 13 4 6.7545 -4.5544
3 13 5 14.1401 16.4224
3 13 6 -12.2804 1.1694
3 13 7 -2.5991 -7.7046
3 13 8 3.3555 -3.4118
3 13 9 -6.1840 15.4177
3 13 10 17.4871 10.1485
3 13 11 11.8450 3.5984
3 13 12 -11.4469 -7.1064
3 13 13 -9.2309 6.5566
3 13 14 -16.5488 5.8095
3 13 15 -0.5357 9.7203
3 13 16 11.9021 -5.9997
3 13 17 15.2499 6.5170
3 13 18 3.9305 4.2552
3 13 19 -1.0694 -9.6878
3 13 20 -5.3774 0.2047
3 13 21 -7.2662 6.2456
3 13 22 -5.0775 0.8268
3 13 23 1.4885 -4.4478
3 13 24 2.2101 9.4750
3 13 25 0.6301 -10.7081
3 14 0 -0.2329 17.9995
3 14 1 3.0944 -9.4389
3 14 2 3.2947 -7.8274
3 14 3 20.0117 -12.5549
3 14 4 -0.6861 1.9776
3 14 5 -5.6594 7.7883
3 14 6 2.2260 -2.4463
3 14 7 3.8341 13.6427
3 14 8 1.2616 1.7556
3 14 9 7.3990 -16.8837
3 14 10 3.0003 3.0381
3 14 11 -3.2005 -7.2557
3 14 12 4.5599 19.1727
3 14 13 3.1228 18.1258
3 14 14 2.0192 -5.0177
3 14 15 -1.4220 -10.1861
3 14 16 2.7653 -5.9341
3 14 17 -11.4695 -10.8298
3 14 18 5.7874 -1.2466
3 14 19 -1.1663 6.1078
3 14 20 -3.1972 7.8105
3 14 21 -0.4023 0.9726
3 14 22 8.8138 2.3593
3 14 23 -2.1112 -4.3237
3 14 24 -6.3383 -4.5322
3 15 0 -0.4225 -9.3591
3 15 1 -5.0324 -17.5061
3 15 2 -19.0379 -2.4769
3 15 3 -1.3558 6.6469
3 15 4 0.3756 1.7993
3 15 5 2.7937 -2.8482
3 15 6 10.5824 -11.0535
3 15 7 -14.3634 -0.5177
3 15 8 -0.7111 10.8875
3 15 9 -6.6861 -7.7755
3 15 10 -4.9963 -11.8927
3 15 11 12.6691 -4.8421
3 15 12 1.7609 4.8049
3 15 13 3.9973 -6.2165
3 15 14 4.0861 0.1390
3 15 15 -18.6690 4.5166
3 15 16 -4.3661 1.2487
3 15 17 0.2891 -5.9931
3 15 18 4.8280 4.1975
3 15 19 4.9895 -0.3332
3 15 20 8.1024 3.1698
3 15 21 0.9374 -0.9442
3 15 22 -4.5709 -2.9054
3 15 23 0.2607 2.1233
3 16 0 -0.0079 10.3343
3 16 1 -13.7667 11.3978
3 16 2 11.2346 5.7305
3 16 3 1.9707 3.1279
3 16 4 -15.2377 -15.1860
3 16 5 -9.6334 0.2656
3 16 6 16.4368 5.5474
3 16 7 -4.9162 -8.0774
3 16 8 2.2645 7.0101
3 16 9 -6.3377 -1.3763
3 16 10 -14.0984 -5.7615
3 16 11 -1.5371 2.5436
3 16 12 11.7249 -19.6748
3 16 13 7.8473 4.8983
3 16 14 -4.6619 2.6621
3 16 15 -4.2493 5.7050
3 16 16 2.0883 5.9059
3 16 17 5.3479 -5.6435
3 16 18 0.5992 -7.1181
3 16 19 5.9555 -3.1381
3 16 20 -4.1094 -0.4849
3 16 21 1.7026 1.4344
3 16 22 -3.8433 6.2575
3 17 0 -0.1868 -10.9125
3 17 1 12.6286 -4.2777
3 17 2 3.9493 15.3484
3 17 3 -3.7144 -5.0092
3 17 4 -1.9694 -0.5735
3 17 5 -6.4746 8.2576
3 17 6 3.9834 -12.3397
3 17 7 11.4829 -13.0361
3 17 8 -8.2812 25.5937
3 17 9 10.0517 10.9629
3 17 10 -8.0347 -7.5622
3 17 11 -6.8147 -6.3473
3 17 12 2.7950 -8.3150
3 17 13 -4.9343 7.2147
3 17 14 8.9719 7.1185
3 17 15 7.0074 1.2049
3 17 16 -3.4398 -7.0278
3 17 17 -3.4861 -6.6563
3 17 18 -9.7654 -0.5142
3 17 19 5.9849 3.3363
3 17 20 3.6016 0.0794
3 17 21 1.0572 0.7118
3 18 0 0.1570 -17.2222
3 18 1 3.3292 -4.0459
3 18 2 2.2385 -0.0876
3 18 3 11.7370 10.1747
3 18 4 -16.1524 8.3617
3 18 5 -1.9181 -7.1380
3 18 6 8.7671 -2.0674
3 18 7 9.9028 -1.0045
3 18 8 -3.1938 -0.1916
3 18 9 13.2480 12.8292
3 18 10 -14.0314 1.3446
3 18 11 -4.7486 6.0156
3 18 12 6.9202 6.1030
3 18 13 4.9891 -11.8217
3 18 14 1.3148 4.7658
3 18 15 -6.7947 -4.1405
3 18 16 -8.1660 8.5981
3 18 17 -3.5492 -0.8537
3 18 18 4.4392 -2.4782
3 18 19 3.3654 1.0484
3 18 20 0.0571 -4.0201
3 19 0 -0.3056 -5.6459
3 19 1 -6.6518 -0.9799
3 19 2 11.2339 5.7830
3 19 3 3.9862 9.1761
3 19 4 -1.7140 -10.4590
3 19 5 -5.0970 -4.3918
3 19 6 -9.3733 -1.0247
3 19 7 2.2072 -1.0564
3 19 8 12.9718 -4.3718
3 19 9 -0.5563 2.9965
3 19 10 7.9835 -3.0014
3 19 11 -8.6885 8.1267
3 19 12 0.3967 -4.4508
3 19 13 -0.1728 -8.8628
3 19 14 -2.1879 8.1712
3 19 15 -0.2704 10.9371
3 19 16 -3.9069 2.9530
3 19 17 5.2646 -6.4260
3 19 18 -3.1251 -2.0576
3 19 19 -3.9208 1.3265
3 20 0 0.2106 0.0461
3 20 1 2.4668 -6.2012
3 20 2 -0.5587 0.2337
3 20 3 -15.5809 -6.2040
3 20 4 5.4222 9.8915
3 20 5 -8.8871 7.4879
3 20 6 -0.9842 -9.2155
3 20 7 -4.7889 -5.9083
3 20 8 2.1915 -10.4263
3 20 9 -3.6404 -5.8547
3 20 10 8.3867 3.5451
3 20 11 -7.2783 -3.4103
3 20 12 3.8135 -0.5399
3 20 13 -0.3167 3.7523
3 20 14 3.2107 0.0713
3 20 15 5.6529 -0.8092
3 20 16 2.2758 -3.8960
3 20 17 -5.8073 5.2715
3 21 0 -0.2931 6.2648
3 21 1 -3.6046 9.9434
3 21 2 0.3824 -5.4644
3 21 3 8.3634 0.8751
3 21 4 -5.0873 14.9790
3 21 5 2.3288 -6.5370
3 21 6 -4.5639 4.8624
3 21 7 -10.5957 -3.4403
3 21 8 -5.9512 -2.5216
3 21 9 -2.1415 -1.5590
3 21 10 0.6332 -1.9313
3 21 11 9.9320 -5.6866
3 21 12 0.1385 6.5489
3 21 13 2.7741 -2.5130
3 21 14 -0.5162 -6.0407
3 21 15 2.1173 -2.2648
3 21 16 -2.5267 3.9050
3 22 0 0.2580 -2.1807
3 22 1 5.2976 -3.6989
3 22 2 2.9731 3.6252
3 22 3 4.5362 3.0681
3 22 4 3.8151 -4.7586
3 22 5 7.4046 7.2488
3 22 6 -15.3800 7.2780
3 22 7 8.7311 10.5898
3 22 8 -9.1971 6.7032
3 22 9 0.8811 -2.2762
3 22 10 1.5798 -3.6447
3 22 11 2.1175 -8.1545
3 22 12 -2.6059 1.4624
3 22 13 6.5658 0.9235
3 22 14 -1.9599 1.5705
3 23 0 -0.2594 -1.7093
3 23 1 4.3694 -4.6758
3 23 2 0.9610 -1.9714
3 23 3 1.5907 -2.5141
3 23 4 4.8875 -2.3071
3 23 5 1.0460 5.9411
3 23 6 9.9649 4.9778
3 23 7 5.7167 6.1647
3 23 8 3.9143 -12.8734
3 23 9 -13.6052 12.4182
3 23 10 -4.7962 -0.3338
3 23 11 -4.0921 -9.1191
3 23 12 -3.5825 -5.2245
3 24 0 0.3997 -6.7053
3 24 1 -5.9766 3.1307
3 24 2 -5.4895 -5.7585
3 24 3 4.6615 0.3546
3 24 4 4.7526 0.6130
3 24 5 -6.6057 -8.0659
3 24 6 1.9150 -6.6786
3 24 7 1.1011 1.5477
3 24 8 6.1283 3.8022
3 24 9 -14.1066 2.5479
3 25 0 -0.1236 7.6809
3 25 1 -4.0794 -7.1782
3 25 2 7.1084 -3.0408
3 25 3 -7.1010 7.5728
3 25 4 -3.3166 -0.0022
4 0 0 47.4816 0.2377
4 0 1 0.6885 85.9320
4 0 2 18.1844 -0.0225
4 0 3 -0.1721 -62.6790
4 0 4 -86.9507 -0.2245
4 0 5 -1.6234 36.0296
4 0 6 17.5216 -0.0409
4 0 7 -0.7070 34.4115
4 0 8 14.6682 0.0275
4 0 9 1.0964 6.9783
4 0 10 -3.9313 -0.0498
4 0 11 1.2031 12.2602
4 0 12 -19.2281 0.0772
4 0 13 -0.6978 -45.7565
4 0 14 18.6337 -0.1749
4 0 15 -0.9893 18.0319
4 0 16 -19.8928 0.1809
4 0 17 0.0911 12.5640
4 0 18 6.8862 0.0470
4 0 19 0.4553 -22.6156
4 0 20 -11.6223 -0.1427
4 0 21 0.2684 0.7922
4 0 22 5.9759 -0.0252
4 0 23 0.3130 -1.5373
4 0 24 -2.8367 0.2030
4 0 25 -0.2763 -1.3740
4 0 26 6.8918 -0.0254
4 0 27 -0.6979 -0.0474
4 0 28 -10.2266 -0.2184
4 1 0 50.7699 -0.0826
4 1 1 -65.9491 -26.5904
4 1 2 32.5048 34.4823
4 1 3 -12.0382 70.0541
4 1 4 -23.1489 6.2694
4 1 5 38.2004 36.4765
4 1 6 27.2566 -36.3144
4 1 7 -28.7003 -13.9579
4 1 8 35.7041 5.4211
4 1 9 9.6008 0.4805
4 1 10 2.2899 10.6641
4 1 11 -26.0277 14.7629
4 1 12 -30.4941 -17.8271
4 1 13 -6.7057 -4.6199
4 1 14 10.0586 4.6764
4 1 15 24.8026 2.2530
4 1 16 5.2258 3.2663
4 1 17 -18.7534 -1.6569
4 1 18 -8.2376 -4.9803
4 1 19 -6.7308 3.6540
4 1 20 -4.6056 -2.7284
4 1 21 9.6560 -3.3278
4 1 22 -4.4278 -3.9502
4 1 23 -7.2079 -3.1359
4 1 24 -3.4636 -3.1439
4 1 25 3.0475 0.5970
4 1 26 -5.5976 6.2370
4 1 27 -4.8875 -4.7644
4 1 28 -2.9971 -1.6333
4 2 0 -28.1338 0.2140
4 2 1 47.1599 -10.7139
4 2 2 5.4779 38.6549
4 2 3 50.5109 -39.7448
4 2 4 31.8106 15.5430
4 2 5 -58.6916 7.2409
4 2 6 -19.9071 -37.6878
4 2 7 -8.1370 -25.5248
4 2 8 17.1488 14.0851
4 2 9 13.1950 -17.3876
4 2 10 -13.5047 46.8477
4 2 11 -3.4458 24.8701
4 2 12 7.2818 -5.4326
4 2 13 -15.4166 -10.8289
4 2 14 6.6781 -16.3892
4 2 15 10.4853 -9.9375
4 2 16 2.0841 13.0383
4 2 17 -4.4433 16.2879
4 2 18 -7.2148 4.0475
4 2 19 -3.2541 -7.5295
4 2 20 9.7981 -0.5999
4 2 21 -10.5015 2.1476
4 2 22 -6.9650 -0.9322
4 2 23 3.4952 8.5916
4 2 24 9.4190 1.8945
4 2 25 2.7531 -2.0417
4 2 26 1.0550 -4.6891
4 2 27 -2.8800 8.4702
4 2 28 -2.6070 -3.9390
4 3 0 -11.9698 -0.2227
4 3 1 2.6384 -29.8649
4 3 2 -1.2754 -74.4923
4 3 3 30.7669 3.2183
4 3 4 -28.6796 28.5523
4 3 5 -12.6129 4.5414
4 3 6 -31.8176 37.7682
4 3 7 -5.5020 -29.9065
4 3 8 30.4965 -6.2755
4 3 9 35.7980 -0.4791
4 3 10 -10.3889 8.1761
4 3 11 26.2433 12.0509
4 3 12 -15.6922 6.3938
4 3 13 -24.5918 -9.8365
4 3 14 4.8935 -1.3285
4 3 15 16.4875 -8.3074
4 3 16 1.2427 12.6766
4 3 17 14.6212 13.7262
4 3 18 3.0933 -5.0279
4 3 19 0.2286 3.0243
4 3 20 -1.7020 9.7076
4 3 21 13.6110 -1.0079
4 3 22 6.0665 6.8895
4 3 23 9.0151 -4.6329
4 3 24 1.6592 -9.8086
4 3 25 0.1289 3.3854
4 3 26 0.4492 8.3064
4 3 27 2.8396 1.0140
4 3 28 9.9085 -1.6982
4 4 0 -61.6075 -0.1733
4 4 1 -12.3570 -1.0039
4 4 2 15.8642 -22.6652
4 4 3 -32.8300 16.4992
4 4 4 50.3033 17.6227
4 4 5 40.2508 25.8550
4 4 6 -19.6587 -18.7232
4 4 7 -10.8399 -7.3097
4 4 8 -14.2003 -28.7883
4 4 9 25.7949 -20.5414
4 4 10 17.2993 -1.7819
4 4 11 -8.5529 22.0983
4 4 12 -11.7473 -6.9450
4 4 13 3.7570 9.7705
4 4 14 -0.4373 3.5422
4 4 15 4.4032 -16.4645
4 4 16 -3.2615 -15.7399
4 4 17 16.5780 2.0534
4 4 18 3.3022 -0.7435
4 4 19 -10.1748 1.2412
4 4 20 6.8526 -0.8709
4 4 21 12.6884 -6.8599
4 4 22 -11.5288 -7.3273
4 4 23 -7.6810 6.3810
4 4 24 -6.2874 0.6491
4 4 25 -0.1784 7.1894
4 4 26 7.9506 2.2627
4 4 27 -3.4813 -5.0482
4 4 28 -11.0638 4.3879
4 5 0 -6.1489 -0.3140
4 5 1 0.8772 44.8551
4 5 2 7.0677 -10.8411
4 5 3 -8.8557 -44.7167
4 5 4 17.1496 3.9884
4 5 5 3.8765 -12.6161
4 5 6 -8.8075 -0.0452
4 5 7 -41.3067 26.9419
4 5 8 -6.2410 -26.0091
4 5 9 -12.1799 -9.9151
4 5 10 10.4151 -4.2838
4 5 11 6.5274 7.0144
4 5 12 16.2670 -2.4082
4 5 13 -8.9342 -1.1829
4 5 14 -16.1441 -6.1200
4 5 15 -23.3672 -3.6054
4 5 16 -0.7329 -9.1451
4 5 17 -4.9496 2.9449
4 5 18 3.5697 -8.7717
4 5 19 -8.5566 -10.2232
4 5 20 -6.5375 -1.6377
4 5 21 -8.6341 2.9339
4 5 22 -5.2525 5.5018
4 5 23 -4.2152 9.8034
4 5 24 11.7784 -4.9761
4 5 25 -14.4481 -6.2071
4 5 26 0.2746 -1.4578
4 5 27 -2.8979 -8.4580
4 5 28 1.5644 -0.8949
4 6 0 17.5228 -0.0975
4 6 1 -42.3283 6.7178
4 6 2 -0.8122 19.3745
4 6 3 -4.1697 -7.1438
4 6 4 -41.8777 -13.2246
4 6 5 20.5172 8.7779
4 6 6 -2.1627 34.6498
4 6 7 -3.9907 20.3736
4 6 8 1.7468 23.2056
4 6 9 -18.8946 -18.1705
4 6 10 3.1298 -17.0112
4 6 11 9.7884 -17.7190
4 6 12 -3.6346 20.9722
4 6 13 -12.9855 21.4355
4 6 14 6.1257 10.4430
4 6 15 5.3047 5.8424
4 6 16 -3.8684 -0.9553
4 6 17 -22.1371 -12.2852
4 6 18 -4.5456 9.6942
4 6 19 2.9197 1.7342
4 6 20 6.7112 -3.4919
4 6 21 7.4494 4.3046
4 6 22 7.2876 -7.2107
4 6 23 -1.7175 -0.2358
4 6 24 -0.1720 -2.6450
4 6 25 -4.6729 -10.2271
4 6 26 -6.4062 2.7269
4 6 27 5.8363 -7.5923
4 6 28 9.0837 -3.1236
4 7 0 46.9106 -0.3786
4 7 1 4.3430 0.7259
4 7 2 -17.2383 37.7819
4 7 3 8.1173 -5.5096
4 7 4 -2.8779 1.2680
4 7 5 11.1443 23.2557
4 7 6 54.2260 -18.6388
4 7 7 19.7715 6.1247
4 7 8 -46.3782 15.9892
4 7 9 -12.1564 -7.4945
4 7 10 -3.1582 11.8530
4 7 11 21.6009 7.6444
4 7 12 9.6654 -0.9238
4 7 13 22.7893 -6.3686
4 7 14 -2.9310 0.9076
4 7 15 -5.1324 8.4545
4 7 16 2.8317 19.8983
4 7 17 10.4399 8.0354
4 7 18 -7.1272 0.0320
4 7 19 15.9393 -12.7439
4 7 20 -9.4673 -8.5085
4 7 21 4.6933 1.5679
4 7 22 17.1973 2.7122
4 7 23 -2.7556 1.7333
4 7 24 -8.3140 8.5605
4 7 25 6.4345 2.8537
4 7 26 -0.5775 -2.6038
4 7 27 11.0840 -0.4598
4 8 0 36.3934 -0.3041
4 8 1 11.2523 -21.7271
4 8 2 -6.8235 26.4157
4 8 3 21.7766 3.4093
4 8 4 13.8930 -55.6630
4 8 5 -5.4809 -27.2772
4 8 6 1.8160 17.7328
4 8 7 -23.4065 -6.3985
4 8 8 23.9252 17.4426
4 8 9 19.3042 17.3344
4 8 10 -14.8409 -38.1926
4 8 11 -5.4198 -13.6615
4 8 12 1.2186 -1.1975
4 8 13 -2.3564 2.8467
4 8 14 3.4068 -7.7954
4 8 15 15.1111 0.7891
4 8 16 10.8561 0.7994
4 8 17 2.0941 -0.2701
4 8 18 -16.3725 6.8655
4 8 19 -9.3981 9.2330
4 8 20 0.3386 -17.3011
4 8 21 5.8978 6.1682
4 8 22 1.8351 6.1003
4 8 23 -4.7977 -4.2267
4 8 24 1.1738 19.3231
4 8 25 0.3598 5.8079
4 8 26 -6.0180 -13.3717
4 8 27 -9.7865 -3.0079
4 9 0 15.8589 -0.5998
4 9 1 7.7160 -16.6311
4 9 2 -38.7016 -15.5528
4 9 3 -7.9523 -5.4144
4 9 4 -3.2871 -9.3931
4 9 5 -17.2094 15.0712
4 9 6 11.4702 8.3401
4 9 7 23.5301 -21.3585
4 9 8 -22.0547 -4.1969
4 9 9 -2.7077 -11.2042
4 9 10 3.4125 1.1495
4 9 11 -21.1410 16.1668
4 9 12 11.9518 -5.2589
4 9 13 -6.5344 -10.6673
4 9 14 -9.1910 -7.1714
4 9 15 1.4906 -10.3467
4 9 16 14.3243 -4.6630
4 9 17 -2.1242 11.1238
4 9 18 -7.5373 6.2043
4 9 19 -8.1180 3.2272
4 9 20 1.2027 0.4655
4 9 21 -17.2964 -0.2432
4 9 22 12.8567 -5.7292
4 9 23 3.3960 0.3881
4 9 24 -10.0843 6.4921
4 9 25 -6.4638 -4.4005
4 9 26 -1.9669 0.6037
4 9 27 -15.8313 -0.3802
4 10 0 -37.0972 -0.2076
4 10 1 -7.8510 20.2830
4 10 2 -5.3444 9.6696
4 10 3 1.1689 9.4203
4 10 4 5.3867 -6.1187
4 10 5 7.8462 6.2133
4 10 6 3.1686 9.6660
4 10 7 -8.9224 1.6085
4 10 8 -24.2212 -6.5827
4 10 9 18.8390 16.7983
4 10 10 10.9986 -5.2672
4 10 11 2.4566 9.6546
4 10 12 -1.3883 21.7401
4 10 13 -12.1191 -12.7856
4 10 14 -8.1979 -4.9657
4 10 15 2.4986 -2.8586
4 10 16 -0.2500 -3.6339
4 10 17 3.0438 4.9762
4 10 18 15.9579 6.2696
4 10 19 6.2797 2.0684
4 10 20 -5.4656 -5.1148
4 10 21 -4.8799 -8.6119
4 10 22 1.8803 0.5818
4 10 23 1.2760 -4.4735
4 10 24 3.7761 -4.5230
4 10 25 3.2183 5.9916
4 10 26 -8.4222 3.5831
4 11 0 20.9367 -0.5094
4 11 1 -10.8954 21.7644
4 11 2 10.2658 -9.0302
4 11 3 -2.6247 -12.0146
4 11 4 1.8061 -3.9882
4 11 5 14.7454 0.8477
4 11 6 4.4861 14.8145
4 11 7 -19.3315 9.3913
4 11 8 -3.3655 -1.9283
4 11 9 11.5582 -0.6907
4 11 10 18.6627 -19.1621
4 11 11 -8.1641 6.9287
4 11 12 -4.1945 15.1858
4 11 13 -0.0774 4.2974
4 11 14 -14.5400 6.9969
4 11 15 6.7487 3.0065
4 11 16 7.0245 -15.2713
4 11 17 6.2214 -13.2665
4 11 18 1.7468 -2.6775
4 11 19 -4.8503 -2.9036
4 11 20 -1.5687 3.9481
4 11 21 7.9180 7.0408
4 11 22 -1.2676 0.9271
4 11 23 -0.5935 -5.7048
4 11 24 10.2540 1.8867
4 11 25 9.7620 -0.5564
4 11 26 2.7524 -3.0197
4 12 0 15.4748 -0.0735
4 12 1 -27.1172 -6.8564
4 12 2 -0.5981 9.6273
4 12 3 -7.9519 -24.4502
4 12 4 3.1254 -5.5944
4 12 5 3.7197 6.2410
4 12 6 2.8025 0.7498
4 12 7 7.2748 -3.8090
4 12 8 -6.4172 -0.4750
4 12 9 -21.6389 -18.1334
4 12 10 2.7749 -4.4414
4 12 11 0.9259 2.0513
4 12 12 20.0425 10.8438
4 12 13 3.8492 -3.3388
4 12 14 -13.9778 -7.1328
4 12 15 -7.3701 0.3244
4 12 16 -2.6275 -7.6509
4 12 17 -17.3749 5.0145
4 12 18 -3.9020 4.2811
4 12 19 10.1304 1.5271
4 12 20 7.0012 4.0506
4 12 21 0.7181 4.5724
4 12 22 1.5655 -3.1726
4 12 23 -6.3467 -1.9477
4 12 24 -5.3323 6.6587
4 12 25 1.1732 -8.7151
4 13 0 -5.7909 -0.4057
4 13 1 -5.4982 6.4680
4 13 2 -7.6055 19.5246
4 13 3 8.4864 -12.4207
4 13 4 -9.6142 -2.0243
4 13 5 0.1205 -6.0913
4 13 6 3.4768 -8.9523
4 13 7 5.4779 8.9583
4 13 8 -5.7256 4.7023
4 13 9 -3.7376 3.9200
4 13 10 -3.2927 -2.7328
4 13 11 12.7626 -17.6682
4 13 12 0.2045 4.2023
4 13 13 0.8967 -2.9666
4 13 14 -4.3019 6.5680
4 13 15 3.1604 16.3172
4 13 16 3.8899 6.3014
4 13 17 -3.1956 -0.0547
4 13 18 5.1322 5.0995
4 13 19 5.4707 -10.2102
4 13 20 -0.4974 -12.5830
4 13 21 -7.7352 3.5363
4 13 22 -1.1038 8.8838
4 13 23 -6.5092 3.0097
4 13 24 -0.0812 5.1386
4 14 0 20.7898 -0.1319
4 14 1 9.1351 3.1992
4 14 2 -2.2407 -4.4317
4 14 3 2.4449 14.7465
4 14 4 -18.2484 5.0898
4 14 5 8.1839 -5.7855
4 14 6 5.4841 -9.1887
4 14 7 -2.8045 8.2616
4 14 8 8.1169 1.2203
4 14 9 2.7626 12.0042
4 14 10 -0.9457 3.6565
4 14 11 -1.6940 -5.2639
4 14 12 -10.0502 -8.1029
4 14 13 16.4597 5.9112
4 14 14 5.0886 0.2131
4 14 15 10.1808 3.2790
4 14 16 9.2074 -2.0175
4 14 17 -3.7704 -8.7905
4 14 18 -10.7425 -2.6202
4 14 19 -2.3195 -2.7614
4 14 20 -7.7367 1.6833
4 14 21 5.2852 2.3260
4 14 22 15.5827 4.1439
4 14 23 5.7400 -12.6591
4 14 24 -9.7973 -5.7223
4 15 0 -3.9979 -0.4225
4 15 1 13.1006 -13.3793
4 15 2 9.5282 8.2430
4 15 3 -8.7841 11.9117
4 15 4 1.5622 -6.5515
4 15 5 -8.1883 9.5862
4 15 6 -14.7192 -3.6727
4 15 7 5.9308 -4.5627
4 15 8 24.2549 1.5333
4 15 9 -11.7773 -6.5222
4 15 10 -6.8362 7.1359
4 15 11 -12.2280 5.5628
4 15 12 -4.0991 -2.7771
4 15 13 1.6014 0.1768
4 15 14 8.0687 -20.1840
4 15 15 -14.5254 -3.0946
4 15 16 -2.3157 1.3562
4 15 17 -6.3900 7.0618
4 15 18 -1.1351 10.3217
4 15 19 1.5175 -0.5495
4 15 20 7.3360 -10.0725
4 15 21 -1.4074 -5.4155
4 15 22 -4.5991 -4.1254
4 15 23 0.9993 -5.0605
4 16 0 -10.2845 -0.1355
4 16 1 7.5935 -7.5011
4 16 2 -1.6022 -4.2723
4 16 3 9.2372 11.5038
4 16 4 6.4536 16.2098
4 16 5 -13.6705 -5.0809
4 16 6 6.3742 -10.6202
4 16 7 -6.3709 -3.1698
4 16 8 -8.4313 -3.5247
4 16 9 2.5726 -1.8936
4 16 10 3.0363 20.3572
4 16 11 6.7326 -5.9141
4 16 12 -6.5996 -6.3427
4 16 13 -19.2141 1.8218
4 16 14 0.0203 -0.6842
4 16 15 -5.5061 2.0022
4 16 16 11.2957 9.7846
4 16 17 0.4330 -2.7288
4 16 18 0.2122 -4.1825
4 16 19 -4.6030 0.0924
4 16 20 -7.0474 1.3517
4 16 21 -5.6145 0.6736
4 16 22 0.3876 3.6094
4 17 0 -5.9046 -0.2804
4 17 1 14.4529 1.2032
4 17 2 10.2525 -12.0611
4 17 3 3.6710 -0.3818
4 17 4 -2.6989 -4.6815
4 17 5 -4.6393 -0.8471
4 17 6 1.3615 14.7303
4 17 7 3.3979 -6.1204
4 17 8 0.5797 -1.6582
4 17 9 5.4511 -2.0195
4 17 10 0.3400 -8.6330
4 17 11 17.0927 6.7798
4 17 12 -11.9385 6.4820
4 17 13 3.0955 4.1005
4 17 14 8.2842 5.1329
4 17 15 8.2627 -8.1706
4 17 16 -4.6387 2.6430
4 17 17 6.5562 -4.8059
4 17 18 -5.2932 8.8247
4 17 19 3.1326 2.6931
4 17 20 -1.8966 1.8762
4 17 21 2.8194 2.1324
4 18 0 2.4088 -0.2872
4 18 1 -7.5230 -13.2573
4 18 2 -7.3411 -0.9441
4 18 3 -6.8148 12.0731
4 18 4 10.0306 -4.3860
4 18 5 5.8444 -6.1653
4 18 6 -2.7198 5.1724
4 18 7 3.7544 -1.0335
4 18 8 -12.1194 2.4665
4 18 9 4.4648 -1.6969
4 18 10 7.5026 -7.7472
4 18 11 -3.3225 3.9785
4 18 12 9.9269 -4.3080
4 18 13 8.2643 7.8621
4 18 14 -3.0688 -2.1090
4 18 15 0.5493 -9.7596
4 18 16 -0.6587 0.9556
4 18 17 10.3317 6.1948
4 18 18 -4.1923 1.9397
4 18 19 5.7226 1.3271
4 18 20 -3.0253 -2.3835
4 19 0 -3.9638 -0.0176
4 19 1 13.2349 7.0579
4 19 2 -9.8029 7.0373
4 19 3 0.4303 -3.6056
4 19 4 4.7310 -3.7853
4 19 5 -10.2968 -2.6918
4 19 6 0.3395 6.9132
4 19 7 6.7532 7.6967
4 19 8 -7.6036 -5.7592
4 19 9 -8.1087 8.2792
4 19 10 -4.8579 -8.6657
4 19 11 -5.9230 -9.5897
4 19 12 13.7280 5.1614
4 19 13 -14.1890 -3.3072
4 19 14 -4.0400 -3.6903
4 19 15 -9.7058 3.0965
4 19 16 7.4325 -1.0173
4 19 17 5.5745 -0.5835
4 19 18 4.0328 -4.0753
4 20 0 6.5080 -0.0325
4 20 1 1.3045 1.4699
4 20 2 1.7928 -7.6515
4 20 3 -0.9812 10.7526
4 20 4 -4.5892 -0.5902
4 20 5 2.5266 -3.6736
4 20 6 4.0989 6.7669
4 20 7 6.2441 1.5375
4 20 8 -1.9242 3.8720
4 20 9 -14.6775 8.2295
4 20 10 1.8764 -5.6759
4 20 11 -7.8332 -1.3770
4 20 12 -5.2463 3.0378
4 20 13 3.9356 -0.8024
4 20 14 -3.1882 6.5862
4 20 15 -3.6689 -7.3328
4 20 16 0.2397 -7.6273
4 20 17 -0.0737 -3.0987
4 21 0 -2.3809 -0.1019
4 21 1 -2.9405 -6.6237
4 21 2 8.7773 -0.0345
4 21 3 -6.8811 1.1819
4 21 4 8.1042 0.3225
4 21 5 6.9276 -5.5221
4 21 6 4.0296 -6.7446
4 21 7 5.2315 0.7825
4 21 8 -1.3494 4.9552
4 21 9 7.3313 7.1072
4 21 10 1.1109 9.5730
4 21 11 -3.1879 -7.9021
4 21 12 -3.4494 2.5196
4 21 13 7.2976 -0.0173
4 21 14 -1.2450 -0.1532
4 21 15 1.3838 -0.8938
4 22 0 -6.9309 -0.1577
4 22 1 3.8776 2.4662
4 22 2 -0.9232 1.8386
4 22 3 1.3722 -17.7285
4 22 4 0.5056 2.4763
4 22 5 -5.8815 -4.5683
4 22 6 -1.9914 -4.5083
4 22 7 6.8843 -1.8195
4 22 8 12.2000 -3.4666
4 22 9 2.4867 4.7917
4 22 10 2.3781 6.3010
4 22 11 2.9506 5.5465
4 22 12 -2.0937 -1.8776
4 22 13 2.9269 -1.6222
4 22 14 -4.4942 6.1755
4 23 0 0.2578 0.0579
4 23 1 -10.8996 2.5458
4 23 2 -6.4911 -7.6077
4 23 3 5.4943 8.3937
4 23 4 -13.2641 1.6464
4 23 5 3.9499 -3.1366
4 23 6 -9.2958 -2.1279
4 23 7 -0.0567 -0.8156
4 23 8 12.0031 -8.2201
4 23 9 1.2410 -5.0015
4 23 10 3.0386 1.1205
4 23 11 -0.2829 0.9563
4 24 0 -6.8511 0.0370
4 24 1 2.3765 2.8490
4 24 2 2.0030 2.9925
4 24 3 -9.2078 0.6321
4 24 4 1.6488 0.4906
4 24 5 -0.1042 10.6131
4 24 6 -4.9781 -12.0344
4 24 7 -3.5498 0.6259
4 24 8 -6.1164 -5.3662
4 24 9 -6.6523 -8.7041
4 25 0 2.0117 0.0015
4 25 1 0.2581 3.0789
4 25 2 3.3708 2.2953
5 0 1 0.6825 -64.2293
5 0 2 43.1582 0.1415
5 0 3 0.1375 -30.7825
5 0 4 34.5735 -0.8587
5 0 5 -0.3746 92.8930
5 0 6 -55.7966 -0.1168
5 0 7 0.1443 -18.2332
5 0 8 16.9776 1.4337
5 0 9 -0.4827 39.3327
5 0 10 69.3384 0.6761
5 0 11 -0.0856 17.0354
5 0 12 -15.9332 -1.3406
5 0 13 0.4596 13.9303
5 0 14 -21.3815 -0.8582
5 0 15 0.3240 16.5745
5 0 16 21.1975 0.7523
5 0 17 -0.5443 3.8308
5 0 18 -0.6354 0.7393
5 0 19 -0.2570 -6.3197
5 0 20 -3.7602 -0.0067
5 0 21 0.3003 24.3083
5 0 22 2.4204 -0.4636
5 0 23 0.3219 -21.3868
5 0 24 -4.1065 -0.4488
5 0 25 -0.1348 -4.1684
5 0 26 -13.4885 -0.0820
5 0 27 -0.1105 -1.1147
5 0 28 -2.2081 0.4464
5 1 0 0.2742 -11.3584
5 1 1 -36.1895 -39.8262
5 1 2 -47.0382 -26.8023
5 1 3 68.3831 -35.1248
5 1 4 14.8717 30.5046
5 1 5 -12.2755 24.7954
5 1 6 38.5468 18.3120
5 1 7 -10.7180 -9.6740
5 1 8 1.2588 -52.0713
5 1 9 24.9281 -28.2545
5 1 10 5.7556 15.0582
5 1 11 -15.4152 -30.7767
5 1 12 16.9798 30.7399
5 1 13 4.3311 11.4900
5 1 14 1.0036 -17.2831
5 1 15 0.7103 13.3605
5 1 16 12.1522 -1.2634
5 1 17 -9.9675 -18.7692
5 1 18 -0.1159 8.0442
5 1 19 17.2569 3.6524
5 1 20 9.3330 -4.5306
5 1 21 -7.1516 0.4063
5 1 22 8.8611 0.9764
5 1 23 -13.5937 1.0786
5 1 24 0.3997 4.8883
5 1 25 12.6454 6.3444
5 1 26 7.5542 2.4746
5 1 27 -7.9512 -1.9445
5 1 28 -1.7107 -11.9874
5 2 0 -0.1792 34.0363
5 2 1 -45.2759 -33.3406
5 2 2 -30.1551 -0.6453
5 2 3 37.0381 24.4452
5 2 4 26.5361 -73.3666
5 2 5 10.6703 -21.1758
5 2 6 -14.9153 21.7897
5 2 7 -25.4174 -37.4349
5 2 8 -23.1164 -0.5186
5 2 9 -16.4858 -13.4944
5 2 10 6.4629 -9.3186
5 2 11 16.7276 -1.0075
5 2 12 -18.2397 0.2430
5 2 13 29.8947 -33.8534
5 2 14 6.8643 12.7692
5 2 15 -20.5532 7.9439
5 2 16 -2.6234 -5.5879
5 2 17 -5.9938 -23.2526
5 2 18 -9.0183 9.6947
5 2 19 13.0932 2.9893
5 2 20 0.3592 -9.6998
5 2 21 -3.5240 6.5977
5 2 22 1.2950 19.5699
5 2 23 6.0289 -0.4366
5 2 24 6.8940 5.0328
5 2 25 1.8630 0.2271
5 2 26 -4.3809 3.3606
5 2 27 -4.0972 19.8078
5 2 28 8.7381 4.2433
5 3 0 0.3911 50.4346
5 3 1 14.0228 -14.2331
5 3 2 -24.1442 -0.3732
5 3 3 -31.6204 -5.1981
5 3 4 6.7065 -32.9922
5 3 5 -48.0352 14.3600
5 3 6 7.2138 29.4954
5 3 7 14.7515 20.8817
5 3 8 -26.5190 11.9327
5 3 9 8.6227 12.7192
5 3 10 2.4480 -5.0898
5 3 11 -22.8723 -15.3339
5 3 12 3.3542 -22.7061
5 3 13 12.4412 11.4655
5 3 14 -10.2028 3.4516
5 3 15 -0.4658 13.9689
5 3 16 -7.4234 16.4754
5 3 17 -5.7866 -4.6858
5 3 18 -9.0630 -8.0416
5 3 19 4.9787 -6.8073
5 3 20 2.1341 -0.2511
5 3 21 1.3467 7.3851
5 3 22 3.0730 -4.3011
5 3 23 5.3387 -8.8373
5 3 24 -11.4690 -4.8352
5 3 25 8.2170 6.9245
5 3 26 -6.8758 -1.7199
5 3 27 0.1022 -4.7446
5 3 28 1.9128 -10.0843
5 4 0 -0.2679 14.7138
5 4 1 20.1559 25.9141
5 4 2 -19.5982 -5.8651
5 4 3 -8.6357 29.2352
5 4 4 -2.4320 50.7623
5 4 5 8.1144 -14.9784
5 4 6 32.5445 10.3694
5 4 7 25.9152 -3.1218
5 4 8 3.7135 1.4116
5 4 9 -13.3080 32.5774
5 4 10 -23.6763 -11.5203
5 4 11 -17.5785 0.2582
5 4 12 12.6359 15.8448
5 4 13 8.4296 -3.0708
5 4 14 19.4348 -13.4397
5 4 15 7.6197 18.5874
5 4 16 -4.8503 6.8989
5 4 17 -10.4802 8.8300
5 4 18 -1.1791 -14.7749
5 4 19 0.8490 -7.3213
5 4 20 -0.2145 -7.3264
5 4 21 3.2968 -6.2012
5 4 22 -4.8112 -11.9631
5 4 23 -8.3287 -5.1220
5 4 24 -1.2457 -3.8942
5 4 25 -2.5151 2.0257
5 4 26 -0.4147 -10.8799
5 4 27 -5.3129 -2.6049
5 4 28 1.5343 -5.7055
5 5 0 0.3003 -27.9949
5 5 1 15.1613 16.0744
5 5 2 31.4546 7.3048
5 5 3 9.1567 6.8739
5 5 4 10.5363 -8.4452
5 5 5 19.0090 -29.4539
5 5 6 -38.1696 -36.0233
5 5 7 16.9176 -4.0761
5 5 8 1.8906 30.6910
5 5 9 -2.7898 16.1859
5 5 10 16.2342 6.1576
5 5 11 -4.3664 -6.8850
5 5 12 -16.9127 -15.6904
5 5 13 5.1211 -21.8365
5 5 14 4.3612 6.7111
5 5 15 14.5228 5.2684
5 5 16 11.6521 -3.3715
5 5 17 -12.0574 7.7618
5 5 18 -6.6199 5.7537
5 5 19 -8.5000 -5.9455
5 5 20 -0.7017 0.3325
5 5 21 1.1306 9.6374
5 5 22 -0.9499 -2.5885
5 5 23 -3.1308 11.9420
5 5 24 8.8804 5.3046
5 5 25 1.2548 -4.4900
5 5 26 3.0808 1.7694
5 5 27 -7.3478 -4.4793
5 5 28 3.9541 1.1084
5 6 0 0.0236 -34.9373
5 6 1 -6.7411 -5.7140
5 6 2 27.2728 -10.7769
5 6 3 -18.9165 -37.3612
5 6 4 -34.9967 -8.1271
5 6 5 -14.2732 22.3940
5 6 6 12.6222 5.3047
5 6 7 1.4974 8.1903
5 6 8 28.2264 -44.1842
5 6 9 13.7506 -2.1912
5 6 10 -20.6956 26.6608
5 6 11 -8.5657 -6.9258
5 6 12 -4.5943 -1.2896
5 6 13 -1.7544 1.8774
5 6 14 -6.1180 -14.7226
5 6 15 9.3769 -8.1576
5 6 16 3.3680 7.8490
5 6 17 1.5090 12.9229
5 6 18 2.3542 22.9641
5 6 19 4.8056 -3.8028
5 6 20 -9.2589 1.1040
5 6 21 7.8020 6.6973
5 6 22 8.6097 12.9229
5 6 23 -5.9254 1.0707
5 6 24 9.3899 0.2184
5 6 25 -5.1324 -0.4236
5 6 26 -12.9581 11.4441
5 6 27 3.5061 7.8144
5 7 0 0.2097 -4.8307
5 7 1 -31.9602 2.9085
5 7 2 -24.3184 17.7012
5 7 3 9.3139 -2.1751
5 7 4 19.5879 15.1842
5 7 5 12.9599 7.6394
5 7 6 1.9655 -18.6524
5 7 7 -25.5004 -18.9444
5 7 8 12.1985 13.8837
5 7 9 -6.5249 -11.5981
5 7 10 22.5329 2.7085
5 7 11 10.6960 20.4084
5 7 12 -18.5267 3.7070
5 7 13 -9.5443 5.3380
5 7 14 6.7442 -5.7805
5 7 15 -4.3715 -11.4169
5 7 16 15.4341 -1.6032
5 7 17 9.7602 -4.0655
5 7 18 -6.5665 0.6261
5 7 19 4.0551 1.4009
5 7 20 3.1796 -0.9816
5 7 21 0.4935 1.1043
5 7 22 -2.5279 -13.0601
5 7 23 0.6256 -6.2665
5 7 24 -7.8585 15.6295
5 7 25 -0.3294 -4.4753
5 7 26 6.5028 -1.5933
5 7 27 6.0990 4.9267
5 8 0 -0.0270 67.9433
5 8 1 14.7177 -18.9581
5 8 2 -7.1812 -8.3295
5 8 3 0.2640 5.5184
5 8 4 0.3811 -17.7543
5 8 5 6.8542 -5.4162
5 8 6 -10.5218 21.5433
5 8 7 -11.1040 5.3704
5 8 8 -14.4911 -2.1103
5 8 9 14.3049 -27.9074
5 8 10 0.9372 11.0502
5 8 11 22.4314 5.9982
5 8 12 6.6477 2.8674
5 8 13 -22.0683 1.3659
5 8 14 -4.0390 -11.3213
5 8 15 -8.6049 -8.2020
5 8 16 -1.4600 7.3788
5 8 17 10.3177 -14.1750
5 8 18 0.9843 -15.9680
5 8 19 -3.0099 3.8635
5 8 20 2.4730 -9.1999
5 8 21 -8.7657 -2.1515
5 8 22 5.0232 1.6232
5 8 23 -2.3517 0.4622
5 8 24 0.6928 -15.0140
5 8 25 10.7790 0.0947
5 8 26 2.4539 -4.0199
5 8 27 1.6304 -6.7075
5 9 0 -0.0313 7.0578
5 9 1 15.3857 25.0356
5 9 2 -45.4372 -11.7330
5 9 3 -7.7631 -1.2231
5 9 4 20.4406 -2.4240
5 9 5 -10.0130 -7.0436
5 9 6 -7.7069 20.2352
5 9 7 2.3083 20.8734
5 9 8 -19.0925 -15.9996
5 9 9 3.7310 -15.1022
5 9 10 -4.8530 -18.0681
5 9 11 6.0600 8.0015
5 9 12 -13.4011 0.3869
5 9 13 -2.7998 19.5204
5 9 14 7.3272 10.2102
5 9 15 -1.3462 -16.3810
5 9 16 -13.3306 -5.3197
5 9 17 -2.8328 7.1584
5 9 18 -11.4273 -6.5830
5 9 19 1.0143 9.7259
5 9 20 14.2892 -1.6360
5 9 21 -0.7913 -0.5162
5 9 22 -2.7845 8.0426
5 9 23 -1.4286 1.0532
5 9 24 0.9941 -10.1596
5 9 25 -3.1774 -3.2587
5 9 26 7.2148 -2.7168
5 10 0 0.1429 28.3885
5 10 1 9.0411 31.9290
5 10 2 2.7091 -25.4847
5 10 3 -30.2169 9.5010
5 10 4 15.8002 1.0591
5 10 5 22.2311 -0.7542
5 10 6 -3.8603 12.4242
5 10 7 0.6902 -8.8525
5 10 8 -6.5114 -8.4972
5 10 9 -25.0120 23.3167
5 10 10 9.3297 -5.7012
5 10 11 13.1668 2.9362
5 10 12 13.2379 -3.9758
5 10 13 -7.5768 6.3698
5 10 14 -0.9002 -5.1283
5 10 15 0.2412 4.6771
5 10 16 -10.4786 17.3329
5 10 17 8.3151 18.2620
5 10 18 1.7360 -6.6729
5 10 19 -5.2069 -5.8893
5 10 20 4.5859 -0.0973
5 10 21 3.6894 3.3134
5 10 22 -6.3524 10.6248
5 10 23 -2.2296 -2.6216
5 10 24 -6.8994 3.4396
5 10 25 -11.7509 -2.6137
5 10 26 8.4076 4.0896
5 11 0 -0.1728 -6.2155
5 11 1 17.6738 6.8068
5 11 2 9.7028 -0.2452
5 11 3 -12.5310 -4.3869
5 11 4 20.4131 4.1992
5 11 5 0.9646 -17.6154
5 11 6 -9.5474 -3.0164
5 11 7 15.5980 22.5844
5 11 8 4.1189 0.1852
5 11 9 5.1180 -6.8136
5 11 10 17.8165 3.6472
5 11 11 -10.0497 -10.8901
5 11 12 -3.3396 3.2357
5 11 13 -1.7174 -4.5071
5 11 14 12.1142 8.3797
5 11 15 10.9227 -1.0077
5 11 16 9.2585 0.8907
5 11 17 1.3940 -0.2451
5 11 18 -3.6769 -4.2012
5 11 19 -12.5293 -4.8491
5 11 20 -2.8246 1.2140
5 11 21 2.2993 -4.0270
5 11 22 4.5260 4.2944
5 11 23 -0.3377 8.0003
5 11 24 -7.5529 0.1952
5 11 25 4.7019 -15.2162
5 12 0 0.2418 -27.4165
5 12 1 -1.9714 0.6749
5 12 2 1.4082 2.8872
5 12 3 4.6002 -2.6485
5 12 4 -8.3020 10.3045
5 12 5 -3.0112 -11.6311
5 12 6 -4.0932 7.5991
5 12 7 6.3718 3.9405
5 12 8 6.1693 -22.8038
5 12 9 -2.2361 -4.5862
5 12 10 -4.3199 13.7517
5 12 11 -4.0851 -1.0244
5 12 12 -8.0279 9.1629
5 12 13 8.4929 -12.6967
5 12 14 -1.2531 -7.6565
5 12 15 4.0668 -16.8095
5 12 16 1.6448 -2.2620
5 12 17 -8.1740 2.3377
5 12 18 -4.2150 10.8223
5 12 19 -3.9657 4.6683
5 12 20 7.7917 0.9328
5 12 21 4.2591 -8.1055
5 12 22 7.0871 -8.0981
5 12 23 -9.0244 -1.4052
5 12 24 2.4477 2.1567
5 12 25 1.4274 4.6554
5 13 0 -0.2217 6.4070
5 13 1 -15.0330 -11.3862
5 13 2 12.3671 -0.5155
5 13 3 -0.1794 6.1927
5 13 4 -8.3103 8.9969
5 13 5 7.8231 8.8775
5 13 6 -14.9479 -2.0423
5 13 7 -12.4487 -15.8631
5 13 8 -0.9317 -3.5678
5 13 9 -12.6881 12.8686
5 13 10 9.8172 4.9166
5 13 11 7.7448 2.6069
5 13 12 -9.5680 0.7732
5 13 13 -11.3424 -1.7971
5 13 14 -16.9708 -14.6381
5 13 15 -3.9966 12.1827
5 13 16 5.6431 3.9199
5 13 17 14.5389 7.4205
5 13 18 8.6600 0.7387
5 13 19 1.4700 -1.7941
5 13 20 -5.6558 -8.5370
5 13 21 -6.9462 2.1696
5 13 22 -3.3992 5.5450
5 13 23 3.6319 -2.2661
5 13 24 3.7758 7.4950
5 14 0 0.1533 8.0243
5 14 1 -3.6731 -11.3253
5 14 2 3.0785 0.2272
5 14 3 14.6040 -9.9907
5 14 4 5.9297 5.9187
5 14 5 -6.5775 7.9318
5 14 6 -7.9061 -10.9481
5 14 7 -0.7836 19.2538
5 14 8 -0.1131 6.9105
5 14 9 10.3921 -16.5670
5 14 10 11.9184 -7.9816
5 14 11 -8.3863 0.7496
5 14 12 -6.1956 11.3092
5 14 13 2.5686 20.2621
5 14 14 2.8285 -5.9017
5 14 15 -0.0282 -1.4169
5 14 16 10.1450 -12.0940
5 14 17 -2.7464 -6.5522
5 14 18 -3.6207 -6.1593
5 14 19 -1.4120 12.0507
5 14 20 -4.8311 8.0822
5 14 21 -4.1769 1.5086
5 14 22 2.9818 1.1267
5 14 23 6.4172 -2.4855
5 15 0 -0.2580 -13.3049
5 15 1 3.2003 -8.1692
5 15 2 -9.7147 -0.7922
5 15 3 1.4643 -6.3376
5 15 4 -3.7960 -5.9743
5 15 5 17.7192 9.2687
5 15 6 15.6158 -1.8720
5 15 7 -6.1358 0.9637
5 15 8 3.1133 -8.0310
5 15 9 -2.2581 -1.6210
5 15 10 -8.2907 -0.8850
5 15 11 19.6628 -3.1003
5 15 12 7.3663 4.7497
5 15 13 6.5599 -2.6739
5 15 14 -1.3809 -0.8506
5 15 15 -14.8475 -1.6884
5 15 16 -4.9350 0.3220
5 15 17 2.7252 -8.1885
5 15 18 3.0952 9.6987
5 15 19 -0.1197 2.1965
5 15 20 8.2542 3.6619
5 15 21 -0.1443 -3.2343
5 15 22 -6.9136 -0.0444
5 16 0 0.0566 -1.1489
5 16 1 -9.2307 23.6970
5 16 2 3.4198 6.1957
5 16 3 3.9337 -4.1174
5 16 4 -13.0429 -15.2302
5 16 5 0.9134 -1.4745
5 16 6 13.4420 -2.1120
5 16 7 -5.8256 3.6808
5 16 8 4.0121 13.2165
5 16 9 -8.5022 -6.8850
5 16 10 -6.9443 0.3021
5 16 11 4.3856 -0.5028
5 16 12 5.1930 -11.7950
5 16 13 4.4345 6.2449
5 16 14 -3.9901 11.5438
5 16 15 -4.3357 -3.1975
5 16 16 1.4156 5.5291
5 16 17 2.2581 -4.3021
5 16 18 4.8576 -0.5778
5 16 19 11.1387 -5.2178
5 16 20 -0.8151 3.3004
5 16 21 -6.7071 -3.3726
5 17 0 -0.0680 -0.1300
5 17 1 11.7014 -9.5902
5 17 2 8.2141 17.0268
5 17 3 -21.6886 4.6730
5 17 4 -10.3768 -1.5580
5 17 5 -0.1815 -1.7795
5 17 6 8.7393 -10.0869
5 17 7 -4.1423 -3.5449
5 17 8 -1.7762 24.5060
5 17 9 -2.0169 -3.3527
5 17 10 -9.5218 0.5091
5 17 11 -2.8305 -4.3017
5 17 12 6.7545 -9.7342
5 17 13 -14.1892 6.1858
5 17 14 6.8813 6.1584
5 17 15 4.3484 4.2537
5 17 16 -2.3476 -7.1903
5 17 17 -2.7175 -9.2041
5 17 18 -0.1715 -2.8901
5 17 19 3.2988 5.3513
5 17 20 -1.5426 -0.2995
5 18 0 0.2583 -18.7720
5 18 1 3.4703 3.2743
5 18 2 -0.7026 9.2497
5 18 3 6.1069 4.7861
5 18 4 -10.4645 7.2075
5 18 5 -9.2112 -11.8203
5 18 6 6.1030 -3.3193
5 18 7 4.3583 2.2072
5 18 8 2.5112 4.3221
5 18 9 9.2060 -2.2321
5 18 10 -19.7967 -5.3431
5 18 11 -1.8509 10.1039
5 18 12 5.7125 -0.1579
5 18 13 2.2331 -8.7853
5 18 14 3.0593 3.4180
5 18 15 -10.8791 -2.6403
5 18 16 -8.3722 -4.5195
5 18 17 -1.4672 0.6418
5 18 18 1.2598 -1.0713
5 18 19 3.0610 -0.4892
5 19 0 -0.1691 -0.3574
5 19 1 -2.9991 4.5226
5 19 2 7.9807 -7.3463
5 19 3 5.3094 6.1121
5 19 4 -1.0160 -4.0269
5 19 5 2.2155 0.8656
5 19 6 -6.1574 -4.3742
5 19 7 8.4656 -7.5233
5 19 8 3.7719 0.3270
5 19 9 7.3071 7.8949
5 19 10 2.1522 -6.7672
5 19 11 0.5032 7.4000
5 19 12 3.9254 -6.1799
5 19 13 3.5440 -1.2337
5 19 14 -8.9614 7.5585
5 19 15 3.2077 4.1929
5 19 16 -4.1608 5.7391
5 19 17 1.2847 -4.7693
5 19 18 -3.5571 -3.8242
5 20 0 0.2445 7.4960
5 20 1 6.3887 -3.0014
5 20 2 0.5212 -10.4108
5 20 3 -11.7243 -4.9243
5 20 4 6.5758 4.0493
5 20 5 -2.3034 7.9306
5 20 6 0.0856 -5.7588
5 20 7 3.6799 -3.1917
5 20 8 -3.8006 -8.4007
5 20 9 2.8796 4.8489
5 20 10 11.7524 1.6744
5 20 11 -3.5944 -3.8712
5 20 12 4.5106 5.5809
5 20 13 0.7492 4.3093
5 20 14 6.5109 4.4771
5 20 15 7.5725 2.4885
5 20 16 0.2516 0.8606
5 20 17 -3.2485 3.9372
5 21 0 0.1246 -3.8300
5 21 1 -2.8763 10.8550
5 21 2 -7.1606 6.1465
5 21 3 -0.2275 -0.8198
5 21 4 2.9359 6.7378
5 21 5 -2.4236 -11.2948
5 21 6 -4.2354 10.5348
5 21 7 -11.2835 0.7026
5 21 8 0.7711 -10.4909
5 21 9 -6.9328 -0.9913
5 21 10 5.2429 -2.2337
5 21 11 -0.8293 -6.2870
5 21 12 1.2663 7.7145
5 21 13 1.5037 -4.3611
5 21 14 3.0520 -6.2857
5 21 15 -1.5641 -2.2869
5 22 0 0.0688 2.6772
5 22 1 1.3204 2.0781
5 22 2 5.5221 7.2940
5 22 3 -4.3077 1.3474
5 22 4 -3.0130 -2.1594
5 22 5 4.6683 1.8355
5 22 6 -14.3385 6.6520
5 22 7 2.6186 1.4374
5 22 8 -8.9570 3.2389
5 22 9 -11.7794 -6.9718
5 22 10 4.6060 -1.6083
5 22 11 0.1951 -7.3138
5 22 12 -4.8902 -3.3524
5 22 13 0.1620 -0.3822
5 23 0 -0.0057 -0.6312
5 23 1 4.4059 -4.1191
5 23 2 4.6586 -1.8296
5 23 3 3.3730 0.0997
5 23 4 -2.4663 2.8690
5 23 5 0.3958 3.5605
5 23 6 6.5644 -0.8587
5 23 7 6.4077 15.3125
5 23 8 -2.7797 -6.2459
5 23 9 -1.9264 2.9180
5 23 10 -9.1441 0.7818
5 23 11 5.1540 -6.4285
5 24 0 -0.0808 -11.6309
5 24 1 2.1912 -4.4256
5 24 2 -4.2907 -4.0189
5 24 3 4.5947 4.4369
5 24 4 4.5827 1.6082
5 24 5 6.1650 -3.5516
5 24 6 4.5748 -7.0169
5 24 7 -1.1326 2.5058
6 0 0 -37.2873 1.2925
6 0 1 0.5342 47.9929
6 0 2 8.2828 0.4038
6 0 3 -0.5185 -41.2073
6 0 4 -60.6929 -1.3931
6 0 5 -0.4468 -24.0461
6 0 6 -26.6979 -0.3630
6 0 7 -0.7636 34.9444
6 0 8 25.1658 0.9780
6 0 9 0.6863 13.2371
6 0 10 -26.8190 0.2069
6 0 11 1.0359 -27.1156
6 0 12 -11.3661 -0.1107
6 0 13 -0.3600 -30.2201
6 0 14 40.8534 -0.0799
6 0 15 -0.7361 24.5242
6 0 16 -22.0014 -0.2749
6 0 17 -0.1860 2.6988
6 0 18 6.5636 -0.2554
6 0 19 0.5424 -10.0135
6 0 20 6.6576 0.3232
6 0 21 0.2121 -1.9646
6 0 22 5.3423 0.5687
6 0 23 0.0927 -6.4635
6 0 24 5.5113 -0.0973
6 0 25 -0.3227 -2.6318
6 0 26 4.7636 -0.6096
6 0 27 -0.4137 3.0083
6 0 28 0.8305 -0.0438
6 1 0 46.3963 -0.0813
6 1 1 -29.7659 -1.5980
6 1 2 -5.2509 -6.8701
6 1 3 -22.0977 45.5857
6 1 4 -32.9809 27.0193
6 1 5 17.8227 25.3838
6 1 6 -4.7066 -36.2483
6 1 7 12.5190 0.5185
6 1 8 43.5775 0.8827
6 1 9 -15.7806 9.1013
6 1 10 -25.2909 18.8661
6 1 11 -15.4323 8.0804
6 1 12 -24.9312 -39.0337
6 1 13 16.9869 -2.5671
6 1 14 3.4831 9.6845
6 1 15 12.8427 -3.9602
6 1 16 16.5810 13.8872
6 1 17 -9.5061 1.4972
6 1 18 -12.8871 -16.3226
6 1 19 1.2573 -1.6354
6 1 20 3.9702 0.3220
6 1 21 3.9223 -1.5406
6 1 22 -7.7709 -1.1273
6 1 23 -1.5463 -8.8560
6 1 24 -2.2078 -0.1936
6 1 25 6.7215 1.8195
6 1 26 -3.7775 2.4611
6 1 27 -4.7207 -3.2937
6 1 28 4.9621 1.8672
6 2 0 -13.9454 0.4661
6 2 1 24.9698 -9.6057
6 2 2 31.6454 37.6310
6 2 3 16.8675 9.1838
6 2 4 37.7740 15.0247
6 2 5 -38.3125 0.8917
6 2 6 -9.3092 -49.3407
6 2 7 -2.3200 -18.5788
6 2 8 30.9100 9.2751
6 2 9 -5.5132 8.1897
6 2 10 -16.0754 44.7726
6 2 11 -12.8013 6.7935
6 2 12 0.9606 -19.8327
6 2 13 -16.4306 3.1710
6 2 14 14.9753 -26.0524
6 2 15 6.1002 -5.7844
6 2 16 -10.1460 15.2674
6 2 17 -1.3668 3.0632
6 2 18 -12.1505 0.5978
6 2 19 -4.9009 0.9232
6 2 20 8.0075 1.2302
6 2 21 -13.4093 3.6170
6 2 22 -10.1680 4.7488
6 2 23 3.9935 4.1778
6 2 24 -2.2398 3.2058
6 2 25 2.8026 4.9539
6 2 26 -3.1467 -5.3761
6 2 27 1.7957 0.5696
6 2 28 -0.7842 3.9820
6 3 0 -6.2778 -0.3612
6 3 1 37.1737 -19.0277
6 3 2 20.7856 -44.4426
6 3 3 14.3813 3.1427
6 3 4 -16.8127 24.8614
6 3 5 -23.0181 -17.1892
6 3 6 -20.8552 25.0512
6 3 7 -12.8328 -16.7368
6 3 8 35.0673 -1.2954
6 3 9 33.3638 6.6406
6 3 10 -1.5496 18.4830
6 3 11 -3.1277 -0.0546
6 3 12 -24.4374 4.6037
6 3 13 -16.4586 -9.8726
6 3 14 19.0591 5.5451
6 3 15 -17.5022 -10.5381
6 3 16 -2.9264 10.9138
6 3 17 14.0270 9.2967
6 3 18 -0.6976 -1.3930
6 3 19 -8.7598 10.7263
6 3 20 3.7940 6.9506
6 3 21 2.1001 -5.4722
6 3 22 2.4392 14.5992
6 3 23 0.2138 -3.8099
6 3 24 -2.4227 -11.2307
6 3 25 -7.6505 2.5179
6 3 26 -0.1606 -0.4344
6 3 27 -4.6905 -0.2928
6 3 28 6.8725 -5.1796
6 4 0 -46.2727 0.4767
6 4 1 -1.0965 -13.6201
6 4 2 -0.4238 -28.5802
6 4 3 -21.2452 23.5447
6 4 4 20.7817 28.9958
6 4 5 30.7294 17.5444
6 4 6 -25.0082 -1.5259
6 4 7 20.1294 -12.5251
6 4 8 -8.3139 -27.1219
6 4 9 18.3235 -12.3466
6 4 10 15.5243 17.3419
6 4 11 1.7418 19.0438
6 4 12 -10.5608 -3.8906
6 4 13 11.0602 9.6916
6 4 14 -6.8828 10.5287
6 4 15 7.1612 -13.0892
6 4 16 1.6783 -0.8558
6 4 17 19.9050 -6.4391
6 4 18 7.8216 -8.0999
6 4 19 -4.4421 4.2569
6 4 20 9.6309 -2.4749
6 4 21 8.1806 -8.0035
6 4 22 -8.5927 -4.8280
6 4 23 4.7134 4.4073
6 4 24 -7.2118 -7.1587
6 4 25 -3.4898 3.7606
6 4 26 7.7646 -0.8566
6 4 27 1.0106 -9.6070
6 4 28 3.0415 -9.2770
6 5 0 -27.6548 -0.2756
6 5 1 -9.3503 30.1234
6 5 2 10.8613 -7.5174
6 5 3 9.7821 -32.8796
6 5 4 22.3024 3.9806
6 5 5 -4.2518 -9.9213
6 5 6 -22.5493 -10.1246
6 5 7 -9.9944 19.2198
6 5 8 -1.1770 -31.7762
6 5 9 -14.9798 -1.4748
6 5 10 10.1732 -5.5748
6 5 11 27.7223 2.0270
6 5 12 9.7202 6.8186
6 5 13 -3.9710 4.3606
6 5 14 -6.2436 -15.7613
6 5 15 3.2696 1.1689
6 5 16 -9.6296 -16.5771
6 5 17 0.4096 -0.2080
6 5 18 0.6407 -9.2243
6 5 19 12.4219 -6.9304
6 5 20 1.1868 2.4917
6 5 21 -0.1676 0.2983
6 5 22 -8.2934 -2.5389
6 5 23 7.7484 11.7694
6 5 24 13.9037 0.6653
6 5 25 -3.6885 0.9963
6 5 26 -4.1355 -9.1073
6 5 27 5.1964 -3.0715
6 6 0 16.6597 0.2622
6 6 1 -47.6892 1.2215
6 6 2 2.2291 -4.8897
6 6 3 -3.3628 -14.9289
6 6 4 -30.6217 2.1579
6 6 5 11.5255 -2.3328
6 6 6 -3.7657 11.1447
6 6 7 -30.1352 15.5666
6 6 8 3.0005 8.0262
6 6 9 -19.2722 -21.1562
6 6 10 16.5537 -14.6382
6 6 11 0.8233 -23.4718
6 6 12 -9.2515 3.8760
6 6 13 -14.1283 12.0189
6 6 14 -1.2845 6.1003
6 6 15 -5.2136 8.4768
6 6 16 1.6028 -0.1579
6 6 17 -25.2668 -7.7742
6 6 18 2.2327 -0.6445
6 6 19 2.2005 1.4559
6 6 20 -5.3282 8.0358
6 6 21 6.4277 10.1100
6 6 22 9.5987 -2.7525
6 6 23 -6.8342 -0.3693
6 6 24 -4.1789 6.8996
6 6 25 -4.5328 -8.1494
6 6 26 -1.4155 10.8470
6 6 27 -3.1948 5.7534
6 7 0 21.0525 -0.2288
6 7 1 5.2339 18.1421
6 7 2 -13.8150 36.8247
6 7 3 -3.1682 -22.3199
6 7 4 4.5564 -4.2120
6 7 5 12.3993 47.2880
6 7 6 16.1428 -6.3616
6 7 7 3.4541 2.0040
6 7 8 -10.8282 12.6935
6 7 9 -13.7968 -25.3609
6 7 10 -23.8735 11.7216
6 7 11 1.5040 12.7215
6 7 12 10.7714 10.2300
6 7 13 20.5746 -5.8704
6 7 14 -1.1623 -0.8988
6 7 15 -18.1570 4.4599
6 7 16 2.3171 17.2031
6 7 17 -4.4343 4.4144
6 7 18 -3.3757 12.4734
6 7 19 3.4162 -18.0777
6 7 20 0.3715 -8.8294
6 7 21 -6.9186 9.1617
6 7 22 3.3239 2.3265
6 7 23 -16.7630 -1.2186
6 7 24 -4.0559 6.5513
6 7 25 3.1969 -3.1799
6 7 26 -1.7507 -5.1844
6 7 27 2.8138 -0.3657
6 8 0 45.1179 0.0642
6 8 1 -9.7256 -3.3140
6 8 2 -6.4764 8.7634
6 8 3 32.6545 11.1382
6 8 4 11.3910 -20.0542
6 8 5 11.6291 -5.6751
6 8 6 17.6892 8.7838
6 8 7 -35.0645 0.1117
6 8 8 7.4478 17.0804
6 8 9 35.7753 26.3447
6 8 10 -11.0057 -4.9244
6 8 11 12.5272 -5.8224
6 8 12 1.5225 -15.9835
6 8 13 -7.8789 5.7707
6 8 14 -2.3839 -0.2327
6 8 15 22.8405 6.7918
6 8 16 11.9878 1.4805
6 8 17 1.7726 -6.6852
6 8 18 -18.8750 -4.0511
6 8 19 -0.6884 2.0301
6 8 20 -2.8158 -10.5570
6 8 21 11.5449 5.1318
6 8 22 6.3717 0.2944
6 8 23 -7.5118 -6.3787
6 8 24 -2.9695 -2.7898
6 8 25 2.8274 1.8682
6 8 26 1.3411 -19.2995
6 9 0 -9.2725 -0.0584
6 9 1 3.9407 -19.3609
6 9 2 -0.0123 -8.5293
6 9 3 -1.9528 -19.7817
6 9 4 -4.7776 -13.4804
6 9 5 -13.7895 18.8477
6 9 6 9.7648 11.7146
6 9 7 20.0870 -24.3529
6 9 8 -8.7855 8.1977
6 9 9 6.7636 -21.7199
6 9 10 5.9779 -12.4598
6 9 11 -15.4930 30.7543
6 9 12 -8.8628 -3.5357
6 9 13 -6.5418 -12.6149
6 9 14 13.6492 -6.9664
6 9 15 7.3954 -8.8162
6 9 16 -5.6417 -7.2185
6 9 17 -0.8252 13.2015
6 9 18 0.7008 2.1648
6 9 19 7.3159 0.9408
6 9 20 1.7714 -7.5411
6 9 21 -2.5220 -0.8793
6 9 22 4.3021 -3.9701
6 9 23 13.5574 8.9020
6 9 24 -4.0488 6.0333
6 9 25 -8.3858 -10.5897
6 9 26 3.7381 -0.7939
6 10 0 -47.5770 -0.0221
6 10 1 -6.8462 2.4820
6 10 2 -6.3888 -5.8283
6 10 3 -2.2191 -3.5808
6 10 4 1.6075 7.3274
6 10 5 4.6572 -5.5428
6 10 6 -2.1684 -2.3219
6 10 7 -18.4446 -10.8380
6 10 8 -26.5242 -14.3112
6 10 9 22.8149 0.7014
6 10 10 2.5415 4.0769
6 10 11 -7.6580 15.7438
6 10 12 7.9762 8.9546
6 10 13 -16.4456 -19.5555
6 10 14 -6.1244 -0.5465
6 10 15 3.0758 -5.0902
6 10 16 -0.7484 4.1751
6 10 17 -0.4043 7.5545
6 10 18 13.0878 3.6514
6 10 19 -5.1188 0.0882
6 10 20 -1.8692 4.8262
6 10 21 1.4870 -2.4630
6 10 22 1.8948 4.8926
6 10 23 -5.9821 7.3425
6 10 24 7.0307 2.5877
6 10 25 -0.6223 3.2128
6 10 26 -17.4133 24.4614
6 11 0 0.1253 -0.1387
6 11 1 -15.4635 27.7951
6 11 2 5.2011 -22.3130
6 11 3 7.7577 -9.0830
6 11 4 6.0582 7.0733
6 11 5 4.5796 7.6302
6 11 6 -15.1049 8.2524
6 11 7 -11.6403 9.8729
6 11 8 8.5441 -6.7848
6 11 9 13.5346 5.0200
6 11 10 12.4398 -16.9142
6 11 11 3.4807 9.1965
6 11 12 4.2323 6.7141
6 11 13 -12.9707 -2.7619
6 11 14 -15.4685 11.7572
6 11 15 19.3008 3.7774
6 11 16 7.7402 -7.6403
6 11 17 -0.9290 -3.1902
6 11 18 0.8902 -2.2169
6 11 19 -6.9418 -6.9971
6 11 20 -2.8304 8.2384
6 11 21 2.9100 6.8909
6 11 22 -1.4464 -4.0591
6 11 23 -11.7916 -3.9136
6 11 24 12.7413 5.7852
6 11 25 4.5872 3.6845
6 12 0 6.4965 -0.0924
6 12 1 -30.3463 5.7638
6 12 2 11.9317 -3.6325
6 12 3 -4.7774 -16.0540
6 12 4 10.8397 6.1165
6 12 5 10.7551 19.6015
6 12 6 0.2663 2.1695
6 12 7 9.0683 -1.1800
6 12 8 3.1864 -4.6223
6 12 9 -18.0531 -11.8262
6 12 10 3.5103 -5.2743
6 12 11 -1.8133 10.1689
6 12 12 12.8932 12.2373
6 12 13 3.8002 -1.5980
6 12 14 -4.2648 -4.6392
6 12 15 4.0808 -3.2404
6 12 16 -7.6472 -16.5646
6 12 17 -15.9969 9.3125
6 12 18 -2.5719 0.9620
6 12 19 10.3039 -6.0508
6 12 20 0.3263 -1.7341
6 12 21 0.8980 6.6957
6 12 22 1.4157 -10.8430
6 12 23 -0.5387 -9.3722
6 12 24 1.6534 -1.1190
6 12 25 4.6582 -15.2924
6 13 0 -7.2574 -0.1997
6 13 1 -7.0966 4.5384
6 13 2 -0.7779 17.8562
6 13 3 -3.4948 -18.9230
6 13 4 -1.0716 -2.2443
6 13 5 11.2934 -12.5461
6 13 6 -1.2483 -4.3046
6 13 7 -14.2091 8.3139
6 13 8 -11.5277 6.0007
6 13 9 1.2558 1.6858
6 13 10 0.5091 8.0574
6 13 11 -3.4597 -16.0182
6 13 12 -2.9678 1.0357
6 13 13 -0.8249 -9.1922
6 13 14 -5.4138 5.3726
6 13 15 -6.1354 13.3229
6 13 16 -3.0076 4.1135
6 13 17 -7.1460 -1.0699
6 13 18 13.0648 4.6248
6 13 19 2.0020 -4.9178
6 13 20 -0.8848 -11.6185
6 13 21 0.7596 0.4567
6 13 22 3.8310 4.1583
6 13 23 -9.7380 -2.0143
6 13 24 -7.0031 2.8390
6 14 0 27.1437 0.1080
6 14 1 12.9650 6.0038
6 14 2 -14.9150 2.1857
6 14 3 -7.7078 -4.8300
6 14 4 -17.8621 0.7996
6 14 5 5.8211 -5.7271
6 14 6 4.5759 -2.0730
6 14 7 3.5198 7.6775
6 14 8 5.5893 -3.3393
6 14 9 2.2878 4.2687
6 14 10 -3.6022 4.2642
6 14 11 -3.1831 -3.6912
6 14 12 -9.6629 -6.8807
6 14 13 16.9507 0.5780
6 14 14 1.6187 3.2636
6 14 15 4.5333 6.6402
6 14 16 10.3860 2.4890
6 14 17 1.5967 -3.3340
6 14 18 -7.8249 -3.3649
6 14 19 -2.3636 -11.2863
6 14 20 -3.0639 7.3969
6 14 21 -4.2849 8.0353
6 14 22 10.3202 11.3382
6 14 23 7.8669 -3.2194
6 15 0 5.6199 -0.0368
6 15 1 -0.0189 -10.7503
6 15 2 6.2696 15.8460
6 15 3 0.5846 21.6842
6 15 4 -8.8401 -13.8717
6 15 5 0.0039 -1.9817
6 15 6 -3.5430 -6.1015
6 15 7 10.5212 -2.6632
6 15 8 17.9634 -2.0420
6 15 9 -4.9898 3.1698
6 15 10 2.4134 -3.5429
6 15 11 1.3939 0.0220
6 15 12 -5.9604 -1.3526
6 15 13 4.8693 6.7579
6 15 14 12.4186 -20.0000
6 15 15 7.3749 -2.2917
6 15 16 -3.6244 0.5807
6 15 17 -8.2764 2.9146
6 15 18 -7.7442 3.9042
6 15 19 3.4029 7.2841
6 15 20 5.7838 -4.4299
6 15 21 10.2025 -7.0229
6 15 22 -6.3358 -3.5477
6 16 0 -2.4974 -0.1163
6 16 1 15.3175 -6.0244
6 16 2 -0.8040 4.4495
6 16 3 5.4661 6.5544
6 16 4 -4.3109 7.0037
6 16 5 -16.3173 5.6921
6 16 6 10.1701 -13.3176
6 16 7 1.2960 -2.2788
6 16 8 -13.0835 -1.2903
6 16 9 -6.3948 -3.4217
6 16 10 7.7086 15.7740
6 16 11 3.0127 0.5703
6 16 12 -2.0823 -1.0332
6 16 13 -13.2862 -3.7386
6 16 14 0.6792 -5.7165
6 16 15 -9.7994 2.0418
6 16 16 7.1156 11.5809
6 16 17 3.0668 3.9953
6 16 18 1.7350 -1.8832
6 16 19 -5.7275 -6.0884
6 16 20 -3.9557 -4.8919
6 16 21 -3.3671 -3.5104
6 17 0 2.2057 0.0604
6 17 1 7.3468 -0.0578
6 17 2 0.0606 -2.1392
6 17 3 7.4855 4.0802
6 17 4 1.4562 -6.8072
6 17 5 -5.7324 2.9706
6 17 6 0.3634 15.3418
6 17 7 -14.0568 -2.9978
6 17 8 3.0271 4.7957
6 17 9 5.9219 0.6291
6 17 10 -3.9888 -5.9948
6 17 11 0.8138 -1.2906
6 17 12 -7.4261 9.5119
6 17 13 -5.1363 3.2745
6 17 14 1.0406 9.3267
6 17 15 -3.3854 -7.4236
6 17 16 6.4081 1.4676
6 17 17 0.5699 -2.5057
6 17 18 -4.6345 10.5569
6 17 19 -9.4594 0.1303
6 17 20 -1.1006 -0.6308
6 18 0 18.6772 -0.0906
6 18 1 -9.6388 -6.6092
6 18 2 -11.7798 -1.2888
6 18 3 -0.4978 1.8978
6 18 4 14.5472 -7.6291
6 18 5 3.9859 4.2464
6 18 6 6.2397 7.5771
6 18 7 1.8521 -8.9908
6 18 8 -9.6655 6.5590
6 18 9 4.9638 -4.4552
6 18 10 1.4702 -10.2413
6 18 11 -1.7021 6.2945
6 18 12 8.8261 -2.0607
6 18 13 10.4800 4.7855
6 18 14 -8.4850 -5.2579
6 18 15 3.2073 -6.6771
6 18 16 2.6351 -2.0971
6 18 17 8.1217 4.1166
6 18 18 -7.6466 3.9426
6 18 19 3.3216 3.7262
6 19 0 -4.3219 0.0218
6 19 1 3.8938 2.3684
6 19 2 -6.7272 11.8472
6 19 3 1.5789 -7.5148
6 19 4 0.4200 -15.6317
6 19 5 -6.6801 -5.8886
6 19 6 8.2241 9.4653
6 19 7 6.7546 2.0136
6 19 8 -15.5833 -3.6897
6 19 9 6.6226 2.9357
6 19 10 -1.7700 -11.7099
6 19 11 1.4240 -5.1501
6 19 12 10.7921 3.3199
6 19 13 -4.3808 -5.6138
6 19 14 -5.5068 -11.0252
6 19 15 3.7158 4.5249
6 19 16 3.2716 -0.0649
6 19 17 9.1589 -2.2916
6 19 18 1.7220 -3.6262
6 20 0 5.1014 0.0735
6 20 1 7.4223 1.3380
6 20 2 -7.9533 -2.9997
6 20 3 -7.1630 9.3383
6 20 4 -8.7816 -2.6247
6 20 5 3.1184 -3.1916
6 20 6 3.6857 8.1392
6 20 7 3.2726 -1.7020
6 20 8 -9.0822 2.0582
6 20 9 -10.8597 10.8096
6 20 10 6.5023 -10.8131
6 20 11 -7.2153 1.6559
6 20 12 -7.8102 7.9864
6 20 13 0.4798 -3.4117
6 20 14 4.4202 8.4635
6 20 15 -4.9782 -5.5753
6 20 16 3.7700 -7.0145
6 21 0 0.7872 0.1426
6 21 1 1.5413 0.2705
6 21 2 5.4417 -1.6086
6 21 3 -2.7898 8.8642
6 21 4 8.8610 4.0256
6 21 5 0.5801 -2.0605
6 21 6 -0.1763 -2.8663
6 21 7 7.4942 7.0947
6 21 8 -3.0014 2.7881
6 21 9 -2.6953 7.8185
6 21 10 5.2987 10.6203
6 21 11 -10.0951 -7.1846
6 21 12 5.0515 1.2455
6 21 13 -1.4591 5.4425
6 21 14 -7.7666 -0.4189
6 22 0 -6.7072 0.2400
6 22 1 -3.1961 -2.5061
6 22 2 9.9749 -0.7081
6 22 3 4.3840 -8.0132
6 22 4 7.5162 2.8467
6 22 5 -4.1496 -7.1607
6 22 6 -3.6327 -1.6781
6 22 7 8.9364 3.1839
6 22 8 14.7047 -4.5551
6 22 9 -3.7635 3.8158
6 22 10 -5.7526 1.5874
6 22 11 6.0895 0.7360
6 22 12 -4.2797 4.5663
6 22 13 0.8833 -1.3002
6 23 0 -3.3905 0.2065
6 23 1 -1.3378 -0.4720
6 23 2 -3.5704 -8.9870
6 23 3 0.0630 -7.1524
6 23 4 -9.9925 5.5550
6 23 5 4.4682 -4.8109
6 23 6 -3.0877 -3.3711
6 23 7 -0.8799 -3.3021
6 23 8 5.6837 -4.0157
6 23 9 2.5251 -2.6438
6 23 10 6.7770 6.2051
6 24 0 -6.6186 -0.0013
6 24 1 -2.9961 1.7945
6 24 2 -3.6195 1.1281
6 24 3 -6.7516 2.6529
6 24 4 -1.1634 -2.8606
6 24 5 4.4559 8.3509
6 24 6 -5.9983 -7.4728
7 0 1 0.0001 -33.7487
7 0 2 52.4535 0.4731
7 0 3 0.7849 5.4194
7 0 4 -7.2866 -1.1427
7 0 5 -0.0923 43.3994
7 0 6 -45.3961 0.3929
7 0 7 -0.7561 -21.0035
7 0 8 14.7115 0.9396
7 0 9 -0.3467 32.3732
7 0 10 23.7506 0.0032
7 0 11 -0.0873 15.0061
7 0 12 -14.3340 -0.6704
7 0 13 0.8524 2.7270
7 0 14 -40.8117 -0.2253
7 0 15 0.6179 10.6352
7 0 16 6.2554 0.3392
7 0 17 -0.6306 -9.6086
7 0 18 3.5105 0.1002
7 0 19 -1.0328 1.3789
7 0 20 -4.2378 0.1309
7 0 21 0.3263 15.9296
7 0 22 -1.1986 -0.0710
7 0 23 1.0681 -6.4355
7 0 24 13.2211 -0.3858
7 0 25 -0.1228 -7.3201
7 0 26 -10.8935 -0.1829
7 0 27 -0.4527 -2.9679
7 0 28 2.8396 0.3859
7 1 0 0.6231 -40.2829
7 1 1 -11.2099 -40.7633
7 1 2 -3.4678 9.2016
7 1 3 41.1482 -5.6228
7 1 4 9.1451 24.4342
7 1 5 -21.8799 23.0259
7 1 6 31.6443 2.2123
7 1 7 0.5349 29.0313
7 1 8 14.2834 -23.0318
7 1 9 23.5775 -28.3701
7 1 10 13.5064 13.5253
7 1 11 -19.2127 7.6926
7 1 12 28.7553 15.1910
7 1 13 2.5555 21.5325
7 1 14 6.8452 0.9838
7 1 15 -7.2853 25.4995
7 1 16 1.1098 -18.9188
7 1 17 -6.0078 -11.7738
7 1 18 8.0802 8.5200
7 1 19 12.9101 9.7023
7 1 20 -0.8157 -0.5433
7 1 21 -5.8854 -0.2991
7 1 22 -0.3783 -7.3379
7 1 23 -14.2337 6.5735
7 1 24 -11.0594 1.9751
7 1 25 3.5588 4.8414
7 1 26 -13.4059 8.2953
7 1 27 0.5915 5.4161
7 1 28 -12.0801 -17.0221
7 2 0 -0.3062 -5.4289
7 2 1 -24.8552 -21.5991
7 2 2 -3.2896 -0.4276
7 2 3 34.9994 11.2370
7 2 4 2.5797 -27.1619
7 2 5 24.9035 0.2298
7 2 6 14.8894 1.2900
7 2 7 -24.6238 -37.8678
7 2 8 -5.6914 9.2592
7 2 9 -5.3222 3.4960
7 2 10 -4.0594 -19.5552
7 2 11 25.7272 -1.7131
7 2 12 14.0321 5.4034
7 2 13 18.0710 -15.7071
7 2 14 12.3203 19.9074
7 2 15 -22.7535 4.3811
7 2 16 -3.0218 -7.6687
7 2 17 -6.8334 -11.5451
7 2 18 9.8715 -6.1934
7 2 19 4.9266 -4.6289
7 2 20 -8.1927 1.5876
7 2 21 -5.1640 11.5329
7 2 22 0.5641 4.0964
7 2 23 -0.3788 -7.6418
7 2 24 5.8139 10.2877
7 2 25 1.7042 0.0041
7 2 26 -9.7191 -5.7109
7 2 27 -7.1862 4.5863
7 2 28 -7.0589 -2.0260
7 3 0 0.5763 25.0118
7 3 1 -5.2149 -5.2411
7 3 2 -6.3097 -14.3979
7 3 3 -11.4601 -21.4288
7 3 4 -6.5335 -22.2071
7 3 5 -30.4033 8.6073
7 3 6 -1.9926 -11.2833
7 3 7 5.2299 -5.0210
7 3 8 -31.7904 38.5979
7 3 9 7.2573 -0.8877
7 3 10 -11.1054 -31.0291
7 3 11 -12.1576 -22.4739
7 3 12 11.7677 -20.3616
7 3 13 11.6404 5.4464
7 3 14 -19.2123 14.1549
7 3 15 8.5596 0.4931
7 3 16 -18.4061 13.7765
7 3 17 -5.8633 -8.0137
7 3 18 -0.2982 -6.8530
7 3 19 9.0051 -8.3325
7 3 20 7.4023 12.4430
7 3 21 6.3606 5.8578
7 3 22 4.9791 -6.4668
7 3 23 9.3114 -13.0775
7 3 24 3.0438 5.1734
7 3 25 10.1458 3.2761
7 3 26 0.8945 6.3549
7 3 27 0.2899 -3.1518
7 3 28 13.6781 0.7311
7 4 0 0.0725 8.4718
7 4 1 -5.3840 12.3663
7 4 2 -9.4655 3.8142
7 4 3 -12.9182 9.8610
7 4 4 -12.9427 24.5075
7 4 5 -16.1690 -12.2796
7 4 6 28.6729 14.4370
7 4 7 16.8334 7.5410
7 4 8 -0.8092 0.1591
7 4 9 -12.5422 12.6755
7 4 10 -34.8052 -16.4169
7 4 11 -22.5677 -6.3971
7 4 12 18.1254 9.9329
7 4 13 4.5664 -6.1077
7 4 14 12.4808 5.1730
7 4 15 13.7901 12.6734
7 4 16 -17.9092 -2.1175
7 4 17 -7.8243 10.8477
7 4 18 0.6961 -5.5916
7 4 19 12.6472 -9.3133
7 4 20 1.6340 3.1645
7 4 21 2.5283 -7.3586
7 4 22 -6.5930 -3.6511
7 4 23 0.4977 1.9195
7 4 24 4.1828 -2.3229
7 4 25 5.2543 5.6234
7 4 26 5.2870 -0.1620
7 4 27 5.0112 4.1180
7 5 0 1.0111 -19.8975
7 5 1 19.0767 3.8487
7 5 2 15.9345 30.2105
7 5 3 -2.7984 9.1266
7 5 4 10.3019 -5.3569
7 5 5 32.2854 -6.7715
7 5 6 -15.3762 -8.6640
7 5 7 11.5353 -16.5452
7 5 8 4.9697 16.9811
7 5 9 -18.9669 35.6579
7 5 10 14.4424 18.0555
7 5 11 1.4979 -6.0944
7 5 12 0.2350 -21.3764
7 5 13 2.9388 -23.2994
7 5 14 1.0609 16.9879
7 5 15 5.6866 7.8027
7 5 16 12.3722 -8.3548
7 5 17 -10.6392 8.1695
7 5 18 1.3322 -4.1378
7 5 19 -18.7334 -11.3243
7 5 20 -6.8093 -4.6730
7 5 21 2.1740 12.0631
7 5 22 -10.2296 0.4877
7 5 23 -5.7346 4.5735
7 5 24 5.8073 -11.4509
7 5 25 -7.5695 -5.5791
7 5 26 -0.6417 -0.9752
7 5 27 -1.7510 3.6195
7 6 0 0.0461 -17.5670
7 6 1 1.5589 8.6430
7 6 2 14.6351 -14.4706
7 6 3 17.1871 -22.8921
7 6 4 -21.9718 -0.0803
7 6 5 -13.3205 5.0659
7 6 6 -2.4628 -10.5226
7 6 7 12.0611 34.2808
7 6 8 22.9965 -16.3612
7 6 9 26.0355 -9.4741
7 6 10 -11.8212 16.6803
7 6 11 -21.3469 -7.5345
7 6 12 -9.6523 3.2626
7 6 13 8.4882 8.0748
7 6 14 -3.4584 -19.2311
7 6 15 8.7724 -4.9392
7 6 16 1.2751 1.9902
7 6 17 -12.6828 3.9678
7 6 18 -0.6877 12.1981
7 6 19 -1.9847 3.1379
7 6 20 0.9342 2.7642
7 6 21 5.5788 -3.6965
7 6 22 3.7025 -9.6361
7 6 23 -17.5541 10.7712
7 6 24 -0.8271 -3.2537
7 6 25 -0.9234 -10.6574
7 6 26 -5.2057 0.7622
7 6 27 -1.5354 3.1661
7 7 0 0.9418 -3.3625
7 7 1 -24.6476 -25.9745
7 7 2 -14.3775 -4.8478
7 7 3 -5.7175 12.7467
7 7 4 7.4374 9.7934
7 7 5 12.8365 8.7536
7 7 6 2.3206 -21.2337
7 7 7 -22.4467 -20.6446
7 7 8 18.8443 1.0883
7 7 9 -15.2472 -4.4773
7 7 10 6.0142 3.5001
7 7 11 18.2780 24.0393
7 7 12 -23.0165 8.6589
7 7 13 -5.9664 -4.9370
7 7 14 6.1540 -14.3640
7 7 15 -9.0762 14.5280
7 7 16 9.1982 6.1163
7 7 17 16.6553 -1.4533
7 7 18 -2.4977 2.5934
7 7 19 9.2014 -0.8567
7 7 20 -4.5393 -1.9874
7 7 21 3.1740 8.4315
7 7 22 2.0158 0.5081
7 7 23 5.4342 -4.9436
7 7 24 2.0486 15.7106
7 7 25 -1.9322 -0.9720
7 7 26 2.4736 -2.8931
7 7 27 10.9236 6.4695
7 8 0 0.1063 48.6850
7 8 1 -9.1782 -13.1538
7 8 2 -1.1766 -4.5668
7 8 3 13.7213 -4.8815
7 8 4 5.6586 -17.2683
7 8 5 -18.1564 -1.1504
7 8 6 -0.9031 13.3594
7 8 7 -14.5733 -7.5478
7 8 8 -6.8478 -1.7154
7 8 9 16.1301 -25.7530
7 8 10 14.6745 21.3338
7 8 11 8.4625 0.7870
7 8 12 0.0681 -6.9649
7 8 13 -6.5223 9.9927
7 8 14 4.1503 -6.6405
7 8 15 -3.6275 -11.3925
7 8 16 5.5648 13.1303
7 8 17 1.3896 -11.3783
7 8 18 -4.8728 -6.2760
7 8 19 10.3875 7.3077
7 8 20 -2.4735 -1.8398
7 8 21 -5.3433 1.0697
7 8 22 8.5167 4.3181
7 8 23 4.7260 -4.0397
7 8 24 -7.0095 -1.9017
7 8 25 14.9214 2.5975
7 8 26 5.1108 8.2252
7 9 0 0.7396 11.3167
7 9 1 12.2476 1.1618
7 9 2 -43.2678 -7.7284
7 9 3 3.5662 -5.4952
7 9 4 22.0777 2.0492
7 9 5 -10.5345 12.2145
7 9 6 -4.7024 16.9911
7 9 7 5.5650 -13.1667
7 9 8 -13.8022 -7.7589
7 9 9 15.1636 -5.5424
7 9 10 -3.7522 -16.4727
7 9 11 9.9323 -9.1300
7 9 12 -16.8525 2.3610
7 9 13 -4.7521 7.3770
7 9 14 13.4100 1.2014
7 9 15 0.1551 -15.5707
7 9 16 -8.6329 4.5622
7 9 17 -2.0590 -6.9758
7 9 18 -12.8022 -2.5226
7 9 19 -0.1824 0.5428
7 9 20 12.5055 -5.5264
7 9 21 -9.1702 0.4830
7 9 22 -4.5190 1.5715
7 9 23 -4.6614 -10.7439
7 9 24 3.2888 -10.2377
7 9 25 4.2177 3.2620
7 9 26 8.5203 -5.5998
7 10 0 0.1135 31.4685
7 10 1 -0.6202 15.6344
7 10 2 -8.4958 -18.2084
7 10 3 1.1333 22.6619
7 10 4 11.6283 -5.7867
7 10 5 4.8481 -7.5693
7 10 6 -8.6821 22.0419
7 10 7 1.8720 -5.8046
7 10 8 -16.6088 -12.0348
7 10 9 -10.1756 19.3235
7 10 10 -5.0898 -0.9305
7 10 11 -1.3103 14.0024
7 10 12 6.7274 -5.5236
7 10 13 1.2457 -2.1502
7 10 14 -0.8122 -9.0849
7 10 15 -4.4882 4.0715
7 10 16 -5.8190 11.8069
7 10 17 4.3211 9.7015
7 10 18 -3.7317 -5.7493
7 10 19 -2.7780 -1.5024
7 10 20 6.6087 -8.2348
7 10 21 -3.5340 3.5802
7 10 22 -3.2247 7.8764
7 10 23 -8.5479 -4.9586
7 10 24 2.4120 -14.3389
7 10 25 -5.8097 -3.4514
7 11 0 0.4229 5.1168
7 11 1 14.3427 -3.3813
7 11 2 4.1074 0.6059
7 11 3 -14.7759 4.0939
7 11 4 16.0204 -6.5895
7 11 5 -12.1082 -7.2229
7 11 6 -11.1255 11.7567
7 11 7 16.6653 15.0411
7 11 8 1.5180 -0.6335
7 11 9 1.1676 11.5923
7 11 10 17.2038 4.3497
7 11 11 -18.7612 2.0328
7 11 12 -1.2901 -3.8877
7 11 13 -6.0346 -4.4868
7 11 14 7.4291 4.8451
7 11 15 4.8287 14.3104
7 11 16 12.5749 1.8798
7 11 17 0.9239 4.9801
7 11 18 -3.9156 -5.8084
7 11 19 -2.9716 6.5623
7 11 20 0.3618 -1.7092
7 11 21 2.2791 3.0924
7 11 22 -0.6995 1.8454
7 11 23 -3.0535 10.2039
7 11 24 -6.1707 7.7624
7 11 25 6.3297 -15.0055
7 12 0 0.0807 -24.0018
7 12 1 3.9430 3.6594
7 12 2 -2.7445 -1.7527
7 12 3 -2.6426 0.0546
7 12 4 4.1011 15.3376
7 12 5 -2.6463 -10.9983
7 12 6 4.0271 -7.5761
7 12 7 13.3246 -7.1774
7 12 8 6.8974 -17.8830
7 12 9 4.8477 4.2698
7 12 10 6.6289 5.1080
7 12 11 -14.4133 -4.8656
7 12 12 -8.2609 9.3499
7 12 13 10.0413 -11.0475
7 12 14 3.6925 -5.1467
7 12 15 7.4190 -6.8450
7 12 16 3.8362 -2.0308
7 12 17 -5.4806 -4.2723
7 12 18 -7.6012 7.8961
7 12 19 -4.7455 4.1573
7 12 20 1.5017 3.5274
7 12 21 3.7561 1.5669
7 12 22 8.3232 -3.8157
7 12 23 -4.3363 -3.9228
7 12 24 -6.4618 6.1006
7 13 0 0.4929 1.4185
7 13 1 -9.3916 -0.5808
7 13 2 20.9816 -7.7795
7 13 3 2.9339 5.5594
7 13 4 -12.1165 8.9531
7 13 5 3.8040 -7.5171
7 13 6 -11.7750 -7.0620
7 13 7 -8.3578 -14.7792
7 13 8 4.1375 -11.3003
7 13 9 0.5668 8.8316
7 13 10 3.2771 4.7561
7 13 11 4.0631 -2.6384
7 13 12 -6.7280 8.9075
7 13 13 5.2121 -12.7222
7 13 14 -13.9239 -19.8358
7 13 15 -1.0228 0.9426
7 13 16 -4.2362 8.3611
7 13 17 4.9681 1.7317
7 13 18 5.7372 8.7301
7 13 19 10.0527 -4.1770
7 13 20 -6.2792 -8.8896
7 13 21 -9.5363 -9.4821
7 13 22 2.4075 7.1498
7 13 23 -1.9711 -6.2448
7 13 24 2.9065 5.9569
7 14 0 0.0147 -11.2130
7 14 1 -3.5014 -7.0019
7 14 2 4.9802 13.2158
7 14 3 4.5185 -9.4583
7 14 4 3.1078 7.4815
7 14 5 -5.2674 15.2348
7 14 6 -21.1717 -1.1689
7 14 7 -0.7817 10.5031
7 14 8 1.5448 10.0034
7 14 9 1.5484 -8.7386
7 14 10 14.5255 1.4695
7 14 11 -2.4210 -0.1204
7 14 12 -10.7639 3.7374
7 14 13 -2.9170 11.7994
7 14 14 -3.6422 2.9448
7 14 15 0.5417 4.8354
7 14 16 20.5969 -7.9763
7 14 17 3.4811 -5.6889
7 14 18 -4.3687 -4.1560
7 14 19 -2.2294 3.1290
7 14 20 0.5679 0.9947
7 14 21 -7.0881 7.5401
7 14 22 2.1071 -0.7735
7 14 23 11.0126 -8.7526
7 15 0 0.4137 2.0118
7 15 1 0.3636 -4.3961
7 15 2 -1.7304 -0.9030
7 15 3 6.3448 -9.2222
7 15 4 -7.4273 3.6246
7 15 5 16.1134 13.1484
7 15 6 12.6058 7.1894
7 15 7 -4.5947 8.4576
7 15 8 -1.8570 -13.9077
7 15 9 -7.3869 -4.7537
7 15 10 -10.1571 6.7179
7 15 11 10.4137 -0.5006
7 15 12 7.6947 5.7035
7 15 13 -3.7924 9.1522
7 15 14 4.0680 -4.8562
7 15 15 -10.2238 -3.1629
7 15 16 -0.5089 -5.2388
7 15 17 -4.1819 -3.5381
7 15 18 3.3303 8.1487
7 15 19 -1.1378 10.4195
7 15 20 4.6412 0.0909
7 15 21 -2.4781 0.2292
7 15 22 -0.7473 2.6006
7 16 0 -0.3694 -1.0150
7 16 1 -4.3416 8.2433
7 16 2 -10.3663 1.1330
7 16 3 2.3826 -3.8603
7 16 4 4.0141 -16.1653
7 16 5 11.6680 -10.2628
7 16 6 5.6955 -9.1904
7 16 7 -9.7873 12.5827
7 16 8 1.3867 7.2234
7 16 9 -8.3735 -7.5769
7 16 10 -2.2752 -5.9543
7 16 11 10.1317 2.1481
7 16 12 -1.4865 -13.7527
7 16 13 0.8682 4.6045
7 16 14 -3.1588 8.1991
7 16 15 -8.3756 -5.8044
7 16 16 -4.5024 -0.8369
7 16 17 3.1926 1.4648
7 16 18 2.0739 3.5967
7 16 19 6.5932 -0.8198
7 16 20 -1.3734 2.0430
7 16 21 -2.9487 -3.9406
7 17 0 0.2605 11.7861
7 17 1 3.9524 1.5846
7 17 2 0.0271 -1.8149
7 17 3 -22.1951 1.3517
7 17 4 -5.2700 -11.2396
7 17 5 2.4904 -4.4470
7 17 6 9.9573 -2.8608
7 17 7 -0.0645 4.3862
7 17 8 8.7222 10.8350
7 17 9 -2.8167 -9.3802
7 17 10 -6.2084 0.4183
7 17 11 4.0037 -1.8492
7 17 12 9.0165 -9.2700
7 17 13 -5.9290 4.5889
7 17 14 -0.4699 4.3911
7 17 15 6.4619 -0.5115
7 17 16 -2.6470 -0.2886
7 17 17 6.5124 -7.3633
7 17 18 2.7084 -5.7481
7 17 19 0.5283 -2.3715
7 17 20 -5.5887 1.6876
7 18 0 -0.2094 -2.6934
7 18 1 5.8062 12.8751
7 18 2 -5.4493 4.4561
7 18 3 -3.1365 1.5966
7 18 4 0.9345 8.0760
7 18 5 -5.1409 -5.0907
7 18 6 4.9915 -4.4946
7 18 7 2.1786 -1.6455
7 18 8 1.7928 8.9992
7 18 9 4.1211 -1.3364
7 18 10 -9.6524 0.7379
7 18 11 2.5105 2.5085
7 18 12 4.7856 8.3540
7 18 13 -3.1038 -4.1516
7 18 14 8.9945 2.0083
7 18 15 -2.1458 -3.4194
7 18 16 -5.1865 -3.2130
7 18 17 -1.1363 -1.2427
7 18 18 2.4761 -1.6133
7 19 0 0.3347 6.6042
7 19 1 5.1579 2.8247
7 19 2 3.7072 -4.2803
7 19 3 4.3996 2.8143
7 19 4 -2.8016 3.2247
7 19 5 -0.1154 0.2975
7 19 6 -7.8388 3.9108
7 19 7 1.7861 -6.9461
7 19 8 -6.2061 2.9260
7 19 9 4.4978 5.4145
7 19 10 3.6394 -3.2877
7 19 11 -2.7218 5.4449
7 19 12 -6.2558 -2.4733
7 19 13 -0.3572 0.1035
7 19 14 -6.4656 6.4909
7 19 15 -4.1058 -1.2594
7 19 16 -2.1228 4.8752
7 19 17 -4.1355 1.6566
7 20 0 -0.4439 -0.8315
7 20 1 -0.1052 -3.0451
7 20 2 -3.1858 -2.9257
7 20 3 -2.5077 -2.6370
7 20 4 5.7629 -3.2788
7 20 5 -2.0158 5.6019
7 20 6 -4.2558 7.5164
7 20 7 4.7480 -4.0813
7 20 8 -6.4806 -16.1114
7 20 9 2.6030 3.8435
7 20 10 3.9819 1.6378
7 20 11 -3.8089 -1.7156
7 20 12 2.5271 2.4146
7 20 13 -1.0424 6.6095
7 20 14 -0.7121 -1.8358
7 20 15 3.4109 2.5317
7 20 16 -2.1370 2.5809
7 21 0 0.3738 -0.2216
7 21 1 -6.5835 1.3892
7 21 2 -5.2471 -2.3544
7 21 3 -1.3477 1.4390
7 21 4 11.6260 -1.1255
7 21 5 -1.4061 -7.1625
7 21 6 -0.7139 2.5903
7 21 7 -2.3019 2.7837
7 21 8 2.4476 -11.6478
7 21 9 -1.9733 1.9125
7 21 10 12.3218 -4.1966
7 21 11 5.9685 -3.9610
7 21 12 2.5308 3.4139
7 21 13 4.0491 -2.1503
7 21 14 5.1185 -4.5044
7 22 0 -0.4032 6.9523
7 22 1 2.4678 -0.8289
7 22 2 2.2682 -3.0875
7 22 3 -2.4303 1.4133
7 22 4 -0.3079 1.0700
7 22 5 2.1295 -4.6632
7 22 6 -6.9380 2.2011
7 22 7 1.3601 3.5633
7 22 8 0.2867 0.1899
7 22 9 -10.6847 -8.2766
7 22 10 7.1943 -1.0970
7 22 11 2.3752 -2.4666
7 22 12 -1.6930 0.0064
7 23 0 0.3534 0.9565
7 23 1 3.3730 -0.3862
7 23 2 0.3774 2.4971
7 23 3 0.0750 1.2176
7 23 4 -5.0256 6.3174
7 23 5 1.2189 1.5344
7 23 6 -4.5573 0.6408
7 23 7 -1.7375 11.5620
7 23 8 -4.8511 0.0874
7 23 9 -2.3766 -3.9389
7 24 0 -0.8877 -3.3872
7 24 1 1.1826 1.6129
7 24 2 0.4424 1.0597
7 24 3 1.2162 -1.8263
7 24 4 -0.8023 4.8394
7 24 5 5.0878 6.1746
8 0 0 -34.4735 1.8254
8 0 1 -0.2230 -5.7169
8 0 2 -1.6117 -0.3283
8 0 3 0.3001 -18.1040
8 0 4 -5.1766 -2.3082
8 0 5 0.2336 -55.3279
8 0 6 -25.8707 -0.0120
8 0 7 -0.6285 22.1047
8 0 8 19.8436 0.4716
8 0 9 0.0065 16.3342
8 0 10 -26.2438 0.4925
8 0 11 0.6546 -60.6907
8 0 12 6.2114 0.0515
8 0 13 0.0145 0.2625
8 0 14 21.5059 0.0517
8 0 15 -0.4508 25.8550
8 0 16 -6.7029 -0.6642
8 0 17 -0.2392 -8.0946
8 0 18 -6.4761 -0.4567
8 0 19 0.4054 3.8101
8 0 20 11.1247 0.8314
8 0 21 0.1913 8.4555
8 0 22 1.2488 0.7356
8 0 23 -0.1881 -10.4523
8 0 24 13.4066 -0.4966
8 0 25 -0.0234 3.6911
8 0 26 -2.4598 -0.8142
8 0 27 0.1067 0.0166
8 1 0 17.5862 0.0039
8 1 1 5.6539 7.9747
8 1 2 -19.8444 -17.4899
8 1 3 -16.9783 10.9697
8 1 4 -25.7162 13.7159
8 1 5 -0.2147 3.1989
8 1 6 -11.5421 -15.9000
8 1 7 37.0446 2.5297
8 1 8 31.4826 2.8975
8 1 9 -33.9802 4.0844
8 1 10 -28.7619 5.9737
8 1 11 -0.7597 -7.3335
8 1 12 -21.9028 -24.9287
8 1 13 32.1198 -3.5689
8 1 14 9.6066 8.6197
8 1 15 -6.2968 -11.4463
8 1 16 16.5731 13.5181
8 1 17 -5.3397 -0.9885
8 1 18 -8.5892 -8.3779
8 1 19 11.4001 -2.3792
8 1 20 9.8207 -0.6001
8 1 21 -8.3410 -7.0197
8 1 22 -2.8786 -1.9887
8 1 23 -0.7270 -11.6909
8 1 24 2.3407 1.9669
8 1 25 2.5010 -4.3669
8 1 26 -3.2452 5.4560
8 1 27 -1.8827 -2.2461
8 2 0 -6.3377 2.0796
8 2 1 7.8018 5.9879
8 2 2 16.9882 16.7209
8 2 3 -8.0419 41.0087
8 2 4 9.0189 5.2077
8 2 5 -10.8481 -0.7020
8 2 6 8.1585 -37.8033
8 2 7 7.1313 -0.9876
8 2 8 8.9874 5.1070
8 2 9 -6.8722 20.5600
8 2 10 -7.4218 29.2407
8 2 11 -10.8048 -1.9420
8 2 12 2.3870 -28.6992
8 2 13 -1.6277 11.6799
8 2 14 11.3128 -29.5906
8 2 15 1.4185 -1.5584
8 2 16 -7.3977 13.2545
8 2 17 11.8513 -10.7149
8 2 18 -5.4159 -6.0258
8 2 19 -5.7619 3.8086
8 2 20 -0.1028 -7.2729
8 2 21 -11.3565 1.5495
8 2 22 -6.3722 1.4772
8 2 23 5.3102 -2.6516
8 2 24 -2.8436 0.5768
8 2 25 4.7899 -1.5430
8 2 26 -2.7116 -4.3940
8 2 27 5.7001 2.0505
8 3 0 -3.2194 -0.1530
8 3 1 30.1416 -6.9742
8 3 2 20.4069 -3.6312
8 3 3 -3.0271 12.1898
8 3 4 -4.5203 4.4614
8 3 5 -26.2678 -23.2224
8 3 6 -7.9113 12.9099
8 3 7 -10.7935 -3.9721
8 3 8 22.0913 4.8029
8 3 9 20.3396 17.7654
8 3 10 -0.5069 3.6009
8 3 11 -14.1889 -4.3996
8 3 12 -18.4399 5.7797
8 3 13 -16.5777 -3.7492
8 3 14 18.5830 3.3805
8 3 15 -21.3332 -5.4528
8 3 16 -0.7545 -4.7526
8 3 17 13.9192 4.8223
8 3 18 -8.9091 1.0098
8 3 19 -7.8411 19.3698
8 3 20 1.7825 2.8541
8 3 21 2.5757 -3.5710
8 3 22 4.9276 9.3918
8 3 23 -1.0989 -2.7951
8 3 24 -6.2385 -12.6482
8 3 25 4.0726 6.9072
8 3 26 -3.1525 -2.7154
8 3 27 4.7278 2.2882
8 4 0 -6.5168 1.3407
8 4 1 6.0889 -17.1235
8 4 2 -6.6847 -16.5860
8 4 3 -5.9715 5.2845
8 4 4 4.0198 27.2731
8 4 5 -6.2863 1.6017
8 4 6 -13.6637 10.0014
8 4 7 36.9106 -22.2219
8 4 8 -9.6369 -11.0071
8 4 9 -9.3971 -6.3674
8 4 10 11.3843 14.7762
8 4 11 -0.2727 13.1666
8 4 12 -2.0106 11.3748
8 4 13 -0.2930 1.4561
8 4 14 -20.6979 15.7321
8 4 15 4.1014 -16.1529
8 4 16 4.2737 11.9515
8 4 17 4.3572 0.7338
8 4 18 10.0941 4.2792
8 4 19 4.0949 6.6636
8 4 20 7.6245 5.7122
8 4 21 -7.5842 -7.7212
8 4 22 -10.2330 3.9003
8 4 23 9.6511 3.9626
8 4 24 -4.9801 10.3156
8 4 25 -7.5299 -1.8198
8 4 26 8.3406 -5.9914
8 4 27 1.3516 -0.9953
8 5 0 -21.1282 -0.2473
8 5 1 -8.5480 6.2562
8 5 2 16.1209 -2.0403
8 5 3 16.5924 -3.8528
8 5 4 16.2150 1.9403
8 5 5 1.5000 -14.2052
8 5 6 -17.3383 -7.8863
8 5 7 7.1163 10.0748
8 5 8 -3.5536 -23.6672
8 5 9 0.3583 9.9661
8 5 10 15.2958 -7.1298
8 5 11 21.0626 -8.8922
8 5 12 6.3870 22.0700
8 5 13 0.9517 4.2132
8 5 14 -4.5506 -9.5824
8 5 15 13.0508 6.9636
8 5 16 -12.0376 -14.3568
8 5 17 5.3756 -7.0068
8 5 18 10.4387 -1.1896
8 5 19 2.1617 -4.8992
8 5 20 -7.7796 9.4071
8 5 21 -1.3657 -0.4601
8 5 22 0.4840 -1.3208
8 5 23 1.7181 4.1775
8 5 24 0.7794 -2.4314
8 5 25 -6.6277 1.8500
8 5 26 -4.4048 -5.1200
8 5 27 -3.4188 -11.8340
8 6 0 14.9667 1.4774
8 6 1 -15.8689 1.2880
8 6 2 0.2240 -17.5834
8 6 3 -6.2902 -8.6668
8 6 4 -11.3612 9.4298
8 6 5 12.3844 2.3893
8 6 6 -4.1844 -3.9758
8 6 7 -20.2190 15.2113
8 6 8 7.9785 -11.0043
8 6 9 -6.6374 -9.1735
8 6 10 22.0522 -11.4462
8 6 11 -1.8459 -12.3304
8 6 12 -3.2554 -9.4694
8 6 13 11.1570 2.6520
8 6 14 -8.4145 -1.6012
8 6 15 -8.9894 10.5100
8 6 16 7.9797 -18.8361
8 6 17 -13.3327 -1.4966
8 6 18 1.8002 -11.0487
8 6 19 5.6202 -1.1120
8 6 20 -6.9112 2.4874
8 6 21 5.1152 6.8461
8 6 22 2.2283 -16.1207
8 6 23 -3.4563 0.6421
8 6 24 0.2679 -4.8493
8 6 25 -5.6136 -3.2407
8 6 26 -1.1719 2.4217
8 7 0 -17.4995 -0.0535
8 7 1 -1.1207 11.9169
8 7 2 -8.6158 28.1011
8 7 3 -7.0450 -14.7730
8 7 4 1.2752 -7.8754
8 7 5 7.3361 33.2487
8 7 6 -14.8571 -0.3880
8 7 7 -9.2257 -1.6536
8 7 8 8.3176 3.8146
8 7 9 -18.4411 -23.0994
8 7 10 -26.3957 10.2913
8 7 11 -7.9665 -0.8663
8 7 12 2.0622 7.4473
8 7 13 8.9818 -2.3562
8 7 14 0.9200 -7.5040
8 7 15 -10.0410 3.9192
8 7 16 0.0225 8.1314
8 7 17 -12.0827 -1.5039
8 7 18 2.5206 10.4940
8 7 19 8.4821 -9.9364
8 7 20 5.6782 -6.9879
8 7 21 2.3501 9.5554
8 7 22 -9.5198 -1.7934
8 7 23 -9.7658 -2.3314
8 7 24 11.1100 4.6454
8 7 25 11.9704 2.6562
8 7 26 -1.7616 2.0189
8 8 0 25.0614 1.2526
8 8 1 -7.9175 7.4390
8 8 2 -2.1447 -8.8837
8 8 3 24.9772 2.6075
8 8 4 -9.6927 10.5749
8 8 5 -1.8052 0.9937
8 8 6 23.6603 -6.1602
8 8 7 -28.3495 4.3372
8 8 8 -11.0140 16.7505
8 8 9 17.7638 10.4809
8 8 10 -3.8742 20.4533
8 8 11 13.1544 -1.8927
8 8 12 -12.9833 -15.1105
8 8 13 -10.9923 -2.3164
8 8 14 7.0183 6.4717
8 8 15 13.4924 4.9424
8 8 16 3.2163 16.3512
8 8 17 1.7503 -6.4115
8 8 18 -5.0322 -0.6133
8 8 19 2.6892 -5.3463
8 8 20 -5.8885 10.2772
8 8 21 2.8114 9.2455
8 8 22 9.0500 10.6157
8 8 23 -3.0218 -0.8164
8 8 24 -4.8829 -2.4109
8 8 25 4.0442 -7.6308
8 8 26 3.8397 5.9405
8 9 0 -7.6666 0.2149
8 9 1 1.8236 -18.9801
8 9 2 26.5342 -3.1131
8 9 3 -2.4139 -2.7457
8 9 4 1.0295 -9.8846
8 9 5 1.0511 14.6425
8 9 6 9.8684 7.2985
8 9 7 8.2249 -18.4346
8 9 8 20.9631 14.1761
8 9 9 18.3669 -13.4330
8 9 10 -0.9001 -9.7971
8 9 11 -6.1867 28.5041
8 9 12 -12.0111 -7.4303
8 9 13 -4.0419 -4.5547
8 9 14 21.0597 -1.9251
8 9 15 5.1477 -6.3074
8 9 16 -10.2000 -5.1213
8 9 17 2.5455 9.5177
8 9 18 -2.9979 -0.3260
8 9 19 -1.3415 4.3155
8 9 20 7.3134 -4.7719
8 9 21 3.1430 -1.5535
8 9 22 -5.6012 -0.4313
8 9 23 -7.3351 4.9914
8 9 24 -0.3617 0.1497
8 9 25 -10.7221 -5.2577
8 10 0 -28.1409 0.9307
8 10 1 0.4647 -7.8204
8 10 2 -3.8728 -6.9181
8 10 3 7.2721 -3.7081
8 10 4 15.3412 13.4514
8 10 5 -6.7462 -3.5169
8 10 6 -8.7339 -13.1915
8 10 7 -3.5908 -17.8458
8 10 8 -6.3606 -9.4637
8 10 9 20.1112 -3.4424
8 10 10 -13.4523 12.0800
8 10 11 -6.1394 21.2000
8 10 12 15.1605 -8.0076
8 10 13 -14.6459 -8.0481
8 10 14 -6.2375 0.1431
8 10 15 3.0694 -7.6387
8 10 16 -4.3437 -1.0928
8 10 17 -1.8652 9.1774
8 10 18 5.1738 -12.0680
8 10 19 -5.8920 -0.2020
8 10 20 1.3489 -3.6976
8 10 21 1.3113 -3.1401
8 10 22 -2.6730 -5.6351
8 10 23 -1.9896 7.6073
8 10 24 3.0359 -4.9297
8 10 25 -4.9448 -1.1017
8 11 0 -19.8246 0.0601
8 11 1 -5.6918 15.0038
8 11 2 -3.9030 -27.2795
8 11 3 13.0919 -3.8105
8 11 4 -2.9794 14.4827
8 11 5 -12.5254 4.0434
8 11 6 -27.3631 4.8314
8 11 7 -8.0658 -1.5476
8 11 8 -0.1575 -5.3066
8 11 9 14.2054 10.4605
8 11 10 0.8359 -7.2287
8 11 11 6.4919 3.6799
8 11 12 1.0483 -2.8767
8 11 13 -17.8402 -7.4663
8 11 14 -6.7989 13.5868
8 11 15 14.1013 0.4056
8 11 16 -5.2923 0.9227
8 11 17 -0.2812 -0.0337
8 11 18 7.1298 -6.8807
8 11 19 -0.4913 -8.2121
8 11 20 -2.0061 11.5648
8 11 21 1.6585 1.9189
8 11 22 3.2683 -4.7399
8 11 23 5.2551 -0.0470
8 11 24 6.8349 7.4958
8 12 0 -15.1903 0.8748
8 12 1 -11.8740 5.3032
8 12 2 14.6546 -15.3639
8 12 3 -13.8635 -2.3888
8 12 4 8.8298 9.7913
8 12 5 15.2632 18.0232
8 12 6 -3.6498 10.3833
8 12 7 3.3576 -2.4607
8 12 8 5.8010 -14.3268
8 12 9 -4.7099 -9.2500
8 12 10 6.2031 -10.5122
8 12 11 -11.4077 8.2315
8 12 12 3.9209 4.5342
8 12 13 11.0611 -2.5702
8 12 14 11.1958 5.4543
8 12 15 5.0377 -2.3292
8 12 16 -10.3870 -11.4719
8 12 17 -3.6665 3.6496
8 12 18 2.6924 1.9139
8 12 19 2.1158 -3.1433
8 12 20 2.0177 5.7453
8 12 21 5.9492 4.5319
8 12 22 -1.5919 2.1018
8 12 23 -1.4600 -7.0229
8 13 0 -1.3005 -0.0346
8 13 1 -7.7869 6.5507
8 13 2 3.2737 3.2434
8 13 3 -7.4993 -13.4349
8 13 4 21.6126 2.8979
8 13 5 20.4398 -15.4255
8 13 6 -1.7712 -6.3389
8 13 7 -15.1504 10.2492
8 13 8 -7.2636 1.0000
8 13 9 -3.2859 4.6174
8 13 10 6.7046 10.8722
8 13 11 -5.1517 -11.3728
8 13 12 9.4092 -4.6399
8 13 13 2.4445 -5.5848
8 13 14 -4.3413 0.0742
8 13 15 -4.8581 7.7850
8 13 16 -1.5242 3.9115
8 13 17 -9.6215 4.7438
8 13 18 4.8987 -4.3027
8 13 19 -0.5276 -1.3360
8 13 20 4.7840 -4.3058
8 13 21 -1.3145 3.2654
8 13 22 0.4178 -3.7694
8 13 23 -8.7309 -4.7543
8 14 0 9.9420 0.6271
8 14 1 -3.1505 10.3092
8 14 2 -3.8039 3.9664
8 14 3 -5.6525 -21.1804
8 14 4 -18.2103 -3.6121
8 14 5 -1.8162 -3.1992
8 14 6 1.2646 4.1361
8 14 7 13.5575 18.0365
8 14 8 3.9751 6.5343
8 14 9 -8.8591 0.9588
8 14 10 -6.6571 3.5957
8 14 11 0.9819 -4.7299
8 14 12 -12.7059 4.2230
8 14 13 5.0068 0.5369
8 14 14 0.5838 3.8283
8 14 15 0.3246 7.5087
8 14 16 2.7698 7.3797
8 14 17 -1.1331 1.2359
8 14 18 -4.9589 -3.0831
8 14 19 -1.1459 -13.8587
8 14 20 2.3084 -2.9649
8 14 21 -7.1119 1.2240
8 14 22 -1.2217 6.0688
8 15 0 7.8200 0.1466
8 15 1 -12.9909 -3.2245
8 15 2 -0.2387 15.9456
8 15 3 1.8797 10.1493
8 15 4 -21.6070 -4.1277
8 15 5 10.2222 -5.3401
8 15 6 11.1674 -9.7792
8 15 7 4.3155 -4.0708
8 15 8 5.8618 0.2369
8 15 9 -1.7113 4.9871
8 15 10 -2.5008 -1.1839
8 15 11 4.6989 -1.8406
8 15 12 -8.9935 -2.0810
8 15 13 3.6192 4.4140
8 15 14 6.7126 -9.7001
8 15 15 8.6331 0.2072
8 15 16 0.8296 3.3170
8 15 17 -4.6671 -5.7980
8 15 18 -11.1407 -0.6671
8 15 19 -3.8285 7.6708
8 15 20 -0.1879 2.2780
8 15 21 16.0208 -7.1260
8 16 0 13.9009 0.6676
8 16 1 12.0726 -1.9607
8 16 2 -4.2038 11.0994
8 16 3 4.1212 -4.1103
8 16 4 -1.6721 -5.9500
8 16 5 -8.3751 10.2798
8 16 6 0.1814 -16.3915
8 16 7 -2.1225 -11.3732
8 16 8 0.0222 0.8316
8 16 9 3.3850 -7.1772
8 16 10 4.0044 1.7345
8 16 11 -3.2315 4.9059
8 16 12 6.0648 -8.1633
8 16 13 -1.3901 -3.6460
8 16 14 1.8947 -12.1042
8 16 15 -6.0312 -2.8620
8 16 16 3.2020 3.4788
8 16 17 3.4809 9.1394
8 16 18 -0.9032 3.4889
8 16 19 -1.3023 -3.5482
8 16 20 4.2189 -7.8463
8 17 0 6.8264 0.0130
8 17 1 -5.5322 -2.0995
8 17 2 -10.1600 -0.6592
8 17 3 11.4457 7.7938
8 17 4 4.6354 -3.5852
8 17 5 -10.2203 11.9588
8 17 6 -4.1324 9.8258
8 17 7 -17.5501 -1.3174
8 17 8 2.7646 0.5064
8 17 9 11.0488 0.5231
8 17 10 -4.1326 -5.8594
8 17 11 -1.0208 1.8196
8 17 12 1.2577 7.9030
8 17 13 -11.6918 -4.1792
8 17 14 0.2710 4.7139
8 17 15 1.9785 -1.4733
8 17 16 8.8713 1.5469
8 17 17 0.4558 0.8533
8 17 18 -1.8832 0.8232
8 17 19 -3.9270 -2.4983
8 18 0 -2.5592 0.4715
8 18 1 -3.2064 3.0161
8 18 2 -1.2089 -3.0455
8 18 3 2.3776 -1.8920
8 18 4 9.2798 -2.3876
8 18 5 4.0908 13.3099
8 18 6 9.2116 13.3568
8 18 7 -5.9385 -4.1989
8 18 8 -13.2542 3.7321
8 18 9 2.1639 -5.1109
8 18 10 4.3843 -2.4922
8 18 11 -3.5991 14.9516
8 18 12 2.3704 6.8091
8 18 13 3.0336 -2.9341
8 18 14 -7.0146 4.8537
8 18 15 6.7895 -3.9009
8 18 16 3.3487 2.9489
8 18 17 -1.4611 -0.6466
8 18 18 -4.4798 5.3828
8 19 0 -0.5230 0.0241
8 19 1 0.4624 -0.4344
8 19 2 4.1718 -0.7005
8 19 3 -0.6379 -13.5044
8 19 4 5.0360 -9.7526
8 19 5 6.6896 -7.7737
8 19 6 7.5316 8.2888
8 19 7 -2.2767 -0.3620
8 19 8 -11.4594 2.1610
8 19 9 10.8931 -1.0802
8 19 10 4.2954 -7.6684
8 19 11 -0.6133 -2.7583
8 19 12 6.1287 3.0755
8 19 13 -3.7928 -3.7252
8 19 14 -5.6746 -7.1634
8 19 15 4.2031 2.9470
8 19 16 -1.0707 -1.7436
8 20 0 2.4793 0.4579
8 20 1 -3.3433 -4.0524
8 20 2 -6.9591 -2.3426
8 20 3 -7.1046 -1.8549
8 20 4 -5.0119 -0.3256
8 20 5 1.6018 -2.3369
8 20 6 1.1943 1.6156
8 20 7 7.2042 -4.9616
8 20 8 -3.5166 -2.1356
8 20 9 -5.1298 3.9815
8 20 10 -1.5542 -13.4556
8 20 11 -2.0800 -1.2382
8 20 12 -4.2887 3.7387
8 20 13 -0.4143 -1.9068
8 20 14 0.2266 -0.5207
8 20 15 -0.1744 -1.2255
8 21 0 -10.4510 -0.0379
8 21 1 -2.4409 7.5942
8 21 2 -1.3038 3.9509
8 21 3 6.4316 11.4657
8 21 4 -1.1027 4.6032
8 21 5 -9.3784 -1.6143
8 21 6 -3.7198 -4.8400
8 21 7 6.7558 6.5616
8 21 8 -5.5907 1.2718
8 21 9 -7.0289 5.7974
8 21 10 4.0766 7.4470
8 21 11 -4.3708 0.0637
8 21 12 5.0170 -1.4703
8 21 13 2.1652 -1.5395
8 22 0 2.7274 0.4449
8 22 1 5.4374 -0.5314
8 22 2 9.3886 -5.8197
8 22 3 -0.1764 4.6420
8 22 4 2.6495 1.0753
8 22 5 -0.2713 0.2253
8 22 6 -3.7470 2.0656
8 22 7 2.2382 1.9729
8 22 8 11.6588 -2.8910
8 22 9 0.5015 6.1994
8 22 10 -1.4025 2.6490
8 22 11 -0.7678 -4.3842
8 23 0 0.1297 0.2224
8 23 1 5.0146 -8.9105
8 23 2 1.5750 -3.8701
8 23 3 -2.4218 -6.8038
8 23 4 5.5771 4.9041
8 23 5 2.1806 -3.5351
8 23 6 -0.7821 -4.0475
8 23 7 0.9271 -2.8777
8 23 8 4.8284 -2.2265
8 24 0 -5.5742 0.1934
8 24 1 -1.6906 -1.8130
9 0 1 -0.0410 -2.4172
9 0 2 24.2530 -0.4894
9 0 3 1.1109 21.1670
9 0 4 -27.7966 0.2607
9 0 5 -0.0769 -10.1688
9 0 6 -30.3145 0.2116
9 0 7 -1.4218 6.1155
9 0 8 5.1313 -0.1508
9 0 9 0.0575 2.6990
9 0 10 1.6967 -0.4187
9 0 11 0.0765 9.9050
9 0 12 -22.6319 0.1106
9 0 13 0.6075 2.1836
9 0 14 -37.5773 0.4786
9 0 15 0.5995 -1.4403
9 0 16 0.6592 -0.1839
9 0 17 -0.4201 -14.6727
9 0 18 3.7863 -0.3127
9 0 19 -1.0673 6.2632
9 0 20 -16.7669 0.0627
9 0 21 0.0809 2.1839
9 0 22 -3.5386 0.3940
9 0 23 1.2455 -4.4747
9 0 24 14.9592 -0.0927
9 0 25 0.1295 -9.6771
9 0 26 -7.6696 -0.2894
9 0 27 -0.4768 -14.7275
9 1 0 -0.5703 -22.3875
9 1 1 6.5862 -8.0100
9 1 2 15.2309 14.1869
9 1 3 -0.0254 -0.0622
9 1 4 -9.1512 16.1201
9 1 5 -8.2670 20.4836
9 1 6 5.2234 -11.7575
9 1 7 0.9181 26.5039
9 1 8 2.0920 0.0453
9 1 9 3.6795 -21.5327
9 1 10 -3.9245 6.7621
9 1 11 -1.7249 12.4699
9 1 12 5.0990 11.8946
9 1 13 -4.5979 33.3226
9 1 14 -3.5334 -3.6282
9 1 15 -10.0574 7.8463
9 1 16 -16.6240 -16.0242
9 1 17 6.0302 -2.4057
9 1 18 5.1893 7.2109
9 1 19 8.6437 2.9706
9 1 20 -8.0251 4.8741
9 1 21 -1.2857 -4.0328
9 1 22 4.9678 -16.8118
9 1 23 -4.7305 -9.7968
9 1 24 -7.9749 3.6446
9 1 25 1.1306 -9.6620
9 1 26 -4.1311 8.8866
9 1 27 1.8861 -11.7335
9 2 0 -0.1968 -17.4546
9 2 1 0.7126 4.2511
9 2 2 12.0536 -0.1916
9 2 3 12.8754 -4.8377
9 2 4 -1.2683 10.7775
9 2 5 20.7414 11.1628
9 2 6 26.5222 -13.5558
9 2 7 -21.2820 -17.2389
9 2 8 8.9477 18.7684
9 2 9 -6.8326 2.2235
9 2 10 -7.5281 -16.6831
9 2 11 35.6108 -2.6810
9 2 12 27.0995 6.1880
9 2 13 -5.2329 7.8960
9 2 14 9.9083 17.8634
9 2 15 -19.6936 -9.7757
9 2 16 5.1768 -4.1344
9 2 17 1.3840 -0.5419
9 2 18 13.9181 -7.6996
9 2 19 1.7680 -2.9188
9 2 20 -2.1109 3.1397
9 2 21 -9.7159 11.0978
9 2 22 -0.3317 1.0737
9 2 23 -1.1796 -2.2931
9 2 24 13.4032 11.2508
9 2 25 -2.7395 8.4783
9 2 26 -11.1349 -7.3477
9 2 27 0.8116 2.7279
9 3 0 -0.4948 -12.2601
9 3 1 -2.4646 0.2281
9 3 2 11.8590 -8.3845
9 3 3 3.7593 -10.5231
9 3 4 -5.4156 -17.6101
9 3 5 -3.0347 -3.4447
9 3 6 8.0056 -11.5360
9 3 7 3.1824 -0.4370
9 3 8 -10.2914 30.4173
9 3 9 1.8096 -17.1477
9 3 10 -5.3545 -27.5098
9 3 11 8.4594 -7.6763
9 3 12 27.9332 -22.3681
9 3 13 -3.7981 3.7095
9 3 14 -6.3511 22.2763
9 3 15 5.5353 -9.9062
9 3 16 -9.7406 4.3417
9 3 17 -4.7668 -10.6554
9 3 18 6.2421 -4.1840
9 3 19 -1.7543 6.7255
9 3 20 7.0443 13.1068
9 3 21 -3.3649 1.4373
9 3 22 4.9648 -0.4584
9 3 23 2.0911 3.8796
9 3 24 -0.4024 6.5562
9 3 25 -4.3714 6.7699
9 3 26 -5.1594 8.4376
9 3 27 -8.4976 11.6576
9 4 0 0.0256 -15.7168
9 4 1 -14.8138 4.3286
9 4 2 -1.8144 10.6935
9 4 3 -11.4770 -1.5848
9 4 4 -10.6808 -3.6450
9 4 5 -12.7613 -10.3804
9 4 6 12.8685 10.7986
9 4 7 10.6897 14.4873
9 4 8 -11.5597 -3.6417
9 4 9 -2.6442 -1.4261
9 4 10 -28.4749 -14.5146
9 4 11 -15.6549 -2.9047
9 4 12 14.3880 -1.9042
9 4 13 1.4662 -0.9636
9 4 14 8.0898 16.5712
9 4 15 9.2948 2.3034
9 4 16 -24.9446 -11.7852
9 4 17 1.2759 12.0590
9 4 18 1.5330 -2.3944
9 4 19 5.2446 -2.5857
9 4 20 3.0978 1.7329
9 4 21 3.6724 -8.3173
9 4 22 -9.2178 -4.5141
9 4 23 7.4553 3.3490
9 4 24 -0.4958 -0.2875
9 4 25 4.4982 2.5886
9 4 26 -0.4914 5.1329
9 5 0 -0.3887 8.9339
9 5 1 5.6406 -7.8951
9 5 2 10.1443 17.7197
9 5 3 -19.3413 3.1634
9 5 4 -5.2910 6.5351
9 5 5 23.8906 -6.1506
9 5 6 -4.8780 5.1349
9 5 7 -2.1104 -12.9387
9 5 8 -2.0581 7.5655
9 5 9 -22.7167 30.4797
9 5 10 0.9568 10.4262
9 5 11 -0.2699 -0.3624
9 5 12 4.4686 -6.1837
9 5 13 3.4300 -21.9180
9 5 14 -10.0667 10.0434
9 5 15 4.5510 12.2297
9 5 16 1.1149 0.2193
9 5 17 4.2996 7.7584
9 5 18 6.3796 -13.4291
9 5 19 -9.6933 -9.6984
9 5 20 -7.9756 -1.0693
9 5 21 14.3096 -3.8549
9 5 22 -9.3069 -0.1536
9 5 23 1.8864 2.5458
9 5 24 14.1558 -13.0880
9 5 25 11.2810 -8.4989
9 5 26 -4.4519 -2.2721
9 6 0 0.2053 -9.9911
9 6 1 4.8567 7.7340
9 6 2 -2.8881 -1.7969
9 6 3 20.6473 -9.7497
9 6 4 -2.1489 12.5591
9 6 5 -8.3757 -8.4647
9 6 6 -11.3014 -21.6137
9 6 7 15.6427 36.6366
9 6 8 12.7061 8.8901
9 6 9 14.1110 -16.6049
9 6 10 7.5775 2.8199
9 6 11 -23.4665 -8.8141
9 6 12 -14.7420 11.0505
9 6 13 9.5250 1.5621
9 6 14 -2.2417 -13.9783
9 6 15 11.9565 -3.6301
9 6 16 3.8308 -2.1981
9 6 17 -16.8927 -4.0466
9 6 18 -4.8027 4.6240
9 6 19 -4.4944 -4.9875
9 6 20 2.0867 12.8360
9 6 21 8.2310 -0.0304
9 6 22 1.8650 -15.9167
9 6 23 -8.0666 -1.2570
9 6 24 -2.6745 3.6848
9 6 25 -6.8119 -7.4181
9 6 26 8.2365 4.0725
9 7 0 0.0646 -4.1090
9 7 1 -7.3170 -16.8126
9 7 2 5.3450 -11.1552
9 7 3 1.8956 13.6728
9 7 4 -11.8105 -1.8008
9 7 5 16.4821 11.3852
9 7 6 11.0176 -10.5990
9 7 7 -7.9986 -11.3619
9 7 8 17.6155 -21.8345
9 7 9 -13.2500 7.6098
9 7 10 -2.3023 9.6930
9 7 11 20.9552 6.1407
9 7 12 -15.5918 7.6609
9 7 13 -2.1876 -6.2255
9 7 14 2.4670 -17.4130
9 7 15 -11.2407 13.8979
9 7 16 2.5474 2.6644
9 7 17 -1.6576 0.5284
9 7 18 5.6813 14.0889
9 7 19 6.4863 -7.1919
9 7 20 -9.5870 -10.5634
9 7 21 -6.9718 7.6404
9 7 22 3.7044 6.3176
9 7 23 -9.7925 4.6021
9 7 24 4.9462 5.0465
9 7 25 -2.2526 1.5144
9 7 26 -0.2321 0.8931
9 8 0 -0.0015 12.3276
9 8 1 -14.9242 -5.6766
9 8 2 3.6913 2.5390
9 8 3 15.2210 -8.7763
9 8 4 6.4777 -13.8373
9 8 5 -19.5139 11.0932
9 8 6 -2.2492 -2.1977
9 8 7 -10.5173 -10.1731
9 8 8 2.4984 7.4826
9 8 9 5.2640 -8.1111
9 8 10 19.2643 20.8879
9 8 11 2.6615 -1.5975
9 8 12 -3.5250 -11.9232
9 8 13 7.5997 20.6497
9 8 14 4.2440 3.6766
9 8 15 -5.8941 -1.2323
9 8 16 15.6399 5.3233
9 8 17 -3.0377 -4.7757
9 8 18 -6.0181 0.1552
9 8 19 9.0367 5.6522
9 8 20 -6.4002 -4.6567
9 8 21 -3.5370 10.3576
9 8 22 14.1131 -2.8684
9 8 23 1.1356 -1.5718
9 8 24 -4.6701 -0.2301
9 8 25 6.2260 2.3466
9 9 0 0.0068 7.8249
9 9 1 0.3303 -22.5366
9 9 2 -25.0560 -1.2394
9 9 3 4.0975 -4.5412
9 9 4 11.5133 4.1541
9 9 5 -15.5329 11.2378
9 9 6 1.0650 12.4118
9 9 7 -2.0459 -16.4402
9 9 8 3.5023 3.7483
9 9 9 13.9948 -7.4539
9 9 10 -11.6068 -4.8161
9 9 11 2.7143 -15.4222
9 9 12 -0.8432 2.4435
9 9 13 -0.2043 3.4367
9 9 14 12.6087 -0.4176
9 9 15 -1.4756 2.4380
9 9 16 -4.3144 4.8550
9 9 17 1.2496 -10.4934
9 9 18 -9.4965 3.9964
9 9 19 6.9493 4.8870
9 9 20 5.4119 -10.1116
9 9 21 -0.8689 3.5164
9 9 22 -5.2866 -3.6768
9 9 23 2.7072 -12.2720
9 9 24 7.0240 1.3620
9 9 25 9.4509 6.3999
9 10 0 0.1132 19.4403
9 10 1 -9.7838 0.3379
9 10 2 -15.2923 -5.5488
9 10 3 18.7657 19.1930
9 10 4 5.7081 -7.8077
9 10 5 -3.9134 -10.1096
9 10 6 1.9395 11.6436
9 10 7 1.5430 -13.6079
9 10 8 -17.9132 -7.0446
9 10 9 -4.7238 5.0322
9 10 10 -20.2033 -4.2548
9 10 11 -5.4674 11.6518
9 10 12 -0.6917 -13.6544
9 10 13 11.0063 -16.0290
9 10 14 -2.7767 -2.5792
9 10 15 -3.6773 6.0811
9 10 16 -6.9542 6.1679
9 10 17 -0.7512 -3.9040
9 10 18 -7.6123 -5.2421
9 10 19 4.9766 -0.4875
9 10 20 -2.2987 -0.5842
9 10 21 -7.9230 -3.4260
9 10 22 -0.6974 -0.3073
9 10 23 -2.0322 -4.6724
9 10 24 4.1651 -5.3510
9 11 0 0.0061 17.5084
9 11 1 9.3414 -1.8907
9 11 2 2.0593 -0.0600
9 11 3 -5.4328 5.5768
9 11 4 3.4702 -18.6315
9 11 5 -15.2716 0.0121
9 11 6 -5.0117 10.8690
9 11 7 13.4111 4.8141
9 11 8 -7.2519 10.7443
9 11 9 11.0311 23.3297
9 11 10 4.0505 -4.6551
9 11 11 -18.8491 0.7740
9 11 12 -1.7752 -11.9986
9 11 13 2.3625 -5.2135
9 11 14 2.5824 0.4716
9 11 15 5.9813 10.8377
9 11 16 1.8949 1.1228
9 11 17 -3.5043 1.4561
9 11 18 -0.4157 -2.1654
9 11 19 -1.3090 -0.0879
9 11 20 0.2475 0.9299
9 11 21 -0.7234 2.8002
9 11 22 -0.5612 -3.3138
9 11 23 -11.4312 -3.6335
9 11 24 0.8253 8.0435
9 12 0 -0.2066 -13.7220
9 12 1 11.9289 0.9983
9 12 2 -7.5355 -3.0029
9 12 3 -13.5215 7.9949
9 12 4 3.2806 14.6229
9 12 5 -2.6353 -0.4344
9 12 6 13.9758 -6.0077
9 12 7 22.7979 -12.2636
9 12 8 5.4220 0.4809
9 12 9 6.9173 19.2947
9 12 10 7.3387 -0.4465
9 12 11 -18.4379 -2.1431
9 12 12 3.1321 12.2820
9 12 13 5.5817 -6.7521
9 12 14 9.4822 -0.0085
9 12 15 5.0028 2.7855
9 12 16 9.6079 0.2187
9 12 17 -3.7496 2.7484
9 12 18 4.2590 3.6516
9 12 19 -5.4865 -3.1668
9 12 20 -1.3764 -0.4588
9 12 21 0.7233 12.9502
9 12 22 9.1677 0.5756
9 12 23 -3.1503 -2.6761
9 13 0 0.1460 -10.4139
9 13 1 -2.8375 12.3868
9 13 2 17.8336 -1.2306
9 13 3 9.4744 6.9331
9 13 4 -5.7657 4.7034
9 13 5 -8.3471 -22.4683
9 13 6 -7.5182 -9.5085
9 13 7 2.4607 -8.9608
9 13 8 5.3824 -13.6373
9 13 9 0.1268 9.8545
9 13 10 1.4436 6.0318
9 13 11 -6.0770 -3.7006
9 13 12 2.2018 9.8957
9 13 13 1.7628 -8.4476
9 13 14 -8.4538 -8.7604
9 13 15 2.9746 -1.8994
9 13 16 0.9912 0.3840
9 13 17 -9.5309 4.9987
9 13 18 -0.1098 11.9911
9 13 19 10.9481 1.9357
9 13 20 -1.3864 -2.6266
9 13 21 -5.1159 -4.2111
9 13 22 3.8581 -0.3869
9 14 0 -0.2029 -14.9951
9 14 1 -1.2587 -12.2794
9 14 2 12.1925 9.5852
9 14 3 -6.6582 -5.4927
9 14 4 -4.9426 7.9494
9 14 5 -5.4116 8.2353
9 14 6 -25.5343 -0.6895
9 14 7 -2.3795 -2.1193
9 14 8 4.2384 -2.4574
9 14 9 -9.1181 -4.3006
9 14 10 11.0335 0.3944
9 14 11 4.3447 -0.3796
9 14 12 -14.3890 -5.7613
9 14 13 -2.9441 -0.7259
9 14 14 -12.3897 1.0122
9 14 15 -1.0514 7.4563
9 14 16 7.8380 -7.3402
9 14 17 6.6084 -3.6222
9 14 18 -1.3355 1.3704
9 14 19 -0.0596 -1.9067
9 14 20 -7.8974 -6.5226
9 14 21 -3.4845 3.5602
9 15 0 0.2041 5.3510
9 15 1 -11.5741 -3.7005
9 15 2 2.9274 -0.1284
9 15 3 11.8146 -6.9424
9 15 4 -2.5187 14.2086
9 15 5 8.7276 15.0298
9 15 6 4.0240 6.8442
9 15 7 -6.8292 11.7053
9 15 8 -0.4202 -11.8981
9 15 9 2.1598 -13.8274
9 15 10 -4.9955 9.1905
9 15 11 5.7263 -4.3109
9 15 12 2.9657 2.9600
9 15 13 0.4460 12.4190
9 15 14 4.3170 -6.5212
9 15 15 -0.2302 -5.8546
9 15 16 0.0043 -6.9837
9 15 17 -0.6253 -8.6594
9 15 18 -0.0437 1.1459
9 15 19 -0.4885 4.3448
9 15 20 0.8044 2.7996
9 15 21 -2.4367 -2.2601
9 16 0 -0.3397 6.6446
9 16 1 -0.2838 -9.1425
9 16 2 -12.0465 -5.5385
9 16 3 10.0255 -4.8655
9 16 4 13.8633 -11.7855
9 16 5 17.2362 5.1734
9 16 6 1.3812 -4.2102
9 16 7 -11.3123 8.5504
9 16 8 -1.2034 8.6315
9 16 9 -3.3525 -3.7162
9 16 10 -1.0966 -2.5210
9 16 11 14.2013 6.8243
9 16 12 -0.4780 -1.9094
9 16 13 0.1465 0.5018
9 16 14 5.0394 5.5869
9 16 15 -11.3858 -4.8121
9 16 16 -1.1953 5.1620
9 16 17 1.8107 2.3141
9 16 18 2.6658 0.0000
9 16 19 3.5399 0.5489
9 16 20 5.8142 6.6431
9 17 0 0.1064 13.7952
9 17 1 1.3501 3.6845
9 17 2 -14.1769 -12.6197
9 17 3 -2.1472 -4.3691
9 17 4 -1.3175 -14.8375
9 17 5 -0.9956 0.5993
9 17 6 8.5922 5.3262
9 17 7 -0.0611 5.2109
9 17 8 0.5072 4.8862
9 17 9 0.2033 -2.1035
9 17 10 -3.1570 -4.2024
9 17 11 -2.2911 2.5321
9 17 12 2.2479 -4.5241
9 17 13 -7.0387 7.7947
9 17 14 0.0750 2.9886
9 17 15 2.8529 0.9710
9 17 16 -4.5352 10.5021
9 17 17 1.7036 -0.2226
9 17 18 4.9745 -5.8035
9 18 0 -0.6371 8.7623
9 18 1 -1.4264 7.1982
9 18 2 -7.0817 5.1590
9 18 3 -8.7175 6.2404
9 18 4 5.1153 -0.7327
9 18 5 -4.8511 -6.4264
9 18 6 6.0140 0.5573
9 18 7 3.5174 -11.5976
9 18 8 -3.6279 -0.8972
9 18 9 -0.4063 2.0360
9 18 10 0.2580 0.6407
9 18 11 -3.8439 -1.0190
9 18 12 2.1920 1.7604
9 18 13 -1.9303 -3.3677
9 18 14 7.8257 -2.5487
9 18 15 1.8386 -1.2559
9 18 16 -4.8458 -4.6999
9 18 17 -0.3832 0.2819
9 19 0 0.2323 3.0384
9 19 1 4.1767 -0.7239
9 19 2 8.7001 2.6527
9 19 3 -0.9186 0.4605
9 19 4 1.9613 1.3954
9 19 5 -12.1323 -4.5806
9 19 6 -7.4954 3.4718
9 19 7 3.6478 -7.3840
9 19 8 1.2743 -2.1116
9 19 9 5.0348 5.1649
9 19 10 9.2047 -0.3183
9 19 11 -0.5694 -4.2732
9 19 12 -4.2989 -2.7779
9 19 13 2.1782 -7.0873
9 19 14 -1.7851 1.3390
9 19 15 -1.1341 -3.4382
9 19 16 2.0432 -1.2426
9 20 0 -0.7138 -14.5644
9 20 1 1.1246 -8.8445
9 20 2 -1.1749 -5.7933
9 20 3 5.6925 5.2863
9 20 4 -2.3113 8.9400
9 20 5 -1.9916 4.8396
9 20 6 -5.6359 4.4425
9 20 7 5.3024 -0.1223
9 20 8 -0.8778 -12.3065
9 20 9 1.5099 1.6247
9 20 10 -1.2695 4.6688
9 20 11 -5.9021 2.4252
9 20 12 -1.6129 6.0642
9 20 13 1.6216 4.8308
9 20 14 -3.4935 -1.2098
9 21 0 0.1339 3.3458
9 21 1 -7.3197 -2.8900
9 21 2 3.0168 -2.6971
9 21 3 8.9366 6.5934
9 21 4 4.8781 3.0754
9 21 5 4.4489 1.4626
9 21 6 -8.7474 -4.1402
9 21 7 -1.8617 3.8090
9 21 8 -3.2032 -0.8739
9 21 9 -1.7954 4.7864
9 21 10 4.9838 1.3628
9 21 11 4.6357 4.3862
9 21 12 -2.7332 5.0620
9 22 0 -0.6476 5.2650
9 22 1 2.0098 -3.0952
9 22 2 2.3009 2.5483
9 22 3 -2.0014 -9.6505
9 22 4 2.2833 -0.9748
9 22 5 -1.7947 -0.3516
9 22 6 -0.5793 1.3668
9 22 7 -1.2538 1.0383
9 22 8 5.5467 -3.5236
9 22 9 -1.1309 -5.9656
9 22 10 4.9669 -2.3378
9 23 0 0.2556 -5.0774
9 23 1 -0.9117 5.1771
9 23 2 -2.0094 -2.2552
9 23 3 -3.6675 -3.0447
9 23 4 -5.1032 1.9656
9 23 5 1.9838 -1.3830
9 23 6 3.6047 -1.3650
9 23 7 -3.3639 -2.0778
10 0 0 0.4792 0.9069
10 0 1 -0.8760 -15.2595
10 0 2 -0.6145 0.1693
10 0 3 0.9918 5.0147
10 0 4 24.6763 -0.9963
10 0 5 0.4255 -31.8958
10 0 6 -2.1003 -0.3384
10 0 7 0.0189 20.1614
10 0 8 7.9518 0.4007
10 0 9 -0.4066 18.3187
10 0 10 -0.5106 0.4878
10 0 11 -0.3375 -52.8249
10 0 12 17.2702 0.4164
10 0 13 0.4895 18.0273
10 0 14 0.1102 -0.0473
10 0 15 0.1106 20.7974
10 0 16 13.4727 -0.9075
10 0 17 -0.1048 -7.8961
10 0 18 -6.8126 -0.3847
10 0 19 -0.0140 10.5565
10 0 20 5.4764 1.0530
10 0 21 -0.0576 13.9450
10 0 22 -0.9146 0.6063
10 0 23 -0.3519 2.8597
10 0 24 16.1134 -0.6131
10 0 25 0.0273 9.3713
10 0 26 -2.5536 -0.3465
10 1 0 -14.6250 0.0558
10 1 1 16.4472 0.0505
10 1 2 -15.2040 -7.5513
10 1 3 -7.1359 -11.0132
10 1 4 -23.7569 -2.4700
10 1 5 -2.2850 -8.7870
10 1 6 -1.9884 2.0044
10 1 7 26.4113 5.6534
10 1 8 9.8370 6.5038
10 1 9 -28.7567 -2.7169
10 1 10 -15.8317 -7.4808
10 1 11 4.5353 -8.3778
10 1 12 -24.9518 2.1300
10 1 13 27.4977 3.9422
10 1 14 16.7984 1.1764
10 1 15 -14.4489 -3.8264
10 1 16 7.1606 6.3962
10 1 17 -0.2695 -0.4098
10 1 18 -4.8164 4.4870
10 1 19 9.8531 5.2847
10 1 20 6.5289 -0.2668
10 1 21 -7.0403 -4.4348
10 1 22 10.5752 -6.7629
10 1 23 2.6297 1.8917
10 1 24 3.3827 3.4866
10 1 25 -3.8504 -7.6379
10 1 26 -2.5572 3.8563
10 2 0 -8.1005 0.3342
10 2 1 2.1263 2.2578
10 2 2 -6.2336 0.9656
10 2 3 -13.8671 22.8501
10 2 4 -17.0439 -6.0683
10 2 5 8.2935 -5.8281
10 2 6 13.6311 -19.4854
10 2 7 3.4747 -1.6449
10 2 8 -15.9106 6.7569
10 2 9 -2.0575 4.2925
10 2 10 -6.6692 18.1269
10 2 11 -2.4206 1.0964
10 2 12 -0.3028 -21.8573
10 2 13 9.7797 6.7826
10 2 14 -0.6639 -21.3255
10 2 15 -6.1364 -5.0722
10 2 16 -4.4409 17.2467
10 2 17 19.1877 -11.4088
10 2 18 -1.3116 -0.8633
10 2 19 -3.3179 1.2542
10 2 20 -12.0013 -11.8841
10 2 21 0.5618 -8.3253
10 2 22 1.7860 4.4473
10 2 23 1.4329 -12.1496
10 2 24 -2.1897 9.6617
10 2 25 3.5168 -1.9918
10 2 26 -3.7265 1.1541
10 3 0 9.4266 0.1134
10 3 1 2.1937 3.1174
10 3 2 11.1688 11.5965
10 3 3 -3.4119 14.3580
10 3 4 7.3636 -14.1991
10 3 5 -21.6554 -13.2450
10 3 6 8.5624 1.5945
10 3 7 -6.5226 0.3177
10 3 8 9.8127 6.4771
10 3 9 14.8607 12.7255
10 3 10 -0.3912 -14.7568
10 3 11 -1.0248 -5.7744
10 3 12 -5.1721 -1.0595
10 3 13 -28.9183 -1.5184
10 3 14 13.3621 0.6129
10 3 15 -0.2274 -6.0256
10 3 16 5.8497 -10.9595
10 3 17 4.3808 -4.3884
10 3 18 -13.4198 0.3666
10 3 19 -6.0478 13.6423
10 3 20 -2.3371 -3.3138
10 3 21 -10.8704 -4.1437
10 3 22 7.5735 -0.7986
10 3 23 6.1434 -2.3864
10 3 24 -10.7804 -4.7357
10 3 25 6.3924 0.5129
10 3 26 -3.9878 1.6751
10 4 0 16.8137 0.4718
10 4 1 5.8640 2.3913
10 4 2 -0.8529 1.9446
10 4 3 -1.4818 -1.0733
10 4 4 3.1184 9.8401
10 4 5 -21.5836 5.2143
10 4 6 7.1118 14.7027
10 4 7 28.1443 -17.9842
10 4 8 -9.1780 0.0807
10 4 9 -17.8265 -3.5818
10 4 10 9.9826 -6.2823
10 4 11 -6.6643 23.6881
10 4 12 9.6378 13.3567
10 4 13 -8.2297 -6.9002
10 4 14 -13.5677 6.5975
10 4 15 -0.5265 -16.9744
10 4 16 1.2166 4.6869
10 4 17 -5.6884 11.5168
10 4 18 6.9073 5.5229
10 4 19 0.1301 9.5416
10 4 20 5.7677 -0.7449
10 4 21 -14.9673 -4.6098
10 4 22 -4.0376 -0.7623
10 4 23 1.2814 -1.4951
10 4 24 0.6808 5.1367
10 4 25 -5.9445 7.9735
10 4 26 12.4051 -18.6878
10 5 0 -3.0560 -0.0459
10 5 1 -1.4043 -4.5006
10 5 2 1.2616 4.8906
10 5 3 4.6594 12.5480
10 5 4 3.1499 2.5250
10 5 5 11.9829 -16.3517
10 5 6 -12.1749 5.2621
10 5 7 -1.9353 6.9262
10 5 8 -18.4721 -5.5129
10 5 9 17.6010 14.9468
10 5 10 9.7551 -2.5580
10 5 11 -2.5037 -10.0777
10 5 12 9.4011 26.0496
10 5 13 0.3704 -0.3702
10 5 14 -14.0108 4.3620
10 5 15 11.6920 9.9995
10 5 16 -6.1419 -4.9300
10 5 17 13.3008 -1.2326
10 5 18 10.9936 3.7388
10 5 19 -3.1369 0.0812
10 5 20 -9.1780 7.6051
10 5 21 4.0810 -1.5909
10 5 22 2.0496 6.5293
10 5 23 7.3062 0.6890
10 5 24 -4.6518 -9.1714
10 5 25 -1.3095 -6.0671
10 5 26 -0.6686 -0.0134
10 6 0 9.4485 0.3706
10 6 1 7.5003 -4.6991
10 6 2 -5.5294 -9.6840
10 6 3 -5.8303 -14.0595
10 6 4 -3.5107 4.1675
10 6 5 8.7836 0.4165
10 6 6 -6.8751 -0.7049
10 6 7 2.8502 8.3440
10 6 8 6.0775 -13.2976
10 6 9 -3.1724 0.0743
10 6 10 12.9699 -8.4677
10 6 11 0.2366 -5.1849
10 6 12 0.7576 -1.2809
10 6 13 25.7723 -7.4000
10 6 14 -12.4188 6.1985
10 6 15 -1.1727 7.0766
10 6 16 11.8988 -17.3468
10 6 17 0.1386 -0.3521
10 6 18 -2.6329 -1.6891
10 6 19 4.3571 -2.2165
10 6 20 1.8771 8.8630
10 6 21 7.4873 0.3739
10 6 22 -10.1052 -10.3230
10 6 23 1.8210 3.3815
10 6 24 0.1880 3.6945
10 6 25 -3.7388 -0.6601
10 6 26 -8.6217 2.3239
10 7 0 -22.5848 0.1202
10 7 1 -11.3181 -4.3936
10 7 2 7.0513 12.8466
10 7 3 -2.2325 -3.2545
10 7 4 -3.5383 -8.4134
10 7 5 6.5403 6.2645
10 7 6 -4.8810 -7.3528
10 7 7 -3.8726 -2.2952
10 7 8 13.0509 -5.9926
10 7 9 -17.9959 -9.8061
10 7 10 -5.1621 2.7748
10 7 11 -9.3313 -14.7285
10 7 12 -2.7825 -2.2234
10 7 13 5.3223 3.8225
10 7 14 8.4250 -16.9756
10 7 15 -2.7550 5.0861
10 7 16 -7.5275 1.2913
10 7 17 -14.7895 -5.3908
10 7 18 11.2414 3.3039
10 7 19 1.8093 -0.5679
10 7 20 -4.5704 -1.3654
10 7 21 0.5211 3.2159
10 7 22 -2.5934 -1.7913
10 7 23 -15.0519 1.5461
10 7 24 9.7293 -0.7877
10 7 25 2.8552 8.4988
10 8 0 6.0521 0.4017
10 8 1 5.8385 17.9486
10 8 2 1.0937 -6.6097
10 8 3 7.1883 -1.6699
10 8 4 -13.6853 15.1231
10 8 5 -9.2755 5.8913
10 8 6 13.3331 -20.8084
10 8 7 -16.5511 9.4069
10 8 8 -8.0457 12.5108
10 8 9 -2.0031 4.7449
10 8 10 -4.6151 24.5494
10 8 11 2.6641 -2.5721
10 8 12 -18.1913 -14.7255
10 8 13 -5.9056 -4.5820
10 8 14 11.7296 2.4679
10 8 15 -8.3655 6.3111
10 8 16 -0.6011 8.9732
10 8 17 2.4619 -2.1896
10 8 18 -2.2342 -3.8629
10 8 19 2.4158 -5.8989
10 8 20 -3.7150 2.8948
10 8 21 -5.9718 11.6610
10 8 22 0.9216 -1.5377
10 8 23 1.5109 -2.1436
10 8 24 1.5519 -1.9427
10 8 25 -0.7364 -8.8134
10 9 0 7.3039 0.2246
10 9 1 -2.0671 -7.1195
10 9 2 13.3796 -1.3325
10 9 3 0.1431 15.8625
10 9 4 -5.9134 0.0307
10 9 5 -0.0136 9.3264
10 9 6 -4.7362 4.0031
10 9 7 1.2469 -5.5821
10 9 8 35.5763 14.3817
10 9 9 12.6113 -3.6529
10 9 10 -20.0195 4.9188
10 9 11 2.6306 12.7177
10 9 12 -9.3236 -9.1932
10 9 13 -1.1150 0.6473
10 9 14 8.5650 4.1281
10 9 15 5.9381 -8.1301
10 9 16 -3.1163 4.7376
10 9 17 4.3486 -3.5628
10 9 18 -7.9594 -1.9698
10 9 19 7.2632 8.0230
10 9 20 9.1267 -0.9448
10 9 21 4.9379 0.4686
10 9 22 -2.6767 2.2732
10 9 23 -2.0610 -1.9971
10 9 24 -0.8529 -2.9299
10 10 0 -9.9876 0.3870
10 10 1 5.3615 -19.4127
10 10 2 3.3424 2.9005
10 10 3 9.3379 2.8233
10 10 4 16.6684 12.1450
10 10 5 -9.3040 -3.3417
10 10 6 -3.6088 -17.3778
10 10 7 7.7328 -22.5175
10 10 8 9.6813 1.0598
10 10 9 12.0505 -9.3742
10 10 10 -11.8442 14.0931
10 10 11 1.9311 12.3497
10 10 12 11.0981 -11.9321
10 10 13 -7.2794 2.4232
10 10 14 2.2838 0.9864
10 10 15 5.0246 -7.1235
10 10 16 -5.4984 3.1828
10 10 17 3.8851 0.6821
10 10 18 2.1065 -9.3327
10 10 19 3.7683 3.6994
10 10 20 7.0801 -0.1594
10 10 21 -5.4124 -3.6241
10 10 22 1.7445 5.0786
10 10 23 3.4442 2.4774
10 10 24 -1.5265 1.5791
10 11 0 -23.1443 0.1001
10 11 1 22.1315 -4.4266
10 11 2 4.9900 -19.0671
10 11 3 6.4092 -1.3415
10 11 4 -4.1797 10.7235
10 11 5 -15.3996 -4.7211
10 11 6 -11.7519 1.3801
10 11 7 -9.8480 -7.6705
10 11 8 -6.1406 -2.6127
10 11 9 15.4945 7.6604
10 11 10 0.5777 1.2307
10 11 11 4.7189 3.1934
10 11 12 2.7264 -5.2924
10 11 13 -9.0000 0.0424
10 11 14 5.1318 8.1631
10 11 15 -7.4322 1.4169
10 11 16 -8.8884 -0.2966
10 11 17 3.5197 2.7977
10 11 18 3.7367 -9.1355
10 11 19 -8.2426 -0.2056
10 11 20 4.9426 2.2732
10 11 21 -5.2962 0.7532
10 11 22 -1.9917 0.4778
10 11 23 0.2779 -0.7741
10 12 0 -21.3250 0.2583
10 12 1 3.3690 0.3267
10 12 2 3.6205 -24.1526
10 12 3 -12.2788 18.3467
10 12 4 5.9284 8.7510
10 12 5 5.8703 9.4873
10 12 6 -13.1182 15.5598
10 12 7 2.3713 4.2434
10 12 8 1.1224 -9.9384
10 12 9 -0.6735 -0.5223
10 12 10 -2.1738 -17.7628
10 12 11 -5.7797 5.1609
10 12 12 -1.6193 0.2171
10 12 13 6.3042 5.7994
10 12 14 3.5285 9.1630
10 12 15 -1.6387 -1.2178
10 12 16 -7.8271 -2.9436
10 12 17 -0.4682 -0.0927
10 12 18 -1.4330 -6.7112
10 12 19 -2.2361 1.3992
10 12 20 2.1074 3.6710
10 12 21 3.5009 -0.0545
10 12 22 -3.4367 0.2608
10 13 0 -15.7873 0.1193
10 13 1 -8.9694 6.9877
10 13 2 5.6511 -10.8210
10 13 3 -1.8439 -3.0975
10 13 4 23.6988 8.9185
10 13 5 10.3211 -12.7460
10 13 6 -1.2142 -5.5680
10 13 7 5.0455 7.5977
10 13 8 -15.7063 -5.5232
10 13 9 -16.4504 1.1150
10 13 10 5.5338 1.3982
10 13 11 0.2705 -10.7422
10 13 12 11.7471 -6.5813
10 13 13 3.0113 -0.8784
10 13 14 -2.9140 -2.5759
10 13 15 1.6218 0.2102
10 13 16 -6.2482 3.0491
10 13 17 -5.2390 -0.0784
10 13 18 1.6812 -4.1265
10 13 19 6.0753 -1.8795
10 13 20 4.0179 2.1223
10 13 21 1.9999 2.1046
10 13 22 2.1227 0.0065
10 14 0 -5.2292 0.0556
10 14 1 -13.3711 8.2068
10 14 2 12.0693 -0.8012
10 14 3 -3.5037 -25.3530
10 14 4 -6.9552 -3.9196
10 14 5 0.9878 -10.6391
10 14 6 -0.8289 7.6265
10 14 7 11.1462 16.3310
10 14 8 7.3726 7.3582
10 14 9 -12.8237 1.2164
10 14 10 -0.2149 0.6870
10 14 11 1.8369 -13.3610
10 14 12 -4.7948 5.0409
10 14 13 2.0325 -5.1216
10 14 14 7.4157 4.4127
10 14 15 -2.8856 8.8149
10 14 16 0.9081 3.0027
10 14 17 -1.4750 -2.6332
10 14 18 1.0255 1.1285
10 14 19 0.8363 -6.4033
10 14 20 6.6823 -5.5138
10 14 21 -3.0032 -3.7705
10 15 0 16.9111 -0.0551
10 15 1 -10.6418 6.2729
10 15 2 -10.1156 11.0926
10 15 3 -7.3628 -2.5513
10 15 4 -9.8558 6.4762
10 15 5 15.8455 3.4260
10 15 6 9.0100 -8.5178
10 15 7 -1.3037 3.2408
10 15 8 11.8830 3.5429
10 15 9 1.1897 6.8616
10 15 10 -7.9722 10.7536
10 15 11 -1.0597 0.5662
10 15 12 -2.1262 -1.7772
10 15 13 8.1243 4.2468
10 15 14 1.4855 -0.7383
10 15 15 3.2687 3.1092
10 15 16 6.9642 6.7888
10 15 17 -5.8107 -3.7490
10 15 18 -9.5567 -5.9343
10 15 19 -4.0265 1.1801
10 15 20 -1.5765 1.0041
10 16 0 15.2999 0.2715
10 16 1 5.1541 1.4005
10 16 2 -7.1800 12.3623
10 16 3 7.4011 -1.9241
10 16 4 -5.1234 -10.6076
10 16 5 -3.9432 7.1391
10 16 6 -7.2283 -16.4705
10 16 7 -4.6802 -9.8685
10 16 8 8.0114 3.6882
10 16 9 7.5657 -4.4689
10 16 10 -3.7843 0.2089
10 16 11 -0.5063 11.3017
10 16 12 -2.2923 -10.0684
10 16 13 -1.5203 -1.9075
10 16 14 3.3881 -8.6053
10 16 15 2.5461 0.3378
10 16 16 -3.6439 3.5521
10 16 17 -1.7375 6.1522
10 16 18 -4.5647 4.3106
10 16 19 3.1015 1.3910
10 17 0 -3.8446 -0.1131
10 17 1 2.5736 -15.3904
10 17 2 -1.4764 -3.8201
10 17 3 6.3519 7.7482
10 17 4 -9.3145 -1.2788
10 17 5 -11.3494 4.6816
10 17 6 -0.5275 0.6590
10 17 7 -12.5200 -9.9992
10 17 8 -4.2476 -6.0078
10 17 9 16.5805 -8.7369
10 17 10 -4.1319 -4.7672
10 17 11 -4.1796 5.6767
10 17 12 0.2072 -2.2978
10 17 13 -13.2027 -8.8667
10 17 14 3.2684 -1.6887
10 17 15 3.1405 -0.0009
10 17 16 1.7316 0.7860
10 17 17 2.5724 2.3365
10 17 18 2.3367 -1.9316
10 18 0 -22.2585 0.2658
10 18 1 8.0947 1.3154
10 18 2 10.3856 -4.7604
10 18 3 1.6603 7.9038
10 18 4 9.9791 8.8688
10 18 5 -2.3842 11.9055
10 18 6 4.5356 8.7496
10 18 7 -6.4830 -7.3637
10 18 8 -10.7860 1.5221
10 18 9 2.9722 -0.7358
10 18 10 5.2624 -1.7925
10 18 11 -4.6776 12.6898
10 18 12 1.3865 3.9527
10 18 13 -1.7535 -6.9881
10 18 14 -2.4035 8.3886
10 18 15 3.1803 -7.0394
10 18 16 2.9816 -2.5611
10 19 0 -0.7663 -0.1517
10 19 1 -1.7953 9.8855
10 19 2 9.3295 -14.1299
10 19 3 7.4374 -2.7656
10 19 4 13.5474 4.0940
10 19 5 -2.3070 0.1815
10 19 6 -1.7543 8.9130
10 19 7 0.8008 4.8097
10 19 8 0.1888 5.8222
10 19 9 3.3133 8.6853
10 19 10 4.9757 -1.8823
10 19 11 0.5447 -2.5048
10 19 12 7.8099 5.7302
10 19 13 -3.9008 0.9302
10 19 14 -4.3045 -0.6402
10 19 15 6.2466 -0.8628
10 20 0 0.3950 0.0929
10 20 1 -14.1245 -9.6766
10 20 2 -2.7717 -6.8133
10 20 3 -5.1757 -7.3745
10 20 4 -3.3136 -1.0668
10 20 5 2.2774 -3.1716
10 20 6 0.1316 -0.2882
10 20 7 13.2617 -2.5633
10 20 8 1.5204 -5.7882
10 20 9 -4.9691 -1.6414
10 20 10 -2.1598 -6.3632
10 20 11 -1.3904 -1.2833
10 20 12 -2.8195 0.9046
10 20 13 1.3378 -1.3943
10 21 0 -7.7394 -0.2206
10 21 1 4.2197 -0.4547
10 21 2 -11.9224 14.9183
10 21 3 -0.7443 -1.8725
10 21 4 -1.9234 -1.7204
10 21 5 0.8184 -11.2235
10 21 6 -3.5999 -9.5900
10 21 7 -0.7049 -0.2982
10 21 8 -4.4048 -2.2357
10 21 9 -1.9720 2.2492
10 21 10 -1.9396 5.3336
10 21 11 -2.5519 0.9238
10 22 0 17.7297 0.0872
10 22 1 14.6271 6.8401
10 22 2 1.9270 0.6683
10 22 3 -3.0522 11.7085
10 22 4 -8.2288 -4.5330
10 22 5 -0.0412 2.1670
10 22 6 -1.6956 4.8263
10 22 7 -1.8077 2.7134
10 22 8 8.8007 3.5355
10 22 9 3.4576 4.5369
10 23 0 4.0223 -0.1716
10 23 1 1.9016 -7.8209
10 23 2 5.8922 3.1511
10 23 3 -2.5328 10.2962
10 23 4 2.8599 2.2512
10 23 5 -6.2520 3.2888
11 0 1 0.5826 16.9354
11 0 2 3.7580 -0.0629
11 0 3 0.9791 6.7181
11 0 4 -14.9143 0.7021
11 0 5 -0.6880 -29.9265
11 0 6 -12.8534 0.1441
11 0 7 -0.8238 13.9888
11 0 8 1.9206 -1.0663
11 0 9 0.0912 -14.5350
11 0 10 16.9483 -0.5374
11 0 11 0.3109 -8.8392
11 0 12 -21.8010 0.9894
11 0 13 0.1410 -5.5715
11 0 14 -19.0071 0.7611
11 0 15 0.1548 -12.2570
11 0 16 11.6089 -0.5969
11 0 17 -0.0253 -10.5047
11 0 18 10.0419 -0.5798
11 0 19 -0.6016 -6.6932
11 0 20 -18.5074 -0.0117
11 0 21 -0.1973 -7.8552
11 0 22 14.5839 0.4000
11 0 23 0.5673 4.6828
11 0 24 19.4349 0.2968
11 0 25 0.2181 10.5213
11 0 26 13.3759 -0.1699
11 1 0 -0.0558 0.3501
11 1 1 10.0583 11.0237
11 1 2 11.0135 4.5099
11 1 3 -18.8955 -3.1855
11 1 4 -15.6089 6.5655
11 1 5 6.5088 15.5995
11 1 6 -10.0290 -9.1386
11 1 7 1.8369 13.6766
11 1 8 -1.1932 -3.1260
11 1 9 -11.9920 -17.1134
11 1 10 -10.0272 3.6291
11 1 11 11.4146 -0.6394
11 1 12 -7.4060 13.6617
11 1 13 -7.6228 29.4443
11 1 14 -4.5236 -13.9681
11 1 15 -2.1247 -5.4643
11 1 16 -5.6577 -7.7766
11 1 17 1.3902 0.3785
11 1 18 -2.6713 11.3376
11 1 19 1.7701 9.7782
11 1 20 -2.7304 2.2418
11 1 21 1.1512 4.7754
11 1 22 -0.0415 -13.9680
11 1 23 6.1151 -2.2907
11 1 24 5.8977 3.5675
11 1 25 -10.0004 -8.1862
11 1 26 1.2111 7.2860
11 2 0 -0.0417 -14.3247
11 2 1 10.2009 9.9317
11 2 2 3.0059 8.9758
11 2 3 -2.5757 -1.7950
11 2 4 0.1927 13.0149
11 2 5 13.3356 8.0643
11 2 6 11.7863 -8.3198
11 2 7 -16.9792 11.3971
11 2 8 3.3836 11.7889
11 2 9 -11.3386 -3.1927
11 2 10 -7.6528 0.1537
11 2 11 37.4081 10.0164
11 2 12 9.0623 -0.7005
11 2 13 -12.7169 19.4669
11 2 14 2.9644 6.7500
11 2 15 -14.9661 -3.2847
11 2 16 5.6914 1.1456
11 2 17 8.8676 7.8105
11 2 18 0.2687 -2.0612
11 2 19 1.5055 7.5689
11 2 20 -0.8238 -4.4634
11 2 21 -8.7261 3.4430
11 2 22 -13.1431 -3.2864
11 2 23 -3.7578 7.2522
11 2 24 0.9457 -3.1407
11 2 25 -2.6280 -7.0865
11 2 26 -23.4396 -3.3072
11 3 0 -0.0583 -16.1477
11 3 1 3.8627 6.1675
11 3 2 12.8243 0.1677
11 3 3 6.4715 -0.3391
11 3 4 -2.0613 -14.7150
11 3 5 8.2876 -8.7231
11 3 6 15.2434 8.2405
11 3 7 -3.9523 10.3118
11 3 8 0.9436 15.2697
11 3 9 0.8172 -22.9041
11 3 10 -0.1762 -7.2493
11 3 11 11.3979 6.9255
11 3 12 16.5071 -18.3220
11 3 13 -10.6123 9.9216
11 3 14 6.1466 13.9789
11 3 15 -1.7374 -14.8550
11 3 16 -9.7913 5.8242
11 3 17 9.7464 -7.2651
11 3 18 3.6431 -10.3518
11 3 19 -6.5029 1.8453
11 3 20 -1.6454 10.3590
11 3 21 3.1112 -8.8449
11 3 22 6.5858 1.5476
11 3 23 -6.0509 3.0497
11 3 24 -10.9615 4.4437
11 3 25 -6.7848 -5.5202
11 3 26 -0.8255 0.5719
11 4 0 0.2944 -19.3488
11 4 1 -3.4284 2.6649
11 4 2 0.6742 1.0024
11 4 3 -14.9910 -5.9910
11 4 4 5.0516 -12.7140
11 4 5 1.6685 -4.4602
11 4 6 8.8767 -0.0793
11 4 7 3.4091 2.9682
11 4 8 -11.5185 -1.0530
11 4 9 4.7605 -7.1981
11 4 10 -11.3790 -14.8995
11 4 11 -8.0042 -2.8832
11 4 12 7.4670 -6.5989
11 4 13 -8.0921 -4.9718
11 4 14 12.4990 16.2277
11 4 15 2.6275 -14.7676
11 4 16 -17.3875 -8.7795
11 4 17 5.9270 3.8097
11 4 18 1.8789 -3.4571
11 4 19 -8.4955 -3.0782
11 4 20 10.3184 3.3157
11 4 21 13.7756 -6.1330
11 4 22 -3.4931 7.7568
11 4 23 4.6847 3.9719
11 4 24 8.5562 13.1271
11 4 25 0.7047 1.8549
11 5 0 -0.0094 16.4644
11 5 1 -5.7081 -0.9548
11 5 2 6.0253 -3.4373
11 5 3 -16.7129 0.1944
11 5 4 -9.1968 8.0434
11 5 5 8.0520 -14.2137
11 5 6 0.3563 3.6695
11 5 7 -2.6393 -3.0181
11 5 8 -6.8112 -4.3695
11 5 9 -9.0320 16.4228
11 5 10 -3.4727 -5.1351
11 5 11 -1.2042 6.5152
11 5 12 10.8561 3.5667
11 5 13 0.8425 -18.3130
11 5 14 -11.3988 -0.4300
11 5 15 8.5465 2.9750
11 5 16 -4.4191 9.5489
11 5 17 -0.5777 13.4040
11 5 18 11.7994 -9.6518
11 5 19 -3.9508 -4.9412
11 5 20 5.7803 4.9601
11 5 21 5.0626 -3.6934
11 5 22 3.6183 -2.3948
11 5 23 3.9354 14.0387
11 5 24 8.7660 -5.4896
11 5 25 6.2938 6.2592
11 6 0 0.1087 -6.3075
11 6 1 3.5332 0.5901
11 6 2 -7.2889 13.7870
11 6 3 3.7492 -4.0171
11 6 4 2.9453 11.9172
11 6 5 -3.2571 -7.7361
11 6 6 -19.5279 -7.1600
11 6 7 17.1721 18.0130
11 6 8 0.6428 13.8853
11 6 9 2.1638 -6.8133
11 6 10 21.4461 -0.1284
11 6 11 -12.8484 -4.9060
11 6 12 -13.4395 13.9799
11 6 13 3.6714 0.4283
11 6 14 -1.5961 0.7881
11 6 15 16.8198 8.5177
11 6 16 3.7607 -10.5619
11 6 17 -7.4844 3.0357
11 6 18 -2.5698 0.1207
11 6 19 -4.9842 -9.0380
11 6 20 -5.6658 1.6494
11 6 21 5.5609 5.3843
11 6 22 -2.9762 -6.0665
11 6 23 3.1140 -5.5943
11 6 24 0.0768 -10.0029
11 6 25 -13.9937 3.7432
11 7 0 0.1970 -3.7144
11 7 1 2.6462 0.0467
11 7 2 9.8632 -3.4710
11 7 3 10.4445 1.0904
11 7 4 -15.7710 3.4389
11 7 5 9.2796 11.2632
11 7 6 9.7407 4.7951
11 7 7 -0.4126 -4.6211
11 7 8 6.4796 -30.3312
11 7 9 -11.3241 12.2316
11 7 10 -3.9176 18.5047
11 7 11 8.1661 -10.9824
11 7 12 -5.0952 11.3205
11 7 13 2.8915 1.1315
11 7 14 -7.4855 -10.0188
11 7 15 -11.5545 3.3001
11 7 16 -1.2555 -6.8470
11 7 17 -10.2087 2.1108
11 7 18 -1.9542 11.1511
11 7 19 3.5228 -5.4093
11 7 20 -10.4299 -9.5757
11 7 21 6.8674 -4.4407
11 7 22 -7.9129 -3.1906
11 7 23 -7.8344 5.9894
11 7 24 -2.2106 -2.3068
11 7 25 10.1858 -9.5491
11 8 0 0.4069 -8.4160
11 8 1 -9.8454 -5.3784
11 8 2 6.2531 0.8754
11 8 3 13.8316 -0.3923
11 8 4 9.4034 -9.1823
11 8 5 -4.3118 12.8486
11 8 6 -9.3098 -13.3558
11 8 7 -11.7107 -1.4464
11 8 8 8.5975 5.6116
11 8 9 -9.7338 1.5397
11 8 10 12.5003 0.9401
11 8 11 1.3607 -3.7473
11 8 12 -6.5575 -10.6262
11 8 13 11.7997 16.4345
11 8 14 -6.7755 3.2673
11 8 15 -12.4102 0.1442
11 8 16 10.8907 2.6134
11 8 17 -1.3221 -6.4796
11 8 18 -3.4025 1.8260
11 8 19 1.8591 -7.1225
11 8 20 -4.0308 1.3439
11 8 21 0.3164 5.8229
11 8 22 7.2644 -6.1388
11 8 23 -0.4741 1.0272
11 8 24 6.7577 5.5576
11 9 0 0.3642 1.0297
11 9 1 -8.9156 -28.0903
11 9 2 -3.5660 -0.0610
11 9 3 2.7004 -3.7736
11 9 4 1.6782 -3.4731
11 9 5 -10.4386 7.7222
11 9 6 8.2156 2.4933
11 9 7 -3.2717 4.2949
11 9 8 7.1295 6.1059
11 9 9 8.4227 -14.7945
11 9 10 -7.8488 -2.3647
11 9 11 6.2948 -12.8306
11 9 12 13.9682 -2.5874
11 9 13 4.8699 3.4874
11 9 14 11.4968 -2.7940
11 9 15 2.8844 11.8145
11 9 16 -4.9391 3.1176
11 9 17 1.9299 -13.0222
11 9 18 3.0898 4.6843
11 9 19 5.7102 7.8627
11 9 20 0.3216 -1.4075
11 9 21 0.8910 1.1090
11 9 22 7.3800 -3.3872
11 9 23 -5.2630 -0.8416
11 9 24 12.5677 10.7697
11 10 0 0.0980 -2.4509
11 10 1 -12.9744 -6.3919
11 10 2 -15.7487 7.4028
11 10 3 15.5177 1.5140
11 10 4 -6.4971 -8.3198
11 10 5 1.2157 -5.1935
11 10 6 20.6588 7.8532
11 10 7 0.5829 -14.9555
11 10 8 -11.5939 6.9734
11 10 9 -3.8370 -5.4264
11 10 10 -19.9300 -3.5081
11 10 11 3.0248 -1.2144
11 10 12 2.1179 -4.8828
11 10 13 13.8851 -13.9798
11 10 14 6.5582 14.1206
11 10 15 -5.5649 4.9473
11 10 16 -1.3587 0.3028
11 10 17 1.1796 3.4880
11 10 18 -1.1299 -4.3700
11 10 19 4.3426 1.4935
11 10 20 -3.1736 1.5387
11 10 21 -5.8485 5.3042
11 10 22 3.3289 -8.9203
11 10 23 1.8993 -1.2543
11 11 0 0.4632 21.8432
11 11 1 2.9214 3.0237
11 11 2 -0.9009 3.0683
11 11 3 4.0410 3.5877
11 11 4 -7.8827 -17.9360
11 11 5 -8.7451 -1.8891
11 11 6 5.1890 -3.9118
11 11 7 2.3972 -4.0320
11 11 8 -15.3931 33.0526
11 11 9 3.5059 20.1913
11 11 10 -8.6976 -11.2684
11 11 11 -17.4898 -4.0224
11 11 12 0.1357 -8.2930
11 11 13 3.7614 4.9600
11 11 14 -7.5002 1.1130
11 11 15 3.0412 -0.4819
11 11 16 -6.9011 3.4898
11 11 17 -7.4614 2.9528
11 11 18 0.2052 -2.6825
11 11 19 -4.5940 -1.2444
11 11 20 -2.7061 -0.6064
11 11 21 -0.2808 2.3500
11 11 22 -5.2352 -4.7250
11 12 0 0.0275 4.1971
11 12 1 16.6842 -0.1743
11 12 2 -4.6716 2.1554
11 12 3 -16.0613 10.0499
11 12 4 -6.4240 5.9623
11 12 5 -11.2232 4.3317
11 12 6 17.0049 -1.8019
11 12 7 22.9585 -5.2881
11 12 8 4.0626 8.3515
11 12 9 1.7735 20.8510
11 12 10 -9.2845 -10.1840
11 12 11 -11.6887 1.6667
11 12 12 8.5922 1.4706
11 12 13 -5.7084 -2.6527
11 12 14 1.5643 -5.9467
11 12 15 3.2787 7.4496
11 12 16 -1.0257 -6.7850
11 12 17 -1.4983 2.5487
11 12 18 2.6109 -0.8294
11 12 19 -1.2182 -5.4617
11 12 20 -4.0615 0.2295
11 12 21 -3.6301 -0.3066
11 12 22 0.6457 3.2216
11 13 0 0.5011 -22.6641
11 13 1 1.3308 17.3986
11 13 2 7.9514 7.6388
11 13 3 2.7884 11.4178
11 13 4 3.2740 2.7155
11 13 5 -7.9401 -22.9282
11 13 6 -1.5448 -8.4003
11 13 7 11.7057 -5.6265
11 13 8 5.3223 -13.0708
11 13 9 7.1825 7.0200
11 13 10 4.2801 5.1876
11 13 11 -2.4068 0.8464
11 13 12 5.6735 -3.0541
11 13 13 4.2631 -9.3206
11 13 14 -0.7942 5.6522
11 13 15 5.6451 -3.1917
11 13 16 6.2778 -9.2248
11 13 17 -4.1016 0.7366
11 13 18 2.9803 7.2829
11 13 19 3.7200 2.8566
11 13 20 2.3873 2.3802
11 13 21 2.2619 -3.2445
11 14 0 0.1487 -19.5524
11 14 1 2.6547 -2.7657
11 14 2 21.2002 -3.5447
11 14 3 -12.0332 -6.0600
11 14 4 -9.4643 3.8248
11 14 5 1.8233 2.4719
11 14 6 -22.3033 -2.1142
11 14 7 -3.9515 -8.6550
11 14 8 7.6624 -9.7914
11 14 9 -3.0637 0.1375
11 14 10 9.6506 3.3893
11 14 11 3.2833 -0.4585
11 14 12 -7.1939 4.3258
11 14 13 1.5372 -2.5270
11 14 14 -5.3396 3.9198
11 14 15 -0.2037 1.4575
11 14 16 1.8656 2.1384
11 14 17 5.0264 0.1323
11 14 18 8.0424 4.7011
11 14 19 0.7353 -0.8812
11 14 20 -2.7157 -0.5645
11 15 0 0.4547 -8.4379
11 15 1 -11.1782 -4.6896
11 15 2 5.5859 4.6776
11 15 3 12.1852 -5.7903
11 15 4 -2.6429 20.6549
11 15 5 2.9257 11.3018
11 15 6 -6.3853 -2.3454
11 15 7 -11.4247 14.8958
11 15 8 -2.1334 -5.9099
11 15 9 -0.7069 -16.6111
11 15 10 1.7691 8.4703
11 15 11 -1.6692 0.7199
11 15 12 -1.1365 5.7502
11 15 13 -3.7283 10.3090
11 15 14 -2.5523 -7.0848
11 15 15 -2.9001 0.9745
11 15 16 -0.3906 -0.0209
11 15 17 -1.6600 -6.7310
11 15 18 -1.9853 -5.2275
11 15 19 -2.5211 3.2095
11 16 0 0.1045 16.2482
11 16 1 -4.1759 -19.8566
11 16 2 0.7521 2.8580
11 16 3 16.2241 -2.5441
11 16 4 2.7423 -0.0412
11 16 5 12.5603 9.9984
11 16 6 2.2979 2.4091
11 16 7 -12.9503 2.2489
11 16 8 -0.5926 7.0090
11 16 9 -4.9600 -6.5554
11 16 10 -2.1723 -5.7415
11 16 11 13.4704 2.4316
11 16 12 -4.7847 0.1140
11 16 13 -2.8399 -0.4624
11 16 14 6.0788 -2.6832
11 16 15 -12.5226 -1.6769
11 16 16 -5.4848 -2.4823
11 16 17 -0.7461 -0.2106
11 16 18 -0.5894 -3.0953
11 17 0 0.5218 3.7374
11 17 1 -3.2650 -6.6762
11 17 2 -15.9886 -7.2884
11 17 3 6.4910 -5.3663
11 17 4 3.3580 -13.9411
11 17 5 -5.4253 7.2728
11 17 6 11.1494 3.9049
11 17 7 2.4317 -0.9609
11 17 8 -3.7421 4.9819
11 17 9 5.8259 0.4022
11 17 10 -2.5032 -3.1001
11 17 11 -0.2053 -2.9352
11 17 12 3.6172 -8.5508
11 17 13 2.3357 9.0563
11 17 14 -0.5957 5.5326
11 17 15 2.0637 -3.5427
11 17 16 -1.6338 6.8879
11 17 17 2.2073 -1.0952
11 18 0 -0.0415 2.8452
11 18 1 -4.3998 9.4649
11 18 2 -9.3194 -5.1568
11 18 3 -3.5790 9.6132
11 18 4 5.8161 -9.1236
11 18 5 -5.6617 -4.3107
11 18 6 6.4801 -0.5865
11 18 7 7.9059 -9.5385
11 18 8 -0.8709 -0.3414
11 18 9 -0.2036 12.1935
11 18 10 -3.8528 -1.8885
11 18 11 -4.0322 2.9101
11 18 12 6.3308 2.9815
11 18 13 3.4818 -0.8420
11 18 14 6.3411 3.1842
11 18 15 2.7847 4.2929
11 19 0 0.4195 5.8760
11 19 1 11.1238 5.0326
11 19 2 11.9319 3.9779
11 19 3 -7.5194 2.8527
11 19 4 -1.3715 -0.0727
11 19 5 -9.9342 -10.4235
11 19 6 -8.3212 -0.9896
11 19 7 7.8006 -2.6607
11 19 8 0.5027 -0.1281
11 19 9 2.6114 8.3573
11 19 10 7.3858 1.3237
11 19 11 -5.0678 -3.5281
11 19 12 -0.3280 -4.0403
11 19 13 0.5049 -8.0743
11 19 14 -0.9485 1.7452
11 20 0 -0.2456 -18.9052
11 20 1 8.2808 -5.3435
11 20 2 4.9171 4.5065
11 20 3 -6.0802 2.8993
11 20 4 -11.0647 18.5454
11 20 5 -1.0457 -6.6040
11 20 6 -2.8577 1.3583
11 20 7 4.1876 -0.9457
11 20 8 3.1642 -10.5085
11 20 9 -0.1678 -6.3884
11 20 10 -1.2165 0.4976
11 20 11 -9.3131 -3.6720
11 20 12 -4.1890 2.6771
11 21 0 0.0996 -13.9034
11 21 1 -10.9258 5.2751
11 21 2 9.2901 5.9524
11 21 3 5.5073 4.9073
11 21 4 0.9317 4.0146
11 21 5 5.8083 2.6560
11 21 6 -9.9705 -7.1380
11 21 7 -4.2047 -0.9209
11 21 8 -0.8151 1.6857
11 21 9 -6.0378 4.1062
11 21 10 1.4536 3.5305
11 22 0 -0.1975 6.3117
11 22 1 2.0353 -3.5631
11 22 2 8.3404 -1.7179
11 22 3 1.9239 -8.5481
11 22 4 0.3245 -2.4666
11 22 5 -2.6817 8.0565
11 22 6 2.2264 0.2891
11 22 7 0.1733 10.5195
12 0 0 5.7856 -0.0548
12 0 1 -0.3539 -4.5058
12 0 2 10.3675 -0.0872
12 0 3 -0.0065 -0.2682
12 0 4 17.4675 0.1861
12 0 5 1.1169 -9.5716
12 0 6 11.2211 -0.1639
12 0 7 0.7044 16.3821
12 0 8 -9.1202 -0.2688
12 0 9 -0.8162 6.7435
12 0 10 16.2624 0.2198
12 0 11 -1.2043 -26.6378
12 0 12 -0.5067 0.5321
12 0 13 0.4054 5.3639
12 0 14 -9.2268 -0.0664
12 0 15 0.9373 10.7895
12 0 16 6.9696 -0.7145
12 0 17 0.0317 -4.7051
12 0 18 -1.2157 -0.0394
12 0 19 -0.3635 -1.3791
12 0 20 -12.5117 0.5591
12 0 21 -0.3133 10.7855
12 0 22 -6.0468 0.1114
12 0 23 -0.0585 10.0495
12 0 24 -6.7919 -0.5523
12 0 25 0.2257 3.7985
12 1 0 -3.5009 0.1373
12 1 1 6.9141 -2.2496
12 1 2 4.2094 -0.2147
12 1 3 -3.5497 -18.3006
12 1 4 -9.1236 -5.9799
12 1 5 7.8533 -9.1768
12 1 6 10.9647 6.6345
12 1 7 2.4324 6.7976
12 1 8 8.7448 2.4559
12 1 9 -11.9217 -11.2663
12 1 10 1.6359 -7.2386
12 1 11 0.3198 -5.1619
12 1 12 -17.4023 12.0405
12 1 13 13.5773 -1.1099
12 1 14 14.9834 -6.3807
12 1 15 -8.5911 3.4708
12 1 16 6.8323 0.5544
12 1 17 -1.9480 -10.8442
12 1 18 0.9950 10.4699
12 1 19 1.6630 -0.3424
12 1 20 3.7854 -0.6023
12 1 21 1.0215 1.4555
12 1 22 24.0192 -3.5521
12 1 23 -0.9458 12.6939
12 1 24 1.3607 4.4196
12 1 25 -4.5880 -8.4769
12 2 0 -1.1547 -0.3457
12 2 1 -6.7112 0.3011
12 2 2 -17.6299 2.2921
12 2 3 -4.6916 1.8053
12 2 4 -15.8263 -10.3791
12 2 5 13.2963 3.5463
12 2 6 6.6312 -6.9683
12 2 7 -2.1723 -0.9956
12 2 8 -10.0206 4.7462
12 2 9 -1.6707 -10.0952
12 2 10 -4.8816 15.9434
12 2 11 7.0286 12.3632
12 2 12 2.7890 -10.0537
12 2 13 4.7932 3.4124
12 2 14 0.6131 -10.6900
12 2 15 -4.9757 -0.0215
12 2 16 8.8209 9.6953
12 2 17 0.4740 -3.4975
12 2 18 -3.3399 9.0352
12 2 19 9.0639 3.8235
12 2 20 -3.9603 -15.9432
12 2 21 2.5426 -11.9060
12 2 22 17.8200 8.2492
12 2 23 -2.7473 -8.8917
12 2 24 7.0394 6.3702
12 2 25 -9.6281 0.4648
12 3 0 4.8034 0.2778
12 3 1 -10.0651 7.8522
12 3 2 -11.2560 10.8419
12 3 3 5.9243 6.7337
12 3 4 0.8630 -16.1564
12 3 5 -11.5039 3.2521
12 3 6 6.3383 -3.8650
12 3 7 -9.5893 3.0273
12 3 8 -4.3082 7.3314
12 3 9 17.9531 2.6331
12 3 10 -4.5275 -12.7470
12 3 11 14.7515 2.4502
12 3 12 -2.1250 -5.5820
12 3 13 -28.3104 2.9829
12 3 14 2.3882 -1.8369
12 3 15 11.8458 -0.0184
12 3 16 7.3298 1.2820
12 3 17 0.2520 -2.3410
12 3 18 -13.6331 -2.1517
12 3 19 1.0258 4.9443
12 3 20 -5.8922 -15.6298
12 3 21 -12.5199 1.5537
12 3 22 -4.5071 -10.0411
12 3 23 16.4852 -4.0021
12 3 24 -8.7824 7.7900
12 3 25 7.0108 -2.0383
12 4 0 14.4080 -0.0356
12 4 1 6.6799 7.1011
12 4 2 0.4172 5.1421
12 4 3 -5.4338 -4.1086
12 4 4 3.6953 -6.5585
12 4 5 -11.3938 8.6308
12 4 6 11.2575 16.6299
12 4 7 1.2589 -15.4278
12 4 8 -5.3662 1.2663
12 4 9 -3.3281 -12.4724
12 4 10 -1.6660 -22.1035
12 4 11 -10.4230 27.0435
12 4 12 9.7283 7.7852
12 4 13 -2.4686 -8.9394
12 4 14 -4.6617 -0.2259
12 4 15 -1.6320 -17.8313
12 4 16 -3.8461 -1.2864
12 4 17 3.4317 7.1601
12 4 18 -8.0845 2.1182
12 4 19 -8.9159 1.9825
12 4 20 -1.7662 3.2220
12 4 21 -4.6025 0.9454
12 4 22 -0.6334 -4.7008
12 4 23 -6.3876 -6.6536
12 4 24 1.4164 -4.3826
12 4 25 13.8065 13.1416
12 5 0 13.1876 0.7113
12 5 1 -3.1432 -5.0005
12 5 2 -1.5355 1.7555
12 5 3 -5.0927 8.0805
12 5 4 11.8167 2.9362
12 5 5 10.6978 -9.8042
12 5 6 -0.1386 10.0799
12 5 7 -14.2023 -0.7103
12 5 8 -24.1569 3.6325
12 5 9 16.2414 8.6001
12 5 10 8.0247 -0.6796
12 5 11 -13.5754 -7.0652
12 5 12 20.7547 9.4336
12 5 13 -9.6958 -6.2694
12 5 14 -15.8473 11.9086
12 5 15 4.1560 3.6247
12 5 16 -0.6709 -2.7847
12 5 17 5.7677 5.0370
12 5 18 6.9773 9.1196
12 5 19 -2.9598 2.1527
12 5 20 -1.2082 6.0514
12 5 21 2.6194 -4.4059
12 5 22 -1.3199 10.4081
12 5 23 -5.5333 -1.7745
12 5 24 4.6136 -3.9752
12 5 25 1.5939 -17.9860
12 6 0 -0.5449 0.0368
12 6 1 3.6606 3.5880
12 6 2 0.6098 -0.5413
12 6 3 2.5501 -16.4458
12 6 4 2.0956 -1.5762
12 6 5 1.8009 3.2722
12 6 6 -3.0099 11.1573
12 6 7 15.0992 9.7505
12 6 8 -0.2872 -4.5819
12 6 9 -4.6894 7.3361
12 6 10 4.9394 -12.0049
12 6 11 -0.7035 -0.6240
12 6 12 0.1943 11.6158
12 6 13 17.6701 -8.5807
12 6 14 -2.9332 15.7180
12 6 15 1.5211 6.2639
12 6 16 6.0389 -11.9688
12 6 17 -0.5623 4.1838
12 6 18 9.4050 3.2197
12 6 19 -0.3698 -3.7594
12 6 20 -1.3274 1.6365
12 6 21 3.6167 7.1496
12 6 22 -4.4802 -4.1324
12 6 23 -4.6872 -1.0226
12 6 24 -8.4957 1.8577
12 7 0 -9.9234 0.4664
12 7 1 -13.2900 -5.3199
12 7 2 1.6547 -1.3230
12 7 3 -1.7084 -0.8752
12 7 4 -9.9540 -4.6961
12 7 5 17.8442 -5.7675
12 7 6 3.9903 -6.9005
12 7 7 5.8016 2.1944
12 7 8 3.0280 -6.8735
12 7 9 -9.6326 2.8259
12 7 10 4.4558 -0.0324
12 7 11 -5.2294 -15.2165
12 7 12 -1.7272 -6.5012
12 7 13 13.3161 4.9451
12 7 14 1.1054 -14.8071
12 7 15 8.8450 5.3127
12 7 16 -8.1358 -0.5239
12 7 17 -10.4832 -9.2640
12 7 18 9.7230 -1.7006
12 7 19 6.4580 -0.4852
12 7 20 -11.0909 2.3758
12 7 21 -1.4774 4.3470
12 7 22 7.6391 -4.5880
12 7 23 -2.1153 4.0196
12 7 24 -1.6857 -4.3174
12 8 0 -3.5234 0.1225
12 8 1 8.0278 9.4703
12 8 2 -6.8566 7.3622
12 8 3 -7.2834 -7.8953
12 8 4 -6.6143 2.4393
12 8 5 -4.0350 -4.1694
12 8 6 0.5798 -22.6559
12 8 7 -1.7615 8.6499
12 8 8 3.0696 5.3997
12 8 9 -12.6551 -0.6388
12 8 10 -6.2122 16.2668
12 8 11 1.5498 -6.8382
12 8 12 -9.3243 -10.1817
12 8 13 -3.1788 -7.2866
12 8 14 9.5340 -5.0521
12 8 15 -9.7603 10.3498
12 8 16 1.6515 -2.5044
12 8 17 1.2358 -5.1688
12 8 18 -9.0936 2.8294
12 8 19 12.6057 -1.8850
12 8 20 4.2109 -0.5080
12 8 21 -5.0873 3.8540
12 8 22 -8.9570 -5.0509
12 8 23 4.2220 -5.4001
12 9 0 22.6937 0.7029
12 9 1 1.5962 4.3780
12 9 2 0.4545 3.3333
12 9 3 -0.2175 18.4725
12 9 4 -11.6584 2.1738
12 9 5 -9.9375 -3.1287
12 9 6 -6.3128 -0.8624
12 9 7 -2.2212 7.5560
12 9 8 32.1396 10.5345
12 9 9 -2.8723 1.2667
12 9 10 -17.7886 11.0324
12 9 11 4.1454 2.9898
12 9 12 -7.0158 -4.4503
12 9 13 -5.2795 4.3362
12 9 14 0.9392 6.1150
12 9 15 -3.7073 -8.2805
12 9 16 6.9842 11.2278
12 9 17 -3.9116 -4.6799
12 9 18 -4.7623 -4.8187
12 9 19 7.6445 8.5373
12 9 20 0.3312 -0.8239
12 9 21 -7.1176 6.7525
12 9 22 0.6359 5.0858
12 9 23 -1.7935 -0.0373
12 10 0 7.1926 0.2346
12 10 1 11.7438 -16.7650
12 10 2 11.1376 9.5043
12 10 3 -2.0336 20.2740
12 10 4 1.4350 5.4368
12 10 5 -5.2893 4.1742
12 10 6 4.4798 -14.0651
12 10 7 6.0478 -12.6891
12 10 8 8.2645 2.4147
12 10 9 3.5134 -7.5821
12 10 10 -4.2027 11.2867
12 10 11 1.9909 5.7167
12 10 12 0.1973 -7.1070
12 10 13 -0.9226 13.2993
12 10 14 -0.8488 0.6620
12 10 15 -0.3756 -8.3262
12 10 16 -8.2038 5.0116
12 10 17 9.8410 -3.1711
12 10 18 -1.6068 -1.3505
12 10 19 -0.0147 3.9004
12 10 20 9.2512 -1.4967
12 10 21 -1.7802 5.8680
12 10 22 3.5142 1.4398
12 11 0 -13.9067 0.6227
12 11 1 31.7834 -17.3573
12 11 2 1.8254 -1.2199
12 11 3 9.6290 1.6349
12 11 4 2.5100 3.0515
12 11 5 -13.6064 -8.6672
12 11 6 -2.6162 -2.5696
12 11 7 -4.6380 -10.8162
12 11 8 -7.4289 -2.7453
12 11 9 10.6463 -3.7060
12 11 10 0.2525 0.5012
12 11 11 12.8884 -2.9430
12 11 12 4.2223 -0.1145
12 11 13 -3.1503 3.3483
12 11 14 5.4423 -0.6885
12 11 15 -8.4918 0.5803
12 11 16 -7.6931 -5.6601
12 11 17 12.2364 -0.6744
12 11 18 0.1383 -8.5981
12 11 19 -1.6041 0.7466
12 11 20 2.9343 -2.4829
12 11 21 0.2103 -3.1767
12 11 22 1.9280 2.9900
12 12 0 -8.2599 0.1084
12 12 1 9.8058 -11.2185
12 12 2 -7.1970 -22.3129
12 12 3 3.5728 17.5738
12 12 4 5.4323 2.4547
12 12 5 -3.3035 -2.1924
12 12 6 -7.2576 21.5633
12 12 7 1.5854 1.0727
12 12 8 -3.8351 -0.1901
12 12 9 1.3432 -2.7191
12 12 10 2.5869 -16.6647
12 12 11 8.1640 -0.1241
12 12 12 -0.9688 2.5474
12 12 13 4.4789 6.9440
12 12 14 3.0689 9.7804
12 12 15 -5.5298 -5.0000
12 12 16 -1.3223 -1.6352
12 12 17 -4.4074 -0.7795
12 12 18 3.3298 -5.5172
12 12 19 -0.4433 4.0015
12 12 20 -0.5174 1.0033
12 12 21 -5.2649 -2.9982
12 13 0 -20.5239 0.7000
12 13 1 -6.1010 7.5477
12 13 2 5.6185 -10.5357
12 13 3 -4.1572 8.1253
12 13 4 19.8301 -0.3402
12 13 5 -0.4176 2.8545
12 13 6 5.7782 7.8747
12 13 7 12.8958 8.3940
12 13 8 -21.8101 -4.7342
12 13 9 -18.2439 1.5841
12 13 10 6.4849 -3.0047
12 13 11 0.1304 -1.7952
12 13 12 10.7374 -5.3790
12 13 13 0.7968 8.0261
12 13 14 -4.0679 0.5610
12 13 15 0.1544 2.8054
12 13 16 -6.1566 3.1074
12 13 17 -4.1744 -2.6697
12 13 18 3.3416 1.6488
12 13 19 0.6431 2.5096
12 13 20 1.4491 0.7406
12 14 0 -4.4451 0.0590
12 14 1 -7.8320 11.4867
12 14 2 -0.8946 -5.0854
12 14 3 -8.1444 -14.9159
12 14 4 3.1045 -4.7097
12 14 5 3.6495 -13.3278
12 14 6 -5.1435 4.3951
12 14 7 0.2039 13.3714
12 14 8 0.2293 -0.7158
12 14 9 -10.8746 9.0255
12 14 10 -7.3496 -8.3041
12 14 11 -2.5114 -14.3980
12 14 12 1.0031 3.5706
12 14 13 -2.0338 -2.4915
12 14 14 2.6557 0.0083
12 14 15 -3.3922 9.4187
12 14 16 0.0586 -1.0719
12 14 17 1.2370 -1.6825
12 14 18 -2.8514 -1.4862
12 14 19 5.2593 -0.9007
12 15 0 12.4096 0.4389
12 15 1 -8.5291 0.9079
12 15 2 -9.5878 7.8968
12 15 3 -8.7456 -10.2181
12 15 4 -9.4194 4.4267
12 15 5 15.3305 -5.4806
12 15 6 0.6616 -8.0250
12 15 7 4.5094 1.6179
12 15 8 9.4019 5.6849
12 15 9 -2.8301 -0.8645
12 15 10 -5.1402 8.2555
12 15 11 -3.1557 -1.9888
12 15 12 -3.1618 -4.2842
12 15 13 11.5974 -2.3789
12 15 14 1.8521 2.0653
12 15 15 1.2295 -2.5567
12 15 16 4.3426 3.6732
12 15 17 -3.6521 -2.9363
12 15 18 -3.5555 -5.7146
12 16 0 14.5338 0.0902
12 16 1 5.7838 0.6268
12 16 2 9.2464 16.6390
12 16 3 6.6748 -0.8040
12 16 4 -7.4467 -5.3146
12 16 5 -0.7785 2.4682
12 16 6 6.3520 -12.2805
12 16 7 0.8374 -2.3091
12 16 8 14.9100 7.4568
12 16 9 9.7672 -3.4005
12 16 10 -2.6684 11.0236
12 16 11 3.9259 6.3137
12 16 12 -1.1959 -7.3276
12 16 13 -0.2460 -3.3986
12 16 14 5.5891 -2.1771
12 16 15 2.8135 1.4642
12 16 16 -4.3179 4.2323
12 16 17 -0.6416 0.9630
12 17 0 5.1634 0.2961
12 17 1 11.1545 -11.0948
12 17 2 3.4188 -1.8772
12 17 3 1.5476 15.0333
12 17 4 -13.0206 2.1691
12 17 5 -11.3464 7.2036
12 17 6 7.9324 -7.7034
12 17 7 -10.9170 -9.6835
12 17 8 2.6692 0.7187
12 17 9 13.1944 -2.1205
12 17 10 -4.0360 -1.3945
12 17 11 -4.7316 7.4819
12 17 12 -1.7666 -5.8181
12 17 13 -9.2714 -0.0152
12 17 14 5.5456 0.2230
12 17 15 1.7263 -1.0891
12 17 16 0.7149 -1.4174
12 18 0 -24.6247 0.1473
12 18 1 5.9160 -7.5991
12 18 2 -6.1866 -3.5631
12 18 3 6.7576 15.8814
12 18 4 0.2507 4.2794
12 18 5 -15.4392 5.8596
12 18 6 -8.9439 -1.9831
12 18 7 -0.8015 -12.6457
12 18 8 -10.5142 -0.1469
12 18 9 -2.5190 0.2544
12 18 10 -4.5718 -6.6918
12 18 11 -2.4003 9.3981
12 18 12 0.3659 -1.1862
12 18 13 -7.1217 -4.2000
12 18 14 -0.8132 0.7809
12 19 0 -10.5131 0.4240
12 19 1 4.5430 3.8523
12 19 2 6.1235 -9.5359
12 19 3 9.5266 -0.0726
12 19 4 10.9550 1.3035
12 19 5 -6.6865 -3.7304
12 19 6 -7.6090 10.8389
12 19 7 3.5569 2.6676
12 19 8 -2.6282 0.8766
12 19 9 3.8884 6.6433
12 19 10 1.5152 0.1327
12 19 11 1.1426 -2.7193
12 19 12 4.3677 1.7366
12 19 13 -2.8844 0.8875
12 20 0 19.1376 0.1484
12 20 1 -3.3394 -2.0863
12 20 2 5.5166 -10.9325
12 20 3 -11.2171 -7.9145
12 20 4 9.3062 3.8848
12 20 5 11.9928 1.3961
12 20 6 8.7857 7.4481
12 20 7 9.1031 2.8888
12 20 8 7.1066 -2.2719
12 20 9 -0.5689 -1.4332
12 20 10 2.4744 0.5169
12 20 11 -0.2706 -0.3283
12 21 0 -1.5947 0.0863
12 21 1 -6.7201 1.3230
12 21 2 -10.4925 17.0340
12 21 3 -7.0113 -4.3382
12 21 4 3.2656 -5.2906
12 21 5 10.2417 -10.1549
12 21 6 1.0406 -10.5174
12 21 7 -6.9960 3.6505
12 21 8 -0.7258 1.3931
12 22 0 2.9214 -0.2539
12 22 1 3.4124 9.9541
12 22 2 -5.2704 7.2643
12 22 3 2.6909 -2.2352
12 22 4 -27.2437 -11.6364
13 0 1 -0.3060 21.1974
13 0 2 -1.2588 0.4898
13 0 3 0.3105 -4.6554
13 0 4 5.2466 0.9216
13 0 5 -0.0287 -20.9626
13 0 6 -8.1216 -0.3508
13 0 7 -0.5456 4.5193
13 0 8 0.7804 -1.3997
13 0 9 0.5198 -7.2197
13 0 10 31.9855 -0.1990
13 0 11 0.1566 -11.4395
13 0 12 -13.4986 1.3590
13 0 13 -0.3827 -5.2155
13 0 14 -2.4675 0.5268
13 0 15 -0.2492 3.1515
13 0 16 8.6086 -0.7051
13 0 17 0.3899 2.2105
13 0 18 2.4566 -0.4665
13 0 19 0.1918 -4.6217
13 0 20 -10.8262 -0.0928
13 0 21 -0.2097 -15.8071
13 0 22 -0.4688 0.0803
13 0 23 -0.0173 19.6083
13 0 24 1.8750 0.2682
13 0 25 0.2208 18.4251
13 1 0 0.3407 5.4530
13 1 1 6.7590 6.1785
13 1 2 8.3382 -2.3779
13 1 3 -15.8674 -9.5719
13 1 4 -5.6095 0.6372
13 1 5 7.9119 5.6540
13 1 6 -11.6334 3.2118
13 1 7 0.7292 5.1727
13 1 8 3.6678 -14.9092
13 1 9 -11.4277 -16.0868
13 1 10 -5.5534 6.0600
13 1 11 5.7133 -11.8226
13 1 12 -11.6962 11.9244
13 1 13 -1.9126 16.3058
13 1 14 -4.9989 -14.5350
13 1 15 2.5696 -7.7282
13 1 16 0.3782 1.8678
13 1 17 -5.9582 -4.4230
13 1 18 -11.9407 1.2810
13 1 19 -3.0683 2.5206
13 1 20 -9.7529 2.0005
13 1 21 3.7743 -0.2936
13 1 22 -13.5582 -3.2994
13 1 23 11.3565 -7.9267
13 1 24 19.6322 -1.7975
13 1 25 -11.3360 -12.1485
13 2 0 0.1169 -9.2858
13 2 1 2.4849 2.1349
13 2 2 -6.9963 9.6956
13 2 3 -3.0892 0.4770
13 2 4 1.4926 6.0792
13 2 5 10.3608 6.4722
13 2 6 -0.4410 -0.6291
13 2 7 -16.3259 17.5915
13 2 8 -5.8054 -3.4710
13 2 9 -12.1649 -5.1287
13 2 10 -3.9153 9.3587
13 2 11 24.2289 8.7700
13 2 12 -13.5855 -5.7633
13 2 13 -3.2978 7.7750
13 2 14 5.5533 -5.9053
13 2 15 -14.8005 -3.2654
13 2 16 0.0393 6.7447
13 2 17 10.4247 0.3160
13 2 18 -0.6682 2.6281
13 2 19 -1.5686 1.2180
13 2 20 10.3266 2.5169
13 2 21 0.0672 4.6019
13 2 22 -4.0286 -8.7566
13 2 23 -6.4271 -3.7132
13 2 24 -0.8003 -5.9836
13 3 0 0.2027 4.8777
13 3 1 -0.0325 9.3464
13 3 2 0.9289 0.1219
13 3 3 8.7659 0.3247
13 3 4 -1.0643 -9.8051
13 3 5 10.8617 3.3870
13 3 6 7.0405 12.6890
13 3 7 -8.4218 11.6009
13 3 8 1.8146 7.4500
13 3 9 7.7556 -12.8499
13 3 10 2.0446 3.3925
13 3 11 5.7918 6.9216
13 3 12 2.1076 -15.8063
13 3 13 -3.3882 18.1273
13 3 14 13.0449 2.1534
13 3 15 -3.1554 -11.4708
13 3 16 0.5563 10.7066
13 3 17 13.1220 1.3581
13 3 18 6.3208 -7.9773
13 3 19 1.3611 0.9061
13 3 20 9.1620 5.7612
13 3 21 -0.4945 0.6195
13 3 22 7.8309 11.8639
13 3 23 -16.9953 8.0274
13 3 24 -11.3248 -6.4530
13 4 0 0.0250 0.6871
13 4 1 6.8361 -1.6166
13 4 2 -5.5984 -10.2621
13 4 3 -10.9909 -6.7571
13 4 4 14.5233 -9.5096
13 4 5 7.3220 3.0654
13 4 6 7.5767 -2.2850
13 4 7 2.9170 -9.2541
13 4 8 -3.1178 7.0479
13 4 9 8.6811 -4.5080
13 4 10 -4.6732 -6.5370
13 4 11 1.5350 3.3937
13 4 12 6.4477 1.2254
13 4 13 -11.7916 -4.2695
13 4 14 14.4025 8.8294
13 4 15 -1.3471 -4.9262
13 4 16 -5.5534 -1.5631
13 4 17 6.4658 0.1996
13 4 18 -8.9583 -9.2092
13 4 19 -8.4376 4.9924
13 4 20 6.5500 -5.0634
13 4 21 10.4670 1.9723
13 4 22 -13.8017 19.5698
13 4 23 0.9068 10.7117
13 4 24 -2.0354 5.3765
13 5 0 0.3346 5.5997
13 5 1 -5.4767 7.2316
13 5 2 -2.0074 -12.7031
13 5 3 -5.1922 0.0646
13 5 4 2.1141 1.1285
13 5 5 -8.5527 -20.0363
13 5 6 7.5080 4.6731
13 5 7 -1.3139 -1.3293
13 5 8 -6.4807 -8.0593
13 5 9 1.2780 4.2285
13 5 10 1.6850 -4.5245
13 5 11 -9.5369 10.9025
13 5 12 5.4176 4.1435
13 5 13 -3.9276 -14.3382
13 5 14 -10.3052 -0.8178
13 5 15 3.6875 -7.4171
13 5 16 -10.8119 10.2229
13 5 17 -11.0694 4.0196
13 5 18 -3.2937 -7.4012
13 5 19 -0.9607 0.3650
13 5 20 6.7937 1.1922
13 5 21 3.2044 -7.9017
13 5 22 2.3544 -6.5926
13 5 23 15.6249 8.4089
13 5 24 -9.2060 -4.2189
13 6 0 -0.0018 -0.4687
13 6 1 -0.8759 2.9591
13 6 2 0.9302 13.8191
13 6 3 -12.7244 0.3041
13 6 4 3.2566 1.6488
13 6 5 -3.4832 0.9277
13 6 6 -19.2073 5.6866
13 6 7 8.6417 -5.9425
13 6 8 -3.7102 -3.2636
13 6 9 -1.8002 10.0871
13 6 10 22.0771 -6.9406
13 6 11 -8.8091 -4.9586
13 6 12 -10.7294 6.1518
13 6 13 -3.9465 -2.7331
13 6 14 -3.4848 -2.3035
13 6 15 11.0185 7.1145
13 6 16 -0.0273 -5.8041
13 6 17 6.2965 -0.1362
13 6 18 4.5513 0.1066
13 6 19 -1.3442 -16.0644
13 6 20 2.1699 -3.8651
13 6 21 0.3257 -8.0017
13 6 22 0.8729 4.2115
13 6 23 3.8483 -4.6118
13 6 24 17.6161 -3.4262
13 7 0 -0.0163 -3.6635
13 7 1 3.9897 4.7757
13 7 2 4.9074 5.0615
13 7 3 7.1344 -5.1631
13 7 4 -9.8450 14.2233
13 7 5 -0.6069 7.4136
13 7 6 -6.6901 5.5810
13 7 7 6.3034 0.1371
13 7 8 -4.0587 -27.6786
13 7 9 1.6293 4.4216
13 7 10 1.3054 9.7620
13 7 11 1.9306 -10.4732
13 7 12 2.5802 15.5437
13 7 13 11.7029 6.3565
13 7 14 -5.1483 -10.2589
13 7 15 -2.4288 -2.3174
13 7 16 12.0244 -6.7873
13 7 17 -3.5724 3.9460
13 7 18 -4.8485 -2.4601
13 7 19 0.6364 2.3751
13 7 20 1.9538 10.1104
13 7 21 8.8484 3.2557
13 7 22 0.2516 -6.9364
13 7 23 -1.5330 -0.7515
13 8 0 -0.2628 -15.6321
13 8 1 -4.2736 -9.7647
13 8 2 7.6223 -4.4639
13 8 3 16.5293 8.2819
13 8 4 1.7014 4.1377
13 8 5 10.4812 2.3464
13 8 6 -12.9052 -6.6160
13 8 7 -9.3233 5.7286
13 8 8 1.7033 3.7491
13 8 9 -9.1275 -4.5931
13 8 10 10.6253 -1.3590
13 8 11 12.4319 2.8527
13 8 12 -6.8009 7.0761
13 8 13 8.4516 3.6534
13 8 14 -9.1419 6.4467
13 8 15 -13.4913 5.1992
13 8 16 2.8799 7.6937
13 8 17 -3.3382 -2.1535
13 8 18 1.5044 6.6582
13 8 19 1.4860 3.2596
13 8 20 -2.6166 -4.9340
13 8 21 -2.3983 5.0981
13 8 22 -8.2573 -4.7711
13 8 23 -3.5818 7.5902
13 9 0 0.3667 -6.9448
13 9 1 -6.4918 -17.4168
13 9 2 13.3389 2.1884
13 9 3 5.2988 -8.7153
13 9 4 3.5904 -9.1799
13 9 5 1.0325 13.6184
13 9 6 10.8092 2.7045
13 9 7 -11.1817 14.2730
13 9 8 1.5592 4.9246
13 9 9 -2.2727 -13.2789
13 9 10 3.2095 0.1220
13 9 11 -1.2958 -8.3408
13 9 12 12.9515 -3.6694
13 9 13 -3.7254 13.7338
13 9 14 -0.7381 2.9829
13 9 15 0.2258 4.8546
13 9 16 -9.5239 0.8807
13 9 17 -0.2858 -13.9817
13 9 18 -3.5845 4.1001
13 9 19 -1.5907 1.6647
13 9 20 -9.6513 -2.9357
13 9 21 -2.5582 -2.6872
13 9 22 2.4341 0.1978
13 10 0 -0.2635 -2.9935
13 10 1 -12.5246 -4.0428
13 10 2 -11.6604 4.0918
13 10 3 4.2481 -15.3430
13 10 4 -5.4993 -1.6696
13 10 5 5.1704 5.2033
13 10 6 26.2342 0.2755
13 10 7 -8.3773 -3.2444
13 10 8 -2.7307 8.3542
13 10 9 -8.5447 -5.8543
13 10 10 -14.5689 -19.8976
13 10 11 4.0786 -8.3980
13 10 12 9.4453 0.5817
13 10 13 4.7342 -8.9035
13 10 14 10.4932 1.3048
13 10 15 -11.0877 -1.6583
13 10 16 -0.8536 -10.3642
13 10 17 10.6766 6.5348
13 10 18 -1.1922 -6.6430
13 10 19 3.2551 -2.4986
13 10 20 1.1774 0.0953
13 10 21 0.3130 0.6474
13 11 0 0.3557 21.8905
13 11 1 -9.5375 10.1918
13 11 2 -10.4014 -1.3416
13 11 3 -0.4333 -1.5676
13 11 4 -9.9951 -13.5087
13 11 5 3.9791 -6.1315
13 11 6 5.4242 -14.0980
13 11 7 2.1786 -4.9489
13 11 8 -15.3406 31.5153
13 11 9 -3.5911 3.9231
13 11 10 -10.2912 -13.6269
13 11 11 1.1657 -2.9830
13 11 12 1.6712 -9.3377
13 11 13 8.8187 0.5355
13 11 14 -10.8377 5.0422
13 11 15 11.9618 -7.8654
13 11 16 3.2383 3.7822
13 11 17 -2.8795 -0.6411
13 11 18 10.3238 -6.5695
13 11 19 0.7651 11.4330
13 11 20 2.9224 0.7629
13 11 21 -0.8909 -5.3316
13 12 0 -0.2973 8.8763
13 12 1 18.3970 3.4900
13 12 2 -4.6778 7.8163
13 12 3 -18.2008 5.7648
13 12 4 -8.8992 -12.4455
13 12 5 -7.2336 -3.3259
13 12 6 9.6819 8.2288
13 12 7 14.2746 5.3448
13 12 8 3.1088 5.4506
13 12 9 7.0552 7.9316
13 12 10 -17.5508 9.9941
13 12 11 -3.6814 3.3098
13 12 12 7.5075 0.6061
13 12 13 -8.1196 2.7130
13 12 14 -4.1768 5.8617
13 12 15 7.5650 8.3045
13 12 16 -9.3720 -6.7914
13 12 17 2.8744 1.3945
13 12 18 1.3809 10.5558
13 12 19 -3.7312 -0.3623
13 12 20 -0.5864 2.6924
13 13 0 0.3870 -18.6785
13 13 1 16.0803 22.9497
13 13 2 -1.9508 10.0502
13 13 3 -4.2163 10.8533
13 13 4 8.3534 8.5480
13 13 5 -1.2393 -13.5076
13 13 6 1.8237 -1.6080
13 13 7 5.2565 -4.8984
13 13 8 8.4986 -3.0861
13 13 9 6.0200 7.7125
13 13 10 5.3383 4.0016
13 13 11 -4.6221 9.0663
13 13 12 0.0875 1.2793
13 13 13 -4.8316 -5.8838
13 13 14 1.0943 5.6940
13 13 15 -8.4045 -3.6233
13 13 16 1.1155 -7.6502
13 13 17 -4.8446 6.7181
13 13 18 -0.0971 -0.7532
13 13 19 -2.6916 -0.8194
13 14 0 -0.3304 -7.4273
13 14 1 5.2920 5.3534
13 14 2 24.5160 -8.8085
13 14 3 -10.4583 2.8435
13 14 4 -7.6310 7.9044
13 14 5 2.1943 -4.6626
13 14 6 -15.3145 -2.5127
13 14 7 -0.3006 -6.4949
13 14 8 2.6892 -13.7606
13 14 9 0.4569 -4.2926
13 14 10 12.2741 -5.6701
13 14 11 -0.2872 4.1893
13 14 12 -3.6350 1.1102
13 14 13 -3.4995 -3.6864
13 14 14 -4.6372 -7.0800
13 14 15 0.9800 -1.7442
13 14 16 4.1655 0.7254
13 14 17 1.8206 -3.8720
13 14 18 6.6385 -6.4607
13 15 0 0.3160 -19.3428
13 15 1 -11.9653 -12.1202
13 15 2 7.2570 1.1826
13 15 3 0.0991 -0.7198
13 15 4 1.2185 16.6452
13 15 5 -3.3406 -0.1376
13 15 6 -12.0951 -9.6544
13 15 7 -5.8678 14.6665
13 15 8 -7.3980 -10.1549
13 15 9 0.3028 -14.2148
13 15 10 8.0715 2.1422
13 15 11 3.6335 1.6918
13 15 12 -2.1826 6.3849
13 15 13 2.7540 6.2599
13 15 14 -0.8130 -6.6380
13 15 15 3.9683 -1.0157
13 15 16 -0.5763 -2.8480
13 15 17 5.1725 -4.5195
13 16 0 -0.1344 5.7486
13 16 1 -10.2134 -9.1759
13 16 2 5.5101 1.1060
13 16 3 16.0019 -7.2179
13 16 4 -2.9293 3.1186
13 16 5 6.3341 10.6977
13 16 6 1.0347 6.6119
13 16 7 -10.0826 -0.8048
13 16 8 5.5587 1.8712
13 16 9 -8.1161 3.0595
13 16 10 -0.6948 0.1946
13 16 11 14.1032 -5.9256
13 16 12 -1.6932 6.0020
13 16 13 -3.1412 6.6472
13 16 14 0.8443 3.9482
13 16 15 -8.2226 -2.3580
13 16 16 -3.8948 -1.0826
13 17 0 0.3716 9.3770
13 17 1 2.9476 -5.5411
13 17 2 -9.3400 -2.2940
13 17 3 9.1733 -7.5679
13 17 4 1.8511 -8.7560
13 17 5 1.5094 13.4523
13 17 6 6.0256 1.9150
13 17 7 3.9894 -2.8632
13 17 8 -2.0914 10.4109
13 17 9 -0.4757 -4.1787
13 17 10 -4.5273 -0.0394
13 17 11 -3.4675 -2.4602
13 17 12 4.6208 -5.5381
13 17 13 0.2567 6.4904
13 17 14 -4.9348 7.1359
13 17 15 -5.1806 -1.8896
13 18 0 -0.1190 0.9205
13 18 1 0.7014 6.8266
13 18 2 -15.7938 0.8695
13 18 3 -4.2742 6.5149
13 18 4 5.2359 -7.6554
13 18 5 -0.1810 -6.6172
13 18 6 8.6865 -1.0813
13 18 7 1.2031 -3.7411
13 18 8 -5.9325 1.5700
13 18 9 5.1413 6.5270
13 18 10 -8.4615 -5.0363
13 18 11 -3.0558 0.8953
13 18 12 4.8830 -0.9405
13 18 13 2.6865 -3.4838
13 19 0 0.3765 4.8863
13 19 1 5.4148 13.6877
13 19 2 8.3941 4.9623
13 19 3 -13.3540 5.1965
13 19 4 -2.9510 -11.6593
13 19 5 -6.9228 -14.9897
13 19 6 0.4023 6.4673
13 19 7 6.1692 1.3193
13 19 8 -0.2428 -0.6867
13 19 9 2.2519 6.4754
13 19 10 6.4707 -1.0188
13 19 11 -2.7892 2.8106
13 20 0 -0.1562 -12.2363
13 20 1 12.6881 2.5838
13 20 2 6.0747 1.1268
13 20 3 -15.6870 2.5279
13 20 4 -6.6571 11.2417
13 20 5 -2.0365 -6.9699
13 20 6 2.7536 -2.3928
13 20 7 8.5963 1.2245
13 20 8 2.0094 -5.1375
13 20 9 -1.8836 -0.8793
13 21 0 0.1207 -13.9855
13 21 1 -1.8018 4.4788
13 21 2 4.5790 1.6651
13 21 3 2.2854 6.8702
13 21 4 -0.9538 8.5306
13 21 5 5.1941 -3.0244
13 21 6 -11.0080 -8.6472
14 0 0 -15.7027 -0.4520
14 0 1 -0.4212 10.5755
14 0 2 5.2108 -0.4022
14 0 3 0.2875 -6.3296
14 0 4 7.5320 0.7628
14 0 5 0.1291 5.4679
14 0 6 1.1802 0.4423
14 0 7 1.1858 14.4546
14 0 8 -7.0490 -0.7714
14 0 9 -0.3504 0.8396
14 0 10 13.1443 -0.1945
14 0 11 -1.6341 0.0961
14 0 12 -6.8733 0.1223
14 0 13 0.2662 -11.1091
14 0 14 -0.9748 0.1083
14 0 15 1.3120 17.2351
14 0 16 2.4600 0.1541
14 0 17 0.2177 -2.2183
14 0 18 12.4181 0.2891
14 0 19 -0.7608 1.6641
14 0 20 -6.1851 -0.1715
14 0 21 -0.2476 7.0634
14 0 22 -10.6747 -0.2371
14 0 23 0.0559 9.1385
14 0 24 -11.6840 -0.0256
14 1 0 12.7509 0.2887
14 1 1 -7.9856 -1.0159
14 1 2 7.2910 -5.1630
14 1 3 0.2528 -19.2756
14 1 4 3.7432 0.5868
14 1 5 12.1835 -8.9490
14 1 6 4.2296 4.2363
14 1 7 -8.9529 1.5348
14 1 8 13.3268 -5.2480
14 1 9 -0.6787 -8.3400
14 1 10 0.8686 3.9384
14 1 11 -3.0476 0.2642
14 1 12 -9.8910 2.3147
14 1 13 4.4972 2.5812
14 1 14 -3.8235 -2.8194
14 1 15 2.0182 8.5252
14 1 16 7.4546 -6.0677
14 1 17 -8.4990 -2.8107
14 1 18 -6.7172 5.4327
14 1 19 3.4829 1.1297
14 1 20 2.9208 -0.3522
14 1 21 -0.0008 12.4150
14 1 22 4.4368 -0.3344
14 1 23 0.8261 27.2888
14 1 24 0.5402 -2.4258
14 2 0 8.0327 0.0378
14 2 1 -15.5837 -3.2404
14 2 2 -4.3973 6.2532
14 2 3 0.8686 -14.4029
14 2 4 -2.8667 -5.9344
14 2 5 7.6499 9.0215
14 2 6 -3.8383 -3.7422
14 2 7 -3.2528 -5.3016
14 2 8 6.5045 0.7518
14 2 9 -2.4975 -14.7506
14 2 10 -5.1809 13.5768
14 2 11 10.0365 7.4885
14 2 12 -0.8982 -2.0796
14 2 13 -3.0969 3.1763
14 2 14 0.2656 -7.5617
14 2 15 0.1402 -1.6029
14 2 16 1.1940 0.0948
14 2 17 -6.9061 -2.6125
14 2 18 -7.5383 7.9967
14 2 19 10.0811 -6.1320
14 2 20 -4.4343 -7.4525
14 2 21 9.3131 -7.7641
14 2 22 18.3432 6.4611
14 2 23 -1.0248 -4.5911
14 2 24 11.7011 -1.6955
14 3 0 -0.3245 0.2206
14 3 1 -7.1326 8.3624
14 3 2 -15.3581 7.3625
14 3 3 9.0501 0.0820
14 3 4 -5.8673 -2.3494
14 3 5 -2.9691 15.5023
14 3 6 2.5681 -9.7298
14 3 7 -15.7674 2.1507
14 3 8 -4.6808 3.4787
14 3 9 17.2400 -5.5392
14 3 10 -2.0972 0.1829
14 3 11 14.7943 4.9598
14 3 12 0.7398 -6.2326
14 3 13 -13.7799 1.0123
14 3 14 4.2991 1.8286
14 3 15 0.5712 -6.4330
14 3 16 6.6626 11.0108
14 3 17 2.4800 0.2545
14 3 18 1.1130 0.1367
14 3 19 -2.0750 -8.2706
14 3 20 -3.7252 -7.2853
14 3 21 4.3020 -7.1991
14 3 22 -3.2841 -14.5991
14 3 23 4.2384 -16.0596
14 3 24 -0.1397 25.8338
14 4 0 -0.1549 0.0670
14 4 1 4.5070 5.5544
14 4 2 -2.2893 -0.0446
14 4 3 2.9971 2.6548
14 4 4 -1.8264 -10.0713
14 4 5 -0.9358 13.1525
14 4 6 0.5996 11.6158
14 4 7 -16.6273 -9.2974
14 4 8 2.8480 -1.7570
14 4 9 11.1243 -14.2733
14 4 10 -7.6631 -17.3992
14 4 11 -5.8100 22.0039
14 4 12 6.3344 -0.8450
14 4 13 -2.4167 -2.1463
14 4 14 6.1630 6.7567
14 4 15 0.2883 -8.9670
14 4 16 -0.1485 -3.9808
14 4 17 5.9875 2.1762
14 4 18 -0.1011 3.2323
14 4 19 -16.9167 -1.4022
14 4 20 -7.7878 4.5971
14 4 21 -8.6817 6.6991
14 4 22 1.3766 -8.3363
14 4 23 -4.3737 1.6842
14 5 0 5.8141 0.6586
14 5 1 -6.4531 -7.0053
14 5 2 1.5380 -7.3818
14 5 3 -0.6930 -0.2309
14 5 4 15.1390 3.9461
14 5 5 0.9639 5.3103
14 5 6 2.7613 7.4524
14 5 7 -12.9972 -10.1514
14 5 8 -22.3241 1.9398
14 5 9 7.3673 0.4064
14 5 10 4.8047 -0.2594
14 5 11 -5.7727 3.0990
14 5 12 16.4149 -7.0180
14 5 13 -13.0298 -3.3821
14 5 14 -11.7462 4.5714
14 5 15 6.1858 -0.9206
14 5 16 -9.1764 -10.0501
14 5 17 -5.6961 10.1015
14 5 18 2.6967 6.5448
14 5 19 6.9625 8.6814
14 5 20 -5.1015 5.0795
14 5 21 -1.4646 2.0897
14 5 22 -5.0370 -4.4234
14 5 23 -8.0089 -2.7737
14 6 0 -9.6945 0.2825
14 6 1 -4.0416 5.6600
14 6 2 7.6125 -1.5285
14 6 3 6.2770 -16.6535
14 6 4 12.6580 3.1078
14 6 5 -3.1181 4.1539
14 6 6 -1.6082 17.5552
14 6 7 7.2584 6.2676
14 6 8 -4.4944 3.2390
14 6 9 -1.7571 5.3867
14 6 10 2.8567 -14.8226
14 6 11 -1.0243 -2.6458
14 6 12 -5.6511 15.9152
14 6 13 1.3646 -6.4971
14 6 14 1.9523 9.0142
14 6 15 2.3218 6.3727
14 6 16 -2.9840 -5.3323
14 6 17 1.8832 4.2436
14 6 18 12.8624 -3.2156
14 6 19 9.8462 -8.1123
14 6 20 -9.3901 0.9699
14 6 21 0.7888 11.2661
14 6 22 -4.6697 -1.9875
14 6 23 -0.1045 -7.9051
14 7 0 0.1628 0.3685
14 7 1 -11.3618 1.3738
14 7 2 2.3385 -10.4850
14 7 3 -3.3522 -2.8584
14 7 4 -4.9681 0.4990
14 7 5 21.8426 -6.4592
14 7 6 6.8962 3.9019
14 7 7 6.2111 8.6209
14 7 8 -5.4066 -7.1918
14 7 9 -6.3144 2.9015
14 7 10 6.5691 6.9799
14 7 11 -2.9822 -5.5079
14 7 12 -0.0761 -1.6321
14 7 13 16.6481 1.8279
14 7 14 -2.4840 -2.2028
14 7 15 6.3460 -1.2377
14 7 16 4.0839 7.2456
14 7 17 -9.2892 -14.8207
14 7 18 4.1291 -0.7224
14 7 19 4.6206 0.6835
14 7 20 -0.1070 10.1572
14 7 21 -2.3902 3.0840
14 7 22 4.3207 -0.3378
14 8 0 -4.4898 0.3130
14 8 1 -4.1313 2.5442
14 8 2 -13.0015 11.3579
14 8 3 -8.3667 -10.4591
14 8 4 1.0648 -8.9595
14 8 5 3.5351 -8.6971
14 8 6 -8.0693 -15.4472
14 8 7 7.9540 10.1783
14 8 8 9.6390 -2.8516
14 8 9 -14.3825 0.0647
14 8 10 -5.3394 9.3074
14 8 11 6.4583 -8.7168
14 8 12 -2.3409 -8.7683
14 8 13 -5.8833 -1.2291
14 8 14 7.1431 -9.8968
14 8 15 -6.5863 9.5268
14 8 16 -0.4421 -2.9763
14 8 17 3.3884 -9.0227
14 8 18 -8.6311 10.3099
14 8 19 5.4053 2.3631
14 8 20 10.4600 -1.2259
14 8 21 -0.6460 -3.8379
14 8 22 -5.8025 -4.4428
14 9 0 19.8061 0.3155
14 9 1 4.2511 7.9449
14 9 2 -12.5864 8.8105
14 9 3 -0.5205 2.9473
14 9 4 -15.0861 -2.3533
14 9 5 -6.7016 -9.2247
14 9 6 -4.7087 -7.0545
14 9 7 0.2906 4.3469
14 9 8 20.9114 3.2248
14 9 9 -5.8437 2.0939
14 9 10 -9.3002 6.3536
14 9 11 2.5346 -3.2867
14 9 12 -8.2751 -5.2102
14 9 13 -5.4444 7.5687
14 9 14 3.5926 0.1572
14 9 15 -14.6797 -11.4035
14 9 16 7.2000 3.7537
14 9 17 2.9309 5.7624
14 9 18 -2.6271 -13.5500
14 9 19 6.7510 1.2231
14 9 20 -11.4536 -4.9902
14 9 21 -9.6302 5.2207
14 10 0 25.2549 0.2942
14 10 1 4.2249 -9.7575
14 10 2 10.3923 12.5122
14 10 3 -3.9177 23.1074
14 10 4 -8.9507 1.0604
14 10 5 -4.4314 6.2925
14 10 6 9.6507 -8.8331
14 10 7 2.2926 -5.2028
14 10 8 2.4972 3.4923
14 10 9 4.2280 -4.1753
14 10 10 6.8749 8.9293
14 10 11 -0.6415 6.9770
14 10 12 -7.6247 1.1956
14 10 13 2.9858 12.5972
14 10 14 -0.3827 2.5117
14 10 15 -1.5232 -11.2158
14 10 16 -10.4154 7.3611
14 10 17 8.1217 -9.0526
14 10 18 1.6559 0.0692
14 10 19 -7.0289 10.3545
14 10 20 1.9944 2.5632
14 10 21 5.7860 10.3406
14 11 0 3.5629 0.2811
14 11 1 25.3779 -12.0888
14 11 2 3.4311 16.5306
14 11 3 6.7258 6.9590
14 11 4 8.5000 -2.6323
14 11 5 -12.0648 5.2285
14 11 6 1.8821 2.8088
14 11 7 -8.8784 -7.1471
14 11 8 -3.6685 -5.9981
14 11 9 8.1477 -3.2046
14 11 10 3.7810 3.6959
14 11 11 8.8573 -0.7825
14 11 12 6.4319 9.9444
14 11 13 -3.3631 3.4666
14 11 14 -2.1303 -3.5780
14 11 15 -4.2086 5.5699
14 11 16 -9.1744 1.2998
14 11 17 13.7454 -0.8344
14 11 18 1.0114 -0.2247
14 11 19 5.7049 0.5910
14 11 20 2.9202 -1.2416
14 12 0 -5.1386 0.4046
14 12 1 9.0201 -12.4691
14 12 2 -12.3824 -15.7086
14 12 3 15.3636 7.0652
14 12 4 -4.4154 -2.2105
14 12 5 -5.0169 0.3139
14 12 6 -1.7129 17.7022
14 12 7 -7.0407 -6.0250
14 12 8 -14.2941 -1.8622
14 12 9 -1.4062 -5.4162
14 12 10 9.7296 -14.7863
14 12 11 11.7184 -4.7094
14 12 12 -7.9268 4.9499
14 12 13 0.0991 3.8521
14 12 14 3.9117 9.5872
14 12 15 -2.5385 -3.0819
14 12 16 7.1631 -10.2656
14 12 17 -6.5019 1.1572
14 12 18 -4.6659 -4.0689
14 12 19 1.4398 3.1487
14 13 0 -21.4102 0.3014
14 13 1 -10.6522 -5.9033
14 13 2 -1.7495 -10.5646
14 13 3 2.5758 -0.4747
14 13 4 11.8945 -9.3415
14 13 5 0.4782 4.6644
14 13 6 3.9007 10.4199
14 13 7 13.9827 3.0448
14 13 8 -19.1498 0.0639
14 13 9 -11.3655 -9.9396
14 13 10 4.1014 -8.6742
14 13 11 4.5854 1.3521
14 13 12 11.3971 -2.4666
14 13 13 6.3713 5.4641
14 13 14 -7.9654 -9.6932
14 13 15 0.9404 -2.2623
14 13 16 -0.6023 7.6880
14 13 17 -6.1204 -1.4150
14 13 18 3.5265 0.1465
14 14 0 1.7255 0.3211
14 14 1 -4.3014 12.7079
14 14 2 2.2701 -3.7599
14 14 3 -9.1287 -12.7628
14 14 4 16.1707 -2.4733
14 14 5 7.6753 -11.9208
14 14 6 7.6951 2.2242
14 14 7 -3.4277 13.4659
14 14 8 0.4971 1.1903
14 14 9 0.8700 9.8811
14 14 10 -6.9473 -7.8295
14 14 11 -1.8943 -12.1981
14 14 12 5.0600 2.9396
14 14 13 -2.6003 0.1658
14 14 14 0.8950 -1.0825
14 14 15 -3.4616 11.5500
14 14 16 2.5852 0.6337
14 14 17 7.8377 -1.7528
14 15 0 13.9842 0.1097
14 15 1 -10.2314 12.6458
14 15 2 -3.8567 3.3241
14 15 3 -12.5568 -1.6575
14 15 4 -11.5153 3.2848
14 15 5 10.5915 -3.1792
14 15 6 -1.1208 -2.5208
14 15 7 3.3137 4.3968
14 15 8 9.3463 5.6116
14 15 9 -13.2072 5.1134
14 15 10 -6.1492 5.6722
14 15 11 -7.0859 3.1555
14 15 12 -5.0756 -4.1628
14 15 13 8.0998 -1.8167
14 15 14 3.3040 6.7752
14 15 15 -2.2452 -3.2520
14 15 16 3.3654 -1.5793
14 16 0 0.1135 0.3205
14 16 1 3.1660 3.1993
14 16 2 -0.8554 20.0588
14 16 3 -2.4653 0.9152
14 16 4 -15.5739 -3.6081
14 16 5 1.8737 1.0722
14 16 6 -7.0829 -16.5540
14 16 7 1.4261 4.9021
14 16 8 7.6042 6.8875
14 16 9 5.3507 -1.7310
14 16 10 -4.7243 12.3505
14 16 11 -2.3493 -2.0130
14 16 12 -2.5189 -8.0738
14 16 13 0.1301 -1.4568
14 16 14 3.7618 -4.3134
14 16 15 1.1627 -2.3465
14 17 0 15.0176 0.0163
14 17 1 11.8033 -15.2439
14 17 2 2.3161 2.3960
14 17 3 5.0322 -0.0549
14 17 4 -14.1297 3.9703
14 17 5 -5.1872 -2.1057
14 17 6 14.0053 -10.7581
14 17 7 -2.3903 -8.3531
14 17 8 7.9643 -2.5479
14 17 9 8.7316 -3.3510
14 17 10 -2.5012 2.5456
14 17 11 5.3225 2.3792
14 17 12 -4.9880 -5.6340
14 17 13 -3.8886 -1.3351
14 18 0 0.9049 0.1426
14 18 1 4.0327 -13.4282
14 18 2 3.5652 2.2734
14 18 3 7.9054 11.9433
14 18 4 5.3977 -3.0505
14 18 5 -9.4643 -0.9208
14 18 6 -0.0789 -0.8295
14 18 7 0.2633 -10.7707
14 18 8 3.4253 3.9885
14 18 9 -1.3842 -3.7778
14 18 10 -1.1422 -1.8947
14 18 11 0.9841 6.8842
14 18 12 0.5127 -0.8540
14 19 0 -13.0264 -0.0660
14 19 1 5.6865 7.3253
14 19 2 -1.4392 -2.8794
14 19 3 0.5181 11.6687
14 19 4 4.9382 -0.7875
14 19 5 -6.0459 5.2178
14 19 6 -7.2200 6.9045
14 19 7 -3.6465 4.4634
14 19 8 -6.7992 0.7466
14 19 9 0.6809 5.1284
14 19 10 -2.2041 2.4578
14 20 0 1.6568 0.4868
14 20 1 1.0556 8.8428
14 20 2 -5.0662 -11.3091
14 20 3 -4.6918 -7.8931
14 20 4 2.8088 4.1353
14 20 5 3.6824 6.2070
14 20 6 -1.7086 5.2653
14 20 7 5.1352 6.4296
14 21 0 1.3711 0.0290
14 21 1 -19.2166 -7.0717
14 21 2 1.0415 3.0449
15 0 1 -0.3628 11.1463
15 0 2 0.6080 -0.0980
15 0 3 -0.8701 5.5534
15 0 4 9.4958 1.3853
15 0 5 0.2835 0.6882
15 0 6 -8.7669 -0.9099
15 0 7 0.7857 -4.8922
15 0 8 1.9180 -1.0654
15 0 9 0.0812 8.7769
15 0 10 22.0356 0.3015
15 0 11 -0.2259 -12.5684
15 0 12 -1.7954 0.7179
15 0 13 -0.5047 0.4813
15 0 14 -4.9626 0.1218
15 0 15 -0.4275 1.5616
15 0 16 3.2803 -0.5560
15 0 17 0.3747 -5.7054
15 0 18 2.6722 0.0342
15 0 19 0.7273 -7.1427
15 0 20 5.4924 -0.1753
15 0 21 -0.1861 -19.5690
15 0 22 -0.0678 -0.0772
15 0 23 -0.3579 2.3601
15 1 0 -0.5736 -0.1714
15 1 1 2.3175 -3.4354
15 1 2 8.1870 -1.8726
15 1 3 -3.1210 -3.5733
15 1 4 2.4348 1.5416
15 1 5 -1.4753 -1.7555
15 1 6 -11.9281 3.8478
15 1 7 0.4356 2.6260
15 1 8 3.3312 -14.0965
15 1 9 -1.4478 -12.2131
15 1 10 -1.1321 4.3501
15 1 11 -4.0752 -16.3321
15 1 12 -3.4373 7.0172
15 1 13 10.1469 6.2379
15 1 14 2.5548 -5.7384
15 1 15 -4.3477 -5.1774
15 1 16 8.4131 0.3105
15 1 17 -1.0804 -0.3274
15 1 18 0.5758 -3.2258
15 1 19 -0.8100 -2.7605
15 1 20 -4.8286 2.8369
15 1 21 -2.8891 2.2742
15 1 22 -6.0578 1.9483
15 1 23 6.6529 -1.4530
15 2 0 0.1955 -8.1486
15 2 1 -5.0225 -6.5228
15 2 2 -3.1056 -1.9648
15 2 3 2.1655 -7.2463
15 2 4 -1.1673 7.4372
15 2 5 3.0342 2.8607
15 2 6 -3.8329 1.6698
15 2 7 -11.2031 2.3068
15 2 8 -3.0476 -7.0637
15 2 9 -8.9503 -2.2537
15 2 10 -3.5538 9.9286
15 2 11 9.9886 1.9767
15 2 12 -13.0350 -3.6383
15 2 13 3.5792 -0.6646
15 2 14 6.4574 -4.5982
15 2 15 -12.4967 9.7026
15 2 16 -3.1698 2.0190
15 2 17 5.0792 -3.4220
15 2 18 -0.0047 7.2589
15 2 19 -6.8569 14.1435
15 2 20 -0.6704 1.5569
15 2 21 1.0308 16.4693
15 2 22 -5.6527 -4.7831
15 2 23 -2.0656 -7.0883
15 3 0 -0.6092 13.0901
15 3 1 -7.0725 -0.0885
15 3 2 -2.1833 -4.0877
15 3 3 12.7950 -1.2752
15 3 4 2.6809 0.5828
15 3 5 8.2548 10.9598
15 3 6 0.0814 3.3995
15 3 7 -8.2718 4.5141
15 3 8 4.9079 9.7939
15 3 9 6.4996 -2.0786
15 3 10 0.7548 4.6428
15 3 11 -5.6223 7.1081
15 3 12 -6.3405 -11.8086
15 3 13 0.1840 13.6660
15 3 14 -1.9053 0.1982
15 3 15 -4.8832 -5.4434
15 3 16 3.3774 5.9533
15 3 17 1.1230 -1.2566
15 3 18 -6.1648 -1.4481
15 3 19 12.7051 2.7513
15 3 20 8.5466 2.2943
15 3 21 -10.6891 -4.5934
15 3 22 -5.8626 7.5769
15 3 23 -10.9238 3.5072
15 4 0 -0.0045 14.3819
15 4 1 6.6990 -9.1378
15 4 2 -7.7750 -2.7370
15 4 3 2.1281 0.7945
15 4 4 12.1000 -7.9889
15 4 5 2.9581 11.8014
15 4 6 6.5731 -0.2771
15 4 7 3.5178 -4.8632
15 4 8 2.7541 3.2599
15 4 9 8.3179 1.2489
15 4 10 -6.7308 -2.5095
15 4 11 3.4315 9.0080
15 4 12 6.6574 5.8526
15 4 13 -11.7509 -8.4158
15 4 14 8.9581 -8.2839
15 4 15 3.1744 3.6252
15 4 16 -1.6748 2.2343
15 4 17 7.1070 -16.0605
15 4 18 -1.6218 -9.6773
15 4 19 2.5927 -3.7421
15 4 20 8.6439 -2.3351
15 4 21 7.1758 -5.3917
15 4 22 -6.1309 18.6356
15 5 0 -0.7989 -1.5584
15 5 1 -3.3605 7.0805
15 5 2 -10.8914 -9.4163
15 5 3 4.2778 1.8694
15 5 4 3.5152 -7.3370
15 5 5 -15.5535 -12.7963
15 5 6 7.1021 2.4547
15 5 7 3.3419 -6.5603
15 5 8 -7.4309 -4.0950
15 5 9 11.4335 1.9064
15 5 10 9.2620 -2.1921
15 5 11 -5.2754 8.9729
15 5 12 -0.7290 0.9809
15 5 13 3.0850 -10.5835
15 5 14 -0.3867 3.8228
15 5 15 3.2033 -6.6807
15 5 16 3.7837 3.8384
15 5 17 -11.4805 4.5327
15 5 18 -3.2367 -7.0967
15 5 19 5.4890 1.5998
15 5 20 8.3173 4.7774
15 5 21 5.5469 4.7905
15 5 22 10.1160 -4.9088
15 6 0 -0.1452 -0.7624
15 6 1 -2.0216 2.0298
15 6 2 4.5658 -2.0009
15 6 3 -16.3483 3.6646
15 6 4 1.4424 -5.1665
15 6 5 -6.6061 -3.0165
15 6 6 -10.7749 7.8428
15 6 7 4.8869 -22.3790
15 6 8 0.4457 -7.9873
15 6 9 7.0147 12.9112
15 6 10 9.7769 -1.7483
15 6 11 -7.9810 -6.1148
15 6 12 -4.3083 10.9647
15 6 13 -1.4043 0.4112
15 6 14 -7.8184 -3.4231
15 6 15 5.3519 8.0104
15 6 16 -4.1469 7.9702
15 6 17 -0.7524 6.2974
15 6 18 2.8961 9.4299
15 6 19 -1.6509 -5.8264
15 6 20 -2.8969 -11.2421
15 6 21 -6.1756 2.3915
15 6 22 -2.7929 -3.3432
15 7 0 -0.8753 -2.2568
15 7 1 5.8745 -3.1212
15 7 2 6.9116 7.3357
15 7 3 -0.7371 1.9487
15 7 4 1.3043 20.2450
15 7 5 -9.0943 -4.7991
15 7 6 -10.4225 -0.0390
15 7 7 3.8981 -1.5667
15 7 8 -0.5819 -15.2731
15 7 9 1.1971 -2.5842
15 7 10 7.1816 5.2943
15 7 11 -10.1802 1.5538
15 7 12 -2.3898 8.0381
15 7 13 4.3098 0.4107
15 7 14 -5.7716 -7.2071
15 7 15 -5.0441 4.1047
15 7 16 11.1924 -9.0908
15 7 17 -0.3400 -6.8729
15 7 18 -17.3376 -2.1423
15 7 19 -4.3961 -1.0534
15 7 20 -10.7440 6.6541
15 7 21 -4.0564 2.8728
15 8 0 -0.1928 -10.8591
15 8 1 -2.2123 1.7083
15 8 2 8.6785 2.3099
15 8 3 15.2656 5.1038
15 8 4 -7.0057 15.7258
15 8 5 4.0808 6.1392
15 8 6 -16.5908 -2.6238
15 8 7 -6.9342 3.7400
15 8 8 -0.3876 -6.2519
15 8 9 -4.8181 -1.3329
15 8 10 6.4319 -0.4918
15 8 11 10.9465 3.2004
15 8 12 -4.4321 0.7114
15 8 13 -1.1426 -3.5401
15 8 14 3.8682 -4.8997
15 8 15 -13.2979 -2.8371
15 8 16 2.5439 -2.6492
15 8 17 -3.7288 -6.0487
15 8 18 7.1329 9.3422
15 8 19 11.5041 10.9915
15 8 20 7.0287 -13.2843
15 8 21 1.3808 -13.6876
15 9 0 -0.7727 -7.5982
15 9 1 -3.7840 -10.5465
15 9 2 15.4598 -1.5612
15 9 3 4.0339 -5.9123
15 9 4 -1.8224 -4.0345
15 9 5 9.0725 20.7946
15 9 6 -1.0917 -2.3264
15 9 7 -9.4423 8.8701
15 9 8 -3.4153 -1.7458
15 9 9 5.8748 -7.3916
15 9 10 2.6913 0.1820
15 9 11 7.0866 -0.1809
15 9 12 4.8687 -9.8589
15 9 13 1.0710 17.7690
15 9 14 -2.4121 10.4941
15 9 15 7.6004 -4.1630
15 9 16 3.0448 11.9711
15 9 17 12.9594 -7.1042
15 9 18 4.9864 -2.2224
15 9 19 -2.4814 1.3954
15 9 20 -3.5501 1.5923
15 10 0 -0.1235 -3.6455
15 10 1 -6.9591 -6.5168
15 10 2 -8.0502 -8.1419
15 10 3 8.9960 -16.3284
15 10 4 6.5797 2.0130
15 10 5 5.9230 1.7418
15 10 6 16.2033 -0.9844
15 10 7 -8.5137 4.4600
15 10 8 5.5861 10.4258
15 10 9 -2.1194 -10.6240
15 10 10 -12.6734 -13.2742
15 10 11 7.9312 0.0842
15 10 12 13.1043 13.1360
15 10 13 -5.5797 -2.6175
15 10 14 14.1863 0.0042
15 10 15 1.0910 -1.6017
15 10 16 -17.4949 -2.9473
15 10 17 12.8194 9.4138
15 10 18 -8.5644 4.7572
15 10 19 -3.4014 7.2039
15 10 20 -4.5363 7.4028
15 11 0 -0.5958 16.3415
15 11 1 -9.4584 5.0453
15 11 2 -14.4016 0.2338
15 11 3 -2.4830 -2.7381
15 11 4 3.4591 -14.6991
15 11 5 8.3323 -6.2517
15 11 6 5.5326 1.1592
15 11 7 -0.6867 -4.4792
15 11 8 -4.6124 15.2980
15 11 9 -14.6154 -4.5721
15 11 10 -3.7737 -1.4928
15 11 11 0.7934 1.1163
15 11 12 2.7197 -17.0570
15 11 13 -8.4023 -14.4083
15 11 14 -14.0905 15.1618
15 11 15 -0.2387 -15.7041
15 11 16 8.1833 -3.4127
15 11 17 -5.7452 8.5312
15 11 18 3.0415 -9.9148
15 11 19 -2.3421 6.0453
15 12 0 0.0102 26.1189
15 12 1 9.3958 5.1129
15 12 2 -9.6663 2.9322
15 12 3 -20.1391 5.1129
15 12 4 -7.2754 -14.5215
15 12 5 -8.2713 -7.8598
15 12 6 3.0707 4.4826
15 12 7 4.1487 11.9369
15 12 8 -2.6351 -2.5433
15 12 9 6.5922 0.9845
15 12 10 -12.2684 5.3584
15 12 11 -13.5484 -0.0140
15 12 12 -0.2779 -4.5031
15 12 13 -10.3154 6.0839
15 12 14 -3.1294 -5.8433
15 12 15 13.7374 -4.3578
15 12 16 -5.4853 -11.4194
15 12 17 4.0982 -4.4337
15 12 18 10.0869 4.1449
15 13 0 -0.6107 -7.5061
15 13 1 16.8377 17.5281
15 13 2 -12.7463 4.6123
15 13 3 -10.7467 11.9197
15 13 4 4.6302 9.9697
15 13 5 -1.8960 -8.6507
15 13 6 0.5539 -4.8484
15 13 7 5.5708 -8.2231
15 13 8 2.6100 -0.0325
15 13 9 8.0878 13.3365
15 13 10 5.4398 2.3440
15 13 11 7.8042 12.1571
15 13 12 -6.6445 10.8490
15 13 13 2.3658 -2.9495
15 13 14 6.3094 -5.7923
15 13 15 -2.6916 0.2287
15 13 16 -1.3852 -3.8815
15 13 17 7.2677 9.7463
15 14 0 -0.0024 -3.1255
15 14 1 9.8514 7.2268
15 14 2 22.8702 -7.1187
15 14 3 2.8637 11.4445
15 14 4 -2.4247 3.4692
15 14 5 -3.8972 -9.8738
15 14 6 -9.3908 8.3660
15 14 7 9.7285 -6.4326
15 14 8 5.5303 -9.7181
15 14 9 6.9392 -6.5589
15 14 10 15.8563 4.0285
15 14 11 2.5292 7.1200
15 14 12 -6.4827 3.1456
15 14 13 -1.4427 -1.5939
15 14 14 -7.0412 3.0010
15 14 15 -3.2145 0.7369
15 14 16 1.2850 8.9809
15 15 0 -0.5221 -19.8078
15 15 1 -2.0610 -10.1484
15 15 2 7.6566 -1.5396
15 15 3 -2.4031 -1.4871
15 15 4 8.6921 13.2216
15 15 5 -4.5481 6.3063
15 15 6 -11.9762 -6.5456
15 15 7 -1.6392 1.1139
15 15 8 -9.5727 -12.4113
15 15 9 -3.0393 -3.8330
15 15 10 7.9990 2.8845
15 15 11 -2.1832 -5.4769
15 15 12 -3.1030 4.1673
15 15 13 -7.5790 9.6547
15 15 14 0.5431 -1.7766
15 15 15 1.3139 -8.9817
15 16 0 0.0036 -1.6993
15 16 1 -13.9373 0.1990
15 16 2 1.5623 -0.2218
15 16 3 9.3450 -10.8975
15 16 4 -3.3038 3.6774
15 16 5 2.0302 7.9440
15 16 6 -4.1699 6.7782
15 16 7 -11.8357 3.5484
15 16 8 4.0460 -8.2123
15 16 9 -7.5732 4.8435
15 16 10 -3.7745 -4.1080
15 16 11 8.7769 -2.7241
15 16 12 3.2918 1.0397
15 16 13 -3.0457 1.3657
15 16 14 0.7629 -4.6995
15 17 0 -0.4916 12.3403
15 17 1 -1.7623 -5.2373
15 17 2 -3.3634 1.4184
15 17 3 3.2905 -5.2728
15 17 4 -0.6275 -7.5999
15 17 5 10.9619 4.3716
15 17 6 3.6796 0.8122
15 17 7 -2.1626 1.8864
15 17 8 1.2580 11.8439
15 17 9 1.7126 -10.8296
15 17 10 1.4793 -1.8026
15 17 11 -1.5286 3.8129
15 17 12 3.6756 -3.6179
15 18 0 0.2926 0.4396
15 18 1 6.1664 -0.4625
15 18 2 -12.6255 4.3735
15 18 3 -6.4914 -0.5189
15 18 4 3.2933 -9.4895
15 18 5 3.1210 0.2358
15 18 6 13.7952 -0.3307
15 18 7 -0.5578 -0.9949
15 18 8 -6.1369 3.4790
15 18 9 5.2152 0.2464
15 18 10 -6.1164 1.4164
15 19 0 -0.2509 4.9899
15 19 1 0.7239 16.2701
15 19 2 -3.7379 -1.1305
15 19 3 -1.7387 6.1225
15 19 4 -2.1999 -9.2546
15 19 5 -6.7656 -9.9872
15 19 6 3.0572 3.3101
15 19 7 2.1102 3.6863
15 20 0 0.1967 8.6947
15 20 1 10.5259 1.4824
15 20 2 2.6083 -5.4846
15 20 3 -13.1548 3.8682
16 0 0 -17.4247 -1.4433
16 0 1 -0.1128 14.1583
16 0 2 5.9470 0.3757
16 0 3 0.1171 0.0320
16 0 4 11.1132 1.2084
16 0 5 -0.3438 14.8665
16 0 6 -3.7943 0.0435
16 0 7 0.7384 7.0698
16 0 8 5.5915 0.0861
16 0 9 0.0271 9.1038
16 0 10 1.2552 -0.6301
16 0 11 -0.8832 -4.4485
16 0 12 -5.0850 -0.4817
16 0 13 -0.0573 -10.1487
16 0 14 -7.7084 0.2445
16 0 15 0.7005 6.1206
16 0 16 0.0901 0.9694
16 0 17 0.1338 -9.6428
16 0 18 -4.8199 0.1900
16 0 19 -0.5909 4.3045
16 0 20 -2.3642 -0.8280
16 0 21 0.1613 -12.7987
16 0 22 -20.4883 -0.2548
16 1 0 11.5637 0.1983
16 1 1 -10.7708 13.1545
16 1 2 0.3678 -11.3543
16 1 3 5.1849 -0.7556
16 1 4 6.5284 7.0146
16 1 5 4.4920 -0.7260
16 1 6 0.4512 -1.0733
16 1 7 -3.3774 1.2335
16 1 8 13.3019 -6.2861
16 1 9 -1.1895 0.5854
16 1 10 4.7483 8.1992
16 1 11 -2.1793 -2.1869
16 1 12 -8.6460 -0.4034
16 1 13 4.8643 3.6009
16 1 14 0.6625 1.3581
16 1 15 -2.0740 -11.2541
16 1 16 6.3200 -6.5053
16 1 17 -0.3798 5.1159
16 1 18 -1.1275 5.3411
16 1 19 0.1341 -11.2091
16 1 20 3.7978 0.3067
16 1 21 -2.1420 5.4981
16 1 22 -4.9504 2.1842
16 2 0 -5.9947 -0.9948
16 2 1 -12.4078 -8.3899
16 2 2 4.8332 6.0854
16 2 3 -1.8663 -14.7798
16 2 4 -5.3783 -4.1806
16 2 5 2.6663 -0.8482
16 2 6 -12.6862 -5.0085
16 2 7 0.4749 -6.2766
16 2 8 8.7184 -0.5463
16 2 9 -0.4885 -11.7493
16 2 10 1.0825 10.2165
16 2 11 8.0322 2.6738
16 2 12 0.0366 1.0236
16 2 13 -7.5979 12.3476
16 2 14 2.3319 -10.4573
16 2 15 0.4915 -0.3296
16 2 16 0.8265 6.1705
16 2 17 -0.3184 4.2165
16 2 18 13.0912 -2.3314
16 2 19 -7.8537 -0.7170
16 2 20 -5.0730 1.5397
16 2 21 10.7801 3.4347
16 2 22 26.7267 0.7607
16 3 0 1.5053 0.1462
16 3 1 4.8078 -3.4090
16 3 2 -6.0815 3.8868
16 3 3 0.2001 -11.3892
16 3 4 -11.0665 11.2391
16 3 5 -0.8773 6.4655
16 3 6 1.2229 -12.1230
16 3 7 -11.7474 -1.6481
16 3 8 -0.9430 -4.1380
16 3 9 9.6633 -9.3509
16 3 10 -4.4583 3.8995
16 3 11 10.7465 9.2457
16 3 12 -1.4429 -5.2524
16 3 13 -7.1257 3.4994
16 3 14 4.5382 3.1478
16 3 15 -3.8947 1.8964
16 3 16 1.3535 -6.0139
16 3 17 3.0635 8.6614
16 3 18 -5.6613 1.7115
16 3 19 -4.8721 0.4517
16 3 20 -0.0999 -3.2089
16 3 21 8.9129 -8.4558
16 3 22 0.6684 -17.5831
16 4 0 0.3729 -0.8512
16 4 1 2.0198 2.1670
16 4 2 5.2015 1.5764
16 4 3 8.4533 14.1537
16 4 4 -2.1148 -1.6285
16 4 5 1.3784 11.5989
16 4 6 -4.0789 -0.1129
16 4 7 -20.0198 -6.5433
16 4 8 7.7224 0.8851
16 4 9 11.6736 -6.8377
16 4 10 -4.4342 -7.6127
16 4 11 -0.7361 8.3286
16 4 12 1.0129 -4.5315
16 4 13 -2.3352 -5.1547
16 4 14 0.7327 6.3605
16 4 15 7.6904 -8.5911
16 4 16 -2.6671 -0.4565
16 4 17 0.2887 -0.0529
16 4 18 2.6848 4.4737
16 4 19 -3.2412 -4.5966
16 4 20 -17.3079 -3.8186
16 4 21 -9.2708 -7.0208
16 4 22 -11.6390 -3.0047
16 5 0 -4.0435 0.2358
16 5 1 -2.5683 -0.2254
16 5 2 7.0039 -10.3686
16 5 3 8.9359 6.2524
16 5 4 7.4325 4.0320
16 5 5 -12.0521 18.8785
16 5 6 1.6554 1.1851
16 5 7 -3.8483 -10.9538
16 5 8 -11.2856 0.4388
16 5 9 3.3723 -2.8177
16 5 10 4.2766 0.4564
16 5 11 -3.1448 2.1071
16 5 12 4.1668 -0.4307
16 5 13 -3.8089 -9.9254
16 5 14 -3.8013 -1.3555
16 5 15 9.7159 -8.3429
16 5 16 -2.7095 0.8365
16 5 17 -5.1634 -0.1124
16 5 18 4.0569 9.9735
16 5 19 2.3927 0.2851
16 5 20 -5.0377 19.2852
16 5 21 -1.8144 1.4134
16 6 0 -21.8752 -0.8048
16 6 1 1.2599 -0.0785
16 6 2 5.3515 -5.4951
16 6 3 3.1133 -7.3156
16 6 4 9.5112 5.2623
16 6 5 -5.1141 2.5865
16 6 6 -5.2269 16.6356
16 6 7 -2.8484 -1.4907
16 6 8 -5.2455 -0.5849
16 6 9 3.4003 5.0080
16 6 10 5.3266 -5.2637
16 6 11 -8.0200 -1.8533
16 6 12 -7.2823 10.5015
16 6 13 -3.5454 -2.2829
16 6 14 1.5064 -6.1244
16 6 15 -4.6991 14.9057
16 6 16 4.1936 -3.0271
16 6 17 4.6040 2.0135
16 6 18 13.0050 -0.1645
16 6 19 6.0185 -0.8923
16 6 20 -5.1434 1.5575
16 6 21 -4.2180 6.2189
16 7 0 3.5415 0.1133
16 7 1 -9.6814 -2.3863
16 7 2 -0.3827 -13.6726
16 7 3 -1.0833 -3.8071
16 7 4 6.8883 8.4405
16 7 5 12.1684 -9.0583
16 7 6 -3.0514 9.2201
16 7 7 7.8316 6.4732
16 7 8 -4.6780 -9.2576
16 7 9 -6.7342 1.7248
16 7 10 3.1138 11.0348
16 7 11 -2.5239 3.3182
16 7 12 -5.5635 -1.4698
16 7 13 14.1582 5.4774
16 7 14 -2.1004 -2.4616
16 7 15 -8.6867 3.4369
16 7 16 15.1408 -7.2712
16 7 17 -7.7698 -10.5141
16 7 18 -5.6253 -4.6346
16 7 19 1.9758 12.0693
16 7 20 -0.1268 -2.0580
16 8 0 6.3031 -0.8033
16 8 1 -8.2096 1.1702
16 8 2 -3.4331 7.0654
16 8 3 -3.8692 -13.6795
16 8 4 14.6535 -4.6722
16 8 5 6.0862 -6.3146
16 8 6 -11.2567 -9.0099
16 8 7 9.1782 8.7487
16 8 8 14.9103 -3.8332
16 8 9 -7.5535 6.3020
16 8 10 -6.3475 5.2095
16 8 11 11.5590 -12.4231
16 8 12 -1.6729 -6.5105
16 8 13 0.8042 8.8815
16 8 14 -3.0431 -14.8147
16 8 15 -3.9859 -1.4231
16 8 16 -5.5471 9.7683
16 8 17 6.7184 -14.3247
16 8 18 -3.9093 12.6199
16 8 19 6.3704 2.3534
16 8 20 6.3155 -4.1218
16 9 0 5.5659 0.1200
16 9 1 1.9664 10.8732
16 9 2 -3.0651 7.5582
16 9 3 -2.2073 -4.1240
16 9 4 -21.0493 -3.7361
16 9 5 5.6711 -2.4920
16 9 6 5.5136 -7.3624
16 9 7 -1.6094 1.3577
16 9 8 8.8967 3.7687
16 9 9 -0.6984 -0.9549
16 9 10 -0.2142 2.1479
16 9 11 -1.6188 -5.1535
16 9 12 -11.8368 -1.0878
16 9 13 -3.2864 4.6707
16 9 14 13.8487 1.9950
16 9 15 -17.3829 -8.8993
16 9 16 1.9808 4.7319
16 9 17 17.4760 0.9264
16 9 18 -3.7486 -5.9318
16 9 19 7.2596 -6.8611
16 10 0 16.3327 -0.6557
16 10 1 -0.8052 -0.7958
16 10 2 -7.8566 11.2385
16 10 3 -5.0601 13.8640
16 10 4 -18.5938 -1.9009
16 10 5 -0.9780 8.2863
16 10 6 7.5888 -10.4165
16 10 7 -3.4954 -3.9187
16 10 8 -6.6250 5.8401
16 10 9 5.1252 -3.5302
16 10 10 5.1591 5.7243
16 10 11 -6.1567 11.8168
16 10 12 -1.5829 3.0472
16 10 13 -2.1964 2.5019
16 10 14 2.4340 6.4339
16 10 15 -4.4377 -13.0726
16 10 16 -0.6092 3.5381
16 10 17 -3.7325 -10.1017
16 10 18 0.8184 -5.2474
16 10 19 -12.3722 14.7102
16 11 0 1.3998 0.0025
16 11 1 11.2069 -10.6149
16 11 2 7.7809 21.6740
16 11 3 6.6328 2.2486
16 11 4 2.3845 -10.0880
16 11 5 -13.6511 2.5552
16 11 6 3.3429 5.5106
16 11 7 -8.8433 -6.3708
16 11 8 -0.3677 -6.1666
16 11 9 9.1349 0.6788
16 11 10 4.7982 -2.4518
16 11 11 3.3793 4.5653
16 11 12 13.0818 6.0009
16 11 13 -8.5788 1.8946
16 11 14 -14.1073 -4.6228
16 11 15 4.1833 5.2039
16 11 16 -9.9159 -0.4649
16 11 17 1.1230 6.1477
16 11 18 -1.7090 7.0083
16 12 0 11.6499 -0.4939
16 12 1 3.1431 -11.1371
16 12 2 4.4215 -14.7345
16 12 3 18.4213 0.0979
16 12 4 2.6311 6.2680
16 12 5 -9.2059 3.2906
16 12 6 8.7856 8.8498
16 12 7 1.5716 -7.3995
16 12 8 -11.2329 -2.8353
16 12 9 -5.0928 -5.8269
16 12 10 10.9144 -15.2185
16 12 11 13.9933 -0.0969
16 12 12 -6.1658 12.1989
16 12 13 -5.1818 -3.3256
16 12 14 -1.8132 10.3914
16 12 15 9.9281 13.2324
16 12 16 7.4862 -10.7752
16 12 17 -1.0162 1.5031
16 13 0 -18.2776 0.0737
16 13 1 -6.4768 -0.5272
16 13 2 -4.2573 -11.2720
16 13 3 0.7019 6.1346
16 13 4 15.6210 -2.4736
16 13 5 11.2195 7.4427
16 13 6 -9.5556 9.0527
16 13 7 0.4404 8.3027
16 13 8 -9.0565 6.0812
16 13 9 -1.1610 -9.7678
16 13 10 -1.7404 -7.1224
16 13 11 -4.2206 3.1095
16 13 12 10.5318 6.2447
16 13 13 22.1909 -0.0147
16 13 14 -7.8033 -7.2701
16 13 15 -1.5527 -7.6728
16 13 16 3.1708 6.3165
16 14 0 -18.5855 -0.2118
16 14 1 -0.9214 14.3289
16 14 2 -10.1992 -6.0310
16 14 3 -12.1386 -13.6969
16 14 4 9.0250 -2.0032
16 14 5 13.7113 -5.7750
16 14 6 -0.9214 3.5951
16 14 7 -5.4420 11.9377
16 14 8 -4.2553 -1.8446
16 14 9 2.6038 7.0485
16 14 10 -5.9455 1.0084
16 14 11 -2.5280 -16.1186
16 14 12 7.6137 -7.7535
16 14 13 -4.0496 -3.5583
16 14 14 -1.4435 -3.1998
16 14 15 -4.6718 10.8612
16 15 0 12.3051 0.0293
16 15 1 -8.7639 4.3843
16 15 2 -2.0627 -3.6733
16 15 3 -14.4171 -17.0931
16 15 4 -8.1110 -1.6771
16 15 5 7.2950 -15.4949
16 15 6 2.4086 0.2367
16 15 7 6.0574 2.1509
16 15 8 10.8399 -2.7884
16 15 9 -15.2250 2.3538
16 15 10 -4.6425 -1.5945
16 15 11 -4.6391 0.2565
16 15 12 -9.4695 -4.7011
16 15 13 2.5141 1.6794
16 16 0 8.3906 -0.2796
16 16 1 -4.7531 1.8168
16 16 2 10.8212 17.9841
16 16 3 -9.9145 4.8521
16 16 4 -6.2263 -1.4074
16 16 5 8.3343 -5.6811
16 16 6 0.8808 -14.1884
16 16 7 4.0966 6.3502
16 16 8 1.6703 5.7594
16 16 9 -2.7105 2.0892
16 16 10 4.7055 13.7509
16 16 11 -0.7509 -0.2960
16 16 12 -5.0403 -7.5525
16 17 0 11.3568 -0.0227
16 17 1 8.1592 8.0015
16 17 2 2.0664 8.4382
16 17 3 7.4557 5.7901
16 17 4 -12.0724 4.2025
16 17 5 -7.9230 5.8855
16 17 6 5.4796 -4.7390
16 17 7 5.3453 9.8097
16 17 8 8.4821 -2.6455
16 17 9 1.1126 -1.0944
16 17 10 -8.0453 6.1164
16 18 0 2.2875 -0.2131
16 18 1 0.1024 -10.2979
16 18 2 -9.0034 0.8328
16 18 3 6.0222 5.9556
16 18 4 -1.8234 -1.6994
16 18 5 -0.5811 -1.0925
16 18 6 -5.7430 -3.9210
16 18 7 -3.6075 -8.5716
16 18 8 5.4778 5.0752
16 19 0 -6.5969 -0.3563
16 19 1 0.1273 -9.9143
16 19 2 -2.4585 -2.9627
16 19 3 0.3471 -5.3846
16 19 4 2.0668 -2.6194
17 0 1 -0.2895 2.1860
17 0 2 7.3805 0.1139
17 0 3 -1.4275 9.6914
17 0 4 -6.2933 -0.0604
17 0 5 0.3989 -0.0795
17 0 6 -4.7982 -0.0471
17 0 7 1.4537 -5.7178
17 0 8 3.5048 -0.1132
17 0 9 -0.3231 8.3897
17 0 10 12.4157 -0.0058
17 0 11 -0.3878 -5.3374
17 0 12 8.0038 0.0337
17 0 13 -0.2496 13.1228
17 0 14 -14.6482 -0.1681
17 0 15 -0.2654 -0.1775
17 0 16 16.6957 -0.0297
17 0 17 0.1847 1.2978
17 0 18 -2.3904 0.2104
17 0 19 0.8930 10.8486
17 0 20 1.7815 0.2158
17 0 21 0.1434 -3.2482
17 1 0 0.1433 -10.4752
17 1 1 5.4701 -5.5002
17 1 2 7.6047 4.5416
17 1 3 0.8953 3.7429
17 1 4 4.4553 5.2313
17 1 5 -3.4271 -0.5621
17 1 6 -1.0534 -5.9236
17 1 7 3.7243 2.3637
17 1 8 -2.6878 -5.1358
17 1 9 0.6891 -6.0435
17 1 10 4.0538 0.4193
17 1 11 -2.5679 -10.6746
17 1 12 -4.1496 6.0047
17 1 13 8.3778 1.9036
17 1 14 3.0892 -3.8025
17 1 15 -7.3888 0.5966
17 1 16 -8.5627 -7.4620
17 1 17 6.8519 -6.3665
17 1 18 -2.5185 10.3325
17 1 19 -1.5866 0.9588
17 1 20 -5.9259 -6.6728
17 1 21 -4.9742 -9.5725
17 2 0 0.3689 -7.3362
17 2 1 -4.1903 -1.8214
17 2 2 7.6095 -1.1933
17 2 3 8.1340 -3.0416
17 2 4 -3.5655 6.7358
17 2 5 -4.6667 -0.1158
17 2 6 -3.2526 3.8186
17 2 7 -5.1707 1.7936
17 2 8 3.6171 -5.2047
17 2 9 -5.0739 0.6782
17 2 10 -8.2677 2.9438
17 2 11 3.1495 -4.9029
17 2 12 -8.4489 -2.3793
17 2 13 2.0358 -8.8953
17 2 14 0.9720 -5.8221
17 2 15 -6.3052 2.9340
17 2 16 0.2066 3.6736
17 2 17 5.2301 -8.2492
17 2 18 1.6652 -3.2975
17 2 19 -1.8818 3.0132
17 2 20 -9.1285 0.6736
17 2 21 -1.1360 -0.4477
17 3 0 -0.0194 0.3072
17 3 1 -11.8073 -8.1007
17 3 2 -0.6636 -0.2587
17 3 3 3.2164 -1.2504
17 3 4 -0.1862 3.3728
17 3 5 1.5533 9.5761
17 3 6 -5.6069 0.2937
17 3 7 -3.5447 -2.8051
17 3 8 2.8772 8.1267
17 3 9 -4.6448 0.6930
17 3 10 0.5920 5.3533
17 3 11 -5.6047 9.5851
17 3 12 -7.7340 -6.7046
17 3 13 -3.9645 1.6678
17 3 14 1.5819 0.6771
17 3 15 3.3513 -3.6391
17 3 16 15.5703 4.0768
17 3 17 -5.4919 1.8452
17 3 18 -3.9290 -4.4168
17 3 19 5.7941 6.6955
17 3 20 18.0630 10.1190
17 3 21 -7.2711 3.9248
17 4 0 -0.2298 7.6552
17 4 1 0.0223 -11.8575
17 4 2 -3.9255 -0.5969
17 4 3 6.5029 0.2933
17 4 4 2.6757 -8.9281
17 4 5 -0.0562 5.2733
17 4 6 7.8888 -0.7308
17 4 7 2.6380 1.9816
17 4 8 1.1055 -0.9089
17 4 9 9.5187 1.4793
17 4 10 -2.5328 7.0399
17 4 11 -1.7852 10.9878
17 4 12 4.4126 8.4729
17 4 13 -11.2950 -1.0830
17 4 14 2.4047 -12.5111
17 4 15 10.5244 3.9570
17 4 16 -9.8527 6.8163
17 4 17 -5.0672 -2.1190
17 4 18 7.4095 0.7955
17 4 19 2.7227 0.3252
17 4 20 1.9605 1.6470
17 5 0 0.0182 0.0370
17 5 1 6.3810 4.2266
17 5 2 -11.4775 -3.0368
17 5 3 11.0753 2.9066
17 5 4 5.7165 -7.6768
17 5 5 -3.2376 -4.3530
17 5 6 9.5384 -2.7724
17 5 7 3.4574 -10.3549
17 5 8 1.5095 5.0450
17 5 9 12.4279 9.0509
17 5 10 10.8639 -3.1302
17 5 11 -3.2007 1.5911
17 5 12 -7.1376 1.6908
17 5 13 1.8409 -9.2662
17 5 14 -5.1612 8.4118
17 5 15 -5.1376 1.6071
17 5 16 0.0730 -10.0608
17 5 17 -3.9100 7.5267
17 5 18 -9.4059 -1.6302
17 5 19 5.9712 -16.5978
17 5 20 -6.9864 -0.1476
17 6 0 -0.0492 3.8423
17 6 1 2.5040 4.8810
17 6 2 4.2109 -3.3537
17 6 3 -11.2585 6.4598
17 6 4 -1.6584 -7.2635
17 6 5 -11.9274 -1.8174
17 6 6 -1.8026 5.6932
17 6 7 9.0097 -16.3505
17 6 8 4.1409 -6.7685
17 6 9 9.3886 7.7746
17 6 10 -2.5640 3.2139
17 6 11 -13.6907 -8.6196
17 6 12 2.9409 6.1692
17 6 13 14.7087 -0.1111
17 6 14 -6.8909 -2.3682
17 6 15 1.6401 4.4582
17 6 16 6.0190 1.8431
17 6 17 -9.8374 -8.0796
17 6 18 6.0736 8.1593
17 6 19 1.9478 -3.7061
17 6 20 -3.4559 -21.1836
17 7 0 0.0031 -4.7054
17 7 1 -2.9454 0.8672
17 7 2 5.0970 0.4104
17 7 3 -12.5726 2.1941
17 7 4 -1.0683 16.2074
17 7 5 -15.6809 -9.3701
17 7 6 -5.7854 -6.0095
17 7 7 6.3723 -10.7823
17 7 8 -0.1720 -8.3902
17 7 9 -4.4237 8.2690
17 7 10 6.3624 4.5350
17 7 11 0.2841 -0.7564
17 7 12 -7.1920 -4.8321
17 7 13 13.1044 -1.4260
17 7 14 4.5841 -8.1460
17 7 15 -1.8573 19.5693
17 7 16 13.3711 -1.1798
17 7 17 5.0290 -13.6075
17 7 18 -12.2079 7.3858
17 7 19 -2.4822 4.2875
17 8 0 -0.1019 -16.5689
17 8 1 -2.1466 4.0242
17 8 2 7.6005 11.0772
17 8 3 6.9412 0.5421
17 8 4 -4.6699 8.3684
17 8 5 1.4015 -6.0094
17 8 6 -17.8469 -2.8120
17 8 7 1.5054 -0.9085
17 8 8 5.4917 -4.6383
17 8 9 -1.5631 -0.6216
17 8 10 1.5288 9.0964
17 8 11 3.2032 -6.6759
17 8 12 -10.5721 -4.9755
17 8 13 -2.8197 9.3059
17 8 14 14.7508 -12.4594
17 8 15 -14.9035 -1.9234
17 8 16 -3.6987 8.4648
17 8 17 -5.6231 4.0395
17 8 18 -8.9473 10.2714
17 8 19 8.7038 22.4566
17 9 0 -0.0890 4.7003
17 9 1 5.0563 -13.8372
17 9 2 14.1944 -0.3066
17 9 3 4.0686 2.9796
17 9 4 -11.2974 5.0279
17 9 5 7.0397 11.1008
17 9 6 -2.0631 -4.1332
17 9 7 -2.6801 13.6680
17 9 8 3.3632 -1.3596
17 9 9 -1.2669 -10.0422
17 9 10 -6.3796 6.7226
17 9 11 6.5449 6.4332
17 9 12 -8.5021 -10.1097
17 9 13 -9.0425 7.3746
17 9 14 3.6267 9.6983
17 9 15 -10.7374 -14.7601
17 9 16 6.0708 25.8618
17 9 17 15.0938 -2.1658
17 9 18 2.3655 -10.8335
17 10 0 0.1152 -5.3017
17 10 1 -5.2743 -2.8740
17 10 2 -12.7121 -2.9621
17 10 3 11.6188 -3.4787
17 10 4 7.3383 4.8957
17 10 5 0.6744 6.7630
17 10 6 6.9729 -8.5618
17 10 7 -9.7042 4.5786
17 10 8 6.9107 9.6044
17 10 9 -1.1464 -3.0537
17 10 10 -10.7045 -6.8366
17 10 11 8.6078 3.7674
17 10 12 15.4686 0.7199
17 10 13 -13.2847 9.7115
17 10 14 18.9402 -5.7178
17 10 15 19.3292 -17.1739
17 10 16 -10.9818 -2.1812
17 10 17 11.7437 -1.7786
17 10 18 -8.5631 2.7310
17 11 0 -0.1430 16.2661
17 11 1 -7.2434 -3.4393
17 11 2 -7.3128 -6.9824
17 11 3 0.7900 -0.5232
17 11 4 4.2349 -19.3641
17 11 5 3.4264 -2.6381
17 11 6 7.5569 5.9011
17 11 7 2.0439 -10.2290
17 11 8 -1.7250 5.2205
17 11 9 -1.2461 -3.0646
17 11 10 0.7761 -4.7529
17 11 11 7.8890 5.1367
17 11 12 5.3203 -15.6175
17 11 13 -1.4098 -19.9421
17 11 14 -2.2334 8.1823
17 11 15 -1.2642 -8.7693
17 11 16 7.1304 -5.0094
17 11 17 11.1232 25.4732
17 12 0 0.2002 22.2026
17 12 1 5.1650 5.1756
17 12 2 -12.4274 -2.2125
17 12 3 -8.9400 -4.1268
17 12 4 1.8438 -11.9519
17 12 5 -10.0488 -7.9934
17 12 6 7.8123 6.1244
17 12 7 5.5252 -0.8213
17 12 8 -10.8444 0.2495
17 12 9 10.8600 1.5838
17 12 10 0.5165 0.8164
17 12 11 -21.9584 -5.4828
17 12 12 -14.8138 1.9207
17 12 13 -5.4784 5.1661
17 12 14 -7.1396 -1.7394
17 12 15 14.2752 -2.3688
17 12 16 -4.3566 5.2131
17 13 0 -0.1663 -4.1295
17 13 1 9.2883 9.6407
17 13 2 -15.9223 10.5196
17 13 3 -16.0863 13.1155
17 13 4 1.7534 0.5205
17 13 5 -4.8115 -0.8252
17 13 6 -0.3857 8.8673
17 13 7 3.6058 -10.1081
17 13 8 -3.3311 -7.8092
17 13 9 -3.0973 18.7019
17 13 10 0.8607 13.4457
17 13 11 -4.9317 9.4481
17 13 12 -7.2683 15.2655
17 13 13 -0.8295 -6.7459
17 13 14 4.7763 -11.7787
17 13 15 -11.3363 -2.0837
17 14 0 0.2973 0.6518
17 14 1 5.6877 11.1479
17 14 2 13.7443 -0.4659
17 14 3 7.2988 14.1236
17 14 4 -0.7344 1.8677
17 14 5 -10.5520 -11.5639
17 14 6 -12.6543 2.4101
17 14 7 6.0918 1.6706
17 14 8 6.5233 -5.4870
17 14 9 9.1355 0.5090
17 14 10 17.3773 -0.3050
17 14 11 2.8644 3.6841
17 14 12 -6.8576 -1.5592
17 14 13 -1.4536 -2.0264
17 15 0 -0.1220 -12.6007
17 15 1 8.8266 -9.6676
17 15 2 10.8989 -7.0890
17 15 3 -1.6659 -6.1189
17 15 4 2.2419 12.8043
17 15 5 2.9137 8.3604
17 15 6 -6.5422 -5.3928
17 15 7 5.3475 -10.7034
17 15 8 -3.1041 -12.7030
17 15 9 1.3803 -7.0515
17 15 10 5.3231 0.4299
17 15 11 3.2450 -2.0904
17 15 12 -1.0752 1.4134
17 16 0 0.2444 -7.6406
17 16 1 -11.8283 -0.2222
17 16 2 1.5720 -0.0164
17 16 3 6.7512 -7.1859
17 16 4 3.8555 6.4075
17 16 5 5.4734 3.4487
17 16 6 -4.8165 2.1384
17 16 7 -15.1655 8.0855
17 16 8 2.2334 -2.5706
17 16 9 2.2732 -0.5971
17 16 10 -5.0912 -0.8194
17 17 0 -0.3879 9.9407
17 17 1 -8.6527 -0.2399
17 17 2 -2.1154 -0.2753
17 17 3 -0.1363 -5.5600
17 17 4 -1.1246 -3.5517
17 17 5 8.4635 9.5425
17 17 6 2.8873 0.0801
17 17 7 -7.8657 4.2017
17 18 0 0.3701 6.4808
17 18 1 5.0064 -1.8288
17 18 2 -7.1607 0.6056
17 18 3 -0.8481 -5.9344
17 18 4 -2.4120 -10.2825
18 0 0 -13.2896 -0.8723
18 0 1 0.3694 4.2201
18 0 2 -7.3283 -0.0372
18 0 3 -0.3122 -1.9944
18 0 4 0.0448 0.7144
18 0 5 -0.0893 9.9604
18 0 6 -8.4064 0.2772
18 0 7 -0.1435 4.8450
18 0 8 2.3107 -0.0662
18 0 9 0.2123 14.4452
18 0 10 0.1220 -0.4377
18 0 11 0.3754 0.6391
18 0 12 -0.7425 -0.6186
18 0 13 -0.1527 1.4331
18 0 14 7.9473 0.0561
18 0 15 -0.2571 4.6573
18 0 16 9.6591 0.9650
18 0 17 -0.1727 3.0697
18 0 18 -0.4966 0.1037
18 0 19 0.0337 -4.0485
18 0 20 2.7340 -0.7191
18 1 0 9.7553 -0.0855
18 1 1 -4.3836 10.5974
18 1 2 -0.0562 -6.0054
18 1 3 2.6823 4.2775
18 1 4 4.3809 5.5390
18 1 5 3.0673 1.1356
18 1 6 3.1251 -2.2666
18 1 7 -2.0004 9.1418
18 1 8 8.3909 -1.3128
18 1 9 0.7983 5.6266
18 1 10 4.6325 2.6506
18 1 11 -1.6456 9.3899
18 1 12 -17.5177 3.5540
18 1 13 -0.7216 2.5621
18 1 14 6.0767 -4.9258
18 1 15 0.8655 -5.7144
18 1 16 -7.6752 -2.2276
18 1 17 -1.5922 15.2853
18 1 18 -9.3381 5.4816
18 1 19 -2.6986 -2.1382
18 1 20 -5.6679 -6.8633
18 2 0 0.1234 -0.0407
18 2 1 -4.2075 -3.7985
18 2 2 13.8936 5.2252
18 2 3 -8.2343 -4.5187
18 2 4 -1.6458 -5.6479
18 2 5 8.5271 -4.7343
18 2 6 -0.6128 -6.2617
18 2 7 0.8034 -6.0885
18 2 8 5.9281 0.5370
18 2 9 1.2795 -16.2052
18 2 10 4.0233 9.8150
18 2 11 4.5679 4.7543
18 2 12 -3.2465 -1.5895
18 2 13 -7.4856 -2.7150
18 2 14 -18.7101 -8.4459
18 2 15 5.8538 -7.0702
18 2 16 1.3010 20.5928
18 2 17 0.2927 4.6436
18 2 18 -0.4995 -7.9052
18 2 19 -2.3152 -2.5011
18 2 20 -8.5080 0.4702
18 3 0 2.8685 -0.0210
18 3 1 8.2502 0.5048
18 3 2 -4.9362 5.8939
18 3 3 -3.1532 -12.9094
18 3 4 -11.2321 4.0351
18 3 5 -2.7433 -2.8382
18 3 6 0.0119 -12.6817
18 3 7 -5.9895 -2.1551
18 3 8 5.3694 -6.9769
18 3 9 12.2993 -10.5549
18 3 10 -5.8840 1.3997
18 3 11 4.3571 -2.0496
18 3 12 3.1195 4.5217
18 3 13 -8.6939 0.9373
18 3 14 14.9309 6.0127
18 3 15 10.0928 2.0193
18 3 16 4.6952 -10.5828
18 3 17 5.0464 -6.0237
18 3 18 -8.2546 7.4722
18 3 19 -11.6026 -4.4685
18 4 0 0.6128 -0.1608
18 4 1 -5.2756 -2.2400
18 4 2 -4.7639 4.0144
18 4 3 7.8653 14.6818
18 4 4 -13.7787 4.4425
18 4 5 -3.6695 10.0756
18 4 6 -6.1276 -5.8672
18 4 7 -10.2901 -9.4645
18 4 8 7.4289 1.7069
18 4 9 -1.2922 8.8650
18 4 10 4.0528 0.8063
18 4 11 0.2368 10.9869
18 4 12 8.9831 -11.3556
18 4 13 5.5771 -6.9652
18 4 14 12.4920 1.7737
18 4 15 -2.6939 -3.7290
18 4 16 0.1426 -0.3236
18 4 17 -8.6080 19.3476
18 4 18 12.9779 -5.3512
18 4 19 -3.4666 -0.6721
18 5 0 -1.3781 -0.1744
18 5 1 4.2696 -0.7158
18 5 2 3.3977 -1.5816
18 5 3 8.6451 8.5123
18 5 4 5.4915 4.2644
18 5 5 -16.7029 15.4027
18 5 6 -6.1629 -2.4581
18 5 7 -2.2904 -3.8675
18 5 8 1.8950 -0.3162
18 5 9 7.8635 -0.2105
18 5 10 -3.2198 2.9317
18 5 11 -14.5147 -2.4310
18 5 12 -7.9871 -7.6866
18 5 13 -0.4542 -10.8380
18 5 14 -3.5583 0.9473
18 5 15 12.7149 6.8401
18 5 16 -5.6355 0.6339
18 5 17 -4.3732 4.6985
18 5 18 6.4219 4.4484
18 5 19 -11.0076 0.4596
18 6 0 -8.1203 -0.1885
18 6 1 6.8556 -5.2953
18 6 2 10.0865 -7.4231
18 6 3 -0.1196 1.7143
18 6 4 13.2025 1.1239
18 6 5 -4.6629 -5.8337
18 6 6 -5.7792 9.8312
18 6 7 -6.8306 -8.3959
18 6 8 1.3540 -7.7631
18 6 9 4.1938 -2.5600
18 6 10 -8.0478 6.6580
18 6 11 -11.7990 -0.0997
18 6 12 -13.3067 2.7028
18 6 13 7.8017 -14.4965
18 6 14 -12.9438 -6.5560
18 6 15 9.3418 11.9637
18 6 16 1.3218 -4.4855
18 6 17 5.6370 -5.0931
18 6 18 2.1608 13.6812
18 6 19 12.1746 -5.0570
18 7 0 6.0695 -0.0476
18 7 1 -5.5103 2.8030
18 7 2 -2.5635 -14.3337
18 7 3 -2.8534 0.6931
18 7 4 10.2449 14.0454
18 7 5 3.0931 -2.6234
18 7 6 -7.6124 5.1478
18 7 7 13.8339 -0.9442
18 7 8 1.4532 0.0641
18 7 9 -6.1313 3.2933
18 7 10 2.7114 10.6092
18 7 11 5.0629 -3.3774
18 7 12 -2.6994 9.3062
18 7 13 5.7016 -0.1064
18 7 14 1.1568 -10.2436
18 7 15 -7.0185 2.2803
18 7 16 24.3074 -11.4852
18 7 17 -6.7609 -12.5989
18 7 18 -7.1848 2.8140
18 8 0 -12.6910 -0.2053
18 8 1 -3.1150 7.6190
18 8 2 6.5013 10.0303
18 8 3 -4.1311 -6.3084
18 8 4 2.0190 6.4795
18 8 5 8.0922 -1.2985
18 8 6 -5.4905 -5.8282
18 8 7 3.7217 12.0358
18 8 8 5.5030 1.3903
18 8 9 -1.3743 12.2129
18 8 10 7.3181 2.2028
18 8 11 6.7340 -9.4802
18 8 12 -4.1298 -3.8852
18 8 13 2.9090 21.4991
18 8 14 0.8390 -15.5404
18 8 15 -20.5014 -9.6619
18 8 16 6.4339 13.3509
18 8 17 -4.0844 -6.5066
18 8 18 6.0143 5.8687
18 9 0 5.3721 0.0581
18 9 1 -4.6495 -2.2163
18 9 2 5.2045 1.3855
18 9 3 3.2416 -11.6072
18 9 4 -23.6671 -1.6365
18 9 5 6.0274 -5.6513
18 9 6 5.5716 -3.7442
18 9 7 -6.5335 4.6330
18 9 8 4.4406 -3.5282
18 9 9 -7.1051 -6.4879
18 9 10 -4.0298 -0.8061
18 9 11 1.0143 2.3497
18 9 12 -10.4373 -7.8598
18 9 13 -10.2109 15.5939
18 9 14 12.8847 -0.2913
18 9 15 -14.1623 1.9994
18 9 16 -7.8333 2.0743
18 9 17 23.9172 -0.2279
18 10 0 17.2258 -0.1933
18 10 1 -1.1938 -7.8759
18 10 2 -9.0213 7.7330
18 10 3 -2.6370 -2.5342
18 10 4 -1.0928 -8.2731
18 10 5 2.9984 11.6605
18 10 6 2.5366 -11.7330
18 10 7 -1.7498 -4.7179
18 10 8 -2.0327 4.0815
18 10 9 0.2638 -12.9164
18 10 10 -10.2788 4.7632
18 10 11 8.6924 12.7850
18 10 12 4.8684 -5.3581
18 10 13 -8.5554 -4.3436
18 10 14 0.6335 15.4279
18 10 15 8.4846 -18.0727
18 10 16 -1.3219 -2.9092
18 11 0 -5.5001 0.0190
18 11 1 1.2004 5.9830
18 11 2 2.8740 13.0431
18 11 3 14.4173 14.6639
18 11 4 3.1867 -8.5900
18 11 5 -6.3572 0.8393
18 11 6 9.4566 6.4677
18 11 7 -8.3591 3.4734
18 11 8 -1.7233 5.0444
18 11 9 14.8613 -3.9816
18 11 10 4.0701 -3.3794
18 11 11 7.4084 9.2784
18 11 12 14.0243 0.9093
18 11 13 -12.5690 -12.3007
18 11 14 -10.8411 5.7681
18 11 15 12.6423 -5.5214
18 12 0 6.6851 -0.0909
18 12 1 11.9502 -1.5781
18 12 2 -5.4164 -16.1313
18 12 3 -0.0350 0.6217
18 12 4 3.5071 6.8173
18 12 5 -7.4682 7.3837
18 12 6 -1.2121 12.2477
18 12 7 0.5446 -5.6398
18 12 8 -5.1801 1.9748
18 12 9 1.0923 -5.9926
18 12 10 3.4399 -14.3935
18 12 11 -5.4287 5.8400
18 12 12 5.2502 15.3923
18 12 13 -8.0541 -5.0667
18 12 14 -2.8728 8.4304
18 13 0 -17.1703 0.0259
18 13 1 -1.7318 -15.7749
18 13 2 -2.8915 -11.0456
18 13 3 -10.7762 -2.6193
18 13 4 19.0997 4.1623
18 13 5 10.9997 -6.1905
18 13 6 -11.8089 8.3769
18 13 7 -11.6020 -2.8848
18 13 8 -10.4540 -5.5767
18 13 9 0.0298 4.7449
18 13 10 1.2536 -4.6655
18 13 11 -9.3289 0.0107
18 13 12 5.2334 3.2462
18 13 13 22.0641 7.8134
18 14 0 -14.6901 -0.0606
18 14 1 -3.3501 10.9424
18 14 2 6.4660 -9.7796
18 14 3 1.2153 -11.6277
18 14 4 14.9532 -3.2368
18 14 5 8.3062 -4.7895
18 14 6 -1.6916 9.5001
18 14 7 11.6487 11.0242
18 14 8 -4.7989 -10.5015
18 14 9 -5.4015 4.2617
18 14 10 4.9236 4.3216
18 14 11 8.4737 -13.2524
18 14 12 0.6168 -13.8082
18 15 0 3.6995 0.0457
18 15 1 -7.7003 16.4861
18 15 2 0.0590 -7.4179
18 15 3 -6.7759 -4.8014
18 15 4 -1.2824 -2.0638
18 15 5 8.7565 -6.0559
18 15 6 1.5023 3.8237
18 15 7 11.6184 13.4475
18 15 8 4.1392 -5.6034
18 15 9 -8.8297 1.6717
18 16 0 -3.0682 0.1171
18 16 1 -10.6790 -0.9366
18 16 2 -6.5603 8.8803
18 16 3 -10.7542 0.1632
18 16 4 -10.6720 3.3634
18 16 5 3.9922 -7.6368
18 16 6 -2.8788 -6.0511
18 16 7 2.4097 1.4537
18 17 0 7.8878 0.3349
18 17 1 0.8872 -1.2230
18 17 2 -2.1200 7.8423
18 17 3 5.4178 -5.9521
19 0 1 -0.6237 6.8681
19 0 2 8.5498 -0.4817
19 0 3 -0.8606 7.5163
19 0 4 -8.4527 -0.4196
19 0 5 0.5635 -13.5118
19 0 6 3.3953 0.3883
19 0 7 0.8007 -3.6513
19 0 8 -7.8515 0.6557
19 0 9 -0.0106 8.4891
19 0 10 21.1689 -0.0038
19 0 11 -0.1486 2.6629
19 0 12 -5.8174 -0.6483
19 0 13 0.0730 0.5800
19 0 14 -4.2861 -0.1014
19 0 15 -0.3671 -1.2499
19 0 16 25.7238 0.1975
19 0 17 -0.0550 -4.9635
19 0 18 -5.1578 0.0675
19 1 0 -0.3612 -8.8497
19 1 1 7.0508 -5.9032
19 1 2 3.4713 7.4546
19 1 3 -9.4692 3.3540
19 1 4 -2.6285 0.9746
19 1 5 -5.0143 3.0412
19 1 6 -3.1054 -0.2780
19 1 7 9.9453 4.7463
19 1 8 -0.8190 -4.8188
19 1 9 0.8344 -2.6459
19 1 10 6.6982 0.0141
19 1 11 -7.4272 -4.8002
19 1 12 9.5901 8.5256
19 1 13 5.5359 3.2564
19 1 14 10.1074 -13.6968
19 1 15 1.2308 -3.2809
19 1 16 -7.0685 0.5408
19 1 17 -2.5328 -8.9784
19 1 18 8.6568 14.6517
19 2 0 0.2177 -11.9048
19 2 1 -2.7667 7.7158
19 2 2 0.8868 -0.5415
19 2 3 11.6352 1.7607
19 2 4 0.5286 2.9289
19 2 5 -2.9730 -0.2465
19 2 6 -5.5135 -4.4305
19 2 7 -3.0115 -0.3863
19 2 8 4.9352 -7.8466
19 2 9 1.4091 10.7770
19 2 10 -9.9386 -6.0203
19 2 11 1.4946 -9.0674
19 2 12 -4.9767 -4.3965
19 2 13 -0.8749 -13.1578
19 2 14 -5.7015 -3.7542
19 2 15 -4.4801 14.5499
19 2 16 3.2937 8.2593
19 2 17 6.6476 4.8075
19 2 18 -8.3473 -9.7064
19 3 0 -0.2121 3.0398
19 3 1 0.8530 -7.2599
19 3 2 5.3741 -4.5658
19 3 3 6.0230 -3.0051
19 3 4 -0.4687 0.0442
19 3 5 3.9231 11.2041
19 3 6 -2.0664 2.1824
19 3 7 0.6235 -10.9663
19 3 8 -1.2893 2.1090
19 3 9 -4.9420 2.4247
19 3 10 -2.3858 3.8115
19 3 11 -15.6726 9.8053
19 3 12 -16.6638 -4.5978
19 3 13 5.1062 -7.0247
19 3 14 2.9968 3.3734
19 3 15 9.1927 2.2824
19 3 16 5.3874 -0.2630
19 3 17 -7.1640 -4.5682
19 3 18 -9.8725 -10.0454
19 4 0 -0.2019 12.1499
19 4 1 -5.5244 -7.7932
19 4 2 -4.4169 0.4267
19 4 3 5.4399 -2.5513
19 4 4 2.6691 -0.2824
19 4 5 -4.8351 5.1847
19 4 6 7.6932 5.8871
19 4 7 -4.4132 3.8647
19 4 8 -6.6573 8.9829
19 4 9 12.0274 6.5573
19 4 10 6.9068 15.6987
19 4 11 -16.3950 2.5061
19 4 12 1.8871 6.2996
19 4 13 0.8901 -6.1792
19 4 14 5.2635 -7.7974
19 4 15 6.3515 -9.3715
19 4 16 -11.6774 -0.3814
19 4 17 -12.2676 -3.3843
19 4 18 12.4696 5.8065
19 5 0 -0.2730 2.0341
19 5 1 -1.9352 1.3811
19 5 2 -14.1457 2.9564
19 5 3 -1.0538 1.8183
19 5 4 6.9325 -8.9733
19 5 5 -0.9694 3.5856
19 5 6 12.7709 4.3466
19 5 7 -0.2899 -12.9131
19 5 8 9.5047 2.4563
19 5 9 4.5924 19.4635
19 5 10 4.3198 -4.1318
19 5 11 -3.2760 -8.0366
19 5 12 4.9794 2.2454
19 5 13 -2.2410 -8.1642
19 5 14 -12.1972 6.8816
19 5 15 -9.5645 15.2360
19 5 16 0.0174 -10.1147
19 5 17 4.2831 7.7670
19 5 18 4.6515 6.1742
19 6 0 -0.2581 2.1169
19 6 1 6.7179 8.2273
19 6 2 2.2945 -10.2556
19 6 3 2.6089 3.8434
19 6 4 2.6092 -16.5474
19 6 5 -13.0954 -7.1606
19 6 6 1.5383 -8.1165
19 6 7 21.5329 -7.8709
19 6 8 3.6104 2.8399
19 6 9 0.3748 0.5950
19 6 10 -6.8680 -7.6249
19 6 11 -13.3062 -4.3617
19 6 12 2.3946 9.7398
19 6 13 22.7683 6.5365
19 6 14 -11.1067 10.6531
19 6 15 1.3230 19.4889
19 6 16 9.6663 -8.5641
19 6 17 -18.2334 -9.1203
19 7 0 0.0319 -7.6969
19 7 1 4.5615 -0.9831
19 7 2 3.6097 -8.1359
19 7 3 -8.9989 5.0654
19 7 4 -5.5588 11.3257
19 7 5 -9.1303 -11.5417
19 7 6 5.5064 -3.6238
19 7 7 11.7999 -4.6520
19 7 8 -5.4869 -1.5311
19 7 9 -3.5943 16.3375
19 7 10 -3.1436 7.2290
19 7 11 9.4428 -10.1126
19 7 12 1.4879 -1.1147
19 7 13 26.8097 -5.0379
19 7 14 -3.5560 -10.5718
19 7 15 -5.2442 21.6117
19 7 16 5.2519 6.7443
19 7 17 -6.1526 -21.5280
19 8 0 -0.1858 -11.1547
19 8 1 -10.0057 -6.3163
19 8 2 4.8201 18.7384
19 8 3 -7.8730 8.1092
19 8 4 -0.0309 6.2990
19 8 5 9.3707 -16.0620
19 8 6 -12.8201 2.4102
19 8 7 -0.8186 2.2752
19 8 8 7.4371 5.8048
19 8 9 -1.7554 -1.4474
19 8 10 4.6139 1.0445
19 8 11 -8.1816 -19.1826
19 8 12 -11.9817 -11.7195
19 8 13 9.1777 11.4376
19 8 14 19.3080 -19.6650
19 8 15 -15.9161 0.2233
19 8 16 4.1351 7.9122
19 9 0 -0.2684 19.2545
19 9 1 -1.6073 -2.2304
19 9 2 9.5822 -2.1735
19 9 3 3.0133 -17.0860
19 9 4 -14.5210 3.7163
19 9 5 -2.5969 3.8339
19 9 6 1.2854 -12.9096
19 9 7 4.2427 9.7127
19 9 8 3.9321 0.5773
19 9 9 -12.5176 -8.0824
19 9 10 -11.8822 0.7873
19 9 11 5.3377 0.7379
19 9 12 -10.4161 -5.5043
19 9 13 -10.6086 6.8752
19 9 14 14.8672 -5.4133
19 9 15 -16.1618 -5.0207
19 10 0 -0.2428 -9.7110
19 10 1 -0.5523 -2.5744
19 10 2 -20.4457 2.1721
19 10 3 7.9649 -0.0094
19 10 4 -3.0198 -0.6006
19 10 5 5.1806 11.8117
19 10 6 12.1895 -11.8464
19 10 7 -6.7471 0.4995
19 10 8 3.7942 9.6782
19 10 9 -1.3942 5.0161
19 10 10 -7.3900 6.6213
19 10 11 9.6292 10.0540
19 10 12 5.0965 -6.5671
19 10 13 -10.5447 14.3577
19 10 14 9.2188 6.5959
19 11 0 -0.2541 17.1654
19 11 1 -4.4307 0.6067
19 11 2 0.6889 0.6984
19 11 3 7.3432 12.0630
19 11 4 -0.9505 -23.9283
19 11 5 -1.4693 5.0844
19 11 6 10.5759 10.2742
19 11 7 -3.9539 -5.8325
19 11 8 2.0450 6.7479
19 11 9 16.2270 -1.4504
19 11 10 -0.6288 0.7801
19 11 11 0.8357 6.8061
19 11 12 6.1279 -6.6826
19 11 13 0.6977 -24.1761
19 11 14 5.5802 4.4240
19 12 0 -0.0610 2.7791
19 12 1 7.9112 1.8660
19 12 2 -13.5552 2.5252
19 12 3 -4.1155 -9.7768
19 12 4 10.1320 -12.8922
19 12 5 -14.9559 0.0890
19 12 6 3.8622 6.8293
19 12 7 1.6305 -18.5436
19 12 8 -8.7617 -3.6808
19 12 9 11.7888 0.9699
19 12 10 -0.3001 -7.7308
19 12 11 -22.2796 -4.2171
19 12 12 -6.9468 -6.7216
19 13 0 -0.2263 3.2909
19 13 1 3.0665 -0.9213
19 13 2 -9.4874 -5.8473
19 13 3 -9.9603 11.0969
19 13 4 -1.4982 3.9935
19 13 5 -3.3296 -10.6887
19 13 6 -3.2785 7.3683
19 13 7 4.1817 -10.0280
19 13 8 -6.0472 -6.3482
19 13 9 0.9978 7.7430
19 13 10 -3.5026 2.9970
19 13 11 -13.2609 10.7309
19 14 0 -0.0142 9.2817
19 14 1 -0.9143 9.8539
19 14 2 9.1570 1.2307
19 14 3 0.5491 11.0278
19 14 4 6.1573 14.5993
19 14 5 -4.7524 -6.2557
19 14 6 -8.7426 -7.8580
19 14 7 3.8539 6.5921
19 14 8 2.7544 5.6644
19 14 9 8.8183 11.4021
19 15 0 0.0508 -6.8557
19 15 1 7.4011 0.6972
19 15 2 12.3691 -3.5099
19 15 3 -2.0100 -9.2568
19 15 4 -5.7583 8.9910
19 15 5 0.0168 11.7090
19 15 6 -7.6139 1.1448
19 16 0 -0.0250 -13.7688
19 16 1 -5.0960 -1.1536
19 16 2 -0.8832 -4.0677
20 0 0 -18.0703 -0.4799
20 0 1 -0.0085 -1.9604
20 0 2 -8.7066 -0.0061
20 0 3 0.4933 -13.0076
20 0 4 -4.2300 0.4263
20 0 5 -0.7528 -12.6564
20 0 6 -26.1716 0.2053
20 0 7 -0.7658 -3.9645
20 0 8 -7.7787 0.0363
20 0 9 0.4287 -2.5852
20 0 10 -19.6475 -0.1401
20 0 11 0.8527 -7.8017
20 0 12 -11.6077 -0.2457
20 0 13 -0.1180 -4.1813
20 0 14 15.1720 -0.1291
20 0 15 -0.7861 0.3163
20 0 16 -8.8265 0.2773
20 0 17 -0.0664 -6.7430
20 1 0 4.4972 -0.3235
20 1 1 -3.0156 5.0664
20 1 2 3.1315 -6.8250
20 1 3 -4.3066 -5.8767
20 1 4 0.7477 9.4457
20 1 5 7.5968 0.5570
20 1 6 -0.1554 -1.4082
20 1 7 -1.5397 10.3647
20 1 8 13.0324 -2.2362
20 1 9 0.9562 4.7394
20 1 10 8.1475 5.9225
20 1 11 0.8111 3.7000
20 1 12 1.8975 -7.9691
20 1 13 -3.3239 -15.1585
20 1 14 17.3819 -2.7311
20 1 15 2.8396 -7.0316
20 1 16 5.3556 5.1928
20 1 17 -11.4764 -4.5914
20 2 0 8.5284 -0.0941
20 2 1 -9.9637 7.6092
20 2 2 12.8595 3.5449
20 2 3 -3.1438 1.2316
20 2 4 7.3157 0.5788
20 2 5 14.8073 10.6958
20 2 6 9.7034 -1.5246
20 2 7 6.0289 8.1460
20 2 8 23.5486 -1.1187
20 2 9 -3.7109 -1.9669
20 2 10 12.7337 8.1402
20 2 11 -5.8426 17.0518
20 2 12 3.6534 -6.8136
20 2 13 -0.2548 -1.5804
20 2 14 -4.3970 -2.3338
20 2 15 -6.1653 3.5501
20 2 16 3.8661 19.8372
20 2 17 -2.3433 13.7567
20 3 0 -1.5984 -0.2944
20 3 1 -5.7079 3.7209
20 3 2 -5.3603 8.6464
20 3 3 5.3514 -10.0160
20 3 4 -6.5512 -5.6730
20 3 5 -2.4370 -6.9690
20 3 6 -3.1815 -17.0796
20 3 7 -2.6670 2.9655
20 3 8 -5.5301 -6.2544
20 3 9 11.5543 4.1790
20 3 10 -11.2531 11.7421
20 3 11 -5.5816 -12.8029
20 3 12 -10.7662 0.9115
20 3 13 -2.8849 22.0298
20 3 14 4.1656 12.6522
20 3 15 13.2355 13.7875
20 3 16 -9.7311 -0.6542
20 3 17 15.7654 -7.6592
20 4 0 2.4437 -0.0500
20 4 1 -0.7652 -7.9652
20 4 2 -13.7945 -1.3947
20 4 3 -1.4287 -4.2797
20 4 4 -22.0458 -3.0574
20 4 5 -12.6750 -1.9146
20 4 6 -15.7961 -5.8594
20 4 7 3.7172 -22.0864
20 4 8 10.2735 -4.3377
20 4 9 -17.0036 9.2668
20 4 10 -14.1600 0.9943
20 4 11 11.5216 -2.6234
20 4 12 2.0670 -6.3296
20 4 13 22.8966 -13.7583
20 4 14 17.5855 0.8704
20 4 15 -8.9573 -13.1548
20 4 16 -22.8185 -4.0156
20 5 0 3.1101 -0.5892
20 5 1 7.7565 -0.5865
20 5 2 -0.8444 0.5789
20 5 3 1.1625 19.6664
20 5 4 11.4344 12.1459
20 5 5 -11.6604 2.7638
20 5 6 -3.5029 -10.8723
20 5 7 5.4652 1.0620
20 5 8 15.6451 4.0406
20 5 9 8.4818 -5.2086
20 5 10 12.6816 7.8802
20 5 11 -14.4733 -23.5266
20 5 12 6.5137 -27.8103
20 5 13 -3.4944 -14.6790
20 5 14 4.4406 12.7509
20 5 15 7.8270 6.0212
20 5 16 5.1846 3.6406
20 6 0 -12.2088 -0.1225
20 6 1 3.6994 5.1174
20 6 2 22.5292 -5.5002
20 6 3 5.3261 18.7086
20 6 4 10.3294 4.5247
20 6 5 -7.8459 -4.5077
20 6 6 2.8843 7.6187
20 6 7 -0.9819 2.5637
20 6 8 11.7666 -8.6341
20 6 9 -8.8209 4.3662
20 6 10 -13.0143 5.7322
20 6 11 -13.0768 6.7862
20 6 12 -4.4058 8.7863
20 6 13 7.8676 -6.1230
20 6 14 -0.5603 -4.8901
20 6 15 9.8622 13.1145
20 6 16 8.7836 -3.3460
20 7 0 -7.2033 -0.4680
20 7 1 3.0432 -1.0685
20 7 2 0.8770 -15.1976
20 7 3 -15.7528 -10.3818
20 7 4 -6.3050 11.1483
20 7 5 -4.9427 0.3064
20 7 6 -12.1676 3.1381
20 7 7 6.8452 -5.2186
20 7 8 -13.7995 7.7631
20 7 9 -10.7705 15.5836
20 7 10 -2.0891 8.1036
20 7 11 5.4954 -5.6006
20 7 12 -11.7512 10.7494
20 7 13 5.7351 11.6201
20 7 14 -13.7710 -22.1564
20 7 15 1.2637 6.8136
20 8 0 -11.6804 -0.1144
20 8 1 -9.8249 0.5688
20 8 2 5.2334 11.9460
20 8 3 -2.5455 -3.9935
20 8 4 -0.5009 8.6990
20 8 5 6.1107 -11.8672
20 8 6 -3.9833 -8.0307
20 8 7 11.2289 4.4839
20 8 8 -5.9760 -2.5264
20 8 9 1.3104 -0.4785
20 8 10 10.6437 -3.1945
20 8 11 12.6345 -17.0187
20 8 12 -21.1293 -0.5805
20 8 13 8.8265 11.7419
20 8 14 -1.7355 -13.7364
20 9 0 29.7588 -0.3588
20 9 1 -2.4382 6.3589
20 9 2 7.3761 1.4501
20 9 3 17.5029 -0.2313
20 9 4 -4.8748 2.8525
20 9 5 3.7903 -6.5075
20 9 6 1.7453 1.0481
20 9 7 1.1677 11.1149
20 9 8 16.6615 -13.8220
20 9 9 -7.5413 -14.2180
20 9 10 0.6544 5.8543
20 9 11 7.9982 -1.4739
20 9 12 1.5929 -7.0391
20 9 13 -12.3979 18.6208
20 10 0 0.2091 0.0032
20 10 1 8.2115 -13.7189
20 10 2 -3.0562 9.3914
20 10 3 -9.3968 0.8564
20 10 4 -1.7093 -6.8298
20 10 5 8.1875 25.5673
20 10 6 -7.0283 2.1865
20 10 7 -14.6889 0.7210
20 10 8 3.3662 3.4591
20 10 9 -7.0479 -6.4654
20 10 10 -4.5024 12.1004
20 10 11 10.9879 16.9660
20 10 12 8.1748 -6.7026
20 11 0 -14.6111 -0.5100
20 11 1 3.9193 -6.3167
20 11 2 -15.6311 -1.1168
20 11 3 13.7600 3.2765
20 11 4 5.6471 1.5678
20 11 5 -6.6903 0.1237
20 11 6 6.6886 -0.4370
20 11 7 -19.4903 3.0981
20 11 8 -11.1366 7.2510
20 11 9 13.7438 -7.3612
20 11 10 -1.6699 -6.6835
20 11 11 1.0695 10.9966
20 12 0 5.0274 -0.2027
20 12 1 10.2042 1.5672
20 12 2 6.8265 -20.1567
20 12 3 2.9801 0.5815
20 12 4 12.3311 -11.3869
20 12 5 -3.8185 4.2171
20 12 6 0.9709 12.2563
20 12 7 4.6924 -15.0766
20 12 8 -2.9284 -0.8920
20 12 9 10.8331 -4.8245
20 12 10 -3.3157 -16.6233
20 13 0 -13.0438 -0.5433
20 13 1 -6.9828 -4.9970
20 13 2 6.0706 -8.4855
20 13 3 -4.4721 8.4660
20 13 4 15.7837 6.6180
20 13 5 -3.5477 -0.7646
20 13 6 3.8915 14.0465
20 13 7 7.5069 -6.6357
20 13 8 -15.6479 -9.8838
20 14 0 -18.3648 0.1124
20 14 1 -2.6375 5.5836
20 14 2 -6.9044 -3.3604
20 14 3 4.9175 -3.4516
20 14 4 9.1341 6.8825
20 14 5 -3.5707 -7.2866
21 0 1 0.4893 5.1539
21 0 2 -2.5682 -0.6411
21 0 3 -0.3558 6.5945
21 0 4 7.1994 -0.6299
21 0 5 -0.2527 -19.0179
21 0 6 1.4945 0.1957
21 0 7 0.6225 -10.2705
21 0 8 -15.6515 0.9916
21 0 9 -0.1422 16.2368
21 0 10 -3.4366 -0.0795
21 0 11 0.2162 15.1115
21 0 12 -3.5957 -0.6260
21 0 13 0.2310 -2.6428
21 0 14 -1.5325 -0.0847
21 0 15 -0.2742 8.0923
21 0 16 10.1073 0.1382
21 1 0 -0.5333 5.5217
21 1 1 5.2344 0.4621
21 1 2 4.2232 0.2040
21 1 3 -6.8811 -10.8489
21 1 4 -5.7922 -2.3189
21 1 5 -7.0240 -4.9293
21 1 6 -16.5818 5.2835
21 1 7 13.4535 5.0079
21 1 8 8.3066 8.8364
21 1 9 11.0577 -7.5753
21 1 10 -2.1247 -7.1959
21 1 11 -14.8917 2.5084
21 1 12 22.8649 0.3246
21 1 13 7.1235 -0.0711
21 1 14 -2.3135 0.1696
21 1 15 9.0311 -10.7299
21 2 0 0.1268 -2.8486
21 2 1 -1.5572 4.1706
21 2 2 -4.7894 4.3583
21 2 3 0.6050 0.4165
21 2 4 -6.8107 19.5684
21 2 5 8.3550 11.5422
21 2 6 9.4722 -10.7726
21 2 7 -5.3423 -11.0442
21 2 8 2.7336 -4.0899
21 2 9 7.7138 15.1514
21 2 10 -9.8105 -4.0201
21 2 11 -0.2078 -15.6945
21 2 12 19.3230 -3.5157
21 2 13 -5.4509 -27.9250
21 2 14 -8.7194 7.3278
21 2 15 -7.5042 20.2549
21 3 0 -0.1864 0.9778
21 3 1 -3.4541 -5.1291
21 3 2 9.7797 2.7045
21 3 3 15.5283 3.0992
21 3 4 -3.5862 -6.8328
21 3 5 -5.2976 14.0229
21 3 6 0.8986 -8.6346
21 3 7 -10.2053 -8.1085
21 3 8 0.5757 6.3052
21 3 9 -4.8680 4.6588
21 3 10 -0.6801 -17.9388
21 3 11 -31.1660 8.0315
21 3 12 -17.0361 -3.1526
21 3 13 16.2961 0.4361
21 3 14 9.6648 14.5063
21 3 15 4.5334 5.6648
21 4 0 0.1148 -4.7789
21 4 1 -3.6214 -12.1215
21 4 2 -2.9850 -8.1981
21 4 3 16.5255 -1.6485
21 4 4 -0.9630 -12.6287
21 4 5 -13.0334 13.8166
21 4 6 4.3495 0.1604
21 4 7 -2.4771 1.1536
21 4 8 -14.3500 6.8392
21 4 9 1.0103 13.1527
21 4 10 -2.9061 11.0871
21 4 11 -7.7713 0.2797
21 4 12 11.7272 -1.4722
21 4 13 5.2021 -0.3119
21 4 14 -3.0188 -8.8091
21 4 15 3.6665 -7.5775
21 5 0 -0.3106 7.8312
21 5 1 -1.3741 -14.6825
21 5 2 -12.6607 -0.9520
21 5 3 3.1221 9.6821
21 5 4 5.7426 -1.6472
21 5 5 2.6484 2.3680
21 5 6 15.5837 13.7929
21 5 7 10.0184 1.5467
21 5 8 9.3705 9.0136
21 5 9 2.8448 7.5870
21 5 10 -9.1495 -3.5001
21 5 11 11.4457 -11.5993
21 5 12 12.6843 1.4763
21 5 13 -8.5090 -8.2953
21 5 14 -25.0374 11.6755
21 6 0 0.1108 13.6345
21 6 1 4.0980 3.9749
21 6 2 -1.6896 1.9046
21 6 3 4.1157 5.8681
21 6 4 12.2613 -3.0730
21 6 5 -1.9986 -18.8120
21 6 6 3.4402 -8.6391
21 6 7 12.9681 -2.5744
21 6 8 6.4397 25.5137
21 6 9 -13.7429 -11.8051
21 6 10 -9.1926 -16.4996
21 6 11 -6.9329 -2.4650
21 6 12 8.6300 18.1531
21 6 13 2.2875 4.6731
21 6 14 -12.7622 22.3740
21 7 0 -0.1027 -13.2792
21 7 1 4.5184 3.6349
21 7 2 7.4079 -11.2101
21 7 3 -13.6318 -5.0833
21 7 4 -11.3329 -0.3291
21 7 5 -10.1968 -9.9801
21 7 6 12.7470 -5.4422
21 7 7 0.1463 7.7201
21 7 8 -10.9119 0.4455
21 7 9 -3.1512 6.4831
21 7 10 -5.4025 3.9424
21 7 11 0.5733 -2.3989
21 7 12 20.0375 3.0396
21 7 13 30.9976 1.3933
21 8 0 0.2323 -16.6869
21 8 1 -12.2916 -3.5667
21 8 2 8.0655 1.9331
21 8 3 -12.7127 6.4663
21 8 4 -3.3212 3.0112
21 8 5 21.6788 -1.3078
21 8 6 3.3158 -1.0860
21 8 7 -2.5046 1.7986
21 8 8 2.9517 4.5137
21 8 9 4.1203 10.6626
21 8 10 10.0802 -15.7703
21 8 11 5.3969 -20.4723
21 8 12 -11.4535 -11.9133
21 9 0 -0.3228 11.4006
21 9 1 -6.1724 3.5372
21 9 2 5.2927 12.9328
21 9 3 13.1181 -27.0209
21 9 4 -1.4256 -7.0854
21 9 5 1.1786 3.4461
21 9 6 -3.1110 -5.0363
21 9 7 14.0506 8.8900
21 9 8 -1.4618 0.9397
21 9 9 -15.8031 -11.2244
21 9 10 -12.9271 3.1196
21 9 11 6.2650 -4.5932
21 10 0 0.0624 -3.8181
21 10 1 1.5590 -15.5428
21 10 2 -25.6167 7.8836
21 10 3 0.7761 -3.3291
21 10 4 -14.7480 -6.1552
21 10 5 5.9575 -1.6973
21 10 6 8.8058 0.9832
21 10 7 -9.8585 5.4331
21 10 8 1.1327 2.8257
21 10 9 -9.5150 -3.4338
21 10 10 -9.4997 19.3330
21 11 0 -0.3624 21.5972
21 11 1 -7.4423 8.3548
21 11 2 -2.8068 -0.3246
21 11 3 5.1515 15.7182
21 11 4 -2.2864 -15.9946
21 11 5 -2.1541 2.9187
21 11 6 9.1665 -3.5636
21 11 7 -7.8813 -3.0998
21 11 8 13.4340 10.3734
21 11 9 17.6949 -1.0621
21 12 0 0.2826 5.2194
21 12 1 14.0161 -4.1388
21 12 2 -3.2597 -0.7860
21 12 3 -6.9449 1.4789
21 12 4 15.1792 -2.5211
21 12 5 -12.9283 5.2381
21 12 6 4.9230 -6.3184
21 12 7 2.5655 -16.4572
21 13 0 -0.4444 0.0325
21 13 1 0.3597 2.8912
21 13 2 -2.3185 -17.7638
21 13 3 -0.3307 7.5069
22 0 0 -1.5253 -0.6574
22 0 1 0.2914 5.8232
22 0 2 7.5755 0.3408
22 0 3 0.0839 11.4576
22 0 4 27.1969 0.3013
22 0 5 -0.3253 -18.9543
22 0 6 -13.8351 -0.2604
22 0 7 -0.9752 1.4044
22 0 8 -3.2720 0.0872
22 0 9 0.3079 15.4459
22 0 10 -7.1643 0.0099
22 0 11 1.1059 -7.0516
22 0 12 2.8234 0.1233
22 0 13 -0.1780 27.9598
22 1 0 -19.0486 -0.2934
22 1 1 1.0788 12.1908
22 1 2 -7.3005 -11.1718
22 1 3 -6.3156 0.2916
22 1 4 -18.3669 9.0372
22 1 5 -5.5643 3.9724
22 1 6 -31.7607 9.6526
22 1 7 12.3922 25.2821
22 1 8 -12.3924 -6.8638
22 1 9 -7.6780 15.9222
22 1 10 -15.7383 2.5318
22 1 11 4.0590 16.0558
22 1 12 -3.5612 -8.0398
22 1 13 9.0662 -9.9939
22 2 0 -14.1396 -0.8960
22 2 1 -10.3244 -4.4641
22 2 2 -1.2329 -3.4123
22 2 3 -1.4837 -8.6828
22 2 4 -9.1117 11.2775
22 2 5 15.4758 1.1161
22 2 6 -3.0199 2.1005
22 2 7 8.8251 -0.0695
22 2 8 6.8580 -4.4925
22 2 9 -6.2491 -0.8147
22 2 10 5.5789 -5.0360
22 2 11 -13.1586 -12.0142
22 2 12 -4.3961 -5.5256
22 2 13 3.4860 -11.0217
22 3 0 10.4218 -0.2249
22 3 1 -7.8035 -5.0625
22 3 2 14.2291 3.0889
22 3 3 11.7298 -14.6172
22 3 4 18.1006 -3.6860
22 3 5 8.2279 -11.8171
22 3 6 23.6598 -23.1446
22 3 7 9.8768 -10.8018
22 3 8 2.5650 3.3051
22 3 9 -2.0192 2.1147
22 3 10 18.0064 5.8900
22 3 11 -10.4250 -29.7432
22 3 12 8.3468 9.4893
22 3 13 1.7388 14.1176
22 4 0 7.2349 -0.7146
22 4 1 5.6274 2.2725
22 4 2 -0.2785 0.5824
22 4 3 -2.4584 2.5419
22 4 4 -9.6081 -17.3844
22 4 5 -17.8252 -3.4553
22 4 6 0.5437 2.9530
22 4 7 8.9171 1.1838
22 4 8 19.7029 -1.3086
22 4 9 -14.9404 28.8499
22 4 10 -10.5448 -6.7356
22 4 11 13.6453 -1.2944
22 4 12 10.9461 19.1560
22 4 13 24.8443 15.5145
22 5 0 -16.5596 -0.3334
22 5 1 10.0660 2.4965
22 5 2 -22.3834 -0.5768
22 5 3 -11.8868 30.1449
22 5 4 -18.8663 10.0664
22 5 5 -19.4710 2.0157
22 5 6 -8.8079 -8.2620
22 5 7 16.6388 6.7931
22 5 8 -15.9414 6.2623
22 5 9 -8.7545 3.5096
22 5 10 12.9791 5.1272
22 5 11 0.3763 -9.8685
22 5 12 -3.9977 -31.1218
22 6 0 -15.6523 -0.7232
22 6 1 7.4537 -2.8454
22 6 2 14.7717 -2.7176
22 6 3 2.9721 21.2529
22 6 4 3.6246 0.4088
22 6 5 -5.2028 -23.0794
22 6 6 0.3248 0.5421
22 6 7 -0.5896 -6.7618
22 6 8 1.4316 -14.7632
22 6 9 -3.5386 -10.9796
22 6 10 -18.5974 -9.8373
22 6 11 -13.7007 -19.6356
22 7 0 10.2776 -0.1705
22 7 1 14.7333 -2.3643
22 7 2 20.7609 -11.9550
22 7 3 -15.3929 -15.2464
22 7 4 11.6427 2.5026
22 7 5 -2.0864 -3.8481
22 7 6 3.4338 5.3399
22 7 7 2.4446 -9.5918
22 7 8 -2.2632 10.2079
22 7 9 -9.4588 5.8758
22 7 10 17.0641 3.5737
22 8 0 -3.9481 -0.5489
22 8 1 -16.4990 4.4841
22 8 2 -7.4982 11.8377
22 8 3 -4.7104 8.8710
22 8 4 0.5565 13.8987
22 8 5 1.7656 0.0567
22 8 6 0.0483 3.9084
22 8 7 9.9194 13.9574
22 8 8 -4.7774 4.1212
22 8 9 4.1715 6.6233
22 9 0 14.5855 -0.1603
22 9 1 9.1452 12.0320
22 9 2 -5.7340 7.2850
22 9 3 7.9078 -0.6773
22 9 4 -14.5041 0.7172
22 9 5 1.1227 -3.2433
22 9 6 -10.2686 -2.3572
22 9 7 -6.4817 4.9233
22 9 8 -5.0615 -19.0446
22 10 0 7.6099 -0.5140
22 10 1 5.4137 -23.6968
22 10 2 14.1471 5.1862
22 10 3 -2.3063 1.4571
22 10 4 -5.0909 -11.6666
22 10 5 4.9022 14.0963
22 10 6 -8.8998 1.8038
22 10 7 -15.7193 -12.1357
22 11 0 -4.3361 -0.1129
22 11 1 6.4928 -7.0385
22 11 2 -10.9759 -1.8531
22 11 3 21.3552 1.8686
22 11 4 19.6215 14.4908
22 11 5 -11.3018 14.3922
23 0 1 0.4472 1.2686
23 0 2 -4.1415 0.4466
23 0 3 0.1570 6.2989
23 0 4 23.3566 -1.2118
23 0 5 -0.2120 -13.3233
23 0 6 6.7678 0.3212
23 0 7 -0.1039 -4.8140
23 0 8 -4.4968 1.2069
23 0 9 0.0626 0.1293
23 0 10 -22.1389 0.1183
23 0 11 0.2473 22.0600
23 1 0 0.7193 8.5932
23 1 1 -1.3977 7.0632
23 1 2 5.3723 -6.7068
23 1 3 -5.7910 -12.8395
23 1 4 -2.5816 -1.7526
23 1 5 -3.8940 -10.0155
23 1 6 -19.7951 1.5061
23 1 7 1.5512 13.5543
23 1 8 5.8809 19.2024
23 1 9 6.4304 2.4126
23 1 10 0.2735 -12.6143
23 1 11 -0.4260 16.5823
23 2 0 -0.0097 -3.8561
23 2 1 -0.9848 -2.4046
23 2 2 -1.9493 3.7347
23 2 3 -10.5474 -4.6264
23 2 4 -25.0060 17.5639
23 2 5 12.1910 11.0855
23 2 6 11.4797 -9.9759
23 2 7 6.2318 -1.7291
23 2 8 -5.1363 -11.2815
23 2 9 6.6973 -0.6845
23 2 10 -14.7768 -2.2404
23 2 11 2.3056 -10.7486
23 3 0 0.8978 -9.0661
23 3 1 -0.1165 -4.2999
23 3 2 7.0731 22.0782
23 3 3 21.8602 6.9526
23 3 4 -6.0864 -1.7094
23 3 5 3.3194 2.5436
23 3 6 -2.7240 -17.4860
23 3 7 -7.2361 -7.9656
23 3 8 2.7034 12.7473
23 3 9 -6.6139 -0.0783
23 3 10 3.8053 -25.5156
23 4 0 0.2727 -6.8495
23 4 1 1.2637 -14.4938
23 4 2 7.4723 -0.9234
23 4 3 21.3985 4.6635
23 4 4 -7.6343 -7.8936
23 4 5 -17.0623 8.7988
23 4 6 4.3680 4.9861
23 4 7 -4.7114 8.0981
23 4 8 -8.4418 2.4554
23 4 9 -15.3295 -5.2812
23 4 10 -4.4584 16.5990
23 5 0 0.8712 0.4745
23 5 1 -6.9217 -19.6757
23 5 2 -4.4087 -9.8479
23 5 3 -5.9766 14.6661
23 5 4 6.9903 -0.7475
23 5 5 -1.5267 6.5281
23 5 6 10.3167 10.1006
23 5 7 -3.7525 19.9049
23 5 8 4.7278 6.6485
23 5 9 -7.6075 -1.6896
23 6 0 0.2356 2.3571
23 6 1 0.4711 11.3237
23 6 2 -3.6609 3.9065
23 6 3 -0.5426 -2.9383
23 6 4 16.6229 -4.3657
23 6 5 15.2382 -8.9687
23 6 6 7.9742 -3.7040
23 6 7 3.0013 3.2464
23 6 8 1.2215 9.5286
23 7 0 0.6963 -7.7860
23 7 1 12.4240 12.8384
23 7 2 5.9968 -4.7251
23 7 3 -5.3277 -17.1681
23 7 4 -11.5519 -5.8208
23 7 5 4.8632 -7.8878
23 7 6 5.0296 1.1309
23 7 7 0.7763 8.7725
23 8 0 0.3317 -14.8077
23 8 1 -8.5829 -0.3864
23 8 2 5.8298 0.1034
23 8 3 -11.8213 2.0608
23 8 4 -8.8070 4.7753
23 8 5 14.3661 3.1764
23 9 0 0.5803 -3.9450
23 9 1 -13.0371 -4.3605
23 9 2 4.7834 20.1632
23 9 3 7.5509 -12.6373
24 0 0 -1.7269 0.2413
24 0 1 0.3967 -17.7549
24 0 2 -7.1174 -0.1746
24 0 3 -0.1702 4.2877
24 0 4 16.7446 -0.0578
24 0 5 -0.1462 -38.6947
24 0 6 -1.0179 0.0157
24 0 7 -0.7515 -25.6901
24 1 0 -3.2414 -0.1683
24 1 1 7.6578 -10.8093
24 1 2 21.9511 -4.6000
24 1 3 -2.7298 -13.5433
24 1 4 3.4421 -2.1317
24 1 5 -12.7206 -20.8517
24 1 6 -11.8843 14.8880
24 1 7 11.4401 3.5940
24 2 0 -5.4092 0.0782
24 2 1 1.2298 10.8003
24 2 2 7.7563 -7.5429
24 2 3 -4.6976 10.7336
24 2 4 -5.2434 21.9024
24 2 5 10.0751 25.6723
24 2 6 9.9154 1.4181
24 2 7 5.8591 13.8481
24 3 0 -10.9523 0.0021
24 3 1 -6.3165 8.7754
24 3 2 -6.9805 1.3197
24 3 3 11.9776 7.3532
24 3 4 -1.4681 -3.6034
24 3 5 10.6338 10.6772
24 3 6 3.7248 -11.7705
24 4 0 -1.7196 0.0156
24 4 1 4.5499 -17.8396
24 4 2 -4.9640 3.1804
24 4 3 1.0310 -15.7799
24 4 4 -8.9769 -31.2853
24 4 5 -8.5480 -27.1160
24 4 6 9.0057 3.8458
24 5 0 10.8657 0.0838
24 5 1 15.9508 -9.4766
24 5 2 -13.6244 2.8906
24 5 3 -16.1982 5.6849
24 5 4 -2.7487 -5.1472
24 6 2 -2.5151 3.7875
0 0 0 0.0 0.0
;
_shelx_fab_checksum              48568
_olex2_submission_special_instructions 'No special instructions were received'
loop_
_space_group_symop_operation_xyz
'x, y, z'
'-x+1/2, -y, z+1/2'
'x+1/2, -y+1/2, -z'
'-x, y+1/2, -z+1/2'
loop_
_atom_site_label
_atom_site_type_symbol
_atom_site_fract_x
_atom_site_fract_y
_atom_site_fract_z
_atom_site_U_iso_or_equiv
_atom_site_adp_type
_atom_site_occupancy
_atom_site_site_symmetry_order
_atom_site_calc_flag
_atom_site_refinement_flags_posn
Ag1 Ag 0.94976(6) 0.50187(6) 0.10021(7) 0.0264(4) Uani 1 1 d .
Ag2 Ag 0.81456(7) 0.50097(7) 0.10348(7) 0.0310(4) Uani 1 1 d .
Ag3 Ag 0.68326(6) 0.48910(7) 0.09289(6) 0.0261(4) Uani 1 1 d .
Ag4 Ag 0.55860(6) 0.53071(6) 0.09684(6) 0.0196(4) Uani 1 1 d .
Ag5 Ag 0.44214(6) 0.49450(6) 0.14242(6) 0.0202(4) Uani 1 1 d .
Ag6 Ag 0.32807(6) 0.46385(6) 0.09243(6) 0.0193(3) Uani 1 1 d .
Ag7 Ag 0.20873(6) 0.52045(6) 0.09609(6) 0.0198(3) Uani 1 1 d .
Ag8 Ag 0.08325(7) 0.49753(7) 0.12491(6) 0.0256(4) Uani 1 1 d .
C1A C 1.0369(11) 0.3222(11) 0.2123(9) 0.034(6) Uiso 1 1 d .
H1AA H 1.011367 0.323169 0.242015 0.052 Uiso 1 1 calc GR
H1AB H 1.069315 0.350066 0.216054 0.052 Uiso 1 1 calc GR
H1AC H 1.053796 0.283665 0.208368 0.052 Uiso 1 1 calc GR
C1B C 0.8518(12) 0.6894(11) 0.1889(10) 0.042(7) Uani 1 1 d .
H1BA H 0.811469 0.674804 0.182845 0.063 Uiso 1 1 calc GR
H1BB H 0.850596 0.731260 0.191918 0.063 Uiso 1 1 calc GR
H1BC H 0.867532 0.672813 0.219904 0.063 Uiso 1 1 calc GR
C1C C 0.7564(15) 0.2741(11) 0.1282(12) 0.061(9) Uani 1 1 d .
H1CA H 0.768156 0.238837 0.145578 0.091 Uiso 1 1 calc GR
H1CB H 0.769828 0.272444 0.093375 0.091 Uiso 1 1 calc GR
H1CC H 0.712848 0.277958 0.129157 0.091 Uiso 1 1 calc GR
C1D C 0.8992(14) 0.5474(13) -0.0852(10) 0.055(8) Uani 1 1 d .
H1DA H 0.892749 0.569163 -0.116051 0.082 Uiso 1 1 calc GR
H1DB H 0.886638 0.507518 -0.090241 0.082 Uiso 1 1 calc GR
H1DC H 0.941622 0.548313 -0.076353 0.082 Uiso 1 1 calc GR
C1E C 0.7421(14) 0.5966(14) 0.2668(11) 0.056(8) Uani 1 1 d .
H1EA H 0.750922 0.591122 0.302424 0.084 Uiso 1 1 calc GR
H1EB H 0.715238 0.629452 0.262771 0.084 Uiso 1 1 calc GR
H1EC H 0.779228 0.603718 0.248546 0.084 Uiso 1 1 calc GR
C1F C 0.6344(12) 0.6353(11) -0.0630(10) 0.039(6) Uani 1 1 d .
H1FA H 0.643772 0.645800 -0.097637 0.059 Uiso 1 1 calc GR
H1FB H 0.650365 0.664519 -0.040279 0.059 Uiso 1 1 calc GR
H1FC H 0.591039 0.632812 -0.058871 0.059 Uiso 1 1 calc GR
C1G C 0.5351(12) 0.5634(11) 0.3011(10) 0.043(6) Uiso 1 1 d .
H1GA H 0.544691 0.587319 0.330184 0.064 Uiso 1 1 calc GR
H1GB H 0.555035 0.526209 0.304353 0.064 Uiso 1 1 calc GR
H1GC H 0.491812 0.557606 0.299397 0.064 Uiso 1 1 calc GR
C1H C 0.6010(13) 0.3192(11) 0.0141(12) 0.052(8) Uani 1 1 d .
H1HA H 0.592498 0.291836 -0.012810 0.078 Uiso 1 1 calc GR
H1HB H 0.584608 0.304840 0.045626 0.078 Uiso 1 1 calc GR
H1HC H 0.644319 0.324006 0.017353 0.078 Uiso 1 1 calc GR
C1I C 0.4593(11) 0.7056(10) 0.0505(9) 0.033(6) Uani 1 1 d .
H1IA H 0.456086 0.747274 0.054106 0.049 Uiso 1 1 calc GR
H1IB H 0.433778 0.692813 0.022836 0.049 Uiso 1 1 calc GR
H1IC H 0.500823 0.695225 0.043351 0.049 Uiso 1 1 calc GR
C1J C 0.4337(11) 0.2863(11) 0.0444(9) 0.037(6) Uani 1 1 d .
H1JA H 0.441354 0.245007 0.046189 0.056 Uiso 1 1 calc GR
H1JB H 0.456726 0.302924 0.016765 0.056 Uiso 1 1 calc GR
H1JC H 0.391098 0.293005 0.038733 0.056 Uiso 1 1 calc GR
C1K C 0.2998(12) 0.6796(10) 0.0145(10) 0.042(6) Uani 1 1 d .
H1KA H 0.300099 0.704201 -0.015271 0.062 Uiso 1 1 calc GR
H1KB H 0.325668 0.696274 0.040223 0.062 Uiso 1 1 calc GR
H1KC H 0.258943 0.676731 0.027402 0.062 Uiso 1 1 calc GR
C1L C 0.3400(12) 0.4210(12) 0.2948(10) 0.045(7) Uiso 1 1 d .
H1LA H 0.339692 0.391934 0.321284 0.067 Uiso 1 1 calc GR
H1LB H 0.310628 0.450800 0.302486 0.067 Uiso 1 1 calc GR
H1LC H 0.379845 0.438235 0.292648 0.067 Uiso 1 1 calc GR
C1M C 0.2452(11) 0.3699(10) -0.0624(9) 0.033(6) Uiso 1 1 d .
H1MA H 0.222386 0.340184 -0.044834 0.050 Uiso 1 1 calc GR
H1MB H 0.287310 0.367256 -0.052824 0.050 Uiso 1 1 calc GR
H1MC H 0.241369 0.364290 -0.098605 0.050 Uiso 1 1 calc GR
C1N C 0.1591(14) 0.4496(13) 0.2900(12) 0.057(8) Uiso 1 1 d .
H1NA H 0.177216 0.449426 0.323365 0.086 Uiso 1 1 calc GR
H1NB H 0.168194 0.413490 0.272904 0.086 Uiso 1 1 calc GR
H1NC H 0.115707 0.453808 0.293178 0.086 Uiso 1 1 calc GR
C1O C 0.0246(12) 0.4313(14) -0.0615(11) 0.053(8) Uani 1 1 d .
H1OA H 0.044968 0.465326 -0.074483 0.079 Uiso 1 1 calc GR
H1OB H -0.016509 0.441245 -0.052416 0.079 Uiso 1 1 calc GR
H1OC H 0.024167 0.401311 -0.087180 0.079 Uiso 1 1 calc GR
C1P C 0.1176(12) 0.7290(12) 0.1182(10) 0.044(6) Uiso 1 1 d .
H1PA H 0.110071 0.766088 0.134167 0.065 Uiso 1 1 calc GR
H1PB H 0.099592 0.728626 0.084760 0.065 Uiso 1 1 calc GR
H1PC H 0.160756 0.722871 0.115264 0.065 Uiso 1 1 calc GR
C2A C 0.9756(12) 0.2953(12) 0.1357(10) 0.041(6) Uiso 1 1 d .
H2A H 0.983365 0.256355 0.143680 0.049 Uiso 1 1 calc R
C2B C 0.9169(11) 0.7121(10) 0.1130(10) 0.036(6) Uani 1 1 d .
H2B H 0.908407 0.751721 0.116567 0.043 Uiso 1 1 calc R
C2C C 0.8118(14) 0.3193(12) 0.2000(11) 0.056(9) Uani 1 1 d .
H2C H 0.813157 0.282529 0.215270 0.067 Uiso 1 1 calc R
C2D C 0.8340(11) 0.6254(11) -0.0458(10) 0.040(6) Uani 1 1 d .
H2D H 0.837438 0.645502 -0.076529 0.048 Uiso 1 1 calc R
C2E C 0.6970(13) 0.5013(15) 0.2769(12) 0.063(8) Uani 1 1 d .
H2E H 0.701247 0.506619 0.311935 0.076 Uiso 1 1 calc R
C2F C 0.6869(11) 0.5437(11) -0.0887(10) 0.040(6) Uani 1 1 d .
H2F H 0.686207 0.556527 -0.122407 0.048 Uiso 1 1 calc R
C2G C 0.5739(11) 0.6505(12) 0.2525(10) 0.044(7) Uani 1 1 d .
H2G H 0.573167 0.672181 0.282571 0.053 Uiso 1 1 calc R
C2H C 0.5529(10) 0.3899(11) -0.0442(11) 0.041(7) Uani 1 1 d .
H2H H 0.553797 0.361304 -0.069449 0.050 Uiso 1 1 calc R
C2I C 0.4223(11) 0.7096(10) 0.1413(10) 0.037(6) Uani 1 1 d .
H2I H 0.421898 0.750296 0.140078 0.044 Uiso 1 1 calc R
C2J C 0.4674(12) 0.2816(9) 0.1347(10) 0.038(6) Uani 1 1 d .
H2J H 0.467885 0.241023 0.132117 0.046 Uiso 1 1 calc R
C2K C 0.3380(9) 0.6045(10) -0.0478(9) 0.029(5) Uani 1 1 d .
H2K H 0.334857 0.631981 -0.073902 0.034 Uiso 1 1 calc R
C2L C 0.3105(11) 0.3343(10) 0.2413(9) 0.034(6) Uani 1 1 d .
H2L H 0.309781 0.311510 0.270769 0.041 Uiso 1 1 calc R
C2M C 0.1974(9) 0.4641(10) -0.0867(9) 0.030(5) Uani 1 1 d .
H2M H 0.197297 0.452192 -0.120663 0.036 Uiso 1 1 calc R
C2N C 0.2021(11) 0.5513(13) 0.2803(11) 0.050(8) Uani 1 1 d .
H2N H 0.198222 0.554948 0.315535 0.060 Uiso 1 1 calc R
C2O C 0.0809(11) 0.3562(11) -0.0119(9) 0.033(5) Uiso 1 1 d .
H2O H 0.078457 0.331307 -0.039944 0.040 Uiso 1 1 calc R
C2P C 0.0550(11) 0.6956(9) 0.1901(9) 0.030(6) Uani 1 1 d .
H2P H 0.049401 0.734611 0.199154 0.036 Uiso 1 1 calc R
C3A C 0.9412(10) 0.3063(9) 0.0951(12) 0.037(6) Uani 1 1 d .
H3A H 0.924886 0.276302 0.075379 0.044 Uiso 1 1 calc R
C3B C 0.9534(10) 0.6946(10) 0.0762(10) 0.034(6) Uani 1 1 d .
H3B H 0.969767 0.722081 0.053922 0.040 Uiso 1 1 calc R
C3C C 0.8382(13) 0.3682(10) 0.2252(9) 0.041(7) Uani 1 1 d .
H3C H 0.854332 0.365224 0.257905 0.049 Uiso 1 1 calc R
C3D C 0.8016(10) 0.6498(10) -0.0089(10) 0.033(6) Uani 1 1 d .
H3D H 0.784771 0.687048 -0.011723 0.039 Uiso 1 1 calc R
C3E C 0.6752(14) 0.4511(13) 0.2623(11) 0.053(7) Uani 1 1 d .
H3E H 0.665979 0.421522 0.285506 0.063 Uiso 1 1 calc R
C3F C 0.7118(11) 0.4926(11) -0.0783(8) 0.034(5) Uani 1 1 d .
H3F H 0.727669 0.469068 -0.104089 0.041 Uiso 1 1 calc R
C3G C 0.5921(12) 0.6762(10) 0.2094(9) 0.035(6) Uani 1 1 d .
H3G H 0.605634 0.714762 0.209386 0.042 Uiso 1 1 calc R
C3H C 0.5312(10) 0.4438(10) -0.0558(8) 0.027(5) Uani 1 1 d .
H3H H 0.517963 0.452254 -0.088752 0.032 Uiso 1 1 calc R
C3I C 0.4061(11) 0.6810(10) 0.1846(9) 0.033(6) Uiso 1 1 d .
H3I H 0.394879 0.701507 0.213766 0.039 Uiso 1 1 calc R
C3J C 0.4816(11) 0.3074(10) 0.1798(11) 0.039(7) Uani 1 1 d .
H3J H 0.493157 0.285579 0.208204 0.047 Uiso 1 1 calc R
C3K C 0.3581(8) 0.5501(9) -0.0594(8) 0.018(5) Uani 1 1 d .
H3K H 0.371264 0.540692 -0.092137 0.022 Uiso 1 1 calc R
C3L C 0.2981(10) 0.3098(10) 0.1958(9) 0.029(5) Uiso 1 1 d .
H3L H 0.289133 0.270169 0.193138 0.035 Uiso 1 1 calc R
C3M C 0.1747(11) 0.5157(11) -0.0736(8) 0.036(6) Uani 1 1 d .
H3M H 0.158576 0.540230 -0.098554 0.043 Uiso 1 1 calc R
C3N C 0.2246(11) 0.5961(12) 0.2540(10) 0.040(6) Uiso 1 1 d .
H3N H 0.235600 0.630718 0.270224 0.048 Uiso 1 1 calc R
C3O C 0.1073(12) 0.3370(10) 0.0289(12) 0.046(7) Uani 1 1 d .
H3O H 0.122207 0.298972 0.030281 0.055 Uiso 1 1 calc R
C3P C 0.0273(10) 0.6534(9) 0.2179(9) 0.030(5) Uani 1 1 d .
H3P H 0.002773 0.661755 0.245883 0.036 Uiso 1 1 calc R
C4A C 0.9308(10) 0.3657(10) 0.0834(9) 0.030(5) Uiso 1 1 d .
C4B C 0.9684(11) 0.6340(10) 0.0697(10) 0.032(6) Uani 1 1 d .
C4C C 0.8386(10) 0.4214(10) 0.1982(9) 0.028(5) Uani 1 1 d .
C4D C 0.7946(10) 0.6133(9) 0.0367(8) 0.025(5) Uiso 1 1 d .
C4E C 0.6659(14) 0.4436(14) 0.2065(12) 0.054(8) Uiso 1 1 d .
C4F C 0.7136(10) 0.4745(10) -0.0254(8) 0.027(5) Uiso 1 1 d .
C4G C 0.5902(9) 0.6422(10) 0.1623(9) 0.029(6) Uani 1 1 d .
C4H C 0.5288(10) 0.4877(10) -0.0168(8) 0.027(5) Uiso 1 1 d .
C4I C 0.4068(10) 0.6212(9) 0.1841(8) 0.023(5) Uiso 1 1 d .
C4J C 0.4781(10) 0.3662(9) 0.1813(9) 0.027(5) Uani 1 1 d .
C4K C 0.3583(9) 0.5075(10) -0.0192(8) 0.027(5) Uiso 1 1 d .
C4L C 0.2991(9) 0.3465(9) 0.1517(8) 0.021(5) Uiso 1 1 d .
C4M C 0.1748(9) 0.5336(9) -0.0217(8) 0.021(4) Uiso 1 1 d .
C4N C 0.2316(11) 0.5892(11) 0.1990(10) 0.039(6) Uani 1 1 d .
C4O C 0.1132(10) 0.3749(10) 0.0714(8) 0.027(5) Uiso 1 1 d .
C4P C 0.0385(11) 0.5953(9) 0.2011(9) 0.030(5) Uani 1 1 d .
C5A C 0.9886(10) 0.3946(10) 0.1571(9) 0.028(5) Uiso 1 1 d .
C5B C 0.9014(10) 0.6150(10) 0.1417(9) 0.029(5) Uiso 1 1 d .
C5C C 0.7839(10) 0.3789(10) 0.1283(9) 0.028(5) Uani 1 1 d .
C5D C 0.8570(10) 0.5386(11) 0.0032(10) 0.036(6) Uani 1 1 d .
C5E C 0.7079(11) 0.5398(11) 0.1939(9) 0.032(5) Uiso 1 1 d .
C5F C 0.6616(8) 0.5584(8) -0.0002(7) 0.014(4) Uiso 1 1 d .
C5G C 0.5521(9) 0.5597(9) 0.2088(9) 0.025(5) Uani 1 1 d .
C5H C 0.5722(10) 0.4196(9) 0.0419(8) 0.023(5) Uiso 1 1 d .
C5I C 0.4430(8) 0.6152(8) 0.1028(9) 0.021(5) Uani 1 1 d .
C5J C 0.4457(10) 0.3743(10) 0.0980(10) 0.030(5) Uiso 1 1 d .
C5K C 0.3215(9) 0.5786(9) 0.0411(8) 0.020(4) Uiso 1 1 d .
C5L C 0.3272(10) 0.4276(10) 0.2004(9) 0.030(5) Uiso 1 1 d .
C5M C 0.2222(9) 0.4463(9) 0.0035(8) 0.023(5) Uani 1 1 d .
C5N C 0.1918(10) 0.4923(11) 0.2052(9) 0.034(5) Uiso 1 1 d .
C5O C 0.0587(10) 0.4482(10) 0.0241(9) 0.028(5) Uiso 1 1 d .
C5P C 0.0990(10) 0.6254(12) 0.1338(10) 0.039(7) Uani 1 1 d .
N1A N 0.9568(8) 0.4093(7) 0.1131(7) 0.026(5) Uani 1 1 d .
N1B N 0.9394(7) 0.5966(7) 0.1026(9) 0.031(5) Uani 1 1 d .
N1C N 0.8109(7) 0.4258(7) 0.1523(7) 0.022(4) Uani 1 1 d .
N1D N 0.8196(8) 0.5622(7) 0.0422(6) 0.021(4) Uiso 1 1 d .
N1E N 0.6832(8) 0.4860(8) 0.1750(8) 0.033(5) Uani 1 1 d .
N1F N 0.6870(7) 0.5082(7) 0.0119(6) 0.018(4) Uiso 1 1 d .
N1G N 0.5716(8) 0.5876(7) 0.1627(7) 0.025(4) Uani 1 1 d .
N1H N 0.5501(8) 0.4732(8) 0.0331(7) 0.026(4) Uiso 1 1 d .
N1I N 0.4251(7) 0.5883(7) 0.1465(8) 0.024(4) Uani 1 1 d .
N1J N 0.4590(8) 0.4001(7) 0.1422(7) 0.023(4) Uani 1 1 d .
N1K N 0.3395(7) 0.5244(7) 0.0292(6) 0.022(4) Uiso 1 1 d .
N1L N 0.3151(7) 0.4022(8) 0.1545(7) 0.024(4) Uani 1 1 d .
N1M N 0.1982(7) 0.4972(8) 0.0158(6) 0.022(4) Uani 1 1 d .
N1N N 0.2138(8) 0.5376(7) 0.1781(6) 0.020(4) Uiso 1 1 d .
N1O N 0.0862(9) 0.4290(8) 0.0672(9) 0.038(5) Uani 1 1 d .
N1P N 0.0734(8) 0.5809(8) 0.1614(7) 0.026(4) Uani 1 1 d .
N2A N 1.0002(8) 0.3371(8) 0.1664(7) 0.025(4) Uani 1 1 d .
N2B N 0.8915(8) 0.6731(7) 0.1460(8) 0.033(5) Uani 1 1 d .
N2C N 0.7850(10) 0.3258(9) 0.1543(9) 0.043(6) Uani 1 1 d .
N2D N 0.8618(10) 0.5745(10) -0.0419(8) 0.044(6) Uani 1 1 d .
N2E N 0.7140(11) 0.5462(10) 0.2475(7) 0.045(6) Uani 1 1 d .
N2F N 0.6618(8) 0.5788(8) -0.0512(7) 0.026(4) Uani 1 1 d .
N2G N 0.5562(8) 0.5930(8) 0.2538(7) 0.025(4) Uani 1 1 d .
N2H N 0.5725(9) 0.3772(7) 0.0015(8) 0.034(5) Uani 1 1 d .
N2I N 0.4395(8) 0.6768(8) 0.0985(8) 0.029(4) Uani 1 1 d .
N2J N 0.4524(8) 0.3143(7) 0.0932(8) 0.027(4) Uani 1 1 d .
N2K N 0.3222(9) 0.6207(8) 0.0008(8) 0.035(5) Uani 1 1 d .
N2L N 0.3243(9) 0.3928(8) 0.2445(7) 0.029(4) Uani 1 1 d .
N2M N 0.2215(8) 0.4277(8) -0.0485(7) 0.026(4) Uani 1 1 d .
N2N N 0.1850(9) 0.5016(11) 0.2585(8) 0.047(5) Uani 1 1 d .
N2O N 0.0566(10) 0.4099(10) -0.0164(8) 0.044(6) Uani 1 1 d .
N2P N 0.0909(8) 0.6823(7) 0.1491(7) 0.025(4) Uani 1 1 d .
N3A N 0.9015(9) 0.3814(9) 0.0420(8) 0.039(5) Uani 1 1 d .
H3AA H 0.898823 0.417837 0.033951 0.047 Uiso 1 1 calc R
H3AB H 0.884898 0.355309 0.022816 0.047 Uiso 1 1 calc R
N3B N 1.0041(8) 0.6167(9) 0.0340(8) 0.037(5) Uani 1 1 d .
H3BA H 1.010890 0.579971 0.029785 0.044 Uiso 1 1 calc R
H3BB H 1.021305 0.641912 0.014304 0.044 Uiso 1 1 calc R
N3C N 0.8643(9) 0.4674(8) 0.2189(8) 0.035(5) Uani 1 1 d .
H3CA H 0.863544 0.500462 0.203278 0.042 Uiso 1 1 calc R
H3CB H 0.881877 0.464494 0.248187 0.042 Uiso 1 1 calc R
N3D N 0.7633(9) 0.6345(8) 0.0754(9) 0.040(6) Uani 1 1 d .
H3DA H 0.759984 0.614576 0.103143 0.048 Uiso 1 1 calc R
H3DB H 0.746184 0.668225 0.072940 0.048 Uiso 1 1 calc R
N3E N 0.6447(9) 0.3989(10) 0.1852(8) 0.043(5) Uani 1 1 d .
H3EA H 0.642234 0.397409 0.152452 0.051 Uiso 1 1 calc R
H3EB H 0.632599 0.369761 0.203356 0.051 Uiso 1 1 calc R
N3F N 0.7373(9) 0.4244(9) -0.0137(8) 0.038(5) Uani 1 1 d .
H3FA H 0.736359 0.412228 0.017385 0.046 Uiso 1 1 calc R
H3FB H 0.754004 0.403289 -0.037012 0.046 Uiso 1 1 calc R
N3G N 0.6062(9) 0.6665(9) 0.1187(8) 0.038(5) Uani 1 1 d .
H3GA H 0.604367 0.646624 0.090828 0.046 Uiso 1 1 calc R
H3GB H 0.618475 0.702230 0.118092 0.046 Uiso 1 1 calc R
N3H N 0.5093(7) 0.5398(8) -0.0243(7) 0.023(4) Uani 1 1 d .
H3HA H 0.496713 0.550119 -0.054043 0.027 Uiso 1 1 calc R
H3HB H 0.508827 0.564591 0.000510 0.027 Uiso 1 1 calc R
N3I N 0.3902(8) 0.5892(8) 0.2281(7) 0.026(4) Uani 1 1 d .
H3IA H 0.392727 0.551635 0.228114 0.031 Uiso 1 1 calc R
H3IB H 0.377514 0.607282 0.254892 0.031 Uiso 1 1 calc R
N3J N 0.4904(9) 0.3951(9) 0.2264(8) 0.038(5) Uani 1 1 d .
H3JA H 0.500226 0.375605 0.253292 0.046 Uiso 1 1 calc R
H3JB H 0.488300 0.432675 0.227649 0.046 Uiso 1 1 calc R
N3K N 0.3770(8) 0.4553(8) -0.0279(7) 0.028(4) Uani 1 1 d .
H3KA H 0.377925 0.430136 -0.003466 0.034 Uiso 1 1 calc R
H3KB H 0.388495 0.445469 -0.058067 0.034 Uiso 1 1 calc R
N3L N 0.2884(8) 0.3239(8) 0.1052(7) 0.030(4) Uani 1 1 d .
H3LA H 0.292058 0.345452 0.078425 0.036 Uiso 1 1 calc R
H3LB H 0.277902 0.287752 0.102122 0.036 Uiso 1 1 calc R
N3M N 0.1534(8) 0.5867(8) -0.0076(7) 0.031(5) Uani 1 1 d .
H3MA H 0.154566 0.597165 0.023939 0.037 Uiso 1 1 calc R
H3MB H 0.138643 0.610066 -0.030225 0.037 Uiso 1 1 calc R
N3N N 0.2512(9) 0.6321(8) 0.1736(7) 0.033(5) Uani 1 1 d .
H3NA H 0.254015 0.629657 0.140870 0.040 Uiso 1 1 calc R
H3NB H 0.261882 0.663712 0.188952 0.040 Uiso 1 1 calc R
N3O N 0.1402(9) 0.3594(8) 0.1152(7) 0.033(5) Uani 1 1 d .
H3OA H 0.140561 0.383340 0.140638 0.039 Uiso 1 1 calc R
H3OB H 0.157087 0.325647 0.118031 0.039 Uiso 1 1 calc R
N3P N 0.0110(9) 0.5500(8) 0.2272(7) 0.036(5) Uani 1 1 d .
H3PA H 0.016809 0.514405 0.217688 0.043 Uiso 1 1 calc R
H3PB H -0.011912 0.557359 0.253086 0.043 Uiso 1 1 calc R
O1 O 0.9669(8) 0.1549(8) 0.1535(9) 0.056(5) Uani 1 1 d .
O1A O 1.0111(7) 0.4328(6) 0.1829(6) 0.028(4) Uani 1 1 d .
O1B O 0.8755(7) 0.5787(7) 0.1690(6) 0.034(4) Uani 1 1 d .
O1C O 0.7566(7) 0.3834(7) 0.0883(7) 0.035(4) Uani 1 1 d .
O1D O 0.8856(8) 0.4944(8) 0.0056(6) 0.045(4) Uani 1 1 d .
O1E O 0.7272(7) 0.5792(8) 0.1666(6) 0.040(4) Uani 1 1 d .
O1F O 0.6363(7) 0.5911(7) 0.0333(6) 0.033(4) Uani 1 1 d .
O1G O 0.5353(7) 0.5094(6) 0.2099(6) 0.030(3) Uani 1 1 d .
O1H O 0.5929(7) 0.4053(6) 0.0837(6) 0.032(4) Uani 1 1 d .
O1I O 0.4611(7) 0.5882(7) 0.0628(6) 0.034(4) Uani 1 1 d .
O1J O 0.4265(7) 0.4019(7) 0.0610(6) 0.032(4) Uani 1 1 d .
O1K O 0.3024(7) 0.5924(7) 0.0807(6) 0.030(4) Uani 1 1 d .
O1L O 0.3423(8) 0.4802(6) 0.2052(6) 0.037(4) Uani 1 1 d .
O1M O 0.2432(7) 0.4113(6) 0.0345(6) 0.025(3) Uani 1 1 d .
O1N O 0.1744(8) 0.4466(7) 0.1869(6) 0.038(4) Uani 1 1 d .
O1O O 0.0347(8) 0.4966(7) 0.0220(5) 0.036(4) Uani 1 1 d .
O1P O 0.1329(6) 0.6163(6) 0.0979(6) 0.027(3) Uani 1 1 d .
O2 O 0.8972(9) 0.0799(6) 0.1335(7) 0.044(4) Uani 1 1 d .
O3 O 0.8604(8) 0.1709(8) 0.1625(8) 0.050(5) Uani 1 1 d .
O4 O 0.9050(10) 0.1635(7) 0.0808(6) 0.051(5) Uani 1 1 d .
O5 O 0.6319(18) 0.1197(19) 0.1549(17) 0.157(15) Uiso 1 1 d .
O6 O 0.6519(16) 0.1986(15) 0.1968(14) 0.126(11) Uiso 1 1 d .
O7 O 0.6129(10) 0.2177(8) 0.1137(6) 0.056(5) Uani 1 1 d .
O8 O 0.5510(7) 0.1777(7) 0.1778(7) 0.038(4) Uani 1 1 d .
O9 O 0.4162(8) 0.1490(7) 0.0940(7) 0.044(4) Uani 1 1 d .
O10 O 0.3274(8) 0.0974(7) 0.1101(7) 0.050(5) Uani 1 1 d .
O11 O 0.3276(9) 0.1714(8) 0.0484(7) 0.053(5) Uani 1 1 d .
O12 O 0.3367(11) 0.1959(8) 0.1349(8) 0.061(6) Uani 1 1 d .
O13 O 0.1677(12) 0.1400(9) 0.1318(13) 0.099(10) Uani 1 1 d .
O14 O 0.1873(9) 0.2298(9) 0.1000(10) 0.078(7) Uani 1 1 d .
O15 O 0.1802(15) 0.2224(17) 0.1858(11) 0.137(14) Uani 1 1 d .
O16 O 0.0935(8) 0.2127(8) 0.1310(8) 0.055(5) Uani 1 1 d .
O17 O 1.0257(8) 0.8414(8) 0.1643(7) 0.045(5) Uani 1 1 d .
O18 O 0.9794(8) 0.9266(6) 0.1334(6) 0.034(4) Uani 1 1 d .
O19 O 0.9767(7) 0.8400(7) 0.0833(6) 0.033(4) Uani 1 1 d .
O20 O 0.9185(9) 0.8481(8) 0.1604(8) 0.051(5) Uani 1 1 d .
O21 O 0.7121(8) 0.8443(6) 0.0970(7) 0.044(4) Uani 1 1 d .
O22 O 0.6954(9) 0.7636(8) 0.1519(7) 0.049(5) Uani 1 1 d .
O23 O 0.7880(7) 0.7735(6) 0.1052(6) 0.032(4) Uani 1 1 d .
O24 O 0.6962(7) 0.7495(7) 0.0624(6) 0.038(4) Uani 1 1 d .
O25 O 0.3298(9) 0.8257(10) 0.1659(7) 0.058(5) Uani 1 1 d .
O26 O 0.2254(9) 0.8377(8) 0.1616(7) 0.053(5) Uani 1 1 d .
O27 O 0.2634(10) 0.7563(8) 0.2054(6) 0.053(5) Uani 1 1 d .
O28 O 0.2730(9) 0.7612(7) 0.1151(6) 0.046(5) Uani 1 1 d .
Cl1 Cl 0.9069(3) 0.1428(2) 0.1337(2) 0.0307(13) Uani 1 1 d .
Cl2 Cl 0.6101(3) 0.1868(4) 0.1629(2) 0.057(2) Uani 1 1 d .
Cl3 Cl 0.3530(3) 0.1523(2) 0.0983(3) 0.0353(13) Uani 1 1 d .
Cl4 Cl 0.1563(3) 0.2003(2) 0.1377(3) 0.0414(15) Uani 1 1 d .
Cl5 Cl 0.9746(3) 0.8629(2) 0.1356(2) 0.0291(12) Uani 1 1 d .
Cl6 Cl 0.7230(3) 0.7843(2) 0.1039(2) 0.0308(13) Uani 1 1 d .
Cl7 Cl 0.2726(3) 0.7960(2) 0.1626(2) 0.0322(13) Uani 1 1 d .
loop_
_atom_site_aniso_label
_atom_site_aniso_U_11
_atom_site_aniso_U_22
_atom_site_aniso_U_33
_atom_site_aniso_U_23
_atom_site_aniso_U_13
_atom_site_aniso_U_12
Ag1 0.0163(7) 0.0120(7) 0.0509(10) -0.0025(8) -0.0031(7) 0.0002(6)
Ag2 0.0171(8) 0.0243(9) 0.0516(11) 0.0161(9) -0.0074(7) -0.0033(7)
Ag3 0.0126(7) 0.0427(10) 0.0228(8) -0.0015(7) -0.0009(6) 0.0040(7)
Ag4 0.0153(8) 0.0144(7) 0.0292(9) -0.0061(7) 0.0009(7) 0.0000(6)
Ag5 0.0167(7) 0.0120(7) 0.0319(9) 0.0025(7) 0.0000(6) 0.0021(6)
Ag6 0.0165(8) 0.0132(7) 0.0282(8) 0.0073(7) 0.0014(7) -0.0002(6)
Ag7 0.0143(7) 0.0210(8) 0.0242(8) -0.0004(6) 0.0006(7) 0.0007(6)
Ag8 0.0141(7) 0.0180(8) 0.0447(9) -0.0092(8) 0.0036(7) 0.0004(7)
C1B 0.048(16) 0.030(14) 0.049(16) -0.012(12) -0.008(13) 0.014(12)
C1C 0.08(2) 0.024(14) 0.08(2) 0.009(14) -0.037(19) -0.034(14)
C1D 0.07(2) 0.058(18) 0.038(16) 0.010(13) 0.002(14) 0.009(15)
C1E 0.052(18) 0.07(2) 0.042(17) -0.006(15) 0.003(14) -0.019(16)
C1F 0.046(16) 0.034(14) 0.038(15) 0.007(11) 0.003(12) 0.013(12)
C1H 0.056(18) 0.028(14) 0.07(2) -0.033(14) 0.007(15) 0.005(13)
C1I 0.038(14) 0.022(12) 0.038(14) 0.007(10) 0.014(12) -0.002(10)
C1J 0.034(14) 0.040(15) 0.038(15) 0.006(11) -0.006(11) -0.005(11)
C1K 0.053(17) 0.029(14) 0.043(15) 0.008(11) -0.004(13) 0.011(12)
C1O 0.033(15) 0.08(2) 0.050(18) 0.006(15) -0.001(13) 0.005(14)
C2B 0.027(13) 0.024(12) 0.056(17) -0.002(11) -0.007(12) -0.001(11)
C2C 0.07(2) 0.044(17) 0.057(18) 0.015(14) -0.043(16) -0.036(15)
C2D 0.027(13) 0.045(16) 0.047(16) 0.004(12) -0.007(12) 0.024(12)
C2E 0.058(19) 0.07(2) 0.07(2) -0.017(19) -0.005(15) -0.011(18)
C2F 0.042(14) 0.043(15) 0.036(14) -0.004(12) 0.012(12) 0.014(11)
C2G 0.026(13) 0.062(19) 0.043(16) -0.018(14) -0.012(12) -0.006(13)
C2H 0.021(13) 0.041(16) 0.062(19) -0.025(14) -0.009(12) 0.004(11)
C2I 0.043(15) 0.019(12) 0.047(15) 0.003(11) 0.022(13) -0.005(11)
C2J 0.060(17) 0.008(11) 0.045(16) 0.008(11) -0.005(13) 0.005(11)
C2K 0.015(11) 0.040(14) 0.031(13) 0.021(11) 0.001(9) 0.007(10)
C2L 0.043(15) 0.022(13) 0.038(14) 0.013(10) 0.009(12) 0.010(10)
C2M 0.019(11) 0.044(14) 0.028(13) -0.002(11) -0.002(9) 0.012(10)
C2N 0.028(14) 0.08(2) 0.040(15) -0.022(15) 0.003(12) -0.031(14)
C2P 0.040(14) 0.010(11) 0.041(14) 0.005(10) 0.015(11) -0.007(10)
C3A 0.034(13) 0.008(10) 0.068(18) -0.007(12) 0.021(14) 0.000(9)
C3B 0.026(13) 0.029(13) 0.046(15) 0.012(11) -0.003(11) 0.003(10)
C3C 0.068(19) 0.027(13) 0.029(14) 0.018(11) 0.012(13) 0.011(12)
C3D 0.026(12) 0.025(13) 0.048(15) 0.018(11) -0.013(11) -0.003(10)
C3E 0.06(2) 0.052(18) 0.043(16) 0.005(14) 0.001(15) -0.001(16)
C3F 0.045(14) 0.035(14) 0.022(11) 0.000(10) 0.018(10) 0.007(12)
C3G 0.052(16) 0.026(13) 0.026(13) -0.017(10) -0.005(12) -0.005(11)
C3H 0.025(12) 0.032(14) 0.023(12) -0.011(10) 0.005(10) -0.004(10)
C3J 0.035(14) 0.023(14) 0.059(18) 0.028(13) -0.015(12) 0.000(11)
C3K 0.010(10) 0.022(11) 0.023(11) 0.018(9) 0.010(8) 0.009(8)
C3M 0.042(14) 0.059(17) 0.007(10) 0.009(10) 0.003(9) 0.004(13)
C3O 0.042(15) 0.008(11) 0.09(2) -0.016(12) 0.017(15) -0.003(10)
C3P 0.027(12) 0.020(12) 0.042(15) -0.013(10) -0.002(11) 0.000(10)
C4B 0.028(13) 0.019(12) 0.050(16) 0.006(11) -0.007(12) -0.009(10)
C4C 0.031(13) 0.025(12) 0.029(13) 0.008(10) -0.012(10) -0.003(10)
C4G 0.009(10) 0.033(14) 0.046(15) -0.013(11) 0.005(10) 0.002(9)
C4J 0.027(12) 0.018(12) 0.037(14) -0.005(10) -0.011(10) -0.007(10)
C4N 0.037(15) 0.031(14) 0.047(16) 0.002(12) 0.004(12) -0.022(12)
C4P 0.040(14) 0.016(12) 0.035(14) -0.001(10) -0.010(12) 0.005(10)
C5C 0.023(12) 0.033(13) 0.027(13) 0.013(10) 0.007(11) -0.007(10)
C5D 0.019(12) 0.040(16) 0.050(16) -0.008(12) -0.010(11) -0.013(12)
C5G 0.010(10) 0.018(12) 0.048(15) 0.000(10) -0.006(10) -0.004(9)
C5I 0.005(10) 0.013(10) 0.044(14) 0.010(10) 0.007(10) 0.004(8)
C5M 0.011(10) 0.022(12) 0.034(13) 0.006(10) -0.007(9) -0.009(9)
C5P 0.008(11) 0.062(18) 0.046(16) 0.031(14) 0.004(11) 0.012(11)
N1A 0.019(10) 0.013(9) 0.047(13) 0.007(8) 0.005(8) 0.002(7)
N1B 0.011(9) 0.013(9) 0.070(15) -0.005(10) -0.009(10) 0.000(7)
N1C 0.016(9) 0.015(9) 0.035(11) 0.005(8) 0.002(8) -0.003(7)
N1E 0.018(9) 0.030(12) 0.051(12) -0.010(9) 0.008(9) -0.004(8)
N1G 0.016(9) 0.013(10) 0.047(12) 0.000(8) 0.009(9) 0.006(7)
N1I 0.007(8) 0.016(9) 0.048(12) 0.005(8) -0.003(8) -0.002(7)
N1J 0.029(10) 0.021(9) 0.018(10) 0.004(8) -0.001(8) 0.008(8)
N1L 0.010(8) 0.024(10) 0.037(11) -0.011(8) -0.003(8) 0.007(7)
N1M 0.017(8) 0.018(9) 0.033(10) -0.003(8) 0.001(7) -0.005(8)
N1O 0.028(11) 0.020(10) 0.065(15) -0.001(10) 0.008(10) -0.007(9)
N1P 0.021(9) 0.018(10) 0.039(12) -0.006(8) -0.003(9) -0.004(8)
N2A 0.023(10) 0.021(10) 0.032(11) 0.006(8) -0.002(8) -0.002(7)
N2B 0.021(10) 0.013(9) 0.067(14) 0.003(9) -0.001(10) 0.006(8)
N2C 0.038(12) 0.033(12) 0.059(15) 0.022(10) -0.001(11) -0.008(10)
N2D 0.045(13) 0.049(14) 0.039(13) 0.003(11) -0.005(10) 0.002(11)
N2E 0.060(14) 0.057(15) 0.018(10) 0.006(10) 0.009(10) 0.004(12)
N2F 0.030(10) 0.023(10) 0.025(10) 0.008(8) 0.007(8) 0.001(8)
N2G 0.020(10) 0.021(10) 0.032(11) -0.002(8) 0.007(8) -0.003(8)
N2H 0.037(11) 0.006(9) 0.058(14) -0.011(9) -0.011(11) 0.003(8)
N2I 0.019(9) 0.039(11) 0.028(10) -0.007(9) 0.010(9) 0.001(8)
N2J 0.037(11) 0.013(9) 0.032(11) -0.002(8) -0.011(10) -0.003(8)
N2K 0.045(12) 0.014(10) 0.047(13) 0.012(9) 0.006(10) 0.003(9)
N2L 0.034(11) 0.029(11) 0.024(10) 0.005(8) -0.006(9) -0.004(9)
N2M 0.023(10) 0.031(10) 0.025(10) 0.002(8) 0.006(8) 0.004(8)
N2N 0.042(12) 0.060(15) 0.038(11) 0.006(12) 0.000(9) -0.019(12)
N2O 0.044(13) 0.057(15) 0.030(12) -0.012(10) -0.004(10) -0.012(11)
N2P 0.026(10) 0.014(9) 0.037(11) 0.010(8) 0.011(9) 0.000(7)
N3A 0.038(13) 0.032(11) 0.047(13) -0.004(10) -0.012(10) -0.013(9)
N3B 0.022(11) 0.026(11) 0.062(15) 0.015(10) -0.002(10) 0.008(8)
N3C 0.047(12) 0.018(10) 0.040(12) 0.012(9) 0.001(10) -0.009(9)
N3D 0.033(11) 0.010(9) 0.077(16) 0.013(9) -0.024(11) -0.007(8)
N3E 0.037(12) 0.053(14) 0.038(13) 0.004(10) 0.002(10) -0.008(11)
N3F 0.042(12) 0.040(12) 0.033(12) 0.007(9) 0.006(9) 0.003(10)
N3G 0.047(13) 0.026(11) 0.042(12) -0.011(9) 0.010(10) -0.016(10)
N3H 0.007(8) 0.027(10) 0.034(10) -0.001(8) -0.002(7) -0.002(7)
N3I 0.029(10) 0.021(10) 0.027(10) -0.010(8) -0.002(8) -0.002(8)
N3J 0.030(12) 0.029(12) 0.056(14) 0.008(10) -0.010(10) 0.002(9)
N3K 0.025(10) 0.026(10) 0.033(10) 0.011(8) 0.010(8) 0.000(8)
N3L 0.031(10) 0.025(10) 0.035(11) -0.004(8) -0.005(9) -0.006(8)
N3M 0.028(11) 0.037(11) 0.027(10) 0.011(9) 0.005(8) 0.024(9)
N3N 0.037(12) 0.034(12) 0.030(11) -0.012(9) 0.011(9) -0.009(9)
N3O 0.045(12) 0.020(10) 0.033(11) 0.004(8) 0.001(9) 0.007(9)
N3P 0.052(13) 0.020(11) 0.035(11) -0.005(9) 0.019(10) -0.012(9)
O1 0.039(11) 0.043(11) 0.086(16) 0.001(10) -0.009(11) -0.011(9)
O1A 0.033(9) 0.019(8) 0.032(9) -0.005(7) -0.007(7) -0.005(7)
O1B 0.035(9) 0.022(8) 0.045(10) 0.011(7) 0.017(8) 0.010(7)
O1C 0.031(9) 0.031(9) 0.042(11) 0.007(8) -0.002(9) -0.012(7)
O1D 0.050(10) 0.036(10) 0.051(10) 0.011(8) 0.000(8) 0.026(10)
O1E 0.039(10) 0.052(11) 0.030(9) 0.006(8) -0.003(8) 0.006(8)
O1F 0.039(9) 0.027(9) 0.034(9) 0.005(7) 0.004(8) -0.004(7)
O1G 0.045(9) 0.015(9) 0.029(8) -0.010(6) 0.004(7) -0.009(7)
O1H 0.029(9) 0.020(8) 0.047(11) 0.005(7) 0.003(7) 0.005(7)
O1I 0.033(9) 0.035(9) 0.033(10) -0.003(8) 0.000(8) 0.010(7)
O1J 0.036(9) 0.027(9) 0.032(9) 0.012(7) 0.005(8) 0.016(7)
O1K 0.026(8) 0.028(9) 0.036(10) -0.004(7) 0.002(7) 0.002(7)
O1L 0.057(11) 0.007(7) 0.046(10) 0.011(7) -0.010(8) -0.006(7)
O1M 0.030(8) 0.010(7) 0.034(9) -0.005(6) -0.010(7) -0.001(6)
O1N 0.051(11) 0.025(9) 0.039(10) -0.005(7) -0.005(8) -0.008(8)
O1O 0.059(10) 0.031(9) 0.018(8) -0.001(7) 0.004(7) 0.025(9)
O1P 0.024(8) 0.024(8) 0.034(9) 0.001(7) -0.002(8) -0.002(6)
O2 0.070(12) 0.014(8) 0.048(11) -0.003(7) 0.015(9) -0.010(8)
O3 0.045(11) 0.036(10) 0.068(13) -0.006(9) 0.019(10) -0.008(8)
O4 0.097(16) 0.024(9) 0.033(10) 0.010(7) -0.013(10) -0.025(9)
O7 0.091(15) 0.051(12) 0.025(9) 0.014(8) -0.018(9) -0.008(11)
O8 0.025(9) 0.032(9) 0.056(12) 0.000(8) -0.006(8) 0.002(7)
O9 0.052(11) 0.042(10) 0.037(10) 0.005(8) -0.009(9) -0.004(8)
O10 0.053(12) 0.034(10) 0.062(13) -0.014(8) 0.005(9) -0.017(9)
O11 0.054(12) 0.056(12) 0.050(12) 0.006(9) -0.016(10) 0.001(10)
O12 0.101(17) 0.033(10) 0.051(12) -0.019(9) 0.007(12) 0.004(11)
O13 0.089(18) 0.023(11) 0.19(3) -0.011(14) -0.054(19) -0.008(11)
O14 0.057(13) 0.059(13) 0.12(2) 0.041(14) 0.043(14) 0.016(11)
O15 0.14(3) 0.21(4) 0.063(18) -0.06(2) -0.025(18) -0.07(3)
O16 0.045(12) 0.051(12) 0.070(14) -0.016(10) -0.002(10) -0.004(9)
O17 0.043(10) 0.053(12) 0.040(10) 0.008(9) 0.008(8) 0.032(9)
O18 0.049(10) 0.022(8) 0.031(9) -0.004(7) -0.007(8) -0.005(7)
O19 0.049(10) 0.030(9) 0.020(8) -0.007(7) 0.000(7) -0.005(7)
O20 0.050(11) 0.037(10) 0.066(13) -0.022(9) 0.020(10) 0.005(9)
O21 0.057(11) 0.021(8) 0.055(11) -0.004(8) -0.002(10) 0.014(8)
O22 0.067(13) 0.048(11) 0.033(10) -0.005(8) 0.014(9) -0.020(9)
O23 0.021(8) 0.029(8) 0.047(10) 0.012(7) 0.009(7) 0.000(7)
O24 0.041(10) 0.039(10) 0.034(9) -0.007(7) -0.013(8) -0.010(8)
O25 0.048(12) 0.092(16) 0.034(11) -0.004(10) -0.001(9) -0.017(11)
O26 0.060(13) 0.048(12) 0.051(12) -0.001(9) -0.001(10) 0.025(10)
O27 0.092(15) 0.038(10) 0.028(10) 0.004(8) 0.009(10) -0.004(10)
O28 0.077(14) 0.040(10) 0.021(9) -0.021(7) 0.000(8) -0.004(9)
Cl1 0.032(3) 0.020(3) 0.040(3) 0.002(2) -0.002(3) -0.002(2)
Cl2 0.044(4) 0.101(6) 0.025(3) 0.013(3) -0.004(3) 0.017(4)
Cl3 0.036(3) 0.028(3) 0.041(3) -0.006(3) -0.006(3) 0.004(2)
Cl4 0.046(4) 0.023(3) 0.055(4) 0.001(3) -0.009(3) -0.010(3)
Cl5 0.034(3) 0.022(3) 0.031(3) 0.000(2) -0.002(2) 0.002(2)
Cl6 0.034(3) 0.020(3) 0.038(3) 0.003(2) 0.004(3) -0.001(2)
Cl7 0.040(3) 0.020(3) 0.037(3) -0.004(2) 0.002(3) 0.001(2)
loop_
_atom_type_symbol
_atom_type_description
_atom_type_scat_dispersion_real
_atom_type_scat_dispersion_imag
_atom_type_scat_source
C C 0.0033 0.0016 'International Tables Vol C Tables 4.2.6.8 and 6.1.1.4'
H H 0.0000 0.0000 'International Tables Vol C Tables 4.2.6.8 and 6.1.1.4'
N N 0.0061 0.0033 'International Tables Vol C Tables 4.2.6.8 and 6.1.1.4'
O O 0.0106 0.0060 'International Tables Vol C Tables 4.2.6.8 and 6.1.1.4'
Ag Ag -0.8971 1.1015 'International Tables Vol C Tables 4.2.6.8 and 6.1.1.4'
Cl Cl 0.1484 0.1585 'International Tables Vol C Tables 4.2.6.8 and 6.1.1.4'
loop_
_geom_angle_atom_site_label_1
_geom_angle_atom_site_label_2
_geom_angle_atom_site_label_3
_geom_angle
_geom_angle_site_symmetry_3
Ag2 Ag1 Ag8 165.72(9) 1_655
N1A Ag1 Ag2 93.5(5) .
N1A Ag1 Ag8 82.2(5) 1_655
N1A Ag1 N1B 169.2(8) .
N1B Ag1 Ag2 84.4(4) .
N1B Ag1 Ag8 97.4(4) 1_655
Ag3 Ag2 Ag1 171.32(9) .
N1C Ag2 Ag1 93.5(4) .
N1C Ag2 Ag3 86.8(4) .
N1D Ag2 Ag1 85.5(5) .
N1D Ag2 Ag3 92.3(5) .
N1D Ag2 N1C 167.7(7) .
Ag4 Ag3 Ag2 154.37(8) .
N1E Ag3 Ag2 84.7(5) .
N1E Ag3 Ag4 88.6(5) .
N1E Ag3 N1F 170.0(7) .
N1F Ag3 Ag2 92.1(4) .
N1F Ag3 Ag4 90.3(4) .
Ag3 Ag4 Ag5 138.00(7) .
N1G Ag4 Ag3 95.8(4) .
N1G Ag4 Ag5 87.8(4) .
N1H Ag4 Ag3 81.5(5) .
N1H Ag4 Ag5 93.9(5) .
N1H Ag4 N1G 177.2(7) .
Ag6 Ag5 Ag4 129.31(7) .
N1I Ag5 Ag4 83.9(4) .
N1I Ag5 Ag6 96.3(4) .
N1I Ag5 N1J 177.3(7) .
N1J Ag5 Ag4 97.4(5) .
N1J Ag5 Ag6 84.7(5) .
Ag5 Ag6 Ag7 130.54(7) .
N1K Ag6 Ag5 95.1(4) .
N1K Ag6 Ag7 81.2(4) .
N1L Ag6 Ag5 86.1(4) .
N1L Ag6 Ag7 98.3(4) .
N1L Ag6 N1K 178.7(6) .
Ag8 Ag7 Ag6 141.17(7) .
N1M Ag7 Ag6 87.5(4) .
N1M Ag7 Ag8 96.1(4) .
N1M Ag7 N1N 175.1(6) .
N1N Ag7 Ag6 93.8(4) .
N1N Ag7 Ag8 79.9(4) .
Ag7 Ag8 Ag1 149.77(8) 1_455
N1O Ag8 Ag1 84.4(5) 1_455
N1O Ag8 Ag7 85.5(5) .
N1P Ag8 Ag1 88.2(5) 1_455
N1P Ag8 Ag7 93.0(5) .
N1P Ag8 N1O 162.2(8) .
C3A C2A N2A 124(2) .
C3B C2B N2B 121(2) .
N2C C2C C3C 120(2) .
C3D C2D N2D 124(3) .
C3E C2E N2E 128(3) .
C3F C2F N2F 122(2) .
C3G C2G N2G 122(2) .
N2H C2H C3H 122(2) .
C3I C2I N2I 119(2) .
C3J C2J N2J 121(2) .
C3K C2K N2K 122.5(19) .
C3L C2L N2L 120(2) .
C3M C2M N2M 119(2) .
C3N C2N N2N 123(3) .
C3O C2O N2O 124(2) .
C3P C2P N2P 121(2) .
C2A C3A C4A 117(2) .
C2B C3B C4B 121(2) .
C4C C3C C2C 117(2) .
C2D C3D C4D 114(2) .
C2E C3E C4E 116(3) .
C2F C3F C4F 118(2) .
C2G C3G C4G 118(2) .
C2H C3H C4H 119(2) .
C2I C3I C4I 118(2) .
C4J C3J C2J 116(2) .
C2K C3K C4K 117.5(19) .
C2L C3L C4L 118(2) .
C2M C3M C4M 120(2) .
C2N C3N C4N 118(2) .
C2O C3O C4O 119(2) .
C2P C3P C4P 115(2) .
N1A C4A C3A 120(2) .
N3A C4A C3A 122(2) .
N3A C4A N1A 118(2) .
N1B C4B C3B 115(2) .
N3B C4B C3B 122(2) .
N3B C4B N1B 123(2) .
N1C C4C C3C 121(2) .
N3C C4C C3C 119(2) .
N3C C4C N1C 120.1(19) .
N1D C4D C3D 124(2) .
N1D C4D N3D 118(2) .
N3D C4D C3D 118(2) .
N1E C4E C3E 119(3) .
N3E C4E C3E 126(3) .
N3E C4E N1E 115(3) .
N1F C4F C3F 121(2) .
N3F C4F C3F 119(2) .
N3F C4F N1F 120(2) .
N1G C4G C3G 121(2) .
N3G C4G C3G 120(2) .
N3G C4G N1G 119(2) .
C3H C4H N1H 119(2) .
N3H C4H C3H 124(2) .
N3H C4H N1H 117.8(19) .
C3I C4I N3I 121(2) .
N1I C4I C3I 126(2) .
N1I C4I N3I 113.4(18) .
C3J C4J N1J 125(2) .
C3J C4J N3J 120(2) .
N1J C4J N3J 115.7(19) .
N1K C4K C3K 118.7(19) .
N3K C4K C3K 120.3(19) .
N3K C4K N1K 121(2) .
N1L C4L C3L 122(2) .
N1L C4L N3L 117.9(19) .
N3L C4L C3L 120.3(19) .
N1M C4M C3M 120.3(19) .
N3M C4M C3M 121(2) .
N3M C4M N1M 118.4(18) .
N1N C4N C3N 118(2) .
N3N C4N C3N 118(2) .
N3N C4N N1N 124(2) .
N1O C4O C3O 117(2) .
N3O C4O C3O 124(2) .
N3O C4O N1O 120(2) .
N1P C4P C3P 125(2) .
N1P C4P N3P 117.0(19) .
N3P C4P C3P 118(2) .
N2A C5A N1A 118(2) .
O1A C5A N1A 120(2) .
O1A C5A N2A 121(2) .
N2B C5B N1B 117(2) .
O1B C5B N1B 120(2) .
O1B C5B N2B 122(2) .
N1C C5C N2C 117(2) .
O1C C5C N1C 123(2) .
O1C C5C N2C 120(2) .
N1D C5D N2D 115(2) .
O1D C5D N1D 126(2) .
O1D C5D N2D 119(2) .
N2E C5E N1E 118(2) .
O1E C5E N1E 124(2) .
O1E C5E N2E 118(2) .
N1F C5F N2F 120.9(17) .
O1F C5F N1F 122.0(17) .
O1F C5F N2F 117.1(17) .
N2G C5G N1G 116.5(17) .
O1G C5G N1G 122(2) .
O1G C5G N2G 121(2) .
N1H C5H N2H 119.5(19) .
O1H C5H N1H 122(2) .
O1H C5H N2H 118.4(19) .
N1I C5I N2I 120.1(19) .
O1I C5I N1I 124.2(18) .
O1I C5I N2I 115.7(19) .
N1J C5J N2J 119(2) .
O1J C5J N1J 122(2) .
O1J C5J N2J 118(2) .
N1K C5K N2K 116.7(18) .
O1K C5K N1K 124.5(19) .
O1K C5K N2K 118.7(19) .
N1L C5L N2L 118(2) .
O1L C5L N1L 123(2) .
O1L C5L N2L 118(2) .
N1M C5M N2M 119.6(18) .
O1M C5M N1M 124(2) .
O1M C5M N2M 116.1(19) .
N1N C5N N2N 116(2) .
O1N C5N N1N 125(2) .
O1N C5N N2N 119(2) .
N1O C5O N2O 117(2) .
O1O C5O N1O 121(2) .
O1O C5O N2O 122(2) .
N2P C5P N1P 120(2) .
O1P C5P N1P 122(2) .
O1P C5P N2P 118(2) .
C4A N1A Ag1 126.1(15) .
C4A N1A C5A 120.1(18) .
C5A N1A Ag1 113.8(14) .
C4B N1B Ag1 123.6(16) .
C4B N1B C5B 123.7(19) .
C5B N1B Ag1 112.6(15) .
C4C N1C Ag2 125.0(14) .
C4C N1C C5C 122.8(18) .
C5C N1C Ag2 111.6(14) .
C4D N1D Ag2 130.7(15) .
C4D N1D C5D 120.5(19) .
C5D N1D Ag2 108.8(14) .
C4E N1E Ag3 130.2(18) .
C4E N1E C5E 121(2) .
C5E N1E Ag3 108.6(14) .
C4F N1F Ag3 126.8(14) .
C5F N1F Ag3 113.3(12) .
C5F N1F C4F 119.9(17) .
C4G N1G Ag4 127.0(16) .
C4G N1G C5G 122(2) .
C5G N1G Ag4 111.2(13) .
C4H N1H Ag4 127.0(14) .
C5H N1H Ag4 113.4(14) .
C5H N1H C4H 119.3(19) .
C4I N1I Ag5 131.2(15) .
C4I N1I C5I 117.7(17) .
C5I N1I Ag5 110.7(14) .
C4J N1J Ag5 128.1(14) .
C5J N1J Ag5 113.5(14) .
C5J N1J C4J 118.3(18) .
C4K N1K Ag6 123.6(14) .
C5K N1K Ag6 112.3(13) .
C5K N1K C4K 123.8(18) .
C4L N1L Ag6 128.1(15) .
C4L N1L C5L 120.8(19) .
C5L N1L Ag6 111.0(14) .
C4M N1M Ag7 125.1(13) .
C5M N1M Ag7 114.2(14) .
C5M N1M C4M 120.4(17) .
C4N N1N Ag7 124.5(15) .
C5N N1N Ag7 111.2(14) .
C5N N1N C4N 124.1(19) .
C4O N1O Ag8 127.2(17) .
C5O N1O Ag8 109.4(15) .
C5O N1O C4O 123(2) .
C4P N1P Ag8 128.7(15) .
C4P N1P C5P 118(2) .
C5P N1P Ag8 112.6(16) .
C2A N2A C1A 122(2) .
C2A N2A C5A 120(2) .
C5A N2A C1A 117.8(19) .
C2B N2B C1B 124.2(19) .
C5B N2B C1B 114(2) .
C5B N2B C2B 122(2) .
C2C N2C C1C 120(2) .
C2C N2C C5C 123(2) .
C5C N2C C1C 117(2) .
C2D N2D C1D 123(2) .
C2D N2D C5D 122(2) .
C5D N2D C1D 114(2) .
C1E N2E C5E 119(2) .
C2E N2E C1E 123(2) .
C2E N2E C5E 118(2) .
C2F N2F C1F 122(2) .
C2F N2F C5F 118.7(18) .
C5F N2F C1F 119.4(18) .
C2G N2G C1G 123(2) .
C2G N2G C5G 121(2) .
C5G N2G C1G 115.6(18) .
C2H N2H C1H 122(2) .
C2H N2H C5H 121.6(19) .
C5H N2H C1H 116(2) .
C2I N2I C1I 121.4(18) .
C2I N2I C5I 119.0(19) .
C5I N2I C1I 119.4(18) .
C2J N2J C1J 121.2(18) .
C2J N2J C5J 120(2) .
C5J N2J C1J 118.3(19) .
C2K N2K C1K 123.7(19) .
C2K N2K C5K 120.5(18) .
C5K N2K C1K 115.5(19) .
C2L N2L C1L 121.4(19) .
C2L N2L C5L 120.7(19) .
C5L N2L C1L 117.8(19) .
C2M N2M C1M 119.5(18) .
C2M N2M C5M 120.4(18) .
C5M N2M C1M 120.1(18) .
C2N N2N C1N 122(2) .
C2N N2N C5N 121(2) .
C5N N2N C1N 116(2) .
C2O N2O C1O 125(2) .
C2O N2O C5O 120(2) .
C5O N2O C1O 115(2) .
C2P N2P C1P 120.3(18) .
C2P N2P C5P 121.0(18) .
C5P N2P C1P 118.5(19) .
O1 Cl1 O2 108.9(11) .
O1 Cl1 O4 107.7(12) .
O2 Cl1 O4 108.2(10) .
O3 Cl1 O1 112.3(12) .
O3 Cl1 O2 110.1(11) .
O3 Cl1 O4 109.6(12) .
O6 Cl2 O5 94(2) .
O6 Cl2 O7 117.8(19) .
O6 Cl2 O8 120.2(18) .
O7 Cl2 O5 109.2(18) .
O8 Cl2 O5 100.0(17) .
O8 Cl2 O7 111.2(12) .
O9 Cl3 O10 111.4(11) .
O9 Cl3 O11 108.6(12) .
O9 Cl3 O12 109.9(13) .
O10 Cl3 O11 107.7(12) .
O10 Cl3 O12 112.0(12) .
O12 Cl3 O11 107.0(12) .
O13 Cl4 O15 112(2) .
O13 Cl4 O16 110.8(13) .
O14 Cl4 O13 108.2(17) .
O14 Cl4 O15 105.8(18) .
O14 Cl4 O16 107.1(13) .
O16 Cl4 O15 112.8(18) .
O17 Cl5 O18 107.7(11) .
O17 Cl5 O19 110.1(10) .
O18 Cl5 O19 108.5(9) .
O20 Cl5 O17 110.6(12) .
O20 Cl5 O18 108.4(10) .
O20 Cl5 O19 111.5(11) .
O21 Cl6 O22 110.6(11) .
O21 Cl6 O23 109.7(10) .
O21 Cl6 O24 111.3(11) .
O23 Cl6 O22 109.4(11) .
O23 Cl6 O24 108.7(10) .
O24 Cl6 O22 107.0(10) .
O25 Cl7 O27 111.8(12) .
O25 Cl7 O28 107.5(12) .
O26 Cl7 O25 109.1(13) .
O26 Cl7 O27 109.6(12) .
O26 Cl7 O28 110.6(12) .
O27 Cl7 O28 108.3(10) .
loop_
_geom_bond_atom_site_label_1
_geom_bond_atom_site_label_2
_geom_bond_distance
_geom_bond_site_symmetry_2
Ag1 Ag2 2.969(2) .
Ag1 Ag8 3.003(2) 1_655
Ag1 N1A 2.148(16) .
Ag1 N1B 2.178(16) .
Ag2 Ag3 2.908(2) .
Ag2 N1C 2.143(17) .
Ag2 N1D 2.131(17) .
Ag3 Ag4 2.899(2) .
Ag3 N1E 2.15(2) .
Ag3 N1F 2.166(15) .
Ag4 Ag5 2.940(2) .
Ag4 N1G 2.178(19) .
Ag4 N1H 2.132(18) .
Ag5 Ag6 2.911(2) .
Ag5 N1I 2.177(16) .
Ag5 N1J 2.189(17) .
Ag6 Ag7 2.923(2) .
Ag6 N1K 2.170(17) .
Ag6 N1L 2.169(19) .
Ag7 Ag8 2.904(2) .
Ag7 N1M 2.180(17) .
Ag7 N1N 2.186(16) .
Ag8 N1O 2.18(2) .
Ag8 N1P 2.142(17) .
C1A N2A 1.49(3) .
C1B N2B 1.47(3) .
C1C N2C 1.50(3) .
C1D N2D 1.53(3) .
C1E N2E 1.40(4) .
C1F N2F 1.46(3) .
C1G N2G 1.49(3) .
C1H N2H 1.50(3) .
C1I N2I 1.48(3) .
C1J N2J 1.49(3) .
C1K N2K 1.48(3) .
C1L N2L 1.51(3) .
C1M N2M 1.46(3) .
C1N N2N 1.55(4) .
C1O N2O 1.46(3) .
C1P N2P 1.46(3) .
C2A C3A 1.33(4) .
C2A N2A 1.36(3) .
C2B C3B 1.31(3) .
C2B N2B 1.36(3) .
C2C C3C 1.42(4) .
C2C N2C 1.34(3) .
C2D C3D 1.32(3) .
C2D N2D 1.32(3) .
C2E C3E 1.30(4) .
C2E N2E 1.34(4) .
C2F C3F 1.32(3) .
C2F N2F 1.38(3) .
C2G C3G 1.33(4) .
C2G N2G 1.37(3) .
C2H C3H 1.35(3) .
C2H N2H 1.30(3) .
C2I C3I 1.35(3) .
C2I N2I 1.40(3) .
C2J C3J 1.36(4) .
C2J N2J 1.36(3) .
C2K C3K 1.35(3) .
C2K N2K 1.37(3) .
C2L C3L 1.34(3) .
C2L N2L 1.37(3) .
C2M C3M 1.32(3) .
C2M N2M 1.40(3) .
C2N C3N 1.33(4) .
C2N N2N 1.32(3) .
C2O C3O 1.29(4) .
C2O N2O 1.34(3) .
C2P C3P 1.35(3) .
C2P N2P 1.37(3) .
C3A C4A 1.41(3) .
C3B C4B 1.43(3) .
C3C C4C 1.40(3) .
C3D C4D 1.47(3) .
C3E C4E 1.48(4) .
C3F C4F 1.45(3) .
C3G C4G 1.46(3) .
C3H C4H 1.43(3) .
C3I C4I 1.37(3) .
C3J C4J 1.35(3) .
C3K C4K 1.43(3) .
C3L C4L 1.43(3) .
C3M C4M 1.42(3) .
C3N C4N 1.46(4) .
C3O C4O 1.41(3) .
C3P C4P 1.42(3) .
C4A N1A 1.39(3) .
C4A N3A 1.31(3) .
C4B N1B 1.37(3) .
C4B N3B 1.28(3) .
C4C N1C 1.35(3) .
C4C N3C 1.31(3) .
C4D N1D 1.30(3) .
C4D N3D 1.32(3) .
C4E N1E 1.33(4) .
C4E N3E 1.25(4) .
C4F N1F 1.37(3) .
C4F N3F 1.29(3) .
C4G N1G 1.31(3) .
C4G N3G 1.32(3) .
C4H N1H 1.43(3) .
C4H N3H 1.28(3) .
C4I N1I 1.30(3) .
C4I N3I 1.41(3) .
C4J N1J 1.35(3) .
C4J N3J 1.38(3) .
C4K N1K 1.39(3) .
C4K N3K 1.28(3) .
C4L N1L 1.32(3) .
C4L N3L 1.34(3) .
C4M N1M 1.39(3) .
C4M N3M 1.35(3) .
C4N N1N 1.36(3) .
C4N N3N 1.26(3) .
C4O N1O 1.38(3) .
C4O N3O 1.34(3) .
C4P N1P 1.33(3) .
C4P N3P 1.38(3) .
C5A N1A 1.39(3) .
C5A N2A 1.36(3) .
C5A O1A 1.21(3) .
C5B N1B 1.39(3) .
C5B N2B 1.35(3) .
C5B O1B 1.23(3) .
C5C N1C 1.38(3) .
C5C N2C 1.39(3) .
C5C O1C 1.21(3) .
C5D N1D 1.42(3) .
C5D N2D 1.44(3) .
C5D O1D 1.19(3) .
C5E N1E 1.43(3) .
C5E N2E 1.42(3) .
C5E O1E 1.22(3) .
C5F N1F 1.31(3) .
C5F N2F 1.41(3) .
C5F O1F 1.28(2) .
C5G N1G 1.43(3) .
C5G N2G 1.40(3) .
C5G O1G 1.21(2) .
C5H N1H 1.34(3) .
C5H N2H 1.43(3) .
C5H O1H 1.23(3) .
C5I N1I 1.36(3) .
C5I N2I 1.41(3) .
C5I O1I 1.28(3) .
C5J N1J 1.33(3) .
C5J N2J 1.39(3) .
C5J O1J 1.23(3) .
C5K N1K 1.34(3) .
C5K N2K 1.43(3) .
C5K O1K 1.16(2) .
C5L N1L 1.36(3) .
C5L N2L 1.40(3) .
C5L O1L 1.25(3) .
C5M N1M 1.32(3) .
C5M N2M 1.43(3) .
C5M O1M 1.23(2) .
C5N N1N 1.35(3) .
C5N N2N 1.42(3) .
C5N O1N 1.21(3) .
C5O N1O 1.35(3) .
C5O N2O 1.38(3) .
C5O O1O 1.23(3) .
C5P N1P 1.37(3) .
C5P N2P 1.37(3) .
C5P O1P 1.22(3) .
O1 Cl1 1.441(19) .
O2 Cl1 1.453(16) .
O3 Cl1 1.421(19) .
O4 Cl1 1.464(17) .
O5 Cl2 1.62(4) .
O6 Cl2 1.30(4) .
O7 Cl2 1.469(18) .
O8 Cl2 1.370(17) .
O9 Cl3 1.396(18) .
O10 Cl3 1.410(18) .
O11 Cl3 1.485(19) .
O12 Cl3 1.428(19) .
O13 Cl4 1.41(2) .
O14 Cl4 1.38(2) .
O15 Cl4 1.45(2) .
O16 Cl4 1.42(2) .
O17 Cl5 1.437(17) .
O18 Cl5 1.461(16) .
O19 Cl5 1.466(16) .
O20 Cl5 1.434(19) .
O21 Cl6 1.405(16) .
O22 Cl6 1.473(18) .
O23 Cl6 1.448(15) .
O24 Cl6 1.470(16) .
O25 Cl7 1.43(2) .
O26 Cl7 1.407(18) .
O27 Cl7 1.455(18) .
O28 Cl7 1.476(16) .
loop_
_smtbx_masks_void_nr
_smtbx_masks_void_average_x
_smtbx_masks_void_average_y
_smtbx_masks_void_average_z
_smtbx_masks_void_volume
_smtbx_masks_void_count_electrons
1 -0.030 0.158 0.624 136.9 48.8
2 0.030 0.658 0.876 136.9 49.2
3 0.099 0.048 0.185 46.8 20.8
4 0.172 0.315 0.261 10.2 2.4
5 0.238 0.744 0.496 21.0 6.1
6 0.262 0.256 -0.004 21.0 6.1
7 0.328 0.685 0.761 10.2 2.4
8 0.401 -0.048 0.685 46.8 20.7
9 0.470 0.342 0.376 136.9 48.6
10 0.530 0.842 0.124 136.9 48.5
11 0.599 0.452 0.815 46.8 21.1
12 0.672 0.185 0.739 10.2 2.4
13 0.738 0.756 0.504 21.0 6.1
14 0.762 0.244 0.004 21.0 6.1
15 0.828 0.815 0.239 10.2 2.4
16 0.901 0.548 0.315 46.8 21.1
