#------------------------------------------------------------------------------
#$Date: 2018-11-09 01:20:52 +0200 (Fri, 09 Nov 2018) $
#$Revision: 211862 $
#$URL: file:///home/coder/svn-repositories/cod/cif/1/55/02/1550202.cif $
#------------------------------------------------------------------------------
#
# This file is available in the Crystallography Open Database (COD),
# http://www.crystallography.net/
#
# All data on this site have been placed in the public domain by the
# contributors.
#
data_1550202
loop_
_publ_author_name
'Linares, F\'atima'
'Garcia-Fernandez, Emilio'
'L\'opez-Garz\'on, F Javier'
'Domingo-Garcia, Maria'
'Orte, Angel'
'Rodr\'iguez Di\'eguez, Antonio'
'Galindo Cuesta, Miguel Angel'
_publ_section_title
;
 Multifunctional Behavior of Molecules Comprising Stacked
 Cytosine-AgI-Cytosine Base Pairs; Towards Conducting and
 Photoluminescence Silver-DNA Nanowires
;
_journal_name_full               'Chemical Science'
_journal_paper_doi               10.1039/C8SC04036B
_journal_year                    2019
_chemical_formula_moiety         'C100 H138 Ag10 N60 O20, 8(N O3)'
_chemical_formula_sum            'C100 H158 Ag10 N70 O60'
_chemical_formula_weight         4379.65
_chemical_name_systematic
;
 ?
;
_space_group_crystal_system      monoclinic
_space_group_IT_number           14
_space_group_name_Hall           '-P 2ybc'
_space_group_name_H-M_alt        'P 1 21/c 1'
_symmetry_space_group_name_Hall  '-P 2ybc'
_symmetry_space_group_name_H-M   'P 1 21/c 1'
_atom_sites_solution_hydrogens   mixed
_audit_creation_date             2018-06-04
_audit_creation_method
;
Olex2 1.2
(compiled 2018.05.29 svn.r3508 for OlexSys, GUI svn.r5506)
;
_audit_update_record
;
2018-06-07 deposited with the CCDC.
2018-11-05 downloaded from the CCDC.
;
_cell_angle_alpha                90
_cell_angle_beta                 110.412(2)
_cell_angle_gamma                90
_cell_formula_units_Z            4
_cell_length_a                   25.5741(16)
_cell_length_b                   26.2813(17)
_cell_length_c                   24.8077(18)
_cell_measurement_reflns_used    9098
_cell_measurement_temperature    100(2)
_cell_measurement_theta_max      18.51
_cell_measurement_theta_min      2.48
_cell_volume                     15626.8(18)
_computing_cell_refinement       'Bruker Apex II'
_computing_data_collection       'Bruker Apex II'
_computing_data_reduction        'Bruker Apex II'
_computing_molecular_graphics    'Olex2 (Dolomanov et al., 2009)'
_computing_publication_material  'Olex2 (Dolomanov et al., 2009)'
_computing_structure_refinement  'ShelXL (Sheldrick, 2015)'
_diffrn_ambient_temperature      100(2)
_diffrn_measured_fraction_theta_full 0.436
_diffrn_measured_fraction_theta_max 0.990
_diffrn_measurement_device_type  'Bruker D8 Venture'
_diffrn_measurement_method       '\f and \w scans'
_diffrn_radiation_type           MoK\a
_diffrn_radiation_wavelength     0.71073
_diffrn_reflns_av_R_equivalents  0.2326
_diffrn_reflns_av_unetI/netI     0.1251
_diffrn_reflns_Laue_measured_fraction_full 0.436
_diffrn_reflns_Laue_measured_fraction_max 0.990
_diffrn_reflns_limit_h_max       23
_diffrn_reflns_limit_h_min       -23
_diffrn_reflns_limit_k_max       23
_diffrn_reflns_limit_k_min       -23
_diffrn_reflns_limit_l_max       22
_diffrn_reflns_limit_l_min       -22
_diffrn_reflns_number            91658
_diffrn_reflns_point_group_measured_fraction_full 0.436
_diffrn_reflns_point_group_measured_fraction_max 0.990
_diffrn_reflns_theta_full        25.242
_diffrn_reflns_theta_max         18.928
_diffrn_reflns_theta_min         2.300
_diffrn_source                   'fine-focus sealed tube'
_diffrn_standards_number         0
_exptl_absorpt_coefficient_mu    1.335
_exptl_absorpt_correction_T_max  0.7443
_exptl_absorpt_correction_T_min  0.4759
_exptl_absorpt_correction_type   empirical
_exptl_absorpt_process_details
;
SADABS-2014/3 (Bruker,2014/3) was used for absorption correction.
wR2(int) was 0.1140 before and 0.0748 after correction.
The Ratio of minimum to maximum transmission is 0.6394.
The \l/2 correction factor is 0.00150.
;
_exptl_crystal_colour            colourless
_exptl_crystal_density_diffrn    1.862
_exptl_crystal_description       fiber
_exptl_crystal_F_000             8792
_exptl_crystal_size_max          0.08
_exptl_crystal_size_mid          0.04
_exptl_crystal_size_min          0.04
_refine_diff_density_max         1.227
_refine_diff_density_min         -0.970
_refine_diff_density_rms         0.149
_refine_ls_extinction_method     none
_refine_ls_goodness_of_fit_ref   1.016
_refine_ls_hydrogen_treatment    constr
_refine_ls_matrix_type           full
_refine_ls_number_parameters     959
_refine_ls_number_reflns         12330
_refine_ls_number_restraints     0
_refine_ls_restrained_S_all      1.016
_refine_ls_R_factor_all          0.1623
_refine_ls_R_factor_gt           0.0756
_refine_ls_shift/su_max          0.001
_refine_ls_shift/su_mean         0.000
_refine_ls_structure_factor_coef Fsqd
_refine_ls_weighting_details
'w=1/[\s^2^(Fo^2^)+(0.0996P)^2^+139.8540P] where P=(Fo^2^+2Fc^2^)/3'
_refine_ls_weighting_scheme      calc
_refine_ls_wR_factor_gt          0.1662
_refine_ls_wR_factor_ref         0.2160
_reflns_Friedel_coverage         0.000
_reflns_number_gt                6513
_reflns_number_total             12330
_reflns_threshold_expression     'I > 2\s(I)'
_cod_data_source_file            c8sc04036b2.cif
_cod_data_source_block           Compound1
_cod_depositor_comments
;
The following automatic conversions were performed:

'_exptl_absorpt_correction_type' value 'Empirical' changed to
'empirical' according to
/home/data/users/saulius/crontab/automatic-downloads/rss-feeds/RSC/lib/dictionaries/cif_core.dic
dictionary named 'cif_core.dic' version 2.4.2 from 2011-04-26.

Automatic conversion script
Id: cif_fix_values 4973 2017-02-22 13:04:09Z antanas 
;
_cod_database_code               1550202
_shelxl_version_number           2014-3
_shelx_space_group_comment
;
The symmetry employed for this shelxl refinement is uniquely defined
by the following loop, which should always be used as a source of
symmetry information in preference to the above space-group names.
They are only intended as comments.
;
_olex2_refinement_description
;
1. Fixed Uiso
 At 1.2 times of:
  All C(H) groups, All N(H,H) groups
 At 1.5 times of:
  All C(H,H,H) groups
2.a Rotating group:
 C1A(H1AA,H1AB,H1AC), C1B(H1BA,H1BB,H1BC), C1C(H1CA,H1CB,H1CC), C1D(H1DA,H1DB,
 H1DC), C1E(H1EA,H1EB,H1EC), C1F(H1FA,H1FB,H1FC), C1G(H1GA,H1GB,H1GC), C1H(H1HA,
 H1HB,H1HC), C1I(H1IA,H1IB,H1IC), C1J(H1JA,H1JB,H1JC), C1K(H1KA,H1KB,H1KC),
 C1M(H1MA,H1MB,H1MC), C1O(H1OA,H1OB,H1OC), C1P(H1PA,H1PB,H1PC), C1R(H1RA,H1RB,
 H1RC), C1S(H1SA,H1SB,H1SC), C1T(H1TA,H1TB,H1TC), C1V(H1VA,H1VB,H1VC), C1Y(H1YA,
 H1YB,H1YC), C1Z(H1ZA,H1ZB,H1ZC)
2.b Aromatic/amide H refined with riding coordinates:
 C2A(H2A), C2B(H2B), C2C(H2C), C2D(H2D), C2E(H2E), C2F(H2F), C2G(H2G),
 C2H(H2H), C2I(H2I), C2J(H2J), C2K(H2K), C2M(H2M), C2O(H2O), C2P(H2P), C2R(H2R),
  C2S(H2S), C2T(H2T), C2V(H2V), C2Y(H2Y), C2Z(H2Z), C3A(H3A), C3B(H3B),
 C3C(H3C), C3D(H3D), C3E(H3E), C3F(H3F), C3G(H3G), C3H(H3H), C3I(H3I), C3J(H3J),
  C3K(H3K), C3M(H3M), C3O(H3O), C3P(H3P), C3R(H3R), C3S(H3S), C3T(H3T),
 C3V(H3V), C3Y(H3Y), C3Z(H3Z)
2.c X=CH2 refined with riding coordinates:
 N3A(H3AA,H3AB), N3B(H3BA,H3BB), N3C(H3CA,H3CB), N3D(H3DA,H3DB), N3E(H3EA,
 H3EB), N3F(H3FA,H3FB), N3G(H3GA,H3GB), N3H(H3HA,H3HB), N3I(H3IA,H3IB),
 N3K(H3KA,H3KB), N3M(H3MA,H3MB), N3O(H3OA,H3OB), N3P(H3PA,H3PB), N3R(H3RA,H3RB),
  N3S(H3SA,H3SB), N3T(H3TA,H3TB), N3V(H3VA,H3VB), N3Y(H3YA,H3YB), N3Z(H3ZA,H3ZB)
;
_shelx_res_file
;
TITL ASD in P2(1)/c
CELL 0.71073 25.5741 26.2813 24.8077 90 110.412 90
ZERR 4 0.0016 0.0017 0.0018 0 0.002 0
LATT 1
SYMM -X,0.5+Y,0.5-Z
SFAC C H N O Ag
UNIT 400 632 280 240 40

L.S. 40
PLAN  10
ABIN
fmap 2
acta
MERG 2
REM <olex2.extras>
REM <HklSrc "%.\\ASD.hkl">
REM </olex2.extras>

WGHT    0.099590  139.854019
FVAR       0.02298
AG1   5    0.894052    0.318855    0.154843    11.00000    0.03006    0.03698 =
         0.02548   -0.00190   -0.00982    0.00457
AG2   5    1.015406    0.308557    0.202365    11.00000    0.02921    0.03859 =
         0.02483    0.00396   -0.00331   -0.00477
AG3   5    1.104525    0.326121    0.311386    11.00000    0.02697    0.04597 =
         0.01866    0.00214   -0.00175   -0.00416
AG4   5    1.290189    0.368428    0.540681    11.00000    0.03028    0.05264 =
         0.02788   -0.00949   -0.00400    0.00783
AG5   5    0.692865    0.354409   -0.052280    11.00000    0.02522    0.06397 =
         0.02567    0.00826    0.00084    0.00042
AG6   5    1.193706    0.345193    0.427267    11.00000    0.03044    0.04545 =
         0.02233   -0.00827   -0.00440    0.00321
AG7   5    0.789703    0.336475    0.057212    11.00000    0.02693    0.04953 =
         0.02143    0.00009   -0.00644    0.00681
AG8   5    0.592462    0.384309   -0.155817    11.00000    0.03224    0.06932 =
         0.03981    0.02490   -0.00419   -0.00722
AG9   5    1.385463    0.392410    0.654597    11.00000    0.03551    0.07795 =
         0.05292   -0.00281   -0.00808   -0.00206
AG10  5    0.506943    0.389322   -0.274909    11.00000    0.04254    0.07093 =
         0.08423   -0.01807   -0.03100   -0.00208
C1A   1    0.873092    0.514658    0.089739    11.00000    0.03828
AFIX   7
H1AA  2    0.865340    0.551516    0.095005    11.00000   -1.50000
H1AB  2    0.842680    0.504303    0.054291    11.00000   -1.50000
H1AC  2    0.908667    0.515205    0.081256    11.00000   -1.50000
AFIX   0
C1B   1    0.751885    0.347431    0.255806    11.00000    0.05689
AFIX   7
H1BA  2    0.790144    0.347478    0.282929    11.00000   -1.50000
H1BB  2    0.740825    0.311495    0.247786    11.00000   -1.50000
H1BC  2    0.728201    0.362862    0.274570    11.00000   -1.50000
AFIX   0
C1C   1    1.057605    0.492131    0.439896    11.00000    0.04366
AFIX   7
H1CA  2    1.021313    0.484826    0.408389    11.00000   -1.50000
H1CB  2    1.078379    0.513400    0.419790    11.00000   -1.50000
H1CC  2    1.049208    0.516811    0.466890    11.00000   -1.50000
AFIX   0
C1D   1    1.155246    0.315702    0.117672    11.00000    0.04538
AFIX   7
H1DA  2    1.117285    0.314741    0.091492    11.00000   -1.50000
H1DB  2    1.167021    0.281760    0.130890    11.00000   -1.50000
H1DC  2    1.178918    0.328907    0.098139    11.00000   -1.50000
AFIX   0
C1E   1    1.225276    0.448256    0.706780    11.00000    0.06029
AFIX   7
H1EA  2    1.198445    0.471606    0.712213    11.00000   -1.50000
H1EB  2    1.261219    0.454514    0.735812    11.00000   -1.50000
H1EC  2    1.213973    0.413880    0.710896    11.00000   -1.50000
AFIX   0
C1F   1    1.371478    0.527000    0.492300    11.00000    0.10292
AFIX   7
H1FA  2    1.407641    0.515419    0.493983    11.00000   -1.50000
H1FB  2    1.365229    0.560834    0.476664    11.00000   -1.50000
H1FC  2    1.343421    0.504536    0.468084    11.00000   -1.50000
AFIX   0
C1G   1    1.343051    0.435317    0.359473    11.00000    0.06491
AFIX   7
H1GA  2    1.375206    0.433615    0.395837    11.00000   -1.50000
H1GB  2    1.322164    0.466318    0.360908    11.00000   -1.50000
H1GC  2    1.358149    0.440200    0.328392    11.00000   -1.50000
AFIX   0
C1H   1    0.390888    0.270462   -0.191420    11.00000    0.14957
AFIX   7
H1HA  2    0.386983    0.237327   -0.173821    11.00000   -1.50000
H1HB  2    0.350435    0.277821   -0.224470    11.00000   -1.50000
H1HC  2    0.379857    0.300793   -0.164590    11.00000   -1.50000
AFIX   0
C1I   1    0.900626    0.203003    0.306413    11.00000    0.04686
AFIX   7
H1IA  2    0.893414    0.170549    0.320943    11.00000   -1.50000
H1IB  2    0.866480    0.214592    0.277312    11.00000   -1.50000
H1IC  2    0.911483    0.227271    0.337831    11.00000   -1.50000
AFIX   0
C1J   1    0.519112    0.265697   -0.406306    11.00000    0.07687
AFIX   7
H1JA  2    0.529148    0.231385   -0.411859    11.00000   -1.50000
H1JB  2    0.548228    0.280663   -0.374466    11.00000   -1.50000
H1JC  2    0.514294    0.285183   -0.440488    11.00000   -1.50000
AFIX   0
C1K   1    1.032334    0.503047    0.268115    11.00000    0.03045
AFIX   7
H1KA  2    1.045389    0.535852    0.261170    11.00000   -1.50000
H1KB  2    1.058205    0.488526    0.302803    11.00000   -1.50000
H1KC  2    0.996709    0.507038    0.272649    11.00000   -1.50000
AFIX   0
C1M   1    0.763430    0.166967   -0.070530    11.00000    0.04914
AFIX   7
H1MA  2    0.724566    0.176677   -0.095985    11.00000   -1.50000
H1MB  2    0.759741    0.147652   -0.037401    11.00000   -1.50000
H1MC  2    0.775100    0.139174   -0.092273    11.00000   -1.50000
AFIX   0
C1O   1    1.100796    0.171429    0.449501    11.00000    0.06285
AFIX   7
H1OA  2    1.141301    0.168392    0.468642    11.00000   -1.50000
H1OB  2    1.092684    0.146617    0.416986    11.00000   -1.50000
H1OC  2    1.082934    0.161017    0.476212    11.00000   -1.50000
AFIX   0
C1P   1    1.265065    0.176052    0.463981    11.00000    0.08173
AFIX   7
H1PA  2    1.277597    0.148895    0.444787    11.00000   -1.50000
H1PB  2    1.225596    0.182425    0.441217    11.00000   -1.50000
H1PC  2    1.267355    0.163940    0.501808    11.00000   -1.50000
AFIX   0
C1R   1    0.668851    0.415107   -0.328621    11.00000    0.06198
AFIX   7
H1RA  2    0.672301    0.445103   -0.350267    11.00000   -1.50000
H1RB  2    0.634426    0.397509   -0.351454    11.00000   -1.50000
H1RC  2    0.699236    0.391122   -0.326880    11.00000   -1.50000
AFIX   0
C1S   1    0.857094    0.465644   -0.071734    11.00000    0.05509
AFIX   7
H1SA  2    0.888081    0.453290   -0.037877    11.00000   -1.50000
H1SB  2    0.838370    0.493447   -0.058810    11.00000   -1.50000
H1SC  2    0.874486    0.482067   -0.097643    11.00000   -1.50000
AFIX   0
C1T   1    0.599574    0.199181   -0.070187    11.00000    0.07008
AFIX   7
H1TA  2    0.583623    0.174467   -0.051480    11.00000   -1.50000
H1TB  2    0.638736    0.202952   -0.047523    11.00000   -1.50000
H1TC  2    0.596217    0.186611   -0.107895    11.00000   -1.50000
AFIX   0
C1V   1    0.528843    0.550710   -0.137757    11.00000    0.17160
AFIX   7
H1VA  2    0.567824    0.551017   -0.111562    11.00000   -1.50000
H1VB  2    0.508809    0.525248   -0.122262    11.00000   -1.50000
H1VC  2    0.512728    0.584165   -0.135158    11.00000   -1.50000
AFIX   0
C1Y   1    0.567550    0.468713    0.027945    11.00000    0.08055
AFIX   7
H1YA  2    0.542171    0.479934   -0.012677    11.00000   -1.50000
H1YB  2    0.593139    0.499186    0.040729    11.00000   -1.50000
H1YC  2    0.542776    0.471574    0.052187    11.00000   -1.50000
AFIX   0
C1Z   1    0.992208    0.182241    0.061973    11.00000    0.05403
AFIX   7
H1ZA  2    0.990867    0.148322    0.047031    11.00000   -1.50000
H1ZB  2    1.027810    0.187692    0.091816    11.00000   -1.50000
H1ZC  2    0.987839    0.206484    0.031676    11.00000   -1.50000
AFIX   0
C2A   1    0.878560    0.498107    0.189586    11.00000    0.04281
AFIX  43
H2A   2    0.876595    0.532976    0.194978    11.00000   -1.20000
AFIX   0
C2B   1    0.727419    0.423527    0.196398    11.00000    0.05364
AFIX  43
H2B   2    0.715892    0.438391    0.224401    11.00000   -1.20000
AFIX   0
C2C   1    1.084849    0.432567    0.521655    11.00000    0.03580
AFIX  43
H2C   2    1.064981    0.452362    0.538948    11.00000   -1.20000
AFIX   0
C2D   1    1.175565    0.397630    0.170502    11.00000    0.04498
AFIX  43
H2D   2    1.186119    0.410871    0.141060    11.00000   -1.20000
AFIX   0
C2E   1    1.205499    0.498203    0.619272    11.00000    0.04009
AFIX  43
H2E   2    1.186699    0.521032    0.634660    11.00000   -1.20000
AFIX   0
C2F   1    1.365756    0.566708    0.581530    11.00000    0.06594
AFIX  43
H2F   2    1.361984    0.598625    0.564402    11.00000   -1.20000
AFIX   0
C2G   1    1.307413    0.355614    0.309342    11.00000    0.05200
AFIX  43
H2G   2    1.328149    0.362844    0.286051    11.00000   -1.20000
AFIX   0
C2H   1    0.467818    0.223701   -0.206985    11.00000    0.07919
AFIX  43
H2H   2    0.459391    0.194514   -0.190445    11.00000   -1.20000
AFIX   0
C2I   1    0.966253    0.152431    0.275345    11.00000    0.04575
AFIX  43
H2I   2    0.953019    0.123523    0.288023    11.00000   -1.20000
AFIX   0
C2J   1    1.437245    0.225505    0.606583    11.00000    0.05797
AFIX  43
H2J   2    1.449636    0.194470    0.597584    11.00000   -1.20000
AFIX   0
C2K   1    1.025255    0.489612    0.166725    11.00000    0.03450
AFIX  43
H2K   2    1.025378    0.524734    0.162193    11.00000   -1.20000
AFIX   0
C2M   1    0.842304    0.222425   -0.068898    11.00000    0.03880
AFIX  43
H2M   2    0.852610    0.198905   -0.091372    11.00000   -1.20000
AFIX   0
C2O   1    1.040781    0.241813    0.451587    11.00000    0.05047
AFIX  43
H2O   2    1.031247    0.224751    0.479683    11.00000   -1.20000
AFIX   0
C2P   1    1.341887    0.223421    0.451608    11.00000    0.04984
AFIX  43
H2P   2    1.349422    0.194852    0.433430    11.00000   -1.20000
AFIX   0
C2R   1    0.703224    0.473089   -0.248466    11.00000    0.03840
AFIX  43
H2R   2    0.723404    0.489298   -0.268236    11.00000   -1.20000
AFIX   0
C2S   1    0.820614    0.400970   -0.147729    11.00000    0.04651
AFIX  43
H2S   2    0.845602    0.412189   -0.164845    11.00000   -1.20000
AFIX   0
C2T   1    0.532143    0.255788   -0.052435    11.00000    0.05072
AFIX  43
H2T   2    0.523198    0.229445   -0.032159    11.00000   -1.20000
AFIX   0
C2V   1    0.529922    0.569723   -0.234565    11.00000    0.12887
AFIX  43
H2V   2    0.535161    0.603519   -0.222789    11.00000   -1.20000
AFIX   0
C2Y   1    0.592779    0.386199    0.076736    11.00000    0.03762
AFIX  43
H2Y   2    0.573917    0.395533    0.101187    11.00000   -1.20000
AFIX   0
C2Z   1    0.915730    0.149869    0.090186    11.00000    0.04104
AFIX  43
H2Z   2    0.922724    0.117464    0.079239    11.00000   -1.20000
AFIX   0
C3A   1    0.881394    0.466094    0.232778    11.00000    0.02532
AFIX  43
H3A   2    0.877388    0.478433    0.266259    11.00000   -1.20000
AFIX   0
C3B   1    0.724621    0.450231    0.148881    11.00000    0.03903
AFIX  43
H3B   2    0.710395    0.483151    0.143361    11.00000   -1.20000
AFIX   0
C3C   1    1.109920    0.392253    0.548489    11.00000    0.03858
AFIX  43
H3C   2    1.107989    0.383568    0.584088    11.00000   -1.20000
AFIX   0
C3D   1    1.176572    0.427031    0.213617    11.00000    0.02650
AFIX  43
H3D   2    1.188869    0.460503    0.215426    11.00000   -1.20000
AFIX   0
C3E   1    1.208995    0.508425    0.569152    11.00000    0.04123
AFIX  43
H3E   2    1.196681    0.539515    0.551347    11.00000   -1.20000
AFIX   0
C3F   1    1.367694    0.562958    0.634555    11.00000    0.07609
AFIX  43
H3F   2    1.366684    0.591872    0.655783    11.00000   -1.20000
AFIX   0
C3G   1    1.278327    0.312985    0.299299    11.00000    0.04130
AFIX  43
H3G   2    1.277485    0.291210    0.269457    11.00000   -1.20000
AFIX   0
C3H   1    0.511468    0.221377   -0.226288    11.00000    0.08462
AFIX  43
H3H   2    0.530662    0.191643   -0.227707    11.00000   -1.20000
AFIX   0
C3I   1    1.005014    0.147224    0.252047    11.00000    0.03840
AFIX  43
H3I   2    1.018811    0.115522    0.247021    11.00000   -1.20000
AFIX   0
C3J   1    1.390129    0.226134    0.618672    11.00000    0.06099
AFIX  43
H3J   2    1.369735    0.196458    0.616701    11.00000   -1.20000
AFIX   0
C3K   1    1.022893    0.459864    0.122666    11.00000    0.03253
AFIX  43
H3K   2    1.024205    0.473767    0.088688    11.00000   -1.20000
AFIX   0
C3M   1    0.871274    0.265185   -0.053656    11.00000    0.03096
AFIX  43
H3M   2    0.900733    0.272460   -0.066213    11.00000   -1.20000
AFIX   0
C3O   1    1.018236    0.287558    0.431405    11.00000    0.03404
AFIX  43
H3O   2    0.991952    0.301886    0.444977    11.00000   -1.20000
AFIX   0
C3P   1    1.373664    0.262917    0.457198    11.00000    0.04784
AFIX  43
H3P   2    1.403073    0.262667    0.443319    11.00000   -1.20000
AFIX   0
C3R   1    0.706065    0.490224   -0.198205    11.00000    0.04359
AFIX  43
H3R   2    0.730542    0.516452   -0.180801    11.00000   -1.20000
AFIX   0
C3S   1    0.786899    0.363129   -0.171415    11.00000    0.04624
AFIX  43
H3S   2    0.787924    0.347051   -0.204428    11.00000   -1.20000
AFIX   0
C3T   1    0.505547    0.298901   -0.056671    11.00000    0.04733
AFIX  43
H3T   2    0.479362    0.303647   -0.038880    11.00000   -1.20000
AFIX   0
C3V   1    0.528352    0.559216   -0.285438    11.00000    0.09633
AFIX  43
H3V   2    0.533459    0.584075   -0.309821    11.00000   -1.20000
AFIX   0
C3Y   1    0.618078    0.342252    0.083722    11.00000    0.03499
AFIX  43
H3Y   2    0.617688    0.320635    0.113259    11.00000   -1.20000
AFIX   0
C3Z   1    0.874582    0.155112    0.110432    11.00000    0.04162
AFIX  43
H3Z   2    0.852555    0.127735    0.113059    11.00000   -1.20000
AFIX   0
C4A   1    0.890288    0.414742    0.227267    11.00000    0.01994
C4B   1    0.743929    0.426883    0.107414    11.00000    0.03704
C4D   1    1.158429    0.406839    0.257996    11.00000    0.02794
C4E   1    1.232230    0.470748    0.541951    11.00000    0.03387
C4F   1    1.371288    0.514987    0.658593    11.00000    0.05910
C4G   1    1.247321    0.301821    0.337911    11.00000    0.02951
C4H   1    0.524410    0.270513   -0.244279    11.00000    0.04926
C4I   1    1.024752    0.193718    0.234806    11.00000    0.02719
C4J   1    1.371786    0.273339    0.634674    11.00000    0.04933
C4K   1    1.018390    0.407175    0.128294    11.00000    0.03410
C4M   1    0.855650    0.300011   -0.017021    11.00000    0.03041
C4O   1    1.033846    0.313260    0.390804    11.00000    0.03444
C4P   1    1.362324    0.307046    0.485345    11.00000    0.03585
C4R   1    0.671915    0.468789   -0.170593    11.00000    0.04311
C4S   1    0.748422    0.347701   -0.144092    11.00000    0.04507
C4T   1    0.518208    0.338458   -0.089653    11.00000    0.03936
C4V   1    0.518805    0.509698   -0.301967    11.00000    0.06972
C4Y   1    0.645299    0.328187    0.047060    11.00000    0.03924
C4Z   1    0.865768    0.205596    0.128196    11.00000    0.03855
C5A   1    0.886005    0.429731    0.131505    11.00000    0.01357
C5B   1    0.766388    0.352832    0.163020    11.00000    0.03013
C5D   1    1.139115    0.330043    0.210817    11.00000    0.02445
C5E   1    1.255162    0.418963    0.629222    11.00000    0.04120
C5F   1    1.373843    0.477769    0.573765    11.00000    0.04243
C5G   1    1.277198    0.382003    0.383865    11.00000    0.03422
C5H   1    0.447886    0.311179   -0.227935    11.00000    0.08988
C5I   1    0.963067    0.241640    0.261457    11.00000    0.02246
C5J   1    0.453479    0.311597   -0.377836    11.00000    0.05026
C5K   1    1.025383    0.418370    0.223496    11.00000    0.03235
C5M   1    0.783723    0.244797   -0.017118    11.00000    0.04477
C5O   1    1.096397    0.246109    0.388243    11.00000    0.04063
C5P   1    1.284145    0.266743    0.494661    11.00000    0.04197
C5R   1    0.639229    0.410577   -0.243131    11.00000    0.03330
C5S   1    0.784466    0.405994   -0.071924    11.00000    0.02888
C5T   1    0.586723    0.286230   -0.104137    11.00000    0.03790
C5V   1    0.518397    0.485423   -0.209556    11.00000    0.06551
C5Y   1    0.621955    0.405140   -0.004027    11.00000    0.02695
C5Z   1    0.940858    0.235406    0.102070    11.00000    0.02739
C12   1    1.116450    0.417330    0.445095    11.00000    0.02765
C84   1    1.139949    0.361991    0.523054    11.00000    0.02953
N1A   3    0.889607    0.396500    0.175323    11.00000    0.02451
N1B   3    0.761335    0.380180    0.115213    11.00000    0.02482
N1C   3    1.143782    0.374815    0.472413    11.00000    0.03406
N1D   3    1.142498    0.359692    0.254842    11.00000    0.03443
N1E   3    1.253417    0.429460    0.574777    11.00000    0.02996
N1F   3    1.377434    0.473600    0.629182    11.00000    0.04763
N1G   3    1.246157    0.337766    0.376396    11.00000    0.02800
N1H   3    0.495161    0.310277   -0.245803    11.00000    0.06276
N1I   3    1.003668    0.236690    0.240508    11.00000    0.01737
N1J   3    1.403445    0.314562    0.635464    11.00000    0.05314
N1K   3    1.020618    0.387671    0.178205    11.00000    0.03459
N1M   3    0.813846    0.288118    0.002546    11.00000    0.02090

N1N   3    0.693608    0.220227    0.183363    11.00000    0.11706
N1O   3    1.071157    0.290374    0.370985    11.00000    0.03334
N1P   3    1.319446    0.304657    0.502633    11.00000    0.03514
N1R   3    0.641329    0.427478   -0.194220    11.00000    0.02881
N1S   3    0.749479    0.368414   -0.097247    11.00000    0.04953
N1T   3    0.559034    0.331032   -0.110904    11.00000    0.03170
N1V   3    0.515255    0.471856   -0.265197    11.00000    0.05068
N1Y   3    0.646775    0.360329    0.004583    11.00000    0.03454
N1Z   3    0.897487    0.242044    0.121877    11.00000    0.02745
N2A   3    0.878524    0.480307    0.138283    11.00000    0.03479
N2B   3    0.747325    0.374307    0.203418    11.00000    0.03246
N2C   3    1.085979    0.447388    0.470072    11.00000    0.03641
N2D   3    1.159606    0.348895    0.168154    11.00000    0.03645
N2E   3    1.228265    0.455299    0.650487    11.00000    0.03784
N2F   3    1.369155    0.524718    0.550710    11.00000    0.06611
N2G   3    1.309337    0.389412    0.350730    11.00000    0.03869
N2H   3    0.438120    0.262280   -0.209847    11.00000    0.07382
N2I   3    0.945029    0.198230    0.281491    11.00000    0.02995
N2J   3    0.465697    0.264704   -0.393258    11.00000    0.05572
N2K   3    1.027507    0.470083    0.218498    11.00000    0.03386
N2M   3    0.797208    0.211927   -0.052246    11.00000    0.03629
N2N   3    0.416516    0.389407    0.000910    11.00000    0.07030
N2O   3    1.077935    0.221558    0.429377    11.00000    0.04079
N2P   3    1.298884    0.221307    0.470437    11.00000    0.04698
N2R   3    0.671180    0.431779   -0.272678    11.00000    0.03760
N2S   3    0.820137    0.424261   -0.098971    11.00000    0.03603
N2T   3    0.571545    0.247225   -0.075544    11.00000    0.04674
N2V   3    0.524559    0.535510   -0.197489    11.00000    0.10041
N2Y   3    0.593611    0.418980    0.033647    11.00000    0.05085
N2Z   3    0.948245    0.188306    0.084330    11.00000    0.03657
N3A   3    0.894206    0.383206    0.269196    11.00000    0.04666
AFIX  93
H3AA  2    0.896356    0.351004    0.264171    11.00000   -1.20000
H3AB  2    0.894635    0.394646    0.301827    11.00000   -1.20000
AFIX   0
N3B   3    0.741626    0.452924    0.061275    11.00000    0.04613
AFIX  93
H3BA  2    0.751850    0.439000    0.035174    11.00000   -1.20000
H3BB  2    0.729898    0.483849    0.057250    11.00000   -1.20000
AFIX   0
N3C   3    1.168733    0.321285    0.549363    11.00000    0.03654
AFIX  93
H3CA  2    1.188593    0.304601    0.533674    11.00000   -1.20000
H3CB  2    1.167441    0.311708    0.582024    11.00000   -1.20000
AFIX   0
N3D   3    1.160333    0.435508    0.302062    11.00000    0.03456
AFIX  93
H3DA  2    1.150929    0.423097    0.329443    11.00000   -1.20000
H3DB  2    1.170983    0.466676    0.303509    11.00000   -1.20000
AFIX   0
N3E   3    1.236682    0.477538    0.492120    11.00000    0.04768
AFIX  93
H3EA  2    1.253630    0.455321    0.478729    11.00000   -1.20000
H3EB  2    1.222695    0.504273    0.472360    11.00000   -1.20000
AFIX   0
N3F   3    1.372662    0.508506    0.711951    11.00000    0.08175
AFIX  93
H3FA  2    1.377365    0.478573    0.726893    11.00000   -1.20000
H3FB  2    1.368854    0.534224    0.731698    11.00000   -1.20000
AFIX   0
N3G   3    1.218555    0.261102    0.333712    11.00000    0.03915
AFIX  93
H3GA  2    1.198837    0.256933    0.355246    11.00000   -1.20000
H3GB  2    1.218977    0.237958    0.309360    11.00000   -1.20000
AFIX   0
N3H   3    0.567827    0.269547   -0.258798    11.00000    0.04237
AFIX  93
H3HA  2    0.578973    0.296889   -0.270500    11.00000   -1.20000
H3HB  2    0.585818    0.241557   -0.256840    11.00000   -1.20000
AFIX   0
N3I   3    1.065418    0.189347    0.212850    11.00000    0.04123
AFIX  93
H3IA  2    1.078421    0.216045    0.201908    11.00000   -1.20000
H3IB  2    1.078579    0.159836    0.209666    11.00000   -1.20000
AFIX   0
N3J   3    1.325731    0.276331    0.646901    11.00000    0.05937
N3K   3    1.014790    0.375313    0.087146    11.00000    0.03481
AFIX  93
H3KA  2    1.013953    0.343124    0.093032    11.00000   -1.20000
H3KB  2    1.013243    0.386399    0.054007    11.00000   -1.20000
AFIX   0
N3M   3    0.885080    0.340729   -0.001397    11.00000    0.04279
AFIX  93
H3MA  2    0.878503    0.361500    0.022261    11.00000   -1.20000
H3MB  2    0.911310    0.347150   -0.014621    11.00000   -1.20000
AFIX   0

N3N   3    0.400580    0.862377    0.276886    11.00000    0.07828
N3O   3    1.013025    0.357936    0.370432    11.00000    0.03701
AFIX  93
H3OA  2    1.023062    0.372588    0.344600    11.00000   -1.20000
H3OB  2    0.989373    0.372497    0.382944    11.00000   -1.20000
AFIX   0
N3P   3    1.391934    0.346703    0.493740    11.00000    0.05042
AFIX  93
H3PA  2    1.384041    0.372431    0.510921    11.00000   -1.20000
H3PB  2    1.420001    0.347997    0.482279    11.00000   -1.20000
AFIX   0
N3R   3    0.672454    0.483410   -0.120909    11.00000    0.05209
AFIX  93
H3RA  2    0.653660    0.466932   -0.103848    11.00000   -1.20000
H3RB  2    0.691608    0.509663   -0.104758    11.00000   -1.20000
AFIX   0
N3S   3    0.713780    0.308941   -0.168376    11.00000    0.04405
AFIX  93
H3SA  2    0.691400    0.297378   -0.152253    11.00000   -1.20000
H3SB  2    0.714034    0.295750   -0.200009    11.00000   -1.20000
AFIX   0
N3T   3    0.491720    0.381750   -0.097987    11.00000    0.04855
AFIX  93
H3TA  2    0.500491    0.405499   -0.117126    11.00000   -1.20000
H3TB  2    0.465471    0.386568   -0.084349    11.00000   -1.20000
AFIX   0
N3V   3    0.514984    0.491499   -0.353109    11.00000    0.11504
AFIX  93
H3VA  2    0.518632    0.511587   -0.378936    11.00000   -1.20000
H3VB  2    0.508861    0.459619   -0.360421    11.00000   -1.20000
AFIX   0
N3Y   3    0.670047    0.284292    0.049308    11.00000    0.03657
AFIX  93
H3YA  2    0.685927    0.277266    0.024835    11.00000   -1.20000
H3YB  2    0.670443    0.262448    0.075260    11.00000   -1.20000
AFIX   0
N3Z   3    0.825898    0.211889    0.150048    11.00000    0.03709
AFIX  93
H3ZA  2    0.819666    0.241562    0.161122    11.00000   -1.20000
H3ZB  2    0.806185    0.186310    0.153195    11.00000   -1.20000
AFIX   0

N4N   3    0.095467    0.897476    0.073794    11.00000    0.04778
N5N   3    0.167773    0.564521    0.278548    11.00000    0.04816
N6N   3    0.018249    0.603739    0.059504    11.00000    0.06241
N7N   3    0.201170    0.194424    0.202470    11.00000    0.06139
N8N   3    0.069138    0.061363    0.160861    11.00000    0.05913
O1A   4    0.887021    0.413310    0.085326    11.00000    0.03733
O1B   4    0.785971    0.309483    0.172283    11.00000    0.03958
O1C   4    1.117588    0.429508    0.396412    11.00000    0.03146
O1D   4    1.120708    0.286122    0.204500    11.00000    0.03362
O1E   4    1.277625    0.383461    0.656733    11.00000    0.04894
O1F   4    1.378215    0.439476    0.548135    11.00000    0.05163
O1G   4    1.278130    0.414001    0.421234    11.00000    0.04328
O1H   4    0.420957    0.350540   -0.234887    11.00000    0.09904
O1I   4    0.941343    0.282944    0.265048    11.00000    0.03194
O1J   4    0.479607    0.349857   -0.374056    11.00000    0.06255
O1K   4    1.024307    0.401423    0.270085    11.00000    0.02179
O1M   4    0.744355    0.235095   -0.000054    11.00000    0.04048
O1N   4    0.737632    0.202464    0.213594    11.00000    0.13082
O1O   4    1.129521    0.225731    0.372516    11.00000    0.04664
O1P   4    1.241046    0.262522    0.505129    11.00000    0.04415
O1R   4    0.608749    0.373922   -0.270619    11.00000    0.04879
O1S   4    0.783547    0.426427   -0.028050    11.00000    0.04554
O1T   4    0.625723    0.278771   -0.121712    11.00000    0.05101
O1V   4    0.513352    0.456030   -0.176730    11.00000    0.09571
O1Y   4    0.619722    0.435107   -0.041761    11.00000    0.04443
O1Z   4    0.969184    0.272776    0.098296    11.00000    0.04108
O2N   4    0.666131    0.244476    0.202062    11.00000    0.09486
O3N   4    0.677126    0.208278    0.133082    11.00000    0.13198
O4N   4    0.467083    0.373443    0.028473    11.00000    0.08329
O5N   4    0.385407    0.392113    0.028633    11.00000    0.10453
O6N   4    0.404312    0.395921   -0.051704    11.00000    0.08800
O7N   4    0.441188    0.841234    0.315455    11.00000    0.09062
O8N   4    0.389159    0.906512    0.287859    11.00000    0.08874
O9N   4    0.381252    0.842007    0.230453    11.00000    0.10441
O10N  4    0.127490    0.888114    0.124050    11.00000    0.05724
O11N  4    0.115895    0.899370    0.035074    11.00000    0.06532
O12N  4    0.044631    0.902961    0.061069    11.00000    0.06692
O13N  4    0.203037    0.536335    0.315783    11.00000    0.04337
O14N  4    0.170751    0.611615    0.286568    11.00000    0.06267
O15N  4    0.133945    0.546933    0.235127    11.00000    0.05446
O16N  4    0.035413    0.593675    0.111199    11.00000    0.08744
O17N  4   -0.005129    0.570388    0.025064    11.00000    0.08084
O18N  4    0.026127    0.647150    0.044042    11.00000    0.04909
O19N  4    0.234564    0.222092    0.193966    11.00000    0.05767
O20N  4    0.205887    0.179751    0.253198    11.00000    0.06136
O21N  4    0.159495    0.177637    0.161760    11.00000    0.05400
O22N  4    0.094874    0.079583    0.209104    11.00000    0.05796
O23N  4    0.024224    0.081120    0.131544    11.00000    0.07248
O24N  4    0.084617    0.022061    0.141705    11.00000    0.05052
HKLF 4

REM  ASD in P2(1)/c
REM R1 =  0.0756 for    6513 Fo > 4sig(Fo)  and  0.1623 for all   12330 data
REM    959 parameters refined using      0 restraints

END

WGHT      0.0764    256.8733

REM Highest difference peak  1.227,  deepest hole -0.970,  1-sigma level  0.149
Q1    1   0.6952  0.3122 -0.0444  11.00000  0.05    1.23
Q2    1   0.9913  0.3354  0.2540  11.00000  0.05    1.09
Q3    1   0.4966  0.3566 -0.2532  11.00000  0.05    1.07
Q4    1   1.2837  0.4156  0.5372  11.00000  0.05    1.06
Q5    1   1.0848  0.3184  0.3421  11.00000  0.05    1.02
Q6    1   0.7421  0.2192  0.2429  11.00000  0.05    0.98
Q7    1   0.7936  0.3774  0.0604  11.00000  0.05    0.98
Q8    1   1.3185  0.3123  0.6501  11.00000  0.05    0.93
Q9    1   1.3140  0.3794  0.5126  11.00000  0.05    0.93
Q10   1   0.6870  0.4099 -0.0464  11.00000  0.05    0.91
;
_shelx_res_checksum              49462
_shelx_fab_file
;
-23 0 6 -1.9847 0.3240
-23 0 8 -6.9854 0.3202
-23 0 10 8.9326 1.1763
-23 1 5 5.7419 -0.4688
-23 1 6 3.1283 0.4946
-23 1 7 10.3428 -0.3317
-23 1 8 4.9526 -0.1813
-23 1 9 3.3795 -0.3380
-23 1 10 -6.0399 -1.2477
-23 2 6 3.0678 0.1011
-23 2 7 -3.4340 0.4391
-23 2 8 3.6082 -0.0961
-23 2 9 -8.2918 0.6909
-23 2 10 -1.5348 0.4137
-23 3 7 -6.8303 -0.2927
-23 3 8 7.3443 0.4946
-23 3 9 0.1967 -0.4971
-22 0 2 -9.9034 0.8266
-22 0 4 -18.2711 0.0189
-22 0 6 -6.1677 -0.3862
-22 0 8 1.9844 -1.0468
-22 0 10 2.2316 -1.3269
-22 0 12 22.0730 0.0673
-22 0 14 19.2978 0.4393
-22 1 1 0.9596 0.2428
-22 1 2 1.4448 -0.6646
-22 1 3 -4.4036 -0.0824
-22 1 4 -5.2675 -0.1099
-22 1 5 -3.8799 0.5985
-22 1 6 5.9213 0.6031
-22 1 7 -10.3327 -0.3915
-22 1 8 10.3282 0.4755
-22 1 9 -6.2819 -0.2409
-22 1 10 3.8749 0.6742
-22 1 11 -1.1002 0.4784
-22 1 12 5.8050 1.2167
-22 1 13 7.7322 -0.1061
-22 1 14 1.0567 0.0650
-22 2 1 -2.8257 0.7451
-22 2 2 2.7773 0.9782
-22 2 3 -3.9752 0.4326
-22 2 4 -2.5405 0.0149
-22 2 5 -3.9793 -0.3938
-22 2 6 -8.3268 -0.4196
-22 2 7 -12.4093 -0.1648
-22 2 8 -4.2544 0.5138
-22 2 9 12.6790 0.6797
-22 2 10 2.2080 -0.3029
-22 2 11 19.5631 0.2126
-22 2 12 3.7947 -0.6771
-22 2 13 12.2663 -0.1793
-22 2 14 0.4492 0.0102
-22 3 2 2.3844 -0.0603
-22 3 3 -2.7481 0.1867
-22 3 4 0.4786 0.2718
-22 3 5 -3.9471 0.4312
-22 3 6 1.8498 -0.0454
-22 3 7 -2.8456 -0.0006
-22 3 8 9.6911 -0.5478
-22 3 9 -4.8704 -0.7108
-22 3 10 4.7784 -0.1885
-22 3 11 -3.4115 -0.3224
-22 3 12 2.6920 0.2720
-22 3 13 -11.2646 0.0558
-22 4 2 8.8005 -0.7294
-22 4 3 -7.3221 -0.1563
-22 4 4 8.2802 -0.8947
-22 4 5 -3.9382 -0.3754
-22 4 6 -0.0627 0.0236
-22 4 7 5.5426 -0.0245
-22 4 8 -4.1615 0.3985
-22 4 9 -4.8819 0.1861
-22 4 10 -0.4190 0.9146
-22 4 11 1.1288 0.6564
-22 4 12 -4.6672 0.3548
-22 4 13 8.6464 0.5922
-22 5 3 -0.0708 0.3031
-22 5 4 10.5425 0.3823
-22 5 5 3.9896 -0.0508
-22 5 6 -3.3269 -0.1958
-22 5 7 5.9453 -0.0868
-22 5 8 -6.8529 -0.0078
-22 5 9 8.9549 0.2369
-22 5 10 2.3698 -0.0848
-22 5 11 -7.9958 0.0614
-22 5 12 -9.7584 -0.7394
-22 6 4 1.4247 -0.3849
-22 6 5 -0.7572 0.6536
-22 6 6 11.5506 0.1250
-22 6 7 7.3753 0.4957
-22 6 8 0.7541 -0.1025
-22 6 9 -9.8053 -0.0150
-22 6 10 2.1045 0.0815
-22 6 11 -16.2576 0.6446
-22 7 5 3.9199 0.2381
-22 7 6 -2.4936 -0.2588
-22 7 7 13.7820 -0.1439
-22 7 8 -5.8198 0.5890
-22 7 9 12.5887 0.0953
-22 7 10 -0.8207 -0.2105
-21 0 2 9.3388 -0.3184
-21 0 4 10.3233 -0.0771
-21 0 6 16.3440 -0.1104
-21 0 8 0.7760 -0.7519
-21 0 10 -15.1285 -1.1700
-21 0 12 -20.7730 -0.0967
-21 0 14 -23.4425 0.4144
-21 0 16 6.1060 0.8621
-21 1 1 9.1956 -0.6222
-21 1 2 2.3513 0.0322
-21 1 3 9.4099 -0.4740
-21 1 4 8.7702 -0.7908
-21 1 5 3.9052 0.3634
-21 1 6 -1.3961 -0.4017
-21 1 7 -6.0997 0.5928
-21 1 8 -9.8403 1.3900
-21 1 9 -1.9695 0.8160
-21 1 10 -9.9818 0.5339
-21 1 11 -7.5436 0.4306
-21 1 12 -0.3069 -0.0109
-21 1 13 1.9789 -0.3112
-21 1 14 -1.9366 0.1992
-21 1 15 10.5236 -0.1438
-21 1 16 2.3248 -0.7190
-21 2 1 -6.1035 -0.3125
-21 2 2 2.6776 0.0442
-21 2 3 -8.5353 0.2363
-21 2 4 15.0552 0.5217
-21 2 5 -4.2766 0.0198
-21 2 6 5.7641 0.0126
-21 2 7 -2.5154 -0.6948
-21 2 8 6.2586 -0.1927
-21 2 9 -7.4368 -1.4379
-21 2 10 1.3278 -0.7348
-21 2 11 -0.3781 -0.3484
-21 2 12 -5.3735 -0.7400
-21 2 13 4.7792 0.3979
-21 2 14 -5.7110 0.1918
-21 2 15 3.9924 0.6016
-21 2 16 9.9259 -0.1038
-21 3 1 5.0977 -0.1537
-21 3 2 1.2343 -0.2673
-21 3 3 -5.7130 -0.2881
-21 3 4 1.1304 0.1532
-21 3 5 7.5196 0.5874
-21 3 6 -4.3862 0.1604
-21 3 7 18.3165 0.7478
-21 3 8 -15.7610 -0.0015
-21 3 9 -4.3006 0.3219
-21 3 10 -10.6919 0.4302
-21 3 11 4.3930 1.1561
-21 3 12 0.3445 -0.1353
-21 3 13 11.2747 0.2750
-21 3 14 -2.8396 -0.2179
-21 3 15 -10.2563 -0.0794
-21 4 1 1.7355 0.1770
-21 4 2 -4.5986 1.0364
-21 4 3 -0.3541 0.2832
-21 4 4 5.2696 0.1767
-21 4 5 -9.5466 -0.3026
-21 4 6 -5.2713 -0.6201
-21 4 7 -8.7435 0.0819
-21 4 8 7.0193 0.1616
-21 4 9 5.2203 -0.3175
-21 4 10 16.5365 -0.1086
-21 4 11 -2.4909 -0.6822
-21 4 12 5.9742 -0.7307
-21 4 13 3.5778 0.1018
-21 4 14 7.8762 0.0032
-21 4 15 -4.6703 0.0409
-21 5 1 5.7023 0.0885
-21 5 2 -1.0048 0.1225
-21 5 3 -7.2365 0.0376
-21 5 4 -10.8985 0.3186
-21 5 5 -5.1308 0.6661
-21 5 6 -7.8298 0.2605
-21 5 7 -2.1277 0.1523
-21 5 8 -7.3168 -0.5958
-21 5 9 -2.9647 -0.3016
-21 5 10 4.9562 -0.4590
-21 5 11 1.6689 0.1996
-21 5 12 -3.3660 -0.1168
-21 5 13 -9.5103 0.0923
-21 5 14 -7.9098 -0.2600
-21 5 15 -16.8041 0.0233
-21 6 1 3.7363 0.2820
-21 6 2 -5.3293 0.3084
-21 6 3 5.2068 -0.1145
-21 6 4 -15.5316 -0.3968
-21 6 5 -5.2942 -0.5620
-21 6 6 -9.2528 -0.3830
-21 6 7 5.0583 -0.2856
-21 6 8 -1.8521 0.0988
-21 6 9 8.5679 0.4205
-21 6 10 -3.0346 -0.1632
-21 6 11 4.8463 0.1633
-21 6 12 6.5478 0.0741
-21 6 13 0.2651 -0.2417
-21 6 14 2.3866 0.0293
-21 7 1 -0.5409 -0.1126
-21 7 2 -7.9417 0.0703
-21 7 3 2.9826 0.0303
-21 7 4 -2.3487 0.3123
-21 7 5 -9.4637 0.1915
-21 7 6 -0.8275 0.0803
-21 7 7 -21.7901 0.0675
-21 7 8 6.3006 -0.2673
-21 7 9 0.9119 0.1913
-21 7 10 4.6821 -0.1119
-21 7 11 -0.6350 -0.2122
-21 7 12 -4.0339 0.1761
-21 7 13 -22.7771 -0.0818
-21 8 2 -10.9667 -0.0417
-21 8 3 5.3229 0.1968
-21 8 4 -9.4964 -0.0872
-21 8 5 11.1380 -0.3745
-21 8 6 -0.8350 0.0216
-21 8 7 13.5021 0.0207
-21 8 8 0.3140 -0.1155
-21 8 9 -0.7262 0.2382
-21 8 10 -12.0977 0.1892
-21 8 11 3.4641 -0.0229
-21 8 12 8.9790 0.3798
-21 9 3 6.7308 0.2429
-21 9 4 3.6410 0.3844
-21 9 5 -4.4960 -0.0148
-21 9 6 6.1327 0.2497
-21 9 7 -2.5468 -0.1167
-21 9 8 8.7181 -0.2776
-21 9 9 3.4274 0.0624
-21 9 10 -1.3946 0.3341
-21 9 11 4.3191 -0.0970
-21 10 5 1.8940 -0.2060
-21 10 6 14.9761 -0.2520
-21 10 7 0.5367 0.3515
-21 10 8 8.2425 -0.1901
-21 10 9 -5.8490 0.1771
-20 0 2 -2.0485 -0.0107
-20 0 4 3.1778 0.4430
-20 0 6 4.6755 0.8633
-20 0 8 -0.6971 1.6817
-20 0 10 -5.6669 0.5732
-20 0 12 7.3373 -0.4720
-20 0 14 -15.3816 -0.6623
-20 0 16 -17.2628 -0.4651
-20 1 1 -11.2045 0.6011
-20 1 2 4.3078 0.0847
-20 1 3 -7.9219 -0.0258
-20 1 4 -4.0502 -0.1433
-20 1 5 -3.2569 -0.4896
-20 1 6 -11.4664 -0.8142
-20 1 7 9.3366 0.0784
-20 1 8 8.5716 -0.6561
-20 1 9 15.5479 -0.7295
-20 1 10 1.4523 -0.9400
-20 1 11 3.9964 -0.3326
-20 1 12 -3.6117 -0.4715
-20 1 13 -2.7186 0.1133
-20 1 14 18.2116 0.1402
-20 1 15 8.8930 -0.2059
-20 1 16 11.3504 -0.5271
-20 1 17 2.3159 0.3769
-20 2 1 4.7646 -0.4671
-20 2 2 -6.0322 -0.8879
-20 2 3 -3.4561 -0.1938
-20 2 4 -10.0420 0.3117
-20 2 5 6.0209 0.1038
-20 2 6 -1.1956 -0.2188
-20 2 7 8.1436 -0.2168
-20 2 8 -5.6260 -0.1587
-20 2 9 -6.7762 -0.6824
-20 2 10 0.0541 0.8535
-20 2 11 0.0608 0.3266
-20 2 12 0.4305 -0.0983
-20 2 13 -12.5143 0.1804
-20 2 14 0.2196 -0.1279
-20 2 15 -1.8438 0.4687
-20 2 16 -10.7786 0.5942
-20 2 17 25.5761 0.5840
-20 3 1 -3.2595 -0.3653
-20 3 2 8.6492 0.0287
-20 3 3 6.7708 -0.6964
-20 3 4 2.9582 -0.2290
-20 3 5 -4.0715 -0.8602
-20 3 6 3.1359 -0.1836
-20 3 7 -5.2571 0.7146
-20 3 8 11.0732 0.4070
-20 3 9 -3.1297 0.5547
-20 3 10 -1.3863 0.2028
-20 3 11 -2.6761 -0.1230
-20 3 12 0.9346 -0.4323
-20 3 13 4.1245 0.4173
-20 3 14 29.2177 -0.1018
-20 3 15 12.4570 -0.4030
-20 3 16 6.6287 -0.0842
-20 3 17 28.7574 -0.7486
-20 4 1 2.0247 -0.5673
-20 4 2 -6.2052 -0.2989
-20 4 3 21.2822 0.3676
-20 4 4 -7.2407 0.0586
-20 4 5 16.9576 0.3258
-20 4 6 -8.3739 0.0516
-20 4 7 2.0531 -0.0401
-20 4 8 -8.6394 -1.0244
-20 4 9 -1.1022 -0.2492
-20 4 10 4.4572 -0.3338
-20 4 11 1.8819 -0.4041
-20 4 12 1.7567 0.4606
-20 4 13 -8.8039 0.1744
-20 4 14 10.7007 0.2245
-20 4 15 10.9459 -0.0664
-20 4 16 0.7157 0.1583
-20 5 1 1.0200 -0.1242
-20 5 2 2.3880 -0.1059
-20 5 3 12.0572 -0.0127
-20 5 4 11.6421 -0.0770
-20 5 5 1.0505 -0.3860
-20 5 6 22.6346 0.4476
-20 5 7 0.1539 -0.1305
-20 5 8 -4.3831 0.3494
-20 5 9 -11.9200 0.6988
-20 5 10 -14.2874 0.5875
-20 5 11 2.6198 -0.0061
-20 5 12 11.1313 0.4508
-20 5 13 8.5618 -0.1087
-20 5 14 7.1962 -0.0200
-20 5 15 14.2223 0.0126
-20 5 16 -3.9831 0.5358
-20 6 1 -0.2642 -0.0942
-20 6 2 0.0443 -0.1815
-20 6 3 19.2685 0.0145
-20 6 4 5.7201 0.0080
-20 6 5 6.7255 -0.0294
-20 6 6 -2.2129 0.0810
-20 6 7 -5.5189 -0.0432
-20 6 8 1.8029 -0.4407
-20 6 9 7.3726 0.1023
-20 6 10 2.1847 -0.2933
-20 6 11 0.9113 -0.3004
-20 6 12 5.2315 0.3732
-20 6 13 -1.1578 0.2781
-20 6 14 4.2944 0.1999
-20 6 15 1.6013 0.1892
-20 6 16 4.0272 -0.1492
-20 7 1 4.4227 0.3748
-20 7 2 -6.0038 -0.1381
-20 7 3 4.0572 0.0930
-20 7 4 -5.3825 0.1043
-20 7 5 5.8328 -0.0731
-20 7 6 -4.2967 0.4309
-20 7 7 1.9617 -0.0111
-20 7 8 -14.8539 0.1775
-20 7 9 -5.9045 0.0050
-20 7 10 -10.7928 0.1687
-20 7 11 -6.5428 -0.0919
-20 7 12 2.4781 0.2372
-20 7 13 -3.5188 -0.2264
-20 7 14 -7.1065 0.0168
-20 7 15 -2.5832 -0.1466
-20 8 1 0.7888 -0.1838
-20 8 2 7.3133 -0.1718
-20 8 3 -8.1301 -0.0412
-20 8 4 1.6643 0.1219
-20 8 5 -20.8641 0.1700
-20 8 6 6.1231 -0.2374
-20 8 7 -8.0832 -0.0649
-20 8 8 5.9734 -0.0334
-20 8 9 6.4062 -0.2993
-20 8 10 3.3209 0.2026
-20 8 11 6.1911 -0.0418
-20 8 12 -1.4871 -0.0054
-20 8 13 1.1352 0.0338
-20 8 14 1.4532 0.0315
-20 9 1 -1.6541 0.2472
-20 9 2 1.8274 0.0497
-20 9 3 -8.9690 -0.1129
-20 9 4 -15.4795 -0.1995
-20 9 5 -4.7271 0.1271
-20 9 6 -14.1837 0.0649
-20 9 7 -4.9035 0.3147
-20 9 8 -5.4997 0.4240
-20 9 9 -2.2564 -0.1492
-20 9 10 1.3210 0.1545
-20 9 11 -8.7617 -0.1005
-20 9 12 -16.1153 -0.1807
-20 9 13 -0.6259 -0.0990
-20 9 14 -6.2329 -0.0746
-20 10 1 -8.7020 0.3493
-20 10 2 9.5111 0.0338
-20 10 3 -11.8984 0.3137
-20 10 4 1.5497 0.3675
-20 10 5 -2.9719 0.1030
-20 10 6 3.0087 0.0788
-20 10 7 0.9154 -0.2292
-20 10 8 -2.1395 0.1329
-20 10 9 5.6816 -0.1523
-20 10 10 7.8577 0.0173
-20 10 11 2.0843 -0.0054
-20 10 12 2.2009 0.0627
-20 11 3 -9.8783 -0.0199
-20 11 4 -0.8468 0.0322
-20 11 5 -7.7184 0.1158
-20 11 6 2.6470 0.0562
-20 11 7 -5.6921 0.1145
-20 11 8 2.3926 0.0774
-20 11 9 -1.7133 0.0171
-20 11 10 -6.5734 -0.0755
-20 11 11 6.0906 0.0436
-20 12 5 17.7512 -0.2189
-20 12 6 -3.3243 0.0612
-20 12 7 6.1233 -0.7315
-20 12 8 1.5273 0.1682
-19 0 2 7.5299 0.1241
-19 0 4 -9.6667 0.1296
-19 0 6 -10.7572 0.6008
-19 0 8 12.6043 1.2459
-19 0 10 -0.8904 0.3937
-19 0 12 -3.2878 -0.0451
-19 0 14 25.3816 -0.7504
-19 0 16 -7.3172 -1.5701
-19 0 18 -23.2960 -0.6935
-19 1 1 -1.4482 -0.3495
-19 1 2 0.8155 0.4777
-19 1 3 5.3157 -0.1811
-19 1 4 4.9013 0.6645
-19 1 5 9.5360 -0.3107
-19 1 6 3.2636 -0.9592
-19 1 7 -5.6366 -0.6066
-19 1 8 2.2650 -0.7491
-19 1 9 1.1539 -0.5544
-19 1 10 6.8455 0.0659
-19 1 11 16.0893 0.5485
-19 1 12 -11.3054 -0.5902
-19 1 13 -15.2577 0.4165
-19 1 14 -6.6391 0.3292
-19 1 15 -21.3270 -0.0346
-19 1 16 -10.8763 1.0870
-19 1 17 16.6341 0.3348
-19 1 18 -6.2440 0.3457
-19 2 1 4.0125 0.0805
-19 2 2 -3.9495 0.0902
-19 2 3 12.4253 0.3098
-19 2 4 -5.9703 -0.1115
-19 2 5 9.7608 0.7160
-19 2 6 4.0499 0.2288
-19 2 7 -4.1783 1.6893
-19 2 8 3.1270 0.6709
-19 2 9 -19.3543 0.7851
-19 2 10 -6.5678 0.8547
-19 2 11 -8.1862 -0.5241
-19 2 12 -5.7143 -0.1874
-19 2 13 -9.3128 -0.3657
-19 2 14 -0.1989 -0.0054
-19 2 15 -26.6950 -0.6104
-19 2 16 -13.4804 -0.4655
-19 2 17 -16.1472 -0.2577
-19 2 18 -16.0904 -1.0603
-19 3 1 2.1355 0.1149
-19 3 2 -9.4341 -0.1309
-19 3 3 3.9753 0.1089
-19 3 4 1.7983 -0.2561
-19 3 5 -4.2619 -0.5783
-19 3 6 -1.8173 0.1577
-19 3 7 3.5857 -0.7334
-19 3 8 7.8561 -0.9136
-19 3 9 9.3558 -0.8251
-19 3 10 8.9264 -0.2625
-19 3 11 -2.3487 -0.5211
-19 3 12 -12.2565 0.2184
-19 3 13 -3.6717 0.2929
-19 3 14 -19.1094 -0.3274
-19 3 15 -5.2517 -0.2012
-19 3 16 4.2377 0.3222
-19 3 17 -9.9865 0.7355
-19 3 18 7.3129 0.5492
-19 4 1 -4.7848 -0.0764
-19 4 2 -10.2841 0.1097
-19 4 3 -19.1733 0.3484
-19 4 4 0.0879 0.0848
-19 4 5 -10.5219 0.0691
-19 4 6 11.8962 0.1658
-19 4 7 1.9320 0.2342
-19 4 8 -10.2854 -0.0773
-19 4 9 -0.7912 0.9042
-19 4 10 -14.7789 0.1629
-19 4 11 -5.5612 -0.3201
-19 4 12 -10.4541 -0.1426
-19 4 13 -0.4810 -0.4210
-19 4 14 -18.1063 -0.0093
-19 4 15 -11.6107 0.1166
-19 4 16 3.8805 0.8267
-19 4 17 -21.3137 -0.3072
-19 4 18 -6.9240 0.3634
-19 5 1 5.1683 0.2753
-19 5 2 -10.8697 -0.5453
-19 5 3 -2.0272 -0.2140
-19 5 4 -12.2618 -0.4577
-19 5 5 2.6007 -0.1201
-19 5 6 -1.8900 0.1215
-19 5 7 10.8620 -0.1442
-19 5 8 14.0776 -0.1234
-19 5 9 14.6553 -0.1646
-19 5 10 11.5940 -0.2337
-19 5 11 -9.6179 -0.4066
-19 5 12 2.5071 0.2485
-19 5 13 6.1899 -0.1623
-19 5 14 -3.4884 -0.2063
-19 5 15 -3.6548 0.3962
-19 5 16 20.6201 -0.4832
-19 5 17 -4.8640 0.1102
-19 6 1 -4.7012 0.5732
-19 6 2 8.7952 0.0953
-19 6 3 -18.1111 0.0464
-19 6 4 9.2738 0.1157
-19 6 5 -3.7940 0.1812
-19 6 6 1.6694 0.1381
-19 6 7 2.7961 -0.1620
-19 6 8 -9.1594 0.1899
-19 6 9 10.7789 -0.3952
-19 6 10 -7.8779 -0.3817
-19 6 11 -0.2225 -0.0931
-19 6 12 -4.5016 -0.1830
-19 6 13 6.1345 -0.2965
-19 6 14 -1.1641 -0.0698
-19 6 15 -3.8700 0.0816
-19 6 16 10.3667 0.0570
-19 6 17 -2.4787 0.1341
-19 7 1 1.1621 0.0117
-19 7 2 14.0953 0.0406
-19 7 3 -0.5634 0.0844
-19 7 4 5.9647 -0.0864
-19 7 5 5.6670 0.2462
-19 7 6 12.1930 -0.6475
-19 7 7 -1.0332 -0.1904
-19 7 8 5.6610 0.1614
-19 7 9 4.4181 -0.2453
-19 7 10 4.7695 0.0274
-19 7 11 10.7072 0.2343
-19 7 12 -0.6309 -0.2525
-19 7 13 4.9723 -0.0062
-19 7 14 8.4423 0.1167
-19 7 15 -5.1733 0.2676
-19 7 16 7.1216 -0.0181
-19 8 1 2.2005 0.2717
-19 8 2 19.6325 -0.3433
-19 8 3 7.0423 -0.1666
-19 8 4 5.3331 -0.2549
-19 8 5 13.9130 -0.0877
-19 8 6 -3.8398 -0.1143
-19 8 7 0.0035 -0.0223
-19 8 8 1.1259 0.0428
-19 8 9 -8.2120 -0.3602
-19 8 10 3.0195 -0.1567
-19 8 11 -3.2761 0.0916
-19 8 12 2.0099 -0.0128
-19 8 13 4.5495 0.1254
-19 8 14 3.0281 0.2467
-19 8 15 1.6879 0.2201
-19 8 16 -0.8775 -0.0638
-19 9 1 -8.7414 -0.0285
-19 9 2 13.0281 -0.1077
-19 9 3 -6.7900 0.1792
-19 9 4 19.4187 -0.0515
-19 9 5 0.9291 -0.0869
-19 9 6 2.5847 -0.1995
-19 9 7 -11.6240 -0.2168
-19 9 8 -7.7013 0.0018
-19 9 9 -3.3652 0.0253
-19 9 10 -11.5404 0.1147
-19 9 11 5.9906 0.1786
-19 9 12 -3.9843 0.1461
-19 9 13 1.6413 0.2753
-19 9 14 0.1498 -0.0221
-19 9 15 -6.7418 -0.1657
-19 10 1 6.1017 -0.4215
-19 10 2 7.2019 -0.0727
-19 10 3 2.8496 -0.0679
-19 10 4 -4.7774 -0.0240
-19 10 5 1.2049 0.0195
-19 10 6 -2.7820 0.3317
-19 10 7 -3.2349 -0.0974
-19 10 8 5.8272 -0.1120
-19 10 9 -10.7200 0.0048
-19 10 10 -3.2035 -0.1310
-19 10 11 8.6717 0.1263
-19 10 12 -1.1865 0.0516
-19 10 13 2.5371 -0.0180
-19 10 14 -2.3622 0.1885
-19 11 1 -3.9169 -0.0622
-19 11 2 -13.3679 -0.0974
-19 11 3 -6.5701 0.0489
-19 11 4 -7.6184 0.0940
-19 11 5 -0.0663 -0.1985
-19 11 6 -17.8200 0.0038
-19 11 7 -0.3178 -0.2654
-19 11 8 1.7583 0.1476
-19 11 9 -7.7821 0.3480
-19 11 10 -0.2402 -0.0344
-19 11 11 -17.5887 0.2009
-19 11 12 1.5489 0.1938
-19 11 13 -3.8907 0.1876
-19 12 1 6.2652 -0.4301
-19 12 2 -2.4080 0.1682
-19 12 3 -4.2635 -0.2272
-19 12 4 3.4748 -0.1015
-19 12 5 -4.8469 0.3538
-19 12 6 4.0145 0.2161
-19 12 7 1.2082 0.2565
-19 12 8 -0.1837 0.0736
-19 12 9 4.4071 -0.0937
-19 12 10 -0.8979 -0.0151
-19 12 11 13.3596 0.4157
-19 12 12 -1.0100 0.1129
-19 13 3 5.9078 0.3697
-19 13 4 -9.2095 0.0919
-19 13 5 -4.2050 -0.1784
-19 13 6 -10.4106 -0.1481
-19 13 7 2.8251 -0.1327
-19 13 8 6.9409 0.5196
-19 13 9 -6.9741 0.0974
-19 13 10 3.4692 0.2559
-18 0 2 -16.0363 -0.1491
-18 0 4 -12.4353 -0.8173
-18 0 6 -7.3369 -2.1559
-18 0 8 13.5788 -1.1421
-18 0 10 18.6191 0.2865
-18 0 12 5.6364 0.3652
-18 0 14 3.0967 0.9191
-18 0 16 16.3248 0.9844
-18 0 18 13.2238 0.1023
-18 1 1 4.8917 0.1300
-18 1 2 -10.8460 -0.1677
-18 1 3 -12.6581 0.3239
-18 1 4 3.8966 0.5235
-18 1 5 -3.1143 -0.1313
-18 1 6 7.2732 0.8195
-18 1 7 -8.2599 0.7933
-18 1 8 7.5919 0.8374
-18 1 9 -19.9351 0.5073
-18 1 10 11.7559 0.7181
-18 1 11 0.3763 -0.3006
-18 1 12 10.0100 -0.3656
-18 1 13 25.7925 0.4604
-18 1 14 -4.7410 0.3023
-18 1 15 7.5787 -0.0667
-18 1 16 12.2876 -0.5884
-18 1 17 -26.2638 -0.7538
-18 1 18 22.7245 -0.8282
-18 1 19 -6.4770 -0.1006
-18 2 1 -0.5865 0.3499
-18 2 2 1.2461 -0.0810
-18 2 3 -17.5846 0.1895
-18 2 4 1.8998 0.0001
-18 2 5 -13.2260 0.1282
-18 2 6 -9.6487 0.3948
-18 2 7 20.3728 0.3819
-18 2 8 0.6333 -1.3691
-18 2 9 21.2544 0.1699
-18 2 10 9.1451 -0.2973
-18 2 11 7.5410 0.0733
-18 2 12 8.9289 0.2547
-18 2 13 19.6106 -0.3720
-18 2 14 -4.3692 -0.4325
-18 2 15 20.2758 -1.3428
-18 2 16 23.9711 0.4982
-18 2 17 -11.6731 -0.7638
-18 2 18 13.5148 0.4204
-18 2 19 1.7627 0.1403
-18 3 1 8.3173 0.7580
-18 3 2 2.0199 0.1030
-18 3 3 -1.5107 0.8965
-18 3 4 11.3734 -0.1894
-18 3 5 -5.4027 -0.5105
-18 3 6 4.5157 -0.2231
-18 3 7 -4.8443 -0.3883
-18 3 8 1.0786 -0.1832
-18 3 9 4.1437 0.4164
-18 3 10 12.5637 0.2169
-18 3 11 -0.2624 -0.4966
-18 3 12 9.9563 0.5263
-18 3 13 12.9372 0.0908
-18 3 14 -4.5424 0.0265
-18 3 15 7.4204 0.6088
-18 3 16 11.7298 0.3256
-18 3 17 -12.1479 -0.2786
-18 3 18 20.0620 0.0414
-18 3 19 -7.3674 -0.1003
-18 4 1 -0.3357 0.2801
-18 4 2 16.1897 -0.1675
-18 4 3 -7.8946 -0.3246
-18 4 4 2.0184 0.1247
-18 4 5 -0.1687 0.1152
-18 4 6 -9.1138 0.8463
-18 4 7 0.5976 0.1089
-18 4 8 -8.6348 0.4109
-18 4 9 1.3971 0.7020
-18 4 10 2.8838 -0.1244
-18 4 11 -7.1728 0.2034
-18 4 12 2.6165 0.1093
-18 4 13 -1.8050 -0.1183
-18 4 14 1.3617 -0.4727
-18 4 15 -7.1172 -0.1160
-18 4 16 3.8350 -0.9541
-18 4 17 -18.4024 -1.0584
-18 4 18 9.5223 -0.0780
-18 4 19 -16.1669 -0.3410
-18 5 1 -7.8694 0.0953
-18 5 2 19.3977 0.0047
-18 5 3 0.7166 -0.1321
-18 5 4 11.5111 -0.5143
-18 5 5 0.1099 0.2956
-18 5 6 -4.9877 -0.3684
-18 5 7 0.0826 -0.3527
-18 5 8 -12.1116 -0.0700
-18 5 9 4.6488 -0.1344
-18 5 10 -10.5919 -0.3201
-18 5 11 7.2760 0.4555
-18 5 12 2.0661 0.3922
-18 5 13 -7.8289 -0.3594
-18 5 14 0.3908 0.1602
-18 5 15 -0.6217 -0.1511
-18 5 16 -6.9768 0.2976
-18 5 17 13.2223 -0.0293
-18 5 18 -1.2361 0.3770
-18 6 1 -10.8615 -0.1264
-18 6 2 -4.1883 0.1094
-18 6 3 -1.9254 0.1575
-18 6 4 -8.0056 0.1413
-18 6 5 -5.5607 0.3043
-18 6 6 0.0216 -0.1224
-18 6 7 -21.8467 0.1031
-18 6 8 5.7053 0.7600
-18 6 9 -22.8772 0.3465
-18 6 10 -0.0319 0.0471
-18 6 11 -8.4595 0.1358
-18 6 12 -5.5134 -0.3240
-18 6 13 -13.2658 -0.2075
-18 6 14 6.4290 -0.0656
-18 6 15 -0.8991 0.0012
-18 6 16 -6.2786 -0.4031
-18 6 17 -11.3511 0.1436
-18 6 18 5.2367 0.1538
-18 7 1 -15.3963 -0.2060
-18 7 2 0.7710 -0.4174
-18 7 3 -7.1043 -0.1554
-18 7 4 -3.7794 -0.1379
-18 7 5 8.5719 0.1279
-18 7 6 1.4174 0.0715
-18 7 7 15.2704 0.0777
-18 7 8 10.4222 -0.0333
-18 7 9 -1.6330 -0.1719
-18 7 10 2.5704 -0.0538
-18 7 11 2.9349 0.1429
-18 7 12 4.2042 -0.0733
-18 7 13 -5.4061 -0.0415
-18 7 14 1.2361 0.3233
-18 7 15 10.9591 -0.0427
-18 7 16 -1.3019 0.1673
-18 7 17 7.7549 0.0201
-18 8 1 -11.7459 -0.3468
-18 8 2 -13.9178 0.1442
-18 8 3 -6.8247 0.1456
-18 8 4 8.3112 0.1032
-18 8 5 -6.7564 -0.0457
-18 8 6 5.4973 0.2376
-18 8 7 -4.8941 0.1342
-18 8 8 11.6042 0.1140
-18 8 9 -2.2436 0.0730
-18 8 10 -11.5382 -0.0752
-18 8 11 1.6719 -0.2225
-18 8 12 -2.2691 -0.1646
-18 8 13 1.5074 -0.2041
-18 8 14 1.6053 -0.1054
-18 8 15 -1.5552 -0.5504
-18 8 16 2.3797 0.3166
-18 8 17 10.8051 0.3388
-18 9 1 7.1173 -0.2551
-18 9 2 -4.9507 0.0683
-18 9 3 9.2766 -0.0262
-18 9 4 -6.1828 0.1057
-18 9 5 12.0304 -0.0176
-18 9 6 6.5447 0.1874
-18 9 7 10.7885 0.0440
-18 9 8 23.6273 -0.3891
-18 9 9 -5.9805 0.0611
-18 9 10 26.8672 -0.1321
-18 9 11 0.3790 -0.2696
-18 9 12 3.8653 -0.0593
-18 9 13 -5.8364 -0.1600
-18 9 14 -4.7036 0.2260
-18 9 15 6.7324 0.1368
-18 9 16 1.0217 0.4315
-18 10 1 7.9940 -0.3059
-18 10 2 0.0998 0.2548
-18 10 3 6.0154 -0.1217
-18 10 4 7.8032 -0.0663
-18 10 5 2.2642 -0.2796
-18 10 6 -4.5353 -0.1120
-18 10 7 12.5963 -0.1379
-18 10 8 2.4443 0.1073
-18 10 9 1.7600 -0.0363
-18 10 10 0.2774 -0.1351
-18 10 11 -10.0210 -0.2369
-18 10 12 -1.6910 -0.0117
-18 10 13 -0.3464 -0.1213
-18 10 14 -3.9218 -0.0251
-18 10 15 4.4000 -0.0365
-18 10 16 -9.1392 0.0284
-18 11 1 5.5726 -0.2171
-18 11 2 -1.1849 -0.0414
-18 11 3 8.1534 -0.3771
-18 11 4 9.9179 -0.1638
-18 11 5 0.9989 0.1377
-18 11 6 4.7265 0.0078
-18 11 7 -5.7152 -0.0094
-18 11 8 -7.2277 -0.1375
-18 11 9 1.0017 -0.2313
-18 11 10 6.9481 -0.0223
-18 11 11 5.8382 0.0024
-18 11 12 -1.0987 0.0838
-18 11 13 -1.7154 -0.1793
-18 11 14 -3.1210 0.2362
-18 11 15 -13.8108 -0.0327
-18 12 1 16.5758 0.2069
-18 12 2 1.0655 0.1968
-18 12 3 15.4297 0.2821
-18 12 4 -8.3467 0.1783
-18 12 5 0.0386 -0.1269
-18 12 6 -6.9041 -0.1607
-18 12 7 4.5366 0.2377
-18 12 8 0.9934 0.0320
-18 12 9 -13.8665 -0.2311
-18 12 10 12.4742 -0.0636
-18 12 11 -14.0894 -0.3216
-18 12 12 0.4660 -0.2110
-18 12 13 -1.3321 -0.1532
-18 12 14 -8.5407 -0.1685
-18 13 1 -13.9026 -0.0901
-18 13 2 -8.7743 -0.1247
-18 13 3 -9.7556 -0.0213
-18 13 4 4.8285 0.2412
-18 13 5 -4.6601 0.3885
-18 13 6 2.2135 -0.2443
-18 13 7 -0.1611 -0.0448
-18 13 8 -18.2158 -0.5169
-18 13 9 6.9002 -0.2905
-18 13 10 -10.2458 0.2501
-18 13 11 -0.1155 -0.3600
-18 13 12 -0.5928 -0.1341
-18 14 1 9.8759 0.6285
-18 14 2 2.1422 0.1623
-18 14 3 5.4106 0.3450
-18 14 4 -5.7882 -0.0646
-18 14 5 -1.9669 -0.3959
-18 14 6 6.6744 0.2363
-18 14 7 -3.1394 0.4029
-18 14 8 -0.1152 -0.2579
-18 14 9 2.8688 -0.1815
-18 14 10 -0.5425 0.0783
-18 14 11 -1.7406 -0.4464
-18 15 5 0.9490 0.1483
-18 15 6 -2.3627 0.0076
-18 15 7 -0.3696 -0.0017
-18 15 8 -0.6011 -0.5421
-17 0 2 26.0061 -0.2681
-17 0 4 31.6285 -0.6624
-17 0 6 -5.7001 -0.9645
-17 0 8 -11.3226 -0.5230
-17 0 10 -14.1622 -0.0462
-17 0 12 -6.6367 0.5451
-17 0 14 -5.5175 1.7926
-17 0 16 4.7123 1.0562
-17 0 18 32.5074 0.1640
-17 0 20 7.6319 -0.5666
-17 1 1 13.0909 -0.2047
-17 1 2 3.8705 -1.0228
-17 1 3 -2.7141 0.4460
-17 1 4 -1.0662 0.4097
-17 1 5 -15.7206 0.9068
-17 1 6 -12.9750 1.0237
-17 1 7 -7.9666 0.5060
-17 1 8 -28.6432 -0.4289
-17 1 9 -14.4248 -0.0433
-17 1 10 -11.8503 0.6161
-17 1 11 -12.7072 -0.5466
-17 1 12 0.7228 0.0417
-17 1 13 -13.2316 -0.4113
-17 1 14 0.0232 -0.8590
-17 1 15 7.3969 -0.7588
-17 1 16 -14.4543 -0.0473
-17 1 17 -9.7300 -0.5814
-17 1 18 -17.4824 0.0063
-17 1 19 -18.5291 0.5694
-17 1 20 2.9418 0.1759
-17 2 1 -10.8467 -0.2114
-17 2 2 15.2432 0.3685
-17 2 3 -3.1944 -0.4745
-17 2 4 18.1733 -0.4319
-17 2 5 -19.3123 -1.8263
-17 2 6 8.0780 -0.6272
-17 2 7 -13.2375 -0.9430
-17 2 8 -3.8015 -0.5007
-17 2 9 -0.0659 0.2828
-17 2 10 -1.5896 -0.0425
-17 2 11 0.8455 0.1571
-17 2 12 -2.9311 0.4529
-17 2 13 -9.1865 0.8199
-17 2 14 5.4482 0.0419
-17 2 15 -17.7361 1.2929
-17 2 16 1.1703 1.2819
-17 2 17 0.3658 0.1682
-17 2 18 16.5124 0.4412
-17 2 19 -22.0153 -0.3823
-17 2 20 14.7766 -0.0454
-17 3 1 -13.9183 -0.1964
-17 3 2 -1.8645 0.1660
-17 3 3 -2.3258 0.2060
-17 3 4 -14.7922 -0.0919
-17 3 5 7.9700 1.0753
-17 3 6 -15.2728 0.6202
-17 3 7 10.1007 0.6123
-17 3 8 -24.7951 0.5683
-17 3 9 2.1698 0.6002
-17 3 10 -6.5243 -0.3427
-17 3 11 -9.8771 -0.4311
-17 3 12 7.8446 0.3069
-17 3 13 -12.8360 -0.1811
-17 3 14 23.0943 0.0407
-17 3 15 -10.1444 -0.3515
-17 3 16 -24.9250 -0.7394
-17 3 17 11.6967 -0.5747
-17 3 18 -20.6749 0.1506
-17 3 19 2.8177 0.0028
-17 4 1 -12.3812 -0.1285
-17 4 2 -8.1250 0.2400
-17 4 3 -1.1396 -0.2927
-17 4 4 5.1820 -0.1468
-17 4 5 -10.3011 0.2641
-17 4 6 25.3279 -0.1880
-17 4 7 1.3414 -0.9598
-17 4 8 12.3561 -0.0379
-17 4 9 6.8078 -0.4009
-17 4 10 5.2532 -0.0548
-17 4 11 19.3570 0.4231
-17 4 12 6.2175 0.1411
-17 4 13 -8.0867 -0.2988
-17 4 14 0.3318 -0.2086
-17 4 15 -0.3997 0.4624
-17 4 16 -8.8132 0.0678
-17 4 17 19.0190 0.4112
-17 4 18 -10.5651 0.1284
-17 4 19 -3.0563 -0.2343
-17 5 1 -6.7915 0.2819
-17 5 2 -10.0051 0.7180
-17 5 3 9.3899 0.1976
-17 5 4 -11.7656 0.1472
-17 5 5 1.5368 0.1908
-17 5 6 4.6596 -0.3988
-17 5 7 -0.0516 0.0636
-17 5 8 19.7741 0.4611
-17 5 9 -2.5442 -0.1136
-17 5 10 12.7930 -0.3972
-17 5 11 -5.9419 0.0145
-17 5 12 9.3077 -0.1962
-17 5 13 -5.6623 -0.0532
-17 5 14 14.9527 0.1332
-17 5 15 -4.3259 0.1046
-17 5 16 2.4192 -0.1276
-17 5 17 4.0674 0.4272
-17 5 18 -1.7016 0.1245
-17 5 19 4.8128 -0.2120
-17 6 1 4.4170 -0.0834
-17 6 2 -10.8003 -0.3074
-17 6 3 -1.9069 -0.1569
-17 6 4 -11.1469 -0.0303
-17 6 5 -0.5031 0.0276
-17 6 6 0.3348 -0.0677
-17 6 7 10.9700 -0.1068
-17 6 8 4.7982 0.1484
-17 6 9 15.1900 -0.2835
-17 6 10 4.7128 0.2944
-17 6 11 2.4234 0.1894
-17 6 12 -2.7519 0.0716
-17 6 13 -3.4713 -0.0319
-17 6 14 -8.8518 0.3492
-17 6 15 5.0072 -0.4265
-17 6 16 -21.2154 -0.3987
-17 6 17 4.7562 -0.1528
-17 6 18 -27.4336 -0.3378
-17 6 19 13.0557 0.1582
-17 7 1 7.1411 0.0031
-17 7 2 -5.4642 0.1958
-17 7 3 4.6030 -0.1575
-17 7 4 8.3487 0.2237
-17 7 5 -12.4530 -0.2883
-17 7 6 6.6019 -0.0569
-17 7 7 -16.4228 0.1950
-17 7 8 8.6786 -0.0843
-17 7 9 -8.2137 -0.1234
-17 7 10 -2.0207 0.2645
-17 7 11 -2.2034 0.0387
-17 7 12 3.0857 -0.0794
-17 7 13 0.3003 -0.1040
-17 7 14 -7.3051 -0.2706
-17 7 15 -13.8655 -0.2927
-17 7 16 6.5126 0.1881
-17 7 17 6.1887 0.0956
-17 7 18 -0.5758 -0.3998
-17 8 1 5.8758 -0.1208
-17 8 2 -8.1595 0.1042
-17 8 3 3.5415 -0.1090
-17 8 4 -25.1514 0.2529
-17 8 5 0.4486 -0.1201
-17 8 6 -23.7683 0.1018
-17 8 7 -8.6834 0.1259
-17 8 8 -11.0040 0.0403
-17 8 9 -11.0578 0.0154
-17 8 10 15.8261 0.2240
-17 8 11 -10.4372 -0.1895
-17 8 12 -2.3637 -0.0449
-17 8 13 0.1203 0.1212
-17 8 14 -5.6645 -0.0621
-17 8 15 4.9075 -0.0981
-17 8 16 -21.3468 -0.0996
-17 8 17 -5.0892 -0.2457
-17 8 18 -16.5754 -0.0519
-17 9 1 1.8173 -0.0435
-17 9 2 -0.0850 0.4489
-17 9 3 -8.0117 0.0619
-17 9 4 5.6433 0.1564
-17 9 5 -4.5931 -0.2361
-17 9 6 0.5979 0.0471
-17 9 7 11.3950 -0.0745
-17 9 8 -15.6745 0.0994
-17 9 9 10.2596 -0.0355
-17 9 10 -9.6798 0.1300
-17 9 11 -1.4516 -0.0471
-17 9 12 -0.1747 0.0616
-17 9 13 0.4326 -0.0867
-17 9 14 5.0684 -0.1151
-17 9 15 5.5215 -0.0083
-17 9 16 -6.5339 -0.0832
-17 9 17 4.3753 -0.2272
-17 10 1 -4.3383 0.0642
-17 10 2 -15.3017 -0.3255
-17 10 3 3.3391 -0.3089
-17 10 4 1.0238 -0.0219
-17 10 5 2.8236 0.1940
-17 10 6 0.7394 0.0111
-17 10 7 -12.3087 0.1010
-17 10 8 -10.4933 -0.0050
-17 10 9 -11.2885 -0.0393
-17 10 10 5.0564 0.1139
-17 10 11 -1.6608 0.0201
-17 10 12 9.5628 0.0714
-17 10 13 11.9183 0.0921
-17 10 14 1.8433 -0.0286
-17 10 15 -1.7733 0.0186
-17 10 16 -4.2984 -0.1465
-17 10 17 2.1729 -0.0183
-17 11 1 12.5213 0.1716
-17 11 2 4.1121 0.2879
-17 11 3 5.2029 0.0474
-17 11 4 -3.8601 0.0996
-17 11 5 5.9523 -0.1456
-17 11 6 4.9029 0.0659
-17 11 7 24.6518 0.0684
-17 11 8 -0.3823 0.1557
-17 11 9 11.1356 -0.1374
-17 11 10 1.9251 0.1053
-17 11 11 -0.9545 -0.0036
-17 11 12 -3.0365 -0.2142
-17 11 13 3.8578 0.0536
-17 11 14 -8.0649 -0.1912
-17 11 15 14.4864 0.0804
-17 11 16 3.2952 -0.0806
-17 12 1 -2.8416 -0.2052
-17 12 2 -1.7150 -0.6114
-17 12 3 -1.1604 -0.0612
-17 12 4 14.3581 0.0450
-17 12 5 -1.8562 0.1079
-17 12 6 7.9904 -0.1720
-17 12 7 4.9011 -0.0240
-17 12 8 -15.5971 -0.0871
-17 12 9 20.4099 0.1275
-17 12 10 -17.9369 0.1830
-17 12 11 0.3379 -0.0722
-17 12 12 1.4005 -0.1260
-17 12 13 -4.2120 0.3671
-17 12 14 10.9007 0.0217
-17 12 15 -2.8990 0.0042
-17 13 1 13.2369 0.2917
-17 13 2 -0.8227 -0.0008
-17 13 3 9.9373 -0.4347
-17 13 4 -8.3453 -0.2694
-17 13 5 0.3889 -0.3892
-17 13 6 7.1253 0.2463
-17 13 7 -4.9562 0.2293
-17 13 8 9.1030 -0.1041
-17 13 9 3.8592 0.1339
-17 13 10 2.1466 0.0767
-17 13 11 -0.0066 0.1955
-17 13 12 1.5826 0.0747
-17 13 13 -2.5420 0.0939
-17 13 14 -9.8604 -0.3014
-17 14 1 -0.4138 -0.7348
-17 14 2 7.6894 -0.0737
-17 14 3 3.5807 0.0433
-17 14 4 1.8923 0.0602
-17 14 5 -2.8532 0.1989
-17 14 6 -6.9934 0.0439
-17 14 7 1.3848 -0.0216
-17 14 8 -6.5889 0.2415
-17 14 9 14.2518 0.5099
-17 14 10 -10.0156 -0.2794
-17 14 11 2.1442 0.0174
-17 14 12 -3.0557 -0.0441
-17 14 13 -11.2220 -0.0576
-17 15 1 -9.0246 0.3588
-17 15 2 -5.5669 -0.0665
-17 15 3 -6.1014 -0.2195
-17 15 4 -3.0173 -0.0774
-17 15 5 -3.9830 0.2686
-17 15 6 6.6782 0.1444
-17 15 7 -2.6238 -0.3598
-17 15 8 0.3709 -0.0736
-17 15 9 1.5090 0.0899
-17 15 10 -5.5185 -0.4377
-17 15 11 0.8284 0.6760
-17 16 3 3.8218 -0.2601
-17 16 4 4.0562 -0.0409
-17 16 5 6.0925 -0.1748
-17 16 6 -1.8242 -0.1056
-17 16 7 -5.1575 -0.0710
-17 16 8 3.8231 0.5687
-16 0 2 3.2316 0.5053
-16 0 4 19.4948 2.5357
-16 0 6 35.1021 1.7651
-16 0 8 -3.3227 -0.3923
-16 0 10 1.6776 -0.2475
-16 0 12 -0.9080 -1.0430
-16 0 14 17.7169 -1.2998
-16 0 16 5.4741 -0.3010
-16 0 18 -4.3444 0.5733
-16 0 20 18.5808 0.2470
-16 1 1 -21.6655 0.0518
-16 1 2 2.3383 0.1110
-16 1 3 9.3332 0.4846
-16 1 4 -3.7636 -0.6757
-16 1 5 15.7625 -0.8746
-16 1 6 5.7839 -0.9713
-16 1 7 26.5508 -0.5919
-16 1 8 -1.3743 -0.8273
-16 1 9 19.4607 0.1410
-16 1 10 7.1666 0.2443
-16 1 11 -4.0883 -0.4168
-16 1 12 -1.3840 0.1209
-16 1 13 -12.2507 -0.0978
-16 1 14 13.6044 0.0217
-16 1 15 -13.9185 1.1585
-16 1 16 16.0759 0.9525
-16 1 17 20.8078 0.3448
-16 1 18 -8.8856 -0.1540
-16 1 19 -2.5595 -0.1415
-16 1 20 0.8186 0.2076
-16 2 1 15.0363 0.1597
-16 2 2 -3.9611 0.0809
-16 2 3 22.2298 -0.1722
-16 2 4 -5.4967 -0.1687
-16 2 5 19.4135 -0.0399
-16 2 6 6.2672 1.0268
-16 2 7 18.9686 -0.1877
-16 2 8 1.0759 0.5401
-16 2 9 4.3536 -0.0381
-16 2 10 -0.8834 -0.4163
-16 2 11 -15.8201 0.0895
-16 2 12 3.1426 0.6267
-16 2 13 15.8194 1.0933
-16 2 14 11.9244 -0.1796
-16 2 15 12.7217 0.6435
-16 2 16 -3.6482 -0.8004
-16 2 17 36.0214 0.2750
-16 2 18 -8.7108 0.1557
-16 2 19 27.3885 -0.5252
-16 2 20 -2.1505 -0.4821
-16 3 1 -0.0999 -0.9188
-16 3 2 1.9788 0.0608
-16 3 3 1.5948 -0.2952
-16 3 4 -0.5969 0.3236
-16 3 5 -14.1743 0.6014
-16 3 6 5.8164 -0.0269
-16 3 7 -22.5734 -0.4762
-16 3 8 -6.4549 -0.1463
-16 3 9 -10.5089 0.4132
-16 3 10 -10.5042 -0.1505
-16 3 11 5.0272 0.3002
-16 3 12 -3.9928 -0.2155
-16 3 13 1.4225 -0.6230
-16 3 14 0.5865 -0.4104
-16 3 15 -1.3892 -0.0874
-16 3 16 19.4067 -0.4965
-16 3 17 -10.5668 -0.2068
-16 3 18 -12.1357 0.2745
-16 3 19 9.1754 -0.0275
-16 3 20 -3.1892 0.3690
-16 4 1 24.2470 0.4922
-16 4 2 -7.9274 -0.2222
-16 4 3 35.9489 0.1966
-16 4 4 -23.2162 -0.5861
-16 4 5 19.7420 -0.3544
-16 4 6 -22.3328 -0.3876
-16 4 7 -13.4066 -0.3248
-16 4 8 -0.6958 0.4710
-16 4 9 -12.4084 -0.3000
-16 4 10 6.4707 -0.0759
-16 4 11 -14.0615 0.3051
-16 4 12 10.5490 0.2889
-16 4 13 4.4815 0.1440
-16 4 14 -7.7682 0.6270
-16 4 15 14.9229 0.9878
-16 4 16 9.1211 -0.0215
-16 4 17 16.5568 0.5300
-16 4 18 -9.4359 -0.4945
-16 4 19 19.5232 -0.2516
-16 4 20 -13.0129 -0.0219
-16 5 1 12.8499 0.0084
-16 5 2 9.6199 -0.1272
-16 5 3 -11.8492 -0.2949
-16 5 4 -5.0879 0.5315
-16 5 5 -15.7363 -0.0140
-16 5 6 -11.7047 0.3019
-16 5 7 -22.8222 0.2644
-16 5 8 -15.6532 0.1972
-16 5 9 2.5544 -0.2725
-16 5 10 -22.5378 -0.1268
-16 5 11 4.1116 0.2435
-16 5 12 -4.4704 -0.1133
-16 5 13 24.9674 0.1125
-16 5 14 -1.0137 0.0279
-16 5 15 11.3351 -0.6871
-16 5 16 -8.8466 -0.6757
-16 5 17 -10.6409 -0.0927
-16 5 18 -2.3984 -0.0330
-16 5 19 16.1431 0.1993
-16 5 20 -2.7351 -0.2319
-16 6 1 7.8227 0.0032
-16 6 2 2.1598 -0.0966
-16 6 3 16.1865 -0.1313
-16 6 4 3.5837 0.1336
-16 6 5 19.4920 -0.3203
-16 6 6 1.8350 -0.3017
-16 6 7 -15.8906 0.0627
-16 6 8 8.4896 -0.1441
-16 6 9 -10.9979 -0.0495
-16 6 10 6.6375 0.5273
-16 6 11 8.1244 0.2977
-16 6 12 8.8932 -0.1888
-16 6 13 -0.5307 0.1041
-16 6 14 -6.7171 0.2345
-16 6 15 -0.9810 0.1359
-16 6 16 15.9729 0.3589
-16 6 17 2.7628 -0.0473
-16 6 18 3.1265 -0.5272
-16 6 19 -5.3582 0.0022
-16 7 1 9.8386 -0.0310
-16 7 2 11.1861 0.0710
-16 7 3 3.5693 0.0530
-16 7 4 -14.1487 0.4034
-16 7 5 17.8055 -0.2857
-16 7 6 -18.6442 0.2996
-16 7 7 8.9602 0.1452
-16 7 8 -12.9965 -0.1043
-16 7 9 2.3612 -0.1689
-16 7 10 1.4189 -0.0952
-16 7 11 7.9209 -0.1322
-16 7 12 3.4260 -0.1721
-16 7 13 14.7824 0.2227
-16 7 14 3.8128 -0.0779
-16 7 15 22.8711 -0.1160
-16 7 16 -7.1120 -0.0636
-16 7 17 11.2558 -0.0093
-16 7 18 9.0394 0.0937
-16 7 19 5.3080 0.0162
-16 8 1 3.6797 0.0227
-16 8 2 6.9481 0.1578
-16 8 3 -18.2030 0.0073
-16 8 4 9.6691 -0.1707
-16 8 5 -1.7667 -0.2664
-16 8 6 12.6324 -0.1110
-16 8 7 20.8899 0.0108
-16 8 8 9.6704 -0.0734
-16 8 9 19.1467 0.2012
-16 8 10 -7.8134 0.3144
-16 8 11 3.9437 0.1336
-16 8 12 -8.3561 0.0552
-16 8 13 -4.8353 0.1337
-16 8 14 5.6654 -0.0781
-16 8 15 -0.3921 -0.0222
-16 8 16 2.5383 -0.0697
-16 8 17 -8.9619 -0.0521
-16 8 18 2.6996 0.1049
-16 8 19 -1.0172 0.0144
-16 9 1 3.4347 -0.1602
-16 9 2 -12.2933 -0.1156
-16 9 3 6.2095 -0.1580
-16 9 4 -1.9360 0.0057
-16 9 5 8.6922 0.1094
-16 9 6 -4.8143 0.2414
-16 9 7 -3.9946 0.0071
-16 9 8 3.3548 0.0197
-16 9 9 -6.0521 0.1167
-16 9 10 1.5713 -0.1050
-16 9 11 5.8858 0.0412
-16 9 12 -6.5787 -0.1998
-16 9 13 11.6403 -0.0276
-16 9 14 -13.0249 -0.2073
-16 9 15 1.3646 -0.0547
-16 9 16 10.9844 -0.1230
-16 9 17 5.8779 0.0630
-16 9 18 7.9173 0.0759
-16 10 1 -1.2084 0.3211
-16 10 2 -4.1044 0.0452
-16 10 3 -16.8810 0.1057
-16 10 4 -16.6830 -0.1187
-16 10 5 -15.6335 0.0405
-16 10 6 -11.5554 0.0326
-16 10 7 22.2984 0.0663
-16 10 8 -9.8362 0.0403
-16 10 9 20.4904 0.1393
-16 10 10 -8.2347 -0.0353
-16 10 11 6.5097 0.1226
-16 10 12 -5.1053 -0.1643
-16 10 13 -7.3601 -0.0502
-16 10 14 -9.5775 -0.1480
-16 10 15 -12.9664 0.1971
-16 10 16 3.7246 0.0009
-16 10 17 -11.2889 0.2632
-16 11 1 -7.7063 0.1220
-16 11 2 -11.3891 0.1297
-16 11 3 -5.7588 0.2020
-16 11 4 5.8623 0.2148
-16 11 5 -14.4945 0.1217
-16 11 6 7.0302 -0.1747
-16 11 7 -11.6318 -0.0057
-16 11 8 4.1515 -0.0105
-16 11 9 16.4341 0.0419
-16 11 10 -8.8321 -0.2440
-16 11 11 1.1275 -0.1259
-16 11 12 -10.1715 -0.2504
-16 11 13 -2.8582 0.0692
-16 11 14 7.8134 -0.0981
-16 11 15 -7.1570 -0.0387
-16 11 16 3.9868 -0.2165
-16 11 17 -9.3170 0.1352
-16 12 1 -18.9359 -0.0099
-16 12 2 -10.1585 0.1279
-16 12 3 6.3957 -0.3683
-16 12 4 -13.6721 -0.1744
-16 12 5 6.4742 -0.0978
-16 12 6 0.6815 0.0747
-16 12 7 -11.3189 0.0428
-16 12 8 -2.0254 -0.1797
-16 12 9 -3.4431 0.1041
-16 12 10 0.6313 -0.0531
-16 12 11 17.9577 0.3066
-16 12 12 8.5191 0.1203
-16 12 13 6.6214 -0.0995
-16 12 14 -9.3414 -0.1096
-16 12 15 -15.2453 0.2615
-16 12 16 -7.4750 0.1513
-16 13 1 -6.1549 -0.1067
-16 13 2 13.9476 -0.0052
-16 13 3 2.4952 0.4222
-16 13 4 5.2275 -0.0192
-16 13 5 1.9314 0.1130
-16 13 6 1.6726 -0.1136
-16 13 7 7.0220 0.0298
-16 13 8 2.8531 0.0832
-16 13 9 12.4805 0.1686
-16 13 10 -5.8606 -0.6110
-16 13 11 0.5705 -0.1915
-16 13 12 2.8109 -0.2285
-16 13 13 -11.3711 -0.0451
-16 13 14 11.3844 -0.1359
-16 13 15 1.6626 0.0698
-16 14 1 -12.5921 -0.2007
-16 14 2 5.8024 0.0138
-16 14 3 0.4284 -0.2688
-16 14 4 6.2280 0.2384
-16 14 5 11.4106 0.1290
-16 14 6 15.8238 0.1169
-16 14 7 -11.8644 -0.2542
-16 14 8 10.2336 -0.1783
-16 14 9 -16.7220 -0.0123
-16 14 10 0.9451 -0.1790
-16 14 11 6.5479 0.2119
-16 14 12 0.2206 -0.0099
-16 14 13 7.0946 -0.2377
-16 14 14 7.2881 -0.1405
-16 15 1 1.9115 -0.0485
-16 15 2 13.8706 0.1819
-16 15 3 -2.4372 0.2034
-16 15 4 -3.3057 -0.2430
-16 15 5 8.9432 -0.1977
-16 15 6 -7.5476 -0.1019
-16 15 7 1.6906 0.0987
-16 15 8 9.6023 0.0528
-16 15 9 -7.3522 -0.2092
-16 15 10 1.7313 -0.3765
-16 15 11 5.4822 -0.3912
-16 15 12 -9.8565 -0.1192
-16 15 13 6.0821 -0.0302
-16 16 1 -0.3394 -0.1511
-16 16 2 7.9623 -0.5397
-16 16 3 -6.8852 0.3405
-16 16 4 6.4745 0.1429
-16 16 5 1.1336 0.3087
-16 16 6 -5.1814 0.0211
-16 16 7 1.5769 0.0556
-16 16 8 7.4263 -0.1033
-16 16 9 -5.6956 -0.1979
-16 16 10 3.9214 0.2231
-16 16 11 -0.7156 -0.0558
-16 17 3 -9.1540 0.0752
-16 17 4 -12.7488 0.2784
-16 17 5 -2.8321 -0.2827
-16 17 6 -1.7172 0.1338
-16 17 7 -1.2903 0.1262
-16 17 8 8.8285 -0.2106
-15 0 2 -24.5648 -0.0934
-15 0 4 -35.6482 0.1788
-15 0 6 -46.5208 0.5050
-15 0 8 -15.0113 0.1914
-15 0 10 18.6474 -0.2577
-15 0 12 -5.4480 -1.6652
-15 0 14 -15.8058 -1.5488
-15 0 16 -19.5409 -0.5702
-15 0 18 -26.1520 0.1827
-15 0 20 -0.9654 1.1589
-15 1 1 3.8822 -0.6056
-15 1 2 -3.4604 0.1827
-15 1 3 -11.0443 -1.4823
-15 1 4 3.5401 -1.3127
-15 1 5 -3.7503 -0.4755
-15 1 6 -5.3830 0.5071
-15 1 7 6.5034 0.0286
-15 1 8 10.6578 -0.3985
-15 1 9 8.1300 0.5127
-15 1 10 -6.1399 -0.6083
-15 1 11 1.0834 0.4837
-15 1 12 -10.4562 0.8216
-15 1 13 -1.1967 0.6925
-15 1 14 -20.6638 0.2576
-15 1 15 -14.6732 0.4865
-15 1 16 -8.4660 0.2846
-15 1 17 2.0507 -0.2357
-15 1 18 -1.6609 0.3578
-15 1 19 14.5361 -0.5783
-15 1 20 -17.9943 -0.3293
-15 1 21 11.9139 -0.4797
-15 2 1 12.4483 0.2611
-15 2 2 -15.8689 -0.0640
-15 2 3 9.7421 1.4151
-15 2 4 -13.7562 0.2574
-15 2 5 7.5263 1.5287
-15 2 6 -3.4238 0.4892
-15 2 7 -13.6895 -0.5084
-15 2 8 6.3077 0.2390
-15 2 9 -17.6109 -0.0851
-15 2 10 -7.6162 -0.4390
-15 2 11 4.4035 -0.7831
-15 2 12 4.3876 -0.2203
-15 2 13 -4.2862 -1.3274
-15 2 14 -15.2619 -1.0643
-15 2 15 -0.4280 -0.4036
-15 2 16 -8.5756 -0.8262
-15 2 17 -20.9397 0.4520
-15 2 18 -2.4556 0.2883
-15 2 19 13.8843 0.3312
-15 2 20 -4.6076 -0.1491
-15 2 21 -2.7296 0.0499
-15 3 1 2.4625 -0.1009
-15 3 2 -8.3763 0.0749
-15 3 3 16.2234 -0.5096
-15 3 4 7.2434 -0.5582
-15 3 5 28.9053 -0.8924
-15 3 6 0.1310 -0.4428
-15 3 7 1.7849 -0.6878
-15 3 8 15.7121 0.4607
-15 3 9 13.6282 0.1642
-15 3 10 4.5827 -0.3483
-15 3 11 -1.5582 0.4188
-15 3 12 -17.4453 -0.1126
-15 3 13 -16.3754 0.1980
-15 3 14 -34.1203 0.9958
-15 3 15 18.5937 1.3133
-15 3 16 -8.0661 0.3325
-15 3 17 -3.2275 0.1477
-15 3 18 -5.4564 -0.2080
-15 3 19 -6.4213 0.0931
-15 3 20 -12.6514 0.4423
-15 3 21 2.2419 -0.1325
-15 4 1 -5.9679 0.2116
-15 4 2 16.1573 0.2888
-15 4 3 -21.7926 0.0695
-15 4 4 11.4257 0.1653
-15 4 5 4.0918 0.8788
-15 4 6 27.1068 0.0071
-15 4 7 14.0565 0.5012
-15 4 8 9.5746 -0.0199
-15 4 9 9.2577 -0.6771
-15 4 10 -31.1039 -0.1905
-15 4 11 6.1901 0.1865
-15 4 12 -2.8118 0.3270
-15 4 13 9.1064 -0.3812
-15 4 14 8.0159 0.3818
-15 4 15 -0.0857 -0.8079
-15 4 16 -5.5776 0.2179
-15 4 17 -4.5352 0.4646
-15 4 18 21.8426 0.0687
-15 4 19 7.6349 0.1045
-15 4 20 -4.4540 -0.5452
-15 5 1 -6.2356 -0.3328
-15 5 2 -13.1077 -0.4619
-15 5 3 10.2375 -0.2143
-15 5 4 1.5761 0.2454
-15 5 5 22.6538 -0.3576
-15 5 6 6.2031 -0.2431
-15 5 7 6.2851 -0.1050
-15 5 8 19.7308 0.2650
-15 5 9 -11.8319 0.1254
-15 5 10 4.0206 0.3814
-15 5 11 -5.1337 0.1631
-15 5 12 -10.3488 -0.4922
-15 5 13 -17.0469 0.0978
-15 5 14 -12.4869 0.2155
-15 5 15 4.0281 0.1119
-15 5 16 -6.9286 0.2283
-15 5 17 -5.2631 0.3991
-15 5 18 2.7080 -0.0887
-15 5 19 -16.7254 0.1110
-15 5 20 7.5290 0.2857
-15 6 1 -9.0704 -0.1662
-15 6 2 21.7216 0.4557
-15 6 3 -16.9951 0.1572
-15 6 4 12.1440 0.3183
-15 6 5 4.9318 0.0803
-15 6 6 -12.7666 0.0484
-15 6 7 20.3646 0.3372
-15 6 8 -22.6896 -0.3527
-15 6 9 3.3242 -0.2923
-15 6 10 -6.0218 -0.0704
-15 6 11 6.4163 -0.2286
-15 6 12 -10.5473 -0.0342
-15 6 13 -5.8740 0.3100
-15 6 14 2.6738 0.4506
-15 6 15 9.0124 0.0477
-15 6 16 0.5437 0.4075
-15 6 17 7.6198 -0.1104
-15 6 18 10.8798 0.0561
-15 6 19 -4.0374 -0.0652
-15 6 20 7.0291 0.5896
-15 7 1 4.2149 -0.1850
-15 7 2 -2.0937 0.0037
-15 7 3 -22.4556 0.1518
-15 7 4 6.5295 -0.2862
-15 7 5 -31.4821 -0.0943
-15 7 6 0.7734 -0.0478
-15 7 7 2.8168 -0.1378
-15 7 8 6.8501 -0.2490
-15 7 9 -6.8944 -0.0175
-15 7 10 -9.7456 0.1669
-15 7 11 -0.7322 -0.0180
-15 7 12 -10.5190 0.2425
-15 7 13 6.5804 0.2397
-15 7 14 6.0774 -0.0689
-15 7 15 -12.4036 -0.1357
-15 7 16 -3.0497 0.1992
-15 7 17 -10.4282 0.1198
-15 7 18 5.2088 0.1089
-15 7 19 3.7743 -0.0247
-15 7 20 1.9914 -0.3052
-15 8 1 8.6239 0.0833
-15 8 2 -5.0342 0.0341
-15 8 3 20.7120 0.0868
-15 8 4 16.4691 -0.1821
-15 8 5 7.3391 0.0664
-15 8 6 -20.6225 0.0521
-15 8 7 -3.5982 -0.0540
-15 8 8 -13.3692 -0.2063
-15 8 9 -6.9737 0.3199
-15 8 10 8.1013 -0.0845
-15 8 11 -0.7015 -0.0559
-15 8 12 -6.8890 0.2354
-15 8 13 7.6495 0.2945
-15 8 14 -6.6614 -0.0494
-15 8 15 -6.5598 0.1526
-15 8 16 9.6204 -0.1224
-15 8 17 -4.1556 -0.3835
-15 8 18 -2.1655 -0.1612
-15 8 19 -9.2097 -0.3328
-15 9 1 8.8589 -0.0416
-15 9 2 17.2738 -0.1205
-15 9 3 -2.7938 0.0886
-15 9 4 13.4401 -0.1582
-15 9 5 -25.2704 0.2216
-15 9 6 -1.6463 -0.0567
-15 9 7 -1.1425 -0.2086
-15 9 8 -29.5500 -0.0465
-15 9 9 -0.8656 0.0183
-15 9 10 0.1812 0.0605
-15 9 11 13.9247 0.0480
-15 9 12 13.4042 0.2466
-15 9 13 3.0427 0.0849
-15 9 14 8.2731 -0.1057
-15 9 15 -2.5643 0.2376
-15 9 16 11.7625 0.0375
-15 9 17 5.9895 -0.1625
-15 9 18 0.1806 -0.1739
-15 9 19 2.3374 -0.1104
-15 10 1 6.2402 0.0105
-15 10 2 3.5145 0.3696
-15 10 3 11.5410 0.0799
-15 10 4 12.0485 -0.0124
-15 10 5 -8.2000 -0.0022
-15 10 6 14.3557 -0.2078
-15 10 7 -12.4803 0.0111
-15 10 8 9.6556 0.0261
-15 10 9 5.2740 0.1296
-15 10 10 -10.5960 -0.1319
-15 10 11 -7.2827 -0.0365
-15 10 12 -8.5920 0.2818
-15 10 13 10.5308 0.0112
-15 10 14 18.1092 -0.0957
-15 10 15 3.7369 -0.2846
-15 10 16 -4.8524 -0.3773
-15 10 17 -6.7168 -0.1780
-15 10 18 -3.9817 -0.2649
-15 11 1 -6.9738 0.1164
-15 11 2 3.4705 -0.4192
-15 11 3 18.9397 -0.0356
-15 11 4 -6.9516 -0.1995
-15 11 5 16.6331 0.1429
-15 11 6 -5.6571 -0.0373
-15 11 7 -13.6518 0.0533
-15 11 8 -17.1654 -0.1156
-15 11 9 -17.5795 0.1774
-15 11 10 7.0104 0.2446
-15 11 11 0.9777 0.1703
-15 11 12 20.6985 0.0819
-15 11 13 -2.6446 -0.0622
-15 11 14 9.3405 -0.2045
-15 11 15 12.1219 0.1558
-15 11 16 4.7754 -0.0220
-15 11 17 10.9359 -0.0185
-15 12 1 -7.9315 -0.0010
-15 12 2 14.7823 0.1679
-15 12 3 -25.9522 0.2176
-15 12 4 -5.7345 0.0613
-15 12 5 -19.4935 -0.1880
-15 12 6 4.2059 0.0841
-15 12 7 1.8865 0.0513
-15 12 8 11.5217 0.1303
-15 12 9 -3.5024 0.0574
-15 12 10 -7.2859 -0.1117
-15 12 11 -4.9415 -0.0490
-15 12 12 3.2226 0.0063
-15 12 13 -9.1727 0.1517
-15 12 14 -1.9703 -0.1014
-15 12 15 7.0804 -0.2755
-15 12 16 -8.7980 -0.0788
-15 12 17 3.0275 -0.3304
-15 13 1 -6.4701 -0.0890
-15 13 2 -6.0625 -0.1700
-15 13 3 -8.2805 0.0569
-15 13 4 -13.2322 0.0285
-15 13 5 6.5477 0.0003
-15 13 6 -6.2317 0.0288
-15 13 7 -14.6339 -0.0541
-15 13 8 17.5007 -0.1006
-15 13 9 -13.5315 0.1890
-15 13 10 7.1215 0.3594
-15 13 11 -6.0557 -0.1000
-15 13 12 -13.5375 0.0220
-15 13 13 1.7464 -0.1242
-15 13 14 4.9824 0.0083
-15 13 15 12.7707 -0.0779
-15 13 16 -1.2389 0.0654
-15 14 1 -5.6264 0.4348
-15 14 2 -3.4049 -0.1900
-15 14 3 -23.0337 0.1976
-15 14 4 -7.3097 -0.5548
-15 14 5 -0.2015 -0.1997
-15 14 6 -15.0649 0.0316
-15 14 7 5.7530 0.1642
-15 14 8 6.8170 0.0827
-15 14 9 -9.0383 0.0509
-15 14 10 12.3476 0.3476
-15 14 11 5.3249 0.1799
-15 14 12 3.3321 0.1963
-15 14 13 -3.1908 0.2012
-15 14 14 -16.2838 -0.0918
-15 14 15 -20.5710 -0.1765
-15 15 1 4.3395 -0.3376
-15 15 2 1.2263 -0.2615
-15 15 3 -4.7971 -0.1226
-15 15 4 7.7629 -0.0518
-15 15 5 -7.0368 -0.0048
-15 15 6 -8.8599 0.0260
-15 15 7 0.0010 0.0439
-15 15 8 10.8371 0.3848
-15 15 9 0.5001 0.1497
-15 15 10 7.4170 0.3693
-15 15 11 -5.4412 -0.0947
-15 15 12 -9.5065 -0.2491
-15 15 13 -2.7795 -0.0818
-15 15 14 -3.9952 0.1788
-15 16 1 7.3551 0.0591
-15 16 2 -14.1037 -0.1346
-15 16 3 5.0240 -0.1595
-15 16 4 -0.1792 -0.1548
-15 16 5 6.3961 0.1601
-15 16 6 7.1101 0.1323
-15 16 7 4.4408 0.2648
-15 16 8 -3.7820 0.1416
-15 16 9 -3.3825 -0.2059
-15 16 10 5.2538 0.3753
-15 16 11 2.4275 0.0902
-15 16 12 4.1554 0.2144
-15 17 1 7.4449 0.4216
-15 17 2 -3.0088 -0.1537
-15 17 3 8.4219 0.1541
-15 17 4 9.3747 -0.3216
-15 17 5 -3.7299 0.1639
-15 17 6 -0.9831 -0.1622
-15 17 7 4.3603 -0.0179
-15 17 8 -10.8793 0.2603
-15 17 9 4.2158 0.0646
-15 17 10 3.0418 -0.0954
-15 17 11 -12.0176 -0.4354
-15 18 3 11.7936 -0.4659
-15 18 4 7.5606 0.2774
-15 18 5 0.2942 0.1079
-15 18 6 12.0538 0.2245
-15 18 7 2.7452 -0.0919
-14 0 2 -14.8920 -0.9095
-14 0 4 15.1358 -2.4375
-14 0 6 8.9202 -0.1283
-14 0 8 30.5994 0.1394
-14 0 10 -0.6350 1.0908
-14 0 12 -6.6312 1.9127
-14 0 14 7.1275 0.8110
-14 0 16 5.1646 -0.2829
-14 0 18 -13.5083 -0.5097
-14 0 20 -26.3901 -0.0870
-14 1 1 12.9381 0.1007
-14 1 2 -14.8754 0.5574
-14 1 3 2.0641 0.9754
-14 1 4 -9.1834 0.9793
-14 1 5 5.6194 1.1461
-14 1 6 36.6197 0.8479
-14 1 7 -0.6559 -0.3015
-14 1 8 11.5940 0.1994
-14 1 9 -18.7510 0.2076
-14 1 10 -5.5398 -0.0671
-14 1 11 25.9037 -0.0024
-14 1 12 17.1769 0.2612
-14 1 13 28.7132 -1.2102
-14 1 14 -5.6456 -1.2624
-14 1 15 17.0441 -0.4542
-14 1 16 4.8538 -0.3680
-14 1 17 -2.1993 0.2236
-14 1 18 16.2934 -0.1852
-14 1 19 7.3274 -0.1171
-14 1 20 10.9818 -0.4637
-14 1 21 -9.9248 0.5292
-14 2 1 -36.1690 -0.6261
-14 2 2 3.4731 0.3529
-14 2 3 -1.2710 0.1764
-14 2 4 2.5885 -0.6292
-14 2 5 -10.5672 0.1640
-14 2 6 -7.6185 -1.0962
-14 2 7 -6.8515 0.1077
-14 2 8 -0.3764 0.6498
-14 2 9 35.3421 -0.2371
-14 2 10 11.7889 -0.4663
-14 2 11 -0.4435 -1.0013
-14 2 12 -6.6441 0.1156
-14 2 13 -7.6558 -1.0724
-14 2 14 5.5257 1.0670
-14 2 15 11.1887 -0.2307
-14 2 16 0.0223 -0.1078
-14 2 17 -6.0185 -0.0828
-14 2 18 -12.7050 0.0713
-14 2 19 -0.5704 1.0948
-14 2 20 -0.9835 0.4590
-14 2 21 5.6122 0.3302
-14 3 1 -2.8354 0.9976
-14 3 2 1.0918 -0.4007
-14 3 3 -18.3937 -0.5702
-14 3 4 -2.4528 -0.0067
-14 3 5 -25.2347 0.4910
-14 3 6 32.2042 0.0531
-14 3 7 -4.8560 -0.0305
-14 3 8 4.7756 0.1034
-14 3 9 5.4809 -0.8473
-14 3 10 -2.1922 0.2772
-14 3 11 10.0159 0.5725
-14 3 12 3.9748 0.3568
-14 3 13 10.8067 -0.2293
-14 3 14 6.9488 0.2298
-14 3 15 -11.5012 -0.3127
-14 3 16 2.2241 -0.3673
-14 3 17 7.1859 0.3383
-14 3 18 17.1009 -0.4092
-14 3 19 -8.0064 -0.0567
-14 3 20 9.7961 -0.2969
-14 3 21 -4.6635 -0.3869
-14 4 1 -13.2686 -0.4245
-14 4 2 2.8206 0.2152
-14 4 3 -2.9834 -0.2676
-14 4 4 -14.9169 0.9968
-14 4 5 -11.9492 -0.0676
-14 4 6 -18.7328 -0.4327
-14 4 7 6.9509 0.2378
-14 4 8 -1.7656 0.0080
-14 4 9 -14.7794 -0.2372
-14 4 10 15.0243 -0.1351
-14 4 11 -2.8245 -0.2924
-14 4 12 8.6473 -0.8591
-14 4 13 1.2119 -0.7400
-14 4 14 3.4547 -0.3188
-14 4 15 -13.3042 -0.8407
-14 4 16 -2.7295 0.2353
-14 4 17 -3.5339 0.1555
-14 4 18 1.2888 0.1657
-14 4 19 -9.4229 -0.3592
-14 4 20 13.5095 0.0345
-14 4 21 -2.3033 0.2288
-14 5 1 -8.4242 -0.0080
-14 5 2 26.1660 -0.3500
-14 5 3 -7.5590 -0.0677
-14 5 4 30.6497 -0.4228
-14 5 5 -8.5723 -0.1949
-14 5 6 -13.5995 -0.2674
-14 5 7 0.4668 0.3599
-14 5 8 -19.9258 0.1323
-14 5 9 14.4018 -0.3045
-14 5 10 14.6489 0.4675
-14 5 11 5.0705 -0.3295
-14 5 12 -20.9916 0.1270
-14 5 13 -12.2983 0.4201
-14 5 14 2.9327 0.6284
-14 5 15 -7.4902 -0.1934
-14 5 16 1.3652 -0.0475
-14 5 17 2.5650 -0.4085
-14 5 18 -14.5389 -0.1970
-14 5 19 -8.1595 0.2770
-14 5 20 0.2980 0.3658
-14 5 21 -0.8709 0.1279
-14 6 1 17.4960 0.1395
-14 6 2 -9.6784 -0.0144
-14 6 3 -6.9494 0.2762
-14 6 4 -1.0813 0.3334
-14 6 5 -19.0681 -0.0731
-14 6 6 11.3051 0.2408
-14 6 7 1.4481 0.0138
-14 6 8 9.4613 -0.5546
-14 6 9 -19.0187 -0.0829
-14 6 10 1.3090 0.0016
-14 6 11 0.5858 -0.1690
-14 6 12 3.3671 -0.3096
-14 6 13 16.7405 -0.0188
-14 6 14 12.6047 -0.6278
-14 6 15 -17.7509 -0.0236
-14 6 16 11.0855 0.4551
-14 6 17 -3.0656 0.0953
-14 6 18 9.0088 0.2176
-14 6 19 -1.8160 -0.0421
-14 6 20 1.4461 -0.3865
-14 7 1 -4.5647 -0.1016
-14 7 2 -15.7351 -0.3062
-14 7 3 21.4664 -0.1879
-14 7 4 16.0180 -0.4804
-14 7 5 22.2569 -0.0644
-14 7 6 -0.2708 0.1244
-14 7 7 12.7003 0.1452
-14 7 8 4.9709 0.2953
-14 7 9 0.7926 0.2718
-14 7 10 8.4487 0.1760
-14 7 11 -18.6448 -0.3550
-14 7 12 -3.5018 0.1556
-14 7 13 -1.5970 0.1628
-14 7 14 -4.9452 -0.2001
-14 7 15 -13.5252 0.0923
-14 7 16 -3.8874 0.3401
-14 7 17 -0.3315 -0.2377
-14 7 18 -9.5204 0.2154
-14 7 19 -4.4022 -0.0366
-14 7 20 0.9371 -0.3093
-14 8 1 -11.5807 -0.0979
-14 8 2 11.9270 0.1559
-14 8 3 -6.3779 0.3398
-14 8 4 13.7529 0.2254
-14 8 5 -14.2408 0.3631
-14 8 6 28.6029 0.1498
-14 8 7 -6.8500 -0.2467
-14 8 8 -22.0757 -0.0379
-14 8 9 7.9728 -0.1168
-14 8 10 -6.1929 -0.2341
-14 8 11 11.2568 -0.3123
-14 8 12 -3.8087 -0.0089
-14 8 13 -12.2971 -0.1088
-14 8 14 5.5076 0.1387
-14 8 15 8.7141 0.4475
-14 8 16 11.4759 0.1882
-14 8 17 8.8282 0.1000
-14 8 18 0.6845 0.0019
-14 8 19 2.2983 0.5096
-14 8 20 8.9934 -0.0150
-14 9 1 -8.8043 0.3032
-14 9 2 -32.9026 -0.0037
-14 9 3 12.2135 -0.0992
-14 9 4 -30.4689 -0.2597
-14 9 5 13.1272 0.0330
-14 9 6 21.4447 -0.2264
-14 9 7 8.0749 0.0565
-14 9 8 32.6466 0.0313
-14 9 9 2.1649 -0.1235
-14 9 10 -5.0879 -0.0746
-14 9 11 -24.0619 0.0735
-14 9 12 4.8756 0.3005
-14 9 13 -9.0241 -0.0044
-14 9 14 1.3487 0.0778
-14 9 15 -8.6670 0.1953
-14 9 16 -11.5291 -0.0062
-14 9 17 3.5423 0.3252
-14 9 18 15.2103 0.0283
-14 9 19 5.0027 0.1895
-14 10 1 -14.8688 0.1109
-14 10 2 11.5722 -0.0970
-14 10 3 7.9851 -0.1580
-14 10 4 -1.1006 0.1289
-14 10 5 13.8630 -0.0311
-14 10 6 2.6682 0.0383
-14 10 7 -9.9448 -0.1675
-14 10 8 2.5553 0.1210
-14 10 9 0.4854 -0.1122
-14 10 10 5.1288 -0.0078
-14 10 11 -14.3440 0.1361
-14 10 12 1.8548 -0.1827
-14 10 13 -15.2179 0.0423
-14 10 14 -5.7697 0.2859
-14 10 15 13.8669 0.1384
-14 10 16 -5.9180 0.0428
-14 10 17 3.0340 0.1025
-14 10 18 0.6264 -0.0076
-14 10 19 -1.9981 -0.0110
-14 11 1 -8.7344 -0.1966
-14 11 2 17.1344 -0.1410
-14 11 3 -9.9008 0.0324
-14 11 4 -7.8572 0.0596
-14 11 5 -2.6472 -0.0923
-14 11 6 6.6795 0.0277
-14 11 7 2.8386 0.0753
-14 11 8 10.2385 0.0383
-14 11 9 2.3547 -0.0878
-14 11 10 -0.9299 0.1383
-14 11 11 15.7837 0.1987
-14 11 12 6.6558 0.2238
-14 11 13 -10.0827 0.0497
-14 11 14 -17.1157 0.3923
-14 11 15 -3.9345 -0.0269
-14 11 16 6.3499 0.1313
-14 11 17 6.0504 0.1230
-14 11 18 11.9846 -0.1858
-14 12 1 31.5336 0.3881
-14 12 2 -3.3833 -0.1011
-14 12 3 18.8639 0.3184
-14 12 4 -7.9427 0.1094
-14 12 5 18.0570 0.1059
-14 12 6 -9.3083 0.0046
-14 12 7 -12.9224 -0.0258
-14 12 8 25.7677 -0.0818
-14 12 9 -10.7525 -0.1793
-14 12 10 10.1463 -0.1046
-14 12 11 -18.4136 -0.2299
-14 12 12 -9.3709 -0.1805
-14 12 13 9.9317 0.0288
-14 12 14 13.1422 0.0235
-14 12 15 0.9842 -0.0176
-14 12 16 2.9321 -0.1548
-14 12 17 -11.6730 0.0393
-14 13 1 -0.7303 -0.0003
-14 13 2 19.5243 0.1843
-14 13 3 -2.6829 -0.0421
-14 13 4 22.5037 -0.0918
-14 13 5 6.6171 0.0075
-14 13 6 -7.8578 0.1132
-14 13 7 -0.8957 -0.2191
-14 13 8 -18.6842 -0.0327
-14 13 9 -6.3059 -0.0550
-14 13 10 6.2917 0.0965
-14 13 11 19.5182 0.3622
-14 13 12 12.5763 0.2054
-14 13 13 16.0085 -0.0556
-14 13 14 1.3440 0.2014
-14 13 15 -10.5221 0.0615
-14 13 16 12.7709 0.3021
-14 13 17 -2.2545 0.0540
-14 14 1 25.0003 0.2099
-14 14 2 -10.5139 0.3107
-14 14 3 16.3002 0.1912
-14 14 4 -0.9053 0.0537
-14 14 5 -9.3411 0.2314
-14 14 6 -2.0005 -0.3105
-14 14 7 -0.0190 -0.1749
-14 14 8 -4.4508 0.0850
-14 14 9 -2.8915 -0.2562
-14 14 10 -2.2751 -0.3211
-14 14 11 -4.1544 -0.3106
-14 14 12 0.5905 0.1551
-14 14 13 5.3349 -0.2260
-14 14 14 7.8427 0.2818
-14 14 15 -0.2798 -0.0479
-14 14 16 10.0422 -0.1492
-14 15 1 4.4102 0.2890
-14 15 2 -13.2326 -0.0346
-14 15 3 7.6291 -0.0700
-14 15 4 1.5590 -0.0455
-14 15 5 -2.1457 0.2486
-14 15 6 6.4358 -0.2306
-14 15 7 2.5893 -0.2035
-14 15 8 -17.3254 0.0184
-14 15 9 0.9580 -0.2513
-14 15 10 3.5412 0.0625
-14 15 11 -8.4488 0.2322
-14 15 12 8.9207 0.3424
-14 15 13 9.2517 -0.1302
-14 15 14 17.6486 0.0514
-14 15 15 1.5673 0.3042
-14 16 1 -3.7562 0.4771
-14 16 2 -11.1661 0.3501
-14 16 3 -1.4162 -0.1163
-14 16 4 -5.4764 0.0261
-14 16 5 -13.8269 -0.1798
-14 16 6 2.8960 -0.2294
-14 16 7 8.6479 -0.2130
-14 16 8 -15.6615 0.0398
-14 16 9 7.0054 0.1308
-14 16 10 1.0011 -0.1835
-14 16 11 -7.0979 0.0817
-14 16 12 6.8141 0.1281
-14 16 13 -6.4890 -0.1746
-14 16 14 -13.7996 0.3080
-14 17 1 -5.5461 -0.3533
-14 17 2 -3.5559 -0.0782
-14 17 3 3.5073 -0.3343
-14 17 4 -0.9330 0.2298
-14 17 5 -14.4062 -0.1353
-14 17 6 -0.8753 -0.1474
-14 17 7 -2.8559 0.1534
-14 17 8 -0.7654 -0.0252
-14 17 9 11.3947 0.1949
-14 17 10 0.7627 0.1854
-14 17 11 -9.0864 0.1127
-14 17 12 -2.8408 0.2220
-14 18 1 -7.3586 0.2773
-14 18 2 4.6377 -0.2600
-14 18 3 -16.0709 0.0961
-14 18 4 -13.0012 -0.1653
-14 18 5 -1.4021 -0.1420
-14 18 6 0.6092 0.2235
-14 18 7 9.1472 0.2580
-14 18 8 -1.3226 0.1728
-14 18 9 0.4249 0.0590
-14 18 10 -2.9813 0.3801
-14 19 3 -1.4411 -0.1803
-14 19 4 3.3580 0.4076
-14 19 5 -0.0565 -0.1389
-14 19 6 -9.5829 0.1668
-13 0 2 11.3884 -1.0337
-13 0 4 -25.5222 -0.8187
-13 0 6 25.6258 -0.1668
-13 0 8 -45.9963 0.2250
-13 0 10 -11.2891 1.5717
-13 0 12 22.6486 1.7913
-13 0 14 -23.5155 0.4684
-13 0 16 17.4981 0.1151
-13 0 18 14.4877 -1.2741
-13 0 20 8.8234 -1.6248
-13 1 1 -0.1505 0.8393
-13 1 2 11.3176 0.5758
-13 1 3 8.7558 1.1219
-13 1 4 -13.1365 -0.0592
-13 1 5 -51.3913 -0.0899
-13 1 6 -20.6779 -0.1155
-13 1 7 -37.7666 -0.3081
-13 1 8 -30.1678 1.0775
-13 1 9 20.1598 -0.5350
-13 1 10 7.6074 -0.9430
-13 1 11 -27.4213 -0.6421
-13 1 12 11.7790 -0.2409
-13 1 13 1.1504 -0.5216
-13 1 14 6.4360 0.0602
-13 1 15 2.9146 0.2071
-13 1 16 -6.5540 -0.5743
-13 1 17 -10.1629 0.4652
-13 1 18 -6.5145 0.0534
-13 1 19 -0.3662 0.3794
-13 1 20 2.3810 0.2986
-13 1 21 -1.5383 0.4792
-13 2 1 -5.1221 0.0887
-13 2 2 14.4195 -0.6366
-13 2 3 -13.9863 -2.5822
-13 2 4 8.1557 -0.4896
-13 2 5 -21.3904 -0.3616
-13 2 6 1.7791 -0.1236
-13 2 7 -11.8972 0.1999
-13 2 8 -9.6169 0.3044
-13 2 9 9.9601 0.7808
-13 2 10 1.5484 0.5471
-13 2 11 -9.0457 1.7429
-13 2 12 -6.0070 0.7762
-13 2 13 -1.2851 0.6381
-13 2 14 3.5159 0.9536
-13 2 15 -16.1532 -0.3868
-13 2 16 10.3525 -0.4631
-13 2 17 -13.4727 -0.3768
-13 2 18 10.2437 0.2068
-13 2 19 -29.6966 -0.1919
-13 2 20 -0.8582 -0.2771
-13 2 21 -5.5845 0.0515
-13 3 1 -8.0989 0.4108
-13 3 2 -5.3788 0.2706
-13 3 3 -15.3892 0.7846
-13 3 4 -29.9469 0.8062
-13 3 5 22.0575 0.4018
-13 3 6 -24.5758 -0.1288
-13 3 7 24.2648 -0.0066
-13 3 8 -10.9296 0.3465
-13 3 9 -36.9562 -0.3608
-13 3 10 9.0924 0.1287
-13 3 11 0.2552 -0.1498
-13 3 12 35.1830 -1.0662
-13 3 13 5.3640 -0.9766
-13 3 14 3.8497 -0.2885
-13 3 15 -2.5484 -0.4220
-13 3 16 -4.2410 0.3603
-13 3 17 7.1725 0.2043
-13 3 18 -0.6939 -0.2923
-13 3 19 0.8588 -0.5330
-13 3 20 -1.2804 0.2174
-13 3 21 2.9213 0.9523
-13 4 1 -7.7982 0.0358
-13 4 2 8.7297 -0.4978
-13 4 3 -12.4294 -0.5207
-13 4 4 38.2015 -0.1103
-13 4 5 8.1842 -0.7058
-13 4 6 -9.2614 0.1522
-13 4 7 2.2178 0.6914
-13 4 8 10.1237 0.0609
-13 4 9 30.3502 0.1155
-13 4 10 4.6188 -0.1983
-13 4 11 9.5998 0.3249
-13 4 12 -23.2556 -0.4176
-13 4 13 -9.0001 1.1086
-13 4 14 6.2901 0.0656
-13 4 15 -0.8536 -0.1929
-13 4 16 2.0304 -0.1500
-13 4 17 -14.2648 -0.1338
-13 4 18 -0.9430 0.3564
-13 4 19 -7.8287 0.3228
-13 4 20 -0.0031 0.4706
-13 4 21 3.5144 -0.0242
-13 5 1 17.1147 0.1862
-13 5 2 -30.3202 0.4288
-13 5 3 -2.9235 0.4305
-13 5 4 -27.2542 0.4059
-13 5 5 18.8607 -0.0775
-13 5 6 4.8577 0.1189
-13 5 7 3.8364 -0.1644
-13 5 8 25.5524 -0.7421
-13 5 9 -23.7419 -0.1111
-13 5 10 10.2434 0.2677
-13 5 11 -6.2818 -0.0791
-13 5 12 14.8918 -0.3791
-13 5 13 2.1806 0.1471
-13 5 14 8.5392 -0.3812
-13 5 15 2.3302 -0.2798
-13 5 16 9.2794 0.4690
-13 5 17 -0.4535 -0.3872
-13 5 18 9.0168 0.2251
-13 5 19 6.7384 0.1468
-13 5 20 -4.4160 -0.3008
-13 5 21 7.1401 0.1100
-13 6 1 -15.9801 -0.2622
-13 6 2 -18.1907 -0.5098
-13 6 3 -7.2200 0.0539
-13 6 4 -0.9281 -0.4278
-13 6 5 12.3289 -0.1970
-13 6 6 2.8341 0.3292
-13 6 7 23.1253 -0.0081
-13 6 8 7.0401 0.0871
-13 6 9 19.0625 0.2477
-13 6 10 -10.4330 0.0043
-13 6 11 4.7598 -0.1881
-13 6 12 8.7312 -0.1844
-13 6 13 5.5204 0.0245
-13 6 14 -20.8405 -0.6063
-13 6 15 -0.3943 0.1232
-13 6 16 -11.6480 0.1615
-13 6 17 5.7632 0.0148
-13 6 18 1.8142 -0.1506
-13 6 19 0.4727 0.0049
-13 6 20 -1.3243 -0.2201
-13 6 21 3.1090 0.1481
-13 7 1 6.0530 -0.1180
-13 7 2 10.8945 0.3191
-13 7 3 11.8672 0.1393
-13 7 4 -9.6026 0.0379
-13 7 5 -9.0775 0.1326
-13 7 6 3.4914 -0.0243
-13 7 7 -15.5862 0.0089
-13 7 8 -15.5748 -0.2051
-13 7 9 18.7960 0.2313
-13 7 10 1.4985 -0.2630
-13 7 11 -3.5752 -0.1314
-13 7 12 -3.7611 0.1516
-13 7 13 -21.9952 0.0372
-13 7 14 5.9156 -0.1815
-13 7 15 11.9493 0.0583
-13 7 16 2.0877 -0.5686
-13 7 17 -17.1806 -0.0736
-13 7 18 -6.2516 -0.0148
-13 7 19 2.5672 0.4658
-13 7 20 4.2473 0.0891
-13 8 1 4.8966 -0.1094
-13 8 2 -27.2951 0.1806
-13 8 3 10.3037 -0.1598
-13 8 4 -37.7961 0.0447
-13 8 5 1.0402 0.0308
-13 8 6 -0.0639 0.0564
-13 8 7 -10.7700 -0.1908
-13 8 8 21.1418 -0.0429
-13 8 9 -11.4778 -0.0364
-13 8 10 10.3814 -0.1506
-13 8 11 -8.4397 0.1369
-13 8 12 21.2330 -0.0492
-13 8 13 5.9547 -0.3372
-13 8 14 -19.5968 -0.0107
-13 8 15 4.6651 0.2152
-13 8 16 -9.9411 -0.1134
-13 8 17 4.2123 0.2731
-13 8 18 2.6366 0.1171
-13 8 19 -0.4959 0.1990
-13 8 20 -12.4396 -0.0969
-13 9 1 -15.5067 0.1657
-13 9 2 35.1415 -0.0445
-13 9 3 -6.1798 -0.2047
-13 9 4 12.4441 0.0799
-13 9 5 8.2664 -0.0835
-13 9 6 -17.7359 0.0127
-13 9 7 4.3810 0.1582
-13 9 8 -14.8730 0.0054
-13 9 9 16.7805 0.0834
-13 9 10 -14.3992 -0.3072
-13 9 11 -6.9379 0.0274
-13 9 12 0.5003 -0.1588
-13 9 13 7.2324 -0.2481
-13 9 14 -7.1099 0.0793
-13 9 15 -0.9408 -0.0166
-13 9 16 -10.5561 -0.2840
-13 9 17 -17.9453 0.2969
-13 9 18 -7.5688 -0.1323
-13 9 19 -0.6531 -0.2649
-13 9 20 2.9580 -0.0486
-13 10 1 14.5050 -0.0001
-13 10 2 2.1769 -0.2374
-13 10 3 15.4754 0.1827
-13 10 4 -8.4503 0.2937
-13 10 5 3.8351 -0.0041
-13 10 6 -7.5380 -0.0381
-13 10 7 -22.2246 0.0793
-13 10 8 -5.1153 -0.0940
-13 10 9 -22.6699 -0.0194
-13 10 10 13.2269 0.0221
-13 10 11 14.1923 0.0771
-13 10 12 7.7245 -0.1088
-13 10 13 -2.6598 0.1054
-13 10 14 -9.1927 0.1236
-13 10 15 0.3588 0.2209
-13 10 16 15.5435 -0.0127
-13 10 17 -5.0632 0.2088
-13 10 18 -8.5148 -0.0377
-13 10 19 3.7226 0.1757
-13 11 1 10.5362 0.0359
-13 11 2 -6.8230 0.1366
-13 11 3 -13.3311 -0.0796
-13 11 4 7.8681 0.0621
-13 11 5 12.2757 -0.1911
-13 11 6 -0.2119 0.0622
-13 11 7 4.4016 0.1033
-13 11 8 17.3625 -0.2445
-13 11 9 -6.7254 0.0064
-13 11 10 -3.7594 -0.3265
-13 11 11 -14.3904 -0.0416
-13 11 12 -17.1790 -0.1433
-13 11 13 13.8674 0.0971
-13 11 14 3.5055 -0.1244
-13 11 15 -9.4601 -0.1675
-13 11 16 2.5212 0.0202
-13 11 17 0.1411 -0.1641
-13 11 18 1.7722 0.0791
-13 12 1 -13.6103 -0.1928
-13 12 2 9.8355 -0.1535
-13 12 3 -5.6677 -0.0208
-13 12 4 18.5728 -0.1778
-13 12 5 4.9701 0.0578
-13 12 6 -9.2172 -0.0232
-13 12 7 14.5420 -0.0382
-13 12 8 -28.8591 -0.0667
-13 12 9 -0.1864 0.2177
-13 12 10 -14.0243 0.1382
-13 12 11 2.0462 0.0537
-13 12 12 -6.6801 0.1739
-13 12 13 2.0874 -0.0600
-13 12 14 6.2337 0.0353
-13 12 15 -5.2535 0.0692
-13 12 16 6.8843 0.1704
-13 12 17 -1.0596 -0.1618
-13 12 18 -2.4847 0.1915
-13 13 1 16.7601 -0.0650
-13 13 2 -24.8875 0.0223
-13 13 3 5.3432 -0.0848
-13 13 4 -2.4882 -0.1666
-13 13 5 -10.9016 0.1260
-13 13 6 15.7064 -0.1646
-13 13 7 11.2260 0.1463
-13 13 8 8.9796 0.2050
-13 13 9 -3.1491 0.1157
-13 13 10 7.4148 -0.0457
-13 13 11 -8.2727 -0.0721
-13 13 12 -5.5024 0.0829
-13 13 13 -22.8476 0.0842
-13 13 14 -8.5413 -0.1885
-13 13 15 1.8512 0.1916
-13 13 16 6.4210 -0.1416
-13 13 17 17.8164 -0.1130
-13 14 1 -9.2820 -0.2016
-13 14 2 6.4715 -0.0155
-13 14 3 -9.1171 -0.0924
-13 14 4 3.8395 0.2564
-13 14 5 -5.7790 0.1730
-13 14 6 -2.1659 0.1577
-13 14 7 14.8943 0.1092
-13 14 8 -9.2605 0.0104
-13 14 9 9.4347 -0.0519
-13 14 10 -8.1756 -0.1551
-13 14 11 -19.9759 0.0632
-13 14 12 -7.9444 -0.0778
-13 14 13 -0.4121 -0.0610
-13 14 14 7.0175 -0.0513
-13 14 15 12.1023 -0.1035
-13 14 16 -9.7672 -0.0732
-13 15 1 -3.5306 0.1912
-13 15 2 2.6422 0.0495
-13 15 3 -3.1667 -0.1504
-13 15 4 5.7301 0.1062
-13 15 5 -2.2606 -0.0788
-13 15 6 2.5437 -0.0842
-13 15 7 5.9406 0.2277
-13 15 8 -7.5028 -0.1013
-13 15 9 7.5483 0.1875
-13 15 10 5.6304 0.1415
-13 15 11 8.8534 0.0220
-13 15 12 13.2412 -0.1214
-13 15 13 -2.9855 -0.0156
-13 15 14 -15.2141 0.3218
-13 15 15 6.9944 -0.1248
-13 16 1 -5.8484 -0.1271
-13 16 2 20.7979 0.0019
-13 16 3 1.1447 0.2082
-13 16 4 4.4204 0.3787
-13 16 5 -5.0205 -0.1900
-13 16 6 -10.3496 0.0514
-13 16 7 -12.4792 0.0630
-13 16 8 6.2723 -0.1527
-13 16 9 -0.5131 -0.3063
-13 16 10 -3.3151 0.1684
-13 16 11 -0.9357 0.0174
-13 16 12 2.2930 -0.2930
-13 16 13 -4.5581 0.4954
-13 16 14 3.3310 -0.3257
-13 17 1 -1.1252 -0.1585
-13 17 2 13.9316 -0.1326
-13 17 3 -12.2310 -0.0598
-13 17 4 -2.2026 -0.0517
-13 17 5 14.5190 -0.4334
-13 17 6 -0.7410 0.1662
-13 17 7 -3.8958 0.1171
-13 17 8 1.4215 -0.2400
-13 17 9 -1.7231 0.0707
-13 17 10 -6.1739 0.0711
-13 17 11 20.9987 0.0892
-13 17 12 6.7049 -0.1274
-13 17 13 14.9299 0.4245
-13 18 1 -5.9771 -0.2609
-13 18 2 9.9635 0.3283
-13 18 3 -0.0942 0.1157
-13 18 4 5.9673 0.0379
-13 18 5 6.1370 0.0490
-13 18 6 -3.3220 -0.0706
-13 18 7 -15.4091 -0.1965
-13 18 8 6.7642 -0.3070
-13 18 9 -5.9746 0.1266
-13 18 10 -7.0247 0.0887
-13 18 11 4.7554 0.1504
-13 19 1 4.0518 -0.0559
-13 19 2 0.3037 -0.2212
-13 19 3 3.8764 0.1425
-13 19 4 -5.7555 -0.3377
-13 19 5 6.7168 -0.2832
-13 19 6 -0.0965 0.0283
-13 19 7 -4.6431 -0.4456
-13 19 8 3.6708 0.4138
-13 19 9 2.9664 -0.0882
-12 0 2 21.6151 3.3950
-12 0 4 51.6489 1.4427
-12 0 6 24.0338 -0.2228
-12 0 8 -17.5993 -0.7741
-12 0 10 -11.5719 -2.6700
-12 0 12 4.1371 -1.1523
-12 0 14 17.5631 0.1696
-12 0 16 2.3269 0.4893
-12 0 18 15.6473 0.3777
-12 0 20 7.2718 0.7524
-12 0 22 -20.3727 0.1910
-12 1 1 -1.0503 0.8717
-12 1 2 26.3571 -0.1578
-12 1 3 40.2163 -1.3822
-12 1 4 17.8769 -0.1275
-12 1 5 57.6965 0.5757
-12 1 6 -27.9695 -0.1547
-12 1 7 35.9416 -0.3222
-12 1 8 36.8484 -0.0614
-12 1 9 4.1120 -0.0626
-12 1 10 -4.7988 -0.2069
-12 1 11 -18.9498 1.4244
-12 1 12 -19.5677 1.0945
-12 1 13 -17.7893 0.7538
-12 1 14 21.5520 0.9304
-12 1 15 2.0149 -0.2291
-12 1 16 -4.3559 -0.1279
-12 1 17 2.1836 0.3546
-12 1 18 7.9371 0.7581
-12 1 19 -17.9332 -0.3403
-12 1 20 0.4715 -0.5501
-12 1 21 6.6090 -0.8951
-12 1 22 9.4125 -0.9661
-12 2 1 32.1479 0.8528
-12 2 2 1.7498 0.8283
-12 2 3 0.8947 0.2149
-12 2 4 -5.3590 1.1890
-12 2 5 60.4772 -0.2472
-12 2 6 -7.8392 -0.5033
-12 2 7 24.5321 -0.1249
-12 2 8 -0.9267 0.0333
-12 2 9 -53.5184 0.8038
-12 2 10 -20.8832 -0.1921
-12 2 11 25.3462 1.3096
-12 2 12 12.3308 -1.3647
-12 2 13 -8.5958 0.3396
-12 2 14 0.4747 0.0101
-12 2 15 19.1269 0.2584
-12 2 16 -0.5254 0.0560
-12 2 17 23.1860 -0.6978
-12 2 18 9.5232 -0.5248
-12 2 19 9.7265 -1.4273
-12 2 20 4.8393 0.5179
-12 2 21 16.1739 -0.4203
-12 2 22 -4.1704 0.4345
-12 3 1 22.0450 -0.5834
-12 3 2 20.6721 0.5483
-12 3 3 -1.6135 -0.0744
-12 3 4 13.6235 0.5958
-12 3 5 -2.1047 -0.0310
-12 3 6 -30.3640 -0.1748
-12 3 7 -26.0799 1.0895
-12 3 8 10.8768 -0.3580
-12 3 9 11.8825 -0.4401
-12 3 10 -13.0642 -0.2910
-12 3 11 15.7111 0.1754
-12 3 12 -14.1376 -0.2395
-12 3 13 -12.3279 0.5996
-12 3 14 18.2063 0.2526
-12 3 15 2.7545 -0.3970
-12 3 16 -2.0152 0.5198
-12 3 17 -3.5704 -0.1940
-12 3 18 0.9436 0.2565
-12 3 19 6.7838 0.1056
-12 3 20 -2.9147 0.4855
-12 3 21 1.4754 -0.1089
-12 4 1 40.4811 0.4317
-12 4 2 -14.7025 -0.7176
-12 4 3 27.9698 0.0137
-12 4 4 -42.8101 -0.3517
-12 4 5 -6.3382 -0.5238
-12 4 6 -20.3235 0.0725
-12 4 7 -24.6230 -0.0400
-12 4 8 13.8770 -0.0050
-12 4 9 -19.6385 0.3891
-12 4 10 -0.1130 0.9508
-12 4 11 -9.3375 0.7010
-12 4 12 -3.2412 0.1958
-12 4 13 9.3595 0.8981
-12 4 14 -1.2118 -0.4339
-12 4 15 21.1277 -0.3469
-12 4 16 -12.4202 -0.1424
-12 4 17 7.4838 -0.2481
-12 4 18 -5.3645 0.0340
-12 4 19 7.7150 -0.0388
-12 4 20 -0.6596 -0.2168
-12 4 21 -4.4319 -0.6844
-12 5 1 -12.4051 -0.5565
-12 5 2 -14.6632 0.0531
-12 5 3 -18.7282 0.2260
-12 5 4 -13.7066 -0.0237
-12 5 5 -25.3221 0.0296
-12 5 6 -16.6342 -0.0495
-12 5 7 5.9927 0.3659
-12 5 8 -49.3689 -0.3883
-12 5 9 15.4727 0.4537
-12 5 10 -19.3347 -0.2174
-12 5 11 24.7499 -0.5540
-12 5 12 22.4823 -0.4431
-12 5 13 8.1950 -0.0148
-12 5 14 -11.4816 -0.4054
-12 5 15 -3.9326 0.5532
-12 5 16 3.4327 0.1278
-12 5 17 9.6666 -0.1858
-12 5 18 -6.9941 -0.2835
-12 5 19 -7.2277 0.0366
-12 5 20 -11.2102 0.4142
-12 5 21 -10.4811 0.0656
-12 6 1 23.5041 -0.4571
-12 6 2 0.2704 0.1818
-12 6 3 30.5011 -0.2626
-12 6 4 0.5724 -0.3736
-12 6 5 -25.3953 0.0258
-12 6 6 21.3076 0.2709
-12 6 7 -27.1413 0.1226
-12 6 8 7.4010 0.1374
-12 6 9 4.9617 0.2195
-12 6 10 24.4257 0.1342
-12 6 11 -14.2567 -0.0541
-12 6 12 -2.4685 0.7957
-12 6 13 0.5943 -0.0174
-12 6 14 4.6822 -0.2557
-12 6 15 10.4198 -0.0603
-12 6 16 -15.2374 -0.4114
-12 6 17 -4.9966 -0.0885
-12 6 18 -15.8831 -0.1256
-12 6 19 13.1936 0.0251
-12 6 20 1.1713 -0.1680
-12 6 21 -5.8647 0.0147
-12 7 1 -20.0692 0.1757
-12 7 2 -3.5042 0.2568
-12 7 3 -3.8215 0.1010
-12 7 4 -7.6242 0.0337
-12 7 5 -8.8569 0.0956
-12 7 6 -12.3382 -0.1377
-12 7 7 2.4157 -0.2852
-12 7 8 -14.0838 -0.2811
-12 7 9 4.0238 0.2982
-12 7 10 0.2905 -0.3834
-12 7 11 7.9211 -0.0814
-12 7 12 2.2757 0.0178
-12 7 13 17.4134 -0.3457
-12 7 14 -6.3500 -0.0946
-12 7 15 12.7807 0.2968
-12 7 16 7.8587 -0.3862
-12 7 17 7.9011 0.1853
-12 7 18 -2.5691 0.2319
-12 7 19 -9.0821 0.0870
-12 7 20 -6.8286 0.0023
-12 7 21 -11.5848 -0.3203
-12 8 1 -15.8255 0.1580
-12 8 2 -4.0751 -0.2930
-12 8 3 -13.9918 -0.4452
-12 8 4 16.2591 -0.2428
-12 8 5 20.5117 0.0259
-12 8 6 14.1703 -0.0233
-12 8 7 30.2523 0.1716
-12 8 8 8.9048 0.2121
-12 8 9 14.2517 0.1786
-12 8 10 -0.7132 -0.0637
-12 8 11 -1.8251 0.0872
-12 8 12 11.7488 -0.0529
-12 8 13 3.6510 -0.2710
-12 8 14 4.1845 -0.1985
-12 8 15 -14.8502 0.0578
-12 8 16 -2.1324 -0.2537
-12 8 17 7.3803 0.0129
-12 8 18 -0.3855 -0.2539
-12 8 19 5.8602 -0.5105
-12 8 20 -2.3902 0.0760
-12 9 1 11.9961 -0.1719
-12 9 2 2.8295 -0.0217
-12 9 3 -0.0822 0.0740
-12 9 4 5.0502 0.2738
-12 9 5 -18.2031 -0.0362
-12 9 6 20.7435 -0.0593
-12 9 7 -26.6021 0.0110
-12 9 8 17.6738 0.0633
-12 9 9 -21.6116 0.0913
-12 9 10 6.8320 -0.1803
-12 9 11 14.6032 0.0840
-12 9 12 -17.1365 -0.2453
-12 9 13 0.3331 -0.0713
-12 9 14 7.1378 -0.0997
-12 9 15 10.9191 -0.2990
-12 9 16 4.0609 0.0924
-12 9 17 -1.9571 0.0493
-12 9 18 -13.6907 0.2577
-12 9 19 3.7744 0.1312
-12 9 20 3.0345 0.3712
-12 10 1 -25.1134 0.0471
-12 10 2 -17.9853 -0.2147
-12 10 3 -35.1959 0.0092
-12 10 4 -1.4492 -0.2713
-12 10 5 11.2286 0.0831
-12 10 6 -7.4319 0.0001
-12 10 7 32.2505 0.1243
-12 10 8 11.2010 -0.0917
-12 10 9 26.4581 0.0211
-12 10 10 -0.9357 -0.0502
-12 10 11 9.1216 -0.0525
-12 10 12 -10.1991 -0.1338
-12 10 13 -9.0195 0.0571
-12 10 14 9.4214 -0.0568
-12 10 15 -14.7846 -0.1499
-12 10 16 -2.2428 0.2485
-12 10 17 10.1093 -0.1617
-12 10 18 4.7945 0.2657
-12 10 19 -2.3199 -0.1343
-12 11 1 1.8609 -0.1052
-12 11 2 -7.8610 0.0861
-12 11 3 -7.5186 0.2023
-12 11 4 7.6510 -0.1120
-12 11 5 -16.1775 0.1754
-12 11 6 7.6562 0.0168
-12 11 7 8.5374 -0.1883
-12 11 8 0.6688 -0.0454
-12 11 9 -1.6499 -0.1358
-12 11 10 -8.0949 -0.1086
-12 11 11 2.3815 -0.1336
-12 11 12 5.0814 -0.2442
-12 11 13 -5.3267 0.0554
-12 11 14 9.7508 -0.1853
-12 11 15 -7.4745 0.0516
-12 11 16 -20.7619 0.2678
-12 11 17 -3.5627 0.0159
-12 11 18 -2.5259 0.2730
-12 11 19 -3.8628 -0.0666
-12 12 1 1.0857 -0.3622
-12 12 2 -5.1079 0.1193
-12 12 3 1.7709 -0.0151
-12 12 4 3.6330 -0.2609
-12 12 5 -21.8495 0.1368
-12 12 6 3.6534 -0.1390
-12 12 7 -6.2315 0.0220
-12 12 8 7.0979 0.2048
-12 12 9 3.5189 0.0974
-12 12 10 20.4101 0.0260
-12 12 11 17.3266 -0.0282
-12 12 12 6.5351 0.1044
-12 12 13 -21.4990 0.1811
-12 12 14 -11.3657 0.1805
-12 12 15 3.8715 0.2384
-12 12 16 -15.2080 0.1862
-12 12 17 6.1824 -0.1321
-12 12 18 -8.0424 0.1319
-12 13 1 -9.2309 0.0993
-12 13 2 10.0962 0.0583
-12 13 3 -6.5732 0.0936
-12 13 4 7.7585 0.0900
-12 13 5 5.0579 0.1394
-12 13 6 -10.5365 0.0590
-12 13 7 13.8906 -0.1609
-12 13 8 -9.0474 -0.1919
-12 13 9 15.8810 -0.3345
-12 13 10 -8.1304 -0.1879
-12 13 11 -6.3218 -0.0067
-12 13 12 -2.4739 -0.0571
-12 13 13 4.1844 -0.2139
-12 13 14 -0.1748 0.0162
-12 13 15 4.8867 -0.2281
-12 13 16 -13.6283 0.0759
-12 13 17 -2.2691 0.0380
-12 13 18 12.5915 0.2182
-12 14 1 2.0558 -0.1037
-12 14 2 6.4056 -0.0281
-12 14 3 7.3217 -0.1986
-12 14 4 13.0665 -0.0031
-12 14 5 2.2452 -0.0537
-12 14 6 6.0673 -0.0511
-12 14 7 -15.3763 0.0403
-12 14 8 -2.6723 0.1261
-12 14 9 -10.5578 -0.0080
-12 14 10 0.9700 0.1389
-12 14 11 4.7330 0.1052
-12 14 12 17.0924 -0.0907
-12 14 13 4.5349 0.2772
-12 14 14 -6.1349 0.2907
-12 14 15 -0.8108 0.1376
-12 14 16 -9.1475 0.0095
-12 14 17 -3.0877 0.0831
-12 15 1 -4.6373 -0.0586
-12 15 2 14.9340 0.0950
-12 15 3 8.4171 0.0882
-12 15 4 6.7467 0.2122
-12 15 5 6.9696 -0.2977
-12 15 6 8.6989 0.0419
-12 15 7 -9.4200 -0.1666
-12 15 8 9.4362 -0.0889
-12 15 9 -0.9172 -0.1268
-12 15 10 -12.2055 0.0531
-12 15 11 2.1609 0.0910
-12 15 12 -15.4950 -0.2557
-12 15 13 -5.3686 0.0799
-12 15 14 -3.4478 -0.1598
-12 15 15 6.6921 -0.0436
-12 15 16 11.1406 0.1828
-12 16 1 1.7419 -0.2786
-12 16 2 1.7483 -0.1003
-12 16 3 -4.2088 0.1074
-12 16 4 -5.4597 -0.1126
-12 16 5 13.1898 0.0695
-12 16 6 6.0792 0.2295
-12 16 7 0.9789 0.2529
-12 16 8 -2.9103 -0.0871
-12 16 9 0.5907 -0.0449
-12 16 10 -21.2686 -0.1544
-12 16 11 -1.4469 -0.2150
-12 16 12 -12.4708 0.2924
-12 16 13 7.8211 0.0515
-12 16 14 12.8047 0.2409
-12 16 15 -3.7354 -0.1366
-12 17 1 4.8572 0.0213
-12 17 2 -13.1401 0.1965
-12 17 3 13.8405 0.1231
-12 17 4 -3.0555 -0.0002
-12 17 5 2.8906 0.1538
-12 17 6 15.1389 0.1890
-12 17 7 -5.0196 -0.5632
-12 17 8 9.9363 0.0548
-12 17 9 -4.1262 0.1147
-12 17 10 0.8088 -0.0191
-12 17 11 -1.4538 -0.0032
-12 17 12 1.5744 -0.1643
-12 17 13 -7.9445 0.0496
-12 17 14 0.0797 -0.3709
-12 18 1 9.9280 -0.0691
-12 18 2 -10.5675 0.1934
-12 18 3 13.7596 0.1435
-12 18 4 -3.0626 -0.0120
-12 18 5 -8.0261 0.0578
-12 18 6 -1.0378 0.1739
-12 18 7 -1.3651 -0.0615
-12 18 8 -6.1086 0.1712
-12 18 9 7.6354 0.0260
-12 18 10 -4.7767 -0.3371
-12 18 11 -0.4953 -0.0270
-12 18 12 -14.3565 0.3184
-12 19 1 10.7623 0.0411
-12 19 2 -9.8438 0.1700
-12 19 3 4.4126 -0.1491
-12 19 4 -8.9725 -0.1730
-12 19 5 -11.8656 0.2237
-12 19 6 2.4171 -0.2199
-12 19 7 7.8427 0.0441
-12 19 8 0.1708 -0.1019
-12 19 9 -2.3987 0.1663
-12 19 10 14.8560 0.0219
-12 20 1 1.9496 0.2843
-12 20 2 -11.1953 -0.1029
-12 20 3 6.8422 -0.1490
-12 20 4 6.1365 0.3314
-12 20 5 1.9116 0.0599
-12 20 6 -7.0704 0.1173
-12 20 7 -0.8319 0.0696
-12 20 8 -13.0635 0.0640
-11 0 2 -39.3548 -1.2280
-11 0 4 -86.4592 0.4238
-11 0 6 -87.1822 0.1809
-11 0 8 63.5804 -1.2181
-11 0 10 12.4299 -1.9495
-11 0 12 -18.7845 -0.6374
-11 0 14 2.9831 -0.2747
-11 0 16 -28.1054 0.8304
-11 0 18 0.3156 1.9113
-11 0 20 -9.6338 0.7747
-11 0 22 3.6496 0.2576
-11 1 1 -35.9525 -1.7475
-11 1 2 -2.9194 -0.7127
-11 1 3 -51.7402 -1.3928
-11 1 4 -20.4831 -0.0216
-11 1 5 9.2543 -0.5262
-11 1 6 14.6340 -0.9843
-11 1 7 9.6436 0.7449
-11 1 8 11.1025 0.7929
-11 1 9 -14.5174 0.6378
-11 1 10 -10.2533 0.4399
-11 1 11 33.0401 0.5044
-11 1 12 2.1751 -0.6377
-11 1 13 -17.5445 -0.1814
-11 1 14 -16.7740 0.5355
-11 1 15 -2.1716 -0.4758
-11 1 16 -3.0665 0.2912
-11 1 17 11.9790 -0.4372
-11 1 18 -18.6929 0.1636
-11 1 19 18.3814 -0.9009
-11 1 20 -12.8912 0.0631
-11 1 21 6.9250 -0.5304
-11 1 22 -4.0666 0.0034
-11 2 1 -17.8184 -0.2498
-11 2 2 -22.4320 -0.4992
-11 2 3 -3.7748 1.1668
-11 2 4 -4.6500 0.5125
-11 2 5 -11.5086 -0.2894
-11 2 6 8.3607 -0.1400
-11 2 7 -52.4641 -0.1688
-11 2 8 -2.1314 -0.3504
-11 2 9 7.3212 -2.2198
-11 2 10 9.2156 -0.5949
-11 2 11 5.2340 -1.0239
-11 2 12 -13.9766 -1.0711
-11 2 13 3.8634 0.3389
-11 2 14 -11.4627 0.3046
-11 2 15 -3.8773 0.3311
-11 2 16 -6.4562 0.2944
-11 2 17 -0.4052 0.1583
-11 2 18 -16.0730 0.0409
-11 2 19 4.5993 0.5502
-11 2 20 -4.3043 0.8616
-11 2 21 -31.3332 -0.0097
-11 2 22 8.2845 0.1411
-11 3 1 13.5414 0.1270
-11 3 2 10.9613 -0.9504
-11 3 3 55.1368 0.0197
-11 3 4 1.8699 -0.0339
-11 3 5 5.6979 -0.1569
-11 3 6 29.4652 0.1165
-11 3 7 29.4559 0.2942
-11 3 8 13.6209 -0.2974
-11 3 9 17.2183 0.2489
-11 3 10 2.1349 1.1610
-11 3 11 -35.7989 0.9373
-11 3 12 -19.5775 0.4309
-11 3 13 17.8564 0.8442
-11 3 14 -12.3232 -0.4065
-11 3 15 -9.8984 -0.2357
-11 3 16 -5.9577 0.3811
-11 3 17 -2.3801 0.2676
-11 3 18 -11.6005 -0.0722
-11 3 19 11.2447 -0.6214
-11 3 20 -3.3842 -0.8270
-11 3 21 -3.9316 -0.8582
-11 3 22 1.6517 0.0250
-11 4 1 -17.9041 -0.5530
-11 4 2 7.9132 0.7007
-11 4 3 -5.2985 0.8088
-11 4 4 54.6239 -0.1598
-11 4 5 -17.8571 -0.3074
-11 4 6 42.2274 -0.1812
-11 4 7 6.1904 -0.2757
-11 4 8 -49.5048 0.1421
-11 4 9 -14.3120 -0.3800
-11 4 10 -8.3552 0.4965
-11 4 11 -10.7973 -1.4576
-11 4 12 3.4706 0.1511
-11 4 13 5.6872 0.1180
-11 4 14 -10.4451 0.1906
-11 4 15 -0.8238 0.3634
-11 4 16 19.7137 -0.1861
-11 4 17 22.6844 -0.1980
-11 4 18 -17.3654 -0.6441
-11 4 19 7.6201 0.3413
-11 4 20 -0.9630 -0.1822
-11 4 21 1.5443 0.1243
-11 4 22 9.7316 -0.0393
-11 5 1 16.7758 -0.0040
-11 5 2 16.1216 0.2071
-11 5 3 14.9123 0.4141
-11 5 4 41.4968 0.0591
-11 5 5 -3.8431 0.2359
-11 5 6 46.4713 0.7847
-11 5 7 -7.5549 0.0023
-11 5 8 8.8658 -0.1293
-11 5 9 -5.9521 0.2572
-11 5 10 17.5959 0.2880
-11 5 11 -12.7422 0.0833
-11 5 12 -21.5423 0.7504
-11 5 13 13.7338 0.1231
-11 5 14 -5.2522 -0.1428
-11 5 15 -3.3437 0.3953
-11 5 16 -0.9948 -0.0946
-11 5 17 -1.3356 -0.0264
-11 5 18 8.5929 -0.3102
-11 5 19 10.4874 0.0625
-11 5 20 16.0200 -0.1726
-11 5 21 -1.8174 0.2247
-11 6 1 -8.0536 0.3040
-11 6 2 24.8644 0.4594
-11 6 3 3.1853 0.0725
-11 6 4 -8.7964 -0.1798
-11 6 5 0.3547 0.0683
-11 6 6 -41.8281 -0.1978
-11 6 7 13.8268 -0.3456
-11 6 8 -15.9960 0.0140
-11 6 9 -9.5872 0.2465
-11 6 10 -12.2085 0.1494
-11 6 11 -21.2496 0.0097
-11 6 12 -3.5920 0.5570
-11 6 13 1.5786 -0.1547
-11 6 14 19.9179 -0.0862
-11 6 15 2.3846 0.1219
-11 6 16 17.9801 -0.1937
-11 6 17 1.3137 0.2958
-11 6 18 7.6668 0.2148
-11 6 19 6.2363 0.0570
-11 6 20 6.6821 -0.4050
-11 6 21 14.6144 0.1714
-11 7 1 -10.9397 0.0900
-11 7 2 -8.8070 -0.0313
-11 7 3 -47.5249 -0.3203
-11 7 4 19.7897 0.0276
-11 7 5 -21.0863 0.0175
-11 7 6 22.5098 0.2014
-11 7 7 -30.7521 -0.2548
-11 7 8 20.1526 0.4546
-11 7 9 -15.5414 -0.0408
-11 7 10 -1.0429 -0.0311
-11 7 11 14.3479 0.1191
-11 7 12 3.2042 0.1573
-11 7 13 0.2910 0.0178
-11 7 14 -7.2296 0.5173
-11 7 15 -7.4337 0.0491
-11 7 16 1.1174 -0.1827
-11 7 17 16.7002 -0.1532
-11 7 18 2.2578 -0.1882
-11 7 19 -4.6646 0.0401
-11 7 20 -7.9352 0.2492
-11 7 21 -0.0146 0.2982
-11 8 1 11.1059 0.3439
-11 8 2 33.5933 -0.0731
-11 8 3 6.2048 0.1962
-11 8 4 -17.4685 0.1035
-11 8 5 -3.8675 0.0948
-11 8 6 -9.2552 -0.1450
-11 8 7 -16.3564 0.0192
-11 8 8 -0.8831 0.1703
-11 8 9 -12.0417 -0.0832
-11 8 10 -11.9332 0.0766
-11 8 11 18.3503 0.4126
-11 8 12 -9.6906 0.0398
-11 8 13 -5.7138 -0.1007
-11 8 14 18.2729 0.0981
-11 8 15 -3.7008 -0.3602
-11 8 16 2.6779 0.0268
-11 8 17 -16.7587 -0.0457
-11 8 18 6.3470 -0.1162
-11 8 19 4.8246 -0.1841
-11 8 20 15.7469 0.1167
-11 9 1 5.7615 0.0979
-11 9 2 0.5554 -0.0647
-11 9 3 -2.3433 -0.0022
-11 9 4 -10.2683 -0.0313
-11 9 5 -4.6794 0.0067
-11 9 6 -41.6054 0.0468
-11 9 7 -10.0128 -0.1051
-11 9 8 -3.7147 0.2507
-11 9 9 7.0042 -0.1894
-11 9 10 4.0371 0.1690
-11 9 11 -3.4934 0.2354
-11 9 12 4.0671 -0.0928
-11 9 13 -13.4068 0.2547
-11 9 14 15.3924 0.1657
-11 9 15 -0.7135 -0.2934
-11 9 16 3.7567 -0.0286
-11 9 17 5.2698 -0.1849
-11 9 18 2.4758 0.0697
-11 9 19 -14.0608 -0.0006
-11 9 20 -14.7066 0.1099
-11 10 1 8.5414 -0.1386
-11 10 2 14.5440 0.0812
-11 10 3 -2.8752 0.0994
-11 10 4 25.5042 -0.1459
-11 10 5 -10.0267 0.0484
-11 10 6 22.1021 -0.0581
-11 10 7 -6.2861 -0.1216
-11 10 8 2.1639 0.0662
-11 10 9 -9.1623 -0.1582
-11 10 10 -7.8115 0.2327
-11 10 11 9.8381 -0.0987
-11 10 12 11.2570 -0.1300
-11 10 13 11.6015 -0.2983
-11 10 14 -0.5869 -0.1270
-11 10 15 1.6196 -0.2496
-11 10 16 -7.9611 -0.0927
-11 10 17 2.0942 -0.1109
-11 10 18 7.0123 -0.2212
-11 10 19 -1.6830 -0.0925
-11 10 20 6.0289 -0.0564
-11 11 1 15.4915 -0.0376
-11 11 2 12.7037 -0.0716
-11 11 3 23.0902 0.0874
-11 11 4 -14.3799 -0.1139
-11 11 5 1.7446 -0.0063
-11 11 6 -26.1406 0.0704
-11 11 7 -5.2927 0.1462
-11 11 8 -21.2798 0.4449
-11 11 9 -12.6580 -0.0265
-11 11 10 6.5817 0.1982
-11 11 11 0.6473 -0.1696
-11 11 12 10.3615 0.1650
-11 11 13 1.8953 -0.0745
-11 11 14 1.3953 -0.0182
-11 11 15 13.0846 -0.0216
-11 11 16 7.9054 -0.0796
-11 11 17 -7.7782 -0.1267
-11 11 18 -4.7512 0.0691
-11 11 19 -10.4100 0.1184
-11 12 1 -14.5063 0.0723
-11 12 2 -5.9369 0.0435
-11 12 3 -13.7743 -0.3218
-11 12 4 0.8679 0.0916
-11 12 5 14.7838 -0.1132
-11 12 6 -4.4911 0.0317
-11 12 7 11.8769 -0.1380
-11 12 8 -0.1214 -0.0682
-11 12 9 16.4088 -0.0820
-11 12 10 7.8767 -0.0038
-11 12 11 -15.0225 -0.0062
-11 12 12 -5.0588 -0.1557
-11 12 13 13.4906 -0.4496
-11 12 14 -1.0057 -0.1950
-11 12 15 2.5277 -0.1363
-11 12 16 12.8635 -0.1042
-11 12 17 -8.6922 0.1952
-11 12 18 13.1680 -0.0026
-11 12 19 -8.8507 0.1911
-11 13 1 -8.1358 0.0360
-11 13 2 -19.5079 -0.0165
-11 13 3 -4.7646 -0.1352
-11 13 4 -14.1151 0.2255
-11 13 5 -4.9285 -0.0400
-11 13 6 18.8531 0.1005
-11 13 7 -11.8611 0.0601
-11 13 8 6.8179 0.1585
-11 13 9 -15.3274 -0.2425
-11 13 10 -4.9222 0.0028
-11 13 11 -6.5810 -0.1583
-11 13 12 5.4702 0.0480
-11 13 13 18.5413 -0.1196
-11 13 14 -8.0398 0.0902
-11 13 15 -3.4266 -0.0220
-11 13 16 0.4735 -0.1711
-11 13 17 -0.9651 0.1069
-11 13 18 -8.2143 -0.1324
-11 14 1 -20.4521 0.2084
-11 14 2 -4.3130 -0.1582
-11 14 3 -1.6476 -0.1708
-11 14 4 -22.1614 0.0813
-11 14 5 2.5411 -0.3969
-11 14 6 0.8941 -0.1062
-11 14 7 9.5804 0.0165
-11 14 8 0.8251 0.1239
-11 14 9 24.0678 0.1289
-11 14 10 3.9498 0.1465
-11 14 11 16.2618 -0.1469
-11 14 12 -14.4349 -0.0924
-11 14 13 -7.7285 -0.2695
-11 14 14 -7.9722 0.0744
-11 14 15 -15.6274 -0.0855
-11 14 16 15.9464 0.0562
-11 14 17 -11.1693 0.1575
-11 15 1 -4.5714 -0.1885
-11 15 2 -24.2232 -0.1387
-11 15 3 2.2699 0.0258
-11 15 4 -27.9463 0.0338
-11 15 5 2.6401 0.0320
-11 15 6 0.2732 0.2847
-11 15 7 5.4276 0.1322
-11 15 8 10.8820 -0.0531
-11 15 9 8.1897 -0.2518
-11 15 10 4.1933 -0.0919
-11 15 11 -15.8354 -0.1680
-11 15 12 -7.5385 0.0407
-11 15 13 -5.3128 -0.1857
-11 15 14 9.1130 -0.1288
-11 15 15 -11.2068 -0.1645
-11 15 16 4.3171 -0.1851
-11 16 1 5.6648 -0.0703
-11 16 2 -15.6436 -0.0702
-11 16 3 8.1159 -0.1334
-11 16 4 -2.1570 0.0741
-11 16 5 -10.6290 -0.0547
-11 16 6 11.0720 0.1126
-11 16 7 -6.9461 -0.2423
-11 16 8 3.0341 0.1410
-11 16 9 -0.1815 0.1574
-11 16 10 11.2253 0.0462
-11 16 11 18.0365 -0.1385
-11 16 12 10.3464 -0.1440
-11 16 13 0.6921 -0.0388
-11 16 14 -13.5321 -0.0622
-11 16 15 -9.9721 0.0880
-11 17 1 -2.9572 0.0903
-11 17 2 1.6869 -0.0010
-11 17 3 16.4005 0.0892
-11 17 4 -1.4936 -0.1345
-11 17 5 9.3189 0.0388
-11 17 6 -17.9463 -0.1375
-11 17 7 14.2294 0.0677
-11 17 8 -7.7437 -0.0351
-11 17 9 5.4810 -0.2340
-11 17 10 0.0320 0.0578
-11 17 11 -5.8015 -0.2635
-11 17 12 -11.5762 0.2253
-11 17 13 -3.6722 -0.2851
-11 17 14 5.7009 0.2067
-11 18 1 15.8875 -0.0023
-11 18 2 -3.4089 0.1025
-11 18 3 2.0494 -0.3074
-11 18 4 -0.6818 0.0233
-11 18 5 4.4902 -0.1016
-11 18 6 -0.2014 -0.1531
-11 18 7 1.8545 0.1506
-11 18 8 2.5222 -0.0296
-11 18 9 -20.9880 -0.0886
-11 18 10 11.5159 -0.1543
-11 18 11 -4.8839 0.0037
-11 18 12 9.0702 -0.0277
-11 18 13 10.5757 0.1247
-11 19 1 -11.1986 0.1368
-11 19 2 11.8795 -0.1270
-11 19 3 -5.0006 -0.2317
-11 19 4 17.4049 0.3402
-11 19 5 18.8572 0.1237
-11 19 6 -5.3514 -0.2223
-11 19 7 8.5349 -0.0875
-11 19 8 -6.7063 -0.2270
-11 19 9 -1.7416 -0.2760
-11 19 10 -8.7110 0.1952
-11 19 11 -0.3679 0.1076
-11 20 1 0.8638 0.0855
-11 20 2 16.7414 -0.1083
-11 20 3 0.2259 0.1697
-11 20 4 -0.1544 -0.1196
-11 20 5 12.2561 -0.0381
-11 20 6 -7.4842 -0.3235
-11 20 7 -0.1139 0.4209
-11 20 8 2.7125 0.0259
-11 20 9 -9.6313 -0.1769
-11 21 3 -4.2511 0.1967
-11 21 4 -1.1762 0.0326
-11 21 5 2.6016 0.1464
-10 0 2 78.2457 -0.4671
-10 0 4 26.3717 0.2042
-10 0 6 92.5530 0.6631
-10 0 8 6.6251 3.0728
-10 0 10 -23.8948 1.9661
-10 0 12 16.9457 -0.2371
-10 0 14 -21.3952 -0.4977
-10 0 16 -1.6887 -0.6263
-10 0 18 -26.1452 -0.7376
-10 0 20 9.8824 -0.2616
-10 0 22 20.7525 0.3027
-10 1 1 22.4484 0.8941
-10 1 2 -30.6591 0.1232
-10 1 3 38.5387 0.9738
-10 1 4 34.7200 -0.1833
-10 1 5 8.1742 -0.4012
-10 1 6 35.1346 -0.2481
-10 1 7 -58.1451 -0.0302
-10 1 8 -32.9284 0.1335
-10 1 9 4.9760 -1.6564
-10 1 10 14.1263 -0.7136
-10 1 11 -11.5604 -0.9572
-10 1 12 -2.6000 -1.1808
-10 1 13 19.3115 0.3396
-10 1 14 3.1358 0.1144
-10 1 15 5.3103 -0.3277
-10 1 16 25.1804 -0.8359
-10 1 17 -1.1137 0.3033
-10 1 18 10.8181 -0.0254
-10 1 19 7.4144 1.4425
-10 1 20 25.4173 0.9931
-10 1 21 -7.9965 0.4337
-10 1 22 13.5682 0.0608
-10 2 1 14.0524 -0.9208
-10 2 2 3.7948 -0.4830
-10 2 3 -7.0165 0.0607
-10 2 4 6.4268 0.1819
-10 2 5 -41.5662 0.3148
-10 2 6 17.0444 0.4347
-10 2 7 36.5407 -0.8267
-10 2 8 18.2047 -0.0878
-10 2 9 19.6834 -1.1661
-10 2 10 23.9962 1.6400
-10 2 11 -30.2005 -0.4620
-10 2 12 6.9359 0.1556
-10 2 13 21.0136 -0.2546
-10 2 14 -2.9598 -0.2778
-10 2 15 -9.5640 0.4003
-10 2 16 -8.7156 0.5767
-10 2 17 8.8067 1.5031
-10 2 18 -4.0879 -0.5165
-10 2 19 14.0682 0.7000
-10 2 20 -6.3306 -0.4323
-10 2 21 11.7869 0.1412
-10 2 22 -2.4506 -0.0005
-10 3 1 -29.0618 -0.7077
-10 3 2 -8.0328 -0.1956
-10 3 3 -70.4228 -0.3772
-10 3 4 54.6761 -0.7650
-10 3 5 -57.0265 -0.9550
-10 3 6 31.2604 0.2575
-10 3 7 24.9497 0.0585
-10 3 8 -6.8220 0.1924
-10 3 9 1.8349 -0.0284
-10 3 10 -5.7488 0.0989
-10 3 11 14.4388 -1.1687
-10 3 12 0.4147 -0.0931
-10 3 13 4.2807 0.3102
-10 3 14 -4.7628 -0.4404
-10 3 15 4.9032 0.2462
-10 3 16 17.5812 -0.2393
-10 3 17 -1.4743 0.5267
-10 3 18 12.0668 -0.5621
-10 3 19 -16.8650 0.5190
-10 3 20 23.4723 -0.2862
-10 3 21 1.9991 0.0597
-10 3 22 13.0196 0.0639
-10 4 1 3.3730 -0.7693
-10 4 2 -52.9031 0.2423
-10 4 3 -16.6598 0.1024
-10 4 4 -12.1402 -0.0706
-10 4 5 27.5467 0.1992
-10 4 6 -23.3228 0.2272
-10 4 7 -8.0913 -0.2685
-10 4 8 13.4490 -1.1606
-10 4 9 -3.6881 -0.3046
-10 4 10 38.1876 -0.4957
-10 4 11 2.5623 -0.9375
-10 4 12 3.1763 0.4621
-10 4 13 -25.9996 -0.0255
-10 4 14 2.4488 0.1772
-10 4 15 -13.8287 0.3926
-10 4 16 0.1250 0.0146
-10 4 17 -24.7751 0.1915
-10 4 18 13.5622 0.0683
-10 4 19 -18.1798 1.0020
-10 4 20 -14.7670 -0.2509
-10 4 21 -0.2322 0.2371
-10 4 22 -19.2439 -0.5386
-10 5 1 -1.5024 -0.0572
-10 5 2 43.5646 0.2548
-10 5 3 -6.3667 -0.2924
-10 5 4 9.1837 0.0021
-10 5 5 -7.8284 -0.0476
-10 5 6 -7.4285 0.3611
-10 5 7 20.9097 -0.5739
-10 5 8 39.4491 0.2640
-10 5 9 7.3965 0.3642
-10 5 10 -19.6011 0.3422
-10 5 11 -5.7027 0.0097
-10 5 12 1.2810 0.4704
-10 5 13 -10.0871 -0.5478
-10 5 14 -3.3114 -0.2427
-10 5 15 0.3624 0.4467
-10 5 16 -21.3877 0.0708
-10 5 17 -14.0948 0.3383
-10 5 18 7.2355 -0.3925
-10 5 19 -3.3346 -0.3182
-10 5 20 -1.4454 -0.7727
-10 5 21 9.8350 0.1345
-10 6 1 -13.0938 0.4825
-10 6 2 3.5244 -0.0938
-10 6 3 -10.8967 -0.2722
-10 6 4 15.9885 -0.1579
-10 6 5 4.6071 -0.0640
-10 6 6 7.6833 -0.1914
-10 6 7 -31.2900 -0.1608
-10 6 8 -2.2636 -0.0890
-10 6 9 -0.1700 0.0340
-10 6 10 -30.6783 -0.8855
-10 6 11 13.0966 -0.0729
-10 6 12 -0.8520 0.2013
-10 6 13 -21.2978 0.0464
-10 6 14 -4.5815 0.5019
-10 6 15 -2.1570 0.0626
-10 6 16 8.5641 -0.2343
-10 6 17 -9.4666 0.0057
-10 6 18 6.9489 0.2090
-10 6 19 -32.2282 -0.0553
-10 6 20 -8.9704 -0.0258
-10 6 21 -8.5002 -0.2214
-10 7 1 29.4412 0.3161
-10 7 2 1.7766 0.1109
-10 7 3 61.1400 0.1567
-10 7 4 -28.1116 0.2734
-10 7 5 58.7479 0.2146
-10 7 6 8.1791 0.1086
-10 7 7 8.3667 -0.0462
-10 7 8 0.8459 0.3658
-10 7 9 -6.0215 0.0061
-10 7 10 7.2426 0.0107
-10 7 11 3.0976 0.3750
-10 7 12 14.6614 -0.1090
-10 7 13 -24.2596 -0.2039
-10 7 14 6.7963 0.2549
-10 7 15 -9.1982 0.1120
-10 7 16 -3.9369 0.0327
-10 7 17 -18.7759 -0.0958
-10 7 18 11.6268 -0.2101
-10 7 19 7.8187 -0.2709
-10 7 20 9.9388 -0.0869
-10 7 21 7.1474 -0.0322
-10 8 1 -8.1114 0.1448
-10 8 2 21.6899 -0.0707
-10 8 3 -8.5065 0.0677
-10 8 4 14.7742 0.0593
-10 8 5 -21.9375 -0.0385
-10 8 6 -17.6954 -0.0472
-10 8 7 -4.0856 -0.0293
-10 8 8 -11.2574 0.0539
-10 8 9 9.3723 -0.1741
-10 8 10 -22.3914 -0.0075
-10 8 11 -16.5712 0.1779
-10 8 12 -5.2654 0.0560
-10 8 13 7.1042 0.0880
-10 8 14 4.8288 0.2480
-10 8 15 18.4767 0.1157
-10 8 16 -0.4931 0.1918
-10 8 17 7.0592 0.2532
-10 8 18 4.5315 0.0225
-10 8 19 -2.6239 -0.1595
-10 8 20 -4.2261 -0.0606
-10 8 21 -5.1737 -0.3121
-10 9 1 -12.5087 0.0397
-10 9 2 -36.5706 -0.2527
-10 9 3 3.4927 0.1422
-10 9 4 -5.2073 -0.1051
-10 9 5 24.7335 -0.0361
-10 9 6 9.3099 -0.0964
-10 9 7 21.4429 -0.0329
-10 9 8 -2.6883 0.0600
-10 9 9 9.7073 -0.1162
-10 9 10 7.3397 0.3745
-10 9 11 1.2839 -0.0997
-10 9 12 8.2930 0.1040
-10 9 13 2.4710 0.2149
-10 9 14 -10.4656 -0.0372
-10 9 15 -2.6285 0.1077
-10 9 16 7.0565 -0.1241
-10 9 17 0.0576 -0.0852
-10 9 18 10.5306 -0.0927
-10 9 19 -5.4357 -0.0683
-10 9 20 4.7785 -0.0021
-10 10 1 7.2305 -0.0368
-10 10 2 -9.5062 0.2379
-10 10 3 7.2938 0.0796
-10 10 4 -24.4962 0.1041
-10 10 5 18.1039 -0.1407
-10 10 6 -10.1101 0.0439
-10 10 7 20.7982 0.2033
-10 10 8 -14.8873 -0.0503
-10 10 9 -18.1031 0.0487
-10 10 10 10.0324 0.0340
-10 10 11 -14.7913 0.0467
-10 10 12 8.4871 0.2318
-10 10 13 2.2237 0.2322
-10 10 14 -3.8011 -0.0702
-10 10 15 3.5733 0.0892
-10 10 16 13.4533 0.0519
-10 10 17 -8.9893 -0.2448
-10 10 18 4.5469 -0.0942
-10 10 19 5.9576 0.1499
-10 10 20 8.7608 -0.0370
-10 11 1 -7.6912 0.0524
-10 11 2 1.8276 -0.0577
-10 11 3 -12.3336 -0.1451
-10 11 4 2.3561 0.0909
-10 11 5 -6.5434 0.0061
-10 11 6 -8.2364 0.0261
-10 11 7 1.0133 0.0102
-10 11 8 3.7868 -0.0116
-10 11 9 26.1242 0.1290
-10 11 10 11.0942 0.3046
-10 11 11 -12.2731 -0.0001
-10 11 12 -20.3483 0.2566
-10 11 13 12.1910 -0.0015
-10 11 14 -10.0770 -0.0874
-10 11 15 3.0900 0.0633
-10 11 16 1.9464 -0.1693
-10 11 17 -1.2626 0.0461
-10 11 18 -0.9190 -0.1168
-10 11 19 0.0803 -0.0239
-10 12 1 12.5305 0.2412
-10 12 2 -14.6470 0.1492
-10 12 3 17.0852 0.0050
-10 12 4 -7.5371 0.2730
-10 12 5 -1.0199 -0.0786
-10 12 6 18.3909 -0.0393
-10 12 7 0.3388 -0.1124
-10 12 8 1.0743 -0.1474
-10 12 9 -6.0113 -0.1268
-10 12 10 -11.3431 0.0386
-10 12 11 0.7437 0.0544
-10 12 12 4.4814 0.0591
-10 12 13 7.5716 -0.0136
-10 12 14 1.0361 0.0008
-10 12 15 -9.2801 -0.0600
-10 12 16 4.8601 -0.1286
-10 12 17 3.2048 -0.2197
-10 12 18 0.0820 -0.0033
-10 12 19 6.7922 -0.0140
-10 13 1 17.6239 0.1000
-10 13 2 28.0484 0.0428
-10 13 3 24.8527 0.0109
-10 13 4 -14.7156 0.0750
-10 13 5 0.6431 -0.0800
-10 13 6 -23.2906 -0.0339
-10 13 7 -8.4713 0.3646
-10 13 8 -24.4703 0.1344
-10 13 9 0.8373 0.3135
-10 13 10 7.8933 0.0407
-10 13 11 19.3563 0.1204
-10 13 12 11.5465 0.0891
-10 13 13 -13.6083 0.1568
-10 13 14 9.7126 0.2253
-10 13 15 -12.3390 -0.1367
-10 13 16 7.4290 -0.0495
-10 13 17 -9.2324 0.0490
-10 13 18 -8.6195 -0.0682
-10 14 1 21.0242 -0.0439
-10 14 2 -5.9097 -0.0831
-10 14 3 10.0884 0.0366
-10 14 4 7.1125 -0.1055
-10 14 5 -13.4579 -0.1032
-10 14 6 4.0002 0.0110
-10 14 7 -15.5354 -0.1582
-10 14 8 16.2029 -0.1588
-10 14 9 -0.4390 -0.1632
-10 14 10 -3.5855 0.2320
-10 14 11 -8.0939 0.0597
-10 14 12 -4.2343 -0.0704
-10 14 13 7.0026 -0.0159
-10 14 14 13.0164 0.0254
-10 14 15 16.7116 -0.1033
-10 14 16 -14.8814 0.0195
-10 14 17 10.7145 -0.0287
-10 15 1 3.8696 -0.0200
-10 15 2 6.2372 -0.0575
-10 15 3 -6.9708 0.1795
-10 15 4 11.3843 0.0088
-10 15 5 3.1000 0.1526
-10 15 6 -14.0924 0.0843
-10 15 7 -5.2409 0.0459
-10 15 8 -19.9310 0.0575
-10 15 9 -11.1539 0.0913
-10 15 10 -8.5351 0.1746
-10 15 11 21.1038 0.0472
-10 15 12 19.7961 0.0276
-10 15 13 -1.0516 0.3060
-10 15 14 1.6879 -0.1657
-10 15 15 -5.2265 -0.0972
-10 15 16 -5.2890 0.0726
-10 15 17 -0.0883 -0.1719
-10 16 1 5.1121 0.0034
-10 16 2 -4.0790 0.1554
-10 16 3 2.3689 0.0115
-10 16 4 -5.8961 -0.2342
-10 16 5 15.8824 -0.0588
-10 16 6 -15.6070 -0.2099
-10 16 7 8.8043 0.0451
-10 16 8 12.1574 -0.1005
-10 16 9 -12.0869 0.1753
-10 16 10 7.6383 0.1281
-10 16 11 -8.6227 -0.0408
-10 16 12 -2.9310 -0.0354
-10 16 13 -3.2794 0.0409
-10 16 14 1.5793 -0.1475
-10 16 15 7.6473 -0.0712
-10 16 16 1.6455 0.0522
-10 17 1 -3.0636 -0.1713
-10 17 2 6.4176 0.1903
-10 17 3 -37.8644 -0.1201
-10 17 4 13.5771 -0.0728
-10 17 5 -12.1852 0.1646
-10 17 6 3.3268 0.1167
-10 17 7 -2.1896 0.3412
-10 17 8 12.9329 0.0605
-10 17 9 -3.3423 0.1528
-10 17 10 -0.5654 -0.1439
-10 17 11 -4.8129 -0.1407
-10 17 12 -13.0305 -0.0647
-10 17 13 4.4328 -0.0599
-10 17 14 -11.9791 -0.3590
-10 17 15 9.3886 -0.1338
-10 18 1 -18.8756 0.2805
-10 18 2 0.0074 -0.1605
-10 18 3 -18.7256 0.1546
-10 18 4 -6.3373 0.1368
-10 18 5 13.9478 0.3412
-10 18 6 -7.9209 -0.0610
-10 18 7 15.7824 -0.1565
-10 18 8 -0.5562 -0.0483
-10 18 9 11.5213 0.1279
-10 18 10 -1.0642 0.0881
-10 18 11 5.9576 -0.0812
-10 18 12 0.2133 -0.1457
-10 18 13 -8.7703 -0.1865
-10 19 1 -2.2299 -0.0103
-10 19 2 2.3421 -0.0630
-10 19 3 -5.0907 0.1555
-10 19 4 0.9156 -0.2632
-10 19 5 -8.7825 0.0914
-10 19 6 7.5759 0.0720
-10 19 7 -4.8860 0.3487
-10 19 8 12.7410 -0.0957
-10 19 9 3.1756 0.1477
-10 19 10 2.3520 -0.4715
-10 19 11 -10.4823 -0.2534
-10 19 12 -5.2946 -0.2368
-10 20 1 -10.4497 0.2492
-10 20 2 4.3145 -0.1204
-10 20 3 -9.8426 0.3096
-10 20 4 1.1480 -0.2981
-10 20 5 -11.6021 -0.1722
-10 20 6 8.2666 0.1781
-10 20 7 1.3776 -0.4093
-10 20 8 -3.2432 0.0345
-10 20 9 12.1112 0.1099
-10 20 10 -1.1236 -0.1315
-10 21 1 0.9863 -0.1184
-10 21 2 -11.1093 -0.5052
-10 21 3 5.0459 0.1278
-10 21 4 8.0827 -0.3137
-10 21 5 0.2494 0.0421
-10 21 6 16.7728 0.1750
-10 21 7 -4.2862 -0.3231
-9 0 2 -93.9125 0.2070
-9 0 4 17.2818 -0.2129
-9 0 6 -16.3443 0.8970
-9 0 8 -2.4546 1.7187
-9 0 10 43.6970 0.7489
-9 0 12 -9.1058 0.3768
-9 0 14 15.9412 -0.3353
-9 0 16 6.7124 -2.0230
-9 0 18 -9.3926 -1.4284
-9 0 20 4.0462 -0.6153
-9 0 22 -5.6007 0.1158
-9 1 1 4.5937 0.0264
-9 1 2 5.7121 0.4612
-9 1 3 -77.2231 0.1277
-9 1 4 27.9590 1.1083
-9 1 5 -76.2122 -0.2303
-9 1 6 -67.2332 -0.2722
-9 1 7 21.4126 -0.6197
-9 1 8 -5.7491 -0.8974
-9 1 9 7.2447 -0.1864
-9 1 10 9.5449 0.8404
-9 1 11 11.3252 0.1710
-9 1 12 -19.6758 -0.4786
-9 1 13 3.2128 0.3780
-9 1 14 -1.7822 -0.4135
-9 1 15 -14.2436 0.3258
-9 1 16 -20.8970 -0.0898
-9 1 17 -7.3412 0.6334
-9 1 18 5.5709 -0.3836
-9 1 19 -25.6622 0.5829
-9 1 20 -17.7246 0.0238
-9 1 21 -15.7697 -0.1632
-9 1 22 -10.3297 0.4229
-9 2 1 33.8536 0.3193
-9 2 2 7.7855 0.1570
-9 2 3 -31.6944 -0.0446
-9 2 4 -2.3034 -0.0907
-9 2 5 -13.1637 0.4021
-9 2 6 -26.0222 0.3266
-9 2 7 57.4878 2.5080
-9 2 8 8.8835 0.3082
-9 2 9 -24.5731 1.7370
-9 2 10 -15.5985 0.8264
-9 2 11 22.1575 -0.3851
-9 2 12 16.3888 0.0140
-9 2 13 -27.5432 -0.3680
-9 2 14 12.8477 -0.5946
-9 2 15 -22.7958 -0.4781
-9 2 16 8.2731 0.0020
-9 2 17 -28.5128 -0.5675
-9 2 18 15.7796 -1.1175
-9 2 19 -24.4952 0.0681
-9 2 20 10.8370 -0.5467
-9 2 21 6.4642 0.6512
-9 2 22 1.0740 -0.0947
-9 3 1 13.9380 0.1208
-9 3 2 -44.9281 0.2723
-9 3 3 23.1110 -0.1256
-9 3 4 -20.4213 -0.1798
-9 3 5 44.1134 -0.4654
-9 3 6 -54.9797 0.1133
-9 3 7 -70.7663 -0.2056
-9 3 8 -6.4661 -1.0624
-9 3 9 -32.3502 -0.4573
-9 3 10 21.1656 -0.6603
-9 3 11 6.9211 -0.8820
-9 3 12 -5.5586 0.5051
-9 3 13 -13.1506 0.1023
-9 3 14 7.4318 -0.4562
-9 3 15 23.9049 -0.3750
-9 3 16 -6.8628 -0.1480
-9 3 17 -2.1774 0.1489
-9 3 18 4.0735 0.9070
-9 3 19 5.5327 1.2282
-9 3 20 -17.2423 -0.0653
-9 3 21 13.3653 0.4259
-9 3 22 -16.1173 0.2009
-9 4 1 -50.9848 0.3788
-9 4 2 67.4867 0.0030
-9 4 3 -9.0381 0.2457
-9 4 4 -14.7239 0.2349
-9 4 5 -6.1128 0.5707
-9 4 6 -5.1606 -0.1853
-9 4 7 36.6469 0.2413
-9 4 8 0.2115 -0.3316
-9 4 9 50.9477 1.4665
-9 4 10 -35.7438 -0.2093
-9 4 11 30.3300 0.1506
-9 4 12 13.2503 -0.2353
-9 4 13 5.4762 -0.6383
-9 4 14 4.1116 -0.1230
-9 4 15 -5.8925 0.4464
-9 4 16 -5.4326 0.4585
-9 4 17 -6.2595 -0.5616
-9 4 18 26.0532 0.3432
-9 4 19 1.0256 -0.3338
-9 4 20 13.3173 0.0614
-9 4 21 -1.4474 0.2929
-9 4 22 2.1185 -0.0352
-9 5 1 -14.4232 0.2309
-9 5 2 -69.5088 -0.6427
-9 5 3 49.2401 -0.4932
-9 5 4 -70.0935 -0.7902
-9 5 5 28.9865 0.0151
-9 5 6 16.3252 -0.3524
-9 5 7 -15.6244 -0.1789
-9 5 8 11.2953 -0.1169
-9 5 9 -10.9829 -0.1176
-9 5 10 -4.2345 -0.9961
-9 5 11 -13.3311 0.0232
-9 5 12 22.4006 0.1611
-9 5 13 -5.4420 -0.3294
-9 5 14 21.6964 0.0709
-9 5 15 5.8451 -0.1119
-9 5 16 20.1175 0.2350
-9 5 17 11.2004 -0.0357
-9 5 18 1.7822 0.6467
-9 5 19 1.4259 -0.0466
-9 5 20 4.3065 0.2540
-9 5 21 6.9600 0.4617
-9 5 22 2.8229 -0.0599
-9 6 1 -43.9207 0.0126
-9 6 2 -11.1493 -0.1584
-9 6 3 11.3178 0.1147
-9 6 4 -14.8650 0.1120
-9 6 5 35.8388 0.2718
-9 6 6 24.5216 -0.1386
-9 6 7 13.6618 -0.2460
-9 6 8 -9.5622 0.0738
-9 6 9 28.9107 -0.1365
-9 6 10 23.3900 -0.5766
-9 6 11 23.1215 0.3818
-9 6 12 -13.1574 -0.2862
-9 6 13 -1.1964 -0.1425
-9 6 14 -8.8808 0.0603
-9 6 15 2.0150 -0.1870
-9 6 16 -7.2227 -0.0976
-9 6 17 3.7476 -0.0402
-9 6 18 -10.1548 0.5936
-9 6 19 11.8975 -0.0622
-9 6 20 0.0511 0.1296
-9 6 21 1.6604 -0.3738
-9 7 1 -23.2706 0.1564
-9 7 2 18.6485 -0.3620
-9 7 3 -4.2401 0.1741
-9 7 4 2.7109 -0.1386
-9 7 5 6.9106 0.3043
-9 7 6 -14.0925 -0.4847
-9 7 7 46.8026 0.0420
-9 7 8 -8.5347 -0.0201
-9 7 9 14.0230 -0.2079
-9 7 10 -18.9435 -0.0584
-9 7 11 -18.4705 0.1575
-9 7 12 -10.1784 -0.5279
-9 7 13 11.3536 -0.1028
-9 7 14 -0.0973 0.0794
-9 7 15 -6.2254 0.1540
-9 7 16 -7.8705 0.3232
-9 7 17 10.2815 -0.0600
-9 7 18 0.6354 0.0746
-9 7 19 8.9919 -0.2451
-9 7 20 10.3486 0.5904
-9 7 21 -7.9270 0.0883
-9 8 1 45.5941 -0.2942
-9 8 2 -24.5520 -0.1671
-9 8 3 23.0561 0.0219
-9 8 4 -12.2777 -0.0725
-9 8 5 13.9093 0.0517
-9 8 6 -11.5193 -0.2890
-9 8 7 -4.9122 0.0656
-9 8 8 9.8899 -0.1444
-9 8 9 -22.4335 -0.3193
-9 8 10 15.9374 -0.0444
-9 8 11 -19.8533 0.1466
-9 8 12 -15.5349 -0.2018
-9 8 13 -4.8087 0.3927
-9 8 14 -7.0876 -0.0315
-9 8 15 -14.2927 -0.2864
-9 8 16 7.3381 0.2367
-9 8 17 -1.6457 0.0763
-9 8 18 -11.0662 0.1382
-9 8 19 -8.3918 -0.0539
-9 8 20 -5.9537 -0.1750
-9 8 21 -1.4072 -0.2739
-9 9 1 -4.5270 0.1002
-9 9 2 39.0021 0.1354
-9 9 3 -5.4793 0.1420
-9 9 4 17.8280 -0.1664
-9 9 5 20.4828 0.0404
-9 9 6 -7.4746 -0.2542
-9 9 7 16.9562 0.2920
-9 9 8 -24.6827 -0.1780
-9 9 9 -23.1895 -0.1001
-9 9 10 4.3894 -0.0301
-9 9 11 4.9109 -0.1638
-9 9 12 -11.7969 -0.1246
-9 9 13 3.8496 0.1746
-9 9 14 -16.7940 0.0908
-9 9 15 -3.1399 0.0316
-9 9 16 -3.9848 0.1742
-9 9 17 6.0341 -0.1445
-9 9 18 -10.6806 0.0236
-9 9 19 21.3419 0.3361
-9 9 20 3.9197 0.2149
-9 10 1 44.1361 -0.0867
-9 10 2 11.9692 0.0628
-9 10 3 8.2187 -0.0569
-9 10 4 5.7228 0.1794
-9 10 5 -31.9814 0.2072
-9 10 6 -21.1801 0.1588
-9 10 7 -29.5229 0.0679
-9 10 8 -7.5089 -0.0906
-9 10 9 2.7421 0.0479
-9 10 10 -7.7597 -0.0370
-9 10 11 -6.2813 0.1348
-9 10 12 -23.4476 -0.0405
-9 10 13 13.1081 0.2460
-9 10 14 3.8101 0.1314
-9 10 15 -1.2724 0.1610
-9 10 16 -2.2252 0.3201
-9 10 17 3.5726 0.0123
-9 10 18 -1.4915 0.0747
-9 10 19 -2.2154 -0.4904
-9 10 20 -2.0754 -0.2955
-9 11 1 -14.4644 -0.0593
-9 11 2 -19.7255 0.0827
-9 11 3 13.8551 -0.0709
-9 11 4 4.2808 -0.1763
-9 11 5 -5.0386 0.0105
-9 11 6 17.8048 -0.4235
-9 11 7 0.3593 0.0086
-9 11 8 13.9580 -0.3515
-9 11 9 -10.7647 0.2691
-9 11 10 -3.8911 -0.2059
-9 11 11 -1.3320 0.1228
-9 11 12 13.7662 -0.0745
-9 11 13 -9.6663 -0.1994
-9 11 14 19.1506 0.3857
-9 11 15 -11.4035 -0.1331
-9 11 16 7.9174 0.1273
-9 11 17 10.1899 -0.1415
-9 11 18 -3.9703 0.1618
-9 11 19 5.9468 0.0585
-9 12 1 -6.0447 0.1531
-9 12 2 5.2517 0.0391
-9 12 3 0.2156 0.1449
-9 12 4 8.2922 -0.0252
-9 12 5 0.2266 0.1187
-9 12 6 6.0386 0.1780
-9 12 7 -14.7400 0.2070
-9 12 8 -14.5605 0.1103
-9 12 9 -11.8389 0.0045
-9 12 10 -2.5583 -0.1549
-9 12 11 24.2901 0.1363
-9 12 12 1.3100 0.1747
-9 12 13 -6.1085 0.0506
-9 12 14 -4.7509 0.2249
-9 12 15 14.9782 -0.1691
-9 12 16 -6.0478 -0.0049
-9 12 17 15.9227 0.1007
-9 12 18 -11.3167 -0.1162
-9 12 19 8.1052 -0.3237
-9 13 1 -3.3460 -0.0241
-9 13 2 -5.9479 -0.1940
-9 13 3 -18.8765 -0.0016
-9 13 4 22.1057 -0.1980
-9 13 5 -10.4850 -0.0324
-9 13 6 17.1996 -0.0254
-9 13 7 3.8702 -0.0962
-9 13 8 27.0282 -0.0516
-9 13 9 14.0916 0.1242
-9 13 10 -14.5080 0.0332
-9 13 11 -12.7216 0.0708
-9 13 12 -7.3960 -0.3138
-9 13 13 0.7451 -0.0087
-9 13 14 15.3013 0.0756
-9 13 15 15.1713 -0.1025
-9 13 16 -7.5252 0.1393
-9 13 17 4.5542 -0.0022
-9 13 18 1.7620 0.1488
-9 14 1 -10.9161 0.0061
-9 14 2 -10.7910 -0.0064
-9 14 3 -6.2717 0.3037
-9 14 4 0.5375 -0.0231
-9 14 5 23.8381 0.1958
-9 14 6 -5.7053 -0.0153
-9 14 7 6.9903 0.0157
-9 14 8 10.0820 -0.2540
-9 14 9 -15.0464 0.0740
-9 14 10 0.9477 -0.1584
-9 14 11 -6.3957 0.0566
-9 14 12 10.1511 -0.0663
-9 14 13 -9.1517 0.1519
-9 14 14 -4.5359 -0.1593
-9 14 15 0.8193 -0.0427
-9 14 16 1.9429 0.2801
-9 14 17 7.8194 -0.1430
-9 14 18 4.5269 -0.2937
-9 15 1 14.5430 -0.0303
-9 15 2 16.3877 0.1666
-9 15 3 -17.4295 0.0591
-9 15 4 9.7855 -0.1635
-9 15 5 -5.4578 0.0272
-9 15 6 9.7681 0.0005
-9 15 7 -4.1318 0.0601
-9 15 8 5.6758 -0.0401
-9 15 9 -7.2008 0.2245
-9 15 10 8.1481 -0.0253
-9 15 11 11.6381 -0.1798
-9 15 12 -9.6239 0.2029
-9 15 13 16.2729 0.0645
-9 15 14 -18.2326 -0.0896
-9 15 15 13.9098 -0.0750
-9 15 16 -5.6549 0.0623
-9 15 17 -1.1916 -0.0243
-9 16 1 -6.6336 0.0790
-9 16 2 17.6527 -0.0779
-9 16 3 -15.3053 -0.0729
-9 16 4 3.4453 -0.2440
-9 16 5 -16.3042 -0.0089
-9 16 6 -10.9423 0.0412
-9 16 7 6.2536 -0.0646
-9 16 8 1.5173 -0.1342
-9 16 9 15.9943 0.1449
-9 16 10 3.3026 -0.3109
-9 16 11 -12.4308 0.1063
-9 16 12 -4.4784 0.1140
-9 16 13 4.9412 0.3330
-9 16 14 4.1877 -0.1078
-9 16 15 0.0379 0.4589
-9 16 16 -1.7809 -0.0451
-9 17 1 8.8239 0.0256
-9 17 2 -11.6697 -0.1438
-9 17 3 15.8894 0.0330
-9 17 4 -8.9766 0.0479
-9 17 5 -0.7704 0.1873
-9 17 6 -0.4445 -0.1882
-9 17 7 -9.5790 -0.1076
-9 17 8 -17.0283 -0.1334
-9 17 9 -2.4970 0.4827
-9 17 10 11.4059 -0.0422
-9 17 11 13.1527 0.3761
-9 17 12 17.7863 0.2715
-9 17 13 7.0968 -0.2151
-9 17 14 -2.7524 -0.0419
-9 17 15 -6.3994 -0.0321
-9 18 1 -9.8309 0.1260
-9 18 2 13.1329 -0.2372
-9 18 3 2.9432 0.1719
-9 18 4 10.2355 -0.2029
-9 18 5 -26.4786 -0.0599
-9 18 6 11.6642 0.0060
-9 18 7 -9.6323 0.0115
-9 18 8 -8.7021 0.0503
-9 18 9 4.6810 -0.0451
-9 18 10 1.9652 -0.1261
-9 18 11 -3.3762 0.2663
-9 18 12 7.0327 0.2934
-9 18 13 6.3645 -0.0200
-9 18 14 0.2099 0.6081
-9 19 1 2.8354 0.2326
-9 19 2 -10.6096 -0.2615
-9 19 3 15.1138 0.0499
-9 19 4 -6.9513 -0.0563
-9 19 5 -10.3407 -0.2460
-9 19 6 -1.1500 0.1787
-9 19 7 -2.5604 -0.0454
-9 19 8 -13.3149 0.4049
-9 19 9 6.8475 0.1606
-9 19 10 -1.6362 -0.1024
-9 19 11 -3.2191 0.4824
-9 19 12 14.4137 -0.4601
-9 20 1 2.8742 0.0311
-9 20 2 -17.2555 0.1225
-9 20 3 -4.2500 0.3477
-9 20 4 -1.6269 0.3107
-9 20 5 -5.0419 0.2626
-9 20 6 11.3858 -0.1301
-9 20 7 -5.8042 0.0284
-9 20 8 1.6528 -0.0513
-9 20 9 -2.4505 -0.1757
-9 20 10 6.0079 0.2155
-9 20 11 0.6184 0.3707
-9 21 1 -4.1552 -0.2050
-9 21 2 1.6400 0.0333
-9 21 3 1.7998 -0.3031
-9 21 4 3.0395 0.2300
-9 21 5 -6.6334 -0.1142
-9 21 6 -2.2641 0.1538
-9 21 7 3.5614 0.2447
-9 21 8 10.4518 0.3826
-9 21 9 -6.8851 -0.2222
-9 22 2 -8.6392 0.8927
-9 22 3 -6.8545 -0.1444
-9 22 4 -8.1610 0.4533
-8 0 2 85.4445 -0.1436
-8 0 4 89.9124 -0.5914
-8 0 6 -102.1283 -3.1691
-8 0 8 -52.8763 -2.7945
-8 0 10 -17.0894 0.0083
-8 0 12 -10.9665 0.2783
-8 0 14 36.9540 0.7465
-8 0 16 20.3455 1.2222
-8 0 18 38.3270 0.8165
-8 0 20 -8.6781 -0.3280
-8 0 22 -7.2282 -0.0935
-8 1 1 65.4851 -0.1340
-8 1 2 17.7387 -0.2485
-8 1 3 48.1180 0.5641
-8 1 4 -48.4733 0.1190
-8 1 5 43.8136 0.1836
-8 1 6 41.5283 -0.1341
-8 1 7 35.2731 1.5774
-8 1 8 30.7862 0.3425
-8 1 9 -44.0675 1.1511
-8 1 10 -6.9933 1.1502
-8 1 11 12.7099 -0.3657
-8 1 12 34.6692 0.0135
-8 1 13 4.8273 0.3755
-8 1 14 -7.6234 0.6889
-8 1 15 9.1067 -0.2377
-8 1 16 6.1151 0.4345
-8 1 17 2.7654 -1.5293
-8 1 18 -0.9194 -1.1056
-8 1 19 6.0749 -0.4641
-8 1 20 -7.8065 -0.5447
-8 1 21 9.3620 0.2028
-8 1 22 3.7366 -1.1086
-8 2 1 -67.3188 0.2852
-8 2 2 12.7486 -0.1652
-8 2 3 46.9460 0.2039
-8 2 4 7.7413 -0.5372
-8 2 5 76.7829 0.4833
-8 2 6 9.8769 0.0534
-8 2 7 -34.5454 0.8720
-8 2 8 -41.3293 -1.5041
-8 2 9 32.1112 0.4899
-8 2 10 -19.0641 -0.4988
-8 2 11 -1.6899 0.3881
-8 2 12 -19.3516 0.6593
-8 2 13 24.7953 0.0462
-8 2 14 3.8282 -0.5102
-8 2 15 31.4972 -1.3636
-8 2 16 7.9849 0.5943
-8 2 17 -11.2700 -1.0569
-8 2 18 -2.1832 0.8804
-8 2 19 13.8910 -0.5389
-8 2 20 -4.2496 -0.0580
-8 2 21 10.5548 0.2893
-8 2 22 -7.5425 0.2584
-8 3 1 -32.3924 0.7222
-8 3 2 42.0371 0.4559
-8 3 3 59.2592 1.4623
-8 3 4 -49.8502 -0.1740
-8 3 5 -3.7944 0.6324
-8 3 6 9.5349 -0.3543
-8 3 7 10.6581 -0.2273
-8 3 8 -15.4035 0.0346
-8 3 9 46.7215 1.1286
-8 3 10 0.5765 0.1195
-8 3 11 -25.6150 -0.1599
-8 3 12 21.5051 0.3781
-8 3 13 -9.9664 -0.3163
-8 3 14 -3.7118 0.3241
-8 3 15 -20.5037 -0.1047
-8 3 16 -1.8895 0.3398
-8 3 17 -3.4413 -0.8125
-8 3 18 -7.6916 0.4454
-8 3 19 -7.5522 -0.4449
-8 3 20 -7.8093 -0.4308
-8 3 21 -10.9729 -0.0586
-8 3 22 5.6709 -0.6782
-8 4 1 33.2710 0.4571
-8 4 2 -47.1418 -0.1720
-8 4 3 31.0302 -0.0146
-8 4 4 -53.8507 -0.1969
-8 4 5 -25.5806 0.4057
-8 4 6 61.4839 1.0489
-8 4 7 -25.9990 0.0993
-8 4 8 15.5623 0.8668
-8 4 9 -25.8896 0.6840
-8 4 10 -9.9145 -0.4824
-8 4 11 -13.3118 0.3465
-8 4 12 -3.2480 -0.0985
-8 4 13 24.7349 -0.3966
-8 4 14 -19.8487 -0.0460
-8 4 15 -1.3743 -0.0952
-8 4 16 -9.5335 -0.1605
-8 4 17 15.2271 -0.9113
-8 4 18 -26.3808 0.0071
-8 4 19 7.6201 -0.4904
-8 4 20 -5.6187 0.9152
-8 4 21 2.7031 0.3980
-8 4 22 -0.9473 0.0090
-8 5 1 -25.8103 0.2920
-8 5 2 40.9995 -0.0093
-8 5 3 -40.7639 0.0935
-8 5 4 -12.3100 -0.4161
-8 5 5 -2.5225 0.4507
-8 5 6 -72.0467 -0.2469
-8 5 7 4.6003 -0.1548
-8 5 8 -70.5882 -0.0785
-8 5 9 30.7059 -0.2227
-8 5 10 11.9564 -0.4751
-8 5 11 8.0604 0.6878
-8 5 12 -24.4131 0.1725
-8 5 13 -1.4490 -0.1868
-8 5 14 0.7775 -0.0950
-8 5 15 0.8740 -0.3680
-8 5 16 -4.8521 0.1531
-8 5 17 -6.9524 0.4293
-8 5 18 -25.8500 0.8754
-8 5 19 -5.9943 -0.4292
-8 5 20 -2.5983 0.0254
-8 5 21 -5.4350 -0.5195
-8 5 22 6.1778 0.1994
-8 6 1 38.6624 0.0599
-8 6 2 -23.2077 -0.0456
-8 6 3 -24.4296 0.1433
-8 6 4 6.9355 0.2063
-8 6 5 -34.5850 0.2427
-8 6 6 -19.9539 0.0064
-8 6 7 -2.8787 0.1328
-8 6 8 37.6525 0.8135
-8 6 9 -19.0140 -0.0055
-8 6 10 34.5146 0.0389
-8 6 11 -1.6102 -0.0121
-8 6 12 18.5325 -0.6973
-8 6 13 15.9086 -0.0941
-8 6 14 -7.9923 0.3889
-8 6 15 -13.7048 -0.0121
-8 6 16 -10.8821 -0.2200
-8 6 17 11.7218 -0.2026
-8 6 18 -0.7277 -0.2013
-8 6 19 6.2530 0.0567
-8 6 20 2.7436 0.7265
-8 6 21 -13.1712 -0.0267
-8 7 1 25.5835 -0.2734
-8 7 2 -9.0378 -0.3322
-8 7 3 -63.8645 -0.1492
-8 7 4 -3.9854 -0.0858
-8 7 5 -24.8154 -0.0042
-8 7 6 -19.8814 -0.2687
-8 7 7 2.0252 0.1240
-8 7 8 18.1893 -0.2218
-8 7 9 -7.5967 -0.3941
-8 7 10 10.3727 0.1519
-8 7 11 10.0637 0.1838
-8 7 12 -3.5552 -0.1606
-8 7 13 22.1905 0.0881
-8 7 14 3.3979 0.0891
-8 7 15 0.2894 -0.1612
-8 7 16 6.3974 0.2770
-8 7 17 0.5194 0.3497
-8 7 18 -19.2828 -0.1586
-8 7 19 -0.2387 -0.1549
-8 7 20 -12.2493 0.0378
-8 7 21 4.0544 -0.1284
-8 8 1 -46.3188 -0.1138
-8 8 2 -12.5256 -0.0068
-8 8 3 -19.8016 -0.1294
-8 8 4 31.9467 -0.0390
-8 8 5 21.6501 -0.2773
-8 8 6 12.6767 0.0198
-8 8 7 36.1941 0.3343
-8 8 8 8.7047 0.0137
-8 8 9 18.2290 -0.0832
-8 8 10 36.6891 0.0080
-8 8 11 27.7563 -0.2490
-8 8 12 6.5121 -0.3286
-8 8 13 4.6022 -0.0444
-8 8 14 -15.4656 -0.2590
-8 8 15 8.2906 -0.3152
-8 8 16 -5.1310 -0.0575
-8 8 17 -1.1244 -0.0390
-8 8 18 -9.8260 0.2985
-8 8 19 2.0716 0.1944
-8 8 20 4.9018 0.1060
-8 8 21 -0.5893 -0.5100
-8 9 1 21.7155 -0.2635
-8 9 2 -34.3429 0.0136
-8 9 3 -8.2063 0.0425
-8 9 4 38.5146 0.1956
-8 9 5 -31.2682 0.0705
-8 9 6 48.5224 0.0773
-8 9 7 -15.1855 0.0625
-8 9 8 28.2904 -0.4810
-8 9 9 13.4620 0.1637
-8 9 10 1.9349 -0.1164
-8 9 11 -8.1238 -0.1928
-8 9 12 3.6607 0.0215
-8 9 13 -3.8915 -0.2211
-8 9 14 9.4552 0.1899
-8 9 15 -13.2649 -0.0015
-8 9 16 -0.3808 0.3111
-8 9 17 -7.0626 -0.0775
-8 9 18 9.6005 0.0065
-8 9 19 1.0877 -0.1783
-8 9 20 1.5447 0.0302
-8 10 1 -27.1934 -0.0677
-8 10 2 -10.3332 -0.1286
-8 10 3 14.3214 0.0068
-8 10 4 5.9310 -0.1106
-8 10 5 -3.9243 -0.2757
-8 10 6 36.5414 -0.0629
-8 10 7 19.3289 -0.1371
-8 10 8 23.7620 -0.0962
-8 10 9 5.5826 0.1401
-8 10 10 -12.3570 0.0266
-8 10 11 -12.3366 -0.3476
-8 10 12 9.3891 0.0907
-8 10 13 -12.2297 -0.4004
-8 10 14 -4.0359 0.0581
-8 10 15 6.1117 -0.0454
-8 10 16 -14.9079 -0.0551
-8 10 17 10.0554 0.0314
-8 10 18 -13.6542 0.2277
-8 10 19 4.5308 0.0883
-8 10 20 -11.0599 -0.0962
-8 11 1 -10.6666 0.1146
-8 11 2 3.7369 0.0570
-8 11 3 -9.0927 -0.1119
-8 11 4 25.8741 0.0310
-8 11 5 0.8062 -0.2391
-8 11 6 20.6955 0.1596
-8 11 7 -10.2317 -0.1267
-8 11 8 -23.3317 -0.1675
-8 11 9 8.0295 -0.1233
-8 11 10 -16.7726 -0.2550
-8 11 11 12.8731 0.1038
-8 11 12 -7.4880 0.1922
-8 11 13 -19.9751 0.0948
-8 11 14 -25.7607 -0.0135
-8 11 15 10.1768 0.0197
-8 11 16 -6.0032 0.1179
-8 11 17 -3.2384 0.0132
-8 11 18 13.9379 0.1962
-8 11 19 -0.9821 -0.0272
-8 11 20 18.9665 0.4900
-8 12 1 26.8729 0.0252
-8 12 2 14.6092 -0.2823
-8 12 3 -8.6728 0.1384
-8 12 4 -10.2268 0.0238
-8 12 5 -9.2774 0.1513
-8 12 6 -4.6312 0.0886
-8 12 7 -21.0637 0.0294
-8 12 8 10.1744 0.0413
-8 12 9 -3.8675 -0.0024
-8 12 10 -1.2112 0.1283
-8 12 11 -34.0218 -0.1468
-8 12 12 11.9085 -0.0407
-8 12 13 -13.1673 0.0614
-8 12 14 7.5808 0.0156
-8 12 15 0.8518 -0.1102
-8 12 16 -9.7680 0.0392
-8 12 17 -5.5373 0.0580
-8 12 18 6.5347 0.0563
-8 12 19 0.7850 0.0291
-8 13 1 -12.4253 -0.0652
-8 13 2 5.5626 -0.0003
-8 13 3 -0.1821 0.0066
-8 13 4 -13.5173 0.0818
-8 13 5 -1.8237 -0.2894
-8 13 6 -14.5181 -0.1063
-8 13 7 -0.7608 -0.2808
-8 13 8 7.8357 -0.0579
-8 13 9 -1.2606 -0.1863
-8 13 10 -9.4911 0.2050
-8 13 11 -0.5845 -0.0747
-8 13 12 -12.5295 0.0812
-8 13 13 12.9800 0.2235
-8 13 14 -26.1450 -0.0360
-8 13 15 9.6115 0.2624
-8 13 16 -5.8448 0.2153
-8 13 17 7.3023 -0.1144
-8 13 18 8.7473 -0.1773
-8 14 1 2.6522 -0.0339
-8 14 2 28.1051 0.1596
-8 14 3 -5.7260 0.0367
-8 14 4 6.8777 0.0807
-8 14 5 6.8025 0.0584
-8 14 6 -6.5269 0.1409
-8 14 7 -5.7905 0.1201
-8 14 8 -39.2744 0.0987
-8 14 9 -6.5710 0.0420
-8 14 10 9.7739 0.0854
-8 14 11 13.9233 -0.0416
-8 14 12 1.5844 0.0997
-8 14 13 3.1779 0.2297
-8 14 14 -6.1929 -0.4467
-8 14 15 -0.8984 -0.0297
-8 14 16 11.0249 -0.1588
-8 14 17 -10.8898 -0.0244
-8 14 18 5.5569 0.1312
-8 15 1 4.8940 0.0256
-8 15 2 -4.0415 0.0626
-8 15 3 26.3335 -0.1711
-8 15 4 -9.5800 -0.0539
-8 15 5 -7.4303 -0.0384
-8 15 6 -2.4909 -0.0431
-8 15 7 6.6027 0.0102
-8 15 8 8.0652 -0.0915
-8 15 9 3.7521 0.0405
-8 15 10 3.0197 -0.1536
-8 15 11 -22.9685 0.0313
-8 15 12 -2.8495 0.0605
-8 15 13 6.1129 0.1048
-8 15 14 15.6185 0.1214
-8 15 15 4.3182 0.4065
-8 15 16 1.2156 -0.0031
-8 15 17 1.5948 -0.1383
-8 16 1 -10.7979 -0.0174
-8 16 2 -4.6884 0.0268
-8 16 3 20.0936 0.0165
-8 16 4 10.9312 0.1350
-8 16 5 6.1474 0.1247
-8 16 6 8.2050 -0.1459
-8 16 7 2.8539 -0.1008
-8 16 8 -25.5084 0.2412
-8 16 9 -1.7616 -0.0966
-8 16 10 -15.5616 0.1765
-8 16 11 8.4286 -0.1612
-8 16 12 -1.1379 0.1806
-8 16 13 2.8287 -0.5468
-8 16 14 -1.6480 0.1011
-8 16 15 -1.8866 0.1198
-8 16 16 4.9801 -0.1689
-8 17 1 -4.7718 0.2945
-8 17 2 1.8506 0.0689
-8 17 3 9.2526 0.0315
-8 17 4 -0.2880 0.1867
-8 17 5 4.2222 -0.0675
-8 17 6 12.3119 0.1005
-8 17 7 4.8378 -0.0563
-8 17 8 -6.6758 0.1670
-8 17 9 -0.4792 -0.3573
-8 17 10 -0.5526 -0.1506
-8 17 11 -11.2232 0.3583
-8 17 12 6.9486 -0.3456
-8 17 13 -12.5103 0.0100
-8 17 14 8.0805 0.0793
-8 17 15 4.1693 0.1403
-8 18 1 13.1429 -0.2019
-8 18 2 -6.6092 -0.0792
-8 18 3 12.3685 -0.2703
-8 18 4 -9.1394 0.0213
-8 18 5 0.4825 -0.0276
-8 18 6 -2.4921 -0.1198
-8 18 7 0.8722 0.1674
-8 18 8 8.1070 0.2511
-8 18 9 4.3237 -0.3363
-8 18 10 -14.4727 -0.0803
-8 18 11 -5.6459 -0.0802
-8 18 12 -3.7219 -0.1977
-8 18 13 -8.6697 0.0095
-8 18 14 3.4929 0.3835
-8 19 1 -3.5249 -0.0629
-8 19 2 1.8900 0.2170
-8 19 3 -18.2857 -0.0265
-8 19 4 -0.9764 0.2399
-8 19 5 10.8097 -0.0013
-8 19 6 1.0806 -0.1415
-8 19 7 -8.0040 -0.1948
-8 19 8 10.9907 0.1661
-8 19 9 -1.3599 -0.3965
-8 19 10 4.2064 0.7995
-8 19 11 8.3313 -0.0810
-8 19 12 -10.6302 0.1626
-8 19 13 -8.2743 -0.2563
-8 20 1 4.9050 -0.6777
-8 20 2 11.8782 0.2131
-8 20 3 -0.1619 -0.4009
-8 20 4 -2.6888 0.2183
-8 20 5 6.3331 -0.0488
-8 20 6 -12.4732 0.1013
-8 20 7 4.0964 0.1787
-8 20 8 6.6481 -0.0596
-8 20 9 -6.9156 -0.0906
-8 20 10 -8.7282 -0.0328
-8 20 11 5.9527 -0.1464
-8 21 1 0.9445 -0.1271
-8 21 2 4.2026 0.5014
-8 21 3 -0.5989 -0.3929
-8 21 4 -6.2785 -0.1202
-8 21 5 10.7027 -0.0119
-8 21 6 -15.4327 -0.1072
-8 21 7 -4.1337 0.0243
-8 21 8 2.1231 0.0257
-8 21 9 2.2883 0.2049
-8 22 1 -2.2208 -0.1756
-8 22 2 -0.0398 0.3859
-8 22 3 -5.9431 0.0292
-8 22 4 -6.0204 0.1800
-8 22 5 4.3615 -0.0588
-8 22 6 2.4528 0.1475
-7 0 2 -42.4073 -0.3650
-7 0 4 -137.6081 -0.8635
-7 0 6 70.8360 -1.4037
-7 0 8 32.9719 -0.7425
-7 0 10 -23.6453 -0.3556
-7 0 12 -1.6000 0.0648
-7 0 14 -62.1957 2.1034
-7 0 16 8.9669 1.6504
-7 0 18 -9.1097 0.5507
-7 0 20 -5.9492 0.0150
-7 0 22 16.3835 -0.8331
-7 1 1 -117.9743 -0.7842
-7 1 2 -44.0553 -1.1802
-7 1 3 -10.5158 0.0460
-7 1 4 -48.8197 -0.3789
-7 1 5 37.0945 0.7406
-7 1 6 20.5325 1.0659
-7 1 7 -17.2479 0.1950
-7 1 8 -37.4446 -0.8232
-7 1 9 36.8755 -0.1900
-7 1 10 -0.0874 0.2744
-7 1 11 -40.0027 -0.4933
-7 1 12 5.6401 0.7229
-7 1 13 -3.8679 -0.4490
-7 1 14 2.3453 -0.0694
-7 1 15 5.2648 -0.4779
-7 1 16 7.7595 0.5119
-7 1 17 -5.4971 -0.5882
-7 1 18 -6.0559 -0.0102
-7 1 19 21.2998 0.0974
-7 1 20 1.3272 0.0193
-7 1 21 5.6034 0.3485
-7 1 22 -10.0129 -0.1803
-7 2 1 7.3425 -0.2307
-7 2 2 -9.0050 -0.0535
-7 2 3 31.9617 -0.3942
-7 2 4 -12.1407 -0.5952
-7 2 5 -111.2421 -2.2088
-7 2 6 7.3756 -0.2166
-7 2 7 -74.3767 -2.1466
-7 2 8 15.7509 -0.4923
-7 2 9 12.5718 0.2306
-7 2 10 13.6047 -0.1591
-7 2 11 -25.8137 0.1822
-7 2 12 -5.5630 0.7538
-7 2 13 2.8003 0.4323
-7 2 14 -8.2129 -0.0218
-7 2 15 11.1461 1.0262
-7 2 16 -8.6859 0.7644
-7 2 17 24.9091 0.6187
-7 2 18 -4.2096 0.5302
-7 2 19 -5.9668 -0.4982
-7 2 20 4.9880 -0.3656
-7 2 21 -12.7265 -0.3194
-7 2 22 6.7733 0.6431
-7 3 1 23.0013 -0.1080
-7 3 2 -22.5200 0.0923
-7 3 3 -15.3124 -0.0579
-7 3 4 -2.5562 0.0162
-7 3 5 2.1270 0.1851
-7 3 6 19.1229 0.9136
-7 3 7 35.6874 0.2318
-7 3 8 5.9911 0.7807
-7 3 9 -11.9876 0.9105
-7 3 10 -11.5557 -0.5660
-7 3 11 34.2538 -0.0781
-7 3 12 10.1814 0.3148
-7 3 13 9.8535 0.0660
-7 3 14 -4.8977 0.0874
-7 3 15 -5.7965 0.1032
-7 3 16 8.4704 -1.1734
-7 3 17 28.6778 -1.2494
-7 3 18 1.7105 -0.3668
-7 3 19 2.8539 -0.2622
-7 3 20 -3.6476 0.6631
-7 3 21 0.4580 -0.6245
-7 3 22 -6.9839 -0.2144
-7 4 1 39.0880 -0.1455
-7 4 2 37.9260 0.1015
-7 4 3 -36.9289 -0.7634
-7 4 4 65.7386 0.0461
-7 4 5 38.9662 -0.3250
-7 4 6 -44.1464 0.1761
-7 4 7 -3.1637 -1.2180
-7 4 8 -16.9724 0.2114
-7 4 9 -33.8582 -0.4938
-7 4 10 16.2138 0.2457
-7 4 11 -13.8414 0.8417
-7 4 12 -4.1942 0.3150
-7 4 13 -8.8718 -0.3766
-7 4 14 31.7219 -0.5751
-7 4 15 23.4918 0.4855
-7 4 16 -4.7140 -0.3836
-7 4 17 -1.5111 0.7815
-7 4 18 -3.6887 -0.1270
-7 4 19 -0.7832 -0.4226
-7 4 20 15.8872 -0.1617
-7 4 21 -4.9923 -0.0411
-7 4 22 -3.8423 0.9197
-7 5 1 50.7973 0.5094
-7 5 2 40.9189 0.7196
-7 5 3 10.1083 0.1258
-7 5 4 109.8997 0.7721
-7 5 5 -22.7452 -0.0269
-7 5 6 14.0609 0.0284
-7 5 7 -22.1290 0.2234
-7 5 8 56.5239 0.9872
-7 5 9 -23.4194 0.0200
-7 5 10 -0.4392 -0.0977
-7 5 11 15.9783 0.1519
-7 5 12 -3.5687 -0.3823
-7 5 13 3.4659 -0.0256
-7 5 14 -5.1963 -0.0050
-7 5 15 -0.8929 -0.0974
-7 5 16 1.6703 -0.9300
-7 5 17 15.3312 0.0056
-7 5 18 9.1371 -0.3333
-7 5 19 3.1820 -0.2228
-7 5 20 -0.2221 0.0674
-7 5 21 -7.8813 -0.8146
-7 5 22 0.5889 0.2011
-7 6 1 45.1192 -0.0703
-7 6 2 2.8950 0.0741
-7 6 3 -14.7398 -0.2000
-7 6 4 -9.4584 0.3475
-7 6 5 40.7358 0.0608
-7 6 6 -18.0818 -0.1667
-7 6 7 18.4261 0.1260
-7 6 8 -25.5524 0.1886
-7 6 9 -37.4648 -0.3111
-7 6 10 -37.5336 0.5054
-7 6 11 -11.9698 0.1988
-7 6 12 1.2796 -0.1789
-7 6 13 3.6978 0.2089
-7 6 14 9.9424 0.0449
-7 6 15 2.6627 0.0239
-7 6 16 11.4373 -0.3910
-7 6 17 1.8422 0.0437
-7 6 18 4.6274 -0.3885
-7 6 19 3.4173 0.2418
-7 6 20 -0.0350 0.4933
-7 6 21 -2.8883 0.3390
-7 7 1 16.5628 -0.0247
-7 7 2 15.0350 0.2008
-7 7 3 11.8425 -0.1967
-7 7 4 25.8508 0.3320
-7 7 5 -52.0723 -0.3174
-7 7 6 19.4321 0.2338
-7 7 7 -43.7215 0.3997
-7 7 8 -16.6400 0.0375
-7 7 9 -17.2940 -0.0805
-7 7 10 -0.9248 0.4220
-7 7 11 -4.8330 0.0150
-7 7 12 -0.5316 -0.0366
-7 7 13 -9.9482 -0.1239
-7 7 14 5.5131 -0.3855
-7 7 15 18.8140 -0.2268
-7 7 16 7.5819 0.0195
-7 7 17 -14.9676 0.2307
-7 7 18 2.1970 0.1327
-7 7 19 -12.5452 0.0531
-7 7 20 4.1388 -0.3312
-7 7 21 2.4956 -0.3877
-7 8 1 -3.9634 -0.0842
-7 8 2 -41.2329 -0.0012
-7 8 3 12.8045 0.0380
-7 8 4 -9.5648 0.3321
-7 8 5 -53.5428 -0.0861
-7 8 6 5.7488 0.2192
-7 8 7 -52.2218 0.0505
-7 8 8 -14.4145 -0.0989
-7 8 9 14.1993 -0.0340
-7 8 10 -16.8561 0.2937
-7 8 11 -4.3332 -0.3713
-7 8 12 14.1611 0.2747
-7 8 13 -10.3614 0.1040
-7 8 14 11.6565 -0.0325
-7 8 15 -3.4342 0.0216
-7 8 16 -2.6527 -0.0460
-7 8 17 3.8530 -0.1090
-7 8 18 14.3675 -0.0077
-7 8 19 10.9614 0.3418
-7 8 20 -8.3930 0.3324
-7 8 21 0.8228 0.5712
-7 9 1 6.8791 -0.2282
-7 9 2 -3.0624 0.4199
-7 9 3 1.1124 -0.0689
-7 9 4 -70.9958 0.2947
-7 9 5 -26.6866 -0.1951
-7 9 6 -11.3279 0.2562
-7 9 7 -3.6425 -0.0538
-7 9 8 -11.9987 0.0523
-7 9 9 8.2196 0.1990
-7 9 10 -21.4766 0.1168
-7 9 11 6.3204 -0.1987
-7 9 12 19.4133 -0.0215
-7 9 13 8.5951 0.0050
-7 9 14 0.2177 -0.1762
-7 9 15 18.5290 0.0548
-7 9 16 -10.3214 -0.0543
-7 9 17 -8.2175 -0.1463
-7 9 18 0.7591 0.0900
-7 9 19 -19.7104 -0.1421
-7 9 20 -9.3268 -0.3207
-7 10 1 -46.0765 0.1108
-7 10 2 8.5806 -0.0462
-7 10 3 -10.0814 -0.2254
-7 10 4 -6.6972 -0.2105
-7 10 5 1.2360 -0.0700
-7 10 6 4.1466 0.0882
-7 10 7 -7.5473 -0.0373
-7 10 8 5.3189 0.1231
-7 10 9 27.2979 -0.2337
-7 10 10 17.6253 0.0042
-7 10 11 18.5558 -0.1068
-7 10 12 19.8313 0.1121
-7 10 13 -18.2652 -0.0841
-7 10 14 -0.4534 -0.1993
-7 10 15 2.0030 0.1006
-7 10 16 3.7081 -0.0155
-7 10 17 -18.3271 0.0763
-7 10 18 9.4744 0.0336
-7 10 19 -7.3395 0.2612
-7 10 20 3.3720 0.1883
-7 11 1 14.3932 -0.0283
-7 11 2 4.2618 0.1490
-7 11 3 8.6764 -0.0765
-7 11 4 -21.5203 0.4258
-7 11 5 34.2486 0.1364
-7 11 6 -2.6039 0.3503
-7 11 7 -17.1345 -0.2405
-7 11 8 18.8686 0.4062
-7 11 9 5.2102 -0.3415
-7 11 10 17.0294 0.1454
-7 11 11 3.2702 -0.2044
-7 11 12 2.3249 -0.1883
-7 11 13 12.9350 0.0697
-7 11 14 -2.6880 -0.2068
-7 11 15 2.6612 0.0165
-7 11 16 -19.2427 -0.1431
-7 11 17 -3.6536 0.2492
-7 11 18 -9.3506 -0.2042
-7 11 19 -1.3815 -0.2519
-7 11 20 -10.1043 -0.5249
-7 12 1 -34.6921 -0.3341
-7 12 2 19.9197 0.1179
-7 12 3 6.4651 -0.2408
-7 12 4 -20.7847 -0.0422
-7 12 5 29.7457 -0.2088
-7 12 6 -15.2241 -0.1967
-7 12 7 57.8468 -0.0649
-7 12 8 18.2463 0.0752
-7 12 9 17.8534 -0.1066
-7 12 10 -10.2249 -0.0215
-7 12 11 15.2194 -0.0779
-7 12 12 -14.9679 -0.3562
-7 12 13 19.1906 0.1527
-7 12 14 -3.5357 -0.0036
-7 12 15 -12.5833 0.4111
-7 12 16 9.0056 -0.0581
-7 12 17 -9.1781 -0.0553
-7 12 18 9.6175 -0.2155
-7 12 19 -8.9599 0.2020
-7 13 1 -5.4153 -0.1283
-7 13 2 -13.2135 0.1672
-7 13 3 13.3379 -0.1224
-7 13 4 12.5686 -0.0029
-7 13 5 29.0092 0.0269
-7 13 6 9.8233 0.0694
-7 13 7 -2.7357 0.0066
-7 13 8 -11.8740 0.0280
-7 13 9 -25.8385 -0.1734
-7 13 10 25.1210 -0.0342
-7 13 11 3.6750 -0.0629
-7 13 12 -5.8970 0.0867
-7 13 13 -16.8170 0.0611
-7 13 14 1.2092 -0.2527
-7 13 15 -14.9960 0.1197
-7 13 16 8.7027 -0.0621
-7 13 17 -1.6978 0.3257
-7 13 18 -10.0975 -0.1308
-7 14 1 -2.8620 -0.3441
-7 14 2 -22.3238 0.0845
-7 14 3 1.3423 -0.2433
-7 14 4 -5.9342 0.0626
-7 14 5 -4.9238 0.0171
-7 14 6 -0.8861 0.1168
-7 14 7 21.6281 -0.1283
-7 14 8 9.3482 -0.0275
-7 14 9 17.2201 -0.1126
-7 14 10 -14.0171 -0.0069
-7 14 11 1.2928 -0.2833
-7 14 12 -24.8090 0.1136
-7 14 13 7.5437 -0.2987
-7 14 14 9.8294 0.1037
-7 14 15 -4.7050 0.1549
-7 14 16 -0.8999 -0.3121
-7 14 17 7.1352 0.0589
-7 14 18 0.5564 -0.0357
-7 15 1 -20.0085 -0.1098
-7 15 2 -21.7780 0.0984
-7 15 3 2.3036 -0.0221
-7 15 4 -12.1430 0.0450
-7 15 5 7.3119 -0.0548
-7 15 6 -9.6399 -0.0907
-7 15 7 21.2451 -0.1996
-7 15 8 -1.8807 0.0838
-7 15 9 -1.3874 -0.0377
-7 15 10 -10.2582 -0.1351
-7 15 11 -5.6844 0.0448
-7 15 12 2.5985 0.0673
-7 15 13 -17.3834 -0.0991
-7 15 14 1.6397 0.0120
-7 15 15 -19.3939 0.3949
-7 15 16 8.7325 -0.0710
-7 15 17 1.0154 0.5244
-7 16 1 6.7708 0.0041
-7 16 2 -7.7370 0.1552
-7 16 3 -12.7602 -0.1087
-7 16 4 6.9052 0.0357
-7 16 5 -1.1680 -0.0530
-7 16 6 15.9084 0.0034
-7 16 7 -16.3065 -0.0966
-7 16 8 7.2168 -0.0056
-7 16 9 0.5550 0.0143
-7 16 10 8.7386 -0.0373
-7 16 11 1.9529 0.2097
-7 16 12 1.0858 -0.1112
-7 16 13 -10.7978 -0.2361
-7 16 14 0.4578 0.0729
-7 16 15 1.7459 -0.2528
-7 16 16 3.2190 -0.2295
-7 17 1 4.8699 -0.0772
-7 17 2 13.4100 0.0191
-7 17 3 -1.8629 -0.0773
-7 17 4 -6.5911 0.0920
-7 17 5 5.3190 -0.0660
-7 17 6 -12.5006 0.1249
-7 17 7 2.1933 -0.1181
-7 17 8 9.7312 0.2166
-7 17 9 9.7035 -0.4132
-7 17 10 -11.8224 0.2104
-7 17 11 8.5052 -0.2553
-7 17 12 0.9748 0.4220
-7 17 13 5.8891 0.2478
-7 17 14 12.0634 0.3546
-7 17 15 -5.8837 0.0763
-7 18 1 7.2839 -0.1164
-7 18 2 14.8713 0.0900
-7 18 3 -8.6421 -0.2556
-7 18 4 12.7452 -0.0115
-7 18 5 8.9617 -0.3070
-7 18 6 -2.0922 -0.0620
-7 18 7 -15.2993 -0.1399
-7 18 8 9.7213 -0.1067
-7 18 9 -11.0476 0.3069
-7 18 10 7.2343 0.2592
-7 18 11 6.5939 0.0535
-7 18 12 1.4544 -0.1468
-7 18 13 6.6207 0.3087
-7 18 14 6.6545 -0.2583
-7 19 1 4.5260 -0.3056
-7 19 2 12.0912 0.2858
-7 19 3 -1.0404 0.0912
-7 19 4 7.1228 0.0474
-7 19 5 9.0480 -0.0303
-7 19 6 -6.4090 0.2854
-7 19 7 1.8221 0.1351
-7 19 8 -7.8218 -0.3651
-7 19 9 -8.0929 0.0654
-7 19 10 -2.2555 -0.0120
-7 19 11 12.2592 -0.3012
-7 19 12 8.1159 0.2402
-7 19 13 12.4345 0.2788
-7 20 1 7.3887 -0.2474
-7 20 2 4.9145 -0.1555
-7 20 3 11.5835 -0.3064
-7 20 4 2.4112 -0.0997
-7 20 5 -6.2369 -0.2418
-7 20 6 -7.1547 0.2190
-7 20 7 -3.2461 -0.1531
-7 20 8 0.3866 -0.0017
-7 20 9 -2.0163 0.1164
-7 20 10 1.3572 0.0848
-7 20 11 3.5540 -0.6726
-7 20 12 0.5862 0.2778
-7 21 1 -0.5300 0.3688
-7 21 2 -11.4943 0.1552
-7 21 3 -10.2019 0.3683
-7 21 4 -1.9452 0.0226
-7 21 5 -3.8335 -0.0185
-7 21 6 2.9747 0.1921
-7 21 7 4.1396 0.0025
-7 21 8 -11.1350 -0.3972
-7 21 9 3.6677 0.3156
-7 21 10 10.2773 -0.4032
-7 22 1 3.4678 -0.2030
-7 22 2 -5.1815 -0.5479
-7 22 3 16.9466 0.1715
-7 22 4 -5.9593 0.1897
-7 22 5 -11.2191 -0.0614
-7 22 6 -2.0137 0.1664
-7 22 7 6.9593 -0.1398
-6 0 2 -9.9406 0.7083
-6 0 4 100.3408 3.1002
-6 0 6 79.1999 3.3813
-6 0 8 -19.0704 0.0396
-6 0 10 35.4762 -0.1475
-6 0 12 9.3429 -0.7789
-6 0 14 -4.7291 -1.8165
-6 0 16 -20.3054 -1.1577
-6 0 18 -6.5106 0.2822
-6 0 20 2.9136 0.3265
-6 0 22 -8.0636 -0.4500
-6 1 1 87.7747 0.2740
-6 1 2 27.3587 0.1741
-6 1 3 76.7149 -0.0110
-6 1 4 108.3628 0.1823
-6 1 5 -54.6629 -1.6106
-6 1 6 -10.3335 -0.1271
-6 1 7 -11.9969 -1.2480
-6 1 8 -0.5356 -1.1380
-6 1 9 -4.4637 0.3797
-6 1 10 -18.4950 -0.2286
-6 1 11 -5.3032 -0.2321
-6 1 12 -24.3647 -0.3885
-6 1 13 -6.1697 0.1609
-6 1 14 23.2672 -0.9316
-6 1 15 -12.6397 1.8423
-6 1 16 -21.9840 1.0338
-6 1 17 -2.7356 0.8772
-6 1 18 14.8178 0.4233
-6 1 19 -7.2778 -0.3960
-6 1 20 16.2837 0.3787
-6 1 21 -3.2442 -0.0886
-6 1 22 -2.5093 1.3803
-6 2 1 58.9365 0.0991
-6 2 2 6.6133 0.8155
-6 2 3 4.0162 -0.3173
-6 2 4 25.6567 0.3921
-6 2 5 53.8777 -0.5530
-6 2 6 -11.5031 1.2307
-6 2 7 66.1170 -0.4684
-6 2 8 32.0579 0.8353
-6 2 9 -49.2517 -0.3714
-6 2 10 5.6106 -0.8179
-6 2 11 16.9366 -0.2540
-6 2 12 6.8682 0.3836
-6 2 13 -33.6532 1.3816
-6 2 14 -7.7452 -0.4765
-6 2 15 -15.9271 1.2606
-6 2 16 -0.8459 -1.0739
-6 2 17 18.2652 0.3039
-6 2 18 -0.3499 0.2889
-6 2 19 -5.0131 0.2073
-6 2 20 -6.0685 0.0608
-6 2 21 19.4998 -1.1307
-6 2 22 2.6610 -0.2916
-6 3 1 -17.0768 -1.1142
-6 3 2 15.1001 -0.0982
-6 3 3 -131.2923 -1.1337
-6 3 4 86.1225 0.4213
-6 3 5 32.8323 0.1613
-6 3 6 16.4716 -0.0518
-6 3 7 -4.4498 -1.1612
-6 3 8 -12.4410 -0.1222
-6 3 9 -33.9887 -0.1918
-6 3 10 -17.3258 -0.3357
-6 3 11 0.6193 0.7357
-6 3 12 -24.9536 -0.3763
-6 3 13 -4.4616 0.1373
-6 3 14 17.7742 -0.2507
-6 3 15 12.2505 1.0352
-6 3 16 -12.0504 -0.2784
-6 3 17 -17.3487 0.5152
-6 3 18 11.6409 0.3550
-6 3 19 -0.4646 -0.2030
-6 3 20 20.6768 0.3511
-6 3 21 -7.6126 -0.0625
-6 3 22 -1.9692 0.6137
-6 4 1 2.4621 -0.0346
-6 4 2 -1.0201 -0.0432
-6 4 3 44.1520 -0.1513
-6 4 4 -30.0868 -0.6163
-6 4 5 -22.8518 -0.0069
-6 4 6 -44.0719 -1.0369
-6 4 7 1.6127 -0.2940
-6 4 8 40.9315 0.4252
-6 4 9 18.2278 -0.5488
-6 4 10 -3.4619 -0.0530
-6 4 11 -2.3262 0.5529
-6 4 12 -8.6533 -0.1194
-6 4 13 -10.5415 0.3044
-6 4 14 2.4584 0.5703
-6 4 15 -16.7775 0.8102
-6 4 16 5.6396 0.1386
-6 4 17 -7.5728 0.6920
-6 4 18 -3.9178 -0.2846
-6 4 19 -0.4725 -0.5000
-6 4 20 -2.5682 -0.2545
-6 4 21 3.8516 -0.4512
-6 4 22 11.7043 0.3723
-6 5 1 -45.0382 -0.3652
-6 5 2 -53.6206 -0.0277
-6 5 3 -31.6950 -0.3823
-6 5 4 -52.9735 0.2030
-6 5 5 22.4459 0.0227
-6 5 6 29.0191 -0.1954
-6 5 7 25.2481 0.1297
-6 5 8 -2.2925 0.2968
-6 5 9 8.5370 -0.6537
-6 5 10 4.9607 0.1056
-6 5 11 1.4917 0.2480
-6 5 12 3.6960 -0.1185
-6 5 13 -0.6611 0.5796
-6 5 14 -15.1145 0.1666
-6 5 15 -13.1771 -0.4561
-6 5 16 15.0493 -0.6623
-6 5 17 -2.2794 -0.0787
-6 5 18 14.2190 -0.3479
-6 5 19 -0.1586 0.1807
-6 5 20 -1.8991 0.1234
-6 5 21 1.0084 0.0884
-6 6 1 -10.7883 -0.0322
-6 6 2 19.0975 -0.2669
-6 6 3 10.4791 -0.1677
-6 6 4 -0.9480 -0.1065
-6 6 5 -42.3974 -0.2778
-6 6 6 51.2213 -0.3728
-6 6 7 -7.9954 0.1870
-6 6 8 -20.8598 -0.2044
-6 6 9 24.5484 -0.1171
-6 6 10 1.9299 0.6663
-6 6 11 -3.1675 0.1152
-6 6 12 -2.3551 -0.1915
-6 6 13 -8.4850 0.0644
-6 6 14 4.1703 0.2341
-6 6 15 6.5313 -0.0699
-6 6 16 -4.7442 0.4526
-6 6 17 -22.1105 -0.0044
-6 6 18 -8.1980 -0.2893
-6 6 19 -4.5626 -0.3801
-6 6 20 -3.7764 -0.3384
-6 6 21 8.0657 -0.0854
-6 7 1 -18.0289 -0.1629
-6 7 2 -31.4772 0.1274
-6 7 3 103.0979 0.1004
-6 7 4 -9.4301 0.1910
-6 7 5 25.2406 -0.0899
-6 7 6 0.4965 0.1714
-6 7 7 7.1136 0.3120
-6 7 8 15.1549 -0.1651
-6 7 9 49.6451 -0.0481
-6 7 10 4.4672 0.0874
-6 7 11 -3.8750 -0.1405
-6 7 12 1.4106 -0.0394
-6 7 13 -9.2884 0.2191
-6 7 14 -8.4557 -0.1409
-6 7 15 -9.3348 -0.3822
-6 7 16 -1.5465 0.0845
-6 7 17 1.1539 -0.3256
-6 7 18 21.0696 -0.3853
-6 7 19 10.4716 0.0134
-6 7 20 -1.4161 -0.1807
-6 7 21 2.4172 0.1890
-6 8 1 1.1130 0.0421
-6 8 2 54.6689 0.2866
-6 8 3 -8.5927 0.1763
-6 8 4 -12.2062 -0.1178
-6 8 5 40.1841 -0.0902
-6 8 6 5.0193 -0.0117
-6 8 7 14.2248 0.0028
-6 8 8 -25.1725 -0.0133
-6 8 9 -16.3503 0.3129
-6 8 10 -18.2942 0.2428
-6 8 11 -9.6501 -0.1291
-6 8 12 8.5534 0.2367
-6 8 13 2.0367 0.2529
-6 8 14 -4.9052 0.0988
-6 8 15 5.6319 -0.1220
-6 8 16 6.0640 -0.0237
-6 8 17 -4.2575 -0.2003
-6 8 18 8.7804 -0.1555
-6 8 19 -9.6834 -0.1025
-6 8 20 -12.2744 -0.3245
-6 8 21 2.6269 0.4684
-6 9 1 -15.1186 0.0170
-6 9 2 34.9692 -0.0277
-6 9 3 10.1110 -0.2370
-6 9 4 -2.2596 -0.1807
-6 9 5 22.8329 -0.1058
-6 9 6 -7.9408 0.4290
-6 9 7 2.7913 -0.1266
-6 9 8 7.1825 0.3273
-6 9 9 -10.1040 0.0571
-6 9 10 3.7761 0.0837
-6 9 11 -0.7657 0.1012
-6 9 12 -1.0296 -0.0571
-6 9 13 2.9256 -0.1262
-6 9 14 3.8092 -0.2173
-6 9 15 13.7894 0.0555
-6 9 16 6.8638 -0.2341
-6 9 17 7.6927 -0.0954
-6 9 18 -3.5809 -0.0782
-6 9 19 7.1089 0.2824
-6 9 20 5.0430 0.1913
-6 10 1 -6.3844 -0.1288
-6 10 2 -2.5046 0.0690
-6 10 3 0.9073 0.0760
-6 10 4 -10.0598 0.1335
-6 10 5 42.2102 0.2416
-6 10 6 -57.9955 0.0303
-6 10 7 -19.7968 -0.0879
-6 10 8 -22.3288 0.0204
-6 10 9 -17.2124 0.2230
-6 10 10 1.1936 -0.0679
-6 10 11 1.7787 0.3526
-6 10 12 -22.1430 0.0642
-6 10 13 20.1917 0.0080
-6 10 14 9.7134 -0.1017
-6 10 15 -3.2566 -0.0676
-6 10 16 9.7639 -0.0037
-6 10 17 7.8415 0.4008
-6 10 18 1.3039 -0.0703
-6 10 19 -1.2114 -0.0016
-6 10 20 5.7207 -0.0495
-6 11 1 -6.3541 0.1049
-6 11 2 2.9949 0.0359
-6 11 3 -30.6417 0.2730
-6 11 4 -33.9278 -0.0689
-6 11 5 -14.1779 0.0141
-6 11 6 -35.6112 -0.0446
-6 11 7 33.9954 0.0363
-6 11 8 7.8957 0.1247
-6 11 9 -28.6072 0.1820
-6 11 10 1.8361 -0.0248
-6 11 11 2.1844 -0.0643
-6 11 12 0.7078 -0.2409
-6 11 13 19.7459 -0.1115
-6 11 14 18.6085 -0.0565
-6 11 15 -11.3597 -0.0404
-6 11 16 13.9804 -0.5072
-6 11 17 11.8885 0.0103
-6 11 18 -4.6193 -0.1464
-6 11 19 -0.3951 0.4820
-6 11 20 -3.4982 0.2086
-6 12 1 8.6815 -0.0267
-6 12 2 -23.8609 0.0870
-6 12 3 -18.6595 -0.1108
-6 12 4 24.8629 0.0024
-6 12 5 -27.9021 -0.1479
-6 12 6 0.7077 0.2018
-6 12 7 -11.2264 0.0275
-6 12 8 -13.1416 -0.0826
-6 12 9 -11.9949 0.0719
-6 12 10 14.1145 0.0093
-6 12 11 21.8809 0.0888
-6 12 12 -7.9649 0.2742
-6 12 13 -1.9107 -0.1297
-6 12 14 4.1664 -0.0501
-6 12 15 -4.1871 0.0121
-6 12 16 -1.4175 0.2147
-6 12 17 6.2652 0.4440
-6 12 18 -21.6298 -0.0913
-6 12 19 1.8360 0.2032
-6 13 1 22.7160 0.0807
-6 13 2 -12.7086 -0.0971
-6 13 3 3.4194 0.3054
-6 13 4 -1.7832 0.0111
-6 13 5 -1.0849 0.2010
-6 13 6 -33.1442 0.0356
-6 13 7 11.8528 0.1044
-6 13 8 -8.7892 -0.1725
-6 13 9 22.5440 0.3476
-6 13 10 4.2974 -0.0865
-6 13 11 -1.0838 -0.1354
-6 13 12 1.9210 -0.0406
-6 13 13 -1.3835 -0.2402
-6 13 14 13.2271 -0.1468
-6 13 15 -13.2033 -0.2802
-6 13 16 -5.8147 -0.4050
-6 13 17 -6.5259 0.0197
-6 13 18 -2.7859 -0.1096
-6 14 1 19.8684 0.0487
-6 14 2 6.4109 -0.1102
-6 14 3 -12.2763 0.0961
-6 14 4 10.7533 -0.0933
-6 14 5 -30.6077 -0.0305
-6 14 6 19.2235 0.0618
-6 14 7 -1.6026 0.0116
-6 14 8 19.4200 -0.0136
-6 14 9 -3.3858 0.1564
-6 14 10 8.6730 -0.1783
-6 14 11 -2.9692 0.1482
-6 14 12 25.7246 0.1130
-6 14 13 -0.7855 -0.0157
-6 14 14 -6.0176 0.1050
-6 14 15 -6.9046 0.1285
-6 14 16 -8.2557 0.1442
-6 14 17 -3.6200 0.1061
-6 14 18 -4.3357 -0.2698
-6 15 1 7.8499 0.2568
-6 15 2 28.1041 -0.0966
-6 15 3 -12.5533 0.0092
-6 15 4 20.7433 -0.0665
-6 15 5 -3.6999 -0.0717
-6 15 6 8.4819 0.1130
-6 15 7 -17.6430 -0.0755
-6 15 8 -18.9522 0.1788
-6 15 9 10.3778 -0.0116
-6 15 10 -1.0914 0.0195
-6 15 11 0.8822 -0.0846
-6 15 12 1.4659 -0.0126
-6 15 13 -8.8442 -0.1632
-6 15 14 -10.9786 0.0681
-6 15 15 1.5825 -0.3583
-6 15 16 -4.1471 -0.1566
-6 15 17 -4.5064 -0.1571
-6 16 1 -1.6103 0.0130
-6 16 2 -6.1511 -0.2125
-6 16 3 0.1184 0.0581
-6 16 4 -11.2063 0.1122
-6 16 5 4.3011 0.1173
-6 16 6 -5.1070 0.0677
-6 16 7 -9.6233 0.0485
-6 16 8 11.8125 -0.1392
-6 16 9 -0.6097 -0.1348
-6 16 10 8.4894 -0.2361
-6 16 11 -7.8594 0.0805
-6 16 12 6.1627 -0.2743
-6 16 13 2.8182 0.1710
-6 16 14 5.2116 -0.1328
-6 16 15 0.8722 -0.0571
-6 16 16 0.9403 -0.0849
-6 17 1 -14.3978 0.1125
-6 17 2 13.6050 -0.1427
-6 17 3 -26.8576 0.1702
-6 17 4 11.1562 -0.0076
-6 17 5 -17.8282 -0.0564
-6 17 6 15.5645 -0.1477
-6 17 7 -0.6650 0.0981
-6 17 8 8.8169 -0.1523
-6 17 9 -13.3196 0.1369
-6 17 10 -6.9990 -0.1405
-6 17 11 -11.0715 -0.1040
-6 17 12 -10.4045 -0.3110
-6 17 13 -6.9265 -0.0515
-6 17 14 -16.5654 -0.0585
-6 17 15 -1.2998 -0.1276
-6 18 1 -20.1954 0.1371
-6 18 2 -28.3510 0.0567
-6 18 3 1.1082 0.1145
-6 18 4 -4.4261 -0.0194
-6 18 5 13.3942 -0.1548
-6 18 6 1.9322 0.1574
-6 18 7 10.2872 -0.0225
-6 18 8 -6.5296 -0.1605
-6 18 9 -1.0774 -0.1894
-6 18 10 -1.2036 0.1014
-6 18 11 -11.0651 -0.1707
-6 18 12 -10.0384 -0.2144
-6 18 13 -12.4461 -0.1698
-6 18 14 -6.3392 -0.1709
-6 19 1 0.7355 0.0983
-6 19 2 -3.4234 -0.1711
-6 19 3 9.3871 0.2655
-6 19 4 3.6822 0.0204
-6 19 5 -11.8617 0.0817
-6 19 6 10.2659 -0.1534
-6 19 7 9.5089 0.1022
-6 19 8 7.0593 -0.0570
-6 19 9 -4.6413 0.2058
-6 19 10 -1.0466 -0.3349
-6 19 11 -13.9617 0.2065
-6 19 12 -7.4298 -0.1340
-6 19 13 -5.4672 0.1351
-6 20 1 -3.9746 0.5052
-6 20 2 -13.6407 -0.2675
-6 20 3 7.1707 -0.0576
-6 20 4 1.8280 -0.3110
-6 20 5 8.9353 -0.0829
-6 20 6 7.3215 -0.1915
-6 20 7 7.3570 -0.0453
-6 20 8 -5.9636 0.0327
-6 20 9 0.4286 0.2147
-6 20 10 6.7974 -0.1757
-6 20 11 -19.1018 0.7372
-6 20 12 -4.9655 -0.0550
-6 21 1 8.5951 0.0054
-6 21 2 2.5098 -0.2639
-6 21 3 20.8049 0.0502
-6 21 4 8.8469 -0.0179
-6 21 5 -1.6340 0.1790
-6 21 6 11.9548 -0.1430
-6 21 7 3.1121 -0.0539
-6 21 8 -3.5671 0.3882
-6 21 9 -1.8256 -0.2698
-6 21 10 -7.9649 -0.0633
-6 22 1 0.2928 0.2317
-6 22 2 18.3076 -0.7635
-6 22 3 5.0748 -0.1424
-6 22 4 11.3202 -0.3773
-6 22 5 8.4561 0.1972
-6 22 6 0.2586 -0.3377
-6 22 7 -6.8415 0.1449
-6 22 8 -3.1940 0.1721
-6 23 1 9.4427 -0.0693
-6 23 2 1.3818 0.1216
-6 23 3 0.3814 -0.0688
-6 23 4 -2.3569 -0.0613
-5 0 2 -113.1261 0.1714
-5 0 4 -34.2117 0.5830
-5 0 6 -41.5861 0.5580
-5 0 8 36.2308 0.3967
-5 0 10 7.7765 0.1588
-5 0 12 16.0297 -1.7976
-5 0 14 45.3007 -1.9744
-5 0 16 -26.0660 -0.5648
-5 0 18 14.9108 -0.3787
-5 0 20 -4.2412 1.1754
-5 0 22 -5.2705 1.3898
-5 1 1 -56.9261 -0.1178
-5 1 2 62.0188 1.0675
-5 1 3 -116.2418 -0.9645
-5 1 4 -83.6632 -1.0945
-5 1 5 -32.2217 -0.0010
-5 1 6 -41.4487 0.6246
-5 1 7 41.5083 -0.0012
-5 1 8 51.1903 0.3329
-5 1 9 27.7493 0.4154
-5 1 10 -9.0242 -0.9709
-5 1 11 42.1997 0.4185
-5 1 12 0.5612 0.0539
-5 1 13 -5.6345 0.4745
-5 1 14 -23.1607 -0.5816
-5 1 15 4.8365 0.3816
-5 1 16 1.4979 -0.1198
-5 1 17 -4.9118 -0.2664
-5 1 18 -10.4824 0.4902
-5 1 19 -20.6553 -0.3061
-5 1 20 -8.4574 0.5881
-5 1 21 20.2478 -0.2285
-5 1 22 1.4911 0.3109
-5 2 1 -75.1414 0.3093
-5 2 2 -42.1545 0.2048
-5 2 3 -104.6462 1.6211
-5 2 4 -34.9488 -0.1783
-5 2 5 81.7613 2.5972
-5 2 6 17.1331 0.1697
-5 2 7 -0.5305 -0.1053
-5 2 8 -20.4100 0.3656
-5 2 9 45.1102 -0.0098
-5 2 10 12.2327 -0.8411
-5 2 11 13.3742 -0.2594
-5 2 12 5.5828 -0.2688
-5 2 13 -13.3724 -1.4409
-5 2 14 5.8879 -0.5628
-5 2 15 -2.5926 -0.8954
-5 2 16 5.7112 -0.7421
-5 2 17 -16.9133 0.3109
-5 2 18 5.6806 0.6091
-5 2 19 -4.8805 0.1836
-5 2 20 5.8568 -0.0335
-5 2 21 -11.5499 -0.3114
-5 2 22 -1.3112 -0.1740
-5 3 1 38.4345 0.0911
-5 3 2 19.3923 -0.0463
-5 3 3 124.3127 0.1891
-5 3 4 -91.0544 -0.9271
-5 3 5 -36.7678 0.0613
-5 3 6 -23.4056 -0.8930
-5 3 7 -42.0174 -0.6624
-5 3 8 31.1939 0.6187
-5 3 9 17.8216 -0.2105
-5 3 10 -9.1096 -0.2265
-5 3 11 -16.2108 0.0610
-5 3 12 -4.8311 -0.3598
-5 3 13 17.4887 -0.5511
-5 3 14 -9.0671 1.2758
-5 3 15 -16.5769 0.9432
-5 3 16 -3.1507 0.5195
-5 3 17 -8.6698 0.5883
-5 3 18 -10.8571 -0.1979
-5 3 19 11.1286 0.0874
-5 3 20 -8.1895 0.4502
-5 3 21 -2.8245 0.4514
-5 3 22 -7.7885 0.1932
-5 4 1 -80.2643 0.6795
-5 4 2 41.3271 0.0927
-5 4 3 2.0785 0.4841
-5 4 4 0.7796 -0.0215
-5 4 5 11.6625 0.9281
-5 4 6 17.0465 -0.1759
-5 4 7 33.3497 0.7416
-5 4 8 -35.8572 -0.1762
-5 4 9 46.0992 -0.7715
-5 4 10 -2.7586 -0.2441
-5 4 11 7.2306 0.1204
-5 4 12 0.9525 0.4791
-5 4 13 -1.0152 -0.4816
-5 4 14 -24.3642 0.5268
-5 4 15 -7.5547 -1.1440
-5 4 16 22.3095 0.2695
-5 4 17 11.3843 0.2529
-5 4 18 9.4562 0.1878
-5 4 19 2.4205 0.1264
-5 4 20 -2.8984 -0.1515
-5 4 21 3.4971 0.0764
-5 4 22 -1.4695 -0.9565
-5 5 1 55.2430 -0.1430
-5 5 2 -55.8646 -0.9076
-5 5 3 47.1968 0.0953
-5 5 4 0.3711 -0.1899
-5 5 5 14.7207 -0.2711
-5 5 6 39.9391 -0.6743
-5 5 7 -33.9510 0.1214
-5 5 8 -52.9631 -0.2398
-5 5 9 -29.8994 0.0202
-5 5 10 -6.2756 0.4158
-5 5 11 -16.0902 -0.1586
-5 5 12 6.8150 -0.0073
-5 5 13 1.9829 -0.0178
-5 5 14 9.4683 0.8728
-5 5 15 18.7995 -0.1867
-5 5 16 -1.3458 0.6777
-5 5 17 -5.7351 0.4113
-5 5 18 -2.2473 0.1471
-5 5 19 2.3973 0.4033
-5 5 20 -5.0734 0.0106
-5 5 21 -6.1238 0.2632
-5 6 1 -34.6126 -0.1370
-5 6 2 17.3386 -0.0456
-5 6 3 50.1043 0.2732
-5 6 4 11.9657 0.1363
-5 6 5 -1.2241 -0.0869
-5 6 6 -40.4025 -0.0404
-5 6 7 15.0904 0.3064
-5 6 8 18.9196 -0.5727
-5 6 9 23.8702 -0.0756
-5 6 10 -12.5322 0.1437
-5 6 11 -8.0750 -0.3962
-5 6 12 4.4136 0.0742
-5 6 13 10.6700 -0.0957
-5 6 14 3.0087 0.3643
-5 6 15 -4.4412 -0.0980
-5 6 16 3.6607 0.6578
-5 6 17 -3.7872 -0.1952
-5 6 18 8.1549 -0.1359
-5 6 19 12.8583 0.3437
-5 6 20 -5.4983 -0.2490
-5 6 21 8.7244 0.1685
-5 7 1 -38.9657 -0.0412
-5 7 2 16.5553 -0.0635
-5 7 3 -62.7214 0.1598
-5 7 4 10.9965 -0.3105
-5 7 5 41.2210 -0.3921
-5 7 6 -14.7465 -0.0515
-5 7 7 6.4733 -0.2641
-5 7 8 -17.5906 -0.4113
-5 7 9 -33.3923 0.1066
-5 7 10 2.5164 0.0760
-5 7 11 -11.7352 -0.1835
-5 7 12 2.6122 0.5340
-5 7 13 -0.5886 0.1847
-5 7 14 -14.9369 -0.0271
-5 7 15 15.1324 -0.0823
-5 7 16 -0.3441 0.3659
-5 7 17 18.0425 0.0053
-5 7 18 -6.0781 0.1832
-5 7 19 -0.2742 -0.0585
-5 7 20 -2.9008 -0.3659
-5 7 21 0.9913 0.1564
-5 8 1 38.7535 0.0646
-5 8 2 -2.5887 -0.0944
-5 8 3 -17.0640 0.0606
-5 8 4 -8.7194 -0.3741
-5 8 5 3.7192 -0.0392
-5 8 6 4.8643 0.1120
-5 8 7 12.1217 -0.0696
-5 8 8 15.1502 -0.2421
-5 8 9 -22.8269 0.3699
-5 8 10 -5.2591 -0.2595
-5 8 11 5.2978 -0.1647
-5 8 12 -12.1670 0.1194
-5 8 13 0.9067 -0.1262
-5 8 14 5.5870 0.0576
-5 8 15 -8.1792 0.1066
-5 8 16 -0.6085 -0.2067
-5 8 17 -2.8519 -0.3084
-5 8 18 -11.1940 0.0312
-5 8 19 -5.2961 0.2044
-5 8 20 11.7467 -0.2873
-5 8 21 -5.1148 -0.3943
-5 9 1 -21.4189 0.0220
-5 9 2 14.9064 -0.4465
-5 9 3 14.8502 0.2129
-5 9 4 23.3719 -0.2158
-5 9 5 22.9359 0.1777
-5 9 6 -39.6117 -0.0966
-5 9 7 -1.4136 -0.2888
-5 9 8 17.2407 -0.2001
-5 9 9 -7.8180 -0.0289
-5 9 10 17.1682 -0.0197
-5 9 11 -10.4589 0.0306
-5 9 12 -26.3750 0.3637
-5 9 13 -8.5393 -0.1009
-5 9 14 2.6245 0.0218
-5 9 15 -19.4724 0.3333
-5 9 16 -8.5545 0.1492
-5 9 17 12.5706 0.1619
-5 9 18 -9.0010 -0.3431
-5 9 19 12.4705 -0.2419
-5 9 20 11.7845 -0.2662
-5 10 1 54.2903 0.2217
-5 10 2 12.3780 0.2187
-5 10 3 -14.6649 0.0686
-5 10 4 32.2457 0.0220
-5 10 5 -36.6091 -0.1726
-5 10 6 19.5713 -0.0662
-5 10 7 8.5752 0.0224
-5 10 8 2.8171 0.0884
-5 10 9 -23.2733 0.1567
-5 10 10 -17.7912 -0.0767
-5 10 11 3.6271 -0.0787
-5 10 12 -17.3003 0.1225
-5 10 13 -4.0328 0.0862
-5 10 14 -4.7089 0.0903
-5 10 15 -7.7635 -0.1950
-5 10 16 -7.6134 -0.3451
-5 10 17 17.4334 -0.2226
-5 10 18 -5.9787 -0.0875
-5 10 19 -6.0718 -0.1523
-5 10 20 -5.1624 -0.1793
-5 11 1 32.8162 0.0066
-5 11 2 -11.0132 -0.5367
-5 11 3 4.5328 -0.1164
-5 11 4 22.0840 -0.3313
-5 11 5 -15.4705 0.2240
-5 11 6 20.1931 -0.1067
-5 11 7 4.7209 0.2937
-5 11 8 -12.8987 -0.2220
-5 11 9 3.5032 -0.0085
-5 11 10 0.0522 0.1124
-5 11 11 7.5221 0.0144
-5 11 12 10.3738 0.3406
-5 11 13 -17.3996 -0.0430
-5 11 14 12.2078 0.2071
-5 11 15 -0.1014 -0.0009
-5 11 16 4.0872 0.2191
-5 11 17 -1.5362 -0.0981
-5 11 18 -2.2953 -0.4492
-5 11 19 3.6909 0.1075
-5 12 1 17.6505 0.2100
-5 12 2 -3.9087 -0.0918
-5 12 3 22.0626 0.3018
-5 12 4 22.4830 0.0296
-5 12 5 -10.9729 0.1103
-5 12 6 -0.1713 -0.0965
-5 12 7 -34.0334 0.0686
-5 12 8 -3.6256 0.0882
-5 12 9 4.7036 0.1207
-5 12 10 -2.0524 0.1327
-5 12 11 -22.5396 -0.0720
-5 12 12 1.5453 0.0441
-5 12 13 3.4340 0.0832
-5 12 14 1.3253 -0.0558
-5 12 15 16.2314 -0.1768
-5 12 16 -0.4366 -0.0285
-5 12 17 0.0624 -0.0859
-5 12 18 4.1247 -0.0133
-5 12 19 -0.8344 0.0542
-5 13 1 -23.0423 -0.0756
-5 13 2 8.3878 -0.1036
-5 13 3 -37.7049 -0.0203
-5 13 4 9.8987 -0.0474
-5 13 5 -36.2939 0.0315
-5 13 6 31.7737 -0.0214
-5 13 7 -0.6462 -0.0600
-5 13 8 -4.2810 0.0724
-5 13 9 15.9677 -0.1395
-5 13 10 -6.0727 0.0387
-5 13 11 2.0855 -0.0092
-5 13 12 28.3577 0.0274
-5 13 13 13.9215 -0.0547
-5 13 14 0.8418 0.0903
-5 13 15 15.4420 0.0198
-5 13 16 9.1893 0.2208
-5 13 17 -1.1629 -0.5434
-5 13 18 13.3203 -0.0054
-5 14 1 -0.6283 0.4659
-5 14 2 -6.7933 0.0731
-5 14 3 17.5752 0.0994
-5 14 4 -25.8483 -0.1354
-5 14 5 17.9007 0.1590
-5 14 6 20.1124 -0.0762
-5 14 7 -9.0112 0.1347
-5 14 8 -7.3920 0.1769
-5 14 9 -8.9457 -0.0079
-5 14 10 5.5491 -0.0247
-5 14 11 -10.5301 0.1360
-5 14 12 8.4635 -0.0297
-5 14 13 -0.7063 0.1345
-5 14 14 -5.2239 0.0520
-5 14 15 13.4881 0.1438
-5 14 16 9.9368 0.3068
-5 14 17 -8.8477 -0.0343
-5 14 18 1.0124 0.3600
-5 15 1 -26.1894 -0.0346
-5 15 2 -4.5322 -0.1570
-5 15 3 4.3330 0.0124
-5 15 4 11.6005 -0.0335
-5 15 5 -9.1941 0.2078
-5 15 6 6.3972 -0.1592
-5 15 7 -22.6026 0.0872
-5 15 8 18.7256 0.0136
-5 15 9 9.5557 -0.0178
-5 15 10 7.5358 0.0147
-5 15 11 0.9465 0.1479
-5 15 12 -6.4247 -0.1780
-5 15 13 10.6702 0.0543
-5 15 14 1.6366 0.0120
-5 15 15 3.0160 -0.0315
-5 15 16 -2.2112 -0.1079
-5 15 17 -11.3604 -0.4998
-5 16 1 3.5608 0.1400
-5 16 2 10.6407 0.0877
-5 16 3 -1.4783 0.1599
-5 16 4 -15.7809 0.1674
-5 16 5 -0.0533 0.0599
-5 16 6 8.1605 0.0038
-5 16 7 22.0040 0.1392
-5 16 8 5.7928 0.2413
-5 16 9 -1.1993 0.0071
-5 16 10 -1.0284 0.2886
-5 16 11 9.5737 0.1336
-5 16 12 9.6429 0.0115
-5 16 13 -0.8142 -0.0283
-5 16 14 -7.1430 -0.0294
-5 16 15 -0.3506 -0.0089
-5 16 16 -3.9090 0.4226
-5 17 1 21.1683 -0.0984
-5 17 2 -22.0896 -0.1044
-5 17 3 31.7067 -0.1007
-5 17 4 -7.6405 -0.2671
-5 17 5 9.1749 0.1431
-5 17 6 -7.0640 -0.0588
-5 17 7 -9.6620 0.2467
-5 17 8 2.5515 -0.1107
-5 17 9 1.1004 0.0221
-5 17 10 7.8603 0.0770
-5 17 11 6.1045 0.1939
-5 17 12 0.1848 -0.0771
-5 17 13 -0.6546 0.1788
-5 17 14 -2.5533 -0.0454
-5 17 15 -3.2199 -0.1714
-5 18 1 -1.2030 0.0239
-5 18 2 5.8029 -0.0138
-5 18 3 0.2029 0.3265
-5 18 4 -2.4649 0.0821
-5 18 5 -11.7095 0.2364
-5 18 6 -10.3766 -0.0981
-5 18 7 -0.4932 -0.0031
-5 18 8 2.6563 -0.0189
-5 18 9 8.4331 0.0537
-5 18 10 13.8218 -0.1325
-5 18 11 15.3177 0.0652
-5 18 12 11.9100 0.0001
-5 18 13 14.9172 -0.0274
-5 18 14 5.6729 -0.0096
-5 19 1 18.3309 -0.0680
-5 19 2 -14.3035 0.0768
-5 19 3 4.7174 -0.1185
-5 19 4 -16.9956 -0.1119
-5 19 5 -0.6214 0.1635
-5 19 6 -9.1346 -0.0870
-5 19 7 1.3588 -0.1208
-5 19 8 -4.2833 0.0845
-5 19 9 6.3621 -0.1246
-5 19 10 8.6171 -0.2041
-5 19 11 7.2472 0.0561
-5 19 12 6.4764 -0.0211
-5 19 13 7.9921 0.0032
-5 20 1 -19.6000 0.2952
-5 20 2 -9.1135 0.1321
-5 20 3 -16.8378 0.2110
-5 20 4 -4.8845 -0.2004
-5 20 5 -5.3587 0.3243
-5 20 6 -3.3865 -0.1823
-5 20 7 2.4467 -0.1669
-5 20 8 -0.4235 -0.1651
-5 20 9 6.8541 -0.1634
-5 20 10 -4.9558 -0.1430
-5 20 11 8.4877 -0.1198
-5 20 12 -1.7988 -0.2414
-5 21 1 -4.6920 0.0272
-5 21 2 3.3531 0.1239
-5 21 3 -7.3281 0.0498
-5 21 4 -7.8236 -0.0209
-5 21 5 2.0769 0.0414
-5 21 6 -3.5520 -0.1758
-5 21 7 -4.5852 0.2728
-5 21 8 6.6995 -0.0485
-5 21 9 -2.4678 0.2373
-5 21 10 5.5099 -0.1742
-5 22 1 -8.5496 0.0955
-5 22 2 -10.6175 0.3196
-5 22 3 -23.3015 0.0764
-5 22 4 -4.0159 -0.1903
-5 22 5 -0.9830 0.0084
-5 22 6 0.3796 -0.0890
-5 22 7 4.8902 -0.0688
-5 22 8 1.8703 -0.2634
-5 23 1 -9.7764 -0.2111
-5 23 2 7.9362 -0.0776
-5 23 3 2.3882 0.0492
-5 23 4 2.0671 -0.1546
-5 23 5 5.2700 -0.1284
-4 0 2 268.2502 -1.9703
-4 0 4 -82.9183 -3.7867
-4 0 6 -103.0113 -0.5316
-4 0 8 -44.5270 0.1504
-4 0 10 -75.2597 0.5920
-4 0 12 19.1793 2.2324
-4 0 14 -9.6122 1.5640
-4 0 16 22.6683 -0.0289
-4 0 18 -1.3935 -0.4629
-4 0 20 -4.3716 -0.1279
-4 0 22 -21.1310 -0.3093
-4 1 1 41.0395 0.3234
-4 1 2 -42.2813 -0.4373
-4 1 3 56.9818 1.6177
-4 1 4 4.9827 -0.0655
-4 1 5 78.0297 1.6836
-4 1 6 41.5669 0.9978
-4 1 7 -87.1530 -0.2424
-4 1 8 -14.2822 0.4802
-4 1 9 -6.0469 0.1780
-4 1 10 34.9193 0.1649
-4 1 11 3.2279 0.1203
-4 1 12 6.8979 1.3918
-4 1 13 6.6965 -2.0701
-4 1 14 5.8329 -0.7010
-4 1 15 19.3949 -1.0875
-4 1 16 15.0001 -0.8298
-4 1 17 8.0714 0.3586
-4 1 18 -14.7750 -0.0206
-4 1 19 -1.3571 -0.1616
-4 1 20 13.3611 -1.0234
-4 1 21 -9.8620 0.4777
-4 1 22 3.3663 0.1310
-4 2 1 -36.2639 -0.2968
-4 2 2 48.6743 -0.5268
-4 2 3 94.0707 0.5390
-4 2 4 10.8581 -0.7135
-4 2 5 -17.3964 0.2545
-4 2 6 -27.1614 -1.1515
-4 2 7 -14.4244 0.3536
-4 2 8 -37.5764 0.8261
-4 2 9 -7.8094 0.1141
-4 2 10 -33.5672 -0.0729
-4 2 11 13.2011 -1.1268
-4 2 12 -1.2855 0.3434
-4 2 13 48.6310 -1.4996
-4 2 14 13.9711 1.4578
-4 2 15 -16.5004 -0.4595
-4 2 16 -3.3800 -0.3082
-4 2 17 3.9184 -0.5281
-4 2 18 -9.3088 -0.1077
-4 2 19 18.7517 0.5961
-4 2 20 -7.9468 -0.0688
-4 2 21 -11.3984 1.1163
-4 2 22 -11.0601 -0.4448
-4 3 1 -0.4994 1.6766
-4 3 2 -9.0821 -0.4912
-4 3 3 -4.9912 -0.0100
-4 3 4 0.5557 0.2478
-4 3 5 -21.7923 0.7283
-4 3 6 -19.1965 0.0703
-4 3 7 70.5658 0.6432
-4 3 8 15.8008 0.0099
-4 3 9 3.5036 -0.9157
-4 3 10 36.2270 0.3975
-4 3 11 -4.1136 -0.0743
-4 3 12 20.5438 0.3694
-4 3 13 0.9049 -1.0480
-4 3 14 -7.5495 0.3025
-4 3 15 -5.3290 -0.8680
-4 3 16 -2.9981 -0.1727
-4 3 17 1.3020 0.0454
-4 3 18 -12.5675 -0.5517
-4 3 19 -9.3590 0.3397
-4 3 20 12.6305 -0.4688
-4 3 21 3.4600 0.8198
-4 3 22 13.7802 -0.7698
-4 4 1 37.9151 -0.0048
-4 4 2 -134.5736 0.0630
-4 4 3 -62.3461 -0.2006
-4 4 4 58.5036 1.1392
-4 4 5 -1.7207 -0.1339
-4 4 6 56.7477 -0.2600
-4 4 7 -21.5332 0.5665
-4 4 8 0.5952 -0.0262
-4 4 9 -27.9895 -0.4215
-4 4 10 29.8051 0.2220
-4 4 11 12.6328 -0.4445
-4 4 12 -14.8714 -0.5780
-4 4 13 -10.0116 -0.5140
-4 4 14 3.5622 -0.2045
-4 4 15 6.5320 -0.9098
-4 4 16 -6.0749 0.2584
-4 4 17 -10.2556 0.2514
-4 4 18 -9.7250 0.1258
-4 4 19 3.8598 0.0521
-4 4 20 -3.4306 -0.5013
-4 4 21 4.8075 0.1181
-4 5 1 -47.5774 -0.0142
-4 5 2 45.3839 0.1089
-4 5 3 -39.4143 0.0135
-4 5 4 -22.8664 0.2846
-4 5 5 -14.8520 -0.1545
-4 5 6 -81.1280 -0.1284
-4 5 7 66.9104 0.5351
-4 5 8 37.0390 -0.2023
-4 5 9 9.0474 -0.2356
-4 5 10 4.4588 0.3064
-4 5 11 -12.2551 -0.6487
-4 5 12 9.6173 -0.3057
-4 5 13 6.3176 0.3949
-4 5 14 -10.1904 0.4970
-4 5 15 -16.7724 -0.1046
-4 5 16 -27.7496 0.3925
-4 5 17 -7.3503 -0.5500
-4 5 18 -9.7152 0.0359
-4 5 19 9.5451 0.6663
-4 5 20 -3.5279 -0.2241
-4 5 21 0.0431 0.3677
-4 6 1 8.9353 0.0620
-4 6 2 -22.9639 0.2545
-4 6 3 -65.7330 0.1796
-4 6 4 1.3729 0.2633
-4 6 5 -19.3687 -0.1193
-4 6 6 14.6828 0.3250
-4 6 7 -1.7395 -0.0256
-4 6 8 50.4342 -0.5997
-4 6 9 -6.1427 -0.0552
-4 6 10 45.2104 0.1559
-4 6 11 -0.2243 -0.0791
-4 6 12 -13.2295 0.0052
-4 6 13 -16.9770 0.1660
-4 6 14 -24.8429 -0.5254
-4 6 15 1.0344 0.1510
-4 6 16 -4.1950 0.4325
-4 6 17 8.1512 0.0289
-4 6 18 4.9739 -0.0546
-4 6 19 -11.4365 -0.0872
-4 6 20 18.7595 -0.1516
-4 6 21 0.7209 0.2874
-4 7 1 4.6023 0.0167
-4 7 2 -13.5049 -0.1521
-4 7 3 -22.6755 -0.0293
-4 7 4 -9.7365 -0.2767
-4 7 5 2.0619 -0.0771
-4 7 6 24.4881 0.2638
-4 7 7 -1.2285 0.0524
-4 7 8 1.5760 0.2161
-4 7 9 -15.5883 0.1490
-4 7 10 4.0216 0.0780
-4 7 11 16.0118 -0.2268
-4 7 12 -2.9160 0.2320
-4 7 13 -14.2670 0.3156
-4 7 14 19.1824 -0.1344
-4 7 15 -12.6737 0.1709
-4 7 16 -2.7733 -0.0447
-4 7 17 5.1209 0.0978
-4 7 18 -10.6760 0.3539
-4 7 19 -4.4253 0.3314
-4 7 20 -6.0684 -0.0681
-4 7 21 -0.9216 0.0562
-4 8 1 -40.0901 -0.2184
-4 8 2 4.2513 0.1610
-4 8 3 21.5405 0.0400
-4 8 4 4.6637 0.3517
-4 8 5 -7.9823 0.2116
-4 8 6 -0.0706 0.1178
-4 8 7 3.7897 -0.3441
-4 8 8 46.6145 -0.0363
-4 8 9 21.6827 -0.1135
-4 8 10 23.2934 -0.1196
-4 8 11 14.9684 -0.0897
-4 8 12 -6.2504 -0.0939
-4 8 13 14.0477 0.0411
-4 8 14 -0.9639 0.0011
-4 8 15 4.5163 0.4212
-4 8 16 -26.4080 0.0869
-4 8 17 9.8635 0.0495
-4 8 18 2.6297 0.0723
-4 8 19 3.4457 0.1261
-4 8 20 17.1583 0.5013
-4 9 1 19.1266 0.4312
-4 9 2 -9.0346 0.2798
-4 9 3 4.1776 -0.0448
-4 9 4 41.6808 -0.2332
-4 9 5 -18.9342 -0.0315
-4 9 6 40.7134 -0.3702
-4 9 7 -0.3372 0.0389
-4 9 8 -9.3569 0.1921
-4 9 9 8.9693 -0.0466
-4 9 10 -17.3090 0.0269
-4 9 11 6.5192 -0.0012
-4 9 12 5.5960 0.1276
-4 9 13 -15.0679 -0.0699
-4 9 14 10.6297 0.1592
-4 9 15 1.0069 0.0260
-4 9 16 10.2182 0.1225
-4 9 17 1.8561 0.3423
-4 9 18 15.4044 0.0607
-4 9 19 -11.7856 -0.1336
-4 9 20 -5.8281 -0.1550
-4 10 1 8.1943 0.1430
-4 10 2 -28.9452 -0.1755
-4 10 3 4.0915 -0.2709
-4 10 4 -9.1963 0.0309
-4 10 5 13.1058 0.1116
-4 10 6 43.6795 -0.0245
-4 10 7 -2.7114 -0.1691
-4 10 8 3.0223 0.1029
-4 10 9 4.0111 -0.3922
-4 10 10 8.4744 0.0290
-4 10 11 1.3791 0.0658
-4 10 12 18.2509 -0.0191
-4 10 13 0.0228 -0.0226
-4 10 14 -6.8813 0.0558
-4 10 15 15.0442 -0.0262
-4 10 16 -1.5831 -0.1179
-4 10 17 -6.3348 0.0278
-4 10 18 1.0467 -0.1775
-4 10 19 7.7944 0.3376
-4 10 20 -1.6599 0.1640
-4 11 1 -13.9805 -0.1531
-4 11 2 31.8481 0.2078
-4 11 3 13.8025 -0.0781
-4 11 4 26.2180 0.0471
-4 11 5 4.5166 -0.1420
-4 11 6 5.6346 -0.1747
-4 11 7 -6.6857 -0.1349
-4 11 8 -20.2926 0.1737
-4 11 9 21.1123 -0.0226
-4 11 10 -22.0966 0.0226
-4 11 11 -24.9057 0.1017
-4 11 12 -15.3641 -0.0964
-4 11 13 10.7081 0.0509
-4 11 14 -21.4813 0.1252
-4 11 15 8.7854 0.0540
-4 11 16 5.2205 0.3136
-4 11 17 -13.7146 -0.0390
-4 11 18 14.7920 0.3417
-4 11 19 2.4501 -0.2271
-4 12 1 4.6747 0.0421
-4 12 2 4.7234 -0.0003
-4 12 3 19.5903 0.0483
-4 12 4 -17.4569 -0.0990
-4 12 5 -3.1196 -0.0285
-4 12 6 -5.1824 -0.0676
-4 12 7 -2.8224 -0.1693
-4 12 8 -10.3745 0.0530
-4 12 9 -5.6267 -0.1257
-4 12 10 -0.2359 -0.0763
-4 12 11 -32.7709 0.1082
-4 12 12 5.5247 -0.0906
-4 12 13 -8.0423 -0.0933
-4 12 14 -15.6840 -0.0987
-4 12 15 -5.2132 -0.0274
-4 12 16 10.0128 -0.1136
-4 12 17 -5.5728 -0.2680
-4 12 18 15.2235 0.3489
-4 12 19 1.7669 0.1596
-4 13 1 18.7051 -0.0798
-4 13 2 -3.9523 0.0583
-4 13 3 8.8355 -0.2461
-4 13 4 -32.9682 -0.1066
-4 13 5 11.0848 -0.0050
-4 13 6 23.2937 0.0604
-4 13 7 -12.8491 -0.0817
-4 13 8 -10.1846 0.0803
-4 13 9 -23.5595 0.0732
-4 13 10 -7.5671 -0.0842
-4 13 11 7.6573 0.2313
-4 13 12 -14.2208 -0.0511
-4 13 13 8.3535 -0.0632
-4 13 14 -16.3773 -0.1405
-4 13 15 7.1302 0.2419
-4 13 16 9.2492 0.1419
-4 13 17 -3.5130 0.0996
-4 13 18 0.6993 0.4198
-4 14 1 -19.3813 -0.1540
-4 14 2 22.6305 0.0486
-4 14 3 26.7570 -0.1083
-4 14 4 6.0968 0.0104
-4 14 5 -0.3412 -0.0449
-4 14 6 -51.9153 -0.0233
-4 14 7 -11.4043 -0.1418
-4 14 8 -7.6177 0.0041
-4 14 9 9.5182 -0.0391
-4 14 10 -12.1841 -0.1383
-4 14 11 -8.0000 0.0707
-4 14 12 -8.7431 -0.0624
-4 14 13 -1.8719 0.0137
-4 14 14 10.2314 -0.0150
-4 14 15 -4.7301 -0.2021
-4 14 16 -3.9473 -0.2914
-4 14 17 -0.3664 -0.1498
-4 14 18 1.4550 0.7629
-4 15 1 20.3642 -0.1711
-4 15 2 -30.8727 0.0359
-4 15 3 -0.6369 -0.0801
-4 15 4 -34.1936 -0.0397
-4 15 5 3.0197 -0.0870
-4 15 6 -8.6063 -0.1858
-4 15 7 -0.1397 -0.0367
-4 15 8 8.7355 -0.0306
-4 15 9 -11.2309 0.0881
-4 15 10 3.8354 0.0158
-4 15 11 19.1205 0.0950
-4 15 12 14.9895 -0.1354
-4 15 13 6.4007 -0.1524
-4 15 14 7.9943 -0.0170
-4 15 15 10.1092 -0.0064
-4 15 16 1.2428 -0.0102
-4 15 17 12.3538 0.1569
-4 16 1 6.6533 0.0564
-4 16 2 8.5861 -0.0198
-4 16 3 -1.7455 -0.0783
-4 16 4 0.9692 -0.0972
-4 16 5 12.4767 0.0401
-4 16 6 -11.6617 0.1297
-4 16 7 0.3812 0.0630
-4 16 8 -9.9594 -0.1183
-4 16 9 -2.5149 -0.0968
-4 16 10 -12.1234 -0.1119
-4 16 11 10.5228 0.0022
-4 16 12 -2.6188 0.0659
-4 16 13 0.6674 0.1402
-4 16 14 6.9059 0.1399
-4 16 15 -1.3505 -0.0245
-4 16 16 -1.8202 -0.0776
-4 17 1 -19.9577 -0.2178
-4 17 2 -6.8139 0.0353
-4 17 3 -6.6925 -0.1952
-4 17 4 4.7316 0.0602
-4 17 5 8.5987 -0.1603
-4 17 6 -25.3941 0.0225
-4 17 7 5.7979 -0.1384
-4 17 8 -3.1430 0.0441
-4 17 9 0.7937 0.1444
-4 17 10 0.3082 -0.1180
-4 17 11 -6.6286 -0.0892
-4 17 12 -7.3288 -0.0178
-4 17 13 4.3817 0.1541
-4 17 14 5.3857 0.2396
-4 17 15 7.8422 -0.0303
-4 18 1 22.8681 -0.0454
-4 18 2 9.3429 0.1497
-4 18 3 -9.9771 0.1470
-4 18 4 1.1919 0.0096
-4 18 5 7.0768 0.2161
-4 18 6 3.5900 0.1493
-4 18 7 14.2316 0.1926
-4 18 8 -8.7391 0.1802
-4 18 9 -4.5965 0.2155
-4 18 10 -6.9528 -0.0839
-4 18 11 1.3866 0.0069
-4 18 12 -10.0411 0.0234
-4 18 13 -6.8854 -0.1176
-4 18 14 -6.3598 -0.1249
-4 19 1 -21.7113 -0.0377
-4 19 2 9.3962 -0.0617
-4 19 3 -10.3853 -0.2557
-4 19 4 12.9553 0.0783
-4 19 5 6.3837 0.0316
-4 19 6 0.9881 0.0933
-4 19 7 6.2781 0.0211
-4 19 8 -3.2591 -0.2017
-4 19 9 -6.0549 0.1714
-4 19 10 -17.7755 0.1486
-4 19 11 -12.3804 -0.0825
-4 19 12 -19.8909 0.1501
-4 19 13 -10.6102 -0.0399
-4 20 1 10.8129 -0.1274
-4 20 2 20.8565 0.1806
-4 20 3 6.5866 0.0971
-4 20 4 10.8079 0.1669
-4 20 5 0.1387 -0.0495
-4 20 6 -0.9570 -0.0224
-4 20 7 -3.2476 0.2956
-4 20 8 -4.8318 -0.0264
-4 20 9 1.8100 0.0788
-4 20 10 0.7855 0.1256
-4 20 11 3.1132 -0.2321
-4 20 12 -0.1863 0.1590
-4 21 1 0.0415 0.0124
-4 21 2 8.8339 -0.0808
-4 21 3 -4.2858 0.0511
-4 21 4 -0.2638 0.2620
-4 21 5 1.8303 -0.2016
-4 21 6 0.8802 0.0073
-4 21 7 2.5402 0.0456
-4 21 8 -5.1911 -0.1814
-4 21 9 8.3869 -0.0835
-4 21 10 -8.0649 0.2965
-4 22 1 -1.3597 -0.0982
-4 22 2 -0.1451 0.1284
-4 22 3 10.6699 -0.0992
-4 22 4 0.1827 0.2617
-4 22 5 -7.1068 -0.0860
-4 22 6 5.5183 -0.1215
-4 22 7 -10.2138 0.0544
-4 22 8 6.9594 -0.5509
-4 23 1 1.5958 -0.0190
-4 23 2 -0.3163 0.0465
-4 23 3 -3.0039 0.0202
-4 23 4 -0.1079 0.0207
-4 23 5 -0.3044 -0.3039
-3 0 2 -158.7934 -0.7158
-3 0 4 29.4152 -0.6829
-3 0 6 93.3230 -0.3314
-3 0 8 23.5446 -0.3337
-3 0 10 23.2487 1.3628
-3 0 12 -56.7207 2.1776
-3 0 14 8.6461 0.6025
-3 0 16 8.2332 0.4842
-3 0 18 -21.6228 -0.5915
-3 0 20 21.4414 -1.5762
-3 1 1 -103.6699 0.5225
-3 1 2 -84.5465 0.5243
-3 1 3 24.9343 0.2569
-3 1 4 29.4587 -0.0790
-3 1 5 14.4912 -0.3118
-3 1 6 -46.9698 -0.8839
-3 1 7 55.1134 -0.1175
-3 1 8 -24.2624 1.2484
-3 1 9 -33.9752 -0.4836
-3 1 10 16.6936 -0.0099
-3 1 11 -22.4479 -0.3880
-3 1 12 -19.6446 0.3315
-3 1 13 0.0828 -0.0896
-3 1 14 20.0370 0.6973
-3 1 15 -18.3732 0.1548
-3 1 16 -2.0314 -0.4336
-3 1 17 19.2015 0.4299
-3 1 18 -1.4305 -0.5111
-3 1 19 16.5021 0.4267
-3 1 20 -9.4241 -1.0691
-3 1 21 -12.3448 0.5805
-3 1 22 7.6890 -0.7321
-3 2 1 136.1717 -0.3556
-3 2 2 -8.9770 0.0659
-3 2 3 -86.6423 -3.1714
-3 2 4 17.1234 0.1263
-3 2 5 -142.6113 -0.6033
-3 2 6 0.4732 -0.3810
-3 2 7 22.7151 0.1157
-3 2 8 35.2695 0.4575
-3 2 9 -62.8280 0.1778
-3 2 10 10.0969 0.5276
-3 2 11 -21.3874 1.6079
-3 2 12 1.8725 0.1864
-3 2 13 4.2563 1.0819
-3 2 14 -7.9726 0.8501
-3 2 15 4.1148 -0.1406
-3 2 16 5.2107 -0.4717
-3 2 17 5.2740 -0.2650
-3 2 18 7.1541 -0.3465
-3 2 19 -13.9927 0.1718
-3 2 20 2.9648 0.3083
-3 2 21 -11.5378 0.3693
-3 3 1 31.4520 -0.5380
-3 3 2 -52.6510 0.7731
-3 3 3 -54.6333 -0.3562
-3 3 4 31.8645 0.8910
-3 3 5 14.1278 0.3768
-3 3 6 -14.6584 -0.3755
-3 3 7 -17.2772 0.3695
-3 3 8 -30.2725 0.2548
-3 3 9 8.6387 -0.0639
-3 3 10 33.0828 0.5079
-3 3 11 2.3579 0.7603
-3 3 12 -14.3517 -1.3271
-3 3 13 -17.5212 -0.3414
-3 3 14 22.0184 -0.6422
-3 3 15 29.2119 -0.8229
-3 3 16 17.0906 0.4671
-3 3 17 1.8305 0.1022
-3 3 18 -10.1812 -0.3171
-3 3 19 7.6901 -0.4770
-3 3 20 -17.6205 0.0974
-3 3 21 2.2513 0.3162
-3 4 1 18.3759 -0.7577
-3 4 2 87.1732 0.1126
-3 4 3 53.6030 -0.6431
-3 4 4 -5.3683 0.1370
-3 4 5 -3.8343 -0.7451
-3 4 6 -56.7963 0.2233
-3 4 7 -27.2895 0.7030
-3 4 8 -10.8229 0.1578
-3 4 9 -42.9510 0.1982
-3 4 10 -3.4530 -0.2540
-3 4 11 -21.6506 0.2688
-3 4 12 36.1100 -0.7848
-3 4 13 36.1344 1.2127
-3 4 14 -0.5908 -0.2529
-3 4 15 13.3092 -0.3569
-3 4 16 -2.3354 -0.2566
-3 4 17 -1.6543 -0.1142
-3 4 18 16.3267 0.0961
-3 4 19 -11.3065 0.5437
-3 4 20 -5.5255 0.2463
-3 4 21 -22.4830 -0.0696
-3 5 1 66.8327 -0.0282
-3 5 2 69.1779 0.6000
-3 5 3 5.2741 0.2124
-3 5 4 8.5520 0.4240
-3 5 5 -62.4424 -0.1686
-3 5 6 52.6509 0.5095
-3 5 7 -46.7847 -0.2513
-3 5 8 14.0129 -0.5920
-3 5 9 18.7789 0.1560
-3 5 10 8.9643 -0.0181
-3 5 11 12.4675 -0.1176
-3 5 12 21.0581 -0.7345
-3 5 13 -0.1568 0.1727
-3 5 14 12.5394 -0.8581
-3 5 15 3.2708 -0.0635
-3 5 16 7.6184 -0.0145
-3 5 17 -0.7509 -0.2877
-3 5 18 1.3049 -0.1025
-3 5 19 -10.1091 -0.2073
-3 5 20 -0.4850 0.6983
-3 5 21 6.4384 -0.2837
-3 6 1 -18.2547 -0.4056
-3 6 2 -10.3384 -0.3134
-3 6 3 78.9082 -0.0661
-3 6 4 -19.1756 -0.3084
-3 6 5 52.6308 -0.2177
-3 6 6 11.9575 0.5434
-3 6 7 -48.4774 0.0161
-3 6 8 -57.8058 0.0470
-3 6 9 -10.6054 0.3841
-3 6 10 -26.2167 -0.2600
-3 6 11 13.1299 -0.0379
-3 6 12 1.0678 -0.2572
-3 6 13 -1.2400 0.0402
-3 6 14 20.1316 -0.7256
-3 6 15 21.0674 0.1914
-3 6 16 -4.8420 0.0185
-3 6 17 10.1897 0.1738
-3 6 18 -6.3708 -0.1350
-3 6 19 -7.4683 -0.3486
-3 6 20 -7.9275 -0.0647
-3 6 21 -3.9052 -0.3274
-3 7 1 12.4483 -0.0977
-3 7 2 6.0353 0.3485
-3 7 3 5.0207 0.2384
-3 7 4 -14.8488 0.2551
-3 7 5 -39.0578 0.2534
-3 7 6 2.4703 0.2249
-3 7 7 -31.1225 -0.2616
-3 7 8 5.6040 -0.0641
-3 7 9 16.5204 0.1223
-3 7 10 -23.1424 -0.4666
-3 7 11 11.2119 -0.2532
-3 7 12 15.1108 0.0465
-3 7 13 16.7027 -0.0262
-3 7 14 3.1796 -0.3461
-3 7 15 -4.8947 0.0806
-3 7 16 -13.6204 -0.5869
-3 7 17 -20.5340 0.0616
-3 7 18 10.2059 0.2629
-3 7 19 -14.0953 0.1849
-3 7 20 5.3403 0.3944
-3 7 21 -2.8370 -0.4378
-3 8 1 16.4496 0.0685
-3 8 2 -20.6624 0.2295
-3 8 3 -17.4501 -0.1935
-3 8 4 -15.3696 -0.0931
-3 8 5 -32.9859 -0.0917
-3 8 6 6.3959 0.1209
-3 8 7 -14.5040 -0.3422
-3 8 8 -19.3977 0.2386
-3 8 9 16.9047 0.1058
-3 8 10 -24.1214 -0.2190
-3 8 11 -8.3820 0.0425
-3 8 12 6.4168 -0.0609
-3 8 13 -20.5724 -0.2066
-3 8 14 -5.0805 0.1072
-3 8 15 -3.3667 0.5092
-3 8 16 3.4799 -0.0323
-3 8 17 -0.3902 0.2809
-3 8 18 -3.1583 -0.2414
-3 8 19 6.8867 -0.3096
-3 8 20 -10.1089 -0.1122
-3 9 1 -4.3292 -0.1542
-3 9 2 -37.7875 0.1151
-3 9 3 -35.6744 -0.1435
-3 9 4 -37.5992 0.2199
-3 9 5 6.9063 0.2243
-3 9 6 -13.4743 0.1760
-3 9 7 3.1035 0.0170
-3 9 8 -21.3578 -0.0617
-3 9 9 21.2046 0.0091
-3 9 10 -6.2646 -0.3210
-3 9 11 7.5429 0.3527
-3 9 12 -11.9488 0.0138
-3 9 13 16.4750 -0.1563
-3 9 14 -26.1373 -0.1588
-3 9 15 3.9289 -0.0198
-3 9 16 6.0643 -0.1679
-3 9 17 -17.7107 0.0879
-3 9 18 -8.4504 0.1597
-3 9 19 -4.4085 0.0839
-3 9 20 -1.5620 0.0802
-3 10 1 -25.5364 -0.1853
-3 10 2 -13.2370 -0.0834
-3 10 3 -23.9316 0.2701
-3 10 4 -19.4429 0.1491
-3 10 5 8.1441 -0.0032
-3 10 6 -19.7045 0.0163
-3 10 7 33.9129 -0.0826
-3 10 8 -2.7129 0.0467
-3 10 9 25.6752 0.0650
-3 10 10 23.0222 -0.1973
-3 10 11 -10.0495 0.0039
-3 10 12 11.6577 -0.1006
-3 10 13 7.4737 0.1515
-3 10 14 -11.7534 0.1573
-3 10 15 -24.6828 0.2760
-3 10 16 5.4729 0.1058
-3 10 17 -17.2984 0.0084
-3 10 18 -3.3690 0.1439
-3 10 19 8.3471 -0.1002
-3 10 20 8.1245 -0.0668
-3 11 1 0.6403 0.0569
-3 11 2 -5.6209 0.3189
-3 11 3 32.5989 0.0413
-3 11 4 8.7256 0.1412
-3 11 5 -16.1678 -0.2264
-3 11 6 3.3096 0.1722
-3 11 7 13.5526 0.0194
-3 11 8 31.1251 -0.2229
-3 11 9 12.3657 0.0838
-3 11 10 9.6691 -0.2754
-3 11 11 0.3120 0.1676
-3 11 12 -12.0617 -0.1626
-3 11 13 5.6360 0.1970
-3 11 14 -9.0375 -0.1772
-3 11 15 -11.5356 0.1854
-3 11 16 -2.1537 -0.2382
-3 11 17 2.0579 -0.0286
-3 11 18 -4.1919 0.1408
-3 11 19 2.4044 -0.1266
-3 12 1 -32.0861 -0.2311
-3 12 2 -27.7534 -0.0872
-3 12 3 -14.8716 -0.0903
-3 12 4 -18.8720 0.0013
-3 12 5 52.6373 0.0468
-3 12 6 12.0204 0.0095
-3 12 7 39.0826 0.0599
-3 12 8 -4.3668 -0.2037
-3 12 9 15.0018 0.2228
-3 12 10 6.4454 -0.0296
-3 12 11 38.3375 0.2105
-3 12 12 -0.6027 0.0279
-3 12 13 -8.5679 0.2403
-3 12 14 4.2541 0.0079
-3 12 15 -7.7018 0.2626
-3 12 16 2.3729 0.0919
-3 12 17 1.9803 -0.2780
-3 12 18 -9.4946 -0.1678
-3 12 19 -1.0289 -0.7801
-3 13 1 3.9361 0.0835
-3 13 2 11.2097 0.1680
-3 13 3 42.4006 0.0619
-3 13 4 27.9081 0.0788
-3 13 5 23.3646 0.0383
-3 13 6 -7.1504 -0.0205
-3 13 7 3.4472 0.1211
-3 13 8 30.4174 -0.1563
-3 13 9 -4.9188 0.0705
-3 13 10 -9.1701 -0.1315
-3 13 11 -13.5228 0.1257
-3 13 12 0.7739 0.0142
-3 13 13 -18.3525 0.3435
-3 13 14 14.5825 0.0208
-3 13 15 -7.2763 -0.1373
-3 13 16 -16.4288 -0.4503
-3 13 17 7.3592 -0.0130
-3 13 18 -3.7818 -0.1909
-3 14 1 -11.3993 -0.0993
-3 14 2 3.1715 -0.0098
-3 14 3 -17.7194 -0.0726
-3 14 4 15.3566 0.0617
-3 14 5 3.5998 -0.0837
-3 14 6 5.8486 -0.1556
-3 14 7 2.4406 0.0981
-3 14 8 7.8514 -0.0306
-3 14 9 2.7441 0.0324
-3 14 10 -24.8492 0.1189
-3 14 11 7.1183 0.0466
-3 14 12 -15.0994 -0.0060
-3 14 13 -19.1764 0.1922
-3 14 14 4.0236 0.1418
-3 14 15 0.0832 0.1405
-3 14 16 -3.4758 -0.1732
-3 14 17 14.8659 0.2746
-3 15 1 8.8417 0.1758
-3 15 2 21.7093 0.1034
-3 15 3 -14.4239 -0.0184
-3 15 4 -0.3775 0.2325
-3 15 5 39.5952 -0.0087
-3 15 6 -1.6255 0.0392
-3 15 7 15.8992 0.1614
-3 15 8 -18.9684 -0.1170
-3 15 9 -20.6570 0.0231
-3 15 10 -8.0765 0.0379
-3 15 11 -5.6406 0.0810
-3 15 12 -4.5120 -0.2269
-3 15 13 -15.5075 -0.0044
-3 15 14 2.8066 -0.1070
-3 15 15 1.9840 0.0044
-3 15 16 -0.7930 0.1547
-3 15 17 14.4738 0.3480
-3 16 1 -5.6487 -0.1469
-3 16 2 18.7906 -0.1561
-3 16 3 -3.9419 -0.1081
-3 16 4 33.3253 0.0101
-3 16 5 -16.3102 -0.1419
-3 16 6 -14.4000 -0.1909
-3 16 7 -5.6684 0.0091
-3 16 8 2.0989 -0.1321
-3 16 9 -9.0625 0.0293
-3 16 10 -5.4838 -0.0299
-3 16 11 -15.5818 -0.0145
-3 16 12 -14.9924 0.0066
-3 16 13 4.4849 0.2730
-3 16 14 6.2083 0.1151
-3 16 15 2.5352 0.0148
-3 16 16 -3.2778 -0.0181
-3 17 1 9.1293 0.0651
-3 17 2 17.8008 0.1190
-3 17 3 -16.1472 -0.0045
-3 17 4 -1.4938 0.0173
-3 17 5 -13.4140 -0.2388
-3 17 6 -0.7445 -0.1384
-3 17 7 7.5250 0.1673
-3 17 8 -8.7156 -0.0116
-3 17 9 5.0701 0.1502
-3 17 10 14.1643 0.1851
-3 17 11 17.1900 -0.0390
-3 17 12 9.3405 -0.1039
-3 17 13 4.2241 -0.2396
-3 17 14 8.1513 -0.3797
-3 17 15 -0.6397 0.0780
-3 18 1 -2.3203 -0.1945
-3 18 2 1.2917 -0.0945
-3 18 3 -1.1752 -0.1907
-3 18 4 7.5817 0.0705
-3 18 5 -10.7941 0.0237
-3 18 6 9.9113 -0.1023
-3 18 7 -1.5030 0.1671
-3 18 8 -0.2212 -0.2772
-3 18 9 2.8920 -0.0440
-3 18 10 5.2744 0.1981
-3 18 11 8.5075 0.0293
-3 18 12 10.7883 0.1578
-3 18 13 15.2107 0.1284
-3 18 14 5.3013 -0.1034
-3 19 1 -8.9238 0.1155
-3 19 2 -1.1943 -0.1835
-3 19 3 8.6196 -0.0259
-3 19 4 -4.4507 -0.0344
-3 19 5 -19.8790 -0.1768
-3 19 6 -2.4503 -0.1211
-3 19 7 -10.1983 0.1110
-3 19 8 1.3402 -0.0625
-3 19 9 15.1163 -0.0941
-3 19 10 15.2578 0.1065
-3 19 11 4.5285 -0.1030
-3 19 12 21.0829 0.0370
-3 19 13 6.4517 -0.0242
-3 20 1 6.8398 -0.1570
-3 20 2 -13.1228 0.0498
-3 20 3 1.1295 -0.0906
-3 20 4 -12.4222 0.2269
-3 20 5 -8.2455 0.0127
-3 20 6 16.7766 0.1367
-3 20 7 -10.2241 0.5006
-3 20 8 1.4205 0.2346
-3 20 9 7.5770 -0.1790
-3 20 10 5.6451 0.0712
-3 20 11 6.8752 -0.1859
-3 20 12 14.6715 0.0887
-3 21 1 -13.2308 -0.0134
-3 21 2 -16.3699 -0.1670
-3 21 3 0.7989 0.1343
-3 21 4 -7.1945 0.1653
-3 21 5 -8.1428 0.1869
-3 21 6 4.4372 0.0988
-3 21 7 -5.4846 -0.4033
-3 21 8 10.4261 -0.0982
-3 21 9 -4.6976 -0.3101
-3 21 10 2.1107 0.1247
-3 22 1 8.9059 -0.0692
-3 22 2 -0.6510 0.1270
-3 22 3 3.7603 -0.1166
-3 22 4 -1.7279 -0.1226
-3 22 5 8.5509 -0.2668
-3 22 6 -0.0183 0.3897
-3 22 7 0.2832 -0.0255
-3 22 8 -3.6810 0.5454
-3 23 1 5.6039 0.0113
-3 23 2 -5.3730 0.2831
-3 23 3 -2.1495 0.2337
-3 23 4 1.2296 0.0293
-3 23 5 -5.2336 0.2584
-3 23 6 -4.5680 -0.0051
-2 0 4 119.0394 1.9686
-2 0 6 -47.2186 -0.1990
-2 0 8 26.9572 -0.2438
-2 0 10 55.0873 -2.6609
-2 0 12 -17.3389 -2.0042
-2 0 14 1.0877 -0.0866
-2 0 16 -17.3288 0.5587
-2 0 18 10.4274 0.2842
-2 0 20 6.5003 0.4081
-2 1 3 -13.5996 -1.9412
-2 1 4 70.6167 -0.1381
-2 1 5 -28.6921 0.4526
-2 1 6 13.5866 -0.5645
-2 1 7 18.6134 -0.1767
-2 1 8 -11.0792 -0.2777
-2 1 9 -33.6198 -0.0511
-2 1 10 -32.0193 -1.4138
-2 1 11 -4.3168 2.0092
-2 1 12 28.0201 0.1310
-2 1 13 -11.1621 1.2776
-2 1 14 -29.4150 1.1287
-2 1 15 -13.9732 -0.3268
-2 1 16 4.9250 0.0082
-2 1 17 2.6459 0.0671
-2 1 18 22.3397 0.7915
-2 1 19 1.3766 -0.7403
-2 1 20 -1.2051 0.4820
-2 1 21 4.7311 -1.5564
-2 2 2 0.1368 0.6600
-2 2 3 49.8341 -0.0795
-2 2 4 -22.9902 1.0614
-2 2 5 103.6538 -0.2262
-2 2 6 23.0280 -0.5266
-2 2 7 -17.3812 -0.3410
-2 2 8 2.1673 -0.3085
-2 2 9 27.9801 0.7794
-2 2 10 19.6090 -0.3838
-2 2 11 -26.9456 1.7089
-2 2 12 -9.3996 -1.6067
-2 2 13 -18.0853 0.5525
-2 2 14 -11.1851 0.0665
-2 2 15 22.6608 0.3914
-2 2 16 -0.8248 0.3612
-2 2 17 -10.7558 -0.1416
-2 2 18 1.3552 -0.3467
-2 2 19 10.7151 -1.1271
-2 2 20 5.4022 0.5717
-2 2 21 9.2600 -0.5663
-2 3 1 -135.4236 -0.8665
-2 3 2 73.0417 0.1652
-2 3 3 54.7767 -0.2633
-2 3 4 72.5816 0.3827
-2 3 5 16.3995 -0.8306
-2 3 6 37.7059 0.1210
-2 3 7 -49.6253 1.0217
-2 3 8 -20.3882 -0.4974
-2 3 9 -0.6069 0.2506
-2 3 10 -47.7815 -0.3222
-2 3 11 -25.3985 0.7445
-2 3 12 5.5712 -0.0476
-2 3 13 6.8259 1.0942
-2 3 14 -19.9734 0.1757
-2 3 15 -3.9029 -0.0317
-2 3 16 6.3696 0.4186
-2 3 17 -8.8713 -0.3676
-2 3 18 32.8017 0.1510
-2 3 19 1.2748 -0.7675
-2 3 20 8.5278 0.2507
-2 3 21 2.1343 -0.9305
-2 4 1 21.3566 0.6341
-2 4 2 -39.4572 -0.9830
-2 4 3 6.4469 0.3549
-2 4 4 -91.4657 -0.3628
-2 4 5 -18.4636 -0.5853
-2 4 6 63.2270 0.0972
-2 4 7 3.0536 0.0549
-2 4 8 7.4353 -0.3548
-2 4 9 32.3324 0.6016
-2 4 10 -38.9482 0.5193
-2 4 11 3.5959 0.3152
-2 4 12 11.3513 0.4404
-2 4 13 -20.7559 0.9049
-2 4 14 -7.0500 -0.4099
-2 4 15 -5.8310 -0.1240
-2 4 16 -6.8728 -0.2529
-2 4 17 14.0111 -0.2550
-2 4 18 -1.5494 0.2254
-2 4 19 6.6492 -0.1983
-2 4 20 -1.2808 0.5589
-2 4 21 13.5677 -0.7586
-2 5 1 -94.7217 -0.2657
-2 5 2 -85.9024 -0.6193
-2 5 3 21.7176 0.0956
-2 5 4 -42.6755 -0.1301
-2 5 5 52.2292 -0.2868
-2 5 6 20.3251 0.2336
-2 5 7 -7.8605 0.1545
-2 5 8 -2.3769 -0.1589
-2 5 9 27.5563 0.6756
-2 5 10 -30.7690 0.3178
-2 5 11 11.3994 -0.3622
-2 5 12 -39.2984 -0.0246
-2 5 13 -18.9967 -0.0301
-2 5 14 5.1125 -0.4093
-2 5 15 12.7041 0.8012
-2 5 16 8.3289 -0.0389
-2 5 17 -3.7478 -0.3712
-2 5 18 14.3067 -0.4480
-2 5 19 -6.4870 -0.2261
-2 5 20 5.4551 0.1868
-2 5 21 4.2582 0.2978
-2 6 1 -13.6181 -0.0326
-2 6 2 11.9135 0.1256
-2 6 3 -38.9135 -0.0120
-2 6 4 35.4783 -0.1270
-2 6 5 -17.8882 -0.0186
-2 6 6 -2.9543 0.3945
-2 6 7 4.1429 -0.0693
-2 6 8 23.1908 0.1738
-2 6 9 10.7138 0.1065
-2 6 10 -22.2008 0.0615
-2 6 11 1.9731 -0.1358
-2 6 12 9.8315 0.7506
-2 6 13 4.3575 -0.1842
-2 6 14 5.2762 -0.6265
-2 6 15 -2.3000 -0.0749
-2 6 16 0.9593 -0.4718
-2 6 17 0.3458 -0.0301
-2 6 18 -0.5516 0.5442
-2 6 19 6.2480 0.1276
-2 6 20 -4.9664 0.0353
-2 6 21 7.1460 -0.3602
-2 7 1 53.0014 0.2102
-2 7 2 12.5240 0.1607
-2 7 3 -16.6166 -0.0411
-2 7 4 -16.9867 -0.2412
-2 7 5 12.0999 0.1154
-2 7 6 -18.6955 -0.2707
-2 7 7 47.3553 -0.1662
-2 7 8 -0.5151 -0.0732
-2 7 9 25.6607 0.2840
-2 7 10 -1.6687 -0.4272
-2 7 11 25.9592 -0.2226
-2 7 12 -11.6173 0.0342
-2 7 13 7.1048 -0.2620
-2 7 14 -14.6273 0.1011
-2 7 15 -5.5098 0.3128
-2 7 16 11.1240 -0.3519
-2 7 17 6.1756 -0.1334
-2 7 18 -3.7383 -0.0223
-2 7 19 7.2904 0.1091
-2 7 20 -1.0378 0.0223
-2 8 1 16.2701 -0.0107
-2 8 2 43.7626 -0.4234
-2 8 3 25.8411 -0.2687
-2 8 4 30.0745 -0.1906
-2 8 5 46.6633 0.2069
-2 8 6 -49.6848 0.0164
-2 8 7 24.8042 0.1226
-2 8 8 -12.9257 0.1449
-2 8 9 -21.8776 -0.0832
-2 8 10 16.7553 0.0790
-2 8 11 -11.4655 0.1876
-2 8 12 -14.7847 -0.0447
-2 8 13 25.3833 -0.4516
-2 8 14 14.7808 -0.2295
-2 8 15 1.8910 -0.0546
-2 8 16 30.2972 -0.1737
-2 8 17 -6.0585 -0.2361
-2 8 18 -3.5443 -0.0617
-2 8 19 3.4077 -0.0350
-2 8 20 -1.6136 -0.1245
-2 9 1 4.9730 -0.1771
-2 9 2 8.7846 -0.0244
-2 9 3 -19.1989 0.0735
-2 9 4 28.7551 0.3979
-2 9 5 -13.3537 -0.0631
-2 9 6 -18.6704 -0.1072
-2 9 7 -2.8788 0.1445
-2 9 8 -8.6792 0.0542
-2 9 9 -24.5709 0.0716
-2 9 10 34.0987 -0.1847
-2 9 11 14.2439 0.1177
-2 9 12 9.7019 -0.2463
-2 9 13 24.0891 0.0546
-2 9 14 5.8370 -0.1469
-2 9 15 -3.8504 -0.2171
-2 9 16 2.9461 -0.0949
-2 9 17 4.9444 0.0905
-2 9 18 -15.4765 0.2200
-2 9 19 0.0738 0.2040
-2 9 20 -6.0810 0.3066
-2 10 1 -7.1602 0.1352
-2 10 2 25.4323 -0.0988
-2 10 3 37.2879 -0.0532
-2 10 4 -9.7718 -0.2284
-2 10 5 -18.3693 0.0673
-2 10 6 -38.5779 -0.2074
-2 10 7 9.8342 0.4009
-2 10 8 -12.4894 -0.1995
-2 10 9 -17.2631 0.0048
-2 10 10 -22.6961 -0.0824
-2 10 11 8.6710 -0.0538
-2 10 12 -3.9786 -0.3927
-2 10 13 8.3915 0.0704
-2 10 14 26.0282 -0.1145
-2 10 15 -2.2575 -0.1929
-2 10 16 1.4419 -0.0486
-2 10 17 2.5261 -0.0280
-2 10 18 7.0849 0.3356
-2 10 19 -0.7132 0.0234
-2 11 1 -20.8247 0.0359
-2 11 2 -46.6105 -0.1405
-2 11 3 -16.8723 0.1096
-2 11 4 -45.8822 0.0572
-2 11 5 11.8948 0.1989
-2 11 6 -16.2627 -0.0756
-2 11 7 -32.6833 0.0525
-2 11 8 5.2120 -0.0788
-2 11 9 -27.8488 -0.0833
-2 11 10 19.2318 0.0857
-2 11 11 6.1688 0.0082
-2 11 12 13.8402 -0.2779
-2 11 13 -18.5874 -0.0054
-2 11 14 19.0816 -0.0287
-2 11 15 17.5503 0.1312
-2 11 16 -1.2980 0.4397
-2 11 17 3.2070 0.2052
-2 11 18 -11.0762 0.0450
-2 11 19 -10.4601 0.0306
-2 12 1 -30.8884 -0.0202
-2 12 2 19.1234 0.1642
-2 12 3 -45.8064 0.0265
-2 12 4 15.0357 -0.0294
-2 12 5 -31.5998 0.0886
-2 12 6 11.5406 -0.1831
-2 12 7 -31.1004 0.1101
-2 12 8 7.4083 0.0258
-2 12 9 -0.5553 -0.0756
-2 12 10 -11.2976 -0.0901
-2 12 11 13.2974 -0.1827
-2 12 12 18.1224 -0.2068
-2 12 13 -5.0902 0.0244
-2 12 14 8.1152 -0.0416
-2 12 15 -0.1095 -0.0198
-2 12 16 -18.0830 -0.0728
-2 12 17 -4.5526 0.3891
-2 12 18 4.7009 0.0404
-2 13 1 -12.1949 0.2236
-2 13 2 20.8123 -0.0475
-2 13 3 -1.4611 0.0208
-2 13 4 -33.8495 -0.0595
-2 13 5 -0.6975 0.1118
-2 13 6 -24.8611 -0.1082
-2 13 7 12.0552 -0.0057
-2 13 8 19.7248 -0.0526
-2 13 9 13.0669 -0.3214
-2 13 10 8.7290 -0.0804
-2 13 11 -5.7183 -0.1418
-2 13 12 7.0474 -0.0804
-2 13 13 -7.8721 -0.0727
-2 13 14 1.2233 0.0856
-2 13 15 0.3352 0.0293
-2 13 16 -9.8244 0.2566
-2 13 17 0.2908 0.5123
-2 13 18 0.8601 0.2413
-2 14 1 4.4428 0.1139
-2 14 2 -2.4650 -0.0869
-2 14 3 -44.2302 0.0314
-2 14 4 -2.0838 0.0197
-2 14 5 4.6206 0.0199
-2 14 6 26.5474 -0.0674
-2 14 7 -1.7611 0.0841
-2 14 8 13.6229 0.0922
-2 14 9 -6.5310 0.1089
-2 14 10 43.0130 0.0789
-2 14 11 12.0306 0.0438
-2 14 12 2.8003 -0.1631
-2 14 13 0.8778 -0.1723
-2 14 14 -14.6491 0.0761
-2 14 15 -3.2972 0.1456
-2 14 16 -0.1667 0.1934
-2 14 17 -4.2881 0.0897
-2 15 1 -17.2802 0.0071
-2 15 2 24.2716 -0.0769
-2 15 3 -0.5607 0.0525
-2 15 4 39.0702 0.1408
-2 15 5 -15.9738 0.0133
-2 15 6 4.4897 0.0717
-2 15 7 16.5535 -0.0845
-2 15 8 8.4413 -0.0892
-2 15 9 6.6923 -0.1929
-2 15 10 7.8197 -0.0042
-2 15 11 -7.4358 -0.0188
-2 15 12 -1.5141 0.2506
-2 15 13 11.2746 0.0925
-2 15 14 -1.8723 -0.0520
-2 15 15 -11.5098 -0.2616
-2 15 16 -4.9774 -0.2308
-2 15 17 -12.6671 -0.1682
-2 16 1 9.0988 -0.0756
-2 16 2 -27.1177 0.0500
-2 16 3 15.4663 0.0751
-2 16 4 -17.8107 -0.1675
-2 16 5 -12.7006 0.0142
-2 16 6 8.6548 -0.1088
-2 16 7 5.8163 0.1396
-2 16 8 8.7067 -0.0754
-2 16 9 2.7585 0.0909
-2 16 10 11.4741 0.1077
-2 16 11 -7.1510 0.0181
-2 16 12 -11.1997 0.1822
-2 16 13 -3.0193 0.0594
-2 16 14 -16.9896 0.0357
-2 16 15 -6.8190 -0.0300
-2 16 16 5.7188 0.1007
-2 17 1 -5.4999 0.1338
-2 17 2 -18.4787 -0.0110
-2 17 3 7.0564 0.2954
-2 17 4 16.8666 -0.0518
-2 17 5 3.8474 0.1459
-2 17 6 32.1751 0.1409
-2 17 7 -9.7075 -0.0537
-2 17 8 -14.5685 -0.1136
-2 17 9 -11.2338 -0.1270
-2 17 10 -10.9285 -0.0078
-2 17 11 -16.7896 -0.0446
-2 17 12 -4.5934 0.1400
-2 17 13 -3.4220 -0.1084
-2 17 14 -7.0330 -0.0934
-2 17 15 -1.6487 -0.1822
-2 18 1 -8.0482 -0.0415
-2 18 2 -18.1427 -0.0259
-2 18 3 33.6555 -0.0354
-2 18 4 -5.4084 -0.1407
-2 18 5 -6.4599 -0.1055
-2 18 6 7.8537 -0.1936
-2 18 7 -12.7821 -0.3220
-2 18 8 -1.6943 -0.0446
-2 18 9 -7.9941 -0.0561
-2 18 10 -17.3992 0.0741
-2 18 11 -33.0017 -0.2374
-2 18 12 -6.6980 0.2047
-2 18 13 -9.9762 0.0692
-2 18 14 -6.4371 0.5760
-2 19 1 23.3615 0.1466
-2 19 2 0.4283 -0.0487
-2 19 3 14.1302 0.0029
-2 19 4 -3.8876 -0.4272
-2 19 5 10.3748 -0.1190
-2 19 6 10.2790 0.1842
-2 19 7 -13.2356 -0.0002
-2 19 8 -9.4257 0.4549
-2 19 9 -6.6226 -0.0959
-2 19 10 -9.0270 0.0369
-2 19 11 -5.2238 0.0230
-2 19 12 -9.2404 0.0889
-2 19 13 -3.0250 -0.0279
-2 20 1 1.4157 -0.0376
-2 20 2 0.5440 -0.1518
-2 20 3 8.8870 0.0829
-2 20 4 -2.8327 0.0832
-2 20 5 13.4350 -0.0730
-2 20 6 -3.9814 0.1949
-2 20 7 -1.0865 -0.5963
-2 20 8 11.8846 0.0308
-2 20 9 -18.3225 0.3666
-2 20 10 -1.0493 0.1412
-2 20 11 -12.4507 0.2008
-2 20 12 -4.1251 0.0831
-2 21 1 20.2678 -0.1446
-2 21 2 16.8738 0.0013
-2 21 3 0.0409 -0.1044
-2 21 4 9.2249 -0.4783
-2 21 5 10.0222 -0.1342
-2 21 6 -11.0059 0.2817
-2 21 7 0.2801 -0.1715
-2 21 8 -4.4762 0.3757
-2 21 9 -0.5703 0.1986
-2 21 10 -3.7772 -0.0110
-2 22 1 5.9578 -0.0281
-2 22 2 5.7223 -0.1733
-2 22 3 -6.7586 0.1868
-2 22 4 -1.4147 0.0771
-2 22 5 3.9766 0.1458
-2 22 6 -13.4837 0.5983
-2 22 7 1.3596 -0.2053
-2 22 8 5.5648 0.3364
-2 23 1 -6.5148 -0.0805
-2 23 2 -2.2254 0.1500
-2 23 3 -5.2490 0.0578
-2 23 4 -1.9914 0.2546
-2 23 5 2.3352 0.1860
-2 23 6 -7.3872 0.0434
-1 0 4 -43.8760 0.2067
-1 0 6 20.8153 0.4488
-1 0 8 8.6364 -0.9249
-1 0 10 1.8603 -2.0989
-1 0 12 56.8027 -0.6642
-1 0 14 -34.3639 -0.4494
-1 0 16 0.2966 0.0091
-1 0 18 -8.3937 1.6232
-1 0 20 -7.2741 1.3311
-1 1 3 -117.9162 -0.5353
-1 1 4 -97.4244 0.7441
-1 1 5 -3.3501 -0.5249
-1 1 6 75.8218 -1.0199
-1 1 7 20.3014 0.6375
-1 1 8 5.5676 -0.1408
-1 1 9 69.9264 0.1940
-1 1 10 1.6812 -0.0120
-1 1 11 9.4830 -0.0544
-1 1 12 -8.0848 -1.0061
-1 1 13 15.1655 -0.2124
-1 1 14 -11.8924 0.1749
-1 1 15 6.7949 -0.4185
-1 1 16 5.9344 0.5636
-1 1 17 -29.3857 -0.1794
-1 1 18 -8.5691 0.9913
-1 1 19 -12.9709 -0.3399
-1 1 20 0.1081 0.7019
-1 1 21 0.5455 0.1257
-1 2 3 48.3015 1.7057
-1 2 4 12.2169 0.4272
-1 2 5 -30.4202 -0.2916
-1 2 6 10.3567 -0.3545
-1 2 7 16.8556 0.3259
-1 2 8 8.4187 -0.6551
-1 2 9 65.3354 -1.8288
-1 2 10 -5.9953 0.2192
-1 2 11 -10.4781 -1.5165
-1 2 12 2.9732 -0.6818
-1 2 13 -2.2332 0.0606
-1 2 14 1.9523 0.3781
-1 2 15 -11.2716 0.3944
-1 2 16 -11.5314 0.6124
-1 2 17 -14.6828 -0.0813
-1 2 18 -9.3141 0.0289
-1 2 19 6.7428 0.2049
-1 2 20 -4.4908 0.5033
-1 2 21 4.2127 -0.2927
-1 3 1 108.3441 1.2943
-1 3 2 -63.9209 -1.1247
-1 3 3 52.8479 0.3337
-1 3 4 -65.6593 -0.0482
-1 3 5 -25.3630 -0.4925
-1 3 6 45.9885 0.0401
-1 3 7 5.8745 -0.0266
-1 3 8 6.8082 -0.3376
-1 3 9 3.6862 -0.7924
-1 3 10 -23.7508 1.2915
-1 3 11 35.6037 -0.1251
-1 3 12 2.7775 0.7907
-1 3 13 -12.7552 0.9747
-1 3 14 -6.7430 -0.6540
-1 3 15 -17.0010 0.0710
-1 3 16 -4.5303 0.2839
-1 3 17 9.9370 0.6997
-1 3 18 -6.5793 0.0424
-1 3 19 -0.3949 -0.1078
-1 3 20 -1.3720 -0.7336
-1 3 21 1.4608 -0.8840
-1 4 1 -33.0377 -0.2046
-1 4 2 61.8373 0.0994
-1 4 3 -30.9203 0.6081
-1 4 4 10.7500 -0.0843
-1 4 5 16.7276 -0.3610
-1 4 6 -25.8959 -0.1979
-1 4 7 15.6519 -0.5340
-1 4 8 -2.5617 0.2061
-1 4 9 12.6274 -0.4634
-1 4 10 2.3268 1.0236
-1 4 11 18.6984 -1.4449
-1 4 12 -32.0251 0.3206
-1 4 13 -16.5937 0.2413
-1 4 14 12.9745 0.3518
-1 4 15 -0.9946 0.5735
-1 4 16 -0.8669 0.0448
-1 4 17 -5.1039 -0.4625
-1 4 18 -4.2527 -0.5056
-1 4 19 -3.1965 0.4207
-1 4 20 -6.6571 -0.3119
-1 4 21 4.8641 0.4959
-1 5 1 37.0925 0.0580
-1 5 2 75.2799 0.0241
-1 5 3 32.6765 0.4600
-1 5 4 100.1023 -0.4336
-1 5 5 0.3381 0.3285
-1 5 6 -63.4126 0.5714
-1 5 7 -12.6468 -0.0978
-1 5 8 -11.8849 0.1724
-1 5 9 -40.6120 0.0048
-1 5 10 -17.0155 0.6849
-1 5 11 -10.4110 0.0341
-1 5 12 -4.8892 0.9468
-1 5 13 20.1213 -0.0373
-1 5 14 5.2497 -0.1327
-1 5 15 3.6861 0.4330
-1 5 16 -5.8086 -0.1200
-1 5 17 13.2965 0.1078
-1 5 18 -1.9530 -0.2089
-1 5 19 12.7007 0.0355
-1 5 20 3.8958 -0.6454
-1 5 21 -0.2774 -0.4315
-1 6 1 49.2502 0.2896
-1 6 2 30.1695 0.3743
-1 6 3 -35.7308 0.1276
-1 6 4 -30.1329 -0.3530
-1 6 5 24.0707 0.1378
-1 6 6 -54.9223 -0.1333
-1 6 7 33.8592 -0.4165
-1 6 8 -33.7165 0.3906
-1 6 9 -24.8412 -0.0135
-1 6 10 28.3352 0.1056
-1 6 11 19.0997 -0.0611
-1 6 12 -4.8145 0.6167
-1 6 13 0.5782 -0.1015
-1 6 14 -1.6437 0.1669
-1 6 15 -23.3953 -0.0044
-1 6 16 17.9524 -0.0674
-1 6 17 2.8702 0.3220
-1 6 18 -6.2429 0.0184
-1 6 19 -2.2696 0.1686
-1 6 20 -0.8966 -0.4867
-1 7 1 -55.8467 -0.2069
-1 7 2 28.4677 -0.2454
-1 7 3 -11.2659 -0.3788
-1 7 4 41.9006 -0.0882
-1 7 5 4.1587 0.0676
-1 7 6 -13.4171 0.1839
-1 7 7 3.2025 -0.1048
-1 7 8 5.6760 0.4791
-1 7 9 -65.6802 0.0286
-1 7 10 20.9738 0.1078
-1 7 11 -42.3330 0.2635
-1 7 12 -25.7969 0.0695
-1 7 13 19.1135 -0.1034
-1 7 14 2.6672 0.6727
-1 7 15 6.0961 0.0212
-1 7 16 -3.1578 -0.1142
-1 7 17 13.5940 -0.2328
-1 7 18 1.2584 -0.3329
-1 7 19 10.2322 -0.1542
-1 7 20 3.5870 -0.1805
-1 8 1 -34.8612 0.3339
-1 8 2 -24.4951 -0.0038
-1 8 3 -13.1601 0.3585
-1 8 4 27.7385 0.0599
-1 8 5 -6.2911 0.2375
-1 8 6 -3.9650 -0.3199
-1 8 7 12.2615 0.1487
-1 8 8 -21.4345 0.1095
-1 8 9 5.7786 0.0054
-1 8 10 4.9138 0.0797
-1 8 11 -1.6395 0.3457
-1 8 12 -5.0801 -0.0878
-1 8 13 -12.5399 -0.2060
-1 8 14 7.1845 0.1126
-1 8 15 -0.1914 -0.3173
-1 8 16 2.2534 0.0490
-1 8 17 0.5153 0.2093
-1 8 18 -2.7493 -0.1830
-1 8 19 -7.0471 -0.2576
-1 8 20 2.7034 0.0362
-1 9 1 7.4753 0.2561
-1 9 2 -24.6941 -0.2337
-1 9 3 47.5074 -0.0713
-1 9 4 -48.6057 -0.2612
-1 9 5 11.0131 -0.0754
-1 9 6 28.4808 0.0472
-1 9 7 -2.1449 -0.0547
-1 9 8 19.9612 0.2822
-1 9 9 -25.4616 -0.3255
-1 9 10 0.0711 0.0644
-1 9 11 -25.0781 0.0622
-1 9 12 17.8517 -0.0632
-1 9 13 -35.0130 0.2581
-1 9 14 -4.1928 0.3108
-1 9 15 -7.7698 -0.4325
-1 9 16 -17.4998 -0.0047
-1 9 17 9.1589 -0.0604
-1 9 18 17.2072 0.0251
-1 9 19 9.9011 -0.2436
-1 10 1 23.3122 -0.2258
-1 10 2 39.6870 -0.0726
-1 10 3 -6.0676 -0.0161
-1 10 4 25.2612 -0.0646
-1 10 5 -20.2289 0.1074
-1 10 6 54.4467 0.0401
-1 10 7 -33.4109 -0.1675
-1 10 8 24.9936 -0.0057
-1 10 9 12.3741 -0.1377
-1 10 10 -16.0545 0.2079
-1 10 11 -23.3252 0.0128
-1 10 12 -2.3505 -0.0988
-1 10 13 -17.2530 -0.2277
-1 10 14 -3.7269 0.0403
-1 10 15 31.0824 -0.1183
-1 10 16 -3.3376 0.0085
-1 10 17 3.7282 -0.1881
-1 10 18 5.6939 -0.5011
-1 10 19 -2.9311 -0.2524
-1 11 1 -10.5379 -0.1100
-1 11 2 15.9084 -0.1009
-1 11 3 -7.9006 0.2865
-1 11 4 -0.1856 -0.1918
-1 11 5 16.1715 0.0837
-1 11 6 2.3467 0.0681
-1 11 7 -11.7030 0.0419
-1 11 8 -26.1047 0.4740
-1 11 9 23.0367 0.0481
-1 11 10 0.9138 0.2668
-1 11 11 -7.9305 -0.0695
-1 11 12 29.6063 0.2522
-1 11 13 -20.4380 -0.0069
-1 11 14 -6.4129 0.0393
-1 11 15 -2.5092 -0.1797
-1 11 16 -5.4370 -0.1857
-1 11 17 -1.5091 -0.1879
-1 11 18 4.5060 -0.1538
-1 11 19 -0.3948 0.0253
-1 12 1 59.1505 0.0850
-1 12 2 17.0537 -0.1178
-1 12 3 37.2498 -0.1000
-1 12 4 -14.4162 -0.0216
-1 12 5 -14.9920 0.0287
-1 12 6 8.7467 0.1913
-1 12 7 -15.8922 -0.2284
-1 12 8 20.7717 -0.0042
-1 12 9 -23.4650 -0.2463
-1 12 10 3.3158 0.0314
-1 12 11 -20.8594 -0.0996
-1 12 12 6.6914 0.1619
-1 12 13 23.1380 -0.4459
-1 12 14 -1.7535 -0.2270
-1 12 15 7.4832 -0.5249
-1 12 16 -4.1977 -0.3083
-1 12 17 3.3159 -0.0437
-1 12 18 3.9999 0.0221
-1 13 1 -18.1916 -0.0201
-1 13 2 5.0131 -0.0173
-1 13 3 -61.8327 0.0077
-1 13 4 20.8282 0.1531
-1 13 5 -26.2386 -0.1003
-1 13 6 -2.4674 0.1403
-1 13 7 0.2607 -0.0545
-1 13 8 -22.7410 0.2175
-1 13 9 7.1303 0.0900
-1 13 10 12.6344 0.1407
-1 13 11 5.3021 -0.0932
-1 13 12 -7.7585 0.1421
-1 13 13 6.8543 -0.1405
-1 13 14 0.9846 0.2687
-1 13 15 3.1881 0.2224
-1 13 16 13.6374 0.0649
-1 13 17 0.6915 -0.1604
-1 13 18 -10.5868 -0.2329
-1 14 1 9.5919 0.0273
-1 14 2 -50.2463 0.0522
-1 14 3 33.7158 0.0302
-1 14 4 11.3310 0.0380
-1 14 5 5.6459 -0.0868
-1 14 6 -15.9439 -0.0361
-1 14 7 -3.8759 -0.0541
-1 14 8 -18.8878 -0.0933
-1 14 9 -15.3946 -0.1477
-1 14 10 -1.0558 -0.0690
-1 14 11 -0.6676 -0.2183
-1 14 12 7.9051 0.1012
-1 14 13 22.7427 -0.2313
-1 14 14 5.4616 -0.0326
-1 14 15 -0.4429 -0.4219
-1 14 16 -5.0149 -0.1259
-1 14 17 -5.9167 -0.5485
-1 15 1 30.9264 -0.0537
-1 15 2 -27.3513 -0.1458
-1 15 3 9.3082 0.1016
-1 15 4 -17.9797 -0.1339
-1 15 5 -36.5304 0.0405
-1 15 6 7.0838 0.0238
-1 15 7 2.8636 -0.0397
-1 15 8 9.2834 -0.0927
-1 15 9 13.3956 -0.0965
-1 15 10 -6.8752 -0.0684
-1 15 11 5.2345 -0.2399
-1 15 12 -5.1176 0.0963
-1 15 13 5.9483 0.0165
-1 15 14 -2.7066 0.3345
-1 15 15 -5.2375 0.1130
-1 15 16 8.5889 0.5279
-1 16 1 -0.2827 0.0717
-1 16 2 -18.1073 0.1453
-1 16 3 -0.1817 0.0609
-1 16 4 5.3549 0.0238
-1 16 5 12.2776 -0.0337
-1 16 6 11.3576 0.2911
-1 16 7 -1.6364 0.0112
-1 16 8 -14.3083 0.1026
-1 16 9 16.6382 -0.0804
-1 16 10 9.1871 0.0596
-1 16 11 2.3948 -0.2620
-1 16 12 8.0806 0.0264
-1 16 13 -4.6141 -0.3315
-1 16 14 -2.2420 0.0379
-1 16 15 4.3930 -0.0920
-1 16 16 -2.4492 0.3962
-1 17 1 13.9715 -0.0256
-1 17 2 -15.3104 -0.0178
-1 17 3 22.4450 0.2392
-1 17 4 -15.7501 0.0334
-1 17 5 2.1893 0.1279
-1 17 6 1.0173 -0.0575
-1 17 7 8.8430 -0.2964
-1 17 8 11.3961 0.1800
-1 17 9 16.2260 -0.0725
-1 17 10 -2.0547 0.0995
-1 17 11 8.9833 -0.3334
-1 17 12 7.3578 0.0145
-1 17 13 8.1967 0.0092
-1 17 14 -1.7013 0.3565
-1 17 15 -1.2506 0.0192
-1 18 1 8.5014 0.3077
-1 18 2 15.9533 0.0202
-1 18 3 -14.5229 -0.0965
-1 18 4 -15.7294 0.0605
-1 18 5 10.0810 -0.1561
-1 18 6 -8.8610 0.3649
-1 18 7 8.5411 -0.0933
-1 18 8 12.7251 0.1103
-1 18 9 15.5878 -0.0615
-1 18 10 14.2198 -0.0618
-1 18 11 14.2705 0.1589
-1 18 12 -0.1329 0.0995
-1 18 13 -2.7448 -0.1369
-1 18 14 -1.2600 -0.1863
-1 19 1 -15.1340 -0.0371
-1 19 2 2.2348 0.1504
-1 19 3 -22.6238 0.1489
-1 19 4 1.4526 0.2912
-1 19 5 13.3256 0.0726
-1 19 6 -8.2278 0.0664
-1 19 7 7.7033 -0.2873
-1 19 8 10.5129 -0.1027
-1 19 9 -3.0418 -0.0517
-1 19 10 6.1783 0.1746
-1 19 11 11.4818 -0.1164
-1 19 12 4.7495 0.2263
-1 19 13 2.8933 -0.3706
-1 20 1 -14.3568 0.2570
-1 20 2 8.4103 -0.0018
-1 20 3 -16.7524 0.0199
-1 20 4 2.1894 -0.1038
-1 20 5 9.1603 -0.3725
-1 20 6 -16.6587 -0.0052
-1 20 7 15.6180 -0.4503
-1 20 8 -2.8323 -0.0009
-1 20 9 11.3944 -0.1732
-1 20 10 -10.4897 -0.2670
-1 20 11 10.0005 -0.0937
-1 21 1 1.6953 -0.0986
-1 21 2 5.0675 -0.1241
-1 21 3 -4.5239 -0.3617
-1 21 4 4.1363 -0.0823
-1 21 5 1.2595 -0.0665
-1 21 6 0.6977 -0.0569
-1 21 7 -3.9408 0.3417
-1 21 8 -0.2541 -0.1502
-1 21 9 -4.9050 0.0636
-1 21 10 2.1784 -0.1238
-1 22 1 -19.0062 0.0855
-1 22 2 -0.8224 0.0111
-1 22 3 -4.3097 0.0410
-1 22 4 5.0038 -0.0314
-1 22 5 -5.3990 0.1026
-1 22 6 -0.2233 -0.4634
-1 22 7 15.0085 0.0019
-1 22 8 -9.8829 -0.0192
-1 23 1 11.4237 0.0102
-1 23 2 3.0573 -0.1516
-1 23 3 12.8213 -0.4998
-1 23 4 6.2473 -0.1670
-1 23 5 0.2600 -0.1393
-1 23 6 11.8451 -0.2853
0 0 4 -69.2691 0.0632
0 0 6 -0.8094 -0.0323
0 0 8 -115.5450 2.8526
0 0 10 -18.2739 2.6685
0 0 12 -6.5341 0.2338
0 0 14 15.5368 -0.4230
0 0 16 34.0442 -0.2489
0 0 18 4.6183 -0.9406
0 0 20 -11.8905 -1.0023
0 1 3 142.8991 0.7777
0 1 4 -5.9750 0.3534
0 1 5 -100.6264 -0.1577
0 1 6 -29.7735 0.1848
0 1 7 -64.4255 -0.0668
0 1 8 17.5629 1.2067
0 1 9 -5.6457 -1.9426
0 1 10 11.4711 0.6404
0 1 11 -7.3526 -1.6200
0 1 12 4.3354 -1.2923
0 1 13 16.4264 0.2639
0 1 14 30.9649 -0.1528
0 1 15 9.0209 -0.1319
0 1 16 -13.2042 -1.0429
0 1 17 1.2518 0.4266
0 1 18 -8.7524 -0.7680
0 1 19 10.8664 1.7640
0 1 20 -5.4438 0.7848
0 1 21 -5.2679 0.5293
0 2 2 50.2428 -0.3586
0 2 3 23.6679 0.0836
0 2 4 1.9241 0.1221
0 2 5 -5.3274 0.5362
0 2 6 -25.2931 0.8841
0 2 7 -26.7340 -0.7036
0 2 8 -22.5101 0.3991
0 2 9 -18.4195 -1.7129
0 2 10 -18.2865 1.5658
0 2 11 52.1434 -0.7235
0 2 12 15.8022 0.0979
0 2 13 -6.6821 -0.2957
0 2 14 13.8928 -0.7112
0 2 15 -13.4246 -0.1124
0 2 16 7.0821 0.3940
0 2 17 11.6821 1.2474
0 2 18 7.8570 -0.7690
0 2 19 2.5635 0.9110
0 2 20 -3.7605 -0.7329
0 2 21 0.4974 0.1936
0 3 1 -47.6001 -0.6499
0 3 2 28.1448 -0.4488
0 3 3 -128.0716 0.4139
0 3 4 -41.7761 -0.6571
0 3 5 65.5521 -0.5571
0 3 6 -20.8200 0.3563
0 3 7 26.4469 -0.6149
0 3 8 33.3688 0.2513
0 3 9 -0.4421 -0.4684
0 3 10 47.3873 -0.0061
0 3 11 23.4008 -1.4669
0 3 12 -4.4472 -0.0619
0 3 13 0.4409 -0.1204
0 3 14 2.2384 -0.3702
0 3 15 14.2499 0.2669
0 3 16 -14.3178 -0.2633
0 3 17 -2.6468 0.7847
0 3 18 -9.0372 -0.5122
0 3 19 -9.9496 1.1709
0 3 20 -0.3895 -0.2103
0 3 21 15.4956 0.7445
0 4 0 -261.2129 -0.7343
0 4 1 -65.4328 -0.7211
0 4 2 -7.9047 0.7423
0 4 3 -10.3018 0.3829
0 4 4 62.4368 -0.1717
0 4 5 32.8037 0.1218
0 4 6 -15.8362 0.6853
0 4 7 27.8229 -0.6204
0 4 8 53.8332 -0.6071
0 4 9 -12.1111 -0.1503
0 4 10 0.4466 -0.6205
0 4 11 -25.9732 -0.7388
0 4 12 1.6479 0.3352
0 4 13 4.9118 -0.1444
0 4 14 3.2785 0.1263
0 4 15 -20.0236 0.5659
0 4 16 -9.2225 -0.3234
0 4 17 -3.7099 0.1015
0 4 18 5.9992 -0.0091
0 4 19 6.2045 0.6343
0 4 20 3.7148 -0.2726
0 5 1 -17.7295 -0.0642
0 5 2 -3.8220 0.5195
0 5 3 -60.6275 -0.1127
0 5 4 -39.8851 -0.1951
0 5 5 59.7035 -0.0856
0 5 6 13.1444 0.1082
0 5 7 43.2978 -0.7829
0 5 8 27.2591 -0.1639
0 5 9 -6.2238 0.3540
0 5 10 54.1386 -0.4092
0 5 11 5.1432 0.1246
0 5 12 -7.9961 0.5155
0 5 13 -7.4393 -0.7718
0 5 14 -24.1207 0.0523
0 5 15 -8.8887 0.0473
0 5 16 -5.0696 0.4304
0 5 17 0.2670 0.3749
0 5 18 -10.2311 -0.2324
0 5 19 -0.7897 -0.1604
0 5 20 10.5156 -0.6376
0 6 0 -37.9065 -0.5133
0 6 1 -27.6691 0.0785
0 6 2 -29.3001 -0.1805
0 6 3 -42.8925 -0.1855
0 6 4 6.9506 -0.2903
0 6 5 -6.6519 0.0550
0 6 6 45.4171 -0.2889
0 6 7 24.6872 -0.0863
0 6 8 26.2551 -0.2212
0 6 9 -4.2737 0.2536
0 6 10 6.3006 -0.8042
0 6 11 -21.1395 0.2018
0 6 12 -22.0092 0.3754
0 6 13 -2.3061 0.0574
0 6 14 -22.5013 0.6438
0 6 15 -8.1026 0.0558
0 6 16 -8.1394 -0.3376
0 6 17 -4.2283 0.0593
0 6 18 10.6436 0.1210
0 6 19 -6.8944 0.0178
0 6 20 -0.4818 0.2032
0 7 1 50.6985 0.2602
0 7 2 -45.8887 0.2692
0 7 3 77.9391 0.1044
0 7 4 -8.2401 0.2223
0 7 5 -0.4208 0.0535
0 7 6 5.3941 -0.0623
0 7 7 -0.6195 -0.2265
0 7 8 8.0130 0.2677
0 7 9 25.6789 0.2120
0 7 10 -4.9813 0.0616
0 7 11 -30.7783 0.4291
0 7 12 31.1761 -0.1582
0 7 13 -26.4899 -0.2761
0 7 14 20.7298 0.2742
0 7 15 6.0016 -0.1291
0 7 16 0.4467 0.0630
0 7 17 -5.1292 -0.2250
0 7 18 -6.2684 -0.0073
0 7 19 9.1730 -0.0789
0 7 20 3.3534 0.3009
0 8 0 -10.7923 0.3142
0 8 1 22.0138 0.0471
0 8 2 -37.8696 0.1459
0 8 3 6.6932 -0.1058
0 8 4 -27.8372 -0.0001
0 8 5 -38.7493 -0.0692
0 8 6 60.2603 0.0136
0 8 7 -61.3252 0.1066
0 8 8 17.6225 0.0650
0 8 9 16.6153 -0.0292
0 8 10 9.2203 -0.0811
0 8 11 22.2093 0.3011
0 8 12 21.0535 0.1300
0 8 13 -6.7862 0.1294
0 8 14 -34.6601 0.2086
0 8 15 10.5853 -0.1338
0 8 16 -13.3222 0.4501
0 8 17 -3.2326 0.3199
0 8 18 4.4021 0.3679
0 8 19 -6.7791 0.1140
0 9 1 18.6900 -0.0974
0 9 2 34.2194 -0.2155
0 9 3 8.3691 0.0522
0 9 4 7.7348 -0.1690
0 9 5 0.0262 0.0533
0 9 6 14.3289 -0.0929
0 9 7 7.0866 -0.0761
0 9 8 -20.4449 -0.0362
0 9 9 35.5346 -0.0984
0 9 10 -37.6380 0.2923
0 9 11 -17.7943 -0.0799
0 9 12 25.1448 0.0362
0 9 13 5.4144 0.0684
0 9 14 12.8976 -0.0822
0 9 15 9.4324 0.0559
0 9 16 9.3302 -0.0192
0 9 17 -7.5543 -0.1625
0 9 18 6.2691 -0.0896
0 9 19 5.0837 0.0839
0 10 0 -82.9649 0.0139
0 10 1 8.8030 -0.0185
0 10 2 -50.3319 0.3095
0 10 3 35.7213 0.0827
0 10 4 -4.4088 0.1310
0 10 5 10.6750 -0.2277
0 10 6 1.9408 0.1167
0 10 7 -28.6737 0.1390
0 10 8 8.9215 0.2416
0 10 9 7.1972 0.1690
0 10 10 24.0779 0.1664
0 10 11 -0.4913 -0.1199
0 10 12 9.8210 0.1993
0 10 13 1.2394 0.1835
0 10 14 -4.3070 0.1796
0 10 15 7.1106 0.1614
0 10 16 4.7636 0.2489
0 10 17 -1.5668 -0.1934
0 10 18 -13.0620 0.0414
0 10 19 -11.6125 0.1349
0 11 1 3.9623 -0.0236
0 11 2 30.2389 -0.0075
0 11 3 -2.0122 -0.3719
0 11 4 43.8338 0.0721
0 11 5 -3.5281 -0.0982
0 11 6 7.5602 0.0093
0 11 7 3.6026 0.0317
0 11 8 -12.9332 -0.2186
0 11 9 -20.6572 -0.0344
0 11 10 -26.4562 0.1547
0 11 11 18.6010 -0.1013
0 11 12 -25.5569 0.2721
0 11 13 25.5739 -0.1495
0 11 14 -3.9184 -0.2182
0 11 15 -14.7836 -0.1271
0 11 16 1.9452 -0.1651
0 11 17 4.4510 0.1481
0 11 18 10.0759 0.1385
0 12 0 37.1955 -0.1468
0 12 1 34.1503 0.0037
0 12 2 2.4425 0.0349
0 12 3 -4.9626 -0.2228
0 12 4 -9.8018 0.2678
0 12 5 15.2007 -0.0514
0 12 6 -31.3292 -0.0464
0 12 7 39.3457 0.1132
0 12 8 -4.5320 -0.1362
0 12 9 -4.7074 0.1389
0 12 10 -7.4007 -0.0222
0 12 11 -2.1307 -0.0921
0 12 12 -27.1165 0.0040
0 12 13 -3.6263 0.0905
0 12 14 11.0387 0.2732
0 12 15 5.4227 0.3533
0 12 16 17.5594 0.4403
0 12 17 11.7955 -0.0007
0 12 18 -7.3979 0.1372
0 13 1 26.6331 -0.0617
0 13 2 -47.5834 0.1085
0 13 3 39.6819 -0.0443
0 13 4 27.1940 0.0150
0 13 5 3.9405 -0.0242
0 13 6 -6.1372 -0.0356
0 13 7 -27.8734 0.4148
0 13 8 -5.5378 0.0484
0 13 9 -13.5411 0.2041
0 13 10 -15.1970 0.0842
0 13 11 19.6047 0.0085
0 13 12 -23.1909 0.1415
0 13 13 5.0833 0.0380
0 13 14 1.1211 0.1567
0 13 15 -6.8723 -0.1966
0 13 16 5.4923 0.1204
0 13 17 -4.7685 -0.2681
0 14 0 57.5493 -0.0619
0 14 1 15.5786 -0.1836
0 14 2 29.5147 -0.1741
0 14 3 -9.0817 -0.0672
0 14 4 -25.2172 0.1148
0 14 5 -17.9954 -0.0415
0 14 6 -11.6596 0.0149
0 14 7 18.0852 0.0121
0 14 8 -11.1740 -0.0950
0 14 9 8.3856 0.0756
0 14 10 -19.9920 0.0856
0 14 11 12.5086 -0.0911
0 14 12 0.4859 -0.1509
0 14 13 6.4699 -0.1165
0 14 14 2.8858 -0.1638
0 14 15 0.0384 -0.2502
0 14 16 5.2908 0.3112
0 14 17 10.7947 0.2038
0 15 1 -5.3552 -0.1007
0 15 2 -13.2754 0.0039
0 15 3 -2.1848 0.0730
0 15 4 -24.1138 -0.0559
0 15 5 7.6873 0.0874
0 15 6 -8.5639 0.1603
0 15 7 -4.6830 0.1634
0 15 8 -5.4520 0.0516
0 15 9 14.2895 0.0302
0 15 10 8.4705 0.2295
0 15 11 4.6062 0.0358
0 15 12 -5.5432 -0.0667
0 15 13 1.5871 -0.1229
0 15 14 -1.9800 -0.1440
0 15 15 9.8052 -0.2301
0 15 16 2.2786 0.2358
0 16 0 -13.9996 -0.1898
0 16 1 -25.6521 0.0570
0 16 2 4.2634 -0.0636
0 16 3 5.8395 0.0390
0 16 4 -4.0887 -0.0182
0 16 5 7.0633 -0.2155
0 16 6 -10.5075 -0.0484
0 16 7 -7.7035 -0.1436
0 16 8 -10.7166 0.1067
0 16 9 -3.9563 0.0101
0 16 10 -10.2803 -0.0138
0 16 11 12.9210 -0.1216
0 16 12 8.4629 -0.1964
0 16 13 9.6601 -0.0196
0 16 14 7.3190 -0.1804
0 16 15 -4.6720 -0.3684
0 17 1 -21.4228 -0.1821
0 17 2 33.0909 0.0042
0 17 3 -27.8695 -0.3162
0 17 4 -17.6355 0.0902
0 17 5 0.1141 -0.0870
0 17 6 -12.2142 0.0644
0 17 7 4.9292 0.0127
0 17 8 9.9179 -0.1476
0 17 9 -0.6857 -0.2014
0 17 10 2.2475 -0.0722
0 17 11 3.4969 -0.1015
0 17 12 -2.6621 0.0698
0 17 13 0.8663 0.0473
0 17 14 -6.5850 0.0278
0 18 0 7.8765 0.0035
0 18 1 -13.5860 0.0381
0 18 2 11.9259 -0.0333
0 18 3 -5.3123 0.0329
0 18 4 12.0466 0.1162
0 18 5 18.5938 0.0999
0 18 6 -5.1638 0.2393
0 18 7 -5.0251 -0.0528
0 18 8 -7.4670 0.0100
0 18 9 -5.2724 -0.1375
0 18 10 -10.9476 0.0953
0 18 11 -0.7516 0.1722
0 18 12 -6.6211 0.0236
0 18 13 -10.0957 -0.0730
0 19 1 -13.2754 -0.0055
0 19 2 -0.4107 0.2431
0 19 3 0.7038 0.0275
0 19 4 1.3182 0.0924
0 19 5 -5.6289 -0.0856
0 19 6 1.7793 -0.2189
0 19 7 1.4862 0.1233
0 19 8 0.8507 -0.1134
0 19 9 1.8874 0.1034
0 19 10 -17.7004 -0.5422
0 19 11 -1.9354 -0.2031
0 19 12 -1.5452 -0.2736
0 20 0 37.8920 0.2322
0 20 1 9.1428 0.0113
0 20 2 10.6845 -0.0413
0 20 3 1.6723 0.0484
0 20 4 12.4393 -0.1377
0 20 5 -7.0521 0.3533
0 20 6 12.2460 -0.1051
0 20 7 -7.5459 0.1878
0 20 8 -2.3459 0.0922
0 20 9 -0.3858 -0.1434
0 20 10 3.3538 0.3072
0 20 11 -7.5743 0.1651
0 21 1 -13.2030 0.0027
0 21 2 -18.8841 0.2787
0 21 3 6.6475 0.1227
0 21 4 -6.4379 0.2665
0 21 5 -9.5748 0.1315
0 21 6 0.4961 -0.2140
0 21 7 7.9567 -0.1349
0 21 8 -6.0096 -0.1047
0 21 9 2.5023 0.0187
0 21 10 -4.1278 -0.1433
0 22 0 1.5735 0.3231
0 22 1 7.3060 0.1206
0 22 2 -9.7841 0.3150
0 22 3 4.9798 -0.0271
0 22 4 7.5161 -0.2883
0 22 5 -9.7235 0.1884
0 22 6 14.9586 -0.6671
0 22 7 -10.6932 0.2039
0 22 8 9.8156 -0.0497
0 23 1 -7.2571 -0.1464
0 23 2 1.1744 -0.2336
0 23 3 -0.9922 -0.1171
0 23 4 -0.7195 -0.0341
0 23 5 -0.1083 0.0995
1 0 4 55.5988 -0.5160
1 0 6 59.4427 0.5596
1 0 8 78.3594 1.8931
1 0 10 -18.2757 0.8930
1 0 12 -10.1026 0.3792
1 0 14 28.0088 0.2887
1 0 16 -19.1475 -1.5453
1 0 18 -14.5921 -1.2671
1 0 20 7.5691 -0.3356
1 1 2 60.2783 -0.1237
1 1 3 6.3875 0.6972
1 1 4 -4.2648 0.4435
1 1 5 110.2711 -0.1819
1 1 6 -63.3684 0.6271
1 1 7 19.3859 -0.2730
1 1 8 11.2433 -0.3667
1 1 9 -27.2454 0.2558
1 1 10 -37.0533 0.8964
1 1 11 -3.7761 0.3402
1 1 12 2.4631 0.0578
1 1 13 -26.3026 0.2927
1 1 14 -5.8187 -0.4908
1 1 15 -6.8294 0.1457
1 1 16 -2.4267 -0.8082
1 1 17 21.1146 0.3162
1 1 18 6.9070 -1.1085
1 1 19 -7.5918 0.3783
1 1 20 -6.6126 -0.6164
1 2 2 23.6474 -0.1952
1 2 3 -148.9070 -0.1446
1 2 4 -22.4378 0.0382
1 2 5 54.3186 -0.4618
1 2 6 -7.4521 0.5638
1 2 7 -38.4201 1.7994
1 2 8 10.4213 -0.2809
1 2 9 -42.6065 2.0736
1 2 10 20.8983 0.4363
1 2 11 -9.1339 -0.0403
1 2 12 -6.9818 0.1899
1 2 13 -0.2009 -0.2887
1 2 14 0.4066 -0.8755
1 2 15 25.6723 0.1367
1 2 16 -0.6076 -0.0309
1 2 17 -0.6091 -0.3817
1 2 18 -3.4026 -0.4703
1 2 19 -20.5285 -0.3261
1 2 20 2.5721 -0.0062
1 3 0 -127.0252 0.0360
1 3 1 16.4613 -0.6460
1 3 2 5.5378 0.4856
1 3 3 -9.7046 0.1429
1 3 4 -11.8339 -0.2015
1 3 5 -43.9927 -0.1784
1 3 6 -77.7930 0.3257
1 3 7 -13.5636 0.6690
1 3 8 5.5031 -1.1398
1 3 9 -26.2514 0.6594
1 3 10 -14.4817 -1.0117
1 3 11 -30.2963 -0.7728
1 3 12 17.4061 0.4696
1 3 13 17.7996 -0.2093
1 3 14 12.1175 -0.2816
1 3 15 6.1434 -0.6025
1 3 16 -0.0854 -0.1671
1 3 17 0.8551 -0.5773
1 3 18 -11.8275 1.2906
1 3 19 -16.2720 0.7763
1 3 20 -13.8302 0.1931
1 4 0 112.1393 -0.1118
1 4 1 95.5514 0.3687
1 4 2 21.1751 0.0255
1 4 3 13.1927 0.1467
1 4 4 -38.7489 0.2536
1 4 5 -35.0635 0.6956
1 4 6 -54.3483 -0.3513
1 4 7 -26.0573 0.5253
1 4 8 -36.6015 -0.9140
1 4 9 -9.7331 1.5186
1 4 10 17.9395 -0.6520
1 4 11 31.7434 0.0228
1 4 12 3.1154 -0.2081
1 4 13 40.5085 -0.8122
1 4 14 -6.5786 -0.1181
1 4 15 15.7703 0.3397
1 4 16 2.0321 0.5709
1 4 17 -10.9834 -0.3565
1 4 18 6.4059 0.3556
1 4 19 -9.4520 -0.1976
1 4 20 10.3484 -0.0411
1 5 0 14.5945 -0.6157
1 5 1 74.0718 -0.3198
1 5 2 -86.8949 -0.2258
1 5 3 -15.5713 -0.6537
1 5 4 -15.3048 -0.3124
1 5 5 -66.4912 0.1484
1 5 6 1.0282 -0.4169
1 5 7 -16.8359 0.0954
1 5 8 -19.2398 -0.5400
1 5 9 18.8674 -0.1332
1 5 10 38.0775 -1.0832
1 5 11 8.6856 0.0816
1 5 12 37.5772 -0.0697
1 5 13 -10.6718 -0.2756
1 5 14 14.8330 0.0707
1 5 15 -0.4444 -0.0297
1 5 16 3.3865 0.5027
1 5 17 -8.9392 -0.1343
1 5 18 -16.7350 0.9139
1 5 19 -9.7281 -0.4792
1 5 20 -6.5486 0.3886
1 6 0 -3.2591 -0.4990
1 6 1 55.6681 0.1532
1 6 2 -40.5566 0.2762
1 6 3 102.6925 0.0456
1 6 4 27.5500 0.2469
1 6 5 -44.5018 0.3705
1 6 6 20.5438 -0.3685
1 6 7 -14.2753 0.0260
1 6 8 -6.5860 -0.1000
1 6 9 14.8278 0.0058
1 6 10 -35.9337 -0.5869
1 6 11 -7.2809 0.3165
1 6 12 25.7883 -0.3896
1 6 13 17.7518 -0.0130
1 6 14 2.4709 0.3412
1 6 15 17.5285 -0.4209
1 6 16 -15.6617 -0.0409
1 6 17 3.3677 -0.5049
1 6 18 4.2768 0.4599
1 6 19 8.5943 -0.1591
1 6 20 11.6006 -0.1203
1 7 0 14.3033 0.1598
1 7 1 -17.8044 0.2311
1 7 2 -11.5722 -0.1706
1 7 3 -0.4417 0.0736
1 7 4 5.8451 -0.0829
1 7 5 -20.2265 0.3011
1 7 6 21.0800 -0.5130
1 7 7 -11.1371 0.1307
1 7 8 -24.5284 -0.1432
1 7 9 52.1785 -0.3707
1 7 10 3.9939 -0.1786
1 7 11 31.3714 0.1110
1 7 12 -2.2061 -0.5862
1 7 13 -8.4159 0.0726
1 7 14 -14.6986 -0.0538
1 7 15 -2.5152 0.2368
1 7 16 5.9156 0.3407
1 7 17 -19.7204 -0.0330
1 7 18 2.2381 -0.1062
1 7 19 -8.3193 -0.4640
1 8 0 -13.9353 0.0795
1 8 1 6.1526 -0.3038
1 8 2 -30.6058 -0.0836
1 8 3 7.1591 -0.1541
1 8 4 -1.4853 0.1470
1 8 5 22.6866 -0.0564
1 8 6 13.7167 -0.2215
1 8 7 18.6195 -0.0304
1 8 8 -17.1424 -0.1774
1 8 9 -20.0053 -0.3858
1 8 10 -16.5908 0.1075
1 8 11 -35.9176 0.2473
1 8 12 3.6803 -0.1203
1 8 13 -13.2492 0.3806
1 8 14 -5.5514 -0.0921
1 8 15 -12.5815 -0.1724
1 8 16 -7.7452 0.1669
1 8 17 15.7349 -0.0895
1 8 18 9.4332 0.0945
1 8 19 9.0862 -0.2307
1 9 0 -0.0964 0.0825
1 9 1 -36.1809 0.0821
1 9 2 7.9594 0.2597
1 9 3 -27.9293 0.0268
1 9 4 10.5021 0.0364
1 9 5 -23.2553 -0.0112
1 9 6 0.2095 -0.3950
1 9 7 11.9688 0.3294
1 9 8 18.1797 -0.1511
1 9 9 2.9035 0.0412
1 9 10 -13.7117 -0.0230
1 9 11 18.4411 -0.2049
1 9 12 -48.0070 -0.1166
1 9 13 11.8020 0.2999
1 9 14 0.4255 0.1390
1 9 15 4.7948 0.0902
1 9 16 3.6377 -0.0883
1 9 17 -6.0525 -0.2417
1 9 18 1.5865 -0.2064
1 9 19 -13.9625 -0.0137
1 10 0 20.1182 -0.1765
1 10 1 -74.4976 0.1387
1 10 2 -1.3847 0.1219
1 10 3 -28.2316 -0.1119
1 10 4 -7.3080 0.1449
1 10 5 35.7670 0.1251
1 10 6 -49.8808 -0.0513
1 10 7 31.4817 0.2189
1 10 8 -8.1030 -0.2294
1 10 9 -8.1528 0.0772
1 10 10 7.1054 0.1061
1 10 11 28.7303 0.2132
1 10 12 -29.8463 0.0436
1 10 13 -11.7618 0.1973
1 10 14 -4.6533 -0.1628
1 10 15 -29.5578 0.1457
1 10 16 -8.7643 -0.0976
1 10 17 7.1639 0.2206
1 10 18 8.1817 0.1521
1 11 0 13.3864 0.0152
1 11 1 30.4708 -0.0606
1 11 2 -1.8205 0.0369
1 11 3 -30.6844 -0.1785
1 11 4 -20.4802 -0.0035
1 11 5 7.1033 0.0136
1 11 6 10.5469 -0.4380
1 11 7 30.1634 0.0030
1 11 8 33.2590 -0.3802
1 11 9 -12.8006 0.2126
1 11 10 -1.1290 -0.2260
1 11 11 12.5243 0.0586
1 11 12 -14.2139 -0.1804
1 11 13 -0.0599 -0.1551
1 11 14 5.1047 0.0280
1 11 15 -1.7154 -0.0487
1 11 16 -0.4855 0.2502
1 11 17 1.3991 -0.1833
1 11 18 4.4531 -0.0523
1 12 0 -26.4909 0.0818
1 12 1 -67.1344 0.2198
1 12 2 4.8302 0.1544
1 12 3 5.5059 0.2030
1 12 4 25.1387 -0.1403
1 12 5 14.3604 0.0767
1 12 6 -0.9660 0.0543
1 12 7 9.4015 0.2876
1 12 8 11.2340 0.0936
1 12 9 32.2981 0.1201
1 12 10 2.4087 -0.0613
1 12 11 18.2247 0.2698
1 12 12 -14.1360 0.1775
1 12 13 -5.9706 0.2752
1 12 14 -3.5715 0.1001
1 12 15 -5.7446 -0.1102
1 12 16 -5.1238 -0.3020
1 12 17 -12.0508 -0.2803
1 13 0 16.8034 0.1409
1 13 1 -7.5096 -0.0356
1 13 2 41.9954 -0.2692
1 13 3 22.3413 0.0566
1 13 4 2.1748 -0.2348
1 13 5 32.6445 -0.0814
1 13 6 8.6982 -0.2038
1 13 7 17.2246 -0.1135
1 13 8 -18.4587 -0.1040
1 13 9 -5.7491 0.1461
1 13 10 -0.9093 -0.0273
1 13 11 -8.6059 0.2599
1 13 12 8.3519 -0.2231
1 13 13 5.1638 -0.0328
1 13 14 -19.1364 -0.2323
1 13 15 -5.0908 -0.3993
1 13 16 -11.6564 -0.1686
1 13 17 4.5036 -0.1506
1 14 0 -10.3996 -0.0253
1 14 1 4.7043 0.0158
1 14 2 22.6699 -0.1173
1 14 3 -4.8223 0.3054
1 14 4 -0.0102 -0.0726
1 14 5 -0.7733 0.1690
1 14 6 21.0020 0.1213
1 14 7 4.6470 -0.1066
1 14 8 0.0985 0.0163
1 14 9 3.9912 -0.0466
1 14 10 2.2159 0.1053
1 14 11 -27.5106 0.2831
1 14 12 -3.9562 0.0576
1 14 13 -9.2063 0.2211
1 14 14 1.8206 0.2031
1 14 15 5.6683 0.1822
1 14 16 13.1710 0.0790
1 15 0 15.1512 0.0724
1 15 1 -26.9948 0.1709
1 15 2 32.1291 0.1631
1 15 3 26.3624 -0.0414
1 15 4 33.3159 -0.1180
1 15 5 19.5129 -0.1104
1 15 6 -8.6568 0.0667
1 15 7 -16.0111 0.0199
1 15 8 -21.5950 0.1695
1 15 9 -19.0318 0.0387
1 15 10 -14.2327 0.1152
1 15 11 -19.0315 0.2159
1 15 12 -0.8926 0.1545
1 15 13 0.8637 0.2764
1 15 14 -4.5745 0.0136
1 15 15 9.0022 0.2448
1 15 16 -8.5999 -0.5027
1 16 0 25.8396 -0.1750
1 16 1 5.3516 -0.1398
1 16 2 25.5363 0.0032
1 16 3 -23.1257 -0.0650
1 16 4 -20.6486 -0.0704
1 16 5 -14.3037 0.0565
1 16 6 -11.2400 0.0150
1 16 7 -8.4134 0.0286
1 16 8 -0.5177 0.1540
1 16 9 -13.4933 0.0665
1 16 10 -1.7435 -0.1185
1 16 11 -8.6926 -0.0140
1 16 12 11.1130 0.0592
1 16 13 -1.5433 0.3297
1 16 14 1.8692 0.1257
1 16 15 7.7269 0.5604
1 17 0 15.6075 0.0393
1 17 1 15.3244 0.0029
1 17 2 -10.4918 0.0412
1 17 3 0.6107 -0.0427
1 17 4 6.3963 0.0551
1 17 5 -2.0205 0.2492
1 17 6 3.9288 0.1287
1 17 7 -16.3193 0.0388
1 17 8 3.8336 -0.0491
1 17 9 4.5357 0.4014
1 17 10 3.0807 0.1444
1 17 11 -4.9503 0.2778
1 17 12 8.9709 -0.0892
1 17 13 -10.3119 -0.4276
1 17 14 15.0315 -0.5491
1 18 0 -0.8745 -0.0174
1 18 1 -12.5208 -0.0120
1 18 2 -8.7684 0.0285
1 18 3 -7.2612 0.0871
1 18 4 -0.2237 -0.3059
1 18 5 -24.2137 0.1001
1 18 6 -2.4219 -0.1367
1 18 7 -4.2500 0.1751
1 18 8 1.4738 0.2596
1 18 9 0.2227 0.1263
1 18 10 0.8873 -0.2910
1 18 11 7.0775 -0.3487
1 18 12 16.9635 -0.1897
1 18 13 8.8357 0.0642
1 19 0 16.4774 -0.0135
1 19 1 17.3943 -0.0855
1 19 2 -12.0364 -0.1983
1 19 3 -2.5496 -0.1074
1 19 4 -4.9966 -0.0217
1 19 5 -7.0208 0.0750
1 19 6 0.5246 0.0546
1 19 7 0.3650 -0.0859
1 19 8 11.7295 0.0128
1 19 9 2.2251 0.1088
1 19 10 30.7203 -0.3429
1 19 11 0.7498 -0.0671
1 19 12 12.0013 -0.3676
1 20 0 -20.8149 -0.0330
1 20 1 11.7129 -0.3056
1 20 2 -16.7855 0.0530
1 20 3 2.2675 0.0718
1 20 4 4.1590 0.0912
1 20 5 -7.2884 0.4907
1 20 6 2.1007 -0.1044
1 20 7 6.1938 0.1719
1 20 8 -0.4155 -0.3305
1 20 9 -3.6396 0.1892
1 20 10 4.3487 -0.0553
1 20 11 5.4928 0.4391
1 21 0 -7.8099 0.0703
1 21 1 -3.9583 0.2116
1 21 2 0.1902 0.0987
1 21 3 -8.8876 0.0659
1 21 4 1.0358 -0.0765
1 21 5 -3.4356 -0.0527
1 21 6 -0.3840 -0.0691
1 21 7 0.4767 -0.0338
1 21 8 15.0541 0.1372
1 21 9 -8.3806 -0.4769
1 22 0 -1.0548 0.0904
1 22 1 11.6427 -0.1767
1 22 2 5.3366 0.1121
1 22 3 7.6167 -0.2600
1 22 4 0.8019 0.3350
1 22 5 15.9293 -0.0489
1 22 6 -4.2661 0.1041
1 22 7 1.2056 0.1923
1 23 0 -16.1479 0.1327
1 23 1 -1.2138 0.1080
1 23 2 0.1028 -0.0315
1 23 3 -8.3855 0.3075
1 23 4 -8.2122 0.0705
1 23 5 -5.5506 -0.2558
2 0 2 61.5001 0.2228
2 0 4 -49.0497 0.0237
2 0 6 -73.2141 -2.5300
2 0 8 30.4771 -3.4108
2 0 10 -6.5320 -0.3999
2 0 12 10.3029 0.2769
2 0 14 -29.4284 0.3158
2 0 16 9.9933 0.9485
2 0 18 23.5664 1.0523
2 0 20 20.3258 -0.1536
2 1 1 121.6170 -1.1599
2 1 2 37.8027 -0.0657
2 1 3 -50.0897 0.4039
2 1 4 52.8812 0.0842
2 1 5 19.5014 0.1601
2 1 6 39.6480 -1.0911
2 1 7 -17.3973 1.8765
2 1 8 -9.9071 -1.1247
2 1 9 -0.5178 1.5828
2 1 10 31.6343 1.1882
2 1 11 -4.2123 -0.3382
2 1 12 -7.3919 0.4146
2 1 13 -0.5402 0.2524
2 1 14 -21.6202 0.7899
2 1 15 3.0348 -0.1741
2 1 16 6.9965 1.4468
2 1 17 2.1719 -1.9828
2 1 18 27.2438 -0.3374
2 1 19 30.6125 -1.1699
2 1 20 4.0566 -0.3327
2 2 0 -19.1646 -0.5696
2 2 1 -4.8028 0.2621
2 2 2 -38.8276 -0.0187
2 2 3 113.2964 -0.1297
2 2 4 31.0141 -0.9725
2 2 5 0.6905 0.4132
2 2 6 2.8775 -0.4510
2 2 7 59.5619 1.4443
2 2 8 -1.0648 -1.4497
2 2 9 23.9952 1.0047
2 2 10 -11.5770 -0.3098
2 2 11 -5.1553 0.4711
2 2 12 -21.2556 0.8366
2 2 13 16.1593 0.3246
2 2 14 -8.2556 -0.1849
2 2 15 11.6628 -1.1898
2 2 16 16.7519 0.6750
2 2 17 -11.1660 -1.1923
2 2 18 8.4022 0.7201
2 2 19 15.3605 -0.4842
2 2 20 14.8177 -0.5244
2 3 0 56.0659 0.2802
2 3 1 35.6301 0.4405
2 3 2 26.8599 1.0981
2 3 3 113.5810 0.5779
2 3 4 78.0320 0.1111
2 3 5 -1.8521 1.1218
2 3 6 46.0514 -0.2968
2 3 7 25.5619 0.3552
2 3 8 -36.4276 0.1808
2 3 9 -22.1967 1.4040
2 3 10 -24.9026 0.1150
2 3 11 -13.8601 0.2232
2 3 12 -18.2734 0.3139
2 3 13 -4.1939 -0.2638
2 3 14 -9.8397 0.2488
2 3 15 -11.6240 -0.7451
2 3 16 22.6563 0.1726
2 3 17 16.5254 -1.2799
2 3 18 40.8845 0.3397
2 3 19 24.8319 -0.6821
2 3 20 -6.8629 -0.1744
2 4 0 29.8033 -0.1212
2 4 1 31.1821 -0.0487
2 4 2 -87.6862 -0.1977
2 4 3 16.4303 -0.2420
2 4 4 49.0296 -0.5465
2 4 5 -35.1939 0.6352
2 4 6 63.1038 0.5538
2 4 7 -12.3671 -0.0275
2 4 8 -22.8566 0.8621
2 4 9 13.4051 0.4900
2 4 10 9.5356 -0.2836
2 4 11 -18.6079 0.5686
2 4 12 -11.6112 -0.2210
2 4 13 -22.5593 -0.6105
2 4 14 9.0275 0.3131
2 4 15 20.6745 -0.1745
2 4 16 2.1182 0.2891
2 4 17 14.9590 -0.6642
2 4 18 -17.9948 0.0513
2 4 19 4.6601 -0.7222
2 4 20 -3.3082 0.8722
2 5 0 11.8697 -0.5115
2 5 1 -74.5599 0.3929
2 5 2 -31.4293 0.1085
2 5 3 38.3707 0.0761
2 5 4 7.5833 -0.2942
2 5 5 -14.4527 0.5901
2 5 6 16.0857 0.1557
2 5 7 19.2472 -0.0601
2 5 8 -50.5356 0.6165
2 5 9 11.3331 -0.1180
2 5 10 -83.1631 -0.4320
2 5 11 -3.0452 0.7918
2 5 12 -16.7186 -0.1552
2 5 13 9.5466 -0.1247
2 5 14 5.4263 -0.2478
2 5 15 -3.9973 -0.6043
2 5 16 18.7102 -0.4135
2 5 17 7.6776 0.5068
2 5 18 12.6798 0.6874
2 5 19 -12.3979 0.1701
2 5 20 -18.6432 0.3744
2 6 0 24.5217 0.7927
2 6 1 -27.4354 -0.0162
2 6 2 20.5033 -0.0026
2 6 3 -25.6682 -0.0397
2 6 4 -44.9787 0.2687
2 6 5 -26.1934 0.1212
2 6 6 3.4429 0.1071
2 6 7 -20.7733 -0.2326
2 6 8 4.3094 0.8688
2 6 9 3.4677 -0.3200
2 6 10 31.3197 -0.1612
2 6 11 -5.5238 -0.0537
2 6 12 13.0795 -0.7851
2 6 13 -0.8272 -0.0300
2 6 14 23.8654 0.2431
2 6 15 0.3453 0.1008
2 6 16 -2.8817 -0.0956
2 6 17 -4.1066 0.1740
2 6 18 -24.5487 0.0289
2 6 19 -0.8285 0.0335
2 7 0 17.4909 -0.1079
2 7 1 -73.7653 -0.3762
2 7 2 5.4078 -0.3109
2 7 3 -68.3588 -0.1229
2 7 4 -10.3710 0.0034
2 7 5 -7.9807 0.0542
2 7 6 -4.3862 -0.1656
2 7 7 -5.8872 -0.0254
2 7 8 4.1195 -0.1279
2 7 9 13.4428 -0.4505
2 7 10 13.7037 0.1326
2 7 11 30.1367 0.1665
2 7 12 -9.7232 -0.2769
2 7 13 14.3572 -0.0811
2 7 14 -6.4985 -0.0035
2 7 15 -9.3783 0.0713
2 7 16 -6.9920 0.2502
2 7 17 3.4722 0.6762
2 7 18 -4.1809 0.0307
2 7 19 -17.2424 0.1545
2 8 0 74.9546 0.0025
2 8 1 -28.3293 0.0661
2 8 2 79.6049 -0.0619
2 8 3 -7.4200 -0.0566
2 8 4 -35.2023 -0.0300
2 8 5 31.4749 -0.1799
2 8 6 -24.7770 -0.1543
2 8 7 27.9980 0.1010
2 8 8 20.2939 -0.0214
2 8 9 -6.3867 -0.2000
2 8 10 -10.3959 -0.0694
2 8 11 35.4071 -0.2673
2 8 12 -2.7153 -0.2174
2 8 13 20.4419 0.1492
2 8 14 32.3429 -0.2636
2 8 15 -11.8817 -0.0367
2 8 16 6.7767 -0.3607
2 8 17 -14.1343 0.2375
2 8 18 -10.9391 -0.1611
2 8 19 3.8790 0.1836
2 9 0 -17.9331 -0.1405
2 9 1 -24.9125 -0.1201
2 9 2 40.9918 0.1882
2 9 3 -1.7837 0.0145
2 9 4 -4.2875 0.1946
2 9 5 13.7192 0.0582
2 9 6 -31.6356 0.1765
2 9 7 -27.1624 0.1531
2 9 8 40.2661 -0.2793
2 9 9 0.8331 0.0262
2 9 10 40.5657 -0.0802
2 9 11 26.5529 -0.1933
2 9 12 3.0397 0.0047
2 9 13 -0.7607 -0.1136
2 9 14 5.2296 0.0019
2 9 15 -8.2975 0.0395
2 9 16 -10.7513 -0.0731
2 9 17 -3.2480 0.1566
2 9 18 -20.9688 0.1680
2 10 0 52.7333 -0.1710
2 10 1 25.3262 -0.1551
2 10 2 51.5870 -0.2548
2 10 3 -23.8433 0.0954
2 10 4 10.3153 -0.1291
2 10 5 15.6483 -0.1924
2 10 6 7.7980 -0.1836
2 10 7 -12.9606 -0.2636
2 10 8 -19.1484 -0.2159
2 10 9 -11.6974 0.0699
2 10 10 -22.5358 -0.0900
2 10 11 5.7619 -0.1937
2 10 12 15.2282 -0.1225
2 10 13 5.9028 -0.3489
2 10 14 0.9722 -0.0837
2 10 15 -7.2240 0.2002
2 10 16 7.4581 0.3322
2 10 17 1.4079 0.1720
2 10 18 3.0908 0.0274
2 11 0 -23.8447 -0.0132
2 11 1 -12.6781 0.2463
2 11 2 -15.2831 -0.0464
2 11 3 5.5384 0.1825
2 11 4 -36.3692 -0.0411
2 11 5 -15.0814 -0.0986
2 11 6 -16.1270 0.2500
2 11 7 -12.9077 0.0091
2 11 8 -2.4179 -0.0602
2 11 9 10.7564 -0.0974
2 11 10 2.9675 -0.2849
2 11 11 -18.2316 0.1070
2 11 12 9.4304 0.1928
2 11 13 11.9555 0.2943
2 11 14 7.5783 0.1608
2 11 15 18.1593 0.2146
2 11 16 4.1071 -0.0555
2 11 17 -6.3727 0.2061
2 11 18 -29.1959 -0.0125
2 12 0 -19.9117 0.0490
2 12 1 -15.3594 0.0854
2 12 2 -6.2234 -0.2840
2 12 3 -9.8596 0.1844
2 12 4 17.1533 -0.0889
2 12 5 -22.9546 -0.1200
2 12 6 0.4654 0.0841
2 12 7 -20.8971 -0.2020
2 12 8 -26.6117 0.0079
2 12 9 -3.2554 -0.1294
2 12 10 17.3428 0.0346
2 12 11 -22.3196 -0.0439
2 12 12 23.5871 -0.0485
2 12 13 2.4928 -0.0681
2 12 14 -12.5483 0.1979
2 12 15 -9.5540 -0.0667
2 12 16 3.8096 0.0289
2 12 17 8.0774 0.1445
2 13 0 2.7792 -0.1381
2 13 1 13.5063 -0.0375
2 13 2 -44.2199 -0.1441
2 13 3 -43.4899 0.0552
2 13 4 -33.1189 0.1085
2 13 5 -28.2732 -0.2250
2 13 6 14.5859 0.0758
2 13 7 9.8292 -0.3131
2 13 8 6.6010 0.0678
2 13 9 8.8958 -0.2741
2 13 10 18.0164 -0.0073
2 13 11 -16.6359 -0.2242
2 13 12 16.2803 -0.1796
2 13 13 -2.9249 0.0741
2 13 14 2.7496 0.1164
2 13 15 10.9670 0.5533
2 13 16 6.1043 0.1049
2 13 17 1.7158 0.5311
2 14 0 -26.3164 0.0794
2 14 1 -29.4387 0.1766
2 14 2 -28.2469 0.2009
2 14 3 15.1436 -0.0628
2 14 4 21.0266 0.0416
2 14 5 11.1293 0.0049
2 14 6 8.1813 0.1183
2 14 7 10.3478 -0.0383
2 14 8 25.1434 -0.0710
2 14 9 17.8632 -0.1715
2 14 10 8.9943 0.0443
2 14 11 1.7204 -0.0816
2 14 12 3.7916 -0.0532
2 14 13 -4.3796 0.0263
2 14 14 -4.9661 -0.2551
2 14 15 3.1524 0.2504
2 14 16 -11.1514 -0.2758
2 15 0 -3.6184 -0.0291
2 15 1 21.1545 -0.1145
2 15 2 -4.3659 0.0292
2 15 3 3.8931 -0.2526
2 15 4 2.8663 -0.0775
2 15 5 1.4019 -0.1918
2 15 6 21.5069 -0.0138
2 15 7 0.6014 0.0322
2 15 8 24.3596 -0.0073
2 15 9 -2.4381 0.0686
2 15 10 12.6983 -0.1256
2 15 11 -3.2249 -0.3018
2 15 12 21.9636 0.2245
2 15 13 -25.0179 0.1569
2 15 14 -0.6743 -0.1385
2 15 15 -19.0285 0.0592
2 16 0 -10.0806 -0.0400
2 16 1 25.0706 -0.0414
2 16 2 -19.7083 0.0239
2 16 3 9.9045 0.1192
2 16 4 16.4046 0.1699
2 16 5 11.5607 0.1494
2 16 6 26.1684 -0.0647
2 16 7 5.0561 -0.2584
2 16 8 15.8162 -0.1482
2 16 9 15.5303 0.1806
2 16 10 -3.5021 0.2656
2 16 11 1.4639 -0.0844
2 16 12 -10.8450 0.0609
2 16 13 -15.0741 -0.0698
2 16 14 0.7893 -0.4645
2 17 0 -10.4279 0.1968
2 17 1 4.6483 0.2834
2 17 2 12.1872 0.0313
2 17 3 34.6408 -0.0494
2 17 4 21.6747 -0.0575
2 17 5 13.3565 -0.1239
2 17 6 2.8670 0.0771
2 17 7 4.8767 -0.0042
2 17 8 -3.2381 0.0250
2 17 9 -25.8688 0.3280
2 17 10 -10.0057 0.0947
2 17 11 -14.0497 0.4914
2 17 12 -1.3996 0.3100
2 17 13 -5.5474 0.4539
2 17 14 -1.3246 -0.0766
2 18 0 -16.3567 0.0983
2 18 1 32.5889 -0.1036
2 18 2 -8.6340 -0.1192
2 18 3 0.8259 -0.1367
2 18 4 0.3065 -0.0469
2 18 5 -12.6320 -0.0893
2 18 6 -4.6850 -0.1881
2 18 7 -11.1260 0.1863
2 18 8 -4.8023 -0.0782
2 18 9 -16.6153 0.0225
2 18 10 7.3290 -0.2909
2 18 11 -7.5876 0.0624
2 18 12 -10.0956 0.4348
2 18 13 -4.2594 0.5313
2 19 0 -6.3788 0.0015
2 19 1 10.5036 -0.0065
2 19 2 9.8151 -0.0775
2 19 3 5.5369 0.0134
2 19 4 12.7924 0.1624
2 19 5 10.0406 0.0935
2 19 6 -6.5918 0.0640
2 19 7 5.4646 -0.1100
2 19 8 -17.5887 0.2927
2 19 9 -9.3665 0.3535
2 19 10 -10.1796 0.7803
2 19 11 -0.9155 0.9465
2 19 12 -9.0198 -0.1514
2 20 0 -10.0638 0.0035
2 20 1 -6.6488 -0.1566
2 20 2 -1.3869 0.2317
2 20 3 -1.5757 -0.3279
2 20 4 -19.2563 0.0949
2 20 5 -10.4520 -0.2354
2 20 6 -4.9697 0.0014
2 20 7 -10.5452 0.4765
2 20 8 8.1078 0.1176
2 20 9 -13.0506 -0.1500
2 20 10 2.5060 -0.4692
2 21 0 3.6002 0.0887
2 21 1 7.1359 -0.0503
2 21 2 4.7545 -0.1282
2 21 3 6.0229 -0.0719
2 21 4 1.1116 0.0490
2 21 5 5.6112 0.1244
2 21 6 -2.1581 -0.0572
2 21 7 -0.7750 0.3306
2 21 8 -17.2712 0.1059
2 21 9 16.8726 0.1349
2 22 0 3.5447 -0.4683
2 22 1 -10.5121 -0.0805
2 22 2 -2.6197 -0.0617
2 22 3 -4.1245 0.1918
2 22 4 -15.2628 0.4105
2 22 5 -7.5866 -0.2551
2 22 6 4.2610 0.3831
2 22 7 -2.1830 -0.1112
2 23 0 5.4558 0.2422
2 23 1 -4.3982 0.1339
2 23 2 -5.0329 0.0715
2 23 3 5.8728 0.0705
2 23 4 -4.8860 0.1083
3 0 0 -2.0986 -0.7507
3 0 2 -67.0568 -0.0178
3 0 4 14.1148 -0.2394
3 0 6 48.7314 -1.3690
3 0 8 -33.2691 -0.9056
3 0 10 11.3926 -0.3835
3 0 12 -9.0165 -0.5712
3 0 14 -31.8217 1.2669
3 0 16 -12.5810 1.5197
3 0 18 -0.4100 0.5426
3 0 20 -76.3075 0.5224
3 1 0 17.4812 -0.5228
3 1 1 -141.9066 -0.8199
3 1 2 -99.9044 -0.2659
3 1 3 6.2051 -0.6162
3 1 4 -20.1421 -0.9492
3 1 5 -34.5149 0.1513
3 1 6 -10.0098 0.5053
3 1 7 37.6091 -0.5698
3 1 8 -9.5006 -0.8344
3 1 9 31.2863 -0.3537
3 1 10 -4.4183 -0.4106
3 1 11 8.9256 -0.1823
3 1 12 -10.8060 0.5323
3 1 13 10.7828 -0.2012
3 1 14 18.4759 0.6648
3 1 15 0.6169 0.0099
3 1 16 -14.5252 1.2930
3 1 17 -68.7234 -0.0348
3 1 18 -25.1092 0.5893
3 1 19 -37.1828 0.2885
3 1 20 -5.3342 0.1712
3 2 0 -33.8723 -0.5437
3 2 1 -79.5863 0.1198
3 2 2 -30.3584 0.1222
3 2 3 -51.5494 -0.0733
3 2 4 2.7413 -0.6998
3 2 5 -56.5551 -1.3996
3 2 6 38.2251 0.3324
3 2 7 -2.0274 -2.5473
3 2 8 11.1957 0.1063
3 2 9 -19.8508 -0.2442
3 2 10 5.6204 -0.5297
3 2 11 6.9165 0.1335
3 2 12 9.9708 0.8651
3 2 13 -12.2600 -0.1025
3 2 14 -18.3290 0.0928
3 2 15 -17.4421 0.2513
3 2 16 -25.2600 0.1521
3 2 17 11.2375 0.5468
3 2 18 -10.8552 0.5536
3 2 19 -11.3805 -0.3712
3 3 0 38.1926 -0.5974
3 3 1 23.7875 -0.0025
3 3 2 -19.0904 -0.1066
3 3 3 -58.4355 -0.0223
3 3 4 -11.3698 -0.0737
3 3 5 -9.4868 -0.6317
3 3 6 10.8639 0.9005
3 3 7 8.7445 -1.1833
3 3 8 -6.0069 0.9655
3 3 9 59.6433 0.6042
3 3 10 5.9710 -0.6146
3 3 11 19.9555 0.4562
3 3 12 -6.9791 0.2035
3 3 13 -15.8283 0.3559
3 3 14 4.2655 0.4900
3 3 15 -21.6389 1.0896
3 3 16 -32.5701 -0.9942
3 3 17 -4.6634 -0.3777
3 3 18 -16.4249 -0.5786
3 3 19 1.8916 -0.6828
3 4 0 13.3799 0.1680
3 4 1 -75.6946 -0.1498
3 4 2 34.0791 0.0680
3 4 3 6.7823 -0.9124
3 4 4 -13.3631 0.1518
3 4 5 33.4165 -0.7557
3 4 6 -8.0145 0.7174
3 4 7 8.6053 -1.3135
3 4 8 19.8083 0.8177
3 4 9 9.9566 -0.3694
3 4 10 -0.3993 0.2850
3 4 11 -6.9238 0.9752
3 4 12 7.2709 0.3133
3 4 13 -19.6163 -0.2192
3 4 14 -0.4485 -0.5682
3 4 15 -17.5372 0.3340
3 4 16 -0.1792 -0.8389
3 4 17 12.8555 0.4789
3 4 18 -0.6993 -0.3566
3 4 19 12.9435 -0.6527
3 5 0 40.0450 0.9270
3 5 1 58.0197 0.6978
3 5 2 163.2086 0.3814
3 5 3 -5.9247 0.0840
3 5 4 31.0088 0.8602
3 5 5 12.7653 -0.1379
3 5 6 31.9548 0.2877
3 5 7 -33.9601 0.0769
3 5 8 20.1385 1.1681
3 5 9 -43.9987 -0.0723
3 5 10 3.5754 0.2120
3 5 11 -13.6657 0.2204
3 5 12 -6.1912 -0.0946
3 5 13 11.8520 0.2029
3 5 14 -11.3193 -0.2982
3 5 15 9.1078 -0.0591
3 5 16 -3.2309 -1.0667
3 5 17 24.7689 0.0495
3 5 18 19.3511 -0.5579
3 5 19 27.4158 -0.3254
3 6 0 51.7074 0.0720
3 6 1 -30.5704 -0.1244
3 6 2 67.3766 -0.0019
3 6 3 8.5191 -0.2547
3 6 4 -11.7084 0.5030
3 6 5 52.7046 -0.0846
3 6 6 -73.3684 0.0380
3 6 7 -3.9429 0.2338
3 6 8 -12.9714 0.3385
3 6 9 14.2560 -0.3004
3 6 10 -10.0722 0.6231
3 6 11 3.3875 -0.0043
3 6 12 -15.8715 -0.3309
3 6 13 -11.0437 0.2365
3 6 14 6.9802 -0.0898
3 6 15 -4.0416 0.3344
3 6 16 29.0508 -0.3795
3 6 17 -0.0012 0.0749
3 6 18 13.2810 -0.6434
3 6 19 7.6142 0.1870
3 7 0 3.5982 0.3530
3 7 1 22.5626 0.0030
3 7 2 43.2189 0.1366
3 7 3 25.4246 -0.2692
3 7 4 2.3906 0.4676
3 7 5 42.0873 -0.2051
3 7 6 3.2231 0.2587
3 7 7 -50.0056 0.4699
3 7 8 13.7375 0.1496
3 7 9 -87.4898 -0.0960
3 7 10 -30.2097 0.6702
3 7 11 -21.7442 -0.0899
3 7 12 1.3444 0.1107
3 7 13 1.8892 -0.0275
3 7 14 4.1343 -0.4425
3 7 15 19.7245 -0.1030
3 7 16 22.4890 -0.0762
3 7 17 20.7766 0.0541
3 7 18 10.0027 -0.3723
3 7 19 23.9957 0.0689
3 8 0 -41.5735 0.0306
3 8 1 -19.8683 0.0034
3 8 2 26.8287 0.0140
3 8 3 -43.8551 0.0938
3 8 4 -9.2739 0.2957
3 8 5 -17.9803 -0.0360
3 8 6 -36.2292 0.3507
3 8 7 -19.3562 0.3386
3 8 8 1.9056 -0.0387
3 8 9 3.1926 -0.1712
3 8 10 -8.4484 0.2650
3 8 11 -11.7045 -0.4188
3 8 12 0.1422 0.2867
3 8 13 4.9398 0.1937
3 8 14 5.3409 -0.1653
3 8 15 18.3670 -0.1313
3 8 16 10.2061 -0.1702
3 8 17 -16.2104 -0.1474
3 8 18 -6.1411 0.0658
3 9 0 -32.2354 -0.2424
3 9 1 25.6096 -0.0944
3 9 2 -65.0938 0.0446
3 9 3 13.2416 0.1336
3 9 4 -6.1811 0.3495
3 9 5 24.2288 -0.2815
3 9 6 -5.7842 0.2334
3 9 7 -4.1851 -0.0927
3 9 8 -16.0054 -0.0236
3 9 9 -2.1937 0.2084
3 9 10 2.1380 0.1659
3 9 11 -23.5990 -0.2341
3 9 12 16.9413 -0.1644
3 9 13 -13.3237 -0.0796
3 9 14 -20.4140 -0.1241
3 9 15 0.8484 0.1561
3 9 16 7.7340 0.1873
3 9 17 16.9432 -0.2523
3 9 18 14.3360 -0.0942
3 10 0 -28.3016 0.1209
3 10 1 38.8417 0.0984
3 10 2 -39.3549 -0.2110
3 10 3 -18.7303 -0.1252
3 10 4 8.0586 -0.0440
3 10 5 -30.6879 -0.2062
3 10 6 33.9888 0.2151
3 10 7 19.6029 -0.0706
3 10 8 5.7675 0.0289
3 10 9 -1.4883 -0.2353
3 10 10 9.2302 0.0439
3 10 11 -24.0060 -0.1624
3 10 12 3.8885 0.2114
3 10 13 10.6475 -0.0721
3 10 14 -1.7098 -0.0952
3 10 15 18.7626 -0.0342
3 10 16 -5.0166 -0.0610
3 10 17 -14.6174 0.0075
3 10 18 -8.8009 -0.1716
3 11 0 -11.1218 0.0062
3 11 1 15.7317 0.1633
3 11 2 -13.2761 0.1384
3 11 3 24.6995 0.1237
3 11 4 36.9432 0.4211
3 11 5 -7.3383 -0.0002
3 11 6 -8.5968 0.4855
3 11 7 30.2284 -0.2531
3 11 8 -1.0961 0.2556
3 11 9 11.7360 -0.2060
3 11 10 33.8938 0.2270
3 11 11 -19.5565 -0.0565
3 11 12 10.9057 -0.1034
3 11 13 -11.8875 -0.0819
3 11 14 -17.7171 -0.1636
3 11 15 -7.2288 -0.4077
3 11 16 -8.6785 -0.3695
3 11 17 0.7625 -0.1652
3 12 0 28.0578 -0.0529
3 12 1 84.4420 -0.2684
3 12 2 -28.8626 0.0126
3 12 3 23.4361 -0.1878
3 12 4 4.8531 -0.0795
3 12 5 -0.2160 -0.2414
3 12 6 12.7159 -0.1313
3 12 7 0.8440 -0.1052
3 12 8 -0.9592 0.1753
3 12 9 -12.3669 -0.0520
3 12 10 -2.2311 -0.0045
3 12 11 6.6065 -0.2653
3 12 12 -2.0904 -0.3531
3 12 13 -4.4197 0.0098
3 12 14 -8.7070 -0.1922
3 12 15 4.1872 0.2263
3 12 16 -9.7913 -0.0072
3 12 17 -5.0492 0.2854
3 13 0 6.3501 0.1816
3 13 1 -18.3380 -0.0448
3 13 2 -6.7734 0.3773
3 13 3 5.1355 0.0109
3 13 4 -3.9494 0.1903
3 13 5 -5.1380 0.1084
3 13 6 -14.8406 0.1537
3 13 7 -6.8877 -0.1334
3 13 8 8.8757 -0.0046
3 13 9 -7.5909 -0.1485
3 13 10 -6.2892 0.2658
3 13 11 2.7080 -0.1398
3 13 12 3.7382 0.1065
3 13 13 -9.3223 -0.0763
3 13 14 16.5940 -0.2116
3 13 15 7.5770 -0.0415
3 13 16 -6.8282 0.1462
3 14 0 -13.7541 0.2048
3 14 1 17.2428 -0.2476
3 14 2 5.0415 0.0604
3 14 3 22.9872 -0.3304
3 14 4 -12.8960 -0.2083
3 14 5 -8.6234 -0.1526
3 14 6 -7.0284 -0.0057
3 14 7 -28.5680 -0.0944
3 14 8 -2.7637 -0.0769
3 14 9 -19.4048 -0.0151
3 14 10 -8.4552 0.0423
3 14 11 10.3287 -0.2016
3 14 12 13.2656 0.2237
3 14 13 -1.2254 0.2487
3 14 14 1.7193 -0.3442
3 14 15 -9.3541 -0.2282
3 15 0 -8.4938 -0.1834
3 15 1 -18.2117 -0.1760
3 15 2 -33.0146 0.0323
3 15 3 -30.9693 0.1475
3 15 4 -42.4646 0.0164
3 15 5 -11.8575 -0.0323
3 15 6 -18.0734 -0.0653
3 15 7 -9.4271 -0.2061
3 15 8 -8.9822 -0.1275
3 15 9 12.6587 -0.0133
3 15 10 -3.0279 -0.3384
3 15 11 17.5800 -0.1934
3 15 12 -13.8220 -0.1573
3 15 13 4.5505 0.1559
3 15 14 12.4505 -0.0277
3 15 15 9.1786 0.0989
3 16 0 -26.6476 0.2547
3 16 1 -27.9114 0.0969
3 16 2 2.3090 0.0373
3 16 3 5.4211 -0.1251
3 16 4 4.1418 -0.0714
3 16 5 6.6506 -0.0240
3 16 6 5.6323 -0.1720
3 16 7 8.8284 -0.1821
3 16 8 12.8064 -0.2001
3 16 9 -19.6461 0.0121
3 16 10 8.9257 -0.0727
3 16 11 -0.3440 -0.0261
3 16 12 4.1986 -0.1797
3 16 13 14.4495 -0.5492
3 16 14 5.2794 0.1992
3 17 0 -17.8069 -0.0582
3 17 1 -1.5573 -0.0369
3 17 2 0.6724 -0.0976
3 17 3 -24.1612 -0.0921
3 17 4 -11.5355 -0.0762
3 17 5 -9.2516 -0.0965
3 17 6 -9.6915 0.1291
3 17 7 12.3124 -0.0631
3 17 8 -1.6495 0.1213
3 17 9 16.7979 -0.7308
3 17 10 6.5080 -0.7198
3 17 11 13.5429 0.0358
3 17 12 -15.5080 0.0584
3 17 13 4.8379 0.3100
3 18 0 11.8852 0.0786
3 18 1 -12.2658 -0.1961
3 18 2 3.2450 0.2086
3 18 3 6.6720 -0.0947
3 18 4 5.3132 0.1904
3 18 5 27.8752 -0.0703
3 18 6 7.6301 -0.3212
3 18 7 9.2421 -0.2525
3 18 8 7.1666 0.0209
3 18 9 6.4996 0.2013
3 18 10 3.8203 -0.0727
3 18 11 6.3457 0.3507
3 18 12 -8.1588 -0.6980
3 19 0 2.4102 0.1346
3 19 1 -11.3370 -0.0250
3 19 2 14.5221 0.2145
3 19 3 2.1952 0.0903
3 19 4 2.5036 -0.1620
3 19 5 -2.7146 0.1713
3 19 6 17.8065 -0.1626
3 19 7 1.5130 0.2139
3 19 8 9.4639 0.1565
3 19 9 4.1578 -0.3825
3 19 10 -12.9372 0.2404
3 19 11 1.8432 -0.0621
3 20 0 18.7264 0.0633
3 20 1 -2.6314 0.0146
3 20 2 8.8621 -0.2182
3 20 3 10.8924 -0.2106
3 20 4 -0.0301 0.0251
3 20 5 13.0384 -0.3336
3 20 6 -8.4874 0.0740
3 20 7 2.0451 -0.3130
3 20 8 -17.3734 0.0037
3 20 9 18.2599 -0.3458
3 20 10 -8.2445 -0.0972
3 21 0 17.6368 -0.1637
3 21 1 -2.5235 -0.0602
3 21 2 6.0357 -0.0930
3 21 3 5.9752 0.1290
3 21 4 5.3335 -0.0780
3 21 5 -0.3609 -0.0752
3 21 6 9.0961 -0.0122
3 21 7 -9.0217 0.1357
3 21 8 7.2865 0.0833
3 22 0 2.6879 -0.1252
3 22 1 0.7712 0.1836
3 22 2 2.5674 -0.4050
3 22 3 -5.9923 0.0933
3 22 4 -2.9509 -0.2128
3 22 5 4.4501 -0.0566
3 22 6 -10.3276 0.2429
3 23 0 3.5102 -0.0251
3 23 1 6.5791 0.0398
3 23 2 8.6422 -0.0987
3 23 3 -0.2295 -0.0520
3 23 4 10.8819 0.0307
4 0 0 160.0452 0.3333
4 0 2 62.7301 0.3589
4 0 4 12.3953 2.1620
4 0 6 -41.5342 3.7867
4 0 8 17.7014 0.8181
4 0 10 -6.9477 -0.1268
4 0 12 -3.6118 -0.2499
4 0 14 44.9551 -1.2201
4 0 16 10.0669 -1.2493
4 0 18 23.0082 -0.0719
4 1 0 -43.3977 0.1917
4 1 1 75.7981 0.4172
4 1 2 46.3494 0.0060
4 1 3 -37.9572 -0.1847
4 1 4 25.5182 0.8578
4 1 5 -25.3582 -1.6960
4 1 6 -8.6349 1.5026
4 1 7 -27.9475 -1.5813
4 1 8 13.9995 -0.5992
4 1 9 -15.5999 0.3144
4 1 10 -2.2262 -0.6953
4 1 11 21.4601 -0.1367
4 1 12 5.3949 -0.4145
4 1 13 -2.1350 0.0816
4 1 14 16.2857 -1.7966
4 1 15 22.8707 1.8841
4 1 16 -7.7842 -0.3226
4 1 17 72.2143 1.1691
4 1 18 -17.3467 0.5553
4 1 19 31.6782 -0.1847
4 2 0 65.5239 0.4292
4 2 1 109.2275 -0.2525
4 2 2 52.1440 0.9774
4 2 3 -10.1389 -0.1716
4 2 4 -17.3729 1.0118
4 2 5 47.3611 -1.0763
4 2 6 -30.0815 1.1315
4 2 7 5.9549 -0.9374
4 2 8 -22.7565 0.5616
4 2 9 0.0924 -0.4227
4 2 10 -2.5628 -0.9150
4 2 11 -3.7689 -0.5315
4 2 12 20.5615 -0.0173
4 2 13 -10.1499 0.9600
4 2 14 32.4422 -0.6312
4 2 15 -8.2184 1.5361
4 2 16 6.6184 -0.9487
4 2 17 45.6564 0.5849
4 2 18 0.7863 0.4803
4 2 19 -6.0312 0.3109
4 3 0 -58.2561 -0.5149
4 3 1 -91.2824 -0.6935
4 3 2 -8.6814 -0.3384
4 3 3 -12.8096 -1.2530
4 3 4 3.4211 0.2951
4 3 5 -23.1615 -0.4024
4 3 6 -13.7877 -0.2410
4 3 7 -31.1398 -1.1757
4 3 8 48.4057 -0.1130
4 3 9 -8.4700 -0.7144
4 3 10 20.6459 -0.1266
4 3 11 -2.9883 0.3647
4 3 12 -2.3759 -0.3162
4 3 13 23.4537 0.6065
4 3 14 2.4953 -0.1221
4 3 15 17.8991 1.5936
4 3 16 -16.7706 -0.2031
4 3 17 -13.9964 0.9147
4 3 18 -36.9003 0.2202
4 3 19 -23.4852 0.3782
4 4 0 -62.8077 0.2592
4 4 1 -37.7543 -0.0488
4 4 2 -2.0493 0.1153
4 4 3 -20.9896 -0.5066
4 4 4 -6.1226 -0.2023
4 4 5 46.1761 0.1823
4 4 6 16.5138 -1.1423
4 4 7 26.9493 -0.0205
4 4 8 -15.7525 0.0814
4 4 9 -16.9065 -0.7707
4 4 10 -4.7059 0.1695
4 4 11 2.3398 0.4892
4 4 12 10.0353 -0.2538
4 4 13 2.2927 0.3474
4 4 14 -6.4512 -0.2019
4 4 15 -9.8929 0.3871
4 4 16 3.6250 0.0898
4 4 17 -13.7972 0.7084
4 4 18 -8.5167 -0.2849
4 4 19 -14.2652 0.0626
4 5 0 -39.7707 -0.1114
4 5 1 -39.5178 -0.4526
4 5 2 -93.5421 0.1603
4 5 3 16.2587 -0.3404
4 5 4 -55.1740 -0.1105
4 5 5 23.3659 -0.1555
4 5 6 -11.0498 -0.8140
4 5 7 21.9839 0.1779
4 5 8 51.8482 0.1274
4 5 9 27.0791 -0.8544
4 5 10 25.5589 0.3707
4 5 11 -5.6663 -0.0659
4 5 12 3.4911 0.0403
4 5 13 -14.3999 0.6939
4 5 14 -17.5075 0.5856
4 5 15 -21.3056 -0.1402
4 5 16 -23.3417 -0.0988
4 5 17 -40.8452 0.1961
4 5 18 -26.4861 -0.3395
4 5 19 -18.3051 0.7404
4 6 0 -67.3089 -0.0929
4 6 1 -53.6740 -0.0149
4 6 2 -42.3518 -0.3793
4 6 3 -4.9904 -0.0875
4 6 4 46.2245 -0.3144
4 6 5 16.8029 0.0218
4 6 6 60.7100 -0.6112
4 6 7 6.0225 0.3646
4 6 8 36.5922 -0.1736
4 6 9 2.9301 -0.0288
4 6 10 -4.5052 0.8575
4 6 11 9.1380 0.0156
4 6 12 -16.7218 -0.1407
4 6 13 -14.0219 -0.0269
4 6 14 -34.7905 0.0543
4 6 15 -8.0799 -0.0971
4 6 16 -4.9630 0.1914
4 6 17 -13.5252 -0.1455
4 6 18 15.2487 -0.6419
4 7 0 -11.6593 0.3600
4 7 1 71.8972 -0.0373
4 7 2 -25.6637 -0.0953
4 7 3 33.8683 0.0511
4 7 4 -19.7866 -0.1090
4 7 5 38.7826 -0.1643
4 7 6 2.2440 0.0812
4 7 7 55.9772 0.3480
4 7 8 -12.8723 -0.1725
4 7 9 19.6391 -0.0380
4 7 10 5.8304 0.2450
4 7 11 -19.1020 -0.0102
4 7 12 15.0473 0.1887
4 7 13 -16.7109 0.0982
4 7 14 3.9768 -0.1893
4 7 15 -7.3864 -0.5313
4 7 16 -15.6807 0.2021
4 7 17 -11.7063 -0.0697
4 7 18 5.9844 0.0804
4 8 0 -36.4830 -0.1973
4 8 1 77.7766 0.1482
4 8 2 -43.4514 0.1361
4 8 3 36.9825 0.3327
4 8 4 38.6872 -0.0084
4 8 5 -41.7483 -0.0578
4 8 6 16.8307 0.0672
4 8 7 -2.8823 0.1556
4 8 8 6.9472 0.0058
4 8 9 15.4781 0.4274
4 8 10 20.3698 0.1490
4 8 11 -2.2037 -0.2662
4 8 12 -5.9650 0.0848
4 8 13 -7.9507 0.0806
4 8 14 -20.9013 0.2156
4 8 15 4.7099 -0.0925
4 8 16 -13.1375 0.0205
4 8 17 21.9312 -0.1256
4 8 18 18.0805 0.0961
4 9 0 41.0595 0.1007
4 9 1 47.3532 -0.0922
4 9 2 15.5120 -0.3468
4 9 3 13.0283 -0.2513
4 9 4 37.8889 -0.3100
4 9 5 -7.5561 -0.1241
4 9 6 -5.2148 0.2819
4 9 7 25.1475 -0.1014
4 9 8 -48.0436 0.1940
4 9 9 -21.5248 0.1410
4 9 10 -2.0033 0.0541
4 9 11 -0.5695 0.0440
4 9 12 1.2198 0.0206
4 9 13 9.6491 -0.0662
4 9 14 19.7636 0.0877
4 9 15 10.8983 0.2543
4 9 16 0.4959 0.1119
4 9 17 1.9050 0.0760
4 10 0 -31.9654 0.0723
4 10 1 35.1373 -0.0078
4 10 2 -39.7625 0.1721
4 10 3 20.4133 0.2209
4 10 4 -17.8454 0.1338
4 10 5 -36.1422 0.4325
4 10 6 -34.0152 0.2947
4 10 7 -2.2917 0.0151
4 10 8 -8.6560 0.0320
4 10 9 -9.6610 0.2541
4 10 10 12.7448 0.0281
4 10 11 3.9635 0.4430
4 10 12 2.9155 0.1025
4 10 13 9.8839 -0.0037
4 10 14 13.6292 0.0006
4 10 15 13.2710 -0.3412
4 10 16 -10.4911 -0.1023
4 10 17 -1.8229 0.0231
4 11 0 17.5381 -0.0190
4 11 1 2.2374 -0.1900
4 11 2 15.0980 0.0168
4 11 3 11.1836 0.1071
4 11 4 10.2416 -0.3025
4 11 5 -9.3247 0.1229
4 11 6 0.0303 -0.0765
4 11 7 -20.6906 0.0543
4 11 8 -12.6787 0.2839
4 11 9 -1.5832 0.0563
4 11 10 -23.0995 -0.1221
4 11 11 27.8745 -0.2258
4 11 12 -0.4399 -0.0755
4 11 13 -0.8106 0.0547
4 11 14 8.6885 0.0002
4 11 15 -2.7214 0.0194
4 11 16 11.0365 -0.2000
4 11 17 13.5700 0.1913
4 12 0 14.1130 0.1697
4 12 1 -57.1365 -0.2028
4 12 2 -10.1499 0.2422
4 12 3 -12.2336 0.0704
4 12 4 -41.4366 0.0794
4 12 5 8.9486 0.1864
4 12 6 -3.7102 0.1577
4 12 7 -12.7241 0.0433
4 12 8 5.2558 -0.0011
4 12 9 0.8450 0.0356
4 12 10 -8.1251 0.0695
4 12 11 1.8977 0.0771
4 12 12 -3.5599 0.1359
4 12 13 1.2840 0.0462
4 12 14 24.4300 0.1521
4 12 15 12.5712 0.1835
4 12 16 -2.2708 0.5467
4 13 0 -15.8943 0.1359
4 13 1 0.5928 0.0389
4 13 2 31.0538 -0.0447
4 13 3 29.4677 0.2190
4 13 4 -1.0207 -0.0792
4 13 5 7.0322 0.3618
4 13 6 23.3186 -0.0484
4 13 7 -3.1954 0.1275
4 13 8 -0.3807 -0.2101
4 13 9 9.9835 0.3138
4 13 10 -19.7839 -0.0629
4 13 11 11.3158 0.1228
4 13 12 -0.4926 0.0381
4 13 13 2.6281 0.0363
4 13 14 -2.5675 -0.1844
4 13 15 -18.5985 -0.3265
4 13 16 13.2737 -0.1032
4 14 0 43.1073 -0.3047
4 14 1 -9.6247 0.0385
4 14 2 20.0356 0.0372
4 14 3 -18.6369 0.1835
4 14 4 -11.9246 0.0172
4 14 5 3.0281 0.1356
4 14 6 -3.1435 0.1936
4 14 7 0.2448 0.2749
4 14 8 -2.7920 0.1646
4 14 9 17.8283 0.0629
4 14 10 5.2880 -0.1904
4 14 11 -0.0097 -0.0296
4 14 12 -21.7723 0.3701
4 14 13 -1.8872 -0.0943
4 14 14 -1.4552 0.4259
4 14 15 -0.8528 0.0224
4 15 0 0.7180 -0.0201
4 15 1 -9.5837 0.3245
4 15 2 20.0327 0.0873
4 15 3 -7.8201 0.1724
4 15 4 22.6098 0.1718
4 15 5 6.0185 0.1227
4 15 6 4.9962 -0.0506
4 15 7 10.3956 -0.0754
4 15 8 -1.7808 0.2177
4 15 9 -11.5007 0.2252
4 15 10 0.4780 -0.0432
4 15 11 -2.0183 0.0152
4 15 12 -5.2671 -0.4137
4 15 13 10.2923 -0.7265
4 15 14 -1.7751 0.1596
4 16 0 6.0721 -0.0688
4 16 1 19.0218 0.0744
4 16 2 17.1684 -0.0237
4 16 3 -10.9137 -0.1053
4 16 4 -3.1633 0.0934
4 16 5 -4.9811 0.1487
4 16 6 -14.5820 0.2006
4 16 7 9.7954 0.1609
4 16 8 -8.2309 0.0225
4 16 9 13.1114 0.0041
4 16 10 -4.2693 -0.3776
4 16 11 7.9710 0.6238
4 16 12 -4.3180 0.3101
4 16 13 3.5113 -0.1252
4 17 0 16.1101 -0.0671
4 17 1 -20.1541 -0.0960
4 17 2 -8.5250 -0.0072
4 17 3 -23.9614 0.1360
4 17 4 2.3644 -0.0974
4 17 5 -9.4227 0.1222
4 17 6 -3.9527 -0.3700
4 17 7 -17.6148 -0.0876
4 17 8 2.3100 0.0668
4 17 9 6.9405 -0.2573
4 17 10 4.2502 0.0042
4 17 11 6.8205 -0.3855
4 17 12 -4.9058 -0.0198
4 17 13 5.3879 -0.6865
4 18 0 -3.7248 0.0013
4 18 1 -16.3261 0.1463
4 18 2 -0.5553 0.0824
4 18 3 -3.7798 -0.0061
4 18 4 3.0835 0.0543
4 18 5 0.3222 -0.1427
4 18 6 6.2533 0.0530
4 18 7 15.4723 -0.0755
4 18 8 -2.8969 0.1635
4 18 9 6.7356 -0.0082
4 18 10 -12.3270 0.3671
4 18 11 0.8979 -0.0798
4 18 12 12.7868 -0.1786
4 19 0 -1.9749 0.0581
4 19 1 -2.0638 -0.0030
4 19 2 -16.5856 -0.1851
4 19 3 -8.0974 0.0021
4 19 4 -7.5983 0.0261
4 19 5 -4.2998 -0.0111
4 19 6 -5.9609 -0.1485
4 19 7 -0.0141 -0.0009
4 19 8 -5.5096 -0.7795
4 19 9 10.1341 -0.5232
4 19 10 3.2520 -0.2358
4 20 0 1.4869 -0.1954
4 20 1 -7.8596 0.4589
4 20 2 4.2794 -0.2446
4 20 3 -3.8695 0.2639
4 20 4 18.7925 -0.1698
4 20 5 -2.5785 -0.1986
4 20 6 3.5875 -0.0073
4 20 7 2.2590 -0.0235
4 20 8 4.3024 0.1806
4 20 9 -4.7430 0.0499
4 21 0 -21.9154 -0.0852
4 21 1 3.8022 0.1330
4 21 2 -11.2450 0.1917
4 21 3 -7.9246 -0.1262
4 21 4 -3.9766 0.2044
4 21 5 9.0073 -0.3087
4 21 6 -6.5646 0.1854
4 21 7 16.3736 -0.0505
4 21 8 -4.8641 -0.2716
4 22 0 -2.3663 0.0934
4 22 1 6.5184 0.0873
4 22 2 11.4387 -0.2011
4 22 3 2.3399 0.1225
4 22 4 15.6194 -0.2306
4 22 5 -6.4384 0.1780
4 22 6 4.5484 -0.1594
4 23 0 -4.1255 -0.1903
4 23 1 2.4652 -0.2049
4 23 2 -3.7105 -0.0066
4 23 3 3.9640 -0.1940
5 0 0 -182.3639 0.4197
5 0 2 -21.9777 0.2629
5 0 4 27.3578 0.8088
5 0 6 -23.1448 0.6691
5 0 8 11.9627 0.2149
5 0 10 12.4932 0.5878
5 0 12 -0.2434 -0.9117
5 0 14 -5.6910 -1.6892
5 0 16 -76.8745 -0.5196
5 0 18 -72.3119 -0.3533
5 1 0 22.2030 0.3924
5 1 1 15.8282 0.4283
5 1 2 -38.4469 1.1720
5 1 3 5.4992 -0.0587
5 1 4 -23.1177 -0.3312
5 1 5 47.8172 0.7376
5 1 6 17.3037 0.4449
5 1 7 17.6331 0.3990
5 1 8 -25.8488 0.7715
5 1 9 -18.5605 0.1273
5 1 10 11.4610 -0.5077
5 1 11 -5.1796 0.1454
5 1 12 1.5343 -0.5745
5 1 13 -9.1059 -0.1372
5 1 14 -14.6273 -1.2751
5 1 15 -17.8107 -0.2102
5 1 16 17.6144 -0.6986
5 1 17 8.0904 -0.2383
5 1 18 20.1492 -0.3957
5 1 19 -32.5495 -0.0681
5 2 0 1.9978 -0.0125
5 2 1 -53.3264 0.2685
5 2 2 -16.2667 0.6884
5 2 3 38.4978 1.1739
5 2 4 -6.7353 -0.3638
5 2 5 -52.6660 2.6147
5 2 6 -8.5426 -0.5286
5 2 7 4.7554 0.6218
5 2 8 16.0797 0.5405
5 2 9 15.2982 -0.0674
5 2 10 1.9992 -0.7351
5 2 11 -13.2085 0.1880
5 2 12 -19.6834 -0.4177
5 2 13 19.4318 -0.4962
5 2 14 -20.0142 0.0651
5 2 15 4.2163 -0.6448
5 2 16 -7.2318 -0.5228
5 2 17 -27.3271 0.2639
5 2 18 -5.4177 0.1280
5 3 0 16.7675 0.5778
5 3 1 11.1028 0.2268
5 3 2 -53.0448 -0.0675
5 3 3 51.2091 0.5258
5 3 4 -48.7019 -0.8034
5 3 5 17.8987 1.5818
5 3 6 -7.9156 -0.9775
5 3 7 -4.1561 -0.0688
5 3 8 -36.5482 0.4880
5 3 9 -14.1711 -0.5989
5 3 10 15.8028 -0.0479
5 3 11 -16.3221 -0.1383
5 3 12 15.5255 -0.5731
5 3 13 0.2542 -1.3284
5 3 14 2.8098 0.9057
5 3 15 16.1037 -0.3507
5 3 16 40.0888 0.5769
5 3 17 1.6485 0.4630
5 3 18 32.3944 -0.6568
5 4 0 117.7984 -0.2526
5 4 1 68.3095 0.8924
5 4 2 3.3756 0.0011
5 4 3 9.4658 0.9590
5 4 4 -44.6292 -0.5873
5 4 5 -44.7146 0.8518
5 4 6 2.9014 -0.6979
5 4 7 -30.5002 0.5977
5 4 8 -9.2286 -0.2421
5 4 9 12.3950 -0.8511
5 4 10 -12.7192 -0.4039
5 4 11 25.5106 0.0119
5 4 12 0.2390 0.3213
5 4 13 33.9834 -0.2686
5 4 14 -0.4935 0.8599
5 4 15 8.6933 -0.7749
5 4 16 37.4662 0.4251
5 4 17 -9.6250 0.8045
5 4 18 33.4449 0.0866
5 5 0 -22.9539 -0.4039
5 5 1 -6.4673 -0.0471
5 5 2 -11.8792 -0.9762
5 5 3 4.2029 0.3423
5 5 4 -41.4903 -0.4284
5 5 5 -36.7250 0.0482
5 5 6 -45.7474 -0.8642
5 5 7 -17.5049 0.1450
5 5 8 -9.3998 -0.5343
5 5 9 16.4522 -0.0187
5 5 10 9.5674 0.1265
5 5 11 7.1816 -0.2876
5 5 12 17.2173 0.1350
5 5 13 5.2622 0.0149
5 5 14 25.3474 1.1689
5 5 15 4.5138 -0.1867
5 5 16 15.4628 0.5709
5 5 17 -10.3828 -0.0293
5 5 18 5.3330 -0.1042
5 6 0 -29.3697 -0.1387
5 6 1 72.0482 0.1358
5 6 2 -11.6954 -0.4874
5 6 3 -3.1261 0.2375
5 6 4 -5.9007 -0.0308
5 6 5 6.8258 -0.1954
5 6 6 -0.8626 -0.0968
5 6 7 -4.8546 0.0965
5 6 8 -35.8398 -0.7324
5 6 9 -16.4733 0.0464
5 6 10 8.3197 0.2082
5 6 11 5.7908 -0.1586
5 6 12 19.2455 0.1846
5 6 13 18.6681 -0.2523
5 6 14 15.2549 0.2269
5 6 15 13.8668 -0.2133
5 6 16 -7.0732 0.5472
5 6 17 9.1589 -0.1909
5 6 18 4.0955 -0.1010
5 7 0 -28.4692 -0.4470
5 7 1 -21.1527 0.2971
5 7 2 -8.2407 -0.0511
5 7 3 -57.4608 0.3031
5 7 4 5.3703 -0.2651
5 7 5 -55.6254 -0.3892
5 7 6 -16.8890 -0.1512
5 7 7 13.8490 -0.0451
5 7 8 6.6851 -0.6588
5 7 9 21.0115 0.2501
5 7 10 -0.6814 -0.2506
5 7 11 17.1985 -0.0946
5 7 12 -15.9535 0.3346
5 7 13 5.6823 0.2609
5 7 14 -0.6693 -0.0509
5 7 15 -17.7698 -0.1285
5 7 16 -15.1326 0.0549
5 7 17 -19.6030 -0.0255
5 7 18 -19.9320 0.4138
5 8 0 -42.7283 0.0983
5 8 1 -23.6194 0.0379
5 8 2 -6.9743 -0.2281
5 8 3 16.6267 0.0386
5 8 4 29.2394 -0.3647
5 8 5 43.3262 -0.1510
5 8 6 0.1798 -0.0458
5 8 7 27.6466 -0.1140
5 8 8 -0.4297 -0.2864
5 8 9 -21.6100 0.3783
5 8 10 5.3342 -0.3790
5 8 11 -9.2296 -0.1294
5 8 12 -15.0073 0.0299
5 8 13 -15.9639 -0.0600
5 8 14 -8.1187 0.1969
5 8 15 -10.8961 0.0597
5 8 16 2.6802 -0.0826
5 8 17 10.6284 -0.5105
5 9 0 -4.9625 -0.2155
5 9 1 -37.5519 0.0116
5 9 2 -7.6951 -0.3387
5 9 3 -34.1336 0.1405
5 9 4 14.2750 -0.4266
5 9 5 4.5618 0.0937
5 9 6 29.2962 -0.1413
5 9 7 2.9840 -0.2958
5 9 8 14.2565 -0.2892
5 9 9 6.0112 0.2087
5 9 10 -20.7063 0.0323
5 9 11 -2.5143 0.3490
5 9 12 -24.2688 0.1654
5 9 13 2.1800 -0.2139
5 9 14 -6.5314 -0.0844
5 9 15 -8.8839 0.0639
5 9 16 -7.3699 0.0634
5 9 17 -16.1484 0.0571
5 10 0 41.6725 0.1142
5 10 1 -43.8123 0.1319
5 10 2 47.6833 0.1273
5 10 3 23.6369 0.1161
5 10 4 -4.1801 -0.1971
5 10 5 29.8617 -0.0574
5 10 6 21.0022 -0.1333
5 10 7 1.1151 0.0556
5 10 8 13.8721 0.1292
5 10 9 17.6829 0.1328
5 10 10 -26.8378 -0.2797
5 10 11 2.6669 -0.0639
5 10 12 -12.5088 0.1209
5 10 13 -23.9028 0.1073
5 10 14 -17.2693 -0.2013
5 10 15 -22.5576 -0.2256
5 10 16 26.8700 -0.3187
5 10 17 23.2273 -0.0157
5 11 0 24.6318 -0.2176
5 11 1 -33.4774 -0.1305
5 11 2 12.2952 -0.4665
5 11 3 9.1829 -0.1666
5 11 4 -7.1698 -0.4697
5 11 5 23.6521 0.0363
5 11 6 26.6096 -0.2336
5 11 7 -18.7637 0.2308
5 11 8 8.1062 -0.1956
5 11 9 9.6585 0.1274
5 11 10 -4.5084 -0.0705
5 11 11 -15.0818 0.0687
5 11 12 -10.3738 0.1343
5 11 13 0.5003 -0.0304
5 11 14 5.0801 0.3621
5 11 15 -0.5827 0.1704
5 11 16 3.0875 0.5586
5 12 0 7.3165 -0.1021
5 12 1 -13.7151 0.2359
5 12 2 31.9894 -0.1451
5 12 3 -1.2846 0.1864
5 12 4 3.6946 0.0934
5 12 5 -4.5753 0.1367
5 12 6 16.0366 -0.1404
5 12 7 -2.2339 0.0169
5 12 8 -10.9690 -0.1087
5 12 9 8.2619 0.2560
5 12 10 -10.6072 0.1908
5 12 11 3.8860 -0.0778
5 12 12 5.4823 0.0469
5 12 13 3.5402 -0.2873
5 12 14 -5.3205 -0.2026
5 12 15 -15.6748 -0.1622
5 12 16 8.3769 -0.3307
5 13 0 24.1222 -0.4204
5 13 1 7.6833 -0.0114
5 13 2 31.7123 -0.1820
5 13 3 -6.2035 -0.2702
5 13 4 11.4712 -0.1491
5 13 5 4.3411 -0.0926
5 13 6 -12.6417 0.0369
5 13 7 2.8890 0.1269
5 13 8 3.2593 0.0350
5 13 9 2.9775 -0.0418
5 13 10 9.0275 -0.0624
5 13 11 0.8809 0.0577
5 13 12 -8.0058 0.3657
5 13 13 7.1398 -0.1384
5 13 14 -6.0210 -0.1014
5 13 15 4.9480 -0.2874
5 14 0 -24.3977 -0.1316
5 14 1 -1.4630 0.2827
5 14 2 -10.2213 0.0131
5 14 3 -19.8990 0.0604
5 14 4 18.8646 0.0248
5 14 5 -1.0703 0.0595
5 14 6 -16.1055 -0.1086
5 14 7 -4.7135 0.1235
5 14 8 -3.9132 -0.0099
5 14 9 -16.1706 0.2863
5 14 10 7.7232 -0.2794
5 14 11 -3.0550 -0.0031
5 14 12 6.1533 -0.2107
5 14 13 3.4428 -0.3723
5 14 14 12.4253 0.2086
5 15 0 5.6320 -0.0301
5 15 1 24.2297 -0.0624
5 15 2 24.4033 -0.1909
5 15 3 2.6523 -0.1468
5 15 4 15.8779 -0.0506
5 15 5 1.7705 0.0991
5 15 6 -0.4243 -0.0689
5 15 7 2.5409 -0.0991
5 15 8 -5.4418 0.1619
5 15 9 -9.0293 0.0771
5 15 10 -19.3630 0.3387
5 15 11 7.3223 0.1656
5 15 12 3.5415 0.4889
5 15 13 11.1594 -0.0367
5 15 14 -9.6640 -0.0189
5 16 0 28.4627 -0.0041
5 16 1 -0.5749 -0.0507
5 16 2 -7.3072 0.0584
5 16 3 -8.6652 0.0926
5 16 4 -9.4655 0.1222
5 16 5 -11.3163 0.2398
5 16 6 -17.8655 0.1710
5 16 7 -21.1496 0.1444
5 16 8 -0.0887 0.1954
5 16 9 1.3398 -0.1460
5 16 10 6.4799 0.1863
5 16 11 -5.7702 0.2155
5 16 12 -0.4581 0.0633
5 16 13 -6.0929 0.3889
5 17 0 -2.4893 0.2029
5 17 1 14.0166 0.0105
5 17 2 -6.7863 0.0814
5 17 3 22.0663 -0.0464
5 17 4 1.5093 -0.0181
5 17 5 -3.6296 0.0567
5 17 6 4.2931 -0.1477
5 17 7 2.0177 0.5539
5 17 8 -10.2603 0.1307
5 17 9 -11.5436 0.2967
5 17 10 -11.5132 0.2030
5 17 11 -9.5320 -0.3748
5 17 12 11.6954 -0.4880
5 18 0 18.7445 -0.1922
5 18 1 7.1425 0.2111
5 18 2 -5.2705 -0.2006
5 18 3 -8.7572 0.3367
5 18 4 -10.3586 0.2008
5 18 5 -13.1537 0.3197
5 18 6 -4.2411 0.1557
5 18 7 -4.6928 0.0972
5 18 8 -7.8965 -0.0280
5 18 9 3.8990 -0.4628
5 18 10 6.5917 0.4873
5 18 11 1.2420 -0.2881
5 19 0 -0.5798 -0.1884
5 19 1 10.3569 -0.0893
5 19 2 -4.6415 0.0930
5 19 3 8.6190 -0.2131
5 19 4 -6.9264 0.1594
5 19 5 -6.5129 -0.2445
5 19 6 -6.6698 0.0166
5 19 7 -1.8287 0.0586
5 19 8 6.4986 -0.2908
5 19 9 -6.2572 -0.0819
5 19 10 11.0152 -0.3148
5 20 0 -18.7665 -0.0305
5 20 1 -0.1278 0.0286
5 20 2 -13.7408 0.1291
5 20 3 -1.6458 0.0737
5 20 4 -7.6631 -0.1465
5 20 5 2.6297 0.1598
5 20 6 3.7515 -0.0770
5 20 7 7.2447 0.3221
5 20 8 -1.9783 -0.0205
5 21 0 7.4233 -0.1259
5 21 1 -3.4897 -0.0124
5 21 2 -4.0057 -0.0198
5 21 3 -0.3527 0.2343
5 21 4 -4.8966 0.0347
5 21 5 -4.8549 0.0777
5 21 6 13.8485 -0.1617
5 21 7 -5.9204 -0.7259
5 22 0 -10.2084 0.6659
5 22 1 -1.3363 -0.3026
5 22 2 -8.7556 0.3200
5 22 3 13.9865 -0.1619
5 22 4 -7.0704 -0.2617
5 22 5 -1.6156 0.0828
5 23 0 1.9294 0.0863
5 23 1 -15.0968 0.2578
6 0 0 91.9890 -0.6994
6 0 2 -47.5584 -1.9880
6 0 4 -21.8848 -3.6774
6 0 6 14.2117 -1.0563
6 0 8 -62.7039 0.0261
6 0 10 2.0486 0.0076
6 0 12 -0.7974 1.3344
6 0 14 6.7965 1.5123
6 1 0 60.6483 -0.5182
6 1 1 26.0623 -0.0026
6 1 2 19.0821 -0.8976
6 1 3 57.7632 1.4373
6 1 4 -3.9001 -1.8228
6 1 5 -41.4758 1.3948
6 1 6 24.6158 -0.0162
6 1 7 3.9091 -0.0804
6 1 8 6.5115 0.8500
6 1 9 1.7393 0.0981
6 1 10 2.7606 0.1956
6 1 11 -16.8874 0.2864
6 1 12 3.3127 1.9284
6 1 13 19.9612 -1.7425
6 1 14 -17.4060 0.7867
6 1 15 14.0873 -1.4157
6 1 16 21.0522 -0.6543
6 1 17 -0.9361 0.1628
6 1 18 12.0626 -0.3002
6 2 0 -29.5323 -0.9313
6 2 1 -12.1273 0.0060
6 2 2 1.1381 -1.6141
6 2 3 39.1006 0.6224
6 2 4 -3.3750 -0.8011
6 2 5 3.2840 0.8279
6 2 6 3.2316 -0.5904
6 2 7 -13.6527 0.3076
6 2 8 -17.9788 0.8243
6 2 9 21.8459 0.5240
6 2 10 -9.9257 0.2814
6 2 11 -3.6125 -0.5599
6 2 12 -5.0499 0.4568
6 2 13 0.9582 -1.5657
6 2 14 3.1022 1.3143
6 2 15 -31.4556 -0.7270
6 2 16 16.7508 -0.5446
6 2 17 -61.5617 -0.5463
6 2 18 15.1241 -0.6503
6 3 0 41.6201 0.1930
6 3 1 38.8886 1.5260
6 3 2 48.7357 -0.2646
6 3 3 1.9039 0.5608
6 3 4 30.5469 0.2635
6 3 5 49.6823 0.6023
6 3 6 39.5398 0.1892
6 3 7 -7.8132 1.0119
6 3 8 -15.9019 -0.0561
6 3 9 2.1253 -0.2692
6 3 10 -25.7436 0.2913
6 3 11 11.0478 -0.4035
6 3 12 -3.5418 0.0898
6 3 13 -14.8887 -1.3900
6 3 14 -5.3694 -0.0086
6 3 15 -23.7185 -1.0950
6 3 16 32.6869 -0.0899
6 3 17 -0.1064 -0.2618
6 3 18 12.4885 -0.0951
6 4 0 -94.0486 0.0035
6 4 1 5.8342 0.3524
6 4 2 33.4059 -0.1682
6 4 3 -14.9784 0.0183
6 4 4 13.8964 1.0295
6 4 5 -9.0531 -0.2337
6 4 6 -8.7210 0.0909
6 4 7 0.4377 0.7711
6 4 8 38.0703 -0.1319
6 4 9 -9.8808 -0.2968
6 4 10 -6.3585 0.3083
6 4 11 -29.4823 -0.6249
6 4 12 -5.2800 0.0151
6 4 13 -21.0691 -0.1770
6 4 14 -2.2044 -0.0039
6 4 15 -9.9030 -0.6957
6 4 16 -33.2031 0.2521
6 4 17 -15.3133 -0.2053
6 4 18 -23.9871 0.6460
6 5 0 -35.9113 0.1394
6 5 1 -5.5767 0.1992
6 5 2 39.5597 0.2329
6 5 3 -30.3059 0.1041
6 5 4 71.2090 1.0888
6 5 5 42.9684 -0.0840
6 5 6 -3.5063 0.2402
6 5 7 14.1463 0.6516
6 5 8 -28.1458 -0.5177
6 5 9 -3.1272 0.2003
6 5 10 -25.6702 0.1056
6 5 11 4.6135 -0.6018
6 5 12 -15.8324 -0.7337
6 5 13 -16.8619 0.1994
6 5 14 7.2725 -0.2645
6 5 15 11.6144 0.1038
6 5 16 17.9231 0.3859
6 5 17 22.4695 -0.6695
6 6 0 32.6443 0.1451
6 6 1 19.1739 -0.0076
6 6 2 -11.0222 0.3851
6 6 3 -54.9305 -0.0519
6 6 4 7.9292 0.2261
6 6 5 -19.2401 -0.3254
6 6 6 -11.7953 0.2490
6 6 7 0.5365 0.1909
6 6 8 24.8453 -0.7272
6 6 9 -15.3769 0.0841
6 6 10 2.3206 0.0388
6 6 11 0.7146 -0.0469
6 6 12 14.3658 0.0892
6 6 13 0.7373 0.2167
6 6 14 13.9480 -0.4060
6 6 15 6.0816 0.2805
6 6 16 -12.5520 0.7604
6 6 17 6.7028 0.1703
6 7 0 9.8839 -0.0043
6 7 1 -26.5009 -0.0283
6 7 2 21.3835 0.0804
6 7 3 -27.5305 0.2316
6 7 4 7.7884 0.0489
6 7 5 -27.1319 -0.0887
6 7 6 -18.9394 0.3478
6 7 7 2.2786 -0.0164
6 7 8 17.4825 0.0697
6 7 9 5.7057 0.0869
6 7 10 14.6345 -0.3393
6 7 11 12.6020 -0.1483
6 7 12 3.6060 0.2280
6 7 13 3.9450 0.4889
6 7 14 -6.9290 -0.0253
6 7 15 22.1605 0.2713
6 7 16 10.6543 0.0310
6 7 17 9.1231 -0.1451
6 8 0 73.3098 -0.2292
6 8 1 -29.5688 -0.3837
6 8 2 -15.0524 0.0160
6 8 3 -14.3911 -0.0630
6 8 4 -7.2592 0.0178
6 8 5 -1.8182 0.0232
6 8 6 6.3248 0.0281
6 8 7 -17.4095 -0.3879
6 8 8 -8.8118 -0.1558
6 8 9 25.8374 0.2674
6 8 10 -0.4126 -0.0299
6 8 11 21.0760 0.1528
6 8 12 25.8715 -0.1230
6 8 13 20.6824 0.0111
6 8 14 17.2275 0.0440
6 8 15 -4.0514 0.5838
6 8 16 -6.1181 0.1377
6 8 17 -6.7420 -0.0670
6 9 0 37.9765 0.2123
6 9 1 -12.9698 0.3914
6 9 2 -1.9802 0.4216
6 9 3 -3.8947 0.2672
6 9 4 -52.5329 -0.0326
6 9 5 -36.0762 0.1710
6 9 6 9.3640 -0.1204
6 9 7 -15.3001 -0.0416
6 9 8 13.2385 0.1386
6 9 9 18.3960 -0.1333
6 9 10 14.7862 -0.1375
6 9 11 13.6833 -0.1014
6 9 12 24.8760 0.1691
6 9 13 -2.9726 -0.1439
6 9 14 -2.7472 -0.2138
6 9 15 -6.5482 -0.1694
6 9 16 -6.3193 0.1017
6 10 0 6.0009 -0.0778
6 10 1 -25.9834 0.0320
6 10 2 8.6043 -0.0540
6 10 3 14.2550 -0.3176
6 10 4 7.7875 -0.0650
6 10 5 -6.2937 -0.0864
6 10 6 10.1227 -0.0480
6 10 7 -4.6274 -0.1470
6 10 8 -2.1726 -0.0586
6 10 9 7.6873 -0.3734
6 10 10 14.6070 -0.1497
6 10 11 -7.2392 -0.1153
6 10 12 5.4377 0.0776
6 10 13 3.8424 0.0508
6 10 14 0.8193 0.2392
6 10 15 1.6430 0.1437
6 10 16 -10.8337 0.2270
6 11 0 -18.3119 0.1157
6 11 1 -8.2128 -0.0853
6 11 2 -30.8432 0.3324
6 11 3 -18.4045 -0.1303
6 11 4 -6.6834 0.2043
6 11 5 -9.6871 -0.0074
6 11 6 -8.9355 -0.2378
6 11 7 3.4943 -0.1334
6 11 8 -15.0150 -0.0336
6 11 9 -1.3754 0.0342
6 11 10 1.6596 0.2309
6 11 11 7.0852 -0.1173
6 11 12 6.6117 -0.1033
6 11 13 3.0974 0.0675
6 11 14 3.0106 0.1777
6 11 15 -2.7925 0.4226
6 11 16 -21.6398 0.1316
6 12 0 -23.6838 -0.0939
6 12 1 21.1827 -0.0393
6 12 2 9.5636 0.0179
6 12 3 -6.9839 -0.2350
6 12 4 10.1933 -0.1527
6 12 5 9.1248 -0.1037
6 12 6 -10.5385 -0.1547
6 12 7 15.6973 -0.1081
6 12 8 15.4663 -0.0164
6 12 9 -28.4037 -0.1129
6 12 10 7.5364 -0.0552
6 12 11 -11.2300 0.1538
6 12 12 -2.5085 0.2654
6 12 13 -11.8106 -0.0101
6 12 14 -8.3909 -0.1425
6 12 15 9.5054 -0.5071
6 13 0 -41.9388 0.0394
6 13 1 -6.7318 -0.0965
6 13 2 -31.8196 0.1318
6 13 3 -22.8272 -0.2498
6 13 4 10.2120 0.0331
6 13 5 -2.9883 -0.0052
6 13 6 -13.3684 0.1401
6 13 7 -1.7390 -0.0359
6 13 8 14.2296 0.0766
6 13 9 -3.3448 -0.1251
6 13 10 9.6845 -0.0589
6 13 11 -3.6320 -0.0102
6 13 12 -7.2765 0.0338
6 13 13 -2.9421 0.1158
6 13 14 5.1296 0.3319
6 14 0 -6.7931 0.2026
6 14 1 0.0953 -0.2271
6 14 2 3.4828 0.0315
6 14 3 12.9327 -0.1465
6 14 4 0.8251 -0.0827
6 14 5 23.2182 -0.1810
6 14 6 11.1790 -0.2798
6 14 7 18.3421 -0.4180
6 14 8 -2.2229 0.1324
6 14 9 -5.2171 -0.1691
6 14 10 -16.6620 -0.1950
6 14 11 3.0250 0.0261
6 14 12 0.1154 -0.3198
6 14 13 -0.0518 0.2662
6 14 14 -16.5803 -0.0684
6 15 0 -2.0193 0.0933
6 15 1 12.6998 -0.2381
6 15 2 -19.7033 0.0478
6 15 3 16.5200 -0.0602
6 15 4 -8.7695 0.0123
6 15 5 0.3603 0.2055
6 15 6 12.7578 -0.2063
6 15 7 -4.0385 0.0726
6 15 8 23.3518 -0.1206
6 15 9 3.9758 -0.0660
6 15 10 26.5821 0.1432
6 15 11 -16.1176 0.5545
6 15 12 4.1600 -0.0474
6 15 13 -12.9827 0.1946
6 16 0 -13.4536 0.1201
6 16 1 -4.3759 0.1105
6 16 2 0.2727 -0.0404
6 16 3 22.3083 -0.1229
6 16 4 16.4261 -0.1530
6 16 5 2.7466 -0.2020
6 16 6 16.1509 -0.1703
6 16 7 19.6471 0.0380
6 16 8 -8.7233 0.1420
6 16 9 9.2931 -0.5700
6 16 10 -6.0521 -0.0051
6 16 11 -1.6022 -0.2756
6 16 12 -3.4229 -0.4951
6 17 0 5.8709 -0.0731
6 17 1 11.8364 -0.1038
6 17 2 1.0791 0.0054
6 17 3 22.5294 -0.0575
6 17 4 2.5276 0.2435
6 17 5 18.8972 -0.1067
6 17 6 8.0749 0.0103
6 17 7 2.9891 0.1551
6 17 8 -2.4470 0.1489
6 17 9 -8.9202 0.3859
6 17 10 11.3000 0.2190
6 17 11 -4.0131 0.7136
6 18 0 -10.6771 0.0457
6 18 1 16.6964 -0.1151
6 18 2 1.1841 0.1083
6 18 3 1.5295 0.0863
6 18 4 -1.0526 0.0278
6 18 5 -7.5060 0.0844
6 18 6 -3.5784 -0.1009
6 18 7 -5.5296 0.1532
6 18 8 7.9666 -0.3311
6 18 9 -3.1306 0.2807
6 18 10 6.2536 0.2025
6 19 0 -0.2084 0.0644
6 19 1 -5.6729 0.1359
6 19 2 12.7138 -0.1537
6 19 3 10.1569 0.0038
6 19 4 -0.9107 -0.0389
6 19 5 7.8263 -0.0129
6 19 6 -9.2464 0.7439
6 19 7 -0.5921 0.4744
6 19 8 -7.6602 0.6758
6 19 9 -2.2720 0.5827
6 20 0 9.1656 0.2856
6 20 1 2.9601 -0.2220
6 20 2 -9.6161 0.2224
6 20 3 -8.2166 0.2950
6 20 4 -8.8571 0.1980
6 20 5 -2.6675 0.1641
6 20 6 5.5805 -0.0502
6 20 7 -17.0995 -0.1330
6 20 8 7.4407 -0.3492
6 21 0 8.2261 0.2660
6 21 1 4.7498 -0.0895
6 21 2 15.7870 -0.2672
6 21 3 6.3991 0.2423
6 21 4 -4.1793 -0.1867
6 21 5 -0.3259 0.2451
6 21 6 -16.9406 0.2975
6 22 0 4.9401 -0.1958
6 22 1 -7.9261 0.0899
6 22 2 -4.7597 -0.1459
6 22 3 -12.5851 -0.1584
6 22 4 -3.2982 -0.0022
6 23 0 -1.5882 0.0293
7 0 0 -2.5353 0.6041
7 0 2 3.4840 0.1363
7 0 4 22.5175 -0.5410
7 0 6 57.1136 -0.2009
7 0 8 17.3321 -0.5457
7 0 10 -4.4455 0.4288
7 0 12 -9.8693 1.7419
7 0 14 -21.8486 0.6254
7 0 16 40.7420 0.4746
7 1 0 -52.9868 -1.0459
7 1 1 -52.5284 0.0734
7 1 2 15.2683 0.1755
7 1 3 -10.5981 -0.7245
7 1 4 -22.9883 0.2580
7 1 5 7.5625 -0.5073
7 1 6 -28.6061 -1.0713
7 1 7 5.0072 -0.0765
7 1 8 8.8299 0.3718
7 1 9 22.6826 -0.0979
7 1 10 -20.2396 0.5113
7 1 11 -7.9025 0.1134
7 1 12 11.2417 0.9349
7 1 13 -5.8144 0.5335
7 1 14 31.7274 1.0955
7 1 15 -50.3774 0.3900
7 1 17 -73.2709 0.1286
7 2 0 -29.4163 -0.1061
7 2 1 -25.3799 -0.4154
7 2 2 -3.7600 0.6648
7 2 3 -62.3766 -2.4905
7 2 4 29.9632 0.8190
7 2 5 20.0536 -0.8256
7 2 6 26.2023 -0.4608
7 2 7 -47.3993 0.0485
7 2 8 21.4361 0.2869
7 2 9 -22.2707 -0.2265
7 2 10 6.9833 0.6754
7 2 11 17.4058 0.5542
7 2 12 2.7132 -0.3111
7 2 13 -4.5186 0.7683
7 2 14 -0.5085 0.4096
7 2 15 23.4247 0.0670
7 2 16 8.9300 0.2965
7 2 17 33.7347 -0.4459
7 3 0 -0.4335 0.0575
7 3 1 -12.5476 -1.0086
7 3 2 27.2329 0.7856
7 3 3 -57.9125 -1.6199
7 3 4 -6.9076 0.7395
7 3 5 -9.6926 -0.4137
7 3 6 -34.5830 -0.4048
7 3 7 25.7219 0.6688
7 3 8 23.0548 -0.0256
7 3 9 3.3023 0.0470
7 3 10 -7.0940 0.5974
7 3 11 11.0894 1.3095
7 3 12 20.6467 -0.6666
7 3 13 -6.6619 0.8316
7 3 14 16.9718 -0.6559
7 3 15 -0.2281 -0.5095
7 3 16 -30.5151 0.5090
7 3 17 3.6452 -0.4854
7 4 0 -13.3545 -0.0293
7 4 1 -0.1792 -1.3063
7 4 2 -2.6066 0.5651
7 4 3 -2.0721 -0.8544
7 4 4 10.5441 0.7272
7 4 5 0.6761 -0.5299
7 4 6 -28.7127 0.1907
7 4 7 1.7622 0.6838
7 4 8 9.5129 0.2245
7 4 9 0.3233 0.3398
7 4 10 13.0957 -0.1281
7 4 11 3.4682 0.1721
7 4 12 4.0804 -0.9181
7 4 13 -27.4448 0.8878
7 4 14 4.9428 -0.6024
7 4 15 17.8226 -0.6231
7 4 16 -19.3791 -0.3264
7 4 17 27.9722 -0.9921
7 5 0 91.6369 0.7045
7 5 1 18.8479 -0.3395
7 5 2 13.9161 0.5084
7 5 3 -6.0882 -0.0909
7 5 4 52.0191 0.2603
7 5 5 -12.4699 -0.1750
7 5 6 22.4575 0.6353
7 5 7 -25.5372 -0.1315
7 5 8 6.8980 -0.1508
7 5 9 -30.1126 0.3278
7 5 10 6.3743 -0.0715
7 5 11 11.0434 0.0129
7 5 12 3.3510 -0.8194
7 5 13 11.3979 -0.0255
7 5 14 -20.3412 -0.7943
7 5 15 11.8750 -0.0547
7 5 16 -25.3442 -0.1105
7 5 17 29.8197 -0.3225
7 6 0 63.6826 0.3227
7 6 1 4.2886 -0.3734
7 6 2 21.2671 0.0347
7 6 3 40.9087 0.0981
7 6 4 -46.3119 -0.1254
7 6 5 -15.6949 -0.1296
7 6 6 -26.0845 0.6839
7 6 7 22.4299 -0.1207
7 6 8 -20.0364 0.0078
7 6 9 4.2587 0.1919
7 6 10 -6.7582 -0.6506
7 6 11 -12.9004 0.1873
7 6 12 -17.6632 -0.1353
7 6 13 -10.9034 0.0426
7 6 14 0.2689 -0.6972
7 6 15 -1.1420 -0.1075
7 6 16 -2.1334 -0.2703
7 6 17 -5.2281 0.1223
7 7 0 12.4042 -0.0614
7 7 1 8.3922 -0.2413
7 7 2 -9.6042 0.2574
7 7 3 80.2873 0.3019
7 7 4 25.3019 0.1279
7 7 5 -0.4795 0.2860
7 7 6 36.7015 0.3335
7 7 7 -39.4342 -0.4084
7 7 8 -27.7447 0.1681
7 7 9 -19.6242 0.1394
7 7 10 -12.7242 -0.2311
7 7 11 -19.9353 -0.3497
7 7 12 -10.1978 -0.0127
7 7 13 -0.8757 -0.1471
7 7 14 2.8821 0.0509
7 7 15 1.5750 0.1447
7 7 16 3.5387 -0.4752
7 8 0 47.1006 -0.0833
7 8 1 -18.7370 0.0382
7 8 2 -2.3872 0.2123
7 8 3 4.4691 -0.0888
7 8 4 -38.3060 -0.0516
7 8 5 -18.4651 0.0126
7 8 6 2.9388 0.2854
7 8 7 -7.5534 -0.4275
7 8 8 -20.8267 0.4063
7 8 9 -15.4093 0.0159
7 8 10 -2.8528 0.0144
7 8 11 -10.4420 0.0781
7 8 12 -8.4467 -0.0363
7 8 13 10.2350 -0.2193
7 8 14 12.6102 -0.0710
7 8 15 2.5236 0.1118
7 8 16 4.2046 -0.0026
7 9 0 -46.4728 0.3233
7 9 1 19.1550 -0.2329
7 9 2 -8.8700 0.4163
7 9 3 41.1215 -0.2265
7 9 4 -13.4606 0.2720
7 9 5 6.5740 0.2474
7 9 6 -1.8216 0.1871
7 9 7 13.2578 0.0809
7 9 8 -6.0087 0.0229
7 9 9 -11.0274 -0.2266
7 9 10 -0.4071 -0.1594
7 9 11 -15.1106 0.1850
7 9 12 -15.4229 0.1013
7 9 13 -3.8861 -0.1230
7 9 14 4.7338 -0.1377
7 9 15 14.2113 -0.3116
7 9 16 14.1389 -0.0828
7 10 0 -30.0818 -0.0940
7 10 1 -2.5624 -0.2462
7 10 2 -25.1639 0.1267
7 10 3 -19.5274 0.0140
7 10 4 2.8671 0.0489
7 10 5 8.2058 0.0962
7 10 6 -15.6335 -0.0716
7 10 7 -1.9604 -0.1298
7 10 8 5.3990 0.2586
7 10 9 -0.9459 0.0329
7 10 10 7.7454 0.2211
7 10 11 3.3039 -0.0793
7 10 12 5.7911 -0.1280
7 10 13 7.1986 0.1507
7 10 14 7.3109 0.4944
7 10 15 -0.9555 0.1704
7 11 0 -11.3676 0.4160
7 11 1 28.1169 0.1095
7 11 2 15.4455 0.4155
7 11 3 -13.8830 0.0045
7 11 4 -10.9260 0.2910
7 11 5 20.7937 -0.2107
7 11 6 0.3567 0.1466
7 11 7 6.7478 -0.1254
7 11 8 28.7777 0.1536
7 11 9 -22.5591 -0.0293
7 11 10 10.6284 -0.1945
7 11 11 1.7253 0.0690
7 11 12 -0.4191 -0.1362
7 11 13 -1.8381 -0.2697
7 11 14 -13.1942 -0.4515
7 11 15 5.0110 -0.5597
7 12 0 -15.6794 0.2117
7 12 1 10.8865 -0.1274
7 12 2 -2.0519 0.0052
7 12 3 2.4324 -0.0862
7 12 4 -2.8680 0.0393
7 12 5 6.2512 0.0822
7 12 6 -10.5151 0.1821
7 12 7 2.3394 -0.0741
7 12 8 4.7482 -0.0185
7 12 9 25.3754 -0.0387
7 12 10 -4.0105 -0.0926
7 12 11 5.5775 0.2948
7 12 12 -7.7568 -0.1809
7 12 13 2.8283 0.0465
7 12 14 -1.3067 0.0538
7 13 0 9.6367 0.3478
7 13 1 -3.8133 0.1706
7 13 2 -5.6567 0.0923
7 13 3 15.2215 0.2106
7 13 4 -16.7493 0.0179
7 13 5 5.7659 -0.0583
7 13 6 6.9187 -0.0395
7 13 7 -11.5173 -0.1231
7 13 8 -1.6302 0.1154
7 13 9 -6.3292 -0.0847
7 13 10 5.6207 -0.4849
7 13 11 -1.5294 -0.0464
7 13 12 16.6997 -0.3146
7 13 13 5.7818 -0.0162
7 13 14 -7.7756 0.3035
7 14 0 9.5725 -0.1251
7 14 1 12.9043 -0.1635
7 14 2 -3.1086 -0.1065
7 14 3 -1.4042 -0.1014
7 14 4 2.6717 0.0774
7 14 5 -21.5741 -0.1077
7 14 6 12.5054 -0.0759
7 14 7 -13.3721 -0.0732
7 14 8 -7.2305 0.2266
7 14 9 -0.2790 -0.0704
7 14 10 5.2970 0.3453
7 14 11 -4.4545 0.3373
7 14 12 0.2826 -0.0556
7 14 13 1.5222 -0.0585
7 15 0 -3.8101 0.1660
7 15 1 -21.2684 0.1746
7 15 2 -22.0204 -0.0026
7 15 3 -7.7209 -0.0686
7 15 4 -18.1724 0.1216
7 15 5 -15.2285 -0.0609
7 15 6 -21.2216 0.1670
7 15 7 13.0971 0.1593
7 15 8 -18.2370 -0.1857
7 15 9 18.7615 -0.2168
7 15 10 -3.8047 -0.2815
7 15 11 5.0643 0.0438
7 15 12 -0.6807 -0.5616
7 16 0 -15.7710 -0.1135
7 16 1 2.8791 -0.2199
7 16 2 -3.0982 -0.3187
7 16 3 -0.8865 -0.0982
7 16 4 9.9424 -0.1901
7 16 5 1.5230 -0.2901
7 16 6 11.6503 -0.1932
7 16 7 -15.8194 0.1113
7 16 8 4.6175 -0.2990
7 16 9 -21.5660 -0.1298
7 16 10 3.3284 -0.2370
7 16 11 -3.8788 -0.3962
7 16 12 4.0086 0.1271
7 17 0 5.8723 -0.1223
7 17 1 -14.3356 0.0411
7 17 2 2.4906 -0.0140
7 17 3 -29.8641 0.0425
7 17 4 -4.5369 0.0830
7 17 5 -1.3299 -0.5076
7 17 6 -13.2667 -0.0012
7 17 7 6.4414 -0.4684
7 17 8 -0.5690 -0.3167
7 17 9 12.7914 0.1110
7 17 10 -7.6096 0.3480
7 17 11 5.9738 -0.0860
7 18 0 -4.3875 0.1098
7 18 1 -2.8515 -0.2619
7 18 2 12.3391 -0.3264
7 18 3 17.8920 -0.2981
7 18 4 0.3718 -0.2885
7 18 5 12.0473 -0.2663
7 18 6 3.0244 0.1597
7 18 7 2.8429 0.0906
7 18 8 7.5681 -0.6728
7 18 9 -0.1581 -0.0274
7 18 10 -10.7630 -0.6130
7 19 0 7.1078 0.1051
7 19 1 -8.1406 0.1140
7 19 2 4.7239 -0.1432
7 19 3 -8.4935 0.2472
7 19 4 17.1511 -0.2033
7 19 5 8.2565 -0.0992
7 19 6 13.9626 -0.1545
7 19 7 -8.6734 -0.2569
7 19 8 -2.6537 0.0953
7 20 0 8.4453 -0.2310
7 20 1 5.3390 -0.0402
7 20 2 14.8052 0.0495
7 20 3 9.2581 -0.0497
7 20 4 -3.1984 0.0693
7 20 5 3.8924 -0.2184
7 20 6 -13.0500 0.0131
7 20 7 10.3560 -0.4862
7 21 0 -8.6279 0.0653
7 21 1 -0.9615 0.0403
7 21 2 1.5628 -0.0073
7 21 3 -5.8256 -0.2427
7 21 4 8.2288 -0.0417
7 21 5 -5.7885 0.4227
7 22 0 -1.2632 -0.3910
7 22 1 0.1876 0.0738
7 22 2 0.4086 0.3982
8 0 0 31.9518 0.1232
8 0 2 38.4519 3.3356
8 0 4 -26.2853 1.7555
8 0 6 -13.5305 -0.1271
8 0 8 30.5824 0.1801
8 0 10 -13.5316 -1.4290
8 0 12 16.1492 -1.7408
8 0 14 28.5698 -0.4735
8 0 16 -7.9565 0.3641
8 1 0 1.3653 0.7849
8 1 1 -9.9897 -1.2271
8 1 2 22.2795 1.6720
8 1 3 -32.9776 -1.6931
8 1 4 22.1912 0.4927
8 1 5 2.1399 0.1611
8 1 6 1.7147 -0.7967
8 1 7 -21.0300 -0.0850
8 1 8 8.8313 -0.1760
8 1 9 3.0747 -0.1705
8 1 10 -5.3019 -1.8074
8 1 11 11.5915 1.4488
8 1 12 -15.6640 -1.4437
8 1 13 -19.2836 1.3141
8 1 14 -11.4914 0.4259
8 1 15 30.8997 -0.2662
8 1 16 -28.7038 0.3526
8 1 17 51.9411 0.1209
8 2 0 40.8784 1.3184
8 2 1 23.0609 -0.6228
8 2 2 -1.7471 0.6386
8 2 3 32.5324 -0.6223
8 2 4 -13.4061 0.4554
8 2 5 47.2804 -0.2618
8 2 6 -25.2691 -0.5576
8 2 7 37.6046 -0.3430
8 2 8 -8.6772 -0.5039
8 2 9 -16.6817 0.1318
8 2 10 1.7470 -0.4854
8 2 11 -16.7126 1.6209
8 2 12 27.7480 -1.1948
8 2 13 -29.0484 0.8298
8 2 14 8.9364 0.3300
8 2 15 18.1963 0.3772
8 2 16 -21.2840 0.9690
8 2 17 48.8045 0.2971
8 3 0 -33.6895 0.1163
8 3 1 -5.4680 -0.7041
8 3 2 -0.3881 -0.3469
8 3 3 -9.8036 -0.2341
8 3 4 3.6100 -0.1468
8 3 5 -46.8647 -1.1641
8 3 6 19.1314 0.0621
8 3 7 -4.4734 0.1914
8 3 8 15.4735 -0.2405
8 3 9 -6.2049 0.3992
8 3 10 -2.6173 -0.1629
8 3 11 -6.6942 1.0820
8 3 12 -24.9134 0.1339
8 3 13 13.6695 1.2745
8 3 14 -16.9675 0.1085
8 3 15 30.6584 0.3201
8 3 16 -46.7406 0.2384
8 3 17 -10.4067 0.4436
8 4 0 4.8308 0.4036
8 4 1 -53.3959 0.4781
8 4 2 -24.9210 -0.9595
8 4 3 39.3848 0.7272
8 4 4 20.1990 -0.3887
8 4 5 42.7941 -0.5290
8 4 6 4.7485 0.1927
8 4 7 16.7397 -0.0876
8 4 8 -33.0072 -0.3162
8 4 9 -5.7813 0.7941
8 4 10 8.0805 -0.0111
8 4 11 5.0063 0.0532
8 4 12 -1.0915 0.1144
8 4 13 12.5021 0.6522
8 4 14 -11.5653 0.0593
8 4 15 -8.0301 0.5437
8 4 16 4.4854 -0.1923
8 5 0 -47.5777 -0.2931
8 5 1 9.8239 0.0799
8 5 2 -60.4604 -1.0321
8 5 3 26.0121 0.0774
8 5 4 -59.9778 -0.5648
8 5 5 -5.4532 -0.4950
8 5 6 17.7495 0.4585
8 5 7 32.3943 -0.2431
8 5 8 2.5091 -0.0131
8 5 9 5.8460 0.4613
8 5 10 17.3363 0.6412
8 5 11 -17.7306 0.0398
8 5 12 -5.6998 0.5690
8 5 13 18.2858 -0.0608
8 5 14 4.2060 -0.3536
8 5 15 -14.8876 0.6662
8 5 16 -26.5317 -0.1626
8 6 0 -54.9468 -0.4889
8 6 1 -41.8356 0.2414
8 6 2 9.5576 -0.1007
8 6 3 18.7825 0.3835
8 6 4 34.0928 -0.1481
8 6 5 -1.9889 0.0474
8 6 6 45.5350 0.4957
8 6 7 5.4280 -0.1677
8 6 8 4.6751 0.2743
8 6 9 19.6235 0.0143
8 6 10 8.6299 0.0551
8 6 11 7.7708 -0.4267
8 6 12 -25.7476 0.4051
8 6 13 7.0804 -0.1905
8 6 14 -20.1900 -0.4289
8 6 15 -17.2000 -0.0008
8 6 16 19.1707 -0.6651
8 7 0 1.8624 -0.1149
8 7 1 11.8034 0.0759
8 7 2 -28.4271 -0.0711
8 7 3 22.5179 -0.2359
8 7 4 -25.1496 -0.3453
8 7 5 47.1821 0.0395
8 7 6 -17.8131 -0.1135
8 7 7 18.7084 -0.1340
8 7 8 -1.4231 0.2366
8 7 9 6.0208 0.2148
8 7 10 13.6327 -0.0695
8 7 11 -2.7815 -0.2387
8 7 12 6.3533 0.0205
8 7 13 4.6174 -0.1449
8 7 14 -3.0416 0.1804
8 7 15 -29.3154 0.2115
8 7 16 6.4587 -0.2338
8 8 0 -48.9817 0.1326
8 8 1 63.3822 -0.0874
8 8 2 24.8588 -0.0608
8 8 3 -11.3466 -0.1292
8 8 4 4.5896 -0.0111
8 8 5 0.3856 0.3920
8 8 6 4.4873 0.0191
8 8 7 6.0872 0.0522
8 8 8 16.6494 0.1374
8 8 9 6.8707 -0.4570
8 8 10 4.9809 0.0775
8 8 11 -2.9824 -0.0269
8 8 12 -0.7068 0.0484
8 8 13 -2.3573 -0.5818
8 8 14 -17.2427 -0.2253
8 8 15 15.2854 -0.2393
8 9 0 9.9792 -0.2778
8 9 1 0.9411 -0.1155
8 9 2 40.5035 -0.0702
8 9 3 -11.8895 -0.1514
8 9 4 20.2749 0.1795
8 9 5 22.8081 -0.0686
8 9 6 -28.2330 -0.0830
8 9 7 -24.1963 -0.1169
8 9 8 6.6565 0.1184
8 9 9 -1.9798 -0.0435
8 9 10 -7.8688 -0.0941
8 9 11 0.2570 0.1038
8 9 12 9.9647 0.0253
8 9 13 1.2788 0.2857
8 9 14 -12.2524 0.4982
8 9 15 -9.7466 0.1928
8 10 0 -3.5746 0.0379
8 10 1 33.0536 0.1602
8 10 2 11.2166 -0.0120
8 10 3 -22.7759 0.1020
8 10 4 -18.1398 0.1154
8 10 5 3.2507 0.0929
8 10 6 -17.7876 -0.1005
8 10 7 -19.3954 0.2710
8 10 8 1.3622 0.1146
8 10 9 -4.1778 0.0705
8 10 10 -5.8717 -0.2109
8 10 11 12.3725 0.0351
8 10 12 13.3962 -0.0570
8 10 13 11.9674 -0.0731
8 10 14 -3.4270 -0.1679
8 10 15 10.5600 -0.0906
8 11 0 3.3183 -0.2782
8 11 1 1.5044 0.1663
8 11 2 16.4687 -0.3142
8 11 3 -4.0602 0.1467
8 11 4 2.1567 0.0864
8 11 5 -7.5599 0.1409
8 11 6 -4.4095 0.0987
8 11 7 -4.6816 -0.1263
8 11 8 -12.7364 -0.0248
8 11 9 9.4698 -0.1080
8 11 10 -11.5203 0.1481
8 11 11 -6.5689 0.2274
8 11 12 0.6975 -0.0287
8 11 13 -2.7291 -0.3649
8 11 14 6.4735 -0.1454
8 12 0 10.1294 -0.0363
8 12 1 -27.6767 0.2009
8 12 2 -12.6698 0.1128
8 12 3 -13.2371 0.0774
8 12 4 1.3123 0.2205
8 12 5 -30.4952 0.0654
8 12 6 5.0229 0.1166
8 12 7 -16.5505 0.0846
8 12 8 6.9782 0.1760
8 12 9 -3.1222 -0.1172
8 12 10 6.5298 -0.1251
8 12 11 4.2119 -0.0926
8 12 12 7.8263 0.0410
8 12 13 10.4647 0.3683
8 12 14 1.4931 0.2761
8 13 0 13.8501 -0.2309
8 13 1 13.1418 0.1203
8 13 2 0.3154 0.0112
8 13 3 -5.4963 -0.0085
8 13 4 21.5905 -0.0425
8 13 5 0.9650 -0.0801
8 13 6 5.4456 -0.2792
8 13 7 22.6508 0.1102
8 13 8 -21.3807 0.0465
8 13 9 4.7935 -0.1021
8 13 10 -9.3860 0.2171
8 13 11 2.2740 0.1192
8 13 12 -9.8811 0.0128
8 13 13 -7.3078 0.0352
8 14 0 5.6683 0.0489
8 14 1 -4.7095 0.3092
8 14 2 -12.9367 0.0497
8 14 3 -11.8732 0.1383
8 14 4 -0.5775 0.2078
8 14 5 -12.0496 0.2301
8 14 6 -6.7281 0.0823
8 14 7 10.7731 0.3575
8 14 8 8.5327 0.0406
8 14 9 3.5750 0.1809
8 14 10 0.9730 0.5715
8 14 11 -1.7470 -0.1206
8 14 12 -9.0310 0.0886
8 15 0 1.6711 0.0254
8 15 1 -7.5790 0.1226
8 15 2 27.0249 0.0920
8 15 3 -9.4040 0.0016
8 15 4 22.3057 0.2243
8 15 5 5.4772 -0.1575
8 15 6 9.7079 0.1446
8 15 7 -1.6005 -0.0604
8 15 8 10.2287 -0.1856
8 15 9 -7.6066 -0.5258
8 15 10 -4.1668 0.0524
8 15 11 5.6093 -0.3928
8 15 12 -1.8277 0.1296
8 16 0 12.5574 0.0947
8 16 1 -6.2234 0.1925
8 16 2 -3.2198 0.3298
8 16 3 -3.2057 0.1976
8 16 4 -11.9300 0.2079
8 16 5 19.9685 -0.0425
8 16 6 -15.8662 -0.0885
8 16 7 8.4951 0.3374
8 16 8 -9.2360 -0.0065
8 16 9 10.9407 0.7050
8 16 10 -9.1594 0.4547
8 16 11 9.4074 -0.0096
8 17 0 -8.5361 0.0033
8 17 1 -12.3111 0.2283
8 17 2 1.0491 -0.0912
8 17 3 -4.1151 0.1983
8 17 4 -12.2481 -0.0258
8 17 5 -16.4698 0.2028
8 17 6 8.8739 0.0985
8 17 7 -2.7712 -0.1740
8 17 8 15.8188 -0.2547
8 17 9 7.1744 -0.3726
8 17 10 1.1541 0.0728
8 18 0 -4.2788 -0.0149
8 18 1 -18.2238 0.0201
8 18 2 -6.0529 0.0781
8 18 3 -0.1018 -0.1735
8 18 4 5.3557 0.1350
8 18 5 13.1052 0.0968
8 18 6 5.3815 0.3138
8 18 7 4.1476 -0.1481
8 18 8 -8.5435 0.3161
8 18 9 1.5002 -0.1130
8 19 0 -7.5131 -0.2705
8 19 1 7.7797 -0.0115
8 19 2 -12.9311 0.2230
8 19 3 1.6021 -0.0036
8 19 4 -10.9645 -0.4192
8 19 5 -8.7511 -0.0960
8 19 6 -8.1689 -0.5926
8 19 7 6.6218 -0.3804
8 20 0 -8.6135 -0.2861
8 20 1 -0.8105 -0.1423
8 20 2 1.4881 -0.2383
8 20 3 -3.0352 -0.3419
8 20 4 9.4219 -0.0144
8 20 5 -5.3939 0.2925
8 20 6 14.4596 0.4365
8 21 0 -2.3063 -0.1085
8 21 1 8.6176 -0.2774
8 21 2 -4.4403 0.2176
8 21 3 12.0788 -0.3584
8 21 4 2.6014 -0.0981
8 22 0 3.6052 -0.1171
8 22 1 4.6123 0.0442
9 0 0 -44.3103 0.7138
9 0 2 -16.9959 0.2384
9 0 4 -40.7067 -0.0727
9 0 6 -28.0449 0.3221
9 0 8 1.7892 -0.0659
9 0 10 17.3562 -1.4980
9 0 12 9.2561 -0.5848
9 0 14 -14.7172 -0.2813
9 1 0 -19.1861 0.7015
9 1 1 -10.5376 0.6259
9 1 2 -26.1107 -0.7078
9 1 3 22.0280 0.9259
9 1 4 4.0910 1.0055
9 1 5 15.0355 -0.0689
9 1 6 -2.5286 -0.1365
9 1 7 6.2450 0.1780
9 1 8 -1.9386 -0.4720
9 1 9 -2.1854 -0.3711
9 1 10 26.3017 -0.5635
9 1 11 14.0764 -0.7623
9 1 12 10.0522 -1.0894
9 1 13 1.6359 -0.5058
9 1 14 -18.4010 -0.2539
9 1 15 1.9203 -0.0994
9 1 16 0.0678 -0.2731
9 2 0 5.6783 -0.1821
9 2 1 4.8522 2.4288
9 2 2 1.4179 -1.0724
9 2 3 -27.4651 1.7183
9 2 4 -21.1689 0.2364
9 2 5 -32.9633 -0.1648
9 2 6 2.0291 -0.0814
9 2 7 19.4352 0.4049
9 2 8 0.0675 -0.8849
9 2 9 14.9737 -0.6690
9 2 10 -7.1185 0.5290
9 2 11 5.2898 -0.9409
9 2 12 -24.3858 -0.1190
9 2 13 31.8686 -0.2230
9 2 14 -3.8827 -0.5302
9 2 15 1.3069 0.3666
9 2 16 -1.5084 -0.2265
9 3 0 -20.8238 -0.4813
9 3 1 29.8275 1.8069
9 3 2 -41.4352 -0.8424
9 3 3 46.6252 1.0397
9 3 4 -18.8743 0.1117
9 3 5 23.0473 -0.4923
9 3 6 -18.5098 0.0743
9 3 7 1.9872 -0.1857
9 3 8 -2.8842 -0.4254
9 3 9 -5.9403 -1.1482
9 3 10 40.4430 0.6039
9 3 11 -5.1330 -1.4693
9 3 12 2.4929 0.5707
9 3 13 3.7699 0.3291
9 3 14 -1.5870 -0.5622
9 3 15 -0.6017 0.3882
9 3 16 46.3094 -0.3095
9 4 0 32.8353 -0.5460
9 4 1 29.7788 0.4799
9 4 2 -2.8235 -0.6253
9 4 3 -33.5124 0.3591
9 4 4 3.5360 -0.2542
9 4 5 -38.9697 -0.2517
9 4 6 7.4195 -0.0961
9 4 7 -5.9802 -0.5374
9 4 8 -4.9487 -0.0306
9 4 9 4.2343 -0.3657
9 4 10 -13.5158 1.1745
9 4 11 8.6240 -0.8071
9 4 12 -17.2830 0.6872
9 4 13 37.9543 0.3584
9 4 14 9.8930 0.1603
9 4 15 -5.2104 1.0060
9 4 16 28.2556 0.0998
9 5 0 9.7306 -0.9875
9 5 1 17.1052 0.0836
9 5 2 -2.9380 -0.0725
9 5 3 -14.6382 0.2280
9 5 4 -28.7381 -0.6191
9 5 5 -9.8514 0.1985
9 5 6 -18.1313 0.0602
9 5 7 -4.2734 -0.1602
9 5 8 1.1760 0.0878
9 5 9 14.5192 -0.1026
9 5 10 1.3879 0.6724
9 5 11 10.1155 -0.0973
9 5 12 2.6985 0.9255
9 5 13 -3.9758 -0.1626
9 5 14 22.6752 -0.0393
9 5 15 -5.5141 0.2212
9 5 16 52.9487 -0.0376
9 6 0 -29.3035 0.0696
9 6 1 19.2411 0.0637
9 6 2 -26.5334 0.2824
9 6 3 -2.1800 -0.1305
9 6 4 7.7408 -0.4337
9 6 5 16.2017 0.1464
9 6 6 -19.4420 -0.1683
9 6 7 -23.0448 -0.2534
9 6 8 0.8757 0.6393
9 6 9 -12.9421 -0.0769
9 6 10 -3.0951 0.1096
9 6 11 -5.7688 -0.0626
9 6 12 25.5797 0.6373
9 6 13 1.4800 0.1124
9 6 14 -7.3557 0.5389
9 6 15 6.1747 0.0259
9 7 0 -5.3703 -0.0296
9 7 1 -18.5032 -0.3162
9 7 2 22.3354 -0.1027
9 7 3 -64.8397 -0.3022
9 7 4 4.6842 -0.0659
9 7 5 -21.1993 0.2038
9 7 6 8.9806 -0.1660
9 7 7 -10.3931 -0.0647
9 7 8 9.5885 0.3414
9 7 9 12.1032 0.0914
9 7 10 -20.9214 0.0931
9 7 11 4.6813 0.2778
9 7 12 11.2923 0.0424
9 7 13 4.1035 -0.5908
9 7 14 -0.8103 0.3143
9 7 15 13.4655 -0.1964
9 8 0 -24.1035 0.0285
9 8 1 -29.9670 0.4137
9 8 2 8.2211 -0.0376
9 8 3 11.9818 0.0131
9 8 4 15.9113 -0.0753
9 8 5 34.6803 0.2055
9 8 6 12.5006 -0.3467
9 8 7 -2.6483 0.0988
9 8 8 8.1711 -0.0245
9 8 9 -0.4070 -0.0039
9 8 10 -18.9980 -0.1258
9 8 11 -6.9249 0.1962
9 8 12 4.5880 -0.1490
9 8 13 -28.0308 -0.2334
9 8 14 -4.4767 0.1014
9 8 15 -9.2157 -0.1216
9 9 0 -13.7850 -0.2705
9 9 1 -20.1461 0.1599
9 9 2 -2.4318 -0.4404
9 9 3 -7.5730 -0.1158
9 9 4 16.4267 -0.2087
9 9 5 -7.7536 -0.1262
9 9 6 11.0871 -0.0843
9 9 7 0.3596 0.1450
9 9 8 1.7701 0.3686
9 9 9 -4.3449 -0.2348
9 9 10 -11.4617 -0.0491
9 9 11 -2.6604 -0.0426
9 9 12 -4.2336 0.1561
9 9 13 -7.6488 0.2120
9 9 14 -8.9772 0.2063
9 10 0 34.0652 -0.0607
9 10 1 -11.8357 -0.0661
9 10 2 16.3599 -0.2316
9 10 3 11.6153 -0.1387
9 10 4 35.2617 0.0492
9 10 5 -1.8171 -0.0543
9 10 6 34.8108 -0.0040
9 10 7 14.2481 0.0015
9 10 8 -4.3341 -0.0499
9 10 9 -1.5239 -0.1176
9 10 10 -6.7461 0.2989
9 10 11 -3.6963 0.0258
9 10 12 -17.9914 -0.3936
9 10 13 -16.6015 -0.4380
9 10 14 17.1628 -0.4736
9 11 0 14.1458 -0.3605
9 11 1 -3.1433 -0.1360
9 11 2 -5.7649 -0.2737
9 11 3 14.7566 0.0625
9 11 4 17.8880 -0.1487
9 11 5 -20.0087 0.1742
9 11 6 -4.5515 -0.1398
9 11 7 7.7666 0.2062
9 11 8 -7.1263 0.0510
9 11 9 -9.2430 -0.1009
9 11 10 -2.5811 0.1571
9 11 11 3.5172 -0.0479
9 11 12 -9.5500 -0.0146
9 11 13 -6.1932 0.7575
9 12 0 14.0149 -0.0911
9 12 1 30.3120 0.0786
9 12 2 -0.5304 0.0039
9 12 3 10.3947 -0.0385
9 12 4 17.3799 -0.0710
9 12 5 -1.5302 -0.1329
9 12 6 -6.9747 -0.1410
9 12 7 15.9330 0.0640
9 12 8 -12.7602 -0.0829
9 12 9 0.5118 -0.4235
9 12 10 9.0075 0.2745
9 12 11 8.6729 -0.2970
9 12 12 -0.4012 0.1530
9 12 13 0.9749 -0.1817
9 13 0 21.2703 -0.0989
9 13 1 -3.6683 -0.1508
9 13 2 12.9501 -0.0655
9 13 3 -2.7833 -0.0260
9 13 4 6.5344 0.1347
9 13 5 -8.4687 -0.0221
9 13 6 -0.3923 -0.0114
9 13 7 -7.8879 0.1525
9 13 8 -2.5006 0.0379
9 13 9 -4.4732 0.1575
9 13 10 0.6788 0.3525
9 13 11 4.1888 -0.1605
9 13 12 -3.5769 -0.4823
9 14 0 -2.4741 0.1026
9 14 1 1.7146 -0.0100
9 14 2 7.3559 -0.0926
9 14 3 10.4149 0.0708
9 14 4 -25.6758 0.0980
9 14 5 3.1021 0.0458
9 14 6 -16.0954 -0.0562
9 14 7 2.9183 0.0132
9 14 8 1.5130 -0.4632
9 14 9 10.3878 -0.2518
9 14 10 1.6778 -0.2516
9 14 11 6.3179 -0.1312
9 14 12 10.9771 -0.1442
9 15 0 9.9764 -0.2189
9 15 1 6.9769 -0.0738
9 15 2 -0.7973 -0.3051
9 15 3 21.2146 0.0351
9 15 4 -3.2112 -0.1843
9 15 5 15.3231 -0.0239
9 15 6 -0.4631 0.0549
9 15 7 -6.6631 0.2751
9 15 8 -18.5930 0.0644
9 15 9 4.0399 0.1956
9 15 10 -7.5379 0.1984
9 15 11 0.1529 -0.1232
9 16 0 18.3738 -0.0076
9 16 1 1.7126 0.0432
9 16 2 -2.7884 -0.0058
9 16 3 -1.6659 0.1356
9 16 4 -23.5632 0.0767
9 16 5 -23.8434 -0.0557
9 16 6 -0.4236 0.3766
9 16 7 -8.2937 0.0018
9 16 8 3.9295 0.3236
9 16 9 1.9698 0.4979
9 16 10 3.9490 -0.1227
9 17 0 -11.0657 0.0318
9 17 1 15.2906 -0.2385
9 17 2 -13.6149 -0.1766
9 17 3 15.8721 0.2320
9 17 4 -1.8225 -0.0571
9 17 5 10.9029 0.5911
9 17 6 -2.3660 0.2199
9 17 7 6.3473 -0.0043
9 17 8 -14.6319 -0.2727
9 17 9 -4.3439 0.0042
9 18 0 6.4482 0.0516
9 18 1 15.1173 0.4503
9 18 2 -5.7052 0.2627
9 18 3 -3.6144 0.4256
9 18 4 1.8768 -0.3314
9 18 5 -14.3502 -0.2151
9 18 6 -10.7375 0.1028
9 18 7 -5.7141 -0.0921
9 18 8 -4.9620 0.6258
9 19 0 -11.9094 0.1948
9 19 1 0.1067 -0.1864
9 19 2 -10.1323 0.1548
9 19 3 -9.6482 0.0774
9 19 4 -5.7786 0.1906
9 19 5 -5.5892 -0.0224
9 19 6 7.2219 -0.0342
9 20 0 -7.2834 0.4002
9 20 1 -2.8309 0.1546
9 20 2 -7.5680 -0.1275
9 20 3 0.7942 0.2345
9 20 4 -0.2434 -0.0537
9 20 5 10.6832 0.1634
9 21 0 -1.2841 0.0067
9 21 1 -9.7425 0.2618
9 21 2 -0.0217 0.0624
10 0 0 22.8608 -3.1745
10 0 2 22.8202 -2.8650
10 0 4 20.9771 0.0193
10 0 6 -24.2282 -0.4511
10 0 8 -29.8796 1.4464
10 0 10 3.0183 2.0379
10 0 12 4.6203 0.6319
10 0 14 2.0275 -0.0805
10 1 0 2.4820 -2.3965
10 1 1 42.8215 1.3010
10 1 2 -9.3174 -1.4297
10 1 3 -3.0720 -0.0754
10 1 4 2.7572 0.6757
10 1 5 -6.6446 0.2016
10 1 6 1.6152 0.4014
10 1 7 -7.8934 0.3179
10 1 8 2.2054 1.3679
10 1 9 -31.6393 -1.2360
10 1 10 -4.4821 2.0725
10 1 11 -27.3370 -1.2818
10 1 12 -6.8412 -0.3100
10 1 13 20.8768 0.0743
10 1 14 3.7489 -0.5026
10 1 15 11.7049 0.0676
10 2 0 -7.4617 -0.8853
10 2 1 13.0244 0.3936
10 2 2 3.6185 -0.1352
10 2 3 -21.0365 0.1091
10 2 4 13.0500 0.1059
10 2 5 -16.9895 0.3606
10 2 6 -8.4739 0.7029
10 2 7 -16.2050 -0.0155
10 2 8 -2.2653 0.6918
10 2 9 -5.8086 -1.4913
10 2 10 15.1792 1.0686
10 2 11 2.8804 -1.0319
10 2 12 -8.6908 -0.0594
10 2 13 -4.9334 -0.2852
10 2 14 -7.1334 -0.9589
10 2 15 -24.1060 -0.5730
10 3 0 13.1088 -0.2604
10 3 1 -8.0399 -0.2614
10 3 2 13.7466 -0.2284
10 3 3 2.2052 0.7605
10 3 4 37.9561 -0.1548
10 3 5 2.8623 0.2433
10 3 6 7.4967 0.2231
10 3 7 4.4485 -0.4239
10 3 8 -8.4819 0.0540
10 3 9 8.4923 -0.7774
10 3 10 -24.2687 -0.2001
10 3 11 8.5018 -1.3919
10 3 12 -1.7270 -0.1107
10 3 13 -11.5031 -0.4703
10 3 14 1.3105 -0.0546
10 3 15 -50.3045 -0.1545
10 4 0 -15.0983 0.5365
10 4 1 20.9047 -0.5414
10 4 2 -5.9087 1.0839
10 4 3 -3.5434 0.3716
10 4 4 -9.5717 -0.0956
10 4 5 -6.4470 0.1012
10 4 6 12.2860 0.3873
10 4 7 -15.4400 -0.7810
10 4 8 16.3407 -0.1381
10 4 9 -7.6382 -0.0561
10 4 10 1.2033 -0.3564
10 4 11 -22.6207 -0.4382
10 4 12 3.0042 0.0653
10 4 13 -33.7537 -0.7316
10 4 14 -7.0947 0.1403
10 4 15 -10.0732 -0.1530
10 5 0 11.4581 1.3602
10 5 1 -32.1950 0.0098
10 5 2 36.4081 0.6527
10 5 3 3.9126 0.1097
10 5 4 38.7531 -0.3290
10 5 5 14.3399 0.1048
10 5 6 18.8824 -0.0526
10 5 7 -2.3537 -0.5255
10 5 8 -2.5577 -0.3778
10 5 9 9.1927 -0.0289
10 5 10 -10.1770 -1.0763
10 5 11 -0.3479 0.0305
10 5 12 4.4753 0.2872
10 5 13 -10.4948 -0.6284
10 5 14 -17.3381 0.5014
10 5 15 20.7717 -0.4602
10 6 0 25.3767 -0.1516
10 6 1 -20.6080 -0.3427
10 6 2 16.7714 0.0079
10 6 3 -11.2001 -0.0182
10 6 4 -17.5330 -0.0807
10 6 5 -27.9981 0.1204
10 6 6 6.5069 -0.4797
10 6 7 -7.7242 -0.0475
10 6 8 -1.1539 -0.1499
10 6 9 10.9919 0.4073
10 6 10 -19.3364 -0.3154
10 6 11 -10.5658 0.4128
10 6 12 12.3717 0.4328
10 6 13 -11.3694 -0.0700
10 6 14 15.8408 0.7813
10 6 15 1.3085 -0.0632
10 7 0 15.2533 0.1745
10 7 1 -20.2984 0.3012
10 7 2 1.0812 0.1735
10 7 3 1.5430 -0.0299
10 7 4 -15.1784 0.0713
10 7 5 6.4801 0.0686
10 7 6 11.4716 -0.1223
10 7 7 5.3901 -0.1302
10 7 8 10.7174 0.0623
10 7 9 6.0822 0.1805
10 7 10 23.5354 0.1080
10 7 11 10.1283 0.4123
10 7 12 8.4059 -0.3685
10 7 13 0.2800 -0.1191
10 7 14 15.0821 0.1042
10 8 0 14.3390 0.1165
10 8 1 -25.0048 -0.0259
10 8 2 -3.3215 0.1043
10 8 3 -14.5951 -0.1008
10 8 4 -4.5263 0.0276
10 8 5 -37.9213 -0.1075
10 8 6 -6.5597 -0.0899
10 8 7 -0.1072 0.2931
10 8 8 0.4820 0.0402
10 8 9 -1.7720 -0.1580
10 8 10 5.4875 0.1025
10 8 11 20.6099 0.2910
10 8 12 -7.3936 0.4313
10 8 13 7.1923 0.6226
10 8 14 2.5703 0.2971
10 9 0 21.0340 0.3365
10 9 1 -5.5914 0.0546
10 9 2 -19.3712 0.0038
10 9 3 -11.4067 0.1722
10 9 4 -9.1716 -0.1252
10 9 5 -9.5576 0.0289
10 9 6 -5.2378 -0.2017
10 9 7 19.7310 0.1716
10 9 8 2.0102 -0.1275
10 9 9 14.4227 -0.0096
10 9 10 18.7843 0.2882
10 9 11 15.7051 -0.0271
10 9 12 4.8772 -0.6010
10 9 13 4.6014 0.0335
10 9 14 34.6792 -0.4952
10 10 0 -26.7898 0.1654
10 10 1 10.5998 -0.0629
10 10 2 -23.8171 0.1284
10 10 3 6.6610 0.0708
10 10 4 -1.2593 0.0641
10 10 5 11.3508 -0.1352
10 10 6 -5.9319 -0.0199
10 10 7 8.3546 -0.0427
10 10 8 0.1653 -0.0897
10 10 9 -16.6171 0.0183
10 10 10 11.6506 0.1734
10 10 11 4.8138 -0.3048
10 10 12 -6.8376 -0.0143
10 10 13 3.6129 0.4058
10 11 0 -11.8980 0.3802
10 11 1 -0.3280 -0.2124
10 11 2 -2.9770 0.1327
10 11 3 -13.4524 -0.2869
10 11 4 -4.1943 -0.0639
10 11 5 -6.5965 -0.1569
10 11 6 -8.2300 0.0364
10 11 7 9.7523 0.1641
10 11 8 1.5555 -0.3138
10 11 9 10.6361 -0.0530
10 11 10 -2.7174 0.0247
10 11 11 -2.6620 -0.0337
10 11 12 -3.2062 0.4341
10 11 13 5.2215 0.0712
10 12 0 -7.6939 -0.1234
10 12 1 -13.2762 -0.1607
10 12 2 -2.1246 -0.2228
10 12 3 20.5235 0.0680
10 12 4 -6.0122 -0.0942
10 12 5 39.9436 0.0941
10 12 6 6.8907 0.0232
10 12 7 -4.5720 0.2606
10 12 8 -9.9673 -0.2257
10 12 9 -2.6013 0.6078
10 12 10 -4.5977 -0.2232
10 12 11 -12.0401 0.2436
10 12 12 -1.2219 -0.4135
10 13 0 -28.8851 0.0775
10 13 1 -1.4386 -0.0910
10 13 2 -12.6442 0.0067
10 13 3 6.8411 0.0681
10 13 4 -34.3308 0.1540
10 13 5 4.2656 -0.0487
10 13 6 -3.9193 0.1564
10 13 7 0.5161 0.0104
10 13 8 2.9340 -0.0317
10 13 9 5.6368 0.1465
10 13 10 -11.8003 -0.0987
10 13 11 -11.5175 -0.1766
10 14 0 0.0051 0.0620
10 14 1 -13.2539 -0.1025
10 14 2 4.0502 -0.1479
10 14 3 17.8517 -0.0514
10 14 4 8.2147 -0.2300
10 14 5 19.0214 -0.1770
10 14 6 9.7241 -0.0997
10 14 7 -3.0782 -0.1989
10 14 8 -7.3269 -0.6417
10 14 9 5.5230 0.2065
10 14 10 -3.4575 -0.4499
10 14 11 -2.8704 0.4434
10 15 0 -11.1993 0.1753
10 15 1 13.6533 0.1155
10 15 2 -14.8617 0.0724
10 15 3 9.5402 0.2180
10 15 4 -9.3091 -0.4474
10 15 5 -0.1893 -0.2387
10 15 6 3.6909 -0.0142
10 15 7 -6.4854 0.1250
10 15 8 9.4695 0.1166
10 15 9 -2.2781 0.6931
10 15 10 6.8319 -0.3403
10 16 0 -20.7577 -0.0519
10 16 1 9.5678 -0.2951
10 16 2 3.8929 -0.2178
10 16 3 -0.4860 0.1239
10 16 4 9.1723 -0.2931
10 16 5 10.8696 -0.0463
10 16 6 1.5534 -0.2482
10 16 7 15.1132 -0.7804
10 16 8 1.8460 -0.4934
10 16 9 -0.2093 -0.3470
10 17 0 4.1541 0.0306
10 17 1 10.5698 -0.1407
10 17 2 12.3325 0.1149
10 17 3 5.4564 -0.1058
10 17 4 20.3246 -0.2233
10 17 5 1.2676 0.0058
10 17 6 1.9125 0.2073
10 17 7 -12.0853 0.2911
10 17 8 12.6081 0.1095
10 18 0 2.8251 -0.0684
10 18 1 6.0792 -0.1897
10 18 2 9.4660 -0.0044
10 18 3 -6.3920 0.0050
10 18 4 -7.4034 -0.1348
10 18 5 -2.4192 0.0910
10 18 6 0.9926 -0.1649
10 18 7 -5.4879 0.2138
10 19 0 11.7276 -0.1685
10 19 1 -9.1101 -0.1339
10 19 2 6.9405 -0.0477
10 19 3 -4.6547 0.0225
10 19 4 -3.1860 0.7540
10 19 5 7.0086 0.8760
10 20 0 12.6739 0.1021
10 20 1 2.6426 0.1816
10 20 2 16.1625 0.4310
10 20 3 0.8338 -0.3013
10 21 0 6.5000 -0.1506
10 21 1 -8.4858 0.0523
11 0 0 -33.5275 1.0326
11 0 2 15.8197 -0.0390
11 0 4 55.4098 -0.3137
11 0 6 49.3255 -0.1481
11 0 8 36.3952 1.1114
11 0 10 -2.9935 0.7644
11 0 12 -11.7833 0.0536
11 0 14 -1.6730 0.6252
11 1 0 23.3758 1.2981
11 1 1 0.3642 0.4122
11 1 2 5.2666 -0.1999
11 1 3 -7.4521 0.6357
11 1 4 -1.9085 -0.6657
11 1 5 4.8013 -0.1603
11 1 6 -8.2791 0.5087
11 1 7 2.3752 0.2429
11 1 8 -14.3000 0.3394
11 1 9 10.2754 0.8340
11 1 10 -12.4163 1.0153
11 1 11 -1.6744 0.7084
11 1 12 -3.9940 0.6974
11 1 13 -23.0497 0.2314
11 1 14 26.0284 0.2811
11 2 0 -15.4030 1.3682
11 2 1 15.7533 -2.3880
11 2 2 -1.2534 -0.2665
11 2 3 23.0285 -0.1335
11 2 4 21.9490 -0.1623
11 2 5 -15.5972 -0.6782
11 2 6 28.3941 0.6579
11 2 7 -14.2634 0.6584
11 2 8 8.2952 -0.4649
11 2 9 4.8245 1.3153
11 2 10 -2.5118 -0.1942
11 2 11 24.3159 0.2232
11 2 12 27.9218 0.6105
11 2 13 17.0805 -0.0809
11 2 14 26.1341 0.0934
11 3 0 23.0610 0.7720
11 3 1 -24.7101 -1.5858
11 3 2 10.8477 0.3194
11 3 3 -11.8372 0.4205
11 3 4 -20.7828 -0.1335
11 3 5 -22.4545 0.1655
11 3 6 -1.1035 0.5266
11 3 7 -12.3653 0.8752
11 3 8 -5.2382 -0.4367
11 3 9 2.4698 1.9451
11 3 10 -8.0369 -0.5473
11 3 11 -4.0444 0.1242
11 3 12 8.3589 0.4748
11 3 13 5.4503 -0.5307
11 3 14 3.7326 0.3276
11 4 0 16.3100 0.3099
11 4 1 -19.8040 -0.0501
11 4 2 -8.0720 0.0432
11 4 3 7.4981 0.0195
11 4 4 -12.5403 0.0117
11 4 5 5.1895 0.6367
11 4 6 3.1605 0.1170
11 4 7 0.5154 0.5651
11 4 8 -16.3791 -0.9203
11 4 9 27.4940 0.8392
11 4 10 9.5986 -0.9448
11 4 11 17.7330 -0.2031
11 4 12 20.8222 -0.1351
11 4 13 6.4978 -0.9887
11 4 14 11.5622 -0.1652
11 5 0 -0.9322 -0.3478
11 5 1 -4.6355 -0.7268
11 5 2 19.3591 0.4684
11 5 3 10.9732 -0.2860
11 5 4 -12.9517 0.3337
11 5 5 -20.5384 0.2688
11 5 6 -1.3787 -0.1907
11 5 7 -5.1012 0.1636
11 5 8 1.9858 -0.5250
11 5 9 -4.4997 -0.0064
11 5 10 -3.5334 -0.8549
11 5 11 -5.9723 0.2160
11 5 12 7.1337 -0.2462
11 5 13 -2.9914 0.0240
11 5 14 -14.0179 -0.1366
11 6 0 18.3155 -0.1195
11 6 1 3.8000 0.2887
11 6 2 -0.1912 0.3512
11 6 3 5.1231 -0.0673
11 6 4 -10.1381 0.1140
11 6 5 19.6701 0.2630
11 6 6 -15.2477 -0.3811
11 6 7 -2.6520 0.0123
11 6 8 0.7533 -0.2051
11 6 9 -7.4916 -0.0613
11 6 10 6.0352 -0.4865
11 6 11 10.4726 -0.1055
11 6 12 -23.3949 -0.8369
11 6 13 3.2746 -0.1173
11 6 14 -13.7502 -0.0075
11 7 0 -3.8792 0.1617
11 7 1 33.7133 0.1437
11 7 2 12.0496 0.1519
11 7 3 5.9227 -0.0754
11 7 4 26.9903 0.0643
11 7 5 9.6112 0.1850
11 7 6 -10.5316 -0.3075
11 7 7 5.0106 0.0272
11 7 8 -14.5147 -0.2131
11 7 9 -12.0392 -0.5445
11 7 10 -13.0966 -0.0837
11 7 11 6.2417 0.1743
11 7 12 -15.9349 -0.1524
11 7 13 -15.9459 0.5024
11 8 0 -2.1421 -0.0565
11 8 1 34.9697 -0.2578
11 8 2 -8.7056 0.0005
11 8 3 3.7756 -0.1149
11 8 4 -19.3028 0.1979
11 8 5 5.5011 -0.1930
11 8 6 -35.4635 0.0831
11 8 7 2.9789 0.0286
11 8 8 6.6280 -0.0538
11 8 9 -18.6433 0.0281
11 8 10 -7.4148 0.0186
11 8 11 -20.0089 0.2913
11 8 12 -7.1083 -0.3223
11 8 13 3.7068 0.2451
11 9 0 -24.5117 0.2243
11 9 1 25.1273 0.0175
11 9 2 -10.8641 0.3389
11 9 3 -3.6778 0.0411
11 9 4 20.7957 0.3295
11 9 5 23.4033 -0.0773
11 9 6 5.5910 -0.0663
11 9 7 -6.4323 0.0787
11 9 8 -4.3590 -0.0808
11 9 9 -5.9724 0.3746
11 9 10 4.3511 0.0672
11 9 11 10.3244 -0.4152
11 9 12 -7.7317 0.0465
11 9 13 16.5706 -0.1987
11 10 0 3.7234 -0.0091
11 10 1 -4.4172 0.1075
11 10 2 -4.3214 0.0135
11 10 3 -13.6905 -0.0415
11 10 4 -30.8717 -0.0109
11 10 5 -9.7487 0.0123
11 10 6 -21.6154 0.1094
11 10 7 16.7499 0.1908
11 10 8 -4.5712 -0.2711
11 10 9 10.4344 0.2997
11 10 10 -9.6299 -0.2907
11 10 11 -17.8412 0.4634
11 10 12 7.0069 0.3835
11 11 0 -10.3916 0.1309
11 11 1 -0.1934 0.1769
11 11 2 -14.5840 0.0443
11 11 3 24.4047 -0.1559
11 11 4 -10.3036 0.0018
11 11 5 18.7548 -0.2374
11 11 6 10.2496 -0.0343
11 11 7 -10.9475 -0.1444
11 11 8 9.7032 -0.1427
11 11 9 8.4148 0.3271
11 11 10 17.8911 -0.2820
11 11 11 0.0501 0.1692
11 11 12 7.5657 -0.2787
11 12 0 8.3081 0.1152
11 12 1 -12.3662 0.0130
11 12 2 -0.1957 0.1801
11 12 3 -9.3487 0.0039
11 12 4 -8.5028 0.0919
11 12 5 -4.7668 -0.0491
11 12 6 3.2416 0.0752
11 12 7 5.6949 0.1639
11 12 8 -6.8189 0.3932
11 12 9 5.2797 0.1844
11 12 10 -7.7766 -0.2098
11 12 11 0.8003 -0.1382
11 13 0 13.1673 -0.0024
11 13 1 9.7402 0.1137
11 13 2 -1.5471 -0.3086
11 13 3 12.9111 0.0571
11 13 4 -5.2761 -0.2232
11 13 5 -3.7900 0.1022
11 13 6 1.8258 -0.2216
11 13 7 0.0131 -0.1137
11 13 8 10.0857 -0.4932
11 13 9 0.0060 0.1806
11 13 10 7.6814 -0.3765
11 13 11 0.0624 0.6117
11 14 0 -8.5241 -0.1665
11 14 1 7.9214 -0.0994
11 14 2 -1.7870 0.1405
11 14 3 -3.3933 0.0863
11 14 4 16.3679 0.2019
11 14 5 -3.4145 0.1856
11 14 6 1.5057 0.6913
11 14 7 -11.6532 0.1893
11 14 8 0.9626 0.7836
11 14 9 -11.9618 -0.0696
11 14 10 4.0713 0.3677
11 15 0 3.6502 0.0637
11 15 1 -4.9411 -0.0977
11 15 2 4.9435 0.2335
11 15 3 -25.2536 0.2742
11 15 4 -3.8395 0.1326
11 15 5 -7.6788 0.3776
11 15 6 -6.1027 -0.1029
11 15 7 8.2632 0.0001
11 15 8 3.4389 -0.0135
11 15 9 -11.2826 -0.1906
11 16 0 -9.2115 -0.2334
11 16 1 -9.3604 -0.0733
11 16 2 1.9538 0.0081
11 16 3 -4.4818 -0.0977
11 16 4 17.3955 0.2096
11 16 5 -6.8032 0.3733
11 16 6 7.3585 0.0382
11 16 7 -14.1443 -0.2186
11 16 8 8.9894 -0.0753
11 17 0 9.9593 0.1900
11 17 1 -13.3243 0.2787
11 17 2 10.7756 0.3399
11 17 3 -7.0480 -0.5473
11 17 4 -6.5283 -0.2049
11 17 5 -0.9463 -0.3457
11 17 6 -6.7367 -0.0664
11 17 7 -1.0195 -0.0424
11 18 0 0.5963 -0.3008
11 18 1 -15.5100 -0.2634
11 18 2 -0.6047 -0.0682
11 18 3 -5.2230 -0.3973
11 18 4 6.7253 0.1163
11 18 5 3.6162 0.1509
11 19 0 5.6017 0.0502
11 19 1 4.4415 0.1901
11 19 2 15.0009 0.0916
11 19 3 12.2483 -0.6032
11 19 4 14.4846 -0.2434
11 20 0 4.2581 -0.1916
11 20 1 3.6143 -0.0559
11 20 2 -3.3136 0.0393
12 0 0 -15.4911 1.6045
12 0 2 -46.7011 0.5193
12 0 4 -23.0289 0.2997
12 0 6 -8.0278 -0.9703
12 0 8 -1.3254 -2.3162
12 0 10 -8.1602 -0.7187
12 0 12 -22.9806 -0.1594
12 0 14 4.1740 -0.4469
12 1 0 2.9376 1.8498
12 1 1 -24.0558 -1.3935
12 1 2 -0.6855 0.2646
12 1 3 -10.8463 0.2080
12 1 4 11.5137 -0.0741
12 1 5 -11.3665 -0.2799
12 1 6 16.9074 -1.0927
12 1 7 1.9101 1.0965
12 1 8 -2.9993 -2.4607
12 1 9 5.5335 1.1991
12 1 10 -10.3683 -0.3093
12 1 11 20.9286 -0.1211
12 1 12 -13.5509 0.4380
12 1 13 9.4085 0.0137
12 1 14 -22.6765 0.2253
12 2 0 5.8333 -0.7162
12 2 1 -12.3753 0.0665
12 2 2 1.5719 -0.0928
12 2 3 41.3594 -0.1927
12 2 4 -20.9046 -0.7291
12 2 5 34.7292 -0.0942
12 2 6 -6.5186 -0.6523
12 2 7 33.8146 0.9707
12 2 8 -2.6155 -1.0522
12 2 9 0.0058 1.2780
12 2 10 -9.2183 -0.0984
12 2 11 -24.1255 0.2864
12 2 12 -15.3086 0.8254
12 2 13 -19.7038 0.3341
12 2 14 -29.7020 0.1662
12 3 0 -2.1816 0.1669
12 3 1 -0.6325 0.1375
12 3 2 -9.0987 0.9435
12 3 3 4.0206 -0.7782
12 3 4 13.8833 -0.0464
12 3 5 15.2621 0.5771
12 3 6 0.9595 -0.0483
12 3 7 -4.8513 0.5910
12 3 8 -16.9561 0.1777
12 3 9 -3.8848 1.1619
12 3 10 -11.2352 0.0475
12 3 11 -20.1437 0.7190
12 3 12 -26.5595 -0.0018
12 3 13 -7.8722 0.4642
12 4 0 9.3154 -0.7859
12 4 1 0.4944 -0.3386
12 4 2 27.8612 -0.0496
12 4 3 16.8053 -0.5351
12 4 4 -0.1435 -0.4031
12 4 5 26.4624 0.4910
12 4 6 -5.5638 0.0417
12 4 7 12.7822 -0.0597
12 4 8 8.6697 0.5394
12 4 9 -16.9738 0.2615
12 4 10 -3.9805 0.0042
12 4 11 6.9442 0.9730
12 4 12 0.1783 -0.1759
12 4 13 22.1875 0.1940
12 5 0 -27.0674 -1.0486
12 5 1 14.8455 0.3056
12 5 2 -15.7534 0.0763
12 5 3 -6.8500 -0.2352
12 5 4 -9.0766 -0.0792
12 5 5 15.6151 0.4315
12 5 6 -29.0732 0.3465
12 5 7 2.8626 0.1403
12 5 8 -1.4238 1.2988
12 5 9 -12.8952 0.0309
12 5 10 -12.0023 -0.0119
12 5 11 3.7198 0.4750
12 5 12 -13.1433 -0.5733
12 5 13 4.1550 0.3538
12 6 0 -12.7796 0.5582
12 6 1 3.5604 0.0189
12 6 2 -9.5800 0.0561
12 6 3 -14.9843 -0.2820
12 6 4 25.9873 0.3671
12 6 5 28.4535 0.0149
12 6 6 -2.5208 0.1468
12 6 7 7.4910 -0.3892
12 6 8 5.6426 0.4676
12 6 9 1.9902 -0.4539
12 6 10 20.5152 -0.3298
12 6 11 14.6036 0.1277
12 6 12 11.5303 -0.7499
12 6 13 4.3343 0.2224
12 7 0 -16.9095 -0.3926
12 7 1 16.8622 -0.1324
12 7 2 -7.0906 -0.3358
12 7 3 2.9138 -0.0901
12 7 4 -24.2256 0.2893
12 7 5 -14.2508 -0.0973
12 7 6 -10.5300 0.1438
12 7 7 4.9284 -0.0815
12 7 8 17.8993 -0.0872
12 7 9 -11.7191 -0.3140
12 7 10 -7.2499 0.1144
12 7 11 -5.9338 0.1262
12 7 12 -2.9936 0.0443
12 7 13 11.8808 -0.0767
12 8 0 4.1595 0.0998
12 8 1 -6.8526 0.1875
12 8 2 3.4745 -0.0504
12 8 3 2.1992 -0.0365
12 8 4 24.7030 0.0652
12 8 5 6.4087 -0.3321
12 8 6 3.0769 -0.2439
12 8 7 2.6499 -0.1875
12 8 8 -16.8537 -0.0742
12 8 9 20.2428 -0.2516
12 8 10 20.2848 -0.1869
12 8 11 8.8021 -0.5929
12 8 12 1.6900 -0.1455
12 9 0 34.7070 -0.1937
12 9 1 -0.9672 -0.1403
12 9 2 -0.1987 0.0499
12 9 3 22.6399 -0.0428
12 9 4 -19.6656 0.2628
12 9 5 -11.7388 -0.0479
12 9 6 3.3150 0.1536
12 9 7 1.0197 0.0269
12 9 8 -8.7891 -0.1544
12 9 9 -9.6471 -0.0561
12 9 10 5.8434 -0.1558
12 9 11 -17.9543 0.4580
12 9 12 7.0083 0.2534
12 10 0 23.6322 -0.0083
12 10 1 -2.1932 -0.0602
12 10 2 16.6536 -0.0281
12 10 3 12.8500 -0.0115
12 10 4 -5.5051 -0.0718
12 10 5 -29.2178 -0.0302
12 10 6 8.0786 -0.2002
12 10 7 -13.1835 -0.3006
12 10 8 0.0528 -0.0082
12 10 9 11.1050 -0.4037
12 10 10 1.0842 0.2003
12 10 11 0.6668 -0.0111
12 11 0 16.7395 -0.1859
12 11 1 -20.3456 0.1642
12 11 2 -1.6676 0.1407
12 11 3 6.0670 0.3743
12 11 4 5.2128 0.1260
12 11 5 7.9266 0.1475
12 11 6 3.5594 -0.0106
12 11 7 -0.5796 0.0472
12 11 8 -19.2544 0.3304
12 11 9 -0.8646 -0.1599
12 11 10 0.6354 -0.1116
12 11 11 4.0254 -0.0695
12 12 0 -0.8540 0.2162
12 12 1 6.3695 0.1613
12 12 2 -6.8636 0.0571
12 12 3 -14.7174 0.0100
12 12 4 -14.4355 -0.0774
12 12 5 -28.3679 -0.2014
12 12 6 11.8866 -0.1509
12 12 7 -6.1264 -0.3406
12 12 8 20.1142 -0.1911
12 12 9 -3.9185 -0.3472
12 12 10 -1.0754 0.1157
12 13 0 -17.8799 0.0014
12 13 1 -18.6537 -0.2544
12 13 2 10.5917 -0.1332
12 13 3 -9.1062 -0.2437
12 13 4 21.1521 -0.2027
12 13 5 7.4942 -0.2017
12 13 6 2.5710 -0.0048
12 13 7 -0.1349 -0.4062
12 13 8 1.8077 0.2016
12 13 9 3.5283 -0.4991
12 14 0 -5.3381 0.2023
12 14 1 -4.6899 0.1833
12 14 2 -3.2939 0.0497
12 14 3 -21.2907 -0.0069
12 14 4 -1.4651 -0.4248
12 14 5 -5.1190 -0.0400
12 14 6 2.7755 -0.1226
12 14 7 2.2828 0.4005
12 14 8 5.9568 0.1743
12 14 9 -2.3613 0.0895
12 15 0 1.7175 -0.1966
12 15 1 -7.2957 -0.3998
12 15 2 10.6872 -0.0813
12 15 3 -3.7288 -0.5550
12 15 4 13.7049 0.1514
12 15 5 -0.5142 -0.4543
12 15 6 11.4768 -0.0531
12 15 7 -0.0201 -0.7947
12 15 8 7.3668 0.0854
12 16 0 8.6964 0.1429
12 16 1 -2.5194 0.1919
12 16 2 6.3365 0.2201
12 16 3 4.7104 -0.0979
12 16 4 -4.4745 -0.0877
12 16 5 1.9700 0.3187
12 16 6 -11.6949 0.3271
12 16 7 -2.1271 0.5081
12 17 0 1.5972 -0.1559
12 17 1 -3.4914 0.0739
12 17 2 -9.1320 0.2269
12 17 3 -11.6436 0.1092
12 17 4 3.1558 0.3296
12 17 5 -3.7926 -0.0973
12 17 6 13.1898 -0.1606
12 18 0 -9.2152 -0.0387
12 18 1 1.9855 -0.1585
12 18 2 -7.4542 0.0885
12 18 3 6.4417 0.1396
12 18 4 1.2100 0.6986
12 19 0 -4.0972 0.2138
12 19 1 6.1819 0.2502
12 19 2 -4.5343 -0.2722
13 0 0 45.4226 -0.5811
13 0 2 -9.1919 0.1840
13 0 4 -20.8322 0.2840
13 0 6 -27.3129 -0.5519
13 0 8 -24.2250 -0.8047
13 0 10 -1.2198 0.0084
13 0 12 10.0932 -0.3857
13 1 0 -11.3227 -0.8611
13 1 1 13.7712 -0.3355
13 1 2 -7.5298 0.5338
13 1 3 9.1565 -0.6424
13 1 4 -25.8601 -0.4653
13 1 5 -1.6163 -0.3635
13 1 6 -8.1184 -0.1002
13 1 7 17.6001 -1.1188
13 1 8 4.3085 -0.7123
13 1 9 15.3069 -0.6241
13 1 10 27.6579 -0.8785
13 1 11 15.4228 -0.1264
13 1 12 31.7838 -0.4594
13 1 13 20.6662 0.0818
13 2 0 6.2274 -0.2402
13 2 1 -33.2337 0.6788
13 2 2 -6.4942 0.5809
13 2 3 -35.3074 0.0669
13 2 4 -2.6403 -0.5514
13 2 5 -12.7357 -0.2825
13 2 6 -13.3011 0.4754
13 2 7 -5.9769 -1.4959
13 2 8 -4.5417 0.5616
13 2 9 19.4403 -0.4307
13 2 10 4.3938 -0.7865
13 2 11 -1.8460 0.1244
13 2 12 -7.0553 -0.1667
13 2 13 7.3292 -0.0302
13 3 0 -10.8186 -0.4553
13 3 1 1.1315 0.2888
13 3 2 -13.7901 0.0038
13 3 3 -5.1846 -0.0438
13 3 4 -18.8127 -0.1574
13 3 5 17.0173 -0.8126
13 3 6 -2.7885 0.2408
13 3 7 10.1901 -2.2604
13 3 8 17.5300 0.5789
13 3 9 7.0814 -0.5824
13 3 10 20.1663 -0.3978
13 3 11 14.2308 0.5276
13 3 12 20.5961 -0.2951
13 3 13 15.8756 0.1404
13 4 0 -25.7616 0.0661
13 4 1 7.2745 0.0230
13 4 2 11.0500 0.0695
13 4 3 -20.5133 -0.4892
13 4 4 -0.8580 -0.0210
13 4 5 -9.2770 -0.5459
13 4 6 0.3721 0.5168
13 4 7 10.3600 -0.7976
13 4 8 8.4216 1.1675
13 4 9 -0.0920 -0.0403
13 4 10 -3.0694 0.2254
13 4 11 -3.1035 0.9414
13 4 12 -3.0342 0.1094
13 5 0 10.5735 0.6342
13 5 1 -10.0253 0.6169
13 5 2 -10.4150 -0.3071
13 5 3 -2.7061 -0.1115
13 5 4 21.8586 0.4346
13 5 5 3.9887 -0.3167
13 5 6 13.4290 0.2492
13 5 7 -13.0369 -0.1172
13 5 8 5.7886 0.8398
13 5 9 6.0216 -0.2429
13 5 10 7.4460 0.4024
13 5 11 -10.9506 -0.0667
13 5 12 -11.6604 0.2724
13 6 0 0.2718 -0.2962
13 6 1 9.9255 -0.0265
13 6 2 11.5601 -0.2956
13 6 3 9.7656 -0.0829
13 6 4 -5.7119 0.6053
13 6 5 -17.3805 -0.0408
13 6 6 14.5069 0.2416
13 6 7 13.3613 0.2920
13 6 8 -6.4762 0.3496
13 6 9 -4.9170 -0.0311
13 6 10 -10.7643 1.0679
13 6 11 -4.3837 0.0811
13 6 12 6.6509 0.2933
13 7 0 7.5145 0.2110
13 7 1 -17.9998 -0.0025
13 7 2 2.1756 -0.0144
13 7 3 6.1671 -0.1767
13 7 4 9.4233 0.2170
13 7 5 -13.8888 -0.1073
13 7 6 10.5709 0.1866
13 7 7 -3.0988 0.6427
13 7 8 -12.7527 0.2077
13 7 9 0.7531 -0.0877
13 7 10 10.2915 0.2152
13 7 11 -14.7423 -0.5533
13 7 12 0.9503 -0.0798
13 8 0 1.9718 -0.0881
13 8 1 -26.2163 -0.0503
13 8 2 -9.5399 -0.0237
13 8 3 18.2031 0.1929
13 8 4 18.3030 0.1326
13 8 5 4.3103 0.1230
13 8 6 30.8829 0.1020
13 8 7 -5.8031 0.3019
13 8 8 -7.5124 0.0627
13 8 9 -0.4882 -0.2793
13 8 10 1.6085 0.1781
13 8 11 2.5360 -0.2346
13 9 0 -4.9019 -0.2306
13 9 1 -2.5503 -0.0552
13 9 2 14.2043 -0.2427
13 9 3 -4.8710 0.0550
13 9 4 -15.0760 -0.0881
13 9 5 -11.8776 0.0648
13 9 6 3.2602 0.2163
13 9 7 6.5537 -0.0432
13 9 8 -0.3007 0.1296
13 9 9 5.6931 -0.1428
13 9 10 -20.9160 0.3935
13 9 11 -7.0111 -0.1078
13 10 0 -27.0019 -0.1800
13 10 1 -3.3929 -0.1517
13 10 2 3.3558 -0.1673
13 10 3 11.6992 -0.0200
13 10 4 26.7434 0.0612
13 10 5 22.9951 -0.0931
13 10 6 11.1469 0.1205
13 10 7 -16.9234 0.0100
13 10 8 -1.3620 -0.1360
13 10 9 -1.7535 0.1442
13 10 10 4.1415 -0.2434
13 11 0 2.6213 -0.0842
13 11 1 18.4432 0.2560
13 11 2 13.1569 0.0354
13 11 3 -19.5364 0.2608
13 11 4 -2.0256 0.0582
13 11 5 -10.4247 0.0938
13 11 6 -4.8903 0.5232
13 11 7 -11.8559 0.2477
13 11 8 6.4971 0.1199
13 11 9 -3.6307 0.0332
13 11 10 -16.2783 0.3869
13 12 0 -9.0681 -0.1921
13 12 1 25.6402 -0.1342
13 12 2 20.9848 -0.1905
13 12 3 -2.9746 0.0901
13 12 4 4.2529 0.1334
13 12 5 9.9966 -0.0625
13 12 6 -17.8406 0.0433
13 12 7 -1.1914 -0.3127
13 12 8 2.2263 -0.2990
13 12 9 3.5439 -0.0900
13 13 0 5.5357 0.2031
13 13 1 8.7594 0.2872
13 13 2 6.7244 0.4976
13 13 3 -12.5752 0.3420
13 13 4 10.2369 0.2303
13 13 5 -4.9769 0.1821
13 13 6 -11.3085 0.3003
13 13 7 -12.7558 0.4822
13 13 8 -0.8003 -0.1055
13 14 0 13.7108 0.0401
13 14 1 9.2992 0.1671
13 14 2 -4.1125 0.1651
13 14 3 -5.6566 0.0679
13 14 4 -11.8170 0.1174
13 14 5 2.1099 -0.2914
13 14 6 -3.9016 -0.0511
13 14 7 7.4758 -0.6424
13 14 8 3.8344 -0.0679
13 15 0 -4.7669 -0.3337
13 15 1 6.1900 -0.0410
13 15 2 0.4396 -0.1330
13 15 3 10.7036 0.1165
13 15 4 -0.8427 -0.0048
13 15 5 2.4333 0.2618
13 15 6 -10.6635 -0.1594
13 15 7 0.9957 -0.0134
13 16 0 1.5938 0.2427
13 16 1 0.4097 0.2605
13 16 2 -14.7261 0.1614
13 16 3 -5.9710 -0.3358
13 16 4 -4.9895 0.0607
13 16 5 -6.7791 -0.2285
13 17 0 -8.3901 -0.4613
13 17 1 8.2972 -0.2288
13 17 2 -8.3017 -0.5099
13 17 3 13.9554 0.2974
13 17 4 -1.9615 0.1472
13 18 0 1.4787 0.5624
13 18 1 5.6537 0.5194
13 18 2 4.5167 -0.2372
13 19 0 -6.1552 0.0418
14 0 0 2.9589 -0.3792
14 0 2 29.5707 0.0052
14 0 4 10.7602 0.8561
14 0 6 10.3463 2.3449
14 0 8 -14.8921 0.9707
14 0 10 -0.5601 0.0595
14 0 12 4.2290 0.3576
14 1 0 2.6447 -0.2539
14 1 1 5.7757 0.3074
14 1 2 15.0098 0.0345
14 1 3 11.9055 0.0441
14 1 4 7.8021 0.8112
14 1 5 6.5608 -0.7914
14 1 6 3.3652 2.4143
14 1 7 -10.6269 -1.0569
14 1 8 -1.7695 1.0114
14 1 9 -8.4651 -0.0878
14 1 10 -8.3825 -0.4489
14 1 11 -27.3722 -0.0984
14 1 12 -10.7657 0.0427
14 2 0 0.6702 0.3980
14 2 1 11.9700 -0.4624
14 2 2 5.4536 0.5641
14 2 3 0.8306 0.2072
14 2 4 2.2597 1.0187
14 2 5 0.1605 -0.4991
14 2 6 -2.6636 0.7424
14 2 7 -21.8566 -1.1568
14 2 8 0.2895 0.3204
14 2 9 -25.1071 -0.3696
14 2 10 -10.2789 -0.6740
14 2 11 -14.6353 -0.3018
14 2 12 -2.9435 -0.2598
14 3 0 -4.0066 -0.3937
14 3 1 11.2261 0.2110
14 3 2 18.9095 -0.3274
14 3 3 -10.1538 -0.4045
14 3 4 2.1945 0.1292
14 3 5 -19.4823 -0.3233
14 3 6 9.6855 -0.3924
14 3 7 -11.1960 -0.7849
14 3 8 0.0806 -0.0082
14 3 9 -5.5624 -0.9855
14 3 10 0.4334 0.0902
14 3 11 21.3037 -0.5861
14 3 12 14.6108 0.0693
14 4 0 -0.1767 0.2828
14 4 1 -8.7541 0.3165
14 4 2 -19.7861 0.0411
14 4 3 -0.6817 -0.5597
14 4 4 3.2398 0.1882
14 4 5 -14.7054 -0.0216
14 4 6 -3.3234 -0.5194
14 4 7 -16.7759 0.1108
14 4 8 2.6506 -0.1049
14 4 9 2.4399 -1.1937
14 4 10 -3.6168 0.1513
14 4 11 -9.9220 -0.5789
14 5 0 -9.7243 0.0422
14 5 1 -7.3472 -0.0950
14 5 2 -8.3695 0.0195
14 5 3 1.9927 -0.0510
14 5 4 -2.8840 -0.2005
14 5 5 -8.1489 -0.2275
14 5 6 3.9384 -1.3246
14 5 7 4.8915 -0.0070
14 5 8 3.5980 -0.5722
14 5 9 -3.5062 -0.5654
14 5 10 8.6269 0.5989
14 5 11 10.3213 -0.3355
14 6 0 4.0243 -0.0031
14 6 1 4.0403 0.1301
14 6 2 -4.4109 -0.2745
14 6 3 -15.9003 -0.0432
14 6 4 -6.1571 -0.4364
14 6 5 -23.9871 0.0727
14 6 6 6.0229 -0.3406
14 6 7 -2.8368 0.5541
14 6 8 0.9749 0.1112
14 6 9 -2.1132 0.0053
14 6 10 -1.1786 0.7250
14 6 11 -4.5616 -0.1196
14 7 0 -6.2715 0.2318
14 7 1 -14.4211 -0.0459
14 7 2 -18.0100 -0.1157
14 7 3 7.1319 0.2104
14 7 4 3.4241 -0.3633
14 7 5 18.9695 -0.1557
14 7 6 -7.6651 -0.1685
14 7 7 0.5660 0.0197
14 7 8 -0.0655 -0.1147
14 7 9 13.4383 -0.0463
14 7 10 0.6346 0.0911
14 7 11 2.8402 0.0939
14 8 0 -1.6998 0.0872
14 8 1 24.6745 0.1824
14 8 2 1.0371 0.0014
14 8 3 -20.7446 0.3155
14 8 4 -24.6238 -0.1618
14 8 5 -9.2127 0.0683
14 8 6 -4.9666 0.2196
14 8 7 -0.0924 0.2371
14 8 8 14.3343 -0.0257
14 8 9 -2.1105 0.7558
14 8 10 -12.3114 0.2878
14 9 0 -12.8196 0.0165
14 9 1 2.4995 -0.0372
14 9 2 -1.6643 -0.4231
14 9 3 -13.7557 0.0896
14 9 4 5.3792 -0.2758
14 9 5 14.2746 -0.1193
14 9 6 -1.2202 -0.0532
14 9 7 -2.2591 -0.2146
14 9 8 4.8673 -0.3950
14 9 9 7.6367 0.2434
14 9 10 4.3012 -0.4022
14 10 0 -15.6235 0.0394
14 10 1 3.1044 0.2735
14 10 2 -12.4407 0.0488
14 10 3 1.5917 0.0734
14 10 4 1.6188 -0.2535
14 10 5 17.2893 -0.1377
14 10 6 -11.4827 0.2941
14 10 7 5.2616 0.1251
14 10 8 6.8562 0.0399
14 10 9 0.1887 0.0003
14 11 0 -5.8750 0.0669
14 11 1 4.3560 -0.5004
14 11 2 2.5946 -0.2833
14 11 3 -16.5805 -0.1233
14 11 4 0.8562 -0.1642
14 11 5 6.0150 0.1174
14 11 6 1.7317 -0.3069
14 11 7 13.5206 0.0706
14 11 8 6.7037 -0.2880
14 11 9 -7.6254 0.1953
14 12 0 -7.4550 -0.2696
14 12 1 -13.7712 -0.2096
14 12 2 -2.7734 -0.2116
14 12 3 21.2938 0.1380
14 12 4 18.6696 -0.2160
14 12 5 14.2874 0.2449
14 12 6 -0.5801 -0.1445
14 12 7 3.6222 -0.0023
14 12 8 -3.3393 0.1741
14 13 0 4.9346 0.0611
14 13 1 -2.1190 0.0932
14 13 2 -17.7405 0.0485
14 13 3 11.2964 -0.0939
14 13 4 -12.2966 -0.0231
14 13 5 1.1929 0.2199
14 13 6 -0.2255 0.4109
14 13 7 7.2353 -0.0400
14 14 0 9.9806 -0.3870
14 14 1 -1.0046 -0.3589
14 14 2 8.0653 -0.1411
14 14 3 17.2548 0.1313
14 14 4 4.7520 -0.1266
14 14 5 -4.8087 0.2899
14 14 6 4.3524 -0.7684
14 15 0 2.5035 0.3316
14 15 1 2.1489 0.5448
14 15 2 -11.3589 0.0205
14 15 3 11.8648 -0.2745
14 15 4 -7.8139 -0.0523
14 15 5 -13.0808 0.0504
14 16 0 7.2291 -0.0901
14 16 1 -0.7158 -0.0002
14 16 2 -3.2938 -0.1221
14 16 3 5.9107 0.2365
14 16 4 -1.9022 -0.2369
14 17 0 5.6291 0.1090
14 17 1 2.0671 -0.1371
14 17 2 14.1361 -0.2864
14 18 0 4.0921 -0.0008
15 0 0 -20.3027 0.7714
15 0 2 -5.3620 -0.0722
15 0 4 -0.3178 0.2082
15 0 6 7.8881 0.6431
15 0 8 24.0388 0.0547
15 0 10 23.7039 0.2032
15 1 0 4.8485 -0.1929
15 1 1 -3.7898 0.3219
15 1 2 -1.1490 0.2772
15 1 3 -5.1493 0.3546
15 1 4 3.7904 0.0842
15 1 5 -2.8621 1.1255
15 1 6 2.8829 0.1659
15 1 7 1.8132 0.7245
15 1 8 17.2700 0.7828
15 1 9 -4.5242 0.1997
15 1 10 -9.4306 0.6577
15 1 11 2.1099 0.0370
15 2 0 -9.3220 -0.2069
15 2 1 12.4945 0.1506
15 2 2 2.2676 0.4814
15 2 3 3.0422 0.2190
15 2 4 9.4844 -0.2887
15 2 5 -1.0576 1.2458
15 2 6 7.3863 -0.7517
15 2 7 3.2575 0.6215
15 2 8 0.7652 0.7384
15 2 9 7.9264 -0.1276
15 2 10 8.6410 0.5458
15 2 11 27.1700 -0.0663
15 3 0 22.4708 0.3143
15 3 1 7.8920 0.2320
15 3 2 -2.9723 -0.0742
15 3 3 11.2534 0.4610
15 3 4 2.0945 -0.3103
15 3 5 6.9505 1.9681
15 3 6 -3.3762 -0.2695
15 3 7 2.6741 1.1778
15 3 8 6.9151 0.2677
15 3 9 -5.3227 -0.3665
15 3 10 -0.9161 0.3153
15 4 0 1.4511 -0.4224
15 4 1 5.4019 0.4344
15 4 2 2.4461 -0.0072
15 4 3 7.3430 0.8727
15 4 4 14.6813 -0.3953
15 4 5 -1.8646 0.4618
15 4 6 -1.3059 -1.0305
15 4 7 4.8304 0.2367
15 4 8 -3.1539 -0.4418
15 4 9 -3.0974 -0.5898
15 4 10 -2.7793 -0.0037
15 5 0 24.2683 0.1825
15 5 1 18.2888 -0.0311
15 5 2 9.1670 -0.2860
15 5 3 -4.5996 0.3601
15 5 4 -10.6305 -0.2227
15 5 5 4.6704 0.0922
15 5 6 -10.2822 -0.3794
15 5 7 9.2275 0.1792
15 5 8 -17.0105 -0.3819
15 5 9 1.6700 0.0722
15 5 10 8.5657 -0.2370
15 6 0 -2.8113 0.0138
15 6 1 0.6362 -0.1117
15 6 2 -7.9988 -0.4094
15 6 3 16.0164 0.2117
15 6 4 -3.5787 -0.1774
15 6 5 17.9767 -0.1185
15 6 6 -7.2367 -0.2338
15 6 7 -2.7073 -0.0870
15 6 8 3.7552 -1.0643
15 6 9 6.9274 -0.0513
15 6 10 6.7444 -0.5617
15 7 0 0.6506 -0.1248
15 7 1 -0.1473 0.3103
15 7 2 19.5840 0.0128
15 7 3 -3.9670 0.2359
15 7 4 1.5540 -0.1718
15 7 5 -5.7267 -0.3091
15 7 6 -2.9244 -0.0732
15 7 7 1.7972 0.0969
15 7 8 -1.2413 -0.5909
15 7 9 6.8986 0.5108
15 8 0 8.0450 -0.0877
15 8 1 9.6918 -0.2061
15 8 2 -6.3651 -0.1184
15 8 3 4.2681 0.0308
15 8 4 -19.2351 0.2384
15 8 5 16.7132 -0.0130
15 8 6 -6.2997 0.1568
15 8 7 4.4548 -0.0412
15 8 8 -10.5334 -0.1494
15 8 9 -2.2531 0.3300
15 9 0 -11.1421 0.1201
15 9 1 -17.1311 0.1194
15 9 2 3.3069 0.3414
15 9 3 12.8837 -0.0960
15 9 4 12.7581 -0.1739
15 9 5 -5.5173 0.0257
15 9 6 -3.6744 -0.2011
15 9 7 -4.0376 0.2796
15 9 8 7.8450 -0.1291
15 9 9 -0.1809 0.0199
15 10 0 32.5911 0.1800
15 10 1 -7.3707 0.1503
15 10 2 1.6202 0.0632
15 10 3 -16.2921 0.1545
15 10 4 -17.0664 -0.0422
15 10 5 -10.6419 0.4491
15 10 6 -5.1566 -0.1333
15 10 7 6.8461 0.2789
15 10 8 -4.5846 0.2303
15 11 0 -1.0301 -0.1173
15 11 1 -3.5812 -0.1167
15 11 2 -16.3001 0.0588
15 11 3 15.2808 -0.1639
15 11 4 -9.7071 -0.0070
15 11 5 -2.7257 -0.2126
15 11 6 4.5331 -0.2198
15 11 7 2.3958 -0.5656
15 12 0 16.4897 0.2741
15 12 1 -20.7016 0.2542
15 12 2 -2.2390 0.1047
15 12 3 1.0902 -0.3042
15 12 4 -1.6574 -0.2475
15 12 5 -13.2653 0.2711
15 12 6 5.6089 0.2025
15 12 7 -3.2577 0.3302
15 13 0 9.2046 -0.5062
15 13 1 1.3065 -0.0880
15 13 2 -6.2099 -0.1133
15 13 3 -2.4075 0.0704
15 13 4 -3.1958 0.0153
15 13 5 -4.6043 0.0413
15 13 6 12.4875 -0.1694
15 14 0 -14.6715 0.0054
15 14 1 3.1289 -0.0629
15 14 2 3.1899 0.2158
15 14 3 9.4379 -0.2447
15 14 4 8.6759 0.6044
15 14 5 1.5605 -0.0526
15 15 0 2.5992 0.3219
15 15 1 -12.6646 0.2459
15 15 2 6.2843 0.1943
15 15 3 -15.3427 0.5278
15 15 4 7.3703 -0.0294
15 16 0 -8.0687 -0.1602
15 16 1 6.4908 -0.3060
15 16 2 16.5658 0.2330
15 17 0 -2.0595 0.7664
16 0 0 1.0212 -0.3892
16 0 2 -7.1291 -0.5008
16 0 4 -0.2927 -2.0816
16 0 6 0.6274 -1.0633
16 0 8 -5.6096 -0.1577
16 0 10 -32.1106 -0.2869
16 1 0 -4.9904 -0.2628
16 1 1 -9.3867 -0.1592
16 1 2 -0.7418 -0.6521
16 1 3 4.8387 0.6103
16 1 4 -1.3827 -2.4618
16 1 5 1.3170 0.6462
16 1 6 -2.4969 -1.2933
16 1 7 -9.1970 -0.0625
16 1 8 -11.9669 0.4379
16 1 9 0.2049 0.1156
16 2 0 3.9539 -0.6088
16 2 1 -9.6795 0.0992
16 2 2 -7.9068 -1.2161
16 2 3 -1.8126 0.2805
16 2 4 -3.6513 -0.6367
16 2 5 1.1180 1.0540
16 2 6 2.2770 -0.1254
16 2 7 -3.4734 0.4669
16 2 8 -2.9174 0.3687
16 2 9 5.5047 0.2092
16 3 0 -9.5537 0.2225
16 3 1 -9.1678 0.2723
16 3 2 7.0527 0.0507
16 3 3 -2.1943 0.3717
16 3 4 3.7361 0.4400
16 3 5 2.8352 0.3590
16 3 6 -1.4769 0.0795
16 3 7 20.5488 0.7621
16 3 8 -9.3197 -0.1019
16 3 9 5.7850 0.5521
16 4 0 0.5914 0.1508
16 4 1 -2.7930 0.3405
16 4 2 0.7125 -0.2192
16 4 3 7.8332 0.2068
16 4 4 -15.1274 0.5951
16 4 5 9.8879 -0.1703
16 4 6 -1.4636 0.2970
16 4 7 -4.0276 0.8847
16 4 8 -7.4632 0.0092
16 4 9 -1.4757 0.6613
16 5 0 3.0653 0.0559
16 5 1 -5.4028 -0.0551
16 5 2 4.9942 0.1513
16 5 3 -2.1522 0.0133
16 5 4 4.7414 1.1315
16 5 5 2.3241 0.2501
16 5 6 9.6797 0.6608
16 5 7 -5.7699 0.6467
16 5 8 -5.2128 -0.5826
16 5 9 2.3023 0.5687
16 6 0 -7.5996 0.0756
16 6 1 -13.4801 0.0486
16 6 2 9.6672 0.2701
16 6 3 11.8420 -0.1377
16 6 4 -6.9022 0.0795
16 6 5 -0.5105 -0.6505
16 6 6 -10.1916 0.2530
16 6 7 4.0773 -0.0150
16 6 8 -2.4450 -0.4717
16 6 9 -1.8385 0.2470
16 7 0 13.1647 0.0740
16 7 1 12.8331 -0.2386
16 7 2 -10.9349 0.1696
16 7 3 -4.6623 0.0081
16 7 4 -8.9907 0.2374
16 7 5 -0.0369 -0.1342
16 7 6 6.5931 0.1875
16 7 7 -18.3642 -0.1776
16 7 8 -5.3216 0.0174
16 8 0 1.1096 -0.2351
16 8 1 -24.4217 -0.2064
16 8 2 11.8699 -0.0776
16 8 3 -5.5789 -0.1557
16 8 4 15.3883 -0.4613
16 8 5 -9.7801 -0.1139
16 8 6 -1.0562 -0.3323
16 8 7 0.9748 -0.3855
16 8 8 9.1961 -0.1976
16 9 0 6.0717 0.2134
16 9 1 14.8810 0.1428
16 9 2 -2.5498 0.1192
16 9 3 8.5954 0.0455
16 9 4 -6.2561 0.0027
16 9 5 -0.6048 -0.0261
16 9 6 -7.4519 0.3988
16 9 7 -4.0423 -0.5103
16 10 0 6.5618 -0.0882
16 10 1 6.0602 -0.2659
16 10 2 -0.5892 0.0987
16 10 3 -10.7792 0.1092
16 10 4 6.7329 0.0705
16 10 5 -7.5447 -0.0358
16 10 6 15.1256 -0.0161
16 10 7 -7.0547 -0.4748
16 11 0 -4.2244 0.1190
16 11 1 -5.0168 0.4097
16 11 2 13.3228 0.0719
16 11 3 8.4603 0.1570
16 11 4 14.7056 -0.2523
16 11 5 -4.8163 -0.1040
16 11 6 -3.5324 0.0074
16 12 0 -8.6878 0.2852
16 12 1 21.5737 -0.2444
16 12 2 -9.7690 0.1386
16 12 3 -14.8986 -0.3788
16 12 4 -3.7802 0.1657
16 12 5 -5.7280 -0.5211
16 13 0 -12.8301 0.0952
16 13 1 -4.0537 -0.3618
16 13 2 10.1342 -0.0585
16 13 3 -14.0263 -0.0879
16 13 4 8.6365 -0.2567
16 14 0 -6.3733 0.3977
16 14 1 -6.8848 -0.1794
16 14 2 3.9101 -0.6247
16 14 3 -17.0048 -0.4924
16 15 0 -9.9589 -0.3528
16 15 1 1.6589 -0.7791
16 15 2 -3.7437 0.1309
16 16 0 3.0618 -0.0483
17 0 0 16.0406 0.1394
17 0 2 6.9788 0.1669
17 0 4 -2.6268 -0.4378
17 0 6 9.4575 -0.2463
17 0 8 1.6260 0.0056
17 1 0 -5.1561 -0.1533
17 1 1 -7.0272 -0.2910
17 1 2 2.6405 -0.0200
17 1 3 -11.1270 -1.2065
17 1 4 2.0029 0.4790
17 1 5 -1.3780 -0.7088
17 1 6 -7.6001 -0.8274
17 1 7 5.0257 0.0536
17 1 8 -2.5809 -0.5216
17 2 0 5.9734 -0.1097
17 2 1 -0.1879 0.0785
17 2 2 3.7156 0.1661
17 2 3 -4.7967 -1.1913
17 2 4 -6.3459 1.0456
17 2 5 3.2018 -0.7628
17 2 6 -3.4532 -0.6037
17 2 7 10.4817 -0.0721
17 2 8 3.7261 -0.6189
17 3 0 -11.0203 -0.0964
17 3 1 -3.7535 -0.6114
17 3 2 0.0839 0.1445
17 3 3 -1.3271 -1.8091
17 3 4 -2.4691 0.1112
17 3 5 -6.2987 -1.5252
17 3 6 -0.9223 -0.4869
17 3 7 -12.0696 0.3698
17 3 8 5.3974 -0.2615
17 4 0 2.3828 0.3636
17 4 1 -4.6024 -0.9911
17 4 2 -4.5265 0.3163
17 4 3 -9.8848 -0.6575
17 4 4 1.8278 0.6995
17 4 5 5.9595 -0.1397
17 4 6 -5.9872 0.3915
17 4 7 0.2612 0.4277
17 4 8 2.4572 -0.1589
17 5 0 -13.9323 -0.0137
17 5 1 4.3232 -0.1823
17 5 2 -4.8218 0.1696
17 5 3 10.5687 0.0277
17 5 4 0.1825 -0.0123
17 5 5 0.2818 -0.4966
17 5 6 8.6024 0.6537
17 5 7 8.2339 -0.3427
17 5 8 26.5067 0.2881
17 6 0 7.8354 0.5026
17 6 1 6.9892 -0.2730
17 6 2 2.7150 0.4742
17 6 3 -12.1297 0.3541
17 6 4 15.7714 0.0436
17 6 5 0.2948 0.4027
17 6 6 6.9952 0.5304
17 6 7 -5.6744 0.0208
17 7 0 -3.0416 -0.1931
17 7 1 4.2389 -0.0987
17 7 2 -0.7206 0.1576
17 7 3 1.1041 0.3217
17 7 4 10.1861 -0.0366
17 7 5 12.2121 0.3561
17 7 6 3.5311 0.3347
17 7 7 11.2804 -0.4968
17 8 0 -15.2740 0.1652
17 8 1 12.1229 -0.0605
17 8 2 5.3988 0.2127
17 8 3 8.1673 -0.1125
17 8 4 10.1273 -0.1225
17 8 5 -7.7175 0.1372
17 8 6 2.4810 0.3582
17 9 0 13.5579 -0.1085
17 9 1 3.3142 -0.2972
17 9 2 0.7306 0.0022
17 9 3 -16.2595 -0.0183
17 9 4 7.1597 -0.0670
17 9 5 0.9476 0.5149
17 9 6 8.5380 -0.1108
17 10 0 -28.5878 -0.2047
17 10 1 -0.4523 -0.1514
17 10 2 -4.0052 0.2978
17 10 3 10.5107 -0.1902
17 10 4 4.0071 0.1534
17 10 5 -1.7564 -0.2121
17 11 0 3.1939 0.4127
17 11 1 10.6023 -0.2885
17 11 2 6.5125 0.2355
17 11 3 -7.5861 -0.2449
17 11 4 2.5351 0.4720
17 12 0 2.8708 -0.2765
17 12 1 -7.6005 0.2285
17 12 2 4.4560 0.5156
17 12 3 -3.6246 0.6468
17 12 4 -2.0969 0.2677
17 13 0 0.0506 0.6266
17 13 1 4.3073 0.3106
17 13 2 8.7687 0.4293
17 13 3 13.0358 -0.1190
17 14 0 13.5379 -0.2237
17 14 1 -0.9209 0.5618
18 0 0 -9.2740 0.1626
18 0 2 12.0748 1.4637
18 0 4 5.7754 1.2705
18 0 6 -14.2037 0.0901
18 1 0 0.4556 0.3069
18 1 1 7.7256 -0.4300
18 1 2 -6.0882 1.6045
18 1 3 -1.2078 -0.6170
18 1 4 -0.3755 1.7853
18 1 5 0.2552 0.1447
18 1 6 3.0982 0.0251
18 1 7 0.6488 -0.1575
18 2 0 -1.0488 1.3638
18 2 1 8.7873 -0.3773
18 2 2 5.5757 0.9514
18 2 3 5.7155 -0.4472
18 2 4 6.3289 -0.1694
18 2 5 8.4525 -0.6198
18 2 6 2.7991 -0.3570
18 2 7 1.5692 -0.0082
18 3 0 -2.8257 0.0898
18 3 1 5.4591 -0.3957
18 3 2 -13.5117 -0.4100
18 3 3 1.9143 -0.0213
18 3 4 -0.6609 -0.1454
18 3 5 -0.5653 -0.7035
18 3 6 -4.7987 0.5372
18 3 7 -7.8031 -0.6166
18 4 0 0.6076 -0.0996
18 4 1 8.1444 0.0481
18 4 2 -2.9588 -0.3519
18 4 3 0.8835 0.6196
18 4 4 3.6497 -0.4531
18 4 5 -8.0424 -0.6582
18 4 6 7.9518 0.1169
18 5 0 -7.2762 -0.1914
18 5 1 -1.2131 -0.2712
18 5 2 -4.5558 -0.7845
18 5 3 -7.8487 -0.1555
18 5 4 -6.9233 -0.8818
18 5 5 -9.9654 -0.0974
18 5 6 -12.6195 0.0896
18 6 0 -4.8470 -0.6481
18 6 1 -2.1301 0.4160
18 6 2 -10.8659 -0.1713
18 6 3 -5.5156 0.0743
18 6 4 -4.6433 0.1102
18 6 5 -6.7779 0.1236
18 6 6 -0.4497 0.3633
18 7 0 -10.0298 -0.2072
18 7 1 -12.9737 0.0313
18 7 2 1.7157 -0.0326
18 7 3 -1.6255 -0.1730
18 7 4 -5.3163 -0.3132
18 7 5 -15.6634 0.2079
18 8 0 6.4060 0.1614
18 8 1 3.8004 0.4478
18 8 2 -7.0467 0.0647
18 8 3 -4.8687 0.0290
18 8 4 -6.5181 0.4294
18 8 5 4.4721 0.3710
18 9 0 -9.3107 -0.3119
18 9 1 -12.4910 0.3366
18 9 2 -4.4946 0.1091
18 9 3 6.2165 -0.2731
18 9 4 2.5141 0.0825
18 10 0 8.9095 0.1455
18 10 1 2.1854 0.0570
18 10 2 7.7954 -0.4928
18 10 3 2.2979 -0.2240
18 10 4 -1.0214 0.0024
18 11 0 4.8473 -0.6651
18 11 1 -6.3965 0.1135
18 11 2 -3.7164 -0.4610
18 11 3 5.9728 -0.2548
18 12 0 -1.0751 -0.4041
18 12 1 -7.8588 -0.0109
18 12 2 -1.6585 -0.4589
18 13 0 8.7532 -0.6714
19 0 0 -6.5315 -0.1459
19 0 2 -14.0465 0.1247
19 0 4 -12.3420 0.2359
19 1 0 5.5394 0.4653
19 1 1 6.6745 0.9473
19 1 2 -3.6678 0.0738
19 1 3 6.1629 1.2389
19 1 4 -4.0666 0.4500
19 1 5 4.9348 -0.0497
19 2 0 -4.3425 -0.0800
19 2 1 4.0589 0.9329
19 2 2 -8.3353 -1.0468
19 2 3 2.7577 0.7630
19 2 4 -4.9142 0.3633
19 2 5 -10.9949 0.0574
19 3 0 10.3694 -0.2502
19 3 1 2.8847 1.5532
19 3 2 0.4720 -0.2070
19 3 3 3.6462 1.8325
19 3 4 -2.5893 0.1464
19 3 5 -0.4242 0.3198
19 4 0 2.2425 -0.2345
19 4 1 0.0115 0.4006
19 4 2 6.9643 -0.3688
19 4 3 6.0328 -0.2023
19 4 4 3.2973 -0.3465
19 4 5 4.4161 -0.2323
19 5 0 13.9924 -0.2252
19 5 1 -3.1899 0.4548
19 5 2 4.7174 -0.1173
19 5 3 4.0536 -0.0209
19 5 4 4.1715 -0.4161
19 5 5 5.4460 0.3092
19 6 0 0.5857 -0.1194
19 6 1 -2.8961 -0.2734
19 6 2 10.1750 -0.1830
19 6 3 11.5724 -0.1318
19 6 4 4.5888 -0.8550
19 7 0 12.2826 -0.1251
19 7 1 4.9487 -0.2170
19 7 2 1.3591 -0.3924
19 7 3 -4.5855 -0.1976
19 7 4 -2.8585 0.2834
19 8 0 -1.9145 0.0369
19 8 1 -4.9648 0.1205
19 8 2 0.6831 -0.1313
19 8 3 3.8334 0.1812
19 9 0 0.1219 0.0571
19 9 1 0.3188 -0.2046
19 9 2 -0.7319 -0.1959
19 10 0 8.1250 0.2276
19 10 1 -0.3760 0.3826
19 10 2 0.0302 0.1640
19 11 0 -3.9004 0.2500
20 0 0 3.9555 -1.1173
20 0 2 -4.1620 -1.4491
20 0 4 6.0048 -0.1613
20 1 0 -3.2253 -1.2911
20 1 1 -1.7918 0.4130
20 1 2 4.1879 -2.6610
20 1 3 7.0801 -0.2092
20 1 4 7.3783 -0.4813
20 2 0 3.4248 -0.9731
20 2 1 -7.1675 0.1143
20 2 2 2.1352 -0.2801
20 2 3 -4.3766 0.4016
20 3 0 -0.9847 0.1889
20 3 1 -7.6658 -0.4054
20 3 2 8.5824 0.5798
20 3 3 -1.9280 0.3305
20 4 0 2.4088 0.1268
20 4 1 -5.5051 0.1210
20 4 2 -2.1889 0.2310
20 4 3 -10.8181 0.6885
20 5 0 -4.7628 0.8172
20 5 1 -3.4646 -0.0140
20 5 2 6.7375 1.1423
20 5 3 -4.6364 0.5202
20 6 0 2.6753 -0.0955
20 6 1 4.1410 -0.0101
20 6 2 -6.6079 -0.0329
20 7 0 -8.7491 0.5123
20 7 1 3.1355 0.4318
20 7 2 3.8318 0.1314
20 8 0 1.0947 -0.3424
20 8 1 -3.1557 -0.4799
20 9 0 2.3582 0.1092
21 0 0 -0.2099 0.6913
21 0 2 5.1144 -0.2357
21 1 0 0.2327 0.7953
21 1 1 -4.0192 -0.7811
21 1 2 2.5857 0.6170
21 2 0 -1.9694 0.2136
21 2 1 -2.8838 -0.8618
21 3 0 -3.9498 -0.0943
21 3 1 -0.5451 -1.1381
21 4 0 -7.0766 0.0910
21 4 1 6.0930 -0.4928
21 5 0 -5.7357 -0.7633
21 6 0 -0.5323 0.3740
0 0 0 0.0 0.0
;
_shelx_fab_checksum              27579
_olex2_submission_special_instructions 'No special instructions were received'
loop_
_space_group_symop_operation_xyz
'x, y, z'
'-x, y+1/2, -z+1/2'
'-x, -y, -z'
'x, -y-1/2, z-1/2'
loop_
_atom_site_label
_atom_site_type_symbol
_atom_site_fract_x
_atom_site_fract_y
_atom_site_fract_z
_atom_site_U_iso_or_equiv
_atom_site_adp_type
_atom_site_occupancy
_atom_site_site_symmetry_order
_atom_site_calc_flag
_atom_site_refinement_flags_posn
Ag1 Ag 0.89405(7) 0.31885(6) 0.15484(7) 0.0360(5) Uani 1 1 d .
Ag2 Ag 1.01541(7) 0.30856(6) 0.20237(7) 0.0342(5) Uani 1 1 d .
Ag3 Ag 1.10452(7) 0.32612(6) 0.31139(7) 0.0331(5) Uani 1 1 d .
Ag4 Ag 1.29019(7) 0.36843(7) 0.54068(7) 0.0407(6) Uani 1 1 d .
Ag5 Ag 0.69287(7) 0.35441(7) -0.05228(7) 0.0404(6) Uani 1 1 d .
Ag6 Ag 1.19371(7) 0.34519(7) 0.42727(7) 0.0363(5) Uani 1 1 d .
Ag7 Ag 0.78970(7) 0.33647(7) 0.05721(7) 0.0366(5) Uani 1 1 d .
Ag8 Ag 0.59246(7) 0.38431(7) -0.15582(8) 0.0516(6) Uani 1 1 d .
Ag9 Ag 1.38546(8) 0.39241(8) 0.65460(9) 0.0617(7) Uani 1 1 d .
Ag10 Ag 0.50694(8) 0.38932(8) -0.27491(10) 0.0800(8) Uani 1 1 d .
C1A C 0.8731(8) 0.5147(8) 0.0897(9) 0.038(6) Uiso 1 1 d .
H1AA H 0.8653 0.5515 0.0950 0.057 Uiso 1 1 d GR
H1AB H 0.8427 0.5043 0.0543 0.057 Uiso 1 1 d GR
H1AC H 0.9087 0.5152 0.0813 0.057 Uiso 1 1 d GR
C1B C 0.7519(10) 0.3474(9) 0.2558(10) 0.057(8) Uiso 1 1 d .
H1BA H 0.7901 0.3475 0.2829 0.085 Uiso 1 1 d GR
H1BB H 0.7408 0.3115 0.2478 0.085 Uiso 1 1 d GR
H1BC H 0.7282 0.3629 0.2746 0.085 Uiso 1 1 d GR
C1C C 1.0576(9) 0.4921(8) 0.4399(9) 0.044(7) Uiso 1 1 d .
H1CA H 1.0213 0.4848 0.4084 0.065 Uiso 1 1 d GR
H1CB H 1.0784 0.5134 0.4198 0.065 Uiso 1 1 d GR
H1CC H 1.0492 0.5168 0.4669 0.065 Uiso 1 1 d GR
C1D C 1.1552(9) 0.3157(8) 0.1177(9) 0.045(7) Uiso 1 1 d .
H1DA H 1.1173 0.3147 0.0915 0.068 Uiso 1 1 d GR
H1DB H 1.1670 0.2818 0.1309 0.068 Uiso 1 1 d GR
H1DC H 1.1789 0.3289 0.0981 0.068 Uiso 1 1 d GR
C1E C 1.2253(10) 0.4483(9) 0.7068(10) 0.060(8) Uiso 1 1 d .
H1EA H 1.1984 0.4716 0.7122 0.090 Uiso 1 1 d GR
H1EB H 1.2612 0.4545 0.7358 0.090 Uiso 1 1 d GR
H1EC H 1.2140 0.4139 0.7109 0.090 Uiso 1 1 d GR
C1F C 1.3715(12) 0.5270(11) 0.4923(12) 0.103(11) Uiso 1 1 d .
H1FA H 1.4076 0.5154 0.4940 0.154 Uiso 1 1 d GR
H1FB H 1.3652 0.5608 0.4767 0.154 Uiso 1 1 d GR
H1FC H 1.3434 0.5045 0.4681 0.154 Uiso 1 1 d GR
C1G C 1.3431(10) 0.4353(9) 0.3595(10) 0.065(8) Uiso 1 1 d .
H1GA H 1.3752 0.4336 0.3958 0.097 Uiso 1 1 d GR
H1GB H 1.3222 0.4663 0.3609 0.097 Uiso 1 1 d GR
H1GC H 1.3581 0.4402 0.3284 0.097 Uiso 1 1 d GR
C1H C 0.3909(15) 0.2705(14) -0.1914(15) 0.150(15) Uiso 1 1 d .
H1HA H 0.3870 0.2373 -0.1738 0.224 Uiso 1 1 d GR
H1HB H 0.3504 0.2778 -0.2245 0.224 Uiso 1 1 d GR
H1HC H 0.3799 0.3008 -0.1646 0.224 Uiso 1 1 d GR
C1I C 0.9006(9) 0.2030(8) 0.3064(9) 0.047(7) Uiso 1 1 d .
H1IA H 0.8934 0.1705 0.3209 0.070 Uiso 1 1 d GR
H1IB H 0.8665 0.2146 0.2773 0.070 Uiso 1 1 d GR
H1IC H 0.9115 0.2273 0.3378 0.070 Uiso 1 1 d GR
C1J C 0.5191(10) 0.2657(10) -0.4063(11) 0.077(9) Uiso 1 1 d .
H1JA H 0.5291 0.2314 -0.4119 0.115 Uiso 1 1 d GR
H1JB H 0.5482 0.2807 -0.3745 0.115 Uiso 1 1 d GR
H1JC H 0.5143 0.2852 -0.4405 0.115 Uiso 1 1 d GR
C1K C 1.0323(8) 0.5030(7) 0.2681(8) 0.030(6) Uiso 1 1 d .
H1KA H 1.0454 0.5359 0.2612 0.046 Uiso 1 1 d GR
H1KB H 1.0582 0.4885 0.3028 0.046 Uiso 1 1 d GR
H1KC H 0.9967 0.5070 0.2726 0.046 Uiso 1 1 d GR
C1M C 0.7634(9) 0.1670(8) -0.0705(10) 0.049(7) Uiso 1 1 d .
H1MA H 0.7246 0.1767 -0.0960 0.074 Uiso 1 1 d GR
H1MB H 0.7597 0.1477 -0.0374 0.074 Uiso 1 1 d GR
H1MC H 0.7751 0.1392 -0.0923 0.074 Uiso 1 1 d GR
C1O C 1.1008(10) 0.1714(9) 0.4495(10) 0.063(8) Uiso 1 1 d .
H1OA H 1.1413 0.1684 0.4686 0.094 Uiso 1 1 d GR
H1OB H 1.0927 0.1466 0.4170 0.094 Uiso 1 1 d GR
H1OC H 1.0829 0.1610 0.4762 0.094 Uiso 1 1 d GR
C1P C 1.2651(11) 0.1761(10) 0.4640(11) 0.082(9) Uiso 1 1 d .
H1PA H 1.2776 0.1489 0.4448 0.123 Uiso 1 1 d GR
H1PB H 1.2256 0.1824 0.4412 0.123 Uiso 1 1 d GR
H1PC H 1.2674 0.1639 0.5018 0.123 Uiso 1 1 d GR
C1R C 0.6689(10) 0.4151(9) -0.3286(10) 0.062(8) Uiso 1 1 d .
H1RA H 0.6723 0.4451 -0.3503 0.093 Uiso 1 1 d GR
H1RB H 0.6344 0.3975 -0.3515 0.093 Uiso 1 1 d GR
H1RC H 0.6992 0.3911 -0.3269 0.093 Uiso 1 1 d GR
C1S C 0.8571(9) 0.4656(8) -0.0717(10) 0.055(7) Uiso 1 1 d .
H1SA H 0.8881 0.4533 -0.0379 0.083 Uiso 1 1 d GR
H1SB H 0.8384 0.4934 -0.0588 0.083 Uiso 1 1 d GR
H1SC H 0.8745 0.4821 -0.0976 0.083 Uiso 1 1 d GR
C1T C 0.5996(10) 0.1992(9) -0.0702(11) 0.070(8) Uiso 1 1 d .
H1TA H 0.5836 0.1745 -0.0515 0.105 Uiso 1 1 d GR
H1TB H 0.6387 0.2030 -0.0475 0.105 Uiso 1 1 d GR
H1TC H 0.5962 0.1866 -0.1079 0.105 Uiso 1 1 d GR
C1V C 0.5288(16) 0.5507(15) -0.1378(17) 0.172(17) Uiso 1 1 d .
H1VA H 0.5678 0.5510 -0.1116 0.257 Uiso 1 1 d GR
H1VB H 0.5088 0.5252 -0.1223 0.257 Uiso 1 1 d GR
H1VC H 0.5127 0.5842 -0.1352 0.257 Uiso 1 1 d GR
C1Y C 0.5675(11) 0.4687(10) 0.0279(11) 0.081(9) Uiso 1 1 d .
H1YA H 0.5422 0.4799 -0.0127 0.121 Uiso 1 1 d GR
H1YB H 0.5931 0.4992 0.0407 0.121 Uiso 1 1 d GR
H1YC H 0.5428 0.4716 0.0522 0.121 Uiso 1 1 d GR
C1Z C 0.9922(9) 0.1822(8) 0.0620(10) 0.054(7) Uiso 1 1 d .
H1ZA H 0.9909 0.1483 0.0470 0.081 Uiso 1 1 d GR
H1ZB H 1.0278 0.1877 0.0918 0.081 Uiso 1 1 d GR
H1ZC H 0.9878 0.2065 0.0317 0.081 Uiso 1 1 d GR
C2A C 0.8786(9) 0.4981(9) 0.1896(10) 0.043(7) Uiso 1 1 d .
H2A H 0.8766 0.5330 0.1950 0.051 Uiso 1 1 calc R
C2B C 0.7274(9) 0.4235(9) 0.1964(10) 0.054(7) Uiso 1 1 d .
H2B H 0.7159 0.4384 0.2244 0.064 Uiso 1 1 calc R
C2C C 1.0848(8) 0.4326(8) 0.5217(9) 0.036(6) Uiso 1 1 d .
H2C H 1.0650 0.4524 0.5389 0.043 Uiso 1 1 calc R
C2D C 1.1756(9) 0.3976(8) 0.1705(10) 0.045(7) Uiso 1 1 d .
H2D H 1.1861 0.4109 0.1411 0.054 Uiso 1 1 calc R
C2E C 1.2055(9) 0.4982(8) 0.6193(9) 0.040(7) Uiso 1 1 d .
H2E H 1.1867 0.5210 0.6347 0.048 Uiso 1 1 calc R
C2F C 1.3658(10) 0.5667(10) 0.5815(12) 0.066(8) Uiso 1 1 d .
H2F H 1.3620 0.5986 0.5644 0.079 Uiso 1 1 calc R
C2G C 1.3074(9) 0.3556(9) 0.3093(10) 0.052(7) Uiso 1 1 d .
H2G H 1.3281 0.3628 0.2861 0.062 Uiso 1 1 calc R
C2H C 0.4678(12) 0.2237(11) -0.2070(12) 0.079(9) Uiso 1 1 d .
H2H H 0.4594 0.1945 -0.1904 0.095 Uiso 1 1 calc R
C2I C 0.9663(9) 0.1524(9) 0.2753(9) 0.046(7) Uiso 1 1 d .
H2I H 0.9530 0.1235 0.2880 0.055 Uiso 1 1 calc R
C2J C 1.4372(10) 0.2255(10) 0.6066(10) 0.058(8) Uiso 1 1 d .
H2J H 1.4496 0.1945 0.5976 0.070 Uiso 1 1 calc R
C2K C 1.0253(8) 0.4896(8) 0.1667(9) 0.035(6) Uiso 1 1 d .
H2K H 1.0254 0.5247 0.1622 0.041 Uiso 1 1 calc R
C2M C 0.8423(9) 0.2224(8) -0.0689(9) 0.039(6) Uiso 1 1 d .
H2M H 0.8526 0.1989 -0.0914 0.047 Uiso 1 1 calc R
C2O C 1.0408(9) 0.2418(9) 0.4516(10) 0.050(7) Uiso 1 1 d .
H2O H 1.0312 0.2248 0.4797 0.061 Uiso 1 1 calc R
C2P C 1.3419(9) 0.2234(9) 0.4516(10) 0.050(7) Uiso 1 1 d .
H2P H 1.3494 0.1949 0.4334 0.060 Uiso 1 1 calc R
C2R C 0.7032(9) 0.4731(8) -0.2485(9) 0.038(6) Uiso 1 1 d .
H2R H 0.7234 0.4893 -0.2682 0.046 Uiso 1 1 calc R
C2S C 0.8206(9) 0.4010(8) -0.1477(10) 0.047(7) Uiso 1 1 d .
H2S H 0.8456 0.4122 -0.1648 0.056 Uiso 1 1 calc R
C2T C 0.5321(9) 0.2558(9) -0.0524(10) 0.051(7) Uiso 1 1 d .
H2T H 0.5232 0.2294 -0.0322 0.061 Uiso 1 1 calc R
C2V C 0.5299(14) 0.5697(15) -0.2346(17) 0.129(13) Uiso 1 1 d .
H2V H 0.5352 0.6035 -0.2228 0.155 Uiso 1 1 calc R
C2Y C 0.5928(8) 0.3862(8) 0.0767(9) 0.038(6) Uiso 1 1 d .
H2Y H 0.5739 0.3955 0.1012 0.045 Uiso 1 1 calc R
C2Z C 0.9157(9) 0.1499(8) 0.0902(9) 0.041(7) Uiso 1 1 d .
H2Z H 0.9227 0.1175 0.0792 0.049 Uiso 1 1 calc R
C3A C 0.8814(7) 0.4661(7) 0.2328(9) 0.025(6) Uiso 1 1 d .
H3A H 0.8774 0.4784 0.2663 0.030 Uiso 1 1 calc R
C3B C 0.7246(8) 0.4502(8) 0.1489(9) 0.039(6) Uiso 1 1 d .
H3B H 0.7104 0.4832 0.1434 0.047 Uiso 1 1 calc R
C3C C 1.1099(8) 0.3923(8) 0.5485(10) 0.039(6) Uiso 1 1 d .
H3C H 1.1080 0.3836 0.5841 0.046 Uiso 1 1 calc R
C3D C 1.1766(8) 0.4270(8) 0.2136(8) 0.026(6) Uiso 1 1 d .
H3D H 1.1889 0.4605 0.2154 0.032 Uiso 1 1 calc R
C3E C 1.2090(9) 0.5084(8) 0.5692(10) 0.041(7) Uiso 1 1 d .
H3E H 1.1967 0.5395 0.5513 0.049 Uiso 1 1 calc R
C3F C 1.3677(11) 0.5630(11) 0.6346(12) 0.076(9) Uiso 1 1 d .
H3F H 1.3667 0.5919 0.6558 0.091 Uiso 1 1 calc R
C3G C 1.2783(8) 0.3130(8) 0.2993(9) 0.041(7) Uiso 1 1 d .
H3G H 1.2775 0.2912 0.2695 0.050 Uiso 1 1 calc R
C3H C 0.5115(12) 0.2214(11) -0.2263(12) 0.085(10) Uiso 1 1 d .
H3H H 0.5307 0.1916 -0.2277 0.102 Uiso 1 1 calc R
C3I C 1.0050(9) 0.1472(8) 0.2520(9) 0.038(6) Uiso 1 1 d .
H3I H 1.0188 0.1155 0.2470 0.046 Uiso 1 1 calc R
C3J C 1.3901(10) 0.2261(10) 0.6187(10) 0.061(8) Uiso 1 1 d .
H3J H 1.3697 0.1965 0.6167 0.073 Uiso 1 1 calc R
C3K C 1.0229(8) 0.4599(8) 0.1227(9) 0.033(6) Uiso 1 1 d .
H3K H 1.0242 0.4738 0.0887 0.039 Uiso 1 1 calc R
C3M C 0.8713(8) 0.2652(7) -0.0537(9) 0.031(6) Uiso 1 1 d .
H3M H 0.9007 0.2725 -0.0662 0.037 Uiso 1 1 calc R
C3O C 1.0182(8) 0.2876(8) 0.4314(9) 0.034(6) Uiso 1 1 d .
H3O H 0.9920 0.3019 0.4450 0.041 Uiso 1 1 calc R
C3P C 1.3737(10) 0.2629(8) 0.4572(10) 0.048(7) Uiso 1 1 d .
H3P H 1.4031 0.2627 0.4433 0.057 Uiso 1 1 calc R
C3R C 0.7061(9) 0.4902(8) -0.1982(10) 0.044(7) Uiso 1 1 d .
H3R H 0.7305 0.5165 -0.1808 0.052 Uiso 1 1 calc R
C3S C 0.7869(9) 0.3631(8) -0.1714(10) 0.046(7) Uiso 1 1 d .
H3S H 0.7879 0.3471 -0.2044 0.055 Uiso 1 1 calc R
C3T C 0.5055(9) 0.2989(8) -0.0567(10) 0.047(7) Uiso 1 1 d .
H3T H 0.4794 0.3036 -0.0389 0.057 Uiso 1 1 calc R
C3V C 0.5284(12) 0.5592(12) -0.2854(14) 0.096(11) Uiso 1 1 d .
H3V H 0.5335 0.5841 -0.3098 0.116 Uiso 1 1 calc R
C3Y C 0.6181(8) 0.3423(8) 0.0837(9) 0.035(6) Uiso 1 1 d .
H3Y H 0.6177 0.3206 0.1133 0.042 Uiso 1 1 calc R
C3Z C 0.8746(9) 0.1551(8) 0.1104(9) 0.042(7) Uiso 1 1 d .
H3Z H 0.8526 0.1277 0.1131 0.050 Uiso 1 1 calc R
C4A C 0.8903(8) 0.4147(7) 0.2273(8) 0.020(5) Uiso 1 1 d .
C4B C 0.7439(9) 0.4269(8) 0.1074(10) 0.037(6) Uiso 1 1 d .
C4D C 1.1584(8) 0.4068(8) 0.2580(9) 0.028(6) Uiso 1 1 d .
C4E C 1.2322(8) 0.4707(8) 0.5420(10) 0.034(6) Uiso 1 1 d .
C4F C 1.3713(10) 0.5150(10) 0.6586(12) 0.059(8) Uiso 1 1 d .
C4G C 1.2473(8) 0.3018(8) 0.3379(9) 0.030(6) Uiso 1 1 d .
C4H C 0.5244(10) 0.2705(9) -0.2443(10) 0.049(7) Uiso 1 1 d .
C4I C 1.0248(8) 0.1937(8) 0.2348(9) 0.027(6) Uiso 1 1 d .
C4J C 1.3718(10) 0.2733(9) 0.6347(10) 0.049(7) Uiso 1 1 d .
C4K C 1.0184(8) 0.4072(8) 0.1283(9) 0.034(6) Uiso 1 1 d .
C4M C 0.8557(8) 0.3000(8) -0.0170(9) 0.030(6) Uiso 1 1 d .
C4O C 1.0338(9) 0.3133(8) 0.3908(9) 0.034(6) Uiso 1 1 d .
C4P C 1.3623(9) 0.3070(8) 0.4853(9) 0.036(6) Uiso 1 1 d .
C4R C 0.6719(9) 0.4688(8) -0.1706(10) 0.043(7) Uiso 1 1 d .
C4S C 0.7484(9) 0.3477(9) -0.1441(10) 0.045(7) Uiso 1 1 d .
C4T C 0.5182(9) 0.3385(8) -0.0897(9) 0.039(7) Uiso 1 1 d .
C4V C 0.5188(11) 0.5097(11) -0.3020(13) 0.070(9) Uiso 1 1 d .
C4Y C 0.6453(9) 0.3282(8) 0.0471(10) 0.039(7) Uiso 1 1 d .
C4Z C 0.8658(9) 0.2056(8) 0.1282(9) 0.039(6) Uiso 1 1 d .
C5A C 0.8860(7) 0.4297(7) 0.1315(8) 0.014(5) Uiso 1 1 d .
C5B C 0.7664(8) 0.3528(8) 0.1630(9) 0.030(6) Uiso 1 1 d .
C5D C 1.1391(8) 0.3300(8) 0.2108(9) 0.024(6) Uiso 1 1 d .
C5E C 1.2552(9) 0.4190(9) 0.6292(10) 0.041(7) Uiso 1 1 d .
C5F C 1.3738(9) 0.4778(9) 0.5738(10) 0.042(7) Uiso 1 1 d .
C5G C 1.2772(9) 0.3820(8) 0.3839(9) 0.034(6) Uiso 1 1 d .
C5H C 0.4479(13) 0.3112(13) -0.2279(13) 0.090(10) Uiso 1 1 d .
C5I C 0.9631(8) 0.2416(8) 0.2615(8) 0.022(6) Uiso 1 1 d .
C5J C 0.4535(10) 0.3116(10) -0.3778(10) 0.050(7) Uiso 1 1 d .
C5K C 1.0254(8) 0.4184(8) 0.2235(9) 0.032(6) Uiso 1 1 d .
C5M C 0.7837(10) 0.2448(9) -0.0171(10) 0.045(7) Uiso 1 1 d .
C5O C 1.0964(9) 0.2461(9) 0.3882(10) 0.041(7) Uiso 1 1 d .
C5P C 1.2841(10) 0.2667(9) 0.4947(10) 0.042(7) Uiso 1 1 d .
C5R C 0.6392(9) 0.4106(8) -0.2431(10) 0.033(6) Uiso 1 1 d .
C5S C 0.7845(8) 0.4060(8) -0.0719(9) 0.029(6) Uiso 1 1 d .
C5T C 0.5867(9) 0.2862(8) -0.1041(9) 0.038(6) Uiso 1 1 d .
C5V C 0.5184(11) 0.4854(11) -0.2096(13) 0.066(8) Uiso 1 1 d .
C5Y C 0.6220(8) 0.4051(8) -0.0040(9) 0.027(6) Uiso 1 1 d .
C5Z C 0.9409(8) 0.2354(8) 0.1021(9) 0.027(6) Uiso 1 1 d .
C12 C 1.1164(8) 0.4173(8) 0.4451(9) 0.028(6) Uiso 1 1 d .
C84 C 1.1399(8) 0.3620(8) 0.5231(9) 0.030(6) Uiso 1 1 d .
N1A N 0.8896(6) 0.3965(6) 0.1753(7) 0.025(5) Uiso 1 1 d .
N1B N 0.7613(6) 0.3802(6) 0.1152(7) 0.025(5) Uiso 1 1 d .
N1C N 1.1438(7) 0.3748(6) 0.4724(7) 0.034(5) Uiso 1 1 d .
N1D N 1.1425(7) 0.3597(6) 0.2548(7) 0.034(5) Uiso 1 1 d .
N1E N 1.2534(7) 0.4295(6) 0.5748(7) 0.030(5) Uiso 1 1 d .
N1F N 1.3774(7) 0.4736(7) 0.6292(8) 0.048(6) Uiso 1 1 d .
N1G N 1.2462(6) 0.3378(6) 0.3764(7) 0.028(5) Uiso 1 1 d .
N1H N 0.4952(8) 0.3103(8) -0.2458(9) 0.063(6) Uiso 1 1 d .
N1I N 1.0037(6) 0.2367(6) 0.2405(6) 0.017(4) Uiso 1 1 d .
N1J N 1.4034(8) 0.3146(7) 0.6355(8) 0.053(6) Uiso 1 1 d .
N1K N 1.0206(7) 0.3877(6) 0.1782(8) 0.035(5) Uiso 1 1 d .
N1M N 0.8138(6) 0.2881(6) 0.0025(6) 0.021(4) Uiso 1 1 d .
N1N N 0.6936(14) 0.2202(12) 0.1834(15) 0.117(10) Uiso 1 1 d .
N1O N 1.0712(7) 0.2904(6) 0.3710(7) 0.033(5) Uiso 1 1 d .
N1P N 1.3194(7) 0.3047(6) 0.5026(7) 0.035(5) Uiso 1 1 d .
N1R N 0.6413(6) 0.4275(6) -0.1942(7) 0.029(5) Uiso 1 1 d .
N1S N 0.7495(8) 0.3684(7) -0.0972(8) 0.050(6) Uiso 1 1 d .
N1T N 0.5590(7) 0.3310(6) -0.1109(7) 0.032(5) Uiso 1 1 d .
N1V N 0.5153(7) 0.4719(7) -0.2652(9) 0.051(6) Uiso 1 1 d .
N1Y N 0.6468(7) 0.3603(6) 0.0046(7) 0.035(5) Uiso 1 1 d .
N1Z N 0.8975(7) 0.2420(6) 0.1219(7) 0.027(5) Uiso 1 1 d .
N2A N 0.8785(7) 0.4803(6) 0.1383(7) 0.035(5) Uiso 1 1 d .
N2B N 0.7473(7) 0.3743(6) 0.2034(7) 0.032(5) Uiso 1 1 d .
N2C N 1.0860(7) 0.4474(6) 0.4701(7) 0.036(5) Uiso 1 1 d .
N2D N 1.1596(7) 0.3489(6) 0.1682(7) 0.036(5) Uiso 1 1 d .
N2E N 1.2283(7) 0.4553(7) 0.6505(7) 0.038(5) Uiso 1 1 d .
N2F N 1.3692(8) 0.5247(8) 0.5507(9) 0.066(7) Uiso 1 1 d .
N2G N 1.3093(7) 0.3894(6) 0.3507(8) 0.039(5) Uiso 1 1 d .
N2H N 0.4381(9) 0.2623(9) -0.2098(9) 0.074(7) Uiso 1 1 d .
N2I N 0.9450(6) 0.1982(6) 0.2815(7) 0.030(5) Uiso 1 1 d .
N2J N 0.4657(8) 0.2647(8) -0.3933(8) 0.056(6) Uiso 1 1 d .
N2K N 1.0275(7) 0.4701(6) 0.2185(7) 0.034(5) Uiso 1 1 d .
N2M N 0.7972(7) 0.2119(6) -0.0522(7) 0.036(5) Uiso 1 1 d .
N2N N 0.4165(10) 0.3894(8) 0.0009(11) 0.070(7) Uiso 1 1 d .
N2O N 1.0779(7) 0.2216(7) 0.4294(8) 0.041(5) Uiso 1 1 d .
N2P N 1.2989(8) 0.2213(7) 0.4704(8) 0.047(6) Uiso 1 1 d .
N2R N 0.6712(7) 0.4318(6) -0.2727(7) 0.038(5) Uiso 1 1 d .
N2S N 0.8201(7) 0.4243(6) -0.0990(7) 0.036(5) Uiso 1 1 d .
N2T N 0.5715(8) 0.2472(7) -0.0755(8) 0.047(6) Uiso 1 1 d .
N2V N 0.5246(10) 0.5355(11) -0.1975(12) 0.100(9) Uiso 1 1 d .
N2Y N 0.5936(8) 0.4190(7) 0.0336(8) 0.051(6) Uiso 1 1 d .
N2Z N 0.9482(7) 0.1883(7) 0.0843(7) 0.037(5) Uiso 1 1 d .
N3A N 0.8942(7) 0.3832(7) 0.2692(8) 0.047(5) Uiso 1 1 d .
H3AA H 0.8964 0.3510 0.2642 0.056 Uiso 1 1 calc R
H3AB H 0.8946 0.3946 0.3018 0.056 Uiso 1 1 calc R
N3B N 0.7416(7) 0.4529(7) 0.0613(7) 0.046(5) Uiso 1 1 d .
H3BA H 0.7518 0.4390 0.0352 0.055 Uiso 1 1 calc R
H3BB H 0.7299 0.4838 0.0572 0.055 Uiso 1 1 calc R
N3C N 1.1687(6) 0.3213(6) 0.5494(7) 0.037(5) Uiso 1 1 d .
H3CA H 1.1886 0.3046 0.5337 0.044 Uiso 1 1 calc R
H3CB H 1.1674 0.3117 0.5820 0.044 Uiso 1 1 calc R
N3D N 1.1603(6) 0.4355(6) 0.3021(7) 0.035(5) Uiso 1 1 d .
H3DA H 1.1509 0.4231 0.3294 0.041 Uiso 1 1 calc R
H3DB H 1.1710 0.4667 0.3035 0.041 Uiso 1 1 calc R
N3E N 1.2367(7) 0.4775(7) 0.4921(8) 0.048(6) Uiso 1 1 d .
H3EA H 1.2536 0.4553 0.4787 0.057 Uiso 1 1 calc R
H3EB H 1.2227 0.5043 0.4724 0.057 Uiso 1 1 calc R
N3F N 1.3727(8) 0.5085(8) 0.7120(9) 0.082(7) Uiso 1 1 d .
H3FA H 1.3774 0.4786 0.7269 0.098 Uiso 1 1 calc R
H3FB H 1.3689 0.5342 0.7317 0.098 Uiso 1 1 calc R
N3G N 1.2186(6) 0.2611(6) 0.3337(7) 0.039(5) Uiso 1 1 d .
H3GA H 1.1988 0.2569 0.3552 0.047 Uiso 1 1 calc R
H3GB H 1.2190 0.2380 0.3094 0.047 Uiso 1 1 calc R
N3H N 0.5678(7) 0.2695(6) -0.2588(7) 0.042(5) Uiso 1 1 d .
H3HA H 0.5790 0.2969 -0.2705 0.051 Uiso 1 1 calc R
H3HB H 0.5858 0.2416 -0.2568 0.051 Uiso 1 1 calc R
N3I N 1.0654(7) 0.1893(6) 0.2129(7) 0.041(5) Uiso 1 1 d .
H3IA H 1.0784 0.2160 0.2019 0.049 Uiso 1 1 calc R
H3IB H 1.0786 0.1598 0.2097 0.049 Uiso 1 1 calc R
N3J N 1.3257(8) 0.2763(7) 0.6469(8) 0.059(6) Uiso 1 1 d .
N3K N 1.0148(6) 0.3753(6) 0.0871(7) 0.035(5) Uiso 1 1 d .
H3KA H 1.0140 0.3431 0.0930 0.042 Uiso 1 1 calc R
H3KB H 1.0132 0.3864 0.0540 0.042 Uiso 1 1 calc R
N3M N 0.8851(7) 0.3407(6) -0.0014(7) 0.043(5) Uiso 1 1 d .
H3MA H 0.8785 0.3615 0.0223 0.051 Uiso 1 1 calc R
H3MB H 0.9113 0.3472 -0.0146 0.051 Uiso 1 1 calc R
N3N N 0.4006(10) 0.8624(10) 0.2769(11) 0.078(7) Uiso 1 1 d .
N3O N 1.0130(6) 0.3579(6) 0.3704(7) 0.037(5) Uiso 1 1 d .
H3OA H 1.0231 0.3726 0.3446 0.044 Uiso 1 1 calc R
H3OB H 0.9894 0.3725 0.3829 0.044 Uiso 1 1 calc R
N3P N 1.3919(7) 0.3467(7) 0.4937(7) 0.050(6) Uiso 1 1 d .
H3PA H 1.3840 0.3724 0.5109 0.061 Uiso 1 1 calc R
H3PB H 1.4200 0.3480 0.4823 0.061 Uiso 1 1 calc R
N3R N 0.6725(7) 0.4834(7) -0.1209(8) 0.052(6) Uiso 1 1 d .
H3RA H 0.6537 0.4669 -0.1038 0.063 Uiso 1 1 calc R
H3RB H 0.6916 0.5097 -0.1048 0.063 Uiso 1 1 calc R
N3S N 0.7138(7) 0.3089(6) -0.1684(7) 0.044(5) Uiso 1 1 d .
H3SA H 0.6914 0.2974 -0.1523 0.053 Uiso 1 1 calc R
H3SB H 0.7140 0.2958 -0.2000 0.053 Uiso 1 1 calc R
N3T N 0.4917(7) 0.3817(7) -0.0980(7) 0.049(6) Uiso 1 1 d .
H3TA H 0.5005 0.4055 -0.1171 0.058 Uiso 1 1 calc R
H3TB H 0.4655 0.3866 -0.0843 0.058 Uiso 1 1 calc R
N3V N 0.5150(10) 0.4915(10) -0.3531(11) 0.115(9) Uiso 1 1 d .
H3VA H 0.5186 0.5116 -0.3789 0.138 Uiso 1 1 calc R
H3VB H 0.5089 0.4596 -0.3604 0.138 Uiso 1 1 calc R
N3Y N 0.6700(6) 0.2843(6) 0.0493(7) 0.037(5) Uiso 1 1 d .
H3YA H 0.6859 0.2773 0.0248 0.044 Uiso 1 1 calc R
H3YB H 0.6704 0.2624 0.0753 0.044 Uiso 1 1 calc R
N3Z N 0.8259(7) 0.2119(6) 0.1500(7) 0.037(5) Uiso 1 1 d .
H3ZA H 0.8197 0.2416 0.1611 0.045 Uiso 1 1 calc R
H3ZB H 0.8062 0.1863 0.1532 0.045 Uiso 1 1 calc R
N4N N 0.0955(8) 0.8975(7) 0.0738(9) 0.048(6) Uiso 1 1 d .
N5N N 0.1678(8) 0.5645(8) 0.2785(9) 0.048(6) Uiso 1 1 d .
N6N N 0.0182(8) 0.6037(8) 0.0595(10) 0.062(6) Uiso 1 1 d .
N7N N 0.2012(9) 0.1944(8) 0.2025(9) 0.061(6) Uiso 1 1 d .
N8N N 0.0691(9) 0.0614(8) 0.1609(9) 0.059(6) Uiso 1 1 d .
O1A O 0.8870(5) 0.4133(5) 0.0853(6) 0.037(4) Uiso 1 1 d .
O1B O 0.7860(6) 0.3095(5) 0.1723(6) 0.040(4) Uiso 1 1 d .
O1C O 1.1176(5) 0.4295(5) 0.3964(6) 0.031(4) Uiso 1 1 d .
O1D O 1.1207(5) 0.2861(5) 0.2045(6) 0.034(4) Uiso 1 1 d .
O1E O 1.2776(6) 0.3835(6) 0.6567(6) 0.049(4) Uiso 1 1 d .
O1F O 1.3782(6) 0.4395(6) 0.5481(6) 0.052(5) Uiso 1 1 d .
O1G O 1.2781(6) 0.4140(5) 0.4212(6) 0.043(4) Uiso 1 1 d .
O1H O 0.4210(8) 0.3505(8) -0.2349(9) 0.099(7) Uiso 1 1 d .
O1I O 0.9413(5) 0.2829(5) 0.2650(6) 0.032(4) Uiso 1 1 d .
O1J O 0.4796(7) 0.3499(6) -0.3741(7) 0.063(5) Uiso 1 1 d .
O1K O 1.0243(5) 0.4014(4) 0.2701(5) 0.022(4) Uiso 1 1 d .
O1M O 0.7444(6) 0.2351(5) -0.0001(6) 0.040(4) Uiso 1 1 d .
O1N O 0.7376(10) 0.2025(9) 0.2136(11) 0.131(9) Uiso 1 1 d .
O1O O 1.1295(6) 0.2257(5) 0.3725(6) 0.047(4) Uiso 1 1 d .
O1P O 1.2410(6) 0.2625(5) 0.5051(6) 0.044(4) Uiso 1 1 d .
O1R O 0.6087(6) 0.3739(6) -0.2706(6) 0.049(4) Uiso 1 1 d .
O1S O 0.7835(6) 0.4264(5) -0.0281(6) 0.046(4) Uiso 1 1 d .
O1T O 0.6257(6) 0.2788(5) -0.1217(6) 0.051(5) Uiso 1 1 d .
O1V O 0.5134(8) 0.4560(8) -0.1767(9) 0.096(7) Uiso 1 1 d .
O1Y O 0.6197(6) 0.4351(5) -0.0418(6) 0.044(4) Uiso 1 1 d .
O1Z O 0.9692(6) 0.2728(5) 0.0983(6) 0.041(4) Uiso 1 1 d .
O2N O 0.6661(8) 0.2445(8) 0.2021(9) 0.095(7) Uiso 1 1 d .
O3N O 0.6771(10) 0.2083(9) 0.1331(12) 0.132(9) Uiso 1 1 d .
O4N O 0.4671(8) 0.3734(7) 0.0285(8) 0.083(6) Uiso 1 1 d .
O5N O 0.3854(9) 0.3921(7) 0.0286(9) 0.105(7) Uiso 1 1 d .
O6N O 0.4043(8) 0.3959(7) -0.0517(9) 0.088(6) Uiso 1 1 d .
O7N O 0.4412(8) 0.8412(7) 0.3155(9) 0.091(6) Uiso 1 1 d .
O8N O 0.3892(8) 0.9065(8) 0.2879(8) 0.089(6) Uiso 1 1 d .
O9N O 0.3813(9) 0.8420(8) 0.2305(10) 0.104(7) Uiso 1 1 d .
O10N O 0.1275(6) 0.8881(6) 0.1241(7) 0.057(5) Uiso 1 1 d .
O11N O 0.1159(7) 0.8994(6) 0.0351(7) 0.065(5) Uiso 1 1 d .
O12N O 0.0446(7) 0.9030(6) 0.0611(7) 0.067(5) Uiso 1 1 d .
O13N O 0.2030(6) 0.5363(5) 0.3158(6) 0.043(4) Uiso 1 1 d .
O14N O 0.1708(6) 0.6116(6) 0.2866(7) 0.063(5) Uiso 1 1 d .
O15N O 0.1339(6) 0.5469(6) 0.2351(7) 0.054(5) Uiso 1 1 d .
O16N O 0.0354(8) 0.5937(7) 0.1112(9) 0.087(6) Uiso 1 1 d .
O17N O -0.0051(7) 0.5704(7) 0.0251(8) 0.081(6) Uiso 1 1 d .
O18N O 0.0261(6) 0.6472(6) 0.0440(6) 0.049(4) Uiso 1 1 d .
O19N O 0.2346(7) 0.2221(6) 0.1940(7) 0.058(5) Uiso 1 1 d .
O20N O 0.2059(6) 0.1798(6) 0.2532(7) 0.061(5) Uiso 1 1 d .
O21N O 0.1595(6) 0.1776(6) 0.1618(7) 0.054(5) Uiso 1 1 d .
O22N O 0.0949(6) 0.0796(6) 0.2091(7) 0.058(5) Uiso 1 1 d .
O23N O 0.0242(7) 0.0811(6) 0.1315(7) 0.072(5) Uiso 1 1 d .
O24N O 0.0846(6) 0.0221(6) 0.1417(6) 0.051(5) Uiso 1 1 d .
loop_
_atom_site_aniso_label
_atom_site_aniso_U_11
_atom_site_aniso_U_22
_atom_site_aniso_U_33
_atom_site_aniso_U_23
_atom_site_aniso_U_13
_atom_site_aniso_U_12
Ag1 0.0301(11) 0.0370(12) 0.0255(12) -0.0019(9) -0.0098(9) 0.0046(9)
Ag2 0.0292(11) 0.0386(12) 0.0248(12) 0.0040(9) -0.0033(9) -0.0048(9)
Ag3 0.0270(11) 0.0460(13) 0.0187(12) 0.0021(9) -0.0017(9) -0.0042(9)
Ag4 0.0303(12) 0.0526(13) 0.0279(13) -0.0095(10) -0.0040(10) 0.0078(10)
Ag5 0.0252(11) 0.0640(14) 0.0257(13) 0.0083(10) 0.0008(10) 0.0004(10)
Ag6 0.0304(11) 0.0454(13) 0.0223(12) -0.0083(9) -0.0044(10) 0.0032(9)
Ag7 0.0269(11) 0.0495(13) 0.0214(12) 0.0001(9) -0.0064(9) 0.0068(9)
Ag8 0.0322(12) 0.0693(15) 0.0398(14) 0.0249(12) -0.0042(11) -0.0072(10)
Ag9 0.0355(13) 0.0780(16) 0.0529(16) -0.0028(12) -0.0081(11) -0.0021(11)
Ag10 0.0425(14) 0.0709(16) 0.0842(19) -0.0181(14) -0.0310(13) -0.0021(12)
loop_
_atom_type_symbol
_atom_type_description
_atom_type_scat_dispersion_real
_atom_type_scat_dispersion_imag
_atom_type_scat_source
C C 0.0033 0.0016 'International Tables Vol C Tables 4.2.6.8 and 6.1.1.4'
H H 0.0000 0.0000 'International Tables Vol C Tables 4.2.6.8 and 6.1.1.4'
N N 0.0061 0.0033 'International Tables Vol C Tables 4.2.6.8 and 6.1.1.4'
O O 0.0106 0.0060 'International Tables Vol C Tables 4.2.6.8 and 6.1.1.4'
Ag Ag -0.8971 1.1015 'International Tables Vol C Tables 4.2.6.8 and 6.1.1.4'
loop_
_geom_angle_atom_site_label_1
_geom_angle_atom_site_label_2
_geom_angle_atom_site_label_3
_geom_angle
_geom_angle_site_symmetry_1
_geom_angle_site_symmetry_3
Ag2 Ag1 Ag7 151.09(8) . .
N1A Ag1 Ag2 97.5(4) . .
N1A Ag1 Ag7 86.4(4) . .
N1A Ag1 N1Z 172.2(6) . .
N1Z Ag1 Ag2 83.7(4) . .
N1Z Ag1 Ag7 88.9(4) . .
Ag3 Ag2 Ag1 137.68(8) . .
N1I Ag2 Ag1 88.1(4) . .
N1I Ag2 Ag3 85.2(4) . .
N1I Ag2 N1K 167.5(6) . .
N1K Ag2 Ag1 87.6(4) . .
N1K Ag2 Ag3 90.1(5) . .
Ag2 Ag3 Ag6 177.59(8) . .
N1D Ag3 Ag2 81.0(5) . .
N1D Ag3 Ag6 100.9(5) . .
N1D Ag3 N1O 176.6(6) . .
N1O Ag3 Ag2 101.5(4) . .
N1O Ag3 Ag6 76.6(4) . .
Ag9 Ag4 Ag6 179.22(9) . .
N1E Ag4 Ag6 100.6(4) . .
N1E Ag4 Ag9 78.7(4) . .
N1P Ag4 Ag6 74.9(4) . .
N1P Ag4 Ag9 105.8(4) . .
N1P Ag4 N1E 174.8(6) . .
Ag7 Ag5 Ag8 172.96(9) . .
N1S Ag5 Ag7 90.2(5) . .
N1S Ag5 Ag8 92.3(5) . .
N1Y Ag5 Ag7 83.4(5) . .
N1Y Ag5 Ag8 92.4(5) . .
N1Y Ag5 N1S 163.5(7) . .
Ag3 Ag6 Ag4 175.62(8) . .
N1C Ag6 Ag3 99.8(5) . .
N1C Ag6 Ag4 83.3(5) . .
N1C Ag6 N1G 163.6(6) . .
N1G Ag6 Ag3 81.1(4) . .
N1G Ag6 Ag4 95.1(4) . .
Ag1 Ag7 Ag5 172.31(8) . .
N1B Ag7 Ag1 87.4(4) . .
N1B Ag7 Ag5 99.0(4) . .
N1M Ag7 Ag1 92.8(4) . .
N1M Ag7 Ag5 81.2(4) . .
N1M Ag7 N1B 174.8(6) . .
Ag10 Ag8 Ag5 162.72(10) . .
N1R Ag8 Ag5 93.5(4) . .
N1R Ag8 Ag10 82.9(4) . .
N1R Ag8 N1T 167.8(6) . .
N1T Ag8 Ag5 76.4(4) . .
N1T Ag8 Ag10 104.7(4) . .
Ag10 Ag9 Ag4 149.14(10) 1_656 .
N1F Ag9 Ag4 88.3(5) . .
N1F Ag9 Ag10 99.6(5) . 1_656
N1J Ag9 Ag4 76.6(5) . .
N1J Ag9 Ag10 81.2(5) . 1_656
N1J Ag9 N1F 147.8(7) . .
Ag9 Ag10 Ag8 145.97(11) 1_454 .
N1H Ag10 Ag8 77.1(5) . .
N1H Ag10 Ag9 89.1(5) . 1_454
N1H Ag10 O1J 84.9(6) . .
N1H Ag10 O1R 95.0(6) . .
N1V Ag10 Ag8 85.7(5) . .
N1V Ag10 Ag9 94.5(5) . 1_454
N1V Ag10 N1H 154.0(8) . .
N1V Ag10 O1J 119.8(6) . .
N1V Ag10 O1R 95.3(6) . .
O1J Ag10 Ag8 142.8(4) . .
O1J Ag10 Ag9 64.2(4) . 1_454
O1J Ag10 O1R 84.8(5) . .
O1R Ag10 Ag8 65.0(3) . .
O1R Ag10 Ag9 148.2(3) . 1_454
C3A C2A N2A 121(2) . .
C3B C2B N2B 120(2) . .
C3C C2C N2C 124(2) . .
C3D C2D N2D 121(2) . .
C3E C2E N2E 123(2) . .
C3F C2F N2F 121(3) . .
C3G C2G N2G 125(2) . .
N2H C2H C3H 125(3) . .
C3I C2I N2I 122(2) . .
N2J C2J C3J 124(3) 1_656 .
N2K C2K C3K 122(2) . .
C3M C2M N2M 122(2) . .
C3O C2O N2O 118(2) . .
C3P C2P N2P 124(2) . .
C3R C2R N2R 121(2) . .
C3S C2S N2S 122(2) . .
C3T C2T N2T 124(2) . .
C3V C2V N2V 124(4) . .
C3Y C2Y N2Y 121(2) . .
N2Z C2Z C3Z 124(2) . .
C2A C3A C4A 120(2) . .
C2B C3B C4B 119(2) . .
C2C C3C C84 119(2) . .
C2D C3D C4D 119(2) . .
C2E C3E C4E 119(2) . .
C2F C3F C4F 119(3) . .
C2G C3G C4G 116(2) . .
C2H C3H C4H 112(3) . .
C2I C3I C4I 116(2) . .
C2J C3J C4J 119(2) . .
C2K C3K C4K 119(2) . .
C2M C3M C4M 118(2) . .
C2O C3O C4O 121(2) . .
C2P C3P C4P 118(2) . .
C2R C3R C4R 119(2) . .
C2S C3S C4S 117(2) . .
C2T C3T C4T 117(2) . .
C2V C3V C4V 116(4) . .
C2Y C3Y C4Y 119(2) . .
C2Z C3Z C4Z 116(2) . .
N1A C4A C3A 119.1(18) . .
N3A C4A C3A 120.7(19) . .
N3A C4A N1A 120.0(18) . .
N1B C4B C3B 119(2) . .
N1B C4B N3B 122(2) . .
N3B C4B C3B 119(2) . .
N1D C4D C3D 119.0(19) . .
N1D C4D N3D 121(2) . .
N3D C4D C3D 119.8(19) . .
N1E C4E C3E 114(2) . .
N3E C4E C3E 123(2) . .
N3E C4E N1E 122(2) . .
N1F C4F C3F 120(3) . .
N1F C4F N3F 118(2) . .
N3F C4F C3F 122(3) . .
N1G C4G C3G 118.1(19) . .
N3G C4G C3G 123(2) . .
N3G C4G N1G 119.2(19) . .
N1H C4H C3H 123(2) . .
N3H C4H C3H 113(2) . .
N3H C4H N1H 124(2) . .
N1I C4I C3I 120.7(19) . .
N1I C4I N3I 122.6(19) . .
N3I C4I C3I 116.8(19) . .
N1J C4J C3J 117(2) . .
N3J C4J C3J 121(2) . .
N3J C4J N1J 122(2) . .
N1K C4K C3K 120(2) . .
N3K C4K C3K 123(2) . .
N3K C4K N1K 117(2) . .
N1M C4M C3M 120.4(19) . .
N3M C4M C3M 117.1(19) . .
N3M C4M N1M 122.3(19) . .
N1O C4O C3O 118(2) . .
N3O C4O C3O 122(2) . .
N3O C4O N1O 119.9(19) . .
N1P C4P C3P 117(2) . .
N3P C4P C3P 122(2) . .
N3P C4P N1P 121(2) . .
N1R C4R C3R 119(2) . .
N3R C4R C3R 123(2) . .
N3R C4R N1R 118(2) . .
N1S C4S C3S 121(2) . .
N1S C4S N3S 122(2) . .
N3S C4S C3S 117(2) . .
N1T C4T C3T 119(2) . .
N3T C4T C3T 121(2) . .
N3T C4T N1T 120(2) . .
C3V C4V N1V 123(3) . .
N3V C4V C3V 125(3) . .
N3V C4V N1V 112(3) . .
N1Y C4Y C3Y 120(2) . .
N3Y C4Y C3Y 124(2) . .
N3Y C4Y N1Y 116(2) . .
N1Z C4Z C3Z 118(2) . .
N1Z C4Z N3Z 124(2) . .
N3Z C4Z C3Z 118(2) . .
N2A C5A N1A 119.8(17) . .
O1A C5A N1A 119.7(17) . .
O1A C5A N2A 120.4(18) . .
N1B C5B N2B 118.0(19) . .
O1B C5B N1B 124(2) . .
O1B C5B N2B 117.8(19) . .
N1D C5D N2D 118.3(18) . .
O1D C5D N1D 124.7(19) . .
O1D C5D N2D 117.0(18) . .
N1E C5E N2E 113(2) . .
O1E C5E N1E 125(2) . .
O1E C5E N2E 122(2) . .
N1F C5F N2F 118(2) . .
O1F C5F N1F 119(2) . .
O1F C5F N2F 123(2) . .
N2G C5G N1G 118.5(19) . .
O1G C5G N1G 122(2) . .
O1G C5G N2G 120(2) . .
N2H C5H N1H 110(3) . .
O1H C5H N1H 118(3) . .
O1H C5H N2H 131(3) . .
N1I C5I N2I 117.8(18) . .
O1I C5I N1I 123.4(18) . .
O1I C5I N2I 118.9(18) . .
N2J C5J N1J 115(2) . 1_454
O1J C5J N1J 117(2) . 1_454
O1J C5J N2J 128(2) . .
N2K C5K N1K 121(2) . .
O1K C5K N1K 122(2) . .
O1K C5K N2K 116.9(19) . .
N2M C5M N1M 122(2) . .
O1M C5M N1M 118(2) . .
O1M C5M N2M 120(2) . .
N1O C5O N2O 113(2) . .
O1O C5O N1O 128(2) . .
O1O C5O N2O 119(2) . .
N1P C5P N2P 115(2) . .
O1P C5P N1P 131(2) . .
O1P C5P N2P 114(2) . .
N1R C5R N2R 122(2) . .
O1R C5R N1R 126(2) . .
O1R C5R N2R 112.5(19) . .
N1S C5S N2S 118(2) . .
O1S C5S N1S 122(2) . .
O1S C5S N2S 119.8(19) . .
N2T C5T N1T 119(2) . .
O1T C5T N1T 123(2) . .
O1T C5T N2T 118(2) . .
N2V C5V N1V 115(3) . .
O1V C5V N1V 123(3) . .
O1V C5V N2V 122(3) . .
N1Y C5Y N2Y 116.8(19) . .
O1Y C5Y N1Y 127(2) . .
O1Y C5Y N2Y 116.5(19) . .
N2Z C5Z N1Z 117.1(18) . .
O1Z C5Z N1Z 119.4(19) . .
O1Z C5Z N2Z 123(2) . .
N1C C12 N2C 120.7(19) . .
O1C C12 N1C 120.3(19) . .
O1C C12 N2C 119.0(18) . .
N1C C84 C3C 120.8(19) . .
N3C C84 C3C 122(2) . .
N3C C84 N1C 117.0(19) . .
C4A N1A Ag1 125.4(13) . .
C4A N1A C5A 119.9(16) . .
C5A N1A Ag1 114.7(12) . .
C4B N1B Ag7 125.6(15) . .
C4B N1B C5B 123.8(19) . .
C5B N1B Ag7 110.5(13) . .
C12 N1C Ag6 109.7(13) . .
C84 N1C Ag6 131.3(14) . .
C84 N1C C12 118.7(18) . .
C4D N1D Ag3 123.7(14) . .
C4D N1D C5D 122.8(19) . .
C5D N1D Ag3 112.5(14) . .
C4E N1E Ag4 119.7(14) . .
C4E N1E C5E 128.8(19) . .
C5E N1E Ag4 111.5(14) . .
C4F N1F Ag9 129.8(17) . .
C5F N1F Ag9 109.6(15) . .
C5F N1F C4F 120(2) . .
C4G N1G Ag6 130.6(14) . .
C4G N1G C5G 122.0(18) . .
C5G N1G Ag6 107.0(13) . .
C4H N1H Ag10 128.4(18) . .
C4H N1H C5H 124(2) . .
C5H N1H Ag10 107.9(18) . .
C4I N1I Ag2 126.1(14) . .
C4I N1I C5I 123.4(17) . .
C5I N1I Ag2 109.4(12) . .
C4J N1J Ag9 125.8(16) . .
C4J N1J C5J 122(2) . 1_656
C5J N1J Ag9 112.0(15) 1_656 .
C4K N1K Ag2 129.8(15) . .
C4K N1K C5K 120.5(19) . .
C5K N1K Ag2 109.7(14) . .
C4M N1M Ag7 122.5(13) . .
C4M N1M C5M 118.8(18) . .
C5M N1M Ag7 118.6(14) . .
O1N N1N O3N 117(4) . .
O2N N1N O1N 122(4) . .
O2N N1N O3N 121(4) . .
C4O N1O Ag3 123.4(14) . .
C5O N1O Ag3 109.8(14) . .
C5O N1O C4O 126.6(19) . .
C4P N1P Ag4 123.9(15) . .
C5P N1P Ag4 109.1(15) . .
C5P N1P C4P 127(2) . .
C4R N1R Ag8 125.0(15) . .
C5R N1R Ag8 113.7(14) . .
C5R N1R C4R 121.3(19) . .
C4S N1S Ag5 126.7(17) . .
C4S N1S C5S 123(2) . .
C5S N1S Ag5 110.2(15) . .
C4T N1T Ag8 128.1(14) . .
C4T N1T C5T 121.6(19) . .
C5T N1T Ag8 110.3(14) . .
C4V N1V Ag10 132.2(18) . .
C4V N1V C5V 118(2) . .
C5V N1V Ag10 109.4(17) . .
C4Y N1Y Ag5 129.5(15) . .
C5Y N1Y Ag5 107.6(14) . .
C5Y N1Y C4Y 122.5(19) . .
C4Z N1Z Ag1 121.7(15) . .
C4Z N1Z C5Z 124.5(19) . .
C5Z N1Z Ag1 113.2(13) . .
C2A N2A C1A 121.7(18) . .
C2A N2A C5A 119.9(18) . .
C5A N2A C1A 118.3(17) . .
C2B N2B C1B 118.8(19) . .
C2B N2B C5B 120.1(19) . .
C5B N2B C1B 121.0(18) . .
C2C N2C C1C 123.6(18) . .
C2C N2C C12 117.2(18) . .
C12 N2C C1C 119.1(18) . .
C2D N2D C1D 121.7(18) . .
C2D N2D C5D 119.1(18) . .
C5D N2D C1D 118.6(17) . .
C2E N2E C1E 119.8(18) . .
C2E N2E C5E 121.3(19) . .
C5E N2E C1E 118.9(19) . .
C2F N2F C1F 123(2) . .
C5F N2F C1F 115(2) . .
C5F N2F C2F 121(2) . .
C2G N2G C1G 122(2) . .
C2G N2G C5G 119.8(19) . .
C5G N2G C1G 118.6(19) . .
C2H N2H C1H 131(3) . .
C2H N2H C5H 126(3) . .
C5H N2H C1H 103(3) . .
C2I N2I C1I 121.4(18) . .
C2I N2I C5I 119.7(18) . .
C5I N2I C1I 118.8(17) . .
C2J N2J C1J 125(2) 1_454 .
C2J N2J C5J 124(2) 1_454 .
C5J N2J C1J 111(2) . .
C2K N2K C1K 121.9(17) . .
C2K N2K C5K 118.0(18) . .
C5K N2K C1K 120.2(17) . .
C2M N2M C1M 122.8(18) . .
C5M N2M C1M 117.8(19) . .
C5M N2M C2M 119.4(19) . .
O5N N2N O4N 116(2) . .
O5N N2N O6N 127(3) . .
O6N N2N O4N 116(2) . .
C2O N2O C1O 117.9(19) . .
C2O N2O C5O 125(2) . .
C5O N2O C1O 117.6(18) . .
C2P N2P C1P 122(2) . .
C2P N2P C5P 118(2) . .
C5P N2P C1P 120(2) . .
C2R N2R C1R 118.9(19) . .
C2R N2R C5R 117.3(19) . .
C5R N2R C1R 123.6(18) . .
C2S N2S C1S 123.2(19) . .
C2S N2S C5S 119.0(18) . .
C5S N2S C1S 117.8(18) . .
C2T N2T C1T 122(2) . .
C2T N2T C5T 119(2) . .
C5T N2T C1T 119(2) . .
C2V N2V C1V 121(3) . .
C2V N2V C5V 123(3) . .
C5V N2V C1V 116(3) . .
C2Y N2Y C1Y 120(2) . .
C2Y N2Y C5Y 120.1(19) . .
C5Y N2Y C1Y 119(2) . .
C2Z N2Z C1Z 123.9(19) . .
C2Z N2Z C5Z 119.4(19) . .
C5Z N2Z C1Z 116.7(18) . .
O8N N3N O7N 116(3) . .
O9N N3N O7N 119(3) . .
O9N N3N O8N 125(3) . .
O11N N4N O10N 118(2) . .
O12N N4N O10N 123(2) . .
O12N N4N O11N 119(2) . .
O14N N5N O13N 118(2) . .
O15N N5N O13N 122(2) . .
O15N N5N O14N 120(2) . .
O16N N6N O17N 119(2) . .
O18N N6N O16N 119(2) . .
O18N N6N O17N 122(2) . .
O19N N7N O20N 122(2) . .
O19N N7N O21N 122(2) . .
O21N N7N O20N 116(2) . .
O22N N8N O24N 123(2) . .
O23N N8N O22N 118(2) . .
O23N N8N O24N 118(2) . .
C5J O1J Ag10 112.3(16) . .
C5R O1R Ag10 108.7(13) . .
loop_
_geom_bond_atom_site_label_1
_geom_bond_atom_site_label_2
_geom_bond_distance
_geom_bond_site_symmetry_2
Ag1 Ag2 2.923(2) .
Ag1 Ag7 2.948(2) .
Ag1 N1A 2.116(15) .
Ag1 N1Z 2.191(16) .
Ag2 Ag3 2.902(2) .
Ag2 N1I 2.180(14) .
Ag2 N1K 2.181(16) .
Ag3 Ag6 3.024(2) .
Ag3 N1D 2.154(17) .
Ag3 N1O 2.163(16) .
Ag4 Ag6 3.088(2) .
Ag4 Ag9 3.085(3) .
Ag4 N1E 2.174(16) .
Ag4 N1P 2.180(17) .
Ag5 Ag7 3.007(2) .
Ag5 Ag8 3.034(2) .
Ag5 N1S 2.145(18) .
Ag5 N1Y 2.136(16) .
Ag6 N1C 2.118(16) .
Ag6 N1G 2.147(16) .
Ag7 N1B 2.155(16) .
Ag7 N1M 2.102(15) .
Ag8 Ag10 3.004(3) .
Ag8 N1R 2.142(16) .
Ag8 N1T 2.144(16) .
Ag9 Ag10 2.988(3) 1_656
Ag9 N1F 2.214(18) .
Ag9 N1J 2.185(19) .
Ag10 Ag9 2.988(3) 1_454
Ag10 N1H 2.25(2) .
Ag10 N1V 2.185(18) .
Ag10 O1J 2.533(16) .
Ag10 O1R 2.600(14) .
C1A N2A 1.47(2) .
C1B N2B 1.45(2) .
C1C N2C 1.45(2) .
C1D N2D 1.50(2) .
C1E N2E 1.44(2) .
C1F N2F 1.47(3) .
C1G N2G 1.45(2) .
C1H N2H 1.45(4) .
C1I N2I 1.48(2) .
C1J N2J 1.51(3) .
C1K N2K 1.47(2) .
C1M N2M 1.44(2) .
C1O N2O 1.46(2) .
C1P N2P 1.45(3) .
C1R N2R 1.44(2) .
C1S N2S 1.44(2) .
C1T N2T 1.44(3) .
C1V N2V 1.50(4) .
C1Y N2Y 1.45(3) .
C1Z N2Z 1.43(2) .
C2A C3A 1.34(3) .
C2A N2A 1.36(2) .
C2B C3B 1.35(3) .
C2B N2B 1.38(2) .
C2C C3C 1.30(2) .
C2C N2C 1.35(2) .
C2D C3D 1.31(3) .
C2D N2D 1.34(2) .
C2E C3E 1.31(3) .
C2E N2E 1.38(2) .
C2F C3F 1.30(3) .
C2F N2F 1.36(3) .
C2G C3G 1.32(3) .
C2G N2G 1.35(2) .
C2H C3H 1.36(3) .
C2H N2H 1.25(3) .
C2I C3I 1.32(3) .
C2I N2I 1.35(2) .
C2J C3J 1.34(3) .
C2J N2J 1.26(3) 1_656
C2K C3K 1.33(2) .
C2K N2K 1.37(2) .
C2M C3M 1.33(2) .
C2M N2M 1.38(2) .
C2O C3O 1.35(3) .
C2O N2O 1.36(2) .
C2P C3P 1.30(3) .
C2P N2P 1.34(2) .
C2R C3R 1.30(3) .
C2R N2R 1.37(2) .
C2S C3S 1.31(3) .
C2S N2S 1.36(2) .
C2T C3T 1.31(3) .
C2T N2T 1.34(2) .
C2V C3V 1.28(4) .
C2V N2V 1.33(4) .
C2Y C3Y 1.31(2) .
C2Y N2Y 1.38(2) .
C2Z C3Z 1.32(3) .
C2Z N2Z 1.35(2) .
C3A C4A 1.38(2) .
C3B C4B 1.43(3) .
C3C C84 1.40(3) .
C3D C4D 1.44(2) .
C3E C4E 1.44(3) .
C3F C4F 1.38(3) .
C3G C4G 1.47(3) .
C3H C4H 1.44(3) .
C3I C4I 1.44(3) .
C3J C4J 1.43(3) .
C3K C4K 1.40(3) .
C3M C4M 1.44(3) .
C3O C4O 1.38(3) .
C3P C4P 1.43(3) .
C3R C4R 1.40(3) .
C3S C4S 1.43(3) .
C3T C4T 1.43(3) .
C3V C4V 1.36(3) .
C3Y C4Y 1.37(3) .
C3Z C4Z 1.44(3) .
C4A N1A 1.37(2) .
C4A N3A 1.31(2) .
C4B N1B 1.30(2) .
C4B N3B 1.32(2) .
C4D N1D 1.30(2) .
C4D N3D 1.31(2) .
C4E N1E 1.35(2) .
C4E N3E 1.29(2) .
C4F N1F 1.35(3) .
C4F N3F 1.32(3) .
C4G N1G 1.35(2) .
C4G N3G 1.28(2) .
C4H N1H 1.28(3) .
C4H N3H 1.28(2) .
C4I N1I 1.28(2) .
C4I N3I 1.34(2) .
C4J N1J 1.35(3) .
C4J N3J 1.32(3) .
C4K N1K 1.32(2) .
C4K N3K 1.30(2) .
C4M N1M 1.36(2) .
C4M N3M 1.29(2) .
C4O N1O 1.36(2) .
C4O N3O 1.32(2) .
C4P N1P 1.31(2) .
C4P N3P 1.26(2) .
C4R N1R 1.35(2) .
C4R N3R 1.29(2) .
C4S N1S 1.28(2) .
C4S N3S 1.35(2) .
C4T N1T 1.34(2) .
C4T N3T 1.30(2) .
C4V N1V 1.37(3) .
C4V N3V 1.33(3) .
C4Y N1Y 1.36(2) .
C4Y N3Y 1.31(2) .
C4Z N1Z 1.30(2) .
C4Z N3Z 1.32(2) .
C5A N1A 1.37(2) .
C5A N2A 1.36(2) .
C5A O1A 1.233(19) .
C5B N1B 1.35(2) .
C5B N2B 1.38(2) .
C5B O1B 1.23(2) .
C5D N1D 1.32(2) .
C5D N2D 1.42(2) .
C5D O1D 1.24(2) .
C5E N1E 1.36(2) .
C5E N2E 1.38(2) .
C5E O1E 1.18(2) .
C5F N1F 1.35(3) .
C5F N2F 1.35(3) .
C5F O1F 1.22(2) .
C5G N1G 1.38(2) .
C5G N2G 1.36(2) .
C5G O1G 1.25(2) .
C5H N1H 1.43(3) .
C5H N2H 1.41(3) .
C5H O1H 1.22(3) .
C5I N1I 1.32(2) .
C5I N2I 1.39(2) .
C5I O1I 1.24(2) .
C5J N1J 1.43(3) 1_454
C5J N2J 1.36(3) .
C5J O1J 1.19(2) .
C5K N1K 1.35(2) .
C5K N2K 1.37(2) .
C5K O1K 1.25(2) .
C5M N1M 1.37(2) .
C5M N2M 1.35(2) .
C5M O1M 1.25(2) .
C5O N1O 1.33(2) .
C5O N2O 1.42(2) .
C5O O1O 1.18(2) .
C5P N1P 1.31(2) .
C5P N2P 1.44(3) .
C5P O1P 1.22(2) .
C5R N1R 1.28(2) .
C5R N2R 1.39(2) .
C5R O1R 1.28(2) .
C5S N1S 1.33(2) .
C5S N2S 1.39(2) .
C5S O1S 1.22(2) .
C5T N1T 1.35(2) .
C5T N2T 1.38(2) .
C5T O1T 1.24(2) .
C5V N1V 1.40(3) .
C5V N2V 1.35(3) .
C5V O1V 1.16(3) .
C5Y N1Y 1.32(2) .
C5Y N2Y 1.42(2) .
C5Y O1Y 1.21(2) .
C5Z N1Z 1.37(2) .
C5Z N2Z 1.35(2) .
C5Z O1Z 1.24(2) .
C12 N1C 1.37(2) .
C12 N2C 1.40(2) .
C12 O1C 1.26(2) .
C84 N1C 1.34(2) .
C84 N3C 1.33(2) .
N1J C5J 1.43(3) 1_656
N1N O1N 1.21(3) .
N1N O2N 1.16(3) .
N1N O3N 1.21(3) .
N2J C2J 1.26(3) 1_454
N2N O4N 1.30(2) .
N2N O5N 1.22(2) .
N2N O6N 1.24(2) .
N3N O7N 1.27(3) .
N3N O8N 1.25(2) .
N3N O9N 1.21(3) .
N4N O10N 1.25(2) .
N4N O11N 1.24(2) .
N4N O12N 1.23(2) .
N5N O13N 1.28(2) .
N5N O14N 1.25(2) .
N5N O15N 1.21(2) .
N6N O16N 1.23(2) .
N6N O17N 1.22(2) .
N6N O18N 1.24(2) .
N7N O19N 1.20(2) .
N7N O20N 1.28(2) .
N7N O21N 1.26(2) .
N8N O22N 1.24(2) .
N8N O23N 1.24(2) .
N8N O24N 1.26(2) .
loop_
_smtbx_masks_void_nr
_smtbx_masks_void_average_x
_smtbx_masks_void_average_y
_smtbx_masks_void_average_z
_smtbx_masks_void_volume
_smtbx_masks_void_count_electrons
1 0.278 0.096 0.478 248.7 79.5
2 0.278 0.404 0.978 248.7 79.6
3 0.500 0.500 0.500 285.7 124.3
4 0.500 0.000 1.000 285.7 124.3
5 0.722 0.596 0.022 248.7 80.0
6 0.722 0.904 0.522 248.7 80.1
