#------------------------------------------------------------------------------
#$Date: 2018-11-16 01:22:44 +0200 (Fri, 16 Nov 2018) $
#$Revision: 211982 $
#$URL: file:///home/coder/svn-repositories/cod/cif/1/55/02/1550242.cif $
#------------------------------------------------------------------------------
#
# This file is available in the Crystallography Open Database (COD),
# http://www.crystallography.net/
#
# All data on this site have been placed in the public domain by the
# contributors.
#
data_1550242
loop_
_publ_author_name
'Yang, Xiuxiu'
'Gianetti, Thomas L.'
'W\"orle, Michael D.'
'van Leest, Nicolaas P.'
'de Bruin, Bas'
'Gr\"utzmacher, Hansj\"org'
_publ_section_title
;
 A low-valent dinuclear ruthenium diazadiene complex catalyzes the
 oxidation of dihydrogen and reversible hydrogenation of quinones
;
_journal_name_full               'Chemical Science'
_journal_paper_doi               10.1039/C8SC02864H
_journal_year                    2019
_chemical_absolute_configuration unk
_chemical_formula_moiety
'C37 H33 F3 N2 O3 Ru2 S, 0.5(C4 H8 O), 0.75(C4 O), 0.5(C1.89 O0.5)'
_chemical_formula_sum            'C42.94 H37 F3 N2 O4.5 Ru2 S'
_chemical_formula_weight         944.26
_chemical_name_systematic        '[3-H(OTf)]'
_chemical_properties_physical    Air-sensitive,Moisture-sensitive
_space_group_crystal_system      orthorhombic
_space_group_IT_number           18
_space_group_name_Hall           ' P 2 2ab'
_space_group_name_H-M_alt        'P 21 21 2'
_symmetry_Int_Tables_number      18
_symmetry_space_group_name_Hall  'P 2 2ab'
_symmetry_space_group_name_H-M   'P 21 21 2'
_atom_sites_solution_primary     direct
_audit_creation_date             2017-05-05
_audit_creation_method
;
Olex2 1.2
(compiled 2017.03.28 svn.r3405 for OlexSys, GUI svn.r5335)
;
_audit_update_record
;
2018-06-28 deposited with the CCDC.
2018-11-02 downloaded from the CCDC.
;
_cell_angle_alpha                90
_cell_angle_beta                 90
_cell_angle_gamma                90
_cell_formula_units_Z            8
_cell_length_a                   21.316(4)
_cell_length_b                   29.316(6)
_cell_length_c                   12.6238(19)
_cell_measurement_reflns_used    9679
_cell_measurement_temperature    109(2)
_cell_measurement_theta_max      25.566
_cell_measurement_theta_min      2.336
_cell_volume                     7889(2)
_computing_cell_refinement       'SAINT v8.34A (Bruker, 2013)'
_computing_data_reduction        'SAINT v8.34A (Bruker, 2013)'
_computing_molecular_graphics    'Olex2 (Dolomanov et al., 2009)'
_computing_publication_material  'Olex2 (Dolomanov et al., 2009)'
_computing_structure_refinement  'olex2.refine (Bourhis et al., 2015)'
_computing_structure_solution    'SIR2004 (Burla et al., 2007)'
_diffrn_ambient_temperature      108.9
_diffrn_measured_fraction_theta_full 0.9971
_diffrn_measured_fraction_theta_max 0.9971
_diffrn_measurement_device_type  'Bruker APEX-II CCD'
_diffrn_measurement_method       '\f and \w scans'
_diffrn_radiation_type           'Mo K\a'
_diffrn_radiation_wavelength     0.71073
_diffrn_reflns_av_R_equivalents  0.0999
_diffrn_reflns_av_unetI/netI     0.0217
_diffrn_reflns_limit_h_max       26
_diffrn_reflns_limit_h_min       -25
_diffrn_reflns_limit_k_max       35
_diffrn_reflns_limit_k_min       -35
_diffrn_reflns_limit_l_max       15
_diffrn_reflns_limit_l_min       -15
_diffrn_reflns_number            411552
_diffrn_reflns_theta_full        25.7383
_diffrn_reflns_theta_max         25.74
_diffrn_reflns_theta_min         2.29
_exptl_absorpt_coefficient_mu    0.879
_exptl_absorpt_correction_type   none
_exptl_crystal_colour            purple
_exptl_crystal_density_diffrn    1.5900
_exptl_crystal_description       needle
_exptl_crystal_F_000             3787.9874
_exptl_crystal_recrystallization_method 'Re-crystallisation from solvent: THF'
_exptl_crystal_size_max          0.2
_exptl_crystal_size_mid          0.08
_exptl_crystal_size_min          0.08
_refine_diff_density_max         0.4060
_refine_diff_density_min         -0.4220
_refine_diff_density_rms         0.0725
_refine_ls_abs_structure_details
'Flack, H. D. (1983). Acta Cryst. A39, 876-881.'
_refine_ls_abs_structure_Flack   -0.011(15)
_refine_ls_d_res_high            0.8183
_refine_ls_d_res_low             8.8830
_refine_ls_goodness_of_fit_ref   1.0574
_refine_ls_hydrogen_treatment    mixed
_refine_ls_matrix_type           full
_refine_ls_number_constraints    136
_refine_ls_number_parameters     990
_refine_ls_number_reflns         15037
_refine_ls_number_restraints     0
_refine_ls_restrained_S_all      1.0574
_refine_ls_R_factor_all          0.0252
_refine_ls_R_factor_gt           0.0221
_refine_ls_shift/su_max          0.0008
_refine_ls_shift/su_mean         0.0001
_refine_ls_structure_factor_coef Fsqd
_refine_ls_weighting_details
'w=1/[\s^2^(Fo^2^)+(0.0219P)^2^+7.1743P] where P=(Fo^2^+2Fc^2^)/3'
_refine_ls_weighting_scheme      calc
_refine_ls_wR_factor_gt          0.0495
_refine_ls_wR_factor_ref         0.0509
_reflns_Friedel_coverage         0.997
_reflns_limit_h_max              26
_reflns_limit_h_min              -25
_reflns_limit_k_max              35
_reflns_limit_k_min              -35
_reflns_limit_l_max              15
_reflns_limit_l_min              -15
_reflns_number_gt                14381
_reflns_number_total             15037
_reflns_threshold_expression     I>=2u(I)
_iucr_refine_instructions_details
;
TITL mo_XY_595_2_0ma in P21212 #18
REM reset to P21212 #18
CELL 0.71073 21.3157 29.3159 12.6238 90 90 90
ZERR 8 0.0035 0.0058 0.0019 0 0 0
LATT -1
SYMM -X,-Y,+Z
SYMM 0.5+X,0.5-Y,-Z
SYMM 0.5-X,0.5+Y,-Z
SFAC C H F N O Ru S
UNIT 343.53 296 24 16 36 16 8

L.S. 4
PLAN  20
SIZE 0.08 0.08 0.2
TEMP -164.25
BOND 
fmap 2
acta 
WGHT 0.021853 7.174348
FVAR 0.122041 0.439056 0.50318
REM <olex2.extras>
REM <HklSrc "%.\\mo_XY_595_2_0ma.hkl">
REM </olex2.extras>

Ru3   6     0.42226  0.36057  0.17126  11.00000  0.01202  0.01354  0.01159 =
 -0.00074 -0.00081 -0.00028 

Ru1   6     0.30364  0.55250 -0.36263  11.00000  0.01214  0.01357  0.01081 =
 -0.00061  0.00079  0.00191 

Ru4   6     0.53990  0.35826  0.09829  11.00000  0.01149  0.01459  0.01224 =
 -0.00005 -0.00141  0.00002 

Ru2   6     0.30298  0.46674 -0.29087  11.00000  0.01283  0.01259  0.01314 =
 -0.00147 -0.00047  0.00202 

C59   1     0.58226  0.26145  0.08893  11.00000  0.01418  0.01785  0.02415 =
 0.00138  0.00444  0.00120 
C50   1     0.43312  0.32527  0.32370  11.00000  0.02078  0.02070  0.01184 =
 0.00142 -0.00332 -0.00201 
AFIX 13
H50   2     0.46831  0.33681  0.36871  11.00000 -1.20000 
AFIX 0

C13   1     0.24198  0.60964 -0.32673  11.00000  0.01493  0.01810  0.01379 =
 -0.00258  0.00394  0.00472 
AFIX 13
H13   2     0.24808  0.62348 -0.25507  11.00000 -1.20000 
AFIX 0

C66   1     0.63448  0.36061  0.15827  11.00000  0.01238  0.02050  0.01623 =
 0.00048 -0.00568 -0.00208 
AFIX 13
H66   2     0.64521  0.38816  0.20133  11.00000 -1.20000 
AFIX 0
C42   1     0.34271  0.31832  0.12818  11.00000  0.01542  0.01648  0.01772 =
 -0.00273 -0.00315 -0.00073 
AFIX 13
H42   2     0.32363  0.32566  0.05784  11.00000 -1.20000 
AFIX 0

C21   1     0.31595  0.39937 -0.35386  11.00000  0.01719  0.01511  0.01978 =
 -0.00649 -0.00320  0.00247 
AFIX 13
H21   2     0.35554  0.39492 -0.39507  11.00000 -1.20000 
AFIX 0
N1    4     0.37348  0.50102 -0.38305  11.00000  0.01109  0.01554  0.01792 =
 -0.00189  0.00099  0.00088 
C23   1     0.19798  0.41492 -0.39025  11.00000  0.01439  0.01482  0.02016 =
 0.00120 -0.00347  0.00233 
C12   1     0.24153  0.64263 -0.41586  11.00000  0.01315  0.01716  0.01928 =
 0.00030 -0.00167 -0.00035 

C49   1     0.37853  0.35201  0.32673  11.00000  0.01948  0.01886  0.01160 =
 -0.00162  0.00092 -0.00106 
AFIX 13
H49   2     0.38089  0.37934  0.37399  11.00000 -1.20000 
AFIX 0
C48   1     0.31476  0.33141  0.31638  11.00000  0.01982  0.01161  0.02152 =
 0.00161  0.00235  0.00226 

C35   1     0.31854  0.31738 -0.28858  11.00000  0.02490  0.01743  0.02564 =
 -0.00524 -0.00747  0.00254 
AFIX 43
H35   2     0.33922  0.30800 -0.35158  11.00000 -1.20000 
AFIX 0
C14   1     0.20512  0.56966 -0.32830  11.00000  0.01342  0.01825  0.01659 =
 0.00102  0.00559  0.00656 
AFIX 13
H14   2     0.18926  0.55929 -0.25774  11.00000 -1.20000 
AFIX 0
C26   1     0.07009  0.40503 -0.35225  11.00000  0.01421  0.02420  0.04226 =
 0.00802 -0.00321 -0.00004 
AFIX 43
H26   2     0.02670  0.40073 -0.33832  11.00000 -1.20000 
AFIX 0

C56   1     0.41581  0.25815  0.20802  11.00000  0.00977  0.01765  0.02279 =
 -0.00208  0.00188 -0.00027 

C7    1     0.27169  0.63017 -0.51059  11.00000  0.01238  0.01995  0.01857 =
 0.00371 -0.00020  0.00135 

C65   1     0.59869  0.32605  0.21250  11.00000  0.01466  0.02195  0.01250 =
 0.00148 -0.00261  0.00391 
AFIX 13
H65   2     0.58834  0.33321  0.28795  11.00000 -1.20000 
AFIX 0

C6    1     0.29981  0.58376 -0.51888  11.00000  0.01321  0.02612  0.00939 =
 0.00254  0.00113  0.00152 
AFIX 13
H6    2     0.33944  0.58188 -0.56105  11.00000 -1.20000 
AFIX 0
C20   1     0.19216  0.54685 -0.51603  11.00000  0.01393  0.01883  0.02131 =
 -0.00030 -0.00284  0.00504 

C53   1     0.45730  0.19864  0.36427  11.00000  0.03146  0.02452  0.03172 =
 0.01064  0.00149  0.00435 
AFIX 43
H53   2     0.47101  0.17833  0.41814  11.00000 -1.20000 
AFIX 0

N2    4     0.32393  0.52902 -0.20788  11.00000  0.02009  0.01401  0.01338 =
 -0.00226  0.00090  0.00235 

C63   1     0.62567  0.24476  0.26156  11.00000  0.01574  0.02876  0.02411 =
 0.00497  0.00225  0.00146 
AFIX 43
H63   2     0.64012  0.25476  0.32885  11.00000 -1.20000 
AFIX 0

C10   1     0.21219  0.71459 -0.49349  11.00000  0.02687  0.01660  0.04194 =
 0.00553 -0.00232  0.00271 
AFIX 43
H10   2     0.19083  0.74297 -0.48892  11.00000 -1.20000 
AFIX 0

C46   1     0.21513  0.30631  0.38728  11.00000  0.02442  0.02361  0.03683 =
 0.00040  0.01354  0.00023 
AFIX 43
H46   2     0.18737  0.30342  0.44577  11.00000 -1.20000 
AFIX 0

C36   1     0.30248  0.36326 -0.27422  11.00000  0.01678  0.01640  0.02015 =
 -0.00184 -0.00772 -0.00005 
C30   1     0.26373  0.42697 -0.16297  11.00000  0.01875  0.01679  0.01577 =
 -0.00131  0.00030 -0.00128 
AFIX 13
H30   2     0.27396  0.43820 -0.09019  11.00000 -1.20000 
AFIX 0

C55   1     0.42120  0.21168  0.18591  11.00000  0.01673  0.01845  0.02757 =
 -0.00266  0.00054  0.00030 
AFIX 43
H55   2     0.41091  0.20025  0.11767  11.00000 -1.20000 
AFIX 0
C45   1     0.19810  0.28944  0.28908  11.00000  0.01674  0.02384  0.04535 =
 -0.00321  0.00743 -0.00286 
AFIX 43
H45   2     0.15874  0.27473  0.28022  11.00000 -1.20000 
AFIX 0

C5    1     0.26234  0.54477 -0.52116  11.00000  0.01769  0.02078  0.01152 =
 -0.00287  0.00082  0.00594 
AFIX 13
H5    2     0.27960  0.51892 -0.56385  11.00000 -1.20000 
AFIX 0
C1    1     0.40069  0.48497 -0.48425  11.00000  0.01717  0.02315  0.01636 =
 -0.00533  0.00462  0.00456 
AFIX 137
H1a   2     0.36685  0.47586 -0.53236  11.00000 -1.50000 
H1b   2     0.42508  0.50964 -0.51661  11.00000 -1.50000 
H1c   2     0.42814  0.45879 -0.47079  11.00000 -1.50000 
AFIX 0

C58   1     0.55397  0.29579  0.01484  11.00000  0.01333  0.01655  0.01872 =
 -0.00293 -0.00084  0.00120 
AFIX 13
H58   2     0.51703  0.28474 -0.02671  11.00000 -1.20000 
AFIX 0
C41   1     0.39750  0.29089  0.12323  11.00000  0.01706  0.01515  0.01439 =
 -0.00409 -0.00170 -0.00573 
AFIX 13
H41   2     0.41105  0.28219  0.05014  11.00000 -1.20000 
AFIX 0

C27   1     0.10850  0.42368 -0.27540  11.00000  0.01942  0.02021  0.02518 =
 0.00630  0.00297  0.00491 
AFIX 43
H27   2     0.09120  0.43322 -0.20968  11.00000 -1.20000 
AFIX 0

C72   1     0.65969  0.33219 -0.02005  11.00000  0.01754  0.01382  0.01743 =
 0.00491  0.00300  0.00157 
C54   1     0.44198  0.18214  0.26568  11.00000  0.02420  0.01557  0.04361 =
 0.00038  0.00307  0.00200 
AFIX 43
H54   2     0.44551  0.15042  0.25156  11.00000 -1.20000 
AFIX 0

C28   1     0.17293  0.42854 -0.29430  11.00000  0.01621  0.01433  0.01903 =
 0.00469 -0.00277  0.00322 

C57   1     0.59010  0.33082 -0.03497  11.00000  0.01766  0.01751  0.01411 =
 0.00126 -0.00181  0.00216 
AFIX 13
H57   2     0.57474  0.34085 -0.10611  11.00000 -1.20000 
AFIX 0
C69   1     0.78826  0.33298  0.01959  11.00000  0.01417  0.04300  0.03117 =
 0.00971  0.00332  0.00180 
AFIX 43
H69   2     0.83207  0.33293  0.03343  11.00000 -1.20000 
AFIX 0

C8    1     0.27335  0.66087 -0.59401  11.00000  0.01677  0.03182  0.02309 =
 0.00685  0.00200 -0.00073 
AFIX 43
H8    2     0.29481  0.65313 -0.65747  11.00000 -1.20000 
AFIX 0

C52   1     0.45269  0.24503  0.38497  11.00000  0.02049  0.02797  0.02058 =
 0.00348  0.00099  0.00163 
AFIX 43
H52   2     0.46345  0.25636  0.45310  11.00000 -1.20000 
AFIX 0

C33   1     0.27239  0.29841 -0.12025  11.00000  0.02976  0.01886  0.03127 =
 0.00327 -0.01350 -0.00563 
AFIX 43
H33   2     0.26103  0.27627 -0.06874  11.00000 -1.20000 
AFIX 0

C71   1     0.70163  0.31781 -0.09812  11.00000  0.02206  0.02185  0.01699 =
 0.00363  0.00250  0.00092 
AFIX 43
H71   2     0.68630  0.30784 -0.16488  11.00000 -1.20000 
AFIX 0
C64   1     0.60387  0.27646  0.18756  11.00000  0.01340  0.01863  0.02099 =
 0.00372  0.00081  0.00103 

C22   1     0.26678  0.42267 -0.40990  11.00000  0.01714  0.01706  0.01283 =
 -0.00430 -0.00039  0.00308 
AFIX 13
H22   2     0.27758  0.43165 -0.48411  11.00000 -1.20000 
AFIX 0
C29   1     0.21541  0.45129 -0.21581  11.00000  0.01722  0.01509  0.01823 =
 -0.00102  0.00531  0.00043 
AFIX 13
H29   2     0.19617  0.47684 -0.17459  11.00000 -1.20000 
AFIX 0
C19   1     0.15486  0.53726 -0.60437  11.00000  0.02216  0.03145  0.02593 =
 -0.01375 -0.00510  0.00690 
AFIX 43
H19   2     0.17382  0.53050 -0.67064  11.00000 -1.20000 
AFIX 0

C61   1     0.60499  0.18407  0.13885  11.00000  0.02277  0.02112  0.04021 =
 0.00108  0.00466  0.00324 
AFIX 43
H61   2     0.60568  0.15248  0.12211  11.00000 -1.20000 
AFIX 0

C25   1     0.09475  0.39262 -0.44939  11.00000  0.01950  0.02673  0.03232 =
 -0.00040 -0.01086  0.00084 
AFIX 43
H25   2     0.06798  0.38085 -0.50299  11.00000 -1.20000 
AFIX 0

C43   1     0.29712  0.31429  0.21636  11.00000  0.01785  0.01342  0.02301 =
 -0.00052  0.00307  0.00119 

C17   1     0.06227  0.54797 -0.49940  11.00000  0.01283  0.03949  0.04447 =
 -0.01631 -0.00152  0.00399 
AFIX 43
H17   2     0.01784  0.54801 -0.49340  11.00000 -1.20000 
AFIX 0

C47   1     0.27320  0.32759  0.40024  11.00000  0.02678  0.01890  0.02400 =
 -0.00258  0.00718  0.00288 
AFIX 43
H47   2     0.28438  0.33962  0.46752  11.00000 -1.20000 
AFIX 0
C70   1     0.76557  0.31805 -0.07844  11.00000  0.01984  0.03029  0.02789 =
 0.00659  0.00856  0.00584 
AFIX 43
H70   2     0.79401  0.30807 -0.13154  11.00000 -1.20000 
AFIX 0

C31   1     0.27323  0.37648 -0.18002  11.00000  0.01399  0.01657  0.02074 =
 -0.00069 -0.00857  0.00058 

C51   1     0.43266  0.27476  0.30758  11.00000  0.01131  0.02039  0.01916 =
 0.00080  0.00251  0.00002 
C44   1     0.23868  0.29402  0.20302  11.00000  0.01736  0.01964  0.03098 =
 -0.00226  0.00070  0.00235 
AFIX 43
H44   2     0.22636  0.28326  0.13515  11.00000 -1.20000 
AFIX 0

C18   1     0.08982  0.53767 -0.59478  11.00000  0.01772  0.04250  0.03588 =
 -0.01643 -0.00919  0.00743 
AFIX 43
H18   2     0.06438  0.53079 -0.65446  11.00000 -1.20000 
AFIX 0

C68   1     0.74630  0.34795  0.09694  11.00000  0.01988  0.03523  0.02064 =
 0.00564 -0.00122 -0.00073 
AFIX 43
H68   2     0.76166  0.35880  0.16295  11.00000 -1.20000 
AFIX 0

C11   1     0.21175  0.68475 -0.40789  11.00000  0.02242  0.01977  0.02303 =
 -0.00187 -0.00059  0.00120 
AFIX 43
H11   2     0.19114  0.69310 -0.34404  11.00000 -1.20000 
AFIX 0
C32   1     0.25692  0.34441 -0.10498  11.00000  0.01721  0.02198  0.02262 =
 0.00217 -0.00592 -0.00392 
AFIX 43
H32   2     0.23516  0.35351 -0.04281  11.00000 -1.20000 
AFIX 0
C34   1     0.30420  0.28550 -0.21055  11.00000  0.03839  0.01245  0.03163 =
 -0.00328 -0.01736  0.00234 
AFIX 43
H34   2     0.31643  0.25458 -0.21955  11.00000 -1.20000 
AFIX 0

C62   1     0.62621  0.19876  0.23675  11.00000  0.01856  0.02458  0.03679 =
 0.01243  0.00461  0.00672 
AFIX 43
H62   2     0.64117  0.17722  0.28700  11.00000 -1.20000 
AFIX 0
N3    4     0.45587  0.37902  0.01859  11.00000  0.01396  0.01852  0.01438 =
 0.00143 -0.00167  0.00030 
N4    4     0.49625  0.40867  0.19919  11.00000  0.01686  0.01768  0.01677 =
 -0.00163 -0.00160  0.00037 
C37   1     0.42882  0.36355 -0.08202  11.00000  0.01906  0.03001  0.01158 =
 0.00246 -0.00310 -0.00362 
AFIX 137
H37a  2     0.41781  0.33117 -0.07661  11.00000 -1.50000 
H37b  2     0.39105  0.38136 -0.09773  11.00000 -1.50000 
H37c  2     0.45954  0.36777 -0.13894  11.00000 -1.50000 
AFIX 0

C2    1     0.40408  0.48813 -0.29230  11.00000  0.01217  0.01698  0.02152 =
 0.00087 -0.00264  0.00046 
AFIX 13
H2    2     0.43903  0.46538 -0.29315  11.00000 -1.20000 
AFIX 0
C3    1     0.37753  0.50378 -0.19761  11.00000  0.01760  0.01432  0.01616 =
 -0.00091 -0.00221 -0.00082 
AFIX 13
H3    2     0.39219  0.49247 -0.12709  11.00000 -1.20000 
AFIX 0
C4    1     0.29656  0.54732 -0.10938  11.00000  0.03085  0.02178  0.01035 =
 -0.00166  0.00237  0.00362 
AFIX 137
H4a   2     0.31236  0.57827 -0.09718  11.00000 -1.50000 
H4b   2     0.25075  0.54812 -0.11578  11.00000 -1.50000 
H4c   2     0.30837  0.52773 -0.04972  11.00000 -1.50000 
AFIX 0

C38   1     0.49329  0.41682  0.01444  11.00000  0.01386  0.01741  0.01857 =
 0.00484  0.00160  0.00171 
AFIX 13
H38   2     0.50968  0.42888 -0.05429  11.00000 -1.20000 
AFIX 0
C67   1     0.68207  0.34705  0.07779  11.00000  0.01270  0.01960  0.01870 =
 0.00577 -0.00043 -0.00176 

C15   1     0.16412  0.55819 -0.42059  11.00000  0.01475  0.01275  0.02356 =
 -0.00107  0.00070  0.00335 

C60   1     0.58283  0.21506  0.06532  11.00000  0.02221  0.02225  0.02756 =
 -0.00199  0.00402 -0.00068 
AFIX 43
H60   2     0.56796  0.20469 -0.00141  11.00000 -1.20000 
AFIX 0

S1    7     0.44167  0.60383 -0.35112  11.00000  0.01493  0.01976  0.01729 =
 -0.00082  0.00061 -0.00213 

S2    7     0.35851  0.46241  0.16240  11.00000  0.01831  0.01573  0.01748 =
 0.00020  0.00048  0.00259 
C39   1     0.51591  0.43275  0.11198  11.00000  0.01586  0.01521  0.02105 =
 0.00271  0.00010  0.00026 
AFIX 13
H39   2     0.54898  0.45686  0.11672  11.00000 -1.20000 
AFIX 0

F2    3     0.44117  0.68999 -0.29171  11.00000  0.06497  0.02303  0.04064 =
 -0.00678  0.01730 -0.01145 

F6    3     0.24145  0.46766  0.09864  11.00000  0.02274  0.05790  0.04604 =
 -0.00903 -0.00859  0.01245 
F5    3     0.25303  0.46306  0.26784  11.00000  0.03872  0.04373  0.04058 =
 -0.00253  0.02188  0.00479 
O4    5     0.34977  0.41294  0.15490  11.00000  0.01777  0.01417  0.02716 =
 -0.00049 -0.00173  0.00214 
F4    3     0.27408  0.52582  0.18695  11.00000  0.04391  0.02366  0.06739 =
 -0.00357  0.01045  0.01654 

O2    5     0.46204  0.58246 -0.44744  11.00000  0.02811  0.03611  0.02683 =
 -0.01240  0.01111 -0.00477 

O5    5     0.37814  0.48341  0.06492  11.00000  0.02572  0.02711  0.02843 =
 0.01160  0.00407  0.00429 
O6    5     0.38945  0.47805  0.25623  11.00000  0.03383  0.02776  0.02763 =
 -0.00773 -0.00994  0.00146 

C73   1     0.46027  0.66389 -0.37223  11.00000  0.02857  0.02916  0.02515 =
 0.00448  0.00468 -0.00859 
O1    5     0.37352  0.60600 -0.33577  11.00000  0.01472  0.01948  0.02138 =
 -0.00175  0.00050 -0.00170 
F3    3     0.43349  0.67956 -0.45976  11.00000  0.06318  0.04250  0.03811 =
 0.02275 -0.00203 -0.00801 
O3    5     0.47579  0.59122 -0.25759  11.00000  0.02787  0.03186  0.02913 =
 0.00272 -0.01289 -0.00241 
F1    3     0.52182  0.66950 -0.38335  11.00000  0.03609  0.04336  0.07140 =
 0.00359  0.01341 -0.02128 
C16   1     0.09869  0.55828 -0.41212  11.00000  0.01828  0.03076  0.03063 =
 -0.00433  0.00282  0.00652 
AFIX 43
H16   2     0.07932  0.56541 -0.34640  11.00000 -1.20000 
AFIX 0

C74   1     0.27739  0.48058  0.18002  11.00000  0.02606  0.02658  0.02985 =
 -0.00434  0.00392  0.00669 

C24   1     0.15885  0.39734 -0.46883  11.00000  0.02026  0.02027  0.02556 =
 -0.00168 -0.00476  0.00442 
AFIX 43
H24   2     0.17580  0.38861 -0.53541  11.00000 -1.20000 
AFIX 0

C40   1     0.51901  0.42486  0.30259  11.00000  0.02267  0.02201  0.01712 =
 -0.00335 -0.00497 -0.00279 
AFIX 137
H40a  2     0.48743  0.44483  0.33472  11.00000 -1.50000 
H40b  2     0.52659  0.39867  0.34910  11.00000 -1.50000 
H40c  2     0.55817  0.44186  0.29283  11.00000 -1.50000 
AFIX 0

C9    1     0.24371  0.70294 -0.58517  11.00000  0.02791  0.02828  0.03312 =
 0.01413 -0.00322 -0.00309 
AFIX 43
H9    2     0.24515  0.72383 -0.64264  11.00000 -1.20000 
AFIX 0

O0aa  5     0.92603  0.31833  0.16949  11.00000  0.11891  0.08888  0.06066 =
 0.00367 -0.03212  0.00933 
C1aa  1     0.95742  0.28934  0.33185  11.00000  0.09890  0.07011  0.04748 =
 0.00438 -0.00111  0.01639 
AFIX 23
H1aa  2     0.99830  0.28414  0.36705  11.00000 -1.20000 
H1ab  2     0.92650  0.26733  0.36037  11.00000 -1.20000 
AFIX 0
C75   1     0.93583  0.33685  0.34880  11.00000  0.07385  0.06312  0.05817 =
 -0.00393 -0.01581  0.00793 
AFIX 23
H75a  2     0.90864  0.33922  0.41215  11.00000 -1.20000 
H75b  2     0.97169  0.35805  0.35643  11.00000 -1.20000 
AFIX 0
C76   1     0.90071  0.34586  0.25194  11.00000  0.06922  0.09589  0.07372 =
 0.00486 -0.01295  0.02467 
AFIX 23
H76a  2     0.90412  0.37852  0.23281  11.00000 -1.20000 
H76b  2     0.85583  0.33849  0.26263  11.00000 -1.20000 
AFIX 0
C0aa  1     0.96350  0.28426  0.21444  11.00000  0.08261  0.06626  0.05520 =
 -0.00314  0.00673  0.00124 
AFIX 23
H0aa  2     0.94894  0.25371  0.19177  11.00000 -1.20000 
H0ab  2     1.00777  0.28807  0.19244  11.00000 -1.20000 
AFIX 0

H     2     0.25943  0.50470 -0.36598  11.00000  0.02385 

Ha    2     0.48982  0.32702  0.17062  11.00000  0.03609 

PART -1
AFIX 6
O1aa  5     0.08068  0.45580 -0.82546  21.00000  0.13766 
C8ba  1     0.09874  0.42710 -0.91320  21.00000  0.05274 
C9ba  1     0.13022  0.38484 -0.86489  21.00000  0.14939 
C0ca  1     0.09465  0.38026 -0.75933  21.00000  0.09752 
C1ca  1     0.08605  0.43044 -0.72787  21.00000  0.20652 
AFIX 0
PART 0
PART 1
C2A   1     0.12253  0.39434 -0.76371 -21.00000  0.04072 
C8A   1     0.11578  0.38473 -0.88292 -21.00000  0.04569 
C7A   1     0.05401  0.39766 -0.91342 -21.00000  0.06234 
O6A   5     0.03370  0.43125 -0.83920 -21.00000  0.07630 
C5A   1     0.07538  0.43215 -0.75026 -21.00000  0.05660 

PART 0
PART -1
AFIX 6
O2aa  5     0.45841  0.07491  0.14329  31.00000  0.05415 
C77   1     0.44998  0.02608  0.14039  31.00000  0.07576 
C79   1     0.38852  0.05774  0.00121  31.00000  0.08912 
C80   1     0.41541  0.09620  0.07014  31.00000  0.06942 
AFIX 0
PART 0
PART 1
C83   1     0.39115  0.05408 -0.06520 -31.00000  0.09450 
C84   1     0.38796  0.01358  0.00874 -31.00000  0.08694 
O9A   5     0.38751  0.03277  0.10337 -31.00000  0.08450 
C81   1     0.41245  0.07905  0.09789 -31.00000  0.06904 
C82   1     0.43556  0.08442 -0.01533 -31.00000  0.09785 
PART 0
PART -1
C78   1     0.42836  0.01350  0.04070  0.38403  0.06531 
HKLF 4

END
Q1 1 0.416667 0.022222 0.1 11 0.05 0.41
Q2 1 0.888889 0.311111 0.225 11 0.05 0.39
Q3 1 0.083333 0.388889 -0.875 11 0.05 0.37
Q4 1 0.041667 0.422222 -0.75 11 0.05 0.33
Q5 1 0.986111 0.333333 0.375 11 0.05 0.33
Q6 1 0 0.5 -0.4 11 0.05 0.32
Q7 1 0.361111 0.066667 -0.05 11 0.05 0.31
Q8 1 0.111111 0.366667 -0.7 11 0.05 0.31
Q9 1 0.375 0.1 0.125 11 0.05 0.3
Q10 1 0.472222 0.066667 0.1 11 0.05 0.3
Q11 1 0.347222 0.033333 0.05 11 0.05 0.3
Q12 1 0.444444 0.077778 0.2 11 0.05 0.29
Q13 1 0.152778 0.4 -0.775 11 0.05 0.28
Q14 1 0.416667 0.033333 -0.05 11 0.05 0.28
Q15 1 0.430556 0.066667 -0.05 11 0.05 0.28
Q16 1 0.486111 0.088889 -0.025 11 0.05 0.28
Q17 1 0.125 0.355556 -0.9 11 0.05 0.28
Q18 1 0.138889 0.388889 -0.9 11 0.05 0.27
Q19 1 0.597222 0.433333 0 11 0.05 0.26
Q20 1 0.388889 0.022222 0.2 11 0.05 0.26

  REM The information below was added by Olex2.
  REM
  REM R1 = 0.0221 for 14381 Fo > 4sig(Fo) and 0.0252 for all 15037 data
  REM 990 parameters refined using 0 restraints
  REM Highest difference peak 0.4060, deepest hole -0.4220
  REM Mean Shift 0.0001, Max Shift 0.0008.

  REM +++ Tabular Listing of Refinement Information +++
  REM R1_all = 0.0252
  REM R1_gt = 0.0221
  REM wR_ref = 0.0509
  REM GOOF = 1.0574
  REM Shift_max = 0.0008
  REM Shift_mean = 0.0001
  REM Reflections_all = 15037
  REM Reflections_gt = 14381
  REM Parameters = 990
  REM Hole = -0.4220
  REM Peak = 0.4060
  REM Flack = -0.011(15)

  
;
_cod_data_source_file            c8sc02864h2.cif
_cod_data_source_block           mo_XY_595_2_0ma
_cod_original_cell_volume        7888(2)
_cod_database_code               1550242
_olex2_refinement_description
;
1. Fixed Uiso
 At 1.2 times of:
  All C(H) groups, All C(H,H) groups
 At 1.5 times of:
  All C(H,H,H) groups
2. Others
 Sof(C2A)=Sof(C8A)=Sof(C7A)=Sof(O6A)=Sof(C5A)=1-FVAR(1)
 Sof(O1aa)=Sof(C8ba)=Sof(C9ba)=Sof(C0ca)=Sof(C1ca)=FVAR(1)
 Sof(C83)=Sof(C84)=Sof(O9A)=Sof(C81)=Sof(C82)=1-FVAR(2)
 Sof(O2aa)=Sof(C77)=Sof(C79)=Sof(C80)=FVAR(2)
3.a Free rotating group:
 O1aa(C8ba,C9ba,C0ca,C1ca), O2aa(C77,C79,C80)
3.b Ternary CH refined with riding coordinates:
 C50(H50), C13(H13), C66(H66), C42(H42), C21(H21), C49(H49), C14(H14),
 C65(H65), C6(H6), C30(H30), C5(H5), C58(H58), C41(H41), C57(H57), C22(H22),
 C29(H29), C2(H2), C3(H3), C38(H38), C39(H39)
3.c Secondary CH2 refined with riding coordinates:
 C1aa(H1aa,H1ab), C75(H75a,H75b), C76(H76a,H76b), C0aa(H0aa,H0ab)
3.d Aromatic/amide H refined with riding coordinates:
 C35(H35), C26(H26), C53(H53), C63(H63), C10(H10), C46(H46), C55(H55),
 C45(H45), C27(H27), C54(H54), C69(H69), C8(H8), C52(H52), C33(H33), C71(H71),
 C19(H19), C61(H61), C25(H25), C17(H17), C47(H47), C70(H70), C44(H44), C18(H18),
  C68(H68), C11(H11), C32(H32), C34(H34), C62(H62), C60(H60), C16(H16),
 C24(H24), C9(H9)
3.e Idealised Me refined as rotating group:
 C1(H1a,H1b,H1c), C37(H37a,H37b,H37c), C4(H4a,H4b,H4c), C40(H40a,H40b,H40c)
;
_iucr_refine_fcf_details
;
data_mo_XY_595_2_0ma_CCDC1
_computing_structure_refinement   'olex2.refine (Bourhis et al., 2015)'
_shelx_refln_list_code            4
loop_
  _space_group_symop_id
  _space_group_symop_operation_xyz
  1  x,y,z
  2  x+1/2,-y+1/2,-z
  3  -x+1/2,y+1/2,-z
  4  -x,-y,z

_space_group_crystal_system       orthorhombic
_space_group_IT_number            18
_space_group_name_H-M_alt         'P 21 21 2'
_space_group_name_Hall            ' P 2 2ab'
_symmetry_space_group_name_H-M    'P 21 21 2'
_symmetry_space_group_name_Hall   ' P 2 2ab'
_symmetry_Int_Tables_number       18
_cell_length_a                    21.316(4)
_cell_length_b                    29.316(6)
_cell_length_c                    12.6238(19)
_cell_angle_alpha                 90
_cell_angle_beta                  90
_cell_angle_gamma                 90
_cell_volume                      7888(2)
loop_
  _refln_index_h
  _refln_index_k
  _refln_index_l
  _refln_F_squared_calc
  _refln_F_squared_meas
  _refln_F_squared_sigma
  _refln_F_squared_weight
  _refln_observed_status
-25 -9 -1 1118.870 1350.800 178.969 74.133 o
-25 -8 -2 1429.380 1467.810 271.938 35.893 o
-25 -8 -1 14310.500 14396.400 387.072 8.725 o
-25 -7 -3 3814.830 3551.380 724.116 5.489 o
-25 -7 -2 1411.250 1424.990 187.182 66.331 o
-25 -7 -1 10915.900 10690.800 252.376 15.493 o
-25 -6 -3 1343.800 1372.920 213.098 54.670 o
-25 -6 -2 1896.770 1721.080 176.672 66.530 o
-25 -6 -1 306.539 424.617 153.577 117.182 o
-25 -5 -3 4393.670 4272.630 186.084 40.867 o
-25 -5 -2 1168.450 1101.400 191.717 67.127 o
-25 -5 -1 1409.930 1324.050 130.922 109.483 o
-25 -4 -3 1336.150 1331.590 230.224 48.264 o
-25 -4 -2 2735.340 2869.850 152.949 65.092 o
-25 -4 -1 18122.300 17633.900 765.922 3.521 o
-25 -3 -4 3955.940 5170.660 486.761 11.040 o
-25 -3 -3 14995.700 14866.300 378.150 8.574 o
-25 -3 -2 1129.120 1006.220 127.921 123.760 o
-25 -3 -1 12752.300 12735.200 454.137 8.158 o
-25 -2 -4 1396.200 1194.850 163.956 82.161 o
-25 -2 -3 111.074 137.452 138.605 152.470 o
-25 -2 -2 1179.380 1240.140 154.807 92.045 o
-25 -2 -1 10662.800 9766.990 426.775 9.946 o
-25 -1 -4 521.076 189.805 171.202 94.670 o
-25 -1 -3 635.890 589.875 156.269 105.360 o
-25 -1 -2 1143.290 1182.660 124.202 125.664 o
-25 -1 -1 183.382 43.285 124.526 185.577 o
-24 -13 -2 4173.790 4018.290 665.655 6.367 o
-24 -13 -1 1575.790 1258.150 172.160 74.274 o
-24 -12 -2 1330.770 1744.300 192.726 62.848 o
-24 -12 -1 5030.690 4863.980 182.549 37.870 o
-24 -11 -3 8689.490 8177.740 207.450 22.054 o
-24 -11 -2 3448.260 3864.400 176.759 48.498 o
-24 -11 -1 4077.220 4538.030 198.337 39.128 o
-24 -10 -4 5256.720 5101.480 209.734 32.475 o
-24 -10 -3 799.763 896.993 153.639 102.365 o
-24 -10 -2 1412.440 1246.730 134.126 107.015 o
-24 -10 -1 8984.120 9109.100 187.702 22.042 o
-24 -9 -4 2694.470 2496.520 167.834 60.831 o
-24 -9 -3 1.700 137.923 184.306 89.231 o
-24 -9 -2 4995.490 5221.460 156.138 41.914 o
-24 -9 -1 176.106 234.328 140.027 145.579 o
-24 -8 -4 6364.430 6544.810 222.174 26.582 o
-24 -8 -3 1274.020 1290.500 143.658 100.046 o
-24 -8 -2 126.906 42.698 117.401 211.175 o
-24 -8 -1 2372.230 2218.890 164.910 65.947 o
-24 -7 -5 2452.260 2721.460 199.976 49.929 o
-24 -7 -4 7256.640 7522.600 198.984 25.931 o
-24 -7 -3 2135.200 2398.530 145.962 77.281 o
-24 -7 -2 13543.300 13895.100 219.297 13.015 o
-24 -7 -1 4586.240 4116.650 158.038 46.295 o
-24 -6 -5 348.862 161.836 160.122 110.382 o
-24 -6 -4 5188.640 5429.810 226.686 29.882 o
-24 -6 -3 9429.790 8836.830 300.462 15.523 o
-24 -6 -2 6004.360 5989.480 256.259 24.316 o
-24 -6 -1 3064.000 2911.410 175.897 53.809 o
-24 -5 -5 9908.460 10483.300 292.941 14.790 o
-24 -5 -4 10836.400 10879.800 226.569 16.511 o
-24 -5 -3 1414.020 1394.110 114.839 126.340 o
-24 -5 -2 530.759 566.742 120.596 164.783 o
-24 -5 -1 3038.030 3089.620 119.904 75.118 o
-24 -4 -5 2298.250 2635.510 168.787 63.043 o
-24 -4 -4 1192.020 1325.420 156.098 90.124 o
-24 -4 -3 7023.650 6827.300 259.760 21.786 o
-24 -4 -2 1848.050 2030.550 112.504 108.974 o
-24 -4 -1 6380.610 6405.750 174.911 31.914 o
-24 -3 -5 3485.070 3597.890 177.730 48.758 o
-24 -3 -4 2130.110 2307.710 129.827 87.841 o
-24 -3 -3 2008.040 2134.690 178.381 63.073 o
-24 -3 -2 13270.000 12930.000 422.944 8.601 o
-24 -3 -1 4625.440 4379.860 134.853 50.483 o
-24 -2 -5 4993.740 4937.270 177.474 38.747 o
-24 -2 -4 4140.570 3450.320 208.684 38.797 o
-24 -2 -3 639.743 465.256 112.568 180.019 o
-24 -2 -2 28.680 191.526 133.363 166.519 o
-24 -2 -1 628.768 706.707 115.784 167.213 o
-24 -1 -5 248.180 452.939 116.196 193.514 o
-24 -1 -4 1170.270 815.012 166.676 85.379 o
-24 -1 -3 1723.150 1768.920 135.825 94.592 o
-24 -1 -2 2179.700 1967.430 114.008 101.194 o
-24 -1 -1 2546.720 2660.570 107.467 91.980 o
-23 -16 -2 1108.880 688.013 280.841 35.486 o
-23 -16 -1 1719.660 1921.230 195.191 58.373 o
-23 -15 -3 1170.670 806.061 184.288 72.863 o
-23 -15 -2 1158.290 1046.080 167.525 83.400 o
-23 -15 -1 781.135 821.134 169.935 87.770 o
-23 -14 -3 3790.470 3765.510 174.501 47.524 o
-23 -14 -2 10172.600 10592.000 297.733 14.345 o
-23 -14 -1 71.757 83.681 184.469 88.542 o
-23 -13 -4 3604.410 3388.520 191.246 45.101 o
-23 -13 -3 3298.040 3316.260 151.097 59.158 o
-23 -13 -2 1548.190 1570.620 130.261 104.537 o
-23 -13 -1 2704.840 2920.900 163.927 60.648 o
-23 -12 -5 2533.670 2940.440 417.064 15.580 o
-23 -12 -4 3589.860 4027.840 211.096 39.233 o
-23 -12 -3 3614.770 3772.980 146.238 56.565 o
-23 -12 -2 2316.780 2405.080 135.260 81.081 o
-23 -12 -1 10643.100 10881.400 237.444 16.265 o
-23 -11 -5 1400.350 1286.790 195.104 62.826 o
-23 -11 -4 907.845 998.603 157.138 96.139 o
-23 -11 -3 10927.500 11176.200 294.261 13.699 o
-23 -11 -2 3766.830 3728.940 147.911 55.117 o
-23 -11 -1 7243.170 7119.170 170.097 29.053 o
-23 -10 -5 4121.450 4046.680 184.720 42.801 o
-23 -10 -4 3627.610 3798.340 162.990 51.466 o
-23 -10 -3 3419.390 3549.510 144.067 59.647 o
-23 -10 -2 200.354 195.601 118.310 198.243 o
-23 -10 -1 15245.900 15272.000 235.771 11.086 o
-23 -9 -6 2719.690 3191.310 204.269 46.161 o
-23 -9 -5 1488.800 1228.540 151.307 90.328 o
-23 -9 -4 5826.920 5802.400 184.236 33.327 o
-23 -9 -3 5203.700 5490.320 166.630 38.656 o
-23 -9 -2 852.788 956.795 118.858 146.683 o
-23 -9 -1 1895.910 1995.770 137.432 88.720 o
-23 -8 -6 4238.580 4177.780 200.444 38.781 o
-23 -8 -5 1605.980 1716.230 138.125 95.212 o
-23 -8 -4 755.097 736.001 126.096 142.126 o
-23 -8 -3 2089.790 2156.950 132.970 87.554 o
-23 -8 -2 13542.800 13399.400 225.715 13.042 o
-23 -8 -1 76.510 179.588 109.308 240.114 o
-23 -7 -6 397.658 684.373 181.604 83.563 o
-23 -7 -5 187.588 210.876 130.570 165.761 o
-23 -7 -4 11049.500 11062.000 229.101 16.101 o
-23 -7 -3 939.672 964.756 115.243 149.249 o
-23 -7 -2 453.380 303.556 102.054 228.676 o
-23 -7 -1 665.400 843.201 130.161 136.718 o
-23 -6 -6 13074.500 12218.200 421.804 8.803 o
-23 -6 -5 2869.970 2680.140 176.993 55.434 o
-23 -6 -4 3113.740 2937.570 142.046 65.762 o
-23 -6 -3 4272.000 4302.180 147.189 50.069 o
-23 -6 -2 2205.070 2447.010 110.629 98.333 o
-23 -6 -1 92.994 194.144 91.379 330.350 o
-23 -5 -6 437.024 454.514 152.564 115.318 o
-23 -5 -5 3646.340 4000.980 153.669 53.342 o
-23 -5 -4 7739.410 7482.690 271.612 19.541 o
-23 -5 -3 2114.590 2420.490 116.050 96.522 o
-23 -5 -2 1206.290 1259.180 88.038 177.499 o
-23 -5 -1 2219.370 2153.530 98.706 110.065 o
-23 -4 -6 1922.300 1874.550 146.351 83.118 o
-23 -4 -5 2530.120 2301.930 152.216 70.130 o
-23 -4 -4 216.382 70.825 114.814 212.592 o
-23 -4 -3 4257.490 4038.670 161.299 47.536 o
-23 -4 -2 8444.870 8319.070 200.499 22.811 o
-23 -4 -1 319.861 309.210 91.567 286.064 o
-23 -3 -7 593.749 172.556 212.525 63.097 o
-23 -3 -6 146.412 28.603 136.156 158.514 o
-23 -3 -5 4181.720 4143.930 155.143 49.154 o
-23 -3 -4 2051.180 2223.020 126.072 92.365 o
-23 -3 -3 1488.290 1628.630 98.464 140.212 o
-23 -3 -2 1578.250 1665.580 97.350 137.634 o
-23 -3 -1 358.881 562.352 106.171 212.288 o
-23 -2 -7 396.330 181.236 204.709 69.128 o
-23 -2 -6 3954.190 4420.730 164.446 47.395 o
-23 -2 -5 3412.630 3592.650 142.306 60.116 o
-23 -2 -4 4254.970 4471.570 145.195 50.130 o
-23 -2 -3 1579.980 1327.700 120.448 116.363 o
-23 -2 -2 7677.780 7823.710 192.941 25.265 o
-23 -2 -1 3673.750 3754.910 115.484 65.938 o
-23 -1 -7 5358.310 5343.760 182.732 35.812 o
-23 -1 -6 1221.390 1227.160 167.508 81.526 o
-23 -1 -5 2252.710 2261.820 156.524 71.007 o
-23 -1 -4 6094.270 5710.570 141.535 38.345 o
-23 -1 -3 10922.300 10419.400 222.616 16.825 o
-23 -1 -2 7119.160 6952.070 151.568 31.407 o
-23 -1 -1 8858.330 8894.910 360.649 13.236 o
-22 -18 -2 1054.690 752.245 146.707 106.293 o
-22 -18 -1 825.265 609.005 212.961 59.994 o
-22 -17 -3 3106.020 3208.660 227.877 38.670 o
-22 -17 -2 3469.190 3032.290 189.543 47.064 o
-22 -17 -1 2466.360 2419.060 197.691 51.424 o
-22 -16 -4 5650.690 5638.650 200.271 31.940 o
-22 -16 -3 1032.460 1251.610 158.196 91.272 o
-22 -16 -2 1683.050 1878.080 159.372 77.699 o
-22 -16 -1 4774.060 4854.890 238.994 29.846 o
-22 -15 -5 523.716 342.127 225.028 56.625 o
-22 -15 -4 4840.010 4682.180 178.664 39.648 o
-22 -15 -3 4895.670 5183.520 201.277 34.700 o
-22 -15 -2 1140.370 1540.470 135.418 108.361 o
-22 -15 -1 2128.320 2118.070 152.328 75.393 o
-22 -14 -5 7293.090 6929.500 212.481 25.266 o
-22 -14 -4 1104.340 1005.290 170.637 81.961 o
-22 -14 -3 2433.900 2456.510 148.511 72.171 o
-22 -14 -2 4177.390 4022.320 142.822 52.667 o
-22 -14 -1 2403.710 2767.640 172.859 59.979 o
-22 -13 -6 11313.800 11031.700 430.456 9.393 o
-22 -13 -5 3057.940 3230.690 164.302 56.710 o
-22 -13 -4 112.830 172.765 153.454 124.904 o
-22 -13 -3 699.045 666.703 132.113 135.349 o
-22 -13 -2 7497.050 7239.700 162.391 28.943 o
-22 -13 -1 1742.720 1854.500 142.055 88.830 o
-22 -12 -6 927.512 1074.310 175.521 79.996 o
-22 -12 -5 1103.580 1164.900 190.569 68.054 o
-22 -12 -4 13754.800 13371.500 271.642 11.764 o
-22 -12 -3 3140.640 3113.060 134.220 67.783 o
-22 -12 -2 2710.980 2729.740 132.549 75.422 o
-22 -12 -1 1819.880 1823.760 113.663 111.043 o
-22 -11 -6 2171.070 2030.060 177.839 62.451 o
-22 -11 -5 159.600 411.619 176.634 92.836 o
-22 -11 -4 3084.030 3042.530 151.675 61.803 o
-22 -11 -3 3852.710 3804.740 135.968 57.714 o
-22 -11 -2 4095.830 3915.210 124.817 58.523 o
-22 -11 -1 4634.480 4735.970 134.200 49.449 o
-22 -10 -7 3688.000 3428.060 536.599 9.568 o
-22 -10 -6 1613.710 1621.980 151.287 85.673 o
-22 -10 -5 884.026 917.647 141.332 114.313 o
-22 -10 -4 246.974 213.936 162.161 109.272 o
-22 -10 -3 6023.420 6180.850 207.159 29.398 o
-22 -10 -2 1102.810 1086.700 106.244 155.112 o
-22 -10 -1 7866.200 8208.350 277.675 18.580 o
-22 -9 -7 1172.160 1445.980 184.533 69.768 o
-22 -9 -6 5943.750 6288.810 178.983 32.906 o
-22 -9 -5 16339.900 16000.300 246.358 10.108 o
-22 -9 -4 1003.050 1026.390 128.366 126.407 o
-22 -9 -3 5552.150 5450.780 194.411 33.301 o
-22 -9 -2 1272.900 1274.950 116.192 130.757 o
-22 -9 -1 2547.560 2554.220 114.497 88.716 o
-22 -8 -7 4391.720 4588.660 233.769 31.851 o
-22 -8 -6 1457.010 1437.950 138.281 100.259 o
-22 -8 -5 832.817 834.495 131.335 129.940 o
-22 -8 -4 1096.900 1192.330 126.918 123.369 o
-22 -8 -3 3346.920 3416.240 144.145 60.766 o
-22 -8 -2 104.710 86.929 96.069 307.902 o
-22 -8 -1 3258.140 2998.240 108.291 77.929 o
-22 -7 -7 6022.360 5678.870 272.467 22.967 o
-22 -7 -6 2694.780 2569.340 145.126 70.447 o
-22 -7 -5 2917.720 2947.180 171.027 56.330 o
-22 -7 -4 4493.280 4579.500 143.759 48.690 o
-22 -7 -3 2914.600 3123.890 142.947 66.409 o
-22 -7 -2 6157.080 6088.100 148.283 36.460 o
-22 -7 -1 360.829 454.191 77.090 346.765 o
-22 -6 -7 2834.220 2445.470 150.868 67.048 o
-22 -6 -6 7325.440 7061.850 300.390 18.312 o
-22 -6 -5 16683.900 16947.400 334.916 8.346 o
-22 -6 -4 9942.040 9911.010 197.636 19.447 o
-22 -6 -3 1653.220 1672.580 105.039 126.211 o
-22 -6 -2 757.651 564.932 90.262 229.284 o
-22 -6 -1 162.973 138.093 77.235 432.002 o
-22 -5 -7 15080.300 14708.400 280.661 10.452 o
-22 -5 -6 6067.290 6197.190 174.609 33.218 o
-22 -5 -5 685.241 961.693 112.019 166.248 o
-22 -5 -4 10358.900 9922.760 209.880 18.316 o
-22 -5 -3 5313.460 5825.610 144.816 40.993 o
-22 -5 -2 6348.520 6344.250 159.646 33.916 o
-22 -5 -1 512.319 493.257 84.811 279.695 o
-22 -4 -8 528.196 277.917 250.262 46.442 o
-22 -4 -7 532.100 1013.840 216.282 58.898 o
-22 -4 -6 17730.900 17072.400 384.047 7.297 o
-22 -4 -5 8623.390 9122.200 223.973 20.393 o
-22 -4 -4 2039.380 2116.380 105.861 109.106 o
-22 -4 -3 968.448 1095.990 92.718 187.377 o
-22 -4 -2 837.372 785.497 77.994 249.135 o
-22 -4 -1 1127.300 1176.920 86.437 187.783 o
-22 -3 -8 5492.050 5324.000 313.777 20.198 o
-22 -3 -7 11206.700 10969.900 267.247 14.551 o
-22 -3 -6 771.643 744.476 134.871 127.881 o
-22 -3 -5 5183.860 5144.150 149.003 42.480 o
-22 -3 -4 7169.540 6982.190 159.322 30.463 o
-22 -3 -3 4585.600 4505.790 121.565 53.323 o
-22 -3 -2 1640.000 1489.120 97.045 138.964 o
-22 -3 -1 1466.310 1686.180 108.809 127.465 o
-22 -2 -8 9869.160 9431.410 247.628 17.372 o
-22 -2 -7 10122.700 10501.300 300.560 14.303 o
-22 -2 -6 1759.500 1602.100 152.264 83.137 o
-22 -2 -5 2658.020 2743.040 126.021 79.308 o
-22 -2 -4 3914.580 3862.680 114.046 63.486 o
-22 -2 -3 12281.000 12801.400 203.376 14.949 o
-22 -2 -2 1607.030 1687.680 89.327 145.942 o
-22 -2 -1 1227.350 1013.490 92.621 174.824 o
-22 -1 -8 868.186 1243.400 143.726 108.349 o
-22 -1 -7 837.073 898.549 142.494 114.194 o
-22 -1 -6 12394.400 11620.800 222.175 14.805 o
-22 -1 -5 8653.860 8152.500 181.510 23.874 o
-22 -1 -4 1668.380 1691.560 97.532 133.804 o
-22 -1 -3 1853.310 1777.660 101.727 122.161 o
-22 -1 -2 690.637 681.777 100.957 199.412 o
-22 -1 -1 5369.200 5265.160 224.432 29.945 o
-21 -21 -1 5149.940 7466.750 1087.010 2.467 o
-21 -20 -2 554.643 704.457 175.990 86.272 o
-21 -20 -1 233.832 -126.078 153.291 124.302 o
-21 -19 -3 4426.590 4414.400 275.008 26.233 o
-21 -19 -2 2451.530 2537.560 212.746 46.389 o
-21 -19 -1 396.602 382.579 153.091 116.303 o
-21 -18 -4 1361.850 1267.310 208.074 57.025 o
-21 -18 -3 5983.740 5869.410 237.465 26.407 o
-21 -18 -2 1486.590 1490.160 149.828 89.566 o
-21 -18 -1 837.571 626.642 142.822 116.917 o
-21 -17 -5 11325.200 11418.000 301.068 13.100 o
-21 -17 -4 1301.060 1342.410 159.825 85.505 o
-21 -17 -3 263.355 77.369 128.314 170.753 o
-21 -17 -2 1164.430 1290.550 131.596 114.793 o
-21 -17 -1 865.911 1057.210 133.393 123.062 o
-21 -16 -5 2406.020 2542.920 171.800 61.258 o
-21 -16 -4 4885.050 5304.310 200.578 34.654 o
-21 -16 -3 2707.270 2370.980 155.203 66.662 o
-21 -16 -2 1173.280 1228.740 131.814 115.073 o
-21 -16 -1 98.878 315.788 163.667 109.220 o
-21 -15 -6 5070.410 4903.770 203.847 34.189 o
-21 -15 -5 3034.700 3463.630 169.257 54.407 o
-21 -15 -4 1303.140 1299.130 131.127 111.960 o
-21 -15 -3 1165.910 1381.280 127.194 118.705 o
-21 -15 -2 7935.390 8047.980 204.618 23.653 o
-21 -15 -1 3237.910 3041.190 131.086 68.411 o
-21 -14 -6 1180.150 1126.080 193.053 66.188 o
-21 -14 -5 2905.940 2801.670 147.171 66.270 o
-21 -14 -4 9885.630 9384.150 245.832 17.467 o
-21 -14 -3 1461.400 1396.800 125.510 113.077 o
-21 -14 -2 802.815 539.337 124.814 146.110 o
-21 -14 -1 672.082 685.005 128.882 141.193 o
-21 -13 -7 5209.520 5296.260 243.199 27.873 o
-21 -13 -6 2251.680 2228.660 181.161 59.648 o
-21 -13 -5 597.276 840.447 132.611 135.026 o
-21 -13 -4 5038.620 5529.590 159.190 40.500 o
-21 -13 -3 5018.770 5127.070 145.366 43.986 o
-21 -13 -2 4917.270 4797.260 143.021 45.824 o
-21 -13 -1 1492.790 1561.320 115.530 120.916 o
-21 -12 -7 472.086 430.938 169.146 95.669 o
-21 -12 -6 8638.230 8300.130 221.482 21.123 o
-21 -12 -5 4436.050 4167.590 153.240 48.067 o
-21 -12 -4 423.694 426.233 117.978 179.542 o
-21 -12 -3 1284.460 1187.790 115.741 132.360 o
-21 -12 -2 6300.720 6275.390 170.294 32.900 o
-21 -12 -1 6137.650 6294.580 145.520 36.496 o
-21 -11 -7 881.595 692.194 155.766 100.520 o
-21 -11 -6 1407.820 1647.580 153.130 87.020 o
-21 -11 -5 4268.240 4376.960 184.362 41.527 o
-21 -11 -4 1947.380 2098.610 146.778 81.025 o
-21 -11 -3 2905.590 2931.410 132.432 72.029 o
-21 -11 -2 632.110 558.036 98.869 213.943 o
-21 -11 -1 534.299 518.300 84.552 276.350 o
-21 -10 -8 760.885 1613.370 560.087 9.516 o
-21 -10 -7 1561.880 1652.010 165.970 76.196 o
-21 -10 -6 4407.320 4216.200 160.251 46.488 o
-21 -10 -5 15949.000 15188.600 236.346 10.700 o
-21 -10 -4 1024.100 814.696 128.279 128.969 o
-21 -10 -3 4365.800 4482.300 144.944 49.477 o
-21 -10 -2 3728.610 3592.250 115.291 66.270 o
-21 -10 -1 4761.910 4597.310 145.084 46.809 o
-21 -9 -8 10499.100 10309.800 270.947 15.284 o
-21 -9 -7 10833.700 10175.900 265.876 15.258 o
-21 -9 -6 68.136 -147.008 122.448 199.821 o
-21 -9 -5 1530.900 1814.060 127.650 104.781 o
-21 -9 -4 2548.110 2820.380 138.183 74.031 o
-21 -9 -3 14561.500 13789.000 218.993 12.330 o
-21 -9 -2 1631.790 1675.800 107.419 124.214 o
-21 -9 -1 5063.840 5204.770 144.986 43.633 o
-21 -8 -8 3549.500 3263.920 193.723 45.014 o
-21 -8 -7 3350.420 3747.750 192.780 45.056 o
-21 -8 -6 6077.990 5526.640 171.392 34.688 o
-21 -8 -5 11545.000 11794.600 293.205 13.085 o
-21 -8 -4 2293.350 2600.530 128.266 84.146 o
-21 -8 -3 4817.510 4764.990 156.211 43.833 o
-21 -8 -2 3164.200 3366.830 107.919 76.880 o
-21 -8 -1 1086.260 1055.090 88.988 189.084 o
-21 -7 -8 2064.120 1967.600 227.955 44.682 o
-21 -7 -7 1049.790 1001.990 147.786 102.838 o
-21 -7 -6 9123.580 9182.780 215.945 20.120 o
-21 -7 -5 10812.900 10684.900 215.810 17.080 o
-21 -7 -4 2776.810 3162.250 144.829 66.769 o
-21 -7 -3 1504.700 1917.880 102.515 129.823 o
-21 -7 -2 1320.940 1062.460 91.450 170.548 o
-21 -7 -1 1247.120 1286.470 78.556 191.681 o
-21 -6 -8 10368.900 9691.210 515.662 7.894 o
-21 -6 -7 9215.680 9169.050 300.292 15.571 o
-21 -6 -6 4564.290 4580.030 153.173 46.232 o
-21 -6 -5 849.118 681.005 109.821 169.595 o
-21 -6 -4 5694.340 5589.220 140.768 40.434 o
-21 -6 -3 2785.240 2861.040 108.179 85.900 o
-21 -6 -2 11863.200 11184.400 206.383 16.049 o
-21 -6 -1 4.510 1.946 72.270 583.203 o
-21 -5 -8 602.930 388.996 145.899 121.310 o
-21 -5 -7 3565.990 3559.420 210.467 40.318 o
-21 -5 -6 10421.500 10072.200 185.536 19.245 o
-21 -5 -5 6659.300 6546.450 149.200 33.750 o
-21 -5 -4 4299.230 4215.070 127.232 55.117 o
-21 -5 -3 35.743 205.914 91.753 336.926 o
-21 -5 -2 3106.470 3366.360 102.418 80.000 o
-21 -5 -1 25.780 -15.728 69.389 619.913 o
-21 -4 -8 5993.450 6147.760 191.043 31.458 o
-21 -4 -7 13667.600 13466.000 330.196 10.380 o
-21 -4 -6 2160.090 2410.270 133.765 84.120 o
-21 -4 -5 5873.680 5616.600 167.279 35.803 o
-21 -4 -4 23416.400 22805.900 271.787 6.151 o
-21 -4 -3 905.738 912.351 87.630 209.874 o
-21 -4 -2 2568.800 2715.720 89.036 102.110 o
-21 -4 -1 1503.310 1442.690 83.751 163.664 o
-21 -3 -9 6746.440 7904.850 737.633 4.941 o
-21 -3 -8 7639.060 7197.530 259.537 20.697 o
-21 -3 -7 3666.160 3687.520 168.319 50.081 o
-21 -3 -6 15508.700 15581.900 380.492 8.242 o
-21 -3 -5 4071.420 3875.730 123.553 59.246 o
-21 -3 -4 66.541 302.463 86.344 359.866 o
-21 -3 -3 5084.700 5146.030 141.469 44.312 o
-21 -3 -2 7659.470 7692.810 176.620 26.778 o
-21 -3 -1 3702.160 3528.970 105.141 70.305 o
-21 -2 -9 2134.940 1876.760 190.334 57.836 o
-21 -2 -8 463.306 574.918 144.916 123.884 o
-21 -2 -7 1271.040 1241.060 128.134 116.733 o
-21 -2 -6 13428.300 13347.100 241.708 12.738 o
-21 -2 -5 12195.500 11969.400 252.038 13.876 o
-21 -2 -4 7516.680 6840.950 165.336 29.146 o
-21 -2 -3 1267.430 1094.740 82.864 188.442 o
-21 -2 -2 6449.980 6157.860 152.277 34.774 o
-21 -2 -1 5948.370 5583.980 126.461 41.363 o
-21 -1 -9 170.107 -26.067 172.392 100.244 o
-21 -1 -8 7648.170 7445.420 280.048 19.103 o
-21 -1 -7 7361.510 6890.320 165.451 29.479 o
-21 -1 -6 1496.610 1508.490 104.744 134.197 o
-21 -1 -5 2256.860 2314.230 116.573 94.510 o
-21 -1 -4 7270.520 7067.840 185.892 27.578 o
-21 -1 -3 8326.120 8202.730 171.855 25.144 o
-21 -1 -2 715.694 843.030 92.193 215.387 o
-21 -1 -1 1200.330 1123.400 78.376 201.014 o
-20 -22 -2 2488.060 2282.780 176.100 59.831 o
-20 -22 -1 341.084 461.835 154.054 115.357 o
-20 -21 -3 544.285 342.363 177.971 86.959 o
-20 -21 -2 1098.090 1070.670 155.390 94.123 o
-20 -21 -1 1683.800 1757.860 144.074 88.970 o
-20 -20 -4 10978.000 10768.600 304.190 13.450 o
-20 -20 -3 3828.360 3895.610 221.493 36.546 o
-20 -20 -2 1492.950 1410.330 132.017 105.682 o
-20 -20 -1 1885.210 1382.880 171.037 71.216 o
-20 -19 -5 4403.590 4458.820 216.077 34.886 o
-20 -19 -4 652.727 735.203 202.780 66.233 o
-20 -19 -3 4116.280 4231.110 158.608 48.435 o
-20 -19 -2 4908.320 4937.260 180.770 38.502 o
-20 -19 -1 4075.190 4218.440 169.765 46.023 o
-20 -18 -6 6990.000 6832.820 319.396 17.516 o
-20 -18 -5 8471.720 8230.430 231.216 20.785 o
-20 -18 -4 4000.320 4018.100 171.292 46.562 o
-20 -18 -3 2644.120 2748.730 169.812 59.462 o
-20 -18 -2 274.574 239.385 117.603 194.380 o
-20 -18 -1 414.397 257.754 197.917 73.181 o
-20 -17 -6 2231.480 1975.010 194.938 55.063 o
-20 -17 -5 1322.870 1111.930 157.750 88.425 o
-20 -17 -4 721.029 480.698 140.161 125.262 o
-20 -17 -3 7502.160 7814.960 218.940 23.524 o
-20 -17 -2 402.964 451.475 124.342 165.016 o
-20 -17 -1 1130.920 1360.250 169.506 80.370 o
-20 -16 -7 10548.700 9948.250 341.734 12.641 o
-20 -16 -6 225.158 258.816 170.141 99.813 o
-20 -16 -5 3573.790 3954.070 167.277 50.128 o
-20 -16 -4 2976.210 3173.210 173.435 54.354 o
-20 -16 -3 3195.940 3044.140 130.661 69.007 o
-20 -16 -2 3915.730 3894.860 144.541 54.442 o
-20 -16 -1 2130.540 1991.160 129.884 90.315 o
-20 -15 -7 1446.320 1384.700 225.289 49.412 o
-20 -15 -6 5476.600 5326.390 204.125 32.340 o
-20 -15 -5 7668.140 7455.450 221.915 23.313 o
-20 -15 -4 9942.590 9460.430 200.199 19.630 o
-20 -15 -3 385.430 441.543 107.576 210.400 o
-20 -15 -2 2782.450 3031.240 149.580 65.340 o
-20 -15 -1 4491.700 4234.290 121.829 54.940 o
-20 -14 -7 3613.200 3883.330 181.772 46.273 o
-20 -14 -6 5148.070 4911.550 182.984 37.277 o
-20 -14 -5 574.832 600.112 119.414 164.529 o
-20 -14 -4 667.348 551.618 111.152 179.501 o
-20 -14 -3 1076.820 1229.080 119.368 133.418 o
-20 -14 -2 8200.500 8386.150 271.339 18.497 o
-20 -14 -1 1855.020 1872.020 107.781 115.004 o
-20 -13 -8 847.796 1171.780 203.660 62.770 o
-20 -13 -7 4059.920 4202.440 176.212 44.642 o
-20 -13 -6 1754.450 1628.670 142.300 90.209 o
-20 -13 -5 8250.950 7996.430 203.012 23.254 o
-20 -13 -4 8532.960 8369.200 179.262 24.050 o
-20 -13 -3 1679.110 1606.900 134.706 97.720 o
-20 -13 -2 4149.390 4325.890 139.249 52.747 o
-20 -13 -1 1401.710 1383.410 97.205 150.127 o
-20 -12 -8 1227.880 1431.990 184.654 69.267 o
-20 -12 -7 6709.480 6723.140 241.431 23.920 o
-20 -12 -6 2958.760 2676.410 173.621 56.053 o
-20 -12 -5 4386.430 4500.030 144.579 49.383 o
-20 -12 -4 463.582 507.331 105.472 208.764 o
-20 -12 -3 20297.700 19774.100 304.086 7.116 o
-20 -12 -2 8786.310 8617.110 201.801 21.906 o
-20 -12 -1 5297.550 5437.160 125.067 45.272 o
-20 -11 -8 1774.020 1599.760 239.937 42.944 o
-20 -11 -7 3358.040 3212.060 147.389 60.386 o
-20 -11 -6 1281.030 1502.640 130.214 111.107 o
-20 -11 -5 6437.300 6333.370 207.182 28.232 o
-20 -11 -4 2626.000 2588.350 121.183 83.422 o
-20 -11 -3 5279.810 5053.040 139.928 43.827 o
-20 -11 -2 1759.140 2027.720 110.359 113.072 o
-20 -11 -1 16555.400 16793.300 198.274 10.527 o
-20 -10 -8 6151.690 5824.350 220.932 27.932 o
-20 -10 -7 4518.080 4369.640 154.411 46.782 o
-20 -10 -6 4197.040 4243.740 146.458 50.898 o
-20 -10 -5 1751.690 1926.060 121.112 104.781 o
-20 -10 -4 6173.200 6100.900 195.003 30.553 o
-20 -10 -3 13279.400 13149.900 256.463 12.526 o
-20 -10 -2 1692.090 1453.240 106.305 126.968 o
-20 -10 -1 3635.040 3592.060 112.711 68.120 o
-20 -9 -9 4888.960 4935.070 262.805 26.451 o
-20 -9 -8 2665.660 2662.600 154.818 65.869 o
-20 -9 -7 5367.710 5864.010 169.787 36.819 o
-20 -9 -6 7854.070 7791.390 183.196 25.712 o
-20 -9 -5 12759.700 12654.100 203.255 14.583 o
-20 -9 -4 6940.180 6995.540 156.524 31.383 o
-20 -9 -3 1092.310 1068.760 99.745 167.368 o
-20 -9 -2 7228.770 7167.330 151.223 30.799 o
-20 -9 -1 8628.760 8487.540 202.033 22.256 o
-20 -8 -9 6364.130 6412.490 271.086 22.071 o
-20 -8 -8 1258.950 1460.870 165.261 81.275 o
-20 -8 -7 6005.290 5825.410 171.015 34.482 o
-20 -8 -6 12710.300 11988.700 303.567 11.964 o
-20 -8 -5 10006.200 9745.330 244.011 17.228 o
-20 -8 -4 7931.340 7895.330 173.114 26.225 o
-20 -8 -3 1869.730 2049.870 103.986 115.800 o
-20 -8 -2 6175.410 5970.070 144.735 37.075 o
-20 -8 -1 24.506 54.113 72.069 562.626 o
-20 -7 -9 1548.610 1591.880 221.980 49.652 o
-20 -7 -8 11624.200 12025.300 232.617 14.971 o
-20 -7 -7 16364.200 16619.200 351.160 8.262 o
-20 -7 -6 2276.990 2111.550 123.299 91.382 o
-20 -7 -5 1457.980 1654.280 115.055 121.119 o
-20 -7 -4 7886.680 8116.700 213.935 22.986 o
-20 -7 -3 4290.660 4238.700 122.273 56.347 o
-20 -7 -2 7690.740 7555.880 185.253 26.145 o
-20 -7 -1 3294.980 3575.790 97.122 78.041 o
-20 -6 -9 2108.840 1468.180 186.751 60.996 o
-20 -6 -8 4521.430 4628.930 155.176 45.902 o
-20 -6 -7 4343.640 4113.720 135.000 53.210 o
-20 -6 -6 6722.000 6424.570 149.949 33.661 o
-20 -6 -5 12381.200 12740.000 229.289 14.115 o
-20 -6 -4 5524.400 5354.440 175.753 36.275 o
-20 -6 -3 11972.400 11978.500 209.320 15.446 o
-20 -6 -2 407.573 411.947 80.823 320.665 o
-20 -6 -1 1847.500 1796.030 77.352 147.785 o
-20 -5 -9 1175.520 1071.450 165.198 84.809 o
-20 -5 -8 404.703 442.596 121.386 171.870 o
-20 -5 -7 668.551 373.285 107.583 193.514 o
-20 -5 -6 6684.200 6793.690 172.171 30.789 o
-20 -5 -5 6494.790 6861.650 154.625 33.170 o
-20 -5 -4 4384.740 4210.510 122.988 55.553 o
-20 -5 -3 1104.040 954.875 95.874 177.093 o
-20 -5 -2 299.116 178.263 67.111 478.867 o
-20 -5 -1 5752.470 5766.250 127.641 41.694 o
-20 -4 -9 9802.120 9160.640 541.068 7.551 o
-20 -4 -8 3834.710 3386.060 202.460 41.417 o
-20 -4 -7 3682.680 3698.190 124.932 63.041 o
-20 -4 -6 7586.710 7375.820 161.936 28.576 o
-20 -4 -5 866.390 878.854 126.902 134.791 o
-20 -4 -4 366.203 419.225 94.944 258.585 o
-20 -4 -3 4073.520 3873.420 115.242 61.604 o
-20 -4 -2 7391.930 7055.170 152.001 30.419 o
-20 -4 -1 1433.270 1367.760 70.169 191.319 o
-20 -3 -9 1948.670 1862.810 187.754 60.277 o
-20 -3 -8 2677.280 3227.140 152.423 64.228 o
-20 -3 -7 4652.000 4715.620 174.203 41.201 o
-20 -3 -6 3244.530 3181.950 123.419 70.664 o
-20 -3 -5 1687.880 1781.060 111.090 117.363 o
-20 -3 -4 15168.400 14938.000 284.590 10.272 o
-20 -3 -3 113.366 95.477 72.707 504.970 o
-20 -3 -2 5942.490 5840.580 119.457 41.747 o
-20 -3 -1 1259.660 1389.460 71.251 200.940 o
-20 -2 -9 5501.830 5574.200 218.822 29.980 o
-20 -2 -8 6260.890 6315.150 160.493 34.154 o
-20 -2 -7 4074.370 3879.310 132.215 56.773 o
-20 -2 -6 4648.360 4423.560 122.753 52.902 o
-20 -2 -5 3386.920 3164.100 136.035 64.433 o
-20 -2 -4 7960.420 7483.390 152.057 28.305 o
-20 -2 -3 7867.880 7839.140 143.776 28.734 o
-20 -2 -2 6331.360 6350.370 147.028 35.487 o
-20 -2 -1 8253.620 7892.440 178.495 25.134 o
-20 -1 -9 1891.110 1749.300 200.496 55.609 o
-20 -1 -8 3175.550 3248.280 118.442 73.108 o
-20 -1 -7 3447.000 3642.160 134.513 62.247 o
-20 -1 -6 4723.870 4344.670 121.008 53.037 o
-20 -1 -5 9288.350 8864.940 205.939 20.686 o
-20 -1 -4 3356.260 3333.420 106.179 75.303 o
-20 -1 -3 207.459 172.260 70.668 477.102 o
-20 -1 -2 11786.000 11436.600 184.080 16.762 o
-20 -1 -1 15536.600 15688.000 288.097 9.848 o
-19 -24 -2 2516.960 3047.440 499.157 11.257 o
-19 -24 -1 622.614 791.379 231.321 52.241 o
-19 -23 -3 2863.000 3065.800 194.701 48.566 o
-19 -23 -2 16513.100 15871.000 307.621 9.046 o
-19 -23 -1 951.837 752.665 199.726 65.669 o
-19 -22 -4 4336.720 4292.470 271.311 26.963 o
-19 -22 -3 1566.830 1638.760 169.543 74.005 o
-19 -22 -2 4028.970 3972.240 144.411 53.423 o
-19 -22 -1 1261.090 1199.110 175.332 75.822 o
-19 -21 -5 2327.110 2225.170 196.207 53.278 o
-19 -21 -4 3724.880 3716.650 193.512 43.260 o
-19 -21 -3 4174.410 4329.650 173.689 44.356 o
-19 -21 -2 5725.480 5705.350 232.629 27.639 o
-19 -21 -1 5311.480 5402.770 181.562 36.051 o
-19 -20 -6 2245.750 2361.710 218.695 45.891 o
-19 -20 -5 351.770 345.708 176.044 91.222 o
-19 -20 -4 2684.680 2917.260 209.431 45.473 o
-19 -20 -3 2784.640 2720.060 160.715 62.098 o
-19 -20 -2 8501.520 8733.760 290.311 16.916 o
-19 -20 -1 3801.070 4018.240 121.308 61.633 o
-19 -19 -6 5993.700 5993.370 256.068 24.349 o
-19 -19 -5 1023.990 985.395 164.600 87.879 o
-19 -19 -4 6909.630 7071.300 282.133 20.046 o
-19 -19 -3 2002.260 2312.540 224.753 45.194 o
-19 -19 -2 2170.370 2406.050 130.009 86.351 o
-19 -19 -1 3974.560 4071.130 111.936 62.550 o
-19 -18 -7 5710.930 5769.400 299.987 20.856 o
-19 -18 -6 703.735 595.876 216.466 59.029 o
-19 -18 -5 3123.200 3103.920 162.490 57.325 o
-19 -18 -4 7857.740 7113.550 208.316 24.365 o
-19 -18 -3 234.588 309.090 114.419 204.291 o
-19 -18 -2 4933.130 4929.530 146.092 44.794 o
-19 -18 -1 2410.910 2543.500 90.239 106.908 o
-19 -17 -7 1303.070 1233.700 182.001 71.046 o
-19 -17 -6 3097.480 3318.550 191.489 47.669 o
-19 -17 -5 1614.320 1542.790 154.961 83.571 o
-19 -17 -4 12.907 49.084 117.361 219.401 o
-19 -17 -3 6168.120 6274.810 172.165 33.086 o
-19 -17 -2 1661.870 1775.620 115.402 113.836 o
-19 -17 -1 1233.940 1174.010 122.455 125.421 o
-19 -16 -7 1869.080 1569.620 197.369 57.606 o
-19 -16 -6 2622.880 2526.720 160.563 64.350 o
-19 -16 -5 6229.800 6054.030 175.296 32.850 o
-19 -16 -4 113.345 -129.259 114.647 223.638 o
-19 -16 -3 5379.140 5517.630 199.819 32.951 o
-19 -16 -2 1726.500 1455.050 107.127 124.994 o
-19 -16 -1 7351.420 7344.060 182.673 27.362 o
-19 -15 -8 4914.870 5052.710 311.553 21.199 o
-19 -15 -7 1565.260 1280.820 160.096 82.266 o
-19 -15 -6 5885.110 5738.220 218.588 28.903 o
-19 -15 -5 3848.500 4190.010 164.294 48.657 o
-19 -15 -4 4312.810 4205.490 144.918 50.666 o
-19 -15 -3 5744.250 5765.400 189.144 32.977 o
-19 -15 -2 1517.290 1219.280 130.843 108.354 o
-19 -15 -1 11357.800 11534.200 245.803 14.965 o
-19 -14 -8 3120.560 3319.290 192.014 47.402 o
-19 -14 -7 4779.150 4990.830 247.031 28.597 o
-19 -14 -6 285.835 540.602 130.566 154.822 o
-19 -14 -5 1154.640 1245.750 114.553 137.313 o
-19 -14 -4 12181.800 11899.100 271.950 13.284 o
-19 -14 -3 2689.250 3292.880 117.955 79.226 o
-19 -14 -2 5297.940 5135.260 149.538 41.872 o
-19 -14 -1 3281.100 3408.790 112.762 73.175 o
-19 -13 -8 341.361 715.596 182.999 82.881 o
-19 -13 -7 1347.760 1112.150 150.644 93.995 o
-19 -13 -6 1838.580 1961.070 137.899 89.548 o
-19 -13 -5 1444.080 1617.400 140.904 96.554 o
-19 -13 -4 1398.280 1317.770 108.462 136.050 o
-19 -13 -3 1179.430 1283.520 101.628 155.060 o
-19 -13 -2 19015.900 18923.000 257.811 8.168 o
-19 -13 -1 4092.060 3776.000 121.235 60.156 o
-19 -12 -9 289.264 443.690 196.289 74.613 o
-19 -12 -8 2255.850 2574.960 174.784 61.029 o
-19 -12 -7 929.879 1035.570 140.396 113.048 o
-19 -12 -6 13.643 286.063 108.786 243.176 o
-19 -12 -5 8023.670 7855.900 199.711 24.036 o
-19 -12 -4 10076.400 9888.750 215.446 18.425 o
-19 -12 -3 2702.360 2842.480 117.204 82.586 o
-19 -12 -2 2033.190 2004.260 111.880 105.599 o
-19 -12 -1 1686.750 1669.000 95.913 135.413 o
-19 -11 -9 1843.630 1444.270 228.420 46.493 o
-19 -11 -8 3068.960 2851.650 163.629 58.244 o
-19 -11 -7 600.067 402.812 111.878 185.688 o
-19 -11 -6 8335.970 8233.950 204.148 22.820 o
-19 -11 -5 1271.070 1126.190 112.237 138.623 o
-19 -11 -4 2323.890 2379.340 112.589 95.364 o
-19 -11 -3 7938.180 8139.340 204.139 23.602 o
-19 -11 -2 16795.700 17161.600 221.187 9.973 o
-19 -11 -1 8769.550 8808.550 166.350 24.008 o
-19 -10 -9 2704.170 2568.600 197.982 49.657 o
-19 -10 -8 3947.970 3956.040 181.474 44.542 o
-19 -10 -7 4895.810 5336.840 157.992 41.773 o
-19 -10 -6 2692.650 2689.740 122.981 80.784 o
-19 -10 -5 583.370 525.359 99.726 216.442 o
-19 -10 -4 10910.300 10681.200 270.791 14.781 o
-19 -10 -3 4182.010 4192.530 152.740 49.597 o
-19 -10 -2 9789.280 10034.800 197.904 19.559 o
-19 -10 -1 8986.740 9141.590 194.120 21.629 o
-19 -9 -9 7413.840 7728.810 399.933 12.709 o
-19 -9 -8 84.496 253.594 122.721 190.375 o
-19 -9 -7 1727.210 1654.050 126.180 103.694 o
-19 -9 -6 17945.600 17701.900 307.088 8.166 o
-19 -9 -5 1092.070 1109.290 104.510 158.013 o
-19 -9 -4 13472.800 12985.500 251.881 12.570 o
-19 -9 -3 757.257 816.764 91.091 216.177 o
-19 -9 -2 3731.430 3845.810 126.101 61.557 o
-19 -9 -1 13132.800 13642.700 228.302 13.192 o
-19 -8 -9 5511.150 5541.240 202.769 32.129 o
-19 -8 -8 4509.610 5195.130 172.454 41.117 o
-19 -8 -7 16167.400 15478.600 307.834 9.265 o
-19 -8 -6 1251.980 1523.590 113.375 131.127 o
-19 -8 -5 3619.830 3665.500 128.269 62.678 o
-19 -8 -4 22369.100 22425.000 356.243 5.810 o
-19 -8 -3 5.561 358.691 89.883 341.262 o
-19 -8 -2 7835.550 7999.590 161.931 27.198 o
-19 -8 -1 9745.720 9443.420 154.399 22.271 o
-19 -7 -10 77.279 -454.651 174.381 99.460 o
-19 -7 -9 12182.100 12147.700 303.687 12.232 o
-19 -7 -8 9109.270 9288.360 199.845 20.987 o
-19 -7 -7 887.690 921.529 114.381 153.693 o
-19 -7 -6 18210.300 18405.000 284.223 8.243 o
-19 -7 -5 13659.100 13816.900 311.108 10.744 o
-19 -7 -4 2276.330 2513.340 115.897 92.825 o
-19 -7 -3 15794.500 15811.200 277.073 9.896 o
-19 -7 -2 2117.660 2080.540 87.355 123.184 o
-19 -7 -1 7053.390 7024.900 134.904 33.121 o
-19 -6 -10 14598.500 13815.000 365.951 9.140 o
-19 -6 -9 475.360 627.021 137.479 134.235 o
-19 -6 -8 10198.300 10376.000 329.760 13.163 o
-19 -6 -7 14578.600 15012.400 278.124 10.685 o
-19 -6 -6 2644.600 2857.970 119.478 82.116 o
-19 -6 -5 18388.900 18688.100 317.610 7.716 o
-19 -6 -4 5164.820 5193.700 142.940 43.521 o
-19 -6 -3 7016.580 7290.740 179.799 28.491 o
-19 -6 -2 4244.080 4286.830 123.951 56.095 o
-19 -6 -1 15328.400 15005.900 212.334 11.556 o
-19 -5 -10 665.668 387.703 178.080 85.083 o
-19 -5 -9 3354.510 3669.790 187.296 46.655 o
-19 -5 -8 16398.100 16055.800 316.903 8.902 o
-19 -5 -7 6442.130 6231.510 168.780 32.710 o
-19 -5 -6 1543.160 1407.540 109.463 128.624 o
-19 -5 -5 12293.200 12245.300 251.651 13.704 o
-19 -5 -4 390.825 504.222 87.343 283.678 o
-19 -5 -3 19862.000 20063.300 251.749 7.730 o
-19 -5 -2 4080.120 4054.580 104.613 63.683 o
-19 -5 -1 9538.670 9451.540 192.306 20.630 o
-19 -4 -10 7294.280 7004.850 305.326 18.050 o
-19 -4 -9 546.073 471.826 135.081 138.417 o
-19 -4 -8 4706.090 4818.270 132.299 49.155 o
-19 -4 -7 11340.400 11743.500 232.079 15.379 o
-19 -4 -6 1933.340 1958.200 104.535 114.838 o
-19 -4 -5 13541.300 13702.000 225.488 12.937 o
-19 -4 -4 3268.360 3653.260 161.425 54.729 o
-19 -4 -3 1318.940 1463.600 71.205 194.109 o
-19 -4 -2 3228.540 3330.230 103.383 78.142 o
-19 -4 -1 9587.850 9080.260 191.453 20.884 o
-19 -3 -10 218.521 173.317 148.032 130.865 o
-19 -3 -9 6814.690 6189.270 315.073 18.276 o
-19 -3 -8 636.486 595.905 90.249 239.174 o
-19 -3 -7 1341.890 1277.130 91.754 163.501 o
-19 -3 -6 8233.630 8227.160 182.577 24.540 o
-19 -3 -5 5911.350 5877.680 132.066 40.072 o
-19 -3 -4 1853.450 1862.610 78.558 144.837 o
-19 -3 -3 4040.370 3889.240 91.873 68.534 o
-19 -3 -2 2026.930 2013.280 74.427 139.140 o
-19 -3 -1 196.063 254.846 73.639 437.826 o
-19 -2 -10 856.234 727.027 146.000 111.459 o
-19 -2 -9 3952.220 3961.360 193.327 41.809 o
-19 -2 -8 1351.000 1364.360 100.944 147.239 o
-19 -2 -7 8898.120 8774.740 223.722 20.266 o
-19 -2 -6 2354.270 2601.050 110.063 94.400 o
-19 -2 -5 411.735 350.555 84.103 307.544 o
-19 -2 -4 15920.200 15178.600 243.632 10.589 o
-19 -2 -3 119.432 13.442 60.140 724.824 o
-19 -2 -2 1785.360 1899.730 71.544 154.700 o
-19 -2 -1 3063.470 2949.390 86.639 91.157 o
-19 -1 -10 53.958 209.069 143.326 143.686 o
-19 -1 -9 9749.720 9662.400 416.385 10.621 o
-19 -1 -8 2738.520 2860.830 105.314 88.173 o
-19 -1 -7 1107.450 1147.650 97.632 168.452 o
-19 -1 -6 6037.050 6069.480 168.428 34.311 o
-19 -1 -5 1846.400 2145.400 93.165 125.207 o
-19 -1 -4 3245.360 3084.470 104.815 79.003 o
-19 -1 -3 2512.250 2458.530 80.622 111.865 o
-19 -1 -2 3959.210 4121.720 91.490 68.249 o
-19 -1 -1 1122.860 1206.570 67.095 228.626 o
-18 -25 -2 759.465 264.670 168.097 93.645 o
-18 -25 -1 513.346 377.625 147.509 121.376 o
-18 -24 -4 820.548 762.576 226.783 53.254 o
-18 -24 -3 2395.170 2340.550 189.601 54.961 o
-18 -24 -2 5153.100 4978.380 165.632 40.079 o
-18 -24 -1 2515.510 2281.240 139.461 76.969 o
-18 -23 -5 3454.170 3491.250 229.785 36.702 o
-18 -23 -4 3965.480 4082.290 201.267 39.812 o
-18 -23 -3 1267.500 1639.620 204.024 58.273 o
-18 -23 -2 1617.020 1583.560 135.019 98.808 o
-18 -23 -1 5237.320 5511.000 182.352 35.999 o
-18 -22 -5 1943.340 1499.660 186.040 62.436 o
-18 -22 -4 3154.650 3133.810 204.745 44.217 o
-18 -22 -3 5199.120 5689.100 200.404 33.144 o
-18 -22 -2 2196.930 2421.110 124.765 89.178 o
-18 -22 -1 1442.530 1791.310 116.288 118.351 o
-18 -21 -6 762.124 925.191 186.884 74.482 o
-18 -21 -5 101.282 116.483 160.344 115.616 o
-18 -21 -4 2388.610 2387.920 169.847 62.852 o
-18 -21 -3 400.847 166.190 128.771 161.580 o
-18 -21 -2 9333.420 9016.750 250.131 18.068 o
-18 -21 -1 3287.350 3316.650 118.043 71.559 o
-18 -20 -7 3067.870 2011.130 228.901 40.601 o
-18 -20 -6 571.141 403.293 199.106 70.430 o
-18 -20 -5 2450.390 2710.560 171.960 60.208 o
-18 -20 -4 2946.550 2942.300 171.477 55.991 o
-18 -20 -3 650.460 467.310 137.262 131.753 o
-18 -20 -2 4558.990 4645.850 137.716 49.430 o
-18 -20 -1 3571.390 3699.980 115.311 67.335 o
-18 -19 -7 179.244 221.557 184.735 86.157 o
-18 -19 -6 6975.080 6587.890 211.813 26.309 o
-18 -19 -5 8046.560 8430.950 232.172 21.191 o
-18 -19 -4 3758.590 3695.300 159.861 51.851 o
-18 -19 -3 6225.720 5993.990 190.786 31.059 o
-18 -19 -2 2445.700 2467.700 126.795 83.759 o
-18 -19 -1 5023.580 4869.200 147.865 44.149 o
-18 -18 -7 11306.800 11395.600 292.860 13.399 o
-18 -18 -6 445.946 323.411 147.494 123.744 o
-18 -18 -5 1354.380 1611.360 140.477 98.576 o
-18 -18 -4 2327.770 2018.940 146.777 76.785 o
-18 -18 -3 6799.810 6672.050 158.697 32.067 o
-18 -18 -2 3577.130 3550.490 128.542 63.509 o
-18 -18 -1 2204.460 2339.160 91.377 113.788 o
-18 -17 -8 2377.980 2404.160 198.742 51.588 o
-18 -17 -7 116.106 308.172 193.277 79.178 o
-18 -17 -6 4693.850 4598.110 167.195 42.649 o
-18 -17 -5 11699.000 11717.300 233.547 15.010 o
-18 -17 -4 4562.250 4557.300 148.333 47.349 o
-18 -17 -3 9076.990 8989.830 213.688 20.454 o
-18 -17 -2 978.500 868.411 101.873 174.349 o
-18 -17 -1 4056.070 3877.260 110.659 63.062 o
-18 -16 -8 3206.830 3965.270 211.171 40.747 o
-18 -16 -7 11847.200 11504.200 287.251 13.171 o
-18 -16 -6 1558.190 1403.900 140.592 96.693 o
-18 -16 -5 6381.390 6379.790 178.370 31.548 o
-18 -16 -4 3231.190 3343.180 121.192 70.801 o
-18 -16 -3 5992.360 6222.770 185.168 32.083 o
-18 -16 -2 8694.690 9081.300 185.339 22.705 o
-18 -16 -1 5673.710 5746.680 135.545 40.951 o
-18 -15 -9 7583.320 7486.010 259.291 20.597 o
-18 -15 -8 9508.400 8996.050 280.530 16.342 o
-18 -15 -7 1447.300 1529.390 147.616 91.633 o
-18 -15 -6 5943.660 5712.440 201.425 30.892 o
-18 -15 -5 202.124 130.646 124.371 182.631 o
-18 -15 -4 1145.110 827.113 100.063 170.233 o
-18 -15 -3 4200.910 4061.800 121.379 58.000 o
-18 -15 -2 1570.090 1751.800 96.941 136.872 o
-18 -15 -1 9873.410 10174.200 162.399 21.050 o
-18 -14 -9 256.410 -121.597 197.994 75.697 o
-18 -14 -8 1300.980 1066.190 190.822 66.697 o
-18 -14 -7 3949.040 3930.000 162.324 49.330 o
-18 -14 -6 750.869 771.613 121.685 149.202 o
-18 -14 -5 6277.820 5993.230 184.266 31.701 o
-18 -14 -4 5693.930 5425.470 139.068 41.066 o
-18 -14 -3 7949.090 8178.990 179.221 25.414 o
-18 -14 -2 553.921 506.709 86.311 267.388 o
-18 -14 -1 1838.140 1880.750 91.981 130.891 o
-18 -13 -9 758.132 565.708 165.631 93.783 o
-18 -13 -8 577.480 308.159 152.534 113.892 o
-18 -13 -7 102.443 -96.894 129.105 178.395 o
-18 -13 -6 2555.930 2348.690 157.595 67.088 o
-18 -13 -5 674.370 724.109 103.429 192.747 o
-18 -13 -4 10671.600 10138.700 195.953 18.412 o
-18 -13 -3 3408.180 3371.620 114.840 71.095 o
-18 -13 -2 1511.530 1546.860 94.126 146.498 o
-18 -13 -1 6543.950 7388.430 148.863 32.785 o
-18 -12 -9 7323.780 6810.740 281.702 19.737 o
-18 -12 -8 1032.390 1025.010 145.147 105.697 o
-18 -12 -7 1852.820 1853.620 135.287 92.105 o
-18 -12 -6 4004.820 3911.090 143.011 54.183 o
-18 -12 -5 434.913 232.580 98.960 245.026 o
-18 -12 -4 670.482 582.092 96.033 218.393 o
-18 -12 -3 4711.790 4814.430 128.895 49.843 o
-18 -12 -2 21232.500 21692.800 294.052 6.680 o
-18 -12 -1 2381.260 2413.220 116.242 91.644 o
-18 -11 -10 1105.310 353.088 190.048 71.866 o
-18 -11 -9 2624.640 2776.120 163.398 62.085 o
-18 -11 -8 1836.470 1441.480 143.519 89.469 o
-18 -11 -7 1251.910 1300.180 128.248 116.345 o
-18 -11 -6 467.658 442.777 122.032 167.393 o
-18 -11 -5 12.265 53.336 92.612 349.325 o
-18 -11 -4 17542.300 17598.400 249.714 9.122 o
-18 -11 -3 751.464 685.966 89.606 226.460 o
-18 -11 -2 30011.700 30643.000 436.413 3.630 o
-18 -11 -1 267.014 225.676 74.740 411.825 o
-18 -10 -10 2665.520 2738.070 194.937 50.391 o
-18 -10 -9 3049.710 3240.410 164.101 56.803 o
-18 -10 -8 1283.460 1072.730 133.425 112.511 o
-18 -10 -7 712.267 879.665 106.766 178.077 o
-18 -10 -6 8630.130 8878.160 204.348 21.786 o
-18 -10 -5 52.384 -125.970 96.070 322.906 o
-18 -10 -4 11753.200 11539.300 201.023 16.164 o
-18 -10 -3 719.582 512.913 87.259 245.207 o
-18 -10 -2 7639.870 7923.190 234.983 21.981 o
-18 -10 -1 5714.660 5699.020 146.991 39.180 o
-18 -9 -10 1630.390 2186.230 192.215 59.389 o
-18 -9 -9 6013.940 6138.050 231.608 26.714 o
-18 -9 -8 1970.360 2028.440 123.572 97.384 o
-18 -9 -7 2252.060 2219.460 124.167 90.317 o
-18 -9 -6 3202.240 3079.260 124.870 71.120 o
-18 -9 -5 8829.070 8762.030 180.221 23.070 o
-18 -9 -4 12753.200 12708.600 280.896 12.355 o
-18 -9 -3 5067.140 4950.700 139.671 45.248 o
-18 -9 -2 15014.500 15248.800 299.296 9.984 o
-18 -9 -1 10470.800 10211.900 196.807 18.584 o
-18 -8 -10 2159.160 2384.820 213.411 47.864 o
-18 -8 -9 3608.580 3884.210 158.056 52.719 o
-18 -8 -8 3992.910 3975.010 149.490 52.293 o
-18 -8 -7 9160.780 8526.370 233.544 19.500 o
-18 -8 -6 5318.910 5387.440 153.809 40.490 o
-18 -8 -5 12.468 51.871 93.574 342.427 o
-18 -8 -4 1481.030 1539.840 96.326 144.948 o
-18 -8 -3 7291.490 7737.150 158.388 29.184 o
-18 -8 -2 5281.320 5347.990 148.289 41.667 o
-18 -8 -1 9569.100 9527.970 168.373 21.788 o
-18 -7 -10 4511.270 4164.870 184.663 40.891 o
-18 -7 -9 738.855 643.666 131.568 135.324 o
-18 -7 -8 1791.600 1585.990 125.940 103.282 o
-18 -7 -7 3326.120 3358.410 147.159 60.129 o
-18 -7 -6 6158.660 6166.860 165.060 34.175 o
-18 -7 -5 10879.600 10853.600 270.447 14.749 o
-18 -7 -4 2610.020 3014.860 120.723 80.847 o
-18 -7 -3 5587.410 5403.580 132.034 42.719 o
-18 -7 -2 3653.340 3491.250 93.013 75.290 o
-18 -7 -1 5039.040 5153.100 104.059 51.397 o
-18 -6 -10 1345.620 1402.540 154.580 88.543 o
-18 -6 -9 622.472 438.093 133.976 138.367 o
-18 -6 -8 6244.890 6370.230 190.933 30.482 o
-18 -6 -7 3882.360 4114.300 133.609 56.958 o
-18 -6 -6 348.051 510.203 97.667 244.889 o
-18 -6 -5 6602.770 6627.680 156.116 33.033 o
-18 -6 -4 83.155 67.449 74.266 503.730 o
-18 -6 -3 6123.390 6186.500 128.257 38.968 o
-18 -6 -2 14961.700 14834.200 250.998 11.079 o
-18 -6 -1 4967.800 4824.720 105.959 52.704 o
-18 -5 -10 7029.440 6486.840 248.633 22.957 o
-18 -5 -9 314.404 500.087 124.782 166.940 o
-18 -5 -8 1748.940 1564.220 133.253 98.051 o
-18 -5 -7 1620.610 1727.040 108.161 122.995 o
-18 -5 -6 1160.340 912.612 97.037 172.925 o
-18 -5 -5 5587.640 5756.560 135.226 41.375 o
-18 -5 -4 7744.970 8100.660 155.109 27.829 o
-18 -5 -3 2510.000 2624.390 90.471 103.539 o
-18 -5 -2 1541.310 1517.200 65.903 185.917 o
-18 -5 -1 8381.160 8434.340 162.711 25.423 o
-18 -4 -10 614.036 739.721 160.053 100.278 o
-18 -4 -9 79.028 -225.842 109.474 247.602 o
-18 -4 -8 1052.970 1148.110 83.798 199.230 o
-18 -4 -7 103.660 255.111 88.881 339.501 o
-18 -4 -6 169.589 -56.514 87.235 363.265 o
-18 -4 -5 4397.590 4461.150 114.784 56.481 o
-18 -4 -4 3413.270 3586.830 101.694 74.669 o
-18 -4 -3 14760.000 14900.500 236.797 11.466 o
-18 -4 -2 261.602 261.906 55.803 609.311 o
-18 -4 -1 5820.580 5462.400 117.800 43.546 o
-18 -3 -11 2142.990 1243.160 252.440 38.963 o
-18 -3 -10 7806.250 8021.770 341.031 15.121 o
-18 -3 -9 311.353 427.060 137.929 141.772 o
-18 -3 -8 927.257 806.703 83.786 222.479 o
-18 -3 -7 3255.790 3136.460 100.671 80.252 o
-18 -3 -6 987.942 1049.110 75.658 227.714 o
-18 -3 -5 4609.340 4581.840 131.547 50.673 o
-18 -3 -4 1818.810 1779.190 73.519 153.713 o
-18 -3 -3 5187.280 4821.900 115.650 49.400 o
-18 -3 -2 1701.890 1640.020 64.423 174.314 o
-18 -3 -1 17497.300 17636.800 270.216 8.851 o
-18 -2 -11 1525.700 1771.910 242.216 42.853 o
-18 -2 -10 813.459 644.707 130.277 134.989 o
-18 -2 -9 7539.330 7422.540 220.142 23.706 o
-18 -2 -8 3976.920 3680.300 137.603 56.756 o
-18 -2 -7 2578.100 2409.170 113.960 89.733 o
-18 -2 -6 2318.900 2194.150 102.025 104.754 o
-18 -2 -5 5159.190 5161.530 117.970 48.096 o
-18 -2 -4 2920.160 2997.410 109.988 81.905 o
-18 -2 -3 11762.800 11443.100 143.925 18.091 o
-18 -2 -2 3934.560 4167.570 89.460 68.832 o
-18 -2 -1 10330.200 10236.600 179.573 19.526 o
-18 -1 -11 8762.010 8003.060 480.678 9.371 o
-18 -1 -10 2626.970 2390.970 198.621 50.323 o
-18 -1 -9 440.005 391.029 94.023 255.842 o
-18 -1 -8 1596.380 1766.370 86.750 147.962 o
-18 -1 -7 2445.460 2713.320 103.229 95.938 o
-18 -1 -6 461.706 371.280 80.017 319.291 o
-18 -1 -5 1315.960 1433.840 81.177 178.089 o
-18 -1 -4 23162.800 22816.500 324.242 5.841 o
-18 -1 -3 1354.920 1560.100 70.211 190.046 o
-18 -1 -2 25846.100 26777.900 390.277 4.592 o
-18 -1 -1 7115.410 7141.610 165.926 29.757 o
-17 -27 -1 2181.410 1507.490 691.510 6.196 o
-17 -26 -3 374.121 386.713 186.220 81.722 o
-17 -26 -2 2809.920 2234.600 172.060 59.257 o
-17 -26 -1 747.051 674.572 178.378 82.173 o
-17 -25 -4 3240.900 3086.570 231.458 37.649 o
-17 -25 -3 2495.640 3073.520 174.753 57.462 o
-17 -25 -2 3594.730 3674.650 165.675 51.286 o
-17 -25 -1 5246.410 5161.530 252.656 26.789 o
-17 -24 -5 25.692 227.265 237.348 53.703 o
-17 -24 -4 1700.130 1518.100 160.075 79.166 o
-17 -24 -3 6342.700 6175.730 257.061 23.538 o
-17 -24 -2 1959.410 1897.920 140.300 86.503 o
-17 -24 -1 7609.490 7270.200 193.954 25.892 o
-17 -23 -6 1264.180 867.682 211.966 57.047 o
-17 -23 -5 2469.190 2396.860 187.699 55.032 o
-17 -23 -4 3464.300 3136.860 166.725 53.479 o
-17 -23 -3 1814.280 1983.150 143.518 85.779 o
-17 -23 -2 579.238 555.390 122.630 158.679 o
-17 -23 -1 21510.600 21397.100 314.010 6.474 o
-17 -22 -6 2028.680 1487.510 193.298 58.583 o
-17 -22 -5 254.194 50.794 156.972 117.770 o
-17 -22 -4 856.936 931.413 154.224 100.429 o
-17 -22 -3 6900.720 6835.930 174.976 29.847 o
-17 -22 -2 4954.620 5483.690 165.518 39.872 o
-17 -22 -1 6207.180 5911.810 180.624 32.474 o
-17 -21 -7 596.402 287.843 190.503 76.632 o
-17 -21 -6 716.998 195.059 166.939 95.951 o
-17 -21 -5 182.840 233.746 197.624 75.574 o
-17 -21 -4 8702.370 8450.990 231.355 20.297 o
-17 -21 -3 3289.560 3380.640 133.174 65.389 o
-17 -21 -2 10292.200 10151.400 212.131 18.154 o
-17 -21 -1 2454.620 2202.580 110.981 95.642 o
-17 -20 -7 459.248 315.287 172.947 92.931 o
-17 -20 -6 1759.140 1222.260 180.003 68.135 o
-17 -20 -5 3120.440 3285.720 169.255 54.428 o
-17 -20 -4 3654.150 3504.640 151.712 55.581 o
-17 -20 -3 883.886 1037.330 123.615 136.627 o
-17 -20 -2 6191.730 6056.420 146.398 36.631 o
-17 -20 -1 2727.520 2843.070 115.165 83.276 o
-17 -19 -8 1337.090 1062.790 192.466 65.524 o
-17 -19 -7 1126.830 998.941 183.730 72.722 o
-17 -19 -6 420.273 410.097 145.519 126.241 o
-17 -19 -5 4899.070 4410.300 206.460 35.060 o
-17 -19 -4 3222.800 3315.030 140.297 63.671 o
-17 -19 -3 7442.100 7174.530 266.855 20.439 o
-17 -19 -2 17640.700 18097.100 239.774 9.102 o
-17 -19 -1 2091.220 2247.910 93.295 116.507 o
-17 -18 -8 539.818 704.784 221.643 57.155 o
-17 -18 -7 2181.940 2135.990 170.513 65.329 o
-17 -18 -6 1267.000 1180.150 138.759 106.045 o
-17 -18 -5 6381.580 6025.830 192.119 30.439 o
-17 -18 -4 991.887 1009.860 121.418 136.807 o
-17 -18 -3 4631.640 4700.670 145.635 47.134 o
-17 -18 -2 4665.440 4912.680 138.525 47.821 o
-17 -18 -1 2493.810 2512.460 91.762 104.336 o
-17 -17 -9 3347.810 3395.580 236.025 35.913 o
-17 -17 -8 2515.150 2537.920 186.109 54.887 o
-17 -17 -7 5715.040 5854.900 196.143 32.002 o
-17 -17 -6 2531.600 2608.480 149.272 69.971 o
-17 -17 -5 2249.620 2236.250 139.879 80.390 o
-17 -17 -4 36.698 142.039 109.389 245.228 o
-17 -17 -3 1995.230 2071.740 113.883 104.067 o
-17 -17 -2 10139.600 10153.000 179.323 19.869 o
-17 -17 -1 75.698 67.542 85.697 388.985 o
-17 -16 -9 4093.040 4080.640 213.822 36.866 o
-17 -16 -8 3208.150 2912.930 177.290 52.456 o
-17 -16 -7 7330.910 7293.390 186.313 27.141 o
-17 -16 -6 1981.530 1883.730 130.772 93.056 o
-17 -16 -5 2135.240 2027.270 132.527 88.150 o
-17 -16 -4 9509.530 10013.800 231.323 18.259 o
-17 -16 -3 5106.170 5213.980 138.934 44.483 o
-17 -16 -2 837.694 893.110 86.996 217.721 o
-17 -16 -1 3413.270 3373.160 94.950 78.641 o
-17 -15 -9 7671.040 7200.740 275.231 19.546 o
-17 -15 -8 2880.850 2694.630 165.493 59.553 o
-17 -15 -7 2034.420 2169.170 142.372 82.178 o
-17 -15 -6 2633.020 2721.220 150.119 67.996 o
-17 -15 -5 3757.960 3529.740 138.290 58.857 o
-17 -15 -4 1815.580 1913.510 101.897 121.126 o
-17 -15 -3 295.181 397.171 88.235 300.166 o
-17 -15 -2 9550.450 9701.220 226.839 18.627 o
-17 -15 -1 152.768 164.617 65.263 567.395 o
-17 -14 -9 2822.380 2751.460 179.879 54.495 o
-17 -14 -8 3666.400 3384.410 159.389 53.586 o
-17 -14 -7 2275.750 2054.650 133.808 84.993 o
-17 -14 -6 2730.280 3043.840 151.615 64.910 o
-17 -14 -5 1120.230 979.465 106.858 155.641 o
-17 -14 -4 4116.590 4039.640 133.678 55.447 o
-17 -14 -3 7907.620 7873.400 159.434 27.372 o
-17 -14 -2 1396.550 1321.000 89.057 163.990 o
-17 -14 -1 4845.800 4977.040 100.568 54.078 o
-17 -13 -10 10882.200 10644.300 291.974 14.012 o
-17 -13 -9 381.511 241.983 151.507 120.470 o
-17 -13 -8 95.024 183.168 138.506 152.428 o
-17 -13 -7 294.726 113.823 126.780 172.166 o
-17 -13 -6 1212.340 1119.960 145.005 101.469 o
-17 -13 -5 12362.800 11967.100 259.810 13.505 o
-17 -13 -4 248.138 338.931 86.424 322.126 o
-17 -13 -3 2831.910 2764.700 102.456 88.933 o
-17 -13 -2 1449.340 1589.480 86.673 158.500 o
-17 -13 -1 23914.300 24656.700 301.003 5.641 o
-17 -12 -10 1968.890 1878.160 188.905 59.572 o
-17 -12 -9 426.817 362.303 149.367 121.016 o
-17 -12 -8 1828.030 1888.920 138.103 90.134 o
-17 -12 -7 896.682 631.749 121.249 147.088 o
-17 -12 -6 555.442 528.670 112.793 182.375 o
-17 -12 -5 342.891 337.627 90.454 286.511 o
-17 -12 -4 2266.780 2281.570 102.286 104.751 o
-17 -12 -3 21660.400 21132.000 346.119 6.193 o
-17 -12 -2 10909.400 11116.600 230.976 16.140 o
-17 -12 -1 9305.510 9610.200 149.273 23.186 o
-17 -11 -10 586.880 520.660 175.589 87.376 o
-17 -11 -9 695.982 679.076 133.516 133.061 o
-17 -11 -8 96.149 189.933 118.911 203.251 o
-17 -11 -7 319.232 344.577 117.299 189.424 o
-17 -11 -6 1554.960 1580.380 104.286 131.617 o
-17 -11 -5 298.584 364.824 88.491 300.712 o
-17 -11 -4 12949.900 12991.300 214.563 13.960 o
-17 -11 -3 1668.910 1586.270 91.555 142.755 o
-17 -11 -2 2840.570 2941.910 93.866 91.718 o
-17 -11 -1 3446.640 3504.280 112.089 70.921 o
-17 -10 -10 2576.320 2550.100 177.735 57.589 o
-17 -10 -9 7403.290 7281.920 181.245 27.441 o
-17 -10 -8 1037.120 839.890 120.176 140.030 o
-17 -10 -7 1192.540 1179.600 126.099 121.966 o
-17 -10 -6 912.154 1129.490 108.147 159.256 o
-17 -10 -5 10458.200 10409.800 236.493 16.736 o
-17 -10 -4 3456.680 3585.720 105.985 72.561 o
-17 -10 -3 2131.370 2044.730 90.195 120.858 o
-17 -10 -2 34446.900 34779.500 467.348 2.953 o
-17 -10 -1 4351.130 4490.500 109.160 58.089 o
-17 -9 -11 6742.960 8678.650 1104.470 2.357 o
-17 -9 -10 2386.110 2050.810 205.740 50.090 o
-17 -9 -9 451.803 430.616 138.935 135.527 o
-17 -9 -8 3652.670 3527.130 126.076 63.742 o
-17 -9 -7 3180.820 2913.610 121.541 73.735 o
-17 -9 -6 4099.920 4048.090 128.465 56.952 o
-17 -9 -5 8901.790 8803.070 186.678 22.503 o
-17 -9 -4 12069.800 12236.000 225.586 14.712 o
-17 -9 -3 20623.900 21252.600 313.577 6.727 o
-17 -9 -2 14971.900 15558.400 228.504 11.301 o
-17 -9 -1 5811.320 5762.400 136.202 40.194 o
-17 -8 -11 2025.660 2413.580 246.939 38.920 o
-17 -8 -10 9194.370 9192.970 227.118 19.387 o
-17 -8 -9 2578.160 2501.550 138.584 75.346 o
-17 -8 -8 5780.480 5524.220 144.488 39.642 o
-17 -8 -7 11536.000 11509.600 255.676 14.473 o
-17 -8 -6 2232.130 2264.040 112.338 98.396 o
-17 -8 -5 12772.200 12472.400 199.487 14.761 o
-17 -8 -4 928.789 930.499 82.778 219.731 o
-17 -8 -3 3873.440 3948.590 101.223 67.322 o
-17 -8 -2 3861.890 4090.850 96.878 67.960 o
-17 -8 -1 12836.300 12589.000 188.231 14.962 o
-17 -7 -11 2342.420 2092.490 182.467 58.941 o
-17 -7 -10 1131.390 1283.190 129.919 117.625 o
-17 -7 -9 5942.210 5698.860 174.126 34.484 o
-17 -7 -8 5776.900 6074.870 147.520 38.072 o
-17 -7 -7 2273.870 2375.050 109.182 98.692 o
-17 -7 -6 9889.450 9427.180 206.395 19.412 o
-17 -7 -5 3686.960 3485.640 127.364 63.186 o
-17 -7 -4 995.716 844.656 81.305 221.518 o
-17 -7 -3 4601.820 4652.810 113.110 54.551 o
-17 -7 -2 24.322 86.394 61.747 740.064 o
-17 -7 -1 2461.280 2448.450 67.454 122.159 o
-17 -6 -11 8428.020 8596.890 327.119 15.136 o
-17 -6 -10 890.886 972.835 119.403 144.081 o
-17 -6 -9 703.555 726.412 119.280 156.418 o
-17 -6 -8 5284.860 4987.560 133.679 45.075 o
-17 -6 -7 14588.600 14163.500 272.472 11.030 o
-17 -6 -6 782.674 944.573 90.685 210.250 o
-17 -6 -5 266.082 190.861 77.332 395.674 o
-17 -6 -4 28671.900 29229.100 475.384 3.685 o
-17 -6 -3 7917.670 7880.250 157.471 27.492 o
-17 -6 -2 4530.270 4937.030 130.465 50.275 o
-17 -6 -1 1671.290 1845.860 61.695 173.520 o
-17 -5 -11 757.284 766.620 190.416 72.907 o
-17 -5 -10 379.769 602.400 123.262 165.041 o
-17 -5 -9 17477.900 17335.300 245.966 9.259 o
-17 -5 -8 1275.790 1631.440 91.104 159.179 o
-17 -5 -7 1441.970 1625.260 98.900 141.442 o
-17 -5 -6 21703.300 21597.500 293.213 6.575 o
-17 -5 -5 1042.320 1216.310 84.258 196.596 o
-17 -5 -4 365.678 297.953 75.177 374.737 o
-17 -5 -3 827.555 817.984 67.589 283.271 o
-17 -5 -2 15002.600 15329.200 230.895 11.306 o
-17 -5 -1 5976.370 5932.490 130.521 39.871 o
-17 -4 -11 3833.540 2984.280 229.391 36.396 o
-17 -4 -10 3084.820 3189.150 154.028 60.318 o
-17 -4 -9 680.693 923.399 121.543 149.234 o
-17 -4 -8 2596.370 2690.980 114.182 86.997 o
-17 -4 -7 18424.800 17790.600 295.092 8.138 o
-17 -4 -6 4644.430 4418.810 122.066 53.101 o
-17 -4 -5 2643.160 2635.040 93.371 98.781 o
-17 -4 -4 3164.610 3269.620 119.445 72.697 o
-17 -4 -3 1351.090 1449.600 62.369 207.784 o
-17 -4 -2 28.519 64.556 49.376 1121.550 o
-17 -4 -1 8348.180 8307.940 100.302 29.713 o
-17 -3 -11 1851.010 1669.680 194.303 58.724 o
-17 -3 -10 2984.730 3232.570 138.852 66.872 o
-17 -3 -9 2912.810 2876.300 114.475 80.704 o
-17 -3 -8 2987.790 3103.760 104.433 82.754 o
-17 -3 -7 2844.630 2908.000 95.877 90.910 o
-17 -3 -6 9000.330 8455.160 139.685 25.529 o
-17 -3 -5 9491.560 10025.900 207.646 19.481 o
-17 -3 -4 705.877 841.360 59.895 331.136 o
-17 -3 -3 15106.100 15427.300 246.180 10.923 o
-17 -3 -2 392.474 464.958 52.451 525.718 o
-17 -3 -1 11952.400 11892.500 142.661 17.599 o
-17 -2 -11 5579.890 5857.210 168.584 36.237 o
-17 -2 -10 8432.480 8662.520 267.314 18.322 o
-17 -2 -9 1249.870 1176.460 91.667 170.915 o
-17 -2 -8 4287.200 4653.860 126.471 53.788 o
-17 -2 -7 1404.410 1315.550 72.890 190.396 o
-17 -2 -6 2073.630 1945.010 95.783 119.057 o
-17 -2 -5 935.625 1041.750 65.736 260.809 o
-17 -2 -4 2291.630 2292.850 73.206 125.920 o
-17 -2 -3 4390.170 4367.640 98.303 60.887 o
-17 -2 -2 3636.440 3527.850 78.600 80.145 o
-17 -2 -1 14011.100 13922.500 206.825 12.948 o
-17 -1 -11 3937.380 4004.300 194.383 41.549 o
-17 -1 -10 1030.810 1215.670 114.730 141.922 o
-17 -1 -9 3691.080 4042.020 142.213 56.202 o
-17 -1 -8 2580.610 2640.190 100.415 95.758 o
-17 -1 -7 5387.870 5496.870 115.432 46.181 o
-17 -1 -6 119.100 78.362 63.331 641.358 o
-17 -1 -5 10125.800 10190.800 174.904 20.066 o
-17 -1 -4 1689.020 1790.780 72.929 160.303 o
-17 -1 -3 61.485 36.613 48.965 1100.990 o
-17 -1 -2 11576.900 12189.400 200.477 16.029 o
-17 -1 -1 9279.070 8854.680 163.403 23.169 o
-16 -28 -1 1195.110 927.862 214.851 55.986 o
-16 -27 -3 596.461 377.072 180.839 83.670 o
-16 -27 -2 3267.140 2870.590 187.575 49.084 o
-16 -27 -1 2343.350 2441.180 191.088 54.417 o
-16 -26 -4 3062.150 3375.230 198.924 45.639 o
-16 -26 -3 3258.900 3462.700 186.598 47.854 o
-16 -26 -2 15632.500 15185.100 363.232 8.563 o
-16 -26 -1 1621.650 1515.160 168.817 74.520 o
-16 -25 -5 2478.800 2255.020 215.296 46.131 o
-16 -25 -4 2400.960 2348.760 202.832 50.223 o
-16 -25 -3 7282.420 7439.800 205.206 25.421 o
-16 -25 -2 2873.340 2613.350 145.486 68.231 o
-16 -25 -1 1609.840 1497.240 160.416 80.152 o
-16 -24 -6 1954.070 1646.020 227.420 45.939 o
-16 -24 -5 1903.770 1908.890 162.678 73.118 o
-16 -24 -4 2991.110 3278.930 161.588 57.970 o
-16 -24 -3 2282.930 2302.190 206.209 49.819 o
-16 -24 -2 747.235 540.027 125.644 146.675 o
-16 -24 -1 18822.000 17915.000 257.281 8.437 o
-16 -23 -7 605.822 518.740 227.175 54.759 o
-16 -23 -6 11.224 117.708 152.425 129.884 o
-16 -23 -5 69.457 -177.124 146.774 139.941 o
-16 -23 -4 1981.520 2453.270 146.310 78.626 o
-16 -23 -3 18016.500 17676.400 280.637 8.498 o
-16 -23 -2 1082.160 1076.900 145.349 104.003 o
-16 -23 -1 9858.730 9666.160 234.871 17.877 o
-16 -22 -7 366.833 345.142 186.030 82.186 o
-16 -22 -6 3105.900 2808.860 189.923 49.407 o
-16 -22 -5 1936.800 1988.400 142.890 84.428 o
-16 -22 -4 3414.580 3643.950 160.551 54.047 o
-16 -22 -3 277.860 419.370 130.576 157.538 o
-16 -22 -2 2477.020 2238.330 125.675 85.658 o
-16 -22 -1 18467.500 18303.100 277.513 8.251 o
-16 -21 -8 2597.690 2939.320 267.255 32.433 o
-16 -21 -7 4154.130 4177.300 197.541 39.679 o
-16 -21 -6 2458.560 2354.960 172.450 61.305 o
-16 -21 -5 2192.090 2312.840 177.166 61.493 o
-16 -21 -4 4807.960 4690.950 159.980 43.320 o
-16 -21 -3 7245.080 7487.170 183.891 27.333 o
-16 -21 -2 6315.690 6116.700 213.758 28.040 o
-16 -21 -1 3339.980 3167.430 127.263 68.195 o
-16 -20 -8 1916.450 1331.320 194.111 59.508 o
-16 -20 -7 6053.350 5496.420 206.350 30.274 o
-16 -20 -6 4329.240 3937.110 200.386 38.902 o
-16 -20 -5 9951.170 9655.450 212.073 18.895 o
-16 -20 -4 9921.940 9527.920 195.905 19.828 o
-16 -20 -3 4200.430 4332.270 137.481 52.823 o
-16 -20 -2 19461.000 19477.100 327.887 7.151 o
-16 -20 -1 6366.350 6458.970 171.948 32.223 o
-16 -19 -8 4592.010 4639.300 263.389 27.195 o
-16 -19 -7 2387.930 2404.270 283.145 30.590 o
-16 -19 -6 8825.540 8905.430 232.638 19.744 o
-16 -19 -5 11301.900 10790.800 251.795 15.123 o
-16 -19 -4 382.823 419.492 113.051 195.122 o
-16 -19 -3 7299.970 7052.310 160.495 29.892 o
-16 -19 -2 5910.750 5936.940 134.951 39.545 o
-16 -19 -1 9528.860 9250.790 214.008 19.622 o
-16 -18 -9 3968.760 3846.460 211.870 38.058 o
-16 -18 -8 3079.250 3167.300 193.451 47.580 o
-16 -18 -7 11539.400 11622.900 260.817 14.245 o
-16 -18 -6 1308.490 1158.940 129.925 114.798 o
-16 -18 -5 1541.540 1231.880 141.390 97.812 o
-16 -18 -4 16200.100 16672.700 241.733 10.085 o
-16 -18 -3 5094.830 5005.240 140.993 44.712 o
-16 -18 -2 1166.330 1319.470 84.577 184.474 o
-16 -18 -1 638.218 797.533 74.425 285.383 o
-16 -17 -9 6319.530 6227.260 237.222 25.452 o
-16 -17 -8 1010.030 815.200 169.160 85.459 o
-16 -17 -7 2201.660 2113.330 144.082 79.315 o
-16 -17 -6 5998.050 5987.670 159.190 35.801 o
-16 -17 -5 850.780 860.228 112.551 159.925 o
-16 -17 -4 3622.830 3712.860 138.882 59.023 o
-16 -17 -3 110.640 145.286 83.282 391.493 o
-16 -17 -2 1890.400 1874.770 81.383 140.136 o
-16 -17 -1 1668.990 1764.510 87.556 144.064 o
-16 -16 -10 2687.950 2470.570 502.959 11.132 o
-16 -16 -9 5596.240 5390.490 208.525 31.324 o
-16 -16 -8 3560.150 3705.280 171.818 49.674 o
-16 -16 -7 1005.850 1077.740 134.404 117.929 o
-16 -16 -6 574.945 471.017 119.194 167.993 o
-16 -16 -5 3124.010 2755.420 130.336 71.493 o
-16 -16 -4 2242.610 2237.090 120.188 92.996 o
-16 -16 -3 2304.270 2481.200 108.806 97.307 o
-16 -16 -2 17723.100 18010.800 177.313 9.847 o
-16 -16 -1 845.612 925.901 70.394 264.423 o
-16 -15 -10 295.155 371.895 197.155 74.267 o
-16 -15 -9 344.084 428.143 188.733 79.814 o
-16 -15 -8 3653.790 3657.670 158.524 53.026 o
-16 -15 -7 4933.810 4735.550 147.185 45.085 o
-16 -15 -6 513.813 404.970 116.752 178.337 o
-16 -15 -5 1097.360 1062.700 106.066 156.166 o
-16 -15 -4 8781.850 8659.580 186.455 22.852 o
-16 -15 -3 2705.350 2780.790 115.604 83.839 o
-16 -15 -2 3538.740 3790.500 109.627 69.143 o
-16 -15 -1 2857.780 2951.220 84.917 95.899 o
-16 -14 -10 4202.460 3941.550 205.899 38.262 o
-16 -14 -9 1833.850 1896.240 157.174 77.204 o
-16 -14 -8 1853.330 1749.810 137.613 91.204 o
-16 -14 -7 126.841 164.604 111.734 226.864 o
-16 -14 -6 609.956 307.877 114.643 180.925 o
-16 -14 -5 25543.900 24454.000 351.676 5.042 o
-16 -14 -4 144.842 8.108 81.320 417.653 o
-16 -14 -3 2743.490 2780.120 103.704 89.641 o
-16 -14 -2 4712.200 4740.840 118.171 52.343 o
-16 -14 -1 6528.960 6559.300 144.758 34.675 o
-16 -13 -10 2063.910 2248.240 184.334 59.578 o
-16 -13 -9 1367.100 1784.960 141.037 96.321 o
-16 -13 -8 3473.270 3252.550 137.272 62.792 o
-16 -13 -7 2306.740 2079.590 128.243 87.895 o
-16 -13 -6 40.041 -30.315 102.290 287.311 o
-16 -13 -5 3133.030 3263.770 119.868 72.928 o
-16 -13 -4 5254.050 5083.840 121.569 47.122 o
-16 -13 -3 20151.100 20276.200 273.979 7.383 o
-16 -13 -2 10599.400 10631.500 208.603 17.655 o
-16 -13 -1 13027.000 13718.900 168.713 14.752 o
-16 -12 -11 302.355 2137.100 894.318 3.795 o
-16 -12 -10 7471.200 6966.790 222.288 24.053 o
-16 -12 -9 1494.450 1492.760 145.597 92.819 o
-16 -12 -8 521.266 321.891 112.785 190.355 o
-16 -12 -7 1001.400 806.685 126.735 131.957 o
-16 -12 -6 504.477 368.831 100.082 228.251 o
-16 -12 -5 4076.250 4224.040 115.620 59.916 o
-16 -12 -4 1433.520 1383.170 90.690 158.230 o
-16 -12 -3 7486.930 7594.440 143.904 30.100 o
-16 -12 -2 1645.370 1854.050 80.465 151.682 o
-16 -12 -1 19929.800 20040.100 240.289 7.822 o
-16 -11 -11 1656.350 2117.380 220.894 48.328 o
-16 -11 -10 900.598 849.870 171.260 84.936 o
-16 -11 -9 1446.730 1251.150 131.435 108.951 o
-16 -11 -8 583.168 885.957 144.934 117.125 o
-16 -11 -7 1885.280 1976.210 119.621 102.713 o
-16 -11 -6 607.609 595.652 89.295 245.335 o
-16 -11 -5 306.829 81.578 79.775 380.178 o
-16 -11 -4 3096.110 3140.850 103.723 81.203 o
-16 -11 -3 2998.320 3127.730 92.941 87.778 o
-16 -11 -2 1831.920 1943.480 75.744 147.073 o
-16 -11 -1 5279.400 5722.730 131.014 43.629 o
-16 -10 -11 1893.000 1838.580 174.843 66.988 o
-16 -10 -10 2737.510 2740.820 181.901 54.358 o
-16 -10 -9 4027.190 3858.810 155.685 50.804 o
-16 -10 -8 1005.810 743.845 113.921 153.294 o
-16 -10 -7 1246.970 1082.340 89.242 178.033 o
-16 -10 -6 1634.790 1418.350 94.548 143.614 o
-16 -10 -5 7837.840 7622.300 160.882 27.730 o
-16 -10 -4 6670.710 7107.100 158.577 31.811 o
-16 -10 -3 4725.750 4391.760 111.929 54.861 o
-16 -10 -2 8753.260 8754.620 178.406 23.329 o
-16 -10 -1 3452.430 3337.600 106.832 73.814 o
-16 -9 -11 7426.290 6457.800 355.544 15.195 o
-16 -9 -10 8784.810 8924.010 324.467 14.869 o
-16 -9 -9 7042.610 6637.560 226.586 24.751 o
-16 -9 -8 4038.530 3906.400 130.136 57.530 o
-16 -9 -7 3490.320 3228.490 114.635 71.052 o
-16 -9 -6 884.739 976.726 96.146 188.835 o
-16 -9 -5 7939.000 8012.080 209.940 23.282 o
-16 -9 -4 4320.870 4531.290 124.879 54.371 o
-16 -9 -3 8634.190 8695.620 139.374 26.102 o
-16 -9 -2 4526.870 4634.890 100.350 58.037 o
-16 -9 -1 5692.530 5638.260 108.735 45.079 o
-16 -8 -11 6458.700 5439.880 337.086 17.453 o
-16 -8 -10 1923.380 1968.460 118.930 102.573 o
-16 -8 -9 454.080 654.242 109.560 192.908 o
-16 -8 -8 7954.720 7627.630 162.761 27.291 o
-16 -8 -7 1432.690 1780.640 105.878 130.457 o
-16 -8 -6 779.513 940.071 90.830 210.286 o
-16 -8 -5 11737.800 12022.800 224.822 15.133 o
-16 -8 -4 5881.660 6079.820 130.355 39.988 o
-16 -8 -3 18225.300 18417.400 259.261 8.547 o
-16 -8 -2 14483.800 14102.300 205.310 12.568 o
-16 -8 -1 2227.870 2211.830 67.776 133.696 o
-16 -7 -11 3476.060 3425.860 269.849 29.621 o
-16 -7 -10 5141.680 4848.530 142.842 44.535 o
-16 -7 -9 7398.430 7592.130 227.186 23.235 o
-16 -7 -8 3168.190 3276.440 110.793 76.216 o
-16 -7 -7 11725.100 11940.000 288.506 13.064 o
-16 -7 -6 2931.750 2865.100 102.544 86.401 o
-16 -7 -5 6380.000 6819.160 139.846 35.301 o
-16 -7 -4 4777.580 4554.700 108.741 54.539 o
-16 -7 -3 1304.110 1415.690 73.079 193.476 o
-16 -7 -2 6143.960 5773.350 154.205 36.323 o
-16 -7 -1 68.254 156.858 49.199 979.095 o
-16 -6 -11 1747.440 1570.250 183.428 64.969 o
-16 -6 -10 1094.180 1193.720 128.818 121.053 o
-16 -6 -9 19118.300 19127.700 315.680 7.441 o
-16 -6 -8 10167.200 9688.190 213.444 18.533 o
-16 -6 -7 4034.050 3847.070 129.861 57.880 o
-16 -6 -6 17394.300 17300.200 274.639 8.900 o
-16 -6 -5 2335.160 2545.470 92.018 107.467 o
-16 -6 -4 3329.250 3242.040 92.153 81.920 o
-16 -6 -3 7385.740 7795.850 158.527 28.847 o
-16 -6 -2 9197.000 9309.550 170.647 22.494 o
-16 -6 -1 8221.470 8000.340 136.298 28.154 o
-16 -5 -11 13451.200 13015.100 436.355 8.265 o
-16 -5 -10 676.494 687.264 113.749 169.707 o
-16 -5 -9 991.055 1231.980 108.197 153.519 o
-16 -5 -8 6151.900 5663.260 167.081 34.783 o
-16 -5 -7 13334.300 12762.100 212.465 13.794 o
-16 -5 -6 576.205 549.700 81.325 282.464 o
-16 -5 -5 8063.940 8294.930 195.236 23.885 o
-16 -5 -4 41031.300 41984.700 641.271 2.008 o
-16 -5 -3 5937.930 6053.490 130.141 39.825 o
-16 -5 -2 2829.910 2508.430 67.598 110.743 o
-16 -5 -1 2381.070 1916.170 68.934 132.587 o
-16 -4 -12 1621.400 1548.710 198.942 58.585 o
-16 -4 -11 4191.760 3848.030 181.464 43.659 o
-16 -4 -10 2480.750 2580.110 116.802 88.233 o
-16 -4 -9 12099.200 11980.400 216.721 15.085 o
-16 -4 -8 632.892 586.470 90.395 239.488 o
-16 -4 -7 2626.850 2586.880 98.484 96.537 o
-16 -4 -6 16382.900 16457.300 265.807 9.659 o
-16 -4 -5 13531.400 13059.400 251.479 12.515 o
-16 -4 -4 7390.950 7320.910 121.416 32.734 o
-16 -4 -3 8045.280 7509.630 147.571 28.407 o
-16 -4 -2 6993.340 6905.090 121.585 34.826 o
-16 -4 -1 2090.190 2090.900 81.300 129.203 o
-16 -3 -12 1129.120 1055.030 162.386 87.780 o
-16 -3 -11 1009.300 1003.360 122.500 134.755 o
-16 -3 -10 2388.290 2481.000 110.225 94.777 o
-16 -3 -9 1838.150 1882.080 141.907 87.293 o
-16 -3 -8 10175.600 10369.400 201.284 18.660 o
-16 -3 -7 10554.500 10612.500 160.943 19.731 o
-16 -3 -6 2807.570 2903.770 95.838 91.634 o
-16 -3 -5 14960.700 14627.800 269.540 10.761 o
-16 -3 -4 358.865 402.090 53.208 549.057 o
-16 -3 -3 5067.340 5109.400 114.346 49.487 o
-16 -3 -2 7784.300 7845.240 136.428 29.523 o
-16 -3 -1 6074.310 6249.460 124.457 39.528 o
-16 -2 -12 8199.410 8093.460 263.140 19.176 o
-16 -2 -11 4316.820 4381.150 187.633 40.645 o
-16 -2 -10 5071.290 5261.180 160.653 40.689 o
-16 -2 -9 1112.510 911.826 94.872 179.820 o
-16 -2 -8 4294.600 4098.380 121.788 56.992 o
-16 -2 -7 3364.510 3401.420 86.626 82.347 o
-16 -2 -6 3677.630 3707.210 86.020 75.873 o
-16 -2 -5 12059.000 11794.600 219.907 15.105 o
-16 -2 -4 9722.210 9454.490 181.230 20.930 o
-16 -2 -3 21179.000 20707.700 265.096 7.084 o
-16 -2 -2 23845.500 23311.300 353.547 5.444 o
-16 -2 -1 18757.400 18500.100 215.567 8.825 o
-16 -1 -12 5564.710 5755.550 194.147 32.847 o
-16 -1 -11 4428.760 4421.330 180.113 41.621 o
-16 -1 -10 4959.730 4680.430 124.279 49.640 o
-16 -1 -9 596.575 572.983 87.295 254.908 o
-16 -1 -8 4286.110 4299.060 106.982 60.007 o
-16 -1 -7 1831.520 1946.830 76.973 145.706 o
-16 -1 -6 3128.860 3361.210 96.596 82.198 o
-16 -1 -5 11734.400 11223.200 174.973 17.253 o
-16 -1 -4 4639.290 4644.900 90.533 59.122 o
-16 -1 -3 15728.900 15392.600 247.420 10.566 o
-16 -1 -2 7999.790 8430.560 113.536 29.727 o
-16 -1 -1 24573.100 23997.000 283.033 5.681 o
-15 -29 -1 1125.470 1267.080 178.056 75.081 o
-15 -28 -3 318.800 444.395 167.513 99.684 o
-15 -28 -2 784.888 1045.950 168.157 87.729 o
-15 -28 -1 1352.290 1046.390 182.528 71.139 o
-15 -27 -4 5529.500 5651.430 240.833 27.145 o
-15 -27 -3 34.812 114.053 132.789 169.379 o
-15 -27 -2 5240.190 5041.000 251.874 27.010 o
-15 -27 -1 3102.290 2614.990 196.298 48.020 o
-15 -26 -5 832.759 463.001 216.678 58.556 o
-15 -26 -4 1576.920 1620.650 158.093 81.373 o
-15 -26 -3 8808.080 9225.630 287.155 16.559 o
-15 -26 -2 180.998 240.234 117.777 199.685 o
-15 -26 -1 3442.840 2926.250 128.431 67.927 o
-15 -25 -6 2751.050 3195.220 248.836 35.296 o
-15 -25 -5 6776.120 6535.480 250.675 23.142 o
-15 -25 -4 1669.530 1474.380 151.392 85.848 o
-15 -25 -3 155.544 -10.019 129.042 175.930 o
-15 -25 -2 393.670 555.312 131.282 149.031 o
-15 -25 -1 2756.560 2633.460 149.474 67.510 o
-15 -24 -7 1428.600 1155.490 205.665 58.036 o
-15 -24 -6 471.301 160.077 153.781 116.179 o
-15 -24 -5 355.981 488.247 146.489 125.435 o
-15 -24 -4 1679.210 1576.650 142.465 91.682 o
-15 -24 -3 7439.740 7325.960 183.160 27.136 o
-15 -24 -2 2551.340 2402.050 119.795 86.756 o
-15 -24 -1 1832.810 1847.790 131.225 95.613 o
-15 -23 -7 46.581 -111.323 169.087 106.246 o
-15 -23 -6 161.042 54.072 155.202 122.479 o
-15 -23 -5 574.764 493.479 150.507 114.550 o
-15 -23 -4 3333.320 3622.270 179.840 48.931 o
-15 -23 -3 2466.350 2622.770 129.935 80.602 o
-15 -23 -2 12018.700 11808.300 187.756 16.184 o
-15 -23 -1 2546.850 2429.630 104.872 95.687 o
-15 -22 -8 7742.620 6688.440 236.948 22.633 o
-15 -22 -7 5986.910 5838.820 190.144 32.026 o
-15 -22 -6 464.317 185.660 155.034 114.373 o
-15 -22 -5 402.740 368.345 128.123 158.653 o
-15 -22 -4 2961.610 2697.910 133.853 72.070 o
-15 -22 -3 9019.610 8416.210 231.453 19.882 o
-15 -22 -2 779.172 802.384 109.418 170.893 o
-15 -22 -1 158.247 74.472 92.697 321.036 o
-15 -21 -8 500.114 339.805 158.664 107.512 o
-15 -21 -7 2342.460 2241.230 150.080 73.531 o
-15 -21 -6 9568.060 8975.140 299.458 15.397 o
-15 -21 -5 24252.500 23533.400 349.145 5.375 o
-15 -21 -4 3481.230 3005.460 125.367 68.293 o
-15 -21 -3 163.242 235.114 100.345 267.857 o
-15 -21 -2 1074.280 916.664 101.878 168.130 o
-15 -21 -1 8243.260 7942.130 178.594 25.097 o
-15 -20 -9 3771.420 3919.520 271.195 28.364 o
-15 -20 -8 8826.530 8653.950 387.172 12.268 o
-15 -20 -7 779.700 749.844 147.294 111.318 o
-15 -20 -6 6391.010 6080.120 156.606 34.587 o
-15 -20 -5 5844.090 6027.020 175.294 34.112 o
-15 -20 -4 2043.000 2103.840 112.091 104.127 o
-15 -20 -3 29243.400 29091.700 313.915 4.282 o
-15 -20 -2 5293.320 5085.550 137.691 44.067 o
-15 -20 -1 10122.300 9935.090 178.249 20.104 o
-15 -19 -9 4855.700 4653.720 226.614 31.672 o
-15 -19 -8 3906.300 4113.060 278.242 26.976 o
-15 -19 -7 13939.400 13131.300 316.135 10.657 o
-15 -19 -6 498.487 591.917 122.550 161.530 o
-15 -19 -5 8931.000 8523.370 247.313 18.991 o
-15 -19 -4 10860.800 10143.000 226.648 16.872 o
-15 -19 -3 3307.740 3547.150 117.051 70.401 o
-15 -19 -2 10337.900 10200.800 184.614 19.314 o
-15 -19 -1 14858.700 14715.700 254.972 11.091 o
-15 -18 -9 11723.700 11209.600 296.555 13.052 o
-15 -18 -8 504.970 764.472 158.153 104.046 o
-15 -18 -7 3407.020 3510.740 153.780 56.696 o
-15 -18 -6 23911.800 23032.000 265.250 6.048 o
-15 -18 -5 11131.200 11067.800 212.119 16.670 o
-15 -18 -4 22902.100 21916.500 324.182 5.998 o
-15 -18 -3 2465.460 2764.460 107.708 92.358 o
-15 -18 -2 6797.050 6526.920 162.788 31.856 o
-15 -18 -1 2430.620 2072.940 74.031 124.370 o
-15 -17 -10 1043.300 887.441 202.091 63.221 o
-15 -17 -9 10510.800 10635.400 285.850 14.537 o
-15 -17 -8 6726.940 7162.910 216.920 25.745 o
-15 -17 -7 14943.700 14406.400 238.045 11.479 o
-15 -17 -6 5762.660 5507.820 149.123 39.065 o
-15 -17 -5 2793.820 2637.510 124.396 79.034 o
-15 -17 -4 18794.900 18558.100 325.467 7.513 o
-15 -17 -3 894.487 910.327 91.640 200.877 o
-15 -17 -2 5192.950 5043.860 113.717 49.010 o
-15 -17 -1 5916.890 5750.150 138.340 39.453 o
-15 -16 -10 2463.020 2214.140 188.543 55.330 o
-15 -16 -9 5233.890 5162.360 259.903 25.968 o
-15 -16 -8 4480.540 4251.090 176.144 42.586 o
-15 -16 -7 3847.700 3975.230 142.664 55.169 o
-15 -16 -6 8698.850 8869.050 213.577 21.107 o
-15 -16 -5 1747.640 1715.070 117.898 110.117 o
-15 -16 -4 4828.980 4742.860 148.025 45.451 o
-15 -16 -3 15737.700 15499.100 184.563 11.619 o
-15 -16 -2 611.675 637.963 66.022 340.377 o
-15 -16 -1 14606.800 14103.100 249.143 11.543 o
-15 -15 -10 6738.650 5986.250 314.872 18.465 o
-15 -15 -9 988.736 970.480 140.550 112.279 o
-15 -15 -8 1197.090 1314.280 136.949 107.970 o
-15 -15 -7 2059.570 2183.890 125.233 93.149 o
-15 -15 -6 1144.360 1064.160 116.475 138.016 o
-15 -15 -5 35112.800 35077.800 416.123 3.021 o
-15 -15 -4 129.054 4.434 70.839 541.852 o
-15 -15 -3 2747.510 2841.890 96.712 92.828 o
-15 -15 -2 2221.600 2422.570 77.793 122.590 o
-15 -15 -1 7735.370 7919.830 140.949 29.202 o
-15 -14 -11 750.880 778.234 201.836 65.883 o
-15 -14 -10 2003.720 1749.780 177.594 65.043 o
-15 -14 -9 804.350 708.527 134.153 128.500 o
-15 -14 -8 5422.760 5032.450 152.608 41.016 o
-15 -14 -7 16184.100 16422.100 347.709 8.413 o
-15 -14 -6 1457.000 1521.210 107.253 132.218 o
-15 -14 -5 1328.460 1594.500 111.385 130.088 o
-15 -14 -4 185.093 171.008 73.161 459.500 o
-15 -14 -3 6445.740 6192.260 146.276 35.449 o
-15 -14 -2 8941.620 8839.710 158.890 24.097 o
-15 -14 -1 6889.410 6965.680 117.933 35.452 o
-15 -13 -11 4439.820 4378.660 281.281 25.479 o
-15 -13 -10 2802.680 2703.480 175.976 56.170 o
-15 -13 -9 2520.930 2258.270 139.509 77.018 o
-15 -13 -8 174.717 282.723 109.479 226.451 o
-15 -13 -7 1209.750 1255.560 115.738 133.679 o
-15 -13 -6 1088.900 853.804 100.200 172.201 o
-15 -13 -5 6441.550 5948.020 137.105 37.041 o
-15 -13 -4 7482.150 7408.620 145.357 30.253 o
-15 -13 -3 10288.400 10583.900 203.757 18.270 o
-15 -13 -2 6988.930 7187.330 135.762 32.983 o
-15 -13 -1 6279.720 6599.960 106.254 39.972 o
-15 -12 -11 9956.380 8661.510 458.850 9.501 o
-15 -12 -10 2151.970 2198.860 196.032 54.449 o
-15 -12 -9 3063.250 3049.650 137.414 67.587 o
-15 -12 -8 1032.290 1281.410 109.262 149.085 o
-15 -12 -7 617.946 558.530 105.289 196.895 o
-15 -12 -6 3142.370 3203.390 122.559 72.052 o
-15 -12 -5 362.607 326.648 73.683 382.501 o
-15 -12 -4 18566.800 18312.400 227.608 8.809 o
-15 -12 -3 4014.800 4018.880 109.360 63.152 o
-15 -12 -2 15510.900 15399.000 204.638 11.456 o
-15 -12 -1 18013.300 18457.700 173.630 9.628 o
-15 -11 -11 1080.310 787.365 196.384 66.438 o
-15 -11 -10 4659.460 4777.590 180.976 39.754 o
-15 -11 -9 14408.000 13394.100 314.585 10.397 o
-15 -11 -8 1513.560 1590.730 112.588 123.188 o
-15 -11 -7 5759.090 5460.330 171.418 35.896 o
-15 -11 -6 3468.960 3678.940 122.923 65.863 o
-15 -11 -5 10119.100 10260.700 242.340 16.912 o
-15 -11 -4 2507.360 2552.010 85.832 107.413 o
-15 -11 -3 8309.500 8281.620 145.111 26.971 o
-15 -11 -2 21415.200 21641.200 239.391 7.086 o
-15 -11 -1 6870.160 6878.220 131.494 34.337 o
-15 -10 -11 8184.250 7104.020 445.714 10.778 o
-15 -10 -10 1036.540 873.516 119.162 141.030 o
-15 -10 -9 144.841 66.980 106.459 251.068 o
-15 -10 -8 7832.790 7469.840 219.896 23.178 o
-15 -10 -7 10981.100 10847.200 322.771 12.768 o
-15 -10 -6 3266.530 3330.400 103.879 77.422 o
-15 -10 -5 2120.730 1997.160 85.275 126.207 o
-15 -10 -4 9692.760 10008.000 229.292 18.145 o
-15 -10 -3 7678.830 7584.720 137.109 30.133 o
-15 -10 -2 5029.780 5093.510 139.796 45.043 o
-15 -10 -1 8907.910 8609.010 183.221 22.878 o
-15 -9 -11 3498.640 2971.610 189.100 47.190 o
-15 -9 -10 6473.970 6632.840 195.199 29.080 o
-15 -9 -9 4230.550 4282.710 138.597 52.508 o
-15 -9 -8 1114.240 975.814 96.661 174.424 o
-15 -9 -7 3423.400 3559.400 126.319 65.710 o
-15 -9 -6 3848.490 4016.040 115.474 62.958 o
-15 -9 -5 5781.900 5427.830 122.321 43.168 o
-15 -9 -4 2306.730 2156.100 81.431 121.233 o
-15 -9 -3 1329.710 1151.350 68.519 209.987 o
-15 -9 -2 14898.600 15156.100 210.456 11.819 o
-15 -9 -1 5091.110 5047.080 123.170 47.910 o
-15 -8 -12 2556.850 2874.770 264.310 33.149 o
-15 -8 -11 3677.650 3351.290 176.921 48.602 o
-15 -8 -10 5851.530 6309.920 204.771 29.947 o
-15 -8 -9 3920.770 3977.900 119.747 61.205 o
-15 -8 -8 1886.440 1909.900 100.000 120.983 o
-15 -8 -7 2969.500 2964.070 106.832 82.940 o
-15 -8 -6 608.174 705.385 86.014 251.132 o
-15 -8 -5 4595.500 4720.010 118.661 53.134 o
-15 -8 -4 4038.480 3906.480 103.169 65.244 o
-15 -8 -3 17291.400 17337.100 262.632 9.106 o
-15 -8 -2 4003.340 4011.080 105.229 64.481 o
-15 -8 -1 5690.010 5481.710 97.065 47.220 o
-15 -7 -12 1823.710 1607.180 186.817 62.563 o
-15 -7 -11 3276.160 3319.270 194.556 45.945 o
-15 -7 -10 3635.140 3355.660 118.983 67.194 o
-15 -7 -9 6926.390 7234.400 156.765 31.049 o
-15 -7 -8 5594.660 5694.570 120.498 43.719 o
-15 -7 -7 10505.800 10548.400 184.029 18.875 o
-15 -7 -6 5163.630 5055.790 170.110 39.107 o
-15 -7 -5 2456.380 2497.080 90.052 106.507 o
-15 -7 -4 5538.100 5411.020 141.959 41.367 o
-15 -7 -3 5861.770 6149.970 110.456 42.581 o
-15 -7 -2 2891.670 3101.630 89.263 91.644 o
-15 -7 -1 594.265 543.886 46.321 474.785 o
-15 -6 -12 3194.670 2752.400 212.032 42.964 o
-15 -6 -11 5052.010 4830.030 181.512 38.032 o
-15 -6 -10 2157.220 1917.620 108.461 106.562 o
-15 -6 -9 5582.380 5436.710 172.425 36.420 o
-15 -6 -8 5099.120 4682.560 116.304 50.299 o
-15 -6 -7 5036.330 5447.020 130.062 45.821 o
-15 -6 -6 4910.820 5118.450 152.085 43.299 o
-15 -6 -5 7503.470 7626.920 197.701 25.427 o
-15 -6 -4 1230.030 1273.600 68.582 213.007 o
-15 -6 -3 4826.660 5016.650 106.713 52.883 o
-15 -6 -2 6654.660 6710.310 124.054 36.215 o
-15 -6 -1 3102.340 3351.660 100.708 80.900 o
-15 -5 -12 4231.810 4345.560 180.377 42.593 o
-15 -5 -11 104.747 276.774 123.621 186.014 o
-15 -5 -10 6499.170 6296.550 169.080 32.400 o
-15 -5 -9 729.449 705.047 89.596 227.592 o
-15 -5 -8 3276.550 3209.550 98.848 80.192 o
-15 -5 -7 3790.950 3615.910 137.225 58.576 o
-15 -5 -6 4215.730 4351.350 112.583 58.969 o
-15 -5 -5 3896.790 3848.740 128.647 59.346 o
-15 -5 -4 101.753 38.877 56.770 804.440 o
-15 -5 -3 12200.900 12733.800 205.059 15.004 o
-15 -5 -2 15192.900 15519.200 188.701 11.903 o
-15 -5 -1 7643.060 7606.330 110.587 32.299 o
-15 -4 -12 304.661 312.959 178.935 89.334 o
-15 -4 -11 688.887 843.940 135.245 128.269 o
-15 -4 -10 6662.140 6639.760 197.095 28.415 o
-15 -4 -9 1299.130 1085.010 82.727 186.985 o
-15 -4 -8 16017.700 16239.300 326.804 8.850 o
-15 -4 -7 9031.540 8888.040 132.487 25.396 o
-15 -4 -6 9226.320 8846.530 182.969 22.135 o
-15 -4 -5 5245.580 5402.530 154.439 40.675 o
-15 -4 -4 5448.170 5601.050 139.758 41.693 o
-15 -4 -3 14242.900 14530.100 221.452 12.241 o
-15 -4 -2 3767.260 3647.710 75.872 78.229 o
-15 -4 -1 4067.530 4299.890 89.972 66.497 o
-15 -3 -12 6041.070 5955.360 241.040 25.834 o
-15 -3 -11 3821.580 4004.530 132.179 58.284 o
-15 -3 -10 9813.840 9729.970 188.737 20.199 o
-15 -3 -9 1838.470 1887.230 104.201 118.624 o
-15 -3 -8 9927.120 9945.830 184.718 20.074 o
-15 -3 -7 242.224 147.616 70.249 473.326 o
-15 -3 -6 10848.100 11142.100 176.362 18.348 o
-15 -3 -5 6064.350 5805.280 170.751 34.355 o
-15 -3 -4 8752.390 9038.600 178.352 23.075 o
-15 -3 -3 12475.000 12008.800 172.607 16.057 o
-15 -3 -2 11994.100 11914.600 194.119 15.950 o
-15 -3 -1 658.114 681.293 47.715 421.354 o
-15 -2 -12 6336.910 5966.430 205.558 29.081 o
-15 -2 -11 11121.500 10719.900 237.878 15.856 o
-15 -2 -10 3117.950 3154.610 107.473 79.132 o
-15 -2 -9 1061.440 1098.960 89.221 188.785 o
-15 -2 -8 1614.420 1606.940 87.173 150.032 o
-15 -2 -7 3070.010 3285.920 91.592 85.884 o
-15 -2 -6 3884.110 3913.470 86.374 71.799 o
-15 -2 -5 2070.740 2249.920 64.135 141.955 o
-15 -2 -4 26457.300 27949.800 388.516 4.428 o
-15 -2 -3 16910.800 16957.300 203.086 10.222 o
-15 -2 -2 24894.600 24969.100 399.605 4.821 o
-15 -2 -1 16351.900 15922.300 201.689 10.839 o
-15 -1 -12 5286.930 5332.940 204.327 32.842 o
-15 -1 -11 5527.050 5694.390 156.247 38.580 o
-15 -1 -10 3284.950 3446.020 110.848 73.655 o
-15 -1 -9 8984.180 9097.600 185.085 22.207 o
-15 -1 -8 2267.630 2135.800 96.786 110.587 o
-15 -1 -7 1240.440 1359.840 71.731 202.564 o
-15 -1 -6 7711.600 7775.900 124.461 30.759 o
-15 -1 -5 208.660 191.563 44.981 874.888 o
-15 -1 -4 8302.890 8379.480 138.945 27.290 o
-15 -1 -3 16539.000 16447.500 279.267 9.374 o
-15 -1 -2 38763.600 39257.000 536.546 2.372 o
-15 -1 -1 10106.800 10085.700 117.017 22.699 o
-14 -30 -1 2199.570 1924.200 183.541 60.107 o
-14 -29 -3 1469.700 1543.260 177.968 70.442 o
-14 -29 -2 262.700 52.881 164.546 107.506 o
-14 -29 -1 913.713 759.036 172.609 84.255 o
-14 -28 -4 307.216 170.527 209.640 66.756 o
-14 -28 -3 691.414 826.669 160.941 97.355 o
-14 -28 -2 719.510 382.365 135.352 133.963 o
-14 -28 -1 4057.180 3980.730 171.315 46.359 o
-14 -27 -5 878.660 525.573 210.707 61.064 o
-14 -27 -4 1667.440 1375.020 150.319 87.376 o
-14 -27 -3 4927.440 4393.990 199.140 36.227 o
-14 -27 -2 1297.310 1157.960 127.830 117.464 o
-14 -27 -1 1317.440 1495.140 132.455 108.074 o
-14 -26 -6 2788.470 3191.240 252.865 34.401 o
-14 -26 -5 467.741 388.518 159.986 106.094 o
-14 -26 -4 658.271 498.888 140.973 125.517 o
-14 -26 -3 867.330 732.302 141.140 117.099 o
-14 -26 -2 552.443 546.978 122.217 160.851 o
-14 -26 -1 10826.100 10838.000 298.334 13.746 o
-14 -25 -7 7651.760 7266.180 362.625 14.406 o
-14 -25 -6 650.962 564.023 162.106 98.991 o
-14 -25 -5 1110.710 1071.980 167.135 84.136 o
-14 -25 -4 5827.760 6100.910 231.890 27.100 o
-14 -25 -3 9677.690 9453.480 196.447 20.204 o
-14 -25 -2 5723.380 5576.790 144.719 39.741 o
-14 -25 -1 2498.330 2551.640 118.094 87.414 o
-14 -24 -7 157.698 301.394 163.666 108.244 o
-14 -24 -6 2111.180 2126.230 161.378 70.596 o
-14 -24 -5 3474.760 3238.780 155.369 56.678 o
-14 -24 -4 6115.360 6186.840 174.314 33.121 o
-14 -24 -3 182.351 167.689 92.943 308.395 o
-14 -24 -2 25869.000 25035.300 292.713 5.260 o
-14 -24 -1 5427.500 5557.430 159.488 38.761 o
-14 -23 -8 966.917 1009.860 195.371 67.032 o
-14 -23 -7 410.155 296.030 152.928 117.190 o
-14 -23 -6 2665.580 2625.020 163.589 62.289 o
-14 -23 -5 2364.890 2406.300 150.616 72.111 o
-14 -23 -4 6481.360 6337.900 166.219 32.724 o
-14 -23 -3 5764.290 5553.690 173.954 35.352 o
-14 -23 -2 5905.820 5747.700 174.465 34.478 o
-14 -23 -1 255.060 234.643 87.649 322.487 o
-14 -22 -8 1614.440 1759.720 167.740 73.968 o
-14 -22 -7 906.475 907.932 149.547 104.610 o
-14 -22 -6 6028.520 5878.740 177.911 33.416 o
-14 -22 -5 4335.840 4519.430 146.399 49.209 o
-14 -22 -4 12635.800 12456.600 265.446 12.960 o
-14 -22 -3 2314.270 2586.350 116.289 91.276 o
-14 -22 -2 19646.200 18729.400 250.630 8.052 o
-14 -22 -1 11876.100 11583.700 164.152 17.227 o
-14 -21 -9 559.905 738.341 230.109 53.169 o
-14 -21 -8 8122.000 8078.690 358.660 14.030 o
-14 -21 -7 10101.000 9860.530 330.811 13.352 o
-14 -21 -6 2429.420 2522.890 131.522 80.897 o
-14 -21 -5 7184.490 7079.060 161.842 30.044 o
-14 -21 -4 11118.100 11123.000 272.292 14.375 o
-14 -21 -3 18511.800 18240.900 223.773 8.892 o
-14 -21 -2 10226.300 10038.200 214.461 18.196 o
-14 -21 -1 2998.880 2824.040 92.465 90.636 o
-14 -20 -9 1998.040 1889.930 203.859 53.266 o
-14 -20 -8 2696.740 2383.210 155.131 66.736 o
-14 -20 -7 473.193 326.181 127.068 158.819 o
-14 -20 -6 2775.490 2688.920 133.806 74.283 o
-14 -20 -5 5582.540 5051.720 137.273 42.768 o
-14 -20 -4 1894.170 1829.660 113.764 109.130 o
-14 -20 -3 558.957 655.170 98.451 217.121 o
-14 -20 -2 3324.660 3423.950 100.142 77.498 o
-14 -20 -1 24425.300 23429.600 266.342 5.876 o
-14 -19 -10 898.947 893.455 208.950 60.644 o
-14 -19 -9 1760.650 1685.320 189.744 61.358 o
-14 -19 -8 1265.270 1377.320 137.995 104.846 o
-14 -19 -7 5979.170 5806.480 155.208 36.742 o
-14 -19 -6 275.530 525.422 102.834 231.730 o
-14 -19 -5 4643.270 4309.990 132.428 51.140 o
-14 -19 -4 6670.460 6630.330 221.656 25.931 o
-14 -19 -3 2819.690 2865.250 110.329 84.222 o
-14 -19 -2 3788.240 3754.480 131.998 59.636 o
-14 -19 -1 12381.100 11733.400 180.268 16.075 o
-14 -18 -10 4118.260 3693.340 268.975 28.234 o
-14 -18 -9 14440.800 13822.800 354.128 9.440 o
-14 -18 -8 6501.960 6042.280 183.319 31.110 o
-14 -18 -7 1847.670 2060.640 114.668 106.771 o
-14 -18 -6 21311.100 20306.200 303.490 6.762 o
-14 -18 -5 22090.900 22233.400 300.142 6.339 o
-14 -18 -4 738.403 829.984 97.380 200.324 o
-14 -18 -3 4347.600 3984.380 122.549 56.827 o
-14 -18 -2 5087.170 5081.910 129.423 46.678 o
-14 -18 -1 2393.980 2365.560 99.632 102.905 o
-14 -17 -10 4640.000 4822.800 256.500 27.812 o
-14 -17 -9 3127.580 3100.490 152.296 60.968 o
-14 -17 -8 12223.300 11406.000 231.774 14.742 o
-14 -17 -7 21435.200 21244.500 360.915 6.102 o
-14 -17 -6 3542.360 3707.490 123.513 64.798 o
-14 -17 -5 2587.810 2495.500 103.127 95.361 o
-14 -17 -4 25834.000 25101.100 258.718 5.435 o
-14 -17 -3 17370.300 17725.700 278.537 8.769 o
-14 -17 -2 6.833 46.695 65.916 681.881 o
-14 -17 -1 3558.880 3615.930 100.346 73.147 o
-14 -16 -11 2198.390 2141.690 431.534 14.997 o
-14 -16 -10 4711.110 4538.730 225.046 32.438 o
-14 -16 -9 4131.130 4298.320 157.296 48.476 o
-14 -16 -8 5501.770 5156.390 162.804 38.748 o
-14 -16 -7 1502.560 1454.480 118.753 118.553 o
-14 -16 -6 7140.330 7220.560 180.001 28.254 o
-14 -16 -5 15103.000 15094.800 238.109 11.176 o
-14 -16 -4 474.035 394.666 75.956 337.295 o
-14 -16 -3 4273.250 4103.210 136.059 53.469 o
-14 -16 -2 476.543 531.026 64.643 390.239 o
-14 -16 -1 9989.850 9955.780 152.956 21.478 o
-14 -15 -11 2568.120 2548.220 224.479 42.577 o
-14 -15 -10 6137.080 6347.210 223.293 27.142 o
-14 -15 -9 1624.830 1880.780 138.965 92.832 o
-14 -15 -8 5376.730 5407.280 158.022 39.513 o
-14 -15 -7 9501.340 8723.120 192.701 21.226 o
-14 -15 -6 129.256 -18.671 93.314 328.145 o
-14 -15 -5 464.600 496.621 103.172 216.164 o
-14 -15 -4 10173.700 10044.200 198.608 18.999 o
-14 -15 -3 22019.500 21916.300 333.157 6.128 o
-14 -15 -2 4058.120 4243.000 109.152 61.751 o
-14 -15 -1 3042.030 3083.680 74.972 95.653 o
-14 -14 -11 1167.420 462.793 194.987 67.840 o
-14 -14 -10 4795.350 4345.110 207.559 35.304 o
-14 -14 -9 12774.900 12624.400 214.371 14.267 o
-14 -14 -8 2441.350 2621.840 129.803 81.022 o
-14 -14 -7 339.022 55.523 107.758 228.548 o
-14 -14 -6 13633.700 13335.500 263.789 12.045 o
-14 -14 -5 6685.090 6531.710 152.830 33.287 o
-14 -14 -4 5000.270 5196.400 131.791 46.408 o
-14 -14 -3 613.275 593.516 68.778 330.641 o
-14 -14 -2 5992.190 6410.680 106.748 41.742 o
-14 -14 -1 3921.360 3778.400 88.199 71.633 o
-14 -13 -11 7547.610 6654.200 303.150 18.113 o
-14 -13 -10 197.044 -19.024 125.405 183.564 o
-14 -13 -9 2380.280 2707.610 121.202 86.213 o
-14 -13 -8 2928.210 2907.900 116.558 79.266 o
-14 -13 -7 1736.150 1776.290 113.645 113.683 o
-14 -13 -6 175.480 -47.538 89.085 348.589 o
-14 -13 -5 1598.420 1786.160 99.650 132.158 o
-14 -13 -4 6141.190 5973.220 119.996 40.419 o
-14 -13 -3 2661.500 2404.590 83.550 106.930 o
-14 -13 -2 5508.100 5513.730 111.109 46.123 o
-14 -13 -1 1000.500 983.921 55.522 286.271 o
-14 -12 -11 2962.070 2537.920 153.589 64.279 o
-14 -12 -10 898.712 957.257 114.664 152.017 o
-14 -12 -9 8680.500 8529.250 193.755 22.673 o
-14 -12 -8 3624.680 3760.480 129.918 61.671 o
-14 -12 -7 2065.960 2249.070 121.963 94.792 o
-14 -12 -6 4059.280 3982.140 125.991 58.221 o
-14 -12 -5 379.848 208.994 73.958 390.664 o
-14 -12 -4 646.682 648.434 67.663 324.908 o
-14 -12 -3 3894.780 4071.920 95.466 68.113 o
-14 -12 -2 22670.700 23757.500 284.030 6.132 o
-14 -12 -1 228.911 196.268 45.489 837.302 o
-14 -11 -12 4561.460 4718.220 230.098 31.819 o
-14 -11 -11 10918.600 9788.200 347.787 12.262 o
-14 -11 -10 1587.870 1630.320 114.637 118.378 o
-14 -11 -9 4823.440 4684.560 154.313 44.378 o
-14 -11 -8 13812.800 13529.800 243.499 12.365 o
-14 -11 -7 14016.300 14111.300 220.633 12.562 o
-14 -11 -6 3620.250 3644.360 120.691 65.296 o
-14 -11 -5 7254.070 7361.970 177.948 27.997 o
-14 -11 -4 14605.300 14971.500 187.018 12.536 o
-14 -11 -3 3375.400 3402.220 95.197 78.875 o
-14 -11 -2 2334.320 2509.260 73.594 120.927 o
-14 -11 -1 1247.930 1311.680 48.484 250.405 o
-14 -10 -12 347.006 394.964 180.038 87.265 o
-14 -10 -11 2453.710 2415.620 147.390 72.747 o
-14 -10 -10 8308.150 7954.490 228.095 21.435 o
-14 -10 -9 13285.100 12847.600 249.382 12.814 o
-14 -10 -8 5288.920 5047.450 159.311 40.439 o
-14 -10 -7 4011.820 3905.580 127.157 58.592 o
-14 -10 -6 18771.100 18495.500 295.285 7.894 o
-14 -10 -5 8916.070 8898.370 150.171 24.611 o
-14 -10 -4 3268.980 3220.890 88.344 84.577 o
-14 -10 -3 4515.730 4768.560 109.993 55.453 o
-14 -10 -2 7468.870 7373.550 134.851 31.253 o
-14 -10 -1 17064.400 16547.500 252.042 9.538 o
-14 -9 -12 4125.980 4122.310 249.672 30.597 o
-14 -9 -11 1395.380 1197.960 133.674 108.359 o
-14 -9 -10 2138.220 2126.000 147.210 78.181 o
-14 -9 -9 1622.970 1570.580 103.160 130.874 o
-14 -9 -8 2429.150 2333.790 105.441 98.556 o
-14 -9 -7 4887.600 4831.800 114.280 51.613 o
-14 -9 -6 1323.260 1260.840 82.210 181.007 o
-14 -9 -5 11705.300 12112.600 198.950 15.987 o
-14 -9 -4 5930.530 6322.050 115.754 41.133 o
-14 -9 -3 9554.910 9819.500 203.344 19.758 o
-14 -9 -2 80.844 128.706 49.173 982.170 o
-14 -9 -1 2743.200 2549.910 68.566 111.946 o
-14 -8 -12 633.454 467.438 205.957 65.517 o
-14 -8 -11 962.631 777.717 119.303 145.190 o
-14 -8 -10 4019.270 4108.470 124.318 58.497 o
-14 -8 -9 15595.200 15085.600 303.150 9.682 o
-14 -8 -8 12688.900 12534.200 215.668 14.343 o
-14 -8 -7 1463.870 1519.650 88.876 156.317 o
-14 -8 -6 13540.600 13985.300 214.984 13.088 o
-14 -8 -5 4709.780 4917.510 113.349 52.744 o
-14 -8 -4 4528.690 4513.740 157.859 45.592 o
-14 -8 -3 8046.610 8464.010 151.335 26.942 o
-14 -8 -2 4965.380 5203.880 121.086 48.585 o
-14 -8 -1 8634.710 8597.610 151.504 25.444 o
-14 -7 -12 1192.020 1030.500 166.886 83.562 o
-14 -7 -11 3381.030 3396.950 140.478 61.839 o
-14 -7 -10 3798.470 3913.740 128.445 59.961 o
-14 -7 -9 1389.490 1469.800 91.335 157.309 o
-14 -7 -8 18031.500 17185.700 285.871 8.515 o
-14 -7 -7 25061.200 25056.200 353.582 5.063 o
-14 -7 -6 7148.000 6958.050 137.071 32.712 o
-14 -7 -5 16765.200 16893.800 265.057 9.398 o
-14 -7 -4 37240.400 39156.300 542.971 2.446 o
-14 -7 -3 6778.640 6994.610 133.440 34.256 o
-14 -7 -2 13589.400 14206.600 197.147 13.385 o
-14 -7 -1 2385.730 2119.270 62.066 133.973 o
-14 -6 -12 3059.230 3347.080 243.605 35.296 o
-14 -6 -11 3598.760 3677.620 143.141 58.011 o
-14 -6 -10 7708.320 7611.330 206.324 24.339 o
-14 -6 -9 10492.700 10217.100 210.657 17.939 o
-14 -6 -8 14476.700 14424.500 241.249 11.694 o
-14 -6 -7 7067.270 6997.450 151.589 31.492 o
-14 -6 -6 12756.200 12863.700 222.517 13.951 o
-14 -6 -5 15332.100 15705.300 200.642 11.542 o
-14 -6 -4 10801.300 11197.200 247.794 15.546 o
-14 -6 -3 16410.000 16149.700 252.506 9.936 o
-14 -6 -2 9445.050 9882.030 140.122 23.128 o
-14 -6 -1 5755.740 5983.960 104.608 44.352 o
-14 -5 -12 509.498 417.416 143.263 127.190 o
-14 -5 -11 628.121 730.867 117.242 163.643 o
-14 -5 -10 10754.300 11033.700 221.738 16.712 o
-14 -5 -9 2987.280 3228.560 109.510 79.525 o
-14 -5 -8 13396.800 13454.200 287.236 11.565 o
-14 -5 -7 10650.700 10361.900 197.912 18.213 o
-14 -5 -6 710.187 604.117 55.965 373.741 o
-14 -5 -5 23756.400 24155.400 341.915 5.459 o
-14 -5 -4 5331.370 5658.600 121.580 45.054 o
-14 -5 -3 14365.700 14123.000 192.000 12.928 o
-14 -5 -2 4838.230 4751.380 114.738 52.140 o
-14 -5 -1 13667.100 13276.300 227.629 12.948 o
-14 -4 -12 5328.730 5356.360 181.426 36.093 o
-14 -4 -11 2791.660 2867.610 133.440 73.227 o
-14 -4 -10 5965.730 5907.830 192.953 31.632 o
-14 -4 -9 22100.100 21904.400 370.314 5.808 o
-14 -4 -8 5129.480 5342.170 109.377 49.228 o
-14 -4 -7 817.718 869.642 58.279 314.947 o
-14 -4 -6 32041.400 31580.000 517.864 3.116 o
-14 -4 -5 27663.600 28034.900 469.479 3.883 o
-14 -4 -4 2550.630 2374.590 67.401 120.589 o
-14 -4 -3 26907.800 26912.200 378.232 4.489 o
-14 -4 -2 5505.830 5636.990 103.700 46.899 o
-14 -4 -1 1941.330 2111.840 52.510 161.127 o
-14 -3 -12 3091.720 3114.700 194.735 47.283 o
-14 -3 -11 5349.830 5576.030 179.997 35.857 o
-14 -3 -10 5904.660 6169.370 151.365 36.858 o
-14 -3 -9 3206.880 3176.960 103.917 79.278 o
-14 -3 -8 13753.800 13856.700 247.742 12.193 o
-14 -3 -7 24711.000 24409.400 348.270 5.214 o
-14 -3 -6 4709.260 4838.540 104.039 54.957 o
-14 -3 -5 21909.700 22340.700 388.034 5.658 o
-14 -3 -4 48621.000 47741.900 736.057 1.528 o
-14 -3 -3 7602.100 7271.180 118.947 32.327 o
-14 -3 -2 5026.310 4942.690 79.885 56.510 o
-14 -3 -1 1828.730 1853.990 62.428 163.801 o
-14 -2 -12 15.686 -24.433 126.704 189.802 o
-14 -2 -11 504.724 760.845 106.981 193.207 o
-14 -2 -10 1392.850 1404.870 93.625 155.248 o
-14 -2 -9 3473.950 3578.510 116.643 68.550 o
-14 -2 -8 11914.400 11769.400 217.523 15.331 o
-14 -2 -7 1124.120 1296.860 59.769 240.724 o
-14 -2 -6 11973.600 11726.000 194.352 16.061 o
-14 -2 -5 7102.260 7499.710 111.284 34.288 o
-14 -2 -4 4579.400 4691.140 114.358 54.301 o
-14 -2 -3 6978.380 6751.350 112.671 36.028 o
-14 -2 -2 26401.400 25743.900 437.949 4.330 o
-14 -2 -1 922.031 1159.570 41.342 326.684 o
-14 -1 -12 3107.530 3314.450 141.734 64.184 o
-14 -1 -11 6321.260 6637.870 161.402 33.318 o
-14 -1 -10 1800.960 1979.580 103.661 118.903 o
-14 -1 -9 378.011 377.691 86.966 295.994 o
-14 -1 -8 17398.600 17655.900 257.117 9.070 o
-14 -1 -7 17131.200 17954.700 240.855 9.346 o
-14 -1 -6 1061.760 1295.950 64.349 236.603 o
-14 -1 -5 8956.830 9054.270 157.093 23.962 o
-14 -1 -4 46929.500 46268.200 603.744 1.758 o
-14 -1 -3 4599.030 4250.110 77.938 64.003 o
-14 -1 -2 139.756 103.149 37.788 1302.230 o
-14 -1 -1 3636.770 3675.910 103.958 70.613 o
-13 -30 -3 3964.760 3702.630 227.137 35.355 o
-13 -30 -2 194.490 77.188 212.132 66.368 o
-13 -30 -1 994.053 687.931 153.819 100.569 o
-13 -29 -4 2485.050 3020.950 224.984 41.869 o
-13 -29 -3 906.773 1009.700 156.099 97.058 o
-13 -29 -2 41.879 199.045 147.287 136.824 o
-13 -29 -1 2498.940 2431.540 150.124 70.810 o
-13 -28 -5 1061.920 1060.620 170.513 82.231 o
-13 -28 -4 1604.900 1527.630 161.885 79.049 o
-13 -28 -3 14237.900 13921.700 296.754 10.748 o
-13 -28 -2 743.213 777.034 130.296 135.087 o
-13 -28 -1 1325.160 1200.590 146.387 97.416 o
-13 -27 -6 3469.050 3049.140 181.223 49.362 o
-13 -27 -5 5021.890 4516.890 208.568 34.178 o
-13 -27 -4 2709.430 2674.830 185.658 53.426 o
-13 -27 -3 212.171 196.890 131.027 163.932 o
-13 -27 -2 1055.130 1021.070 140.576 110.237 o
-13 -27 -1 2574.430 2642.410 145.782 71.019 o
-13 -26 -7 1184.640 972.726 202.300 61.833 o
-13 -26 -6 8663.770 7653.470 308.794 16.266 o
-13 -26 -5 6413.200 6031.260 174.797 32.388 o
-13 -26 -4 6378.730 5931.440 160.632 34.386 o
-13 -26 -3 435.821 660.217 127.541 152.650 o
-13 -26 -2 496.118 326.220 106.335 210.365 o
-13 -26 -1 2279.950 2262.830 115.415 95.348 o
-13 -25 -7 6604.920 6141.790 226.575 26.057 o
-13 -25 -6 9213.290 9020.420 260.178 17.665 o
-13 -25 -5 4259.830 4450.790 158.555 47.036 o
-13 -25 -4 2755.240 2718.560 121.699 80.386 o
-13 -25 -3 1518.090 1269.960 110.998 129.705 o
-13 -25 -2 3925.790 3962.690 118.321 61.647 o
-13 -25 -1 674.400 820.995 102.087 193.016 o
-13 -24 -8 3612.540 3679.680 202.662 41.674 o
-13 -24 -7 3220.070 3129.090 179.645 51.009 o
-13 -24 -6 2595.930 2483.090 210.353 46.575 o
-13 -24 -5 2551.800 2313.110 115.903 89.804 o
-13 -24 -4 3929.020 3730.610 123.843 61.011 o
-13 -24 -3 531.706 634.271 95.987 228.007 o
-13 -24 -2 713.007 587.980 94.708 218.647 o
-13 -24 -1 554.437 586.588 95.685 229.094 o
-13 -23 -8 876.698 657.780 195.782 68.940 o
-13 -23 -7 1051.290 939.270 187.149 71.543 o
-13 -23 -6 1080.540 847.013 133.084 120.595 o
-13 -23 -5 17.032 78.885 116.299 221.897 o
-13 -23 -4 2903.230 2805.170 123.023 77.181 o
-13 -23 -3 1233.620 1200.880 109.014 143.253 o
-13 -23 -2 2624.420 2762.130 128.469 78.360 o
-13 -23 -1 3997.820 3626.940 125.951 60.231 o
-13 -22 -9 4653.420 4220.730 202.504 36.853 o
-13 -22 -8 4085.580 3873.220 190.498 42.057 o
-13 -22 -7 5897.730 5641.220 183.040 33.518 o
-13 -22 -6 5738.610 5492.550 156.826 38.050 o
-13 -22 -5 5351.790 4855.590 143.211 43.384 o
-13 -22 -4 4502.330 4373.310 122.668 54.148 o
-13 -22 -3 1507.930 1397.960 95.601 147.686 o
-13 -22 -2 2850.240 2746.980 100.880 89.605 o
-13 -22 -1 8595.950 8083.680 197.570 22.953 o
-13 -21 -9 8418.890 7754.400 256.067 19.565 o
-13 -21 -8 8446.790 7880.140 205.128 22.865 o
-13 -21 -7 6158.690 5780.690 174.563 33.592 o
-13 -21 -6 7308.380 6848.830 171.688 29.084 o
-13 -21 -5 2829.910 2737.780 125.530 77.341 o
-13 -21 -4 14787.000 14426.400 248.865 11.343 o
-13 -21 -3 7670.540 7005.550 148.485 30.017 o
-13 -21 -2 4501.230 4110.440 106.794 59.000 o
-13 -21 -1 1699.000 1520.940 86.767 148.783 o
-13 -20 -10 1785.020 1988.850 227.373 45.944 o
-13 -20 -9 9631.330 9280.320 303.646 15.030 o
-13 -20 -8 190.374 24.800 132.814 164.427 o
-13 -20 -7 1981.280 1819.670 162.170 73.061 o
-13 -20 -6 13894.800 13012.700 280.829 11.562 o
-13 -20 -5 4468.920 4844.310 143.763 48.054 o
-13 -20 -4 4132.240 4043.540 127.251 57.045 o
-13 -20 -3 1007.360 969.642 75.442 230.159 o
-13 -20 -2 6452.410 6427.270 184.107 30.626 o
-13 -20 -1 2199.920 2107.860 86.888 120.718 o
-13 -19 -10 8255.740 8063.750 342.491 14.710 o
-13 -19 -9 1759.160 1879.340 172.638 69.170 o
-13 -19 -8 430.421 324.343 123.190 169.279 o
-13 -19 -7 8641.760 8526.650 205.550 21.973 o
-13 -19 -6 16805.800 16482.100 285.254 9.157 o
-13 -19 -5 24072.700 24486.900 378.978 5.126 o
-13 -19 -4 17352.700 16759.400 321.291 8.345 o
-13 -19 -3 3506.390 3609.730 113.862 69.019 o
-13 -19 -2 355.137 375.956 70.166 403.680 o
-13 -19 -1 4780.370 4497.450 110.749 54.307 o
-13 -18 -10 1116.130 1041.630 147.305 101.716 o
-13 -18 -9 6355.550 6005.820 173.249 32.789 o
-13 -18 -8 37595.300 36335.700 579.128 2.426 o
-13 -18 -7 39605.700 38508.900 462.009 2.488 o
-13 -18 -6 4879.100 4758.140 139.453 46.850 o
-13 -18 -5 650.866 831.004 93.624 217.005 o
-13 -18 -4 9189.020 9174.280 165.157 22.941 o
-13 -18 -3 33063.100 32958.800 325.782 3.543 o
-13 -18 -2 8810.910 8397.670 175.093 23.767 o
-13 -18 -1 184.642 219.763 56.343 665.271 o
-13 -17 -11 3941.920 3484.450 195.135 42.447 o
-13 -17 -10 14610.400 14114.700 419.936 8.064 o
-13 -17 -9 5127.710 5441.030 176.922 37.374 o
-13 -17 -8 4277.460 4198.700 132.866 53.912 o
-13 -17 -7 3315.760 3471.160 126.618 67.123 o
-13 -17 -6 21403.400 21133.100 375.059 5.997 o
-13 -17 -5 38618.700 38388.900 506.352 2.464 o
-13 -17 -4 5801.710 5609.710 150.000 38.563 o
-13 -17 -3 4421.160 4832.730 138.901 49.441 o
-13 -17 -2 873.739 927.473 60.673 292.728 o
-13 -17 -1 812.756 780.443 56.905 329.208 o
-13 -16 -11 1608.850 1417.810 207.580 55.343 o
-13 -16 -10 2046.190 2189.250 158.786 72.323 o
-13 -16 -9 2894.320 2994.200 136.217 70.131 o
-13 -16 -8 8631.040 8330.670 198.758 22.599 o
-13 -16 -7 6285.080 5944.350 210.498 28.671 o
-13 -16 -6 4747.890 4413.050 135.547 49.456 o
-13 -16 -5 2200.880 2290.220 97.836 109.523 o
-13 -16 -4 4257.300 3959.600 105.568 62.181 o
-13 -16 -3 14876.000 14928.200 164.081 12.772 o
-13 -16 -2 287.214 341.695 58.500 541.092 o
-13 -16 -1 9830.470 10019.600 138.119 22.378 o
-13 -15 -11 53.840 152.024 164.061 111.157 o
-13 -15 -10 524.622 389.637 138.928 133.963 o
-13 -15 -9 14179.100 15032.000 260.979 11.264 o
-13 -15 -8 5829.090 6162.710 146.562 37.818 o
-13 -15 -7 7988.270 8002.110 160.267 26.963 o
-13 -15 -6 11209.900 10773.200 159.453 18.751 o
-13 -15 -5 2145.420 2180.380 88.038 120.296 o
-13 -15 -4 2567.260 2428.940 91.702 103.660 o
-13 -15 -3 2101.500 2058.980 81.493 129.186 o
-13 -15 -2 15363.600 15618.100 183.407 11.846 o
-13 -15 -1 5242.320 5094.740 121.191 47.226 o
-13 -14 -11 8227.090 7790.400 320.570 15.950 o
-13 -14 -10 287.992 339.576 117.137 191.871 o
-13 -14 -9 3314.960 3592.280 115.761 70.552 o
-13 -14 -8 7357.380 7482.520 187.613 26.754 o
-13 -14 -7 11318.600 11300.300 284.089 13.729 o
-13 -14 -6 18217.700 17336.500 284.474 8.435 o
-13 -14 -5 2548.400 2694.580 89.160 102.718 o
-13 -14 -4 38131.500 37286.400 499.071 2.541 o
-13 -14 -3 2443.200 2533.760 88.667 107.309 o
-13 -14 -2 753.559 737.623 56.503 346.769 o
-13 -14 -1 7499.130 7007.780 103.295 34.400 o
-13 -13 -12 1534.940 1339.360 200.814 58.982 o
-13 -13 -11 738.334 620.556 156.436 103.002 o
-13 -13 -10 460.194 303.875 111.473 198.357 o
-13 -13 -9 6427.860 5983.930 167.034 33.353 o
-13 -13 -8 846.338 1027.570 98.219 185.032 o
-13 -13 -7 5815.490 5631.210 187.500 33.185 o
-13 -13 -6 1917.980 1896.920 102.675 117.762 o
-13 -13 -5 784.622 822.704 77.309 255.099 o
-13 -13 -4 2688.210 2653.680 82.895 103.786 o
-13 -13 -3 10740.300 10527.300 129.162 20.742 o
-13 -13 -2 9417.850 9751.240 160.971 22.242 o
-13 -13 -1 2247.720 2233.180 72.673 128.764 o
-13 -12 -12 234.194 -39.853 184.297 87.225 o
-13 -12 -11 47.420 33.690 132.639 171.012 o
-13 -12 -10 10100.800 9967.660 228.282 17.741 o
-13 -12 -9 1828.460 1649.460 95.354 131.520 o
-13 -12 -8 5551.470 5567.130 166.417 37.195 o
-13 -12 -7 8216.420 8273.730 181.539 24.603 o
-13 -12 -6 1039.980 1060.350 83.633 203.712 o
-13 -12 -5 2599.380 2531.300 91.674 101.838 o
-13 -12 -4 1114.330 1283.160 65.251 229.996 o
-13 -12 -3 6805.640 6874.410 133.903 34.325 o
-13 -12 -2 7286.900 7382.830 124.391 32.720 o
-13 -12 -1 15630.800 15128.000 216.833 11.249 o
-13 -11 -12 9827.550 9398.860 256.861 16.984 o
-13 -11 -11 3579.750 3078.830 149.299 58.493 o
-13 -11 -10 5411.700 5443.530 150.173 40.551 o
-13 -11 -9 8210.010 8117.810 146.625 27.302 o
-13 -11 -8 10402.500 9906.910 204.850 18.502 o
-13 -11 -7 2196.490 2428.040 120.243 92.100 o
-13 -11 -6 16682.000 16797.000 307.334 8.799 o
-13 -11 -5 8369.720 8200.580 181.822 24.353 o
-13 -11 -4 10290.200 10618.200 177.463 19.406 o
-13 -11 -3 32764.100 32297.000 330.416 3.598 o
-13 -11 -2 1251.750 1360.180 60.768 223.053 o
-13 -11 -1 1229.920 1365.210 48.367 249.637 o
-13 -10 -12 183.894 289.254 173.623 96.452 o
-13 -10 -11 736.940 464.214 129.397 141.874 o
-13 -10 -10 11252.300 11412.600 292.817 13.433 o
-13 -10 -9 7638.620 7210.170 159.348 28.880 o
-13 -10 -8 13969.300 13617.600 237.457 12.374 o
-13 -10 -7 10914.000 11226.600 203.393 17.161 o
-13 -10 -6 5694.210 5430.050 123.113 43.494 o
-13 -10 -5 11573.100 11683.200 159.522 17.685 o
-13 -10 -4 7430.930 7493.190 135.988 31.089 o
-13 -10 -3 4253.260 4424.320 100.451 61.367 o
-13 -10 -2 15535.300 15298.500 202.571 11.508 o
-13 -10 -1 9296.830 9189.060 132.133 24.519 o
-13 -9 -12 2794.900 2531.880 182.620 54.402 o
-13 -9 -11 6308.140 6474.180 225.672 26.409 o
-13 -9 -10 103.841 255.944 102.945 261.253 o
-13 -9 -9 2522.410 2626.030 112.047 89.983 o
-13 -9 -8 2307.770 2393.210 102.067 102.780 o
-13 -9 -7 4456.020 4680.700 116.356 54.815 o
-13 -9 -6 2234.620 2304.360 86.717 117.055 o
-13 -9 -5 844.810 828.980 68.980 275.352 o
-13 -9 -4 9092.900 9273.690 157.761 23.447 o
-13 -9 -3 11894.600 12477.900 180.671 16.184 o
-13 -9 -2 7916.990 8010.820 153.870 27.612 o
-13 -9 -1 14418.000 14384.900 188.462 12.863 o
-13 -8 -12 4697.060 4514.870 225.998 32.360 o
-13 -8 -11 1381.810 1332.370 121.390 120.425 o
-13 -8 -10 242.900 174.316 91.015 309.680 o
-13 -8 -9 997.302 1007.450 86.155 203.004 o
-13 -8 -8 13519.800 13434.600 219.043 13.213 o
-13 -8 -7 14292.900 13926.400 202.297 12.837 o
-13 -8 -6 2420.490 2519.290 85.098 110.446 o
-13 -8 -5 58.911 188.968 58.725 731.091 o
-13 -8 -4 24779.100 24552.100 288.567 5.547 o
-13 -8 -3 14076.500 13451.500 188.909 13.485 o
-13 -8 -2 3699.850 3634.430 93.857 73.489 o
-13 -8 -1 313.748 297.363 34.022 896.530 o
-13 -7 -13 677.090 796.199 383.892 20.040 o
-13 -7 -12 1068.290 939.815 194.546 66.977 o
-13 -7 -11 1681.650 1746.920 117.293 111.874 o
-13 -7 -10 13018.500 12329.000 243.911 13.348 o
-13 -7 -9 9902.810 9927.840 218.519 18.468 o
-13 -7 -8 1622.030 1462.480 80.627 161.705 o
-13 -7 -7 1366.510 1402.710 63.985 205.568 o
-13 -7 -6 27997.200 28671.800 459.394 3.856 o
-13 -7 -5 32540.700 32917.200 489.266 3.113 o
-13 -7 -4 4053.230 4008.440 108.833 62.984 o
-13 -7 -3 6839.860 7219.460 116.226 35.325 o
-13 -7 -2 2686.100 2688.370 70.190 110.715 o
-13 -7 -1 5144.810 5232.650 97.260 51.568 o
-13 -6 -13 410.398 73.044 190.240 79.782 o
-13 -6 -12 2500.100 2268.610 155.347 69.075 o
-13 -6 -11 137.459 199.653 107.863 239.514 o
-13 -6 -10 3395.150 3190.180 128.418 67.069 o
-13 -6 -9 1060.680 1252.440 93.200 176.359 o
-13 -6 -8 30812.700 30985.300 404.263 3.645 o
-13 -6 -7 2844.560 2980.970 77.682 99.532 o
-13 -6 -6 617.443 679.663 55.078 392.144 o
-13 -6 -5 1703.180 1797.490 71.122 161.633 o
-13 -6 -4 8994.630 8619.800 171.350 23.447 o
-13 -6 -3 11600.700 11420.700 186.543 16.895 o
-13 -6 -2 3506.780 3543.360 86.534 79.210 o
-13 -6 -1 240.909 257.738 36.817 970.887 o
-13 -5 -13 845.947 588.495 176.997 82.611 o
-13 -5 -12 67.521 -156.152 128.894 180.741 o
-13 -5 -11 987.059 769.854 111.080 158.614 o
-13 -5 -10 2991.940 2641.910 127.656 74.900 o
-13 -5 -9 11455.100 11752.300 248.324 14.696 o
-13 -5 -8 3378.530 3440.250 90.389 80.405 o
-13 -5 -7 3484.940 3430.380 81.152 82.301 o
-13 -5 -6 1069.190 1051.220 58.515 264.100 o
-13 -5 -5 10970.200 10890.900 217.436 16.730 o
-13 -5 -4 703.736 617.631 54.149 383.019 o
-13 -5 -3 6656.920 7266.420 128.481 34.710 o
-13 -5 -2 8049.140 8111.080 182.255 25.050 o
-13 -5 -1 3264.610 3368.440 94.090 81.158 o
-13 -4 -13 1951.870 1833.630 179.737 64.081 o
-13 -4 -12 1646.430 1903.880 125.566 103.327 o
-13 -4 -11 14639.900 14033.800 279.885 10.877 o
-13 -4 -10 1629.500 1643.420 91.079 143.762 o
-13 -4 -9 6661.460 6339.390 184.029 30.190 o
-13 -4 -8 8254.580 8785.460 201.743 22.653 o
-13 -4 -7 15287.400 15349.800 209.773 11.520 o
-13 -4 -6 4723.990 4552.870 101.281 56.544 o
-13 -4 -5 3276.840 3293.840 78.882 87.673 o
-13 -4 -4 31162.900 30700.400 438.008 3.505 o
-13 -4 -3 3031.580 3143.880 64.691 99.715 o
-13 -4 -2 83.684 184.364 36.784 1391.010 o
-13 -4 -1 2618.970 2905.360 70.225 109.629 o
-13 -3 -13 267.251 493.854 178.138 89.386 o
-13 -3 -12 3174.320 3144.410 146.496 62.546 o
-13 -3 -11 1110.700 1429.170 103.527 151.889 o
-13 -3 -10 2074.530 2187.560 100.183 112.051 o
-13 -3 -9 24524.600 23818.200 347.909 5.305 o
-13 -3 -8 2726.740 2866.400 94.929 93.961 o
-13 -3 -7 6229.160 6369.020 114.223 39.820 o
-13 -3 -6 11111.700 11096.900 179.972 17.904 o
-13 -3 -5 13333.100 12999.100 194.849 14.153 o
-13 -3 -4 599.233 699.116 45.390 450.907 o
-13 -3 -3 2993.460 2946.850 85.221 93.157 o
-13 -3 -2 14443.600 13238.200 194.690 13.150 o
-13 -3 -1 8515.120 7961.330 134.960 27.550 o
-13 -2 -13 6898.020 6729.490 275.697 20.762 o
-13 -2 -12 3919.610 3810.840 143.404 55.033 o
-13 -2 -11 7571.500 7325.700 151.692 29.570 o
-13 -2 -10 4474.870 4443.780 117.734 55.249 o
-13 -2 -9 2050.890 2112.540 86.268 125.709 o
-13 -2 -8 2255.830 2101.330 76.400 127.704 o
-13 -2 -7 1974.280 1996.380 66.068 149.645 o
-13 -2 -6 5272.900 5419.850 96.696 50.140 o
-13 -2 -5 4384.390 4521.750 82.160 63.903 o
-13 -2 -4 5741.340 5586.250 106.692 45.245 o
-13 -2 -3 993.649 959.373 44.214 323.525 o
-13 -2 -2 10493.800 10707.900 179.961 18.957 o
-13 -2 -1 27160.000 28085.800 290.853 4.769 o
-13 -1 -13 911.932 791.231 197.269 67.235 o
-13 -1 -12 14105.700 14858.100 225.580 12.133 o
-13 -1 -11 7116.630 6799.740 148.861 31.912 o
-13 -1 -10 3354.890 3206.020 110.993 74.215 o
-13 -1 -9 3884.390 4021.990 135.828 56.667 o
-13 -1 -8 5532.760 5525.290 111.317 45.916 o
-13 -1 -7 6723.350 6765.120 150.682 33.018 o
-13 -1 -6 17425.000 17025.300 238.894 9.451 o
-13 -1 -5 26393.100 26189.700 414.207 4.428 o
-13 -1 -4 2435.520 2778.830 69.551 116.681 o
-13 -1 -3 70293.000 71379.200 924.420 0.817 o
-13 -1 -2 8217.980 8607.820 139.737 27.165 o
-13 -1 -1 14737.800 14425.000 236.318 11.636 o
-12 -31 -3 4261.150 3357.180 703.940 5.761 o
-12 -31 -2 122.337 345.826 169.456 101.550 o
-12 -31 -1 2235.510 2331.070 191.711 55.184 o
-12 -30 -4 1321.830 1321.020 192.245 64.758 o
-12 -30 -3 782.465 745.271 211.657 60.493 o
-12 -30 -2 766.661 613.621 153.031 106.306 o
-12 -30 -1 3105.380 2940.050 149.166 63.020 o
-12 -29 -5 92.931 -364.578 170.336 103.912 o
-12 -29 -4 1162.730 878.220 154.599 95.347 o
-12 -29 -3 7618.950 7403.350 210.116 24.394 o
-12 -29 -2 220.631 -65.842 151.652 127.216 o
-12 -29 -1 1929.300 1922.680 139.888 87.049 o
-12 -28 -6 5445.690 5515.360 210.332 31.315 o
-12 -28 -5 15635.000 14565.900 386.620 8.261 o
-12 -28 -4 285.301 67.086 129.489 167.158 o
-12 -28 -3 719.424 453.603 140.587 125.053 o
-12 -28 -2 2641.720 2370.440 149.536 69.936 o
-12 -28 -1 2367.020 2817.000 141.766 74.338 o
-12 -27 -7 1333.330 1417.430 181.081 70.469 o
-12 -27 -6 2251.110 1837.330 163.030 69.779 o
-12 -27 -5 2500.400 2178.900 167.784 63.703 o
-12 -27 -4 815.580 610.527 126.640 141.301 o
-12 -27 -3 6201.360 5976.740 161.002 34.867 o
-12 -27 -2 1199.110 817.058 118.102 137.985 o
-12 -27 -1 1966.700 2038.060 113.719 105.184 o
-12 -26 -7 3398.230 2744.170 199.250 45.456 o
-12 -26 -6 3324.080 2995.550 191.906 47.224 o
-12 -26 -5 5221.370 5192.210 160.115 40.282 o
-12 -26 -4 2448.600 2504.420 131.836 80.587 o
-12 -26 -3 2106.710 1971.670 135.953 86.712 o
-12 -26 -2 5378.320 4874.270 145.531 42.802 o
-12 -26 -1 10999.300 10923.400 192.944 17.648 o
-12 -25 -8 4697.710 4464.730 200.136 36.710 o
-12 -25 -7 11783.600 10454.700 430.166 9.338 o
-12 -25 -6 2385.020 2192.080 133.786 82.471 o
-12 -25 -5 8683.360 8011.230 180.431 24.026 o
-12 -25 -4 6951.340 6556.630 156.199 32.044 o
-12 -25 -3 10993.200 10643.000 266.401 14.898 o
-12 -25 -2 3156.040 3323.710 126.056 69.797 o
-12 -25 -1 3742.020 4159.920 123.671 60.820 o
-12 -24 -8 442.351 282.725 145.972 126.647 o
-12 -24 -7 3262.290 3174.680 155.500 58.459 o
-12 -24 -6 3902.960 3555.650 133.760 58.972 o
-12 -24 -5 2612.600 2536.520 120.414 84.432 o
-12 -24 -4 8553.070 8431.880 170.160 24.563 o
-12 -24 -3 973.086 861.725 101.232 176.129 o
-12 -24 -2 5506.230 5288.040 137.562 42.516 o
-12 -24 -1 3720.270 3738.370 135.841 59.079 o
-12 -23 -9 389.756 327.809 197.159 73.616 o
-12 -23 -8 243.172 -2.349 134.314 159.311 o
-12 -23 -7 27.336 110.091 117.823 214.412 o
-12 -23 -6 67.905 80.498 104.332 268.421 o
-12 -23 -5 519.056 370.013 98.137 233.625 o
-12 -23 -4 2329.820 2243.050 105.092 101.773 o
-12 -23 -3 1659.820 1675.850 110.587 120.052 o
-12 -23 -2 1916.050 2007.680 110.475 109.412 o
-12 -23 -1 2660.330 2553.560 101.486 94.427 o
-12 -22 -9 6780.060 6456.160 324.603 17.544 o
-12 -22 -8 3640.210 3747.740 168.168 50.098 o
-12 -22 -7 3491.800 3692.120 168.838 50.951 o
-12 -22 -6 10431.800 10359.800 208.664 18.014 o
-12 -22 -5 4900.330 4988.270 132.373 47.467 o
-12 -22 -4 3209.710 3099.520 110.602 76.909 o
-12 -22 -3 1027.580 1030.150 101.613 168.124 o
-12 -22 -2 4824.890 4546.510 114.031 53.105 o
-12 -22 -1 4506.290 4502.180 116.089 55.171 o
-12 -21 -10 3916.440 3932.890 185.701 43.754 o
-12 -21 -9 3719.100 3727.130 170.621 49.038 o
-12 -21 -8 6566.200 6376.870 186.012 30.175 o
-12 -21 -7 8822.470 7934.160 227.732 20.720 o
-12 -21 -6 13769.600 13411.300 263.282 11.948 o
-12 -21 -5 7558.180 7298.730 187.911 26.488 o
-12 -21 -4 9143.040 8942.070 205.546 20.868 o
-12 -21 -3 7886.810 7961.690 177.576 25.902 o
-12 -21 -2 257.806 220.501 73.564 425.136 o
-12 -21 -1 7503.280 7471.350 157.757 29.031 o
-12 -20 -10 2701.930 2832.320 175.923 56.436 o
-12 -20 -9 2284.830 2196.750 170.606 64.156 o
-12 -20 -8 10534.300 9810.190 228.919 17.311 o
-12 -20 -7 10251.600 9817.350 210.317 18.495 o
-12 -20 -6 2775.840 3014.780 124.185 76.914 o
-12 -20 -5 2370.340 2532.860 116.910 90.386 o
-12 -20 -4 6707.260 6736.060 130.811 35.250 o
-12 -20 -3 5192.620 4896.840 119.410 48.441 o
-12 -20 -2 375.695 358.390 72.175 386.112 o
-12 -20 -1 8541.290 8477.040 205.714 22.166 o
-12 -19 -10 1617.200 1484.840 134.322 100.339 o
-12 -19 -9 3179.840 3414.340 150.618 59.875 o
-12 -19 -8 13100.700 12395.300 210.806 14.187 o
-12 -19 -7 4484.500 4664.960 132.915 50.908 o
-12 -19 -6 7334.300 7762.910 200.825 25.369 o
-12 -19 -5 3849.560 3637.090 125.105 61.745 o
-12 -19 -4 2573.520 2534.320 93.317 101.340 o
-12 -19 -3 9489.760 9081.510 165.437 22.468 o
-12 -19 -2 3554.500 3572.690 92.876 76.106 o
-12 -19 -1 825.760 819.613 70.678 272.626 o
-12 -18 -11 2348.360 2465.560 186.149 56.170 o
-12 -18 -10 7453.300 6736.280 235.914 23.145 o
-12 -18 -9 3471.480 3529.690 132.271 63.303 o
-12 -18 -8 1793.840 1823.040 99.487 125.513 o
-12 -18 -7 3715.520 3710.950 130.665 60.854 o
-12 -18 -6 19231.500 19282.600 277.341 7.811 o
-12 -18 -5 32469.100 31664.900 334.324 3.653 o
-12 -18 -4 2611.760 2805.960 101.594 92.924 o
-12 -18 -3 2804.200 2784.190 83.961 99.210 o
-12 -18 -2 1866.720 1696.050 69.543 157.925 o
-12 -18 -1 2287.660 2519.230 75.987 120.473 o
-12 -17 -11 131.852 -40.854 153.376 126.718 o
-12 -17 -10 777.181 986.358 124.017 140.435 o
-12 -17 -9 269.282 349.778 130.357 159.782 o
-12 -17 -8 25215.600 24892.300 326.630 5.208 o
-12 -17 -7 11506.400 11678.300 220.566 15.662 o
-12 -17 -6 1867.420 1893.500 105.317 116.700 o
-12 -17 -5 2162.550 2139.940 97.250 112.814 o
-12 -17 -4 4386.370 4379.190 110.382 57.964 o
-12 -17 -3 11854.900 11937.800 174.430 16.719 o
-12 -17 -2 566.520 645.848 57.987 393.260 o
-12 -17 -1 625.214 593.508 53.717 409.510 o
-12 -16 -11 267.414 96.100 146.338 133.421 o
-12 -16 -10 3776.760 3735.900 159.557 51.695 o
-12 -16 -9 1218.500 1118.430 98.355 162.431 o
-12 -16 -8 3735.020 3659.290 130.432 60.983 o
-12 -16 -7 6080.140 6444.630 204.748 29.216 o
-12 -16 -6 420.269 410.797 88.141 282.296 o
-12 -16 -5 8528.640 8137.440 154.386 25.995 o
-12 -16 -4 1969.190 1856.740 82.493 136.388 o
-12 -16 -3 587.484 699.182 66.894 334.824 o
-12 -16 -2 2020.610 1978.490 63.922 150.031 o
-12 -16 -1 243.626 176.950 51.009 726.512 o
-12 -15 -12 1150.820 902.669 273.366 36.912 o
-12 -15 -11 5866.390 5318.110 253.660 25.395 o
-12 -15 -10 1927.700 1925.240 129.490 94.588 o
-12 -15 -9 6340.570 6023.050 165.125 33.805 o
-12 -15 -8 6436.930 5877.200 122.008 39.056 o
-12 -15 -7 13618.100 13437.200 230.870 12.844 o
-12 -15 -6 11538.500 11326.000 249.233 14.775 o
-12 -15 -5 4606.560 4544.890 122.314 52.868 o
-12 -15 -4 27577.400 27421.800 410.230 4.208 o
-12 -15 -3 4015.420 4294.450 97.054 65.197 o
-12 -15 -2 955.330 956.325 56.032 293.456 o
-12 -15 -1 2269.930 2444.930 63.127 131.515 o
-12 -14 -12 765.332 637.904 188.676 74.604 o
-12 -14 -11 740.466 711.368 140.397 121.437 o
-12 -14 -10 4520.160 4145.040 149.697 48.465 o
-12 -14 -9 23557.100 22670.300 307.351 5.890 o
-12 -14 -8 8829.710 8663.980 156.042 24.675 o
-12 -14 -7 9593.950 9621.140 172.826 21.438 o
-12 -14 -6 12526.500 12320.100 156.474 16.286 o
-12 -14 -5 14859.300 15153.700 213.498 11.787 o
-12 -14 -4 2540.730 2542.900 82.698 108.725 o
-12 -14 -3 3723.450 3945.640 89.054 72.781 o
-12 -14 -2 20698.400 19885.900 229.169 7.685 o
-12 -14 -1 4595.690 4518.980 93.037 59.539 o
-12 -13 -12 1175.990 1243.260 183.951 70.993 o
-12 -13 -11 13430.500 12396.200 320.707 10.992 o
-12 -13 -10 386.790 300.182 102.637 232.564 o
-12 -13 -9 1671.440 1749.180 103.380 126.290 o
-12 -13 -8 430.229 305.475 76.295 352.632 o
-12 -13 -7 7868.380 7765.760 147.421 28.545 o
-12 -13 -6 10521.200 10676.800 181.264 18.886 o
-12 -13 -5 570.001 650.113 65.556 349.922 o
-12 -13 -4 25599.200 25454.000 346.294 4.978 o
-12 -13 -3 7084.120 7025.260 122.941 34.155 o
-12 -13 -2 3655.530 3605.060 76.877 79.851 o
-12 -13 -1 8554.950 8210.320 136.390 27.050 o
-12 -12 -12 4332.510 4496.910 201.953 37.584 o
-12 -12 -11 1363.120 1135.230 136.839 106.479 o
-12 -12 -10 3143.420 3062.070 119.667 74.097 o
-12 -12 -9 6186.190 6098.360 135.115 38.015 o
-12 -12 -8 1536.300 1677.710 117.333 116.292 o
-12 -12 -7 108.195 72.735 79.170 439.608 o
-12 -12 -6 179.303 208.593 67.037 521.748 o
-12 -12 -5 11557.400 11592.900 200.819 16.349 o
-12 -12 -4 6271.640 6406.230 125.026 38.266 o
-12 -12 -3 8403.590 8810.610 130.620 27.056 o
-12 -12 -2 33827.000 34153.300 388.003 3.243 o
-12 -12 -1 6633.800 6609.850 92.189 39.758 o
-12 -11 -12 2555.150 2096.000 171.002 62.184 o
-12 -11 -11 2557.580 2695.710 191.138 52.375 o
-12 -11 -10 11448.000 10991.100 219.256 16.109 o
-12 -11 -9 3434.230 3164.190 104.966 75.867 o
-12 -11 -8 10907.200 10439.100 182.107 18.498 o
-12 -11 -7 11194.400 10907.700 150.382 19.007 o
-12 -11 -6 1402.340 1656.320 78.390 171.319 o
-12 -11 -5 7180.870 7344.670 148.729 30.913 o
-12 -11 -4 1730.450 1867.920 67.239 163.085 o
-12 -11 -3 17659.800 17798.600 241.063 9.142 o
-12 -11 -2 9233.530 8997.420 127.283 25.113 o
-12 -11 -1 7048.860 6711.910 107.863 36.282 o
-12 -10 -12 4881.140 4248.600 198.624 36.718 o
-12 -10 -11 3274.630 3296.110 146.984 60.871 o
-12 -10 -10 4716.910 4543.140 133.087 49.775 o
-12 -10 -9 4624.680 4490.260 122.600 52.868 o
-12 -10 -8 10567.800 10384.300 230.761 16.881 o
-12 -10 -7 1723.250 1616.980 69.344 167.486 o
-12 -10 -6 4280.660 4305.200 104.350 60.690 o
-12 -10 -5 15888.700 16807.800 280.290 9.567 o
-12 -10 -4 6519.870 6685.430 158.182 32.975 o
-12 -10 -3 11624.200 12044.300 204.483 15.919 o
-12 -10 -2 1244.640 1285.010 53.970 241.152 o
-12 -10 -1 8369.080 8624.060 118.890 28.107 o
-12 -9 -13 2659.540 2610.330 204.459 47.757 o
-12 -9 -12 3116.770 2817.840 171.018 55.419 o
-12 -9 -11 1929.200 1607.960 124.037 101.898 o
-12 -9 -10 5760.550 5537.850 145.951 39.482 o
-12 -9 -9 3174.130 3028.780 111.843 77.308 o
-12 -9 -8 474.563 507.643 77.458 319.016 o
-12 -9 -7 7426.630 7449.290 164.583 28.660 o
-12 -9 -6 4645.490 4487.150 125.571 52.072 o
-12 -9 -5 18500.400 18392.500 333.554 7.530 o
-12 -9 -4 11465.200 11492.300 150.107 18.252 o
-12 -9 -3 1690.800 1510.740 59.098 185.959 o
-12 -9 -2 5288.810 5338.890 102.251 49.408 o
-12 -9 -1 7215.430 7230.650 137.067 32.060 o
-12 -8 -13 452.883 310.068 182.461 84.385 o
-12 -8 -12 255.949 79.678 199.571 74.193 o
-12 -8 -11 2803.960 3013.120 138.011 70.202 o
-12 -8 -10 5930.620 5784.590 165.031 35.615 o
-12 -8 -9 9814.870 9713.560 170.708 21.113 o
-12 -8 -8 19189.000 19386.300 297.066 7.588 o
-12 -8 -7 1050.830 1225.970 61.782 247.632 o
-12 -8 -6 22233.000 22478.100 325.190 6.079 o
-12 -8 -5 9228.480 9187.680 172.131 22.462 o
-12 -8 -4 249.404 305.004 53.755 631.709 o
-12 -8 -3 4314.350 4479.920 86.105 63.937 o
-12 -8 -2 8124.970 8162.460 175.235 25.361 o
-12 -8 -1 9514.130 9139.460 125.275 24.460 o
-12 -7 -13 1311.540 979.859 229.751 49.304 o
-12 -7 -12 4693.310 4481.930 162.694 43.833 o
-12 -7 -11 4456.350 4496.050 132.255 51.801 o
-12 -7 -10 17684.500 17053.600 412.860 6.932 o
-12 -7 -9 2593.800 2664.850 99.642 95.729 o
-12 -7 -8 29136.200 29306.700 507.869 3.501 o
-12 -7 -7 41034.900 41395.700 483.729 2.288 o
-12 -7 -6 5634.790 5562.970 106.659 45.922 o
-12 -7 -5 10165.800 10368.600 180.202 19.637 o
-12 -7 -4 48317.500 48809.200 653.228 1.614 o
-12 -7 -3 18952.100 19337.500 291.785 7.733 o
-12 -7 -2 2376.980 2571.750 64.975 124.503 o
-12 -7 -1 1914.810 2099.030 46.521 168.138 o
-12 -6 -13 106.876 221.675 153.105 124.991 o
-12 -6 -12 5622.800 5550.670 164.118 37.301 o
-12 -6 -11 2185.810 2562.780 121.246 90.477 o
-12 -6 -10 7769.420 7303.380 159.279 28.430 o
-12 -6 -9 16766.600 15926.900 246.624 9.910 o
-12 -6 -8 15910.600 16280.800 235.198 10.444 o
-12 -6 -7 1892.110 1967.140 66.719 153.368 o
-12 -6 -6 30069.700 29855.200 452.582 3.603 o
-12 -6 -5 12346.100 12565.300 187.641 15.464 o
-12 -6 -4 516.495 575.211 51.650 460.285 o
-12 -6 -3 15284.900 15514.800 247.669 10.770 o
-12 -6 -2 252.366 227.815 40.501 894.945 o
-12 -6 -1 2822.510 2807.430 72.169 104.794 o
-12 -5 -13 116.489 64.680 159.721 116.722 o
-12 -5 -12 184.029 123.091 113.268 218.401 o
-12 -5 -11 3279.940 3358.900 109.619 74.746 o
-12 -5 -10 6622.370 6542.360 130.339 35.981 o
-12 -5 -9 921.465 943.152 71.343 251.660 o
-12 -5 -8 7371.440 7662.310 157.701 29.132 o
-12 -5 -7 12423.600 12474.600 161.658 16.172 o
-12 -5 -6 7532.850 7404.420 164.122 28.487 o
-12 -5 -5 6998.640 6527.940 98.184 37.758 o
-12 -5 -4 10309.400 10203.500 138.485 21.364 o
-12 -5 -3 4320.910 4406.300 87.848 63.838 o
-12 -5 -2 1136.220 1245.970 48.307 268.431 o
-12 -5 -1 13076.600 12851.000 167.416 15.153 o
-12 -4 -13 766.151 995.840 141.908 115.422 o
-12 -4 -12 1509.290 1152.540 119.504 121.581 o
-12 -4 -11 396.412 494.414 96.994 243.464 o
-12 -4 -10 4337.860 4683.950 117.466 55.441 o
-12 -4 -9 25350.700 25174.300 417.012 4.633 o
-12 -4 -8 9099.800 9260.410 162.200 23.194 o
-12 -4 -7 4985.790 4884.180 106.878 52.188 o
-12 -4 -6 27345.300 27552.400 412.446 4.219 o
-12 -4 -5 12672.200 12816.800 192.196 14.899 o
-12 -4 -4 3620.470 3708.350 84.862 77.019 o
-12 -4 -3 3540.070 3445.980 90.303 78.083 o
-12 -4 -2 21772.000 21244.300 350.874 6.113 o
-12 -4 -1 2611.820 2606.460 60.045 119.658 o
-12 -3 -13 642.810 729.123 169.410 90.751 o
-12 -3 -12 3363.100 3858.920 163.501 52.789 o
-12 -3 -11 15810.800 15162.800 305.206 9.532 o
-12 -3 -10 3415.310 3512.190 109.812 72.084 o
-12 -3 -9 1048.910 1101.780 75.216 220.997 o
-12 -3 -8 8096.590 8303.590 153.966 26.823 o
-12 -3 -7 14076.900 14208.000 178.905 13.396 o
-12 -3 -6 4876.700 4629.670 113.486 52.553 o
-12 -3 -5 10297.000 10531.400 146.929 20.765 o
-12 -3 -4 47968.000 47070.200 644.422 1.662 o
-12 -3 -3 15190.200 14872.600 256.159 10.837 o
-12 -3 -2 2306.090 2304.610 62.482 133.196 o
-12 -3 -1 3780.300 3492.380 89.270 74.878 o
-12 -2 -13 117.107 283.992 148.309 131.675 o
-12 -2 -12 2627.830 2632.690 129.912 78.408 o
-12 -2 -11 2108.020 2221.700 108.310 104.391 o
-12 -2 -10 800.104 709.685 94.820 206.875 o
-12 -2 -9 3760.820 3722.000 107.702 67.734 o
-12 -2 -8 3985.430 4179.450 92.087 67.475 o
-12 -2 -7 5960.590 5477.050 127.617 41.395 o
-12 -2 -6 7541.710 7473.800 125.669 31.646 o
-12 -2 -5 2739.520 2697.420 69.832 109.422 o
-12 -2 -4 1644.320 1719.570 59.043 182.288 o
-12 -2 -3 2408.620 2409.600 58.075 130.678 o
-12 -2 -2 4212.460 4330.960 84.143 66.236 o
-12 -2 -1 3718.530 3713.060 62.405 82.391 o
-12 -1 -13 5533.520 5630.530 203.067 31.902 o
-12 -1 -12 2252.060 2250.580 125.195 89.386 o
-12 -1 -11 768.753 663.792 95.222 209.842 o
-12 -1 -10 7523.110 7722.150 186.536 26.221 o
-12 -1 -9 2436.140 2666.560 86.940 107.029 o
-12 -1 -8 5195.590 5724.310 135.740 43.273 o
-12 -1 -7 1366.590 1464.740 63.494 204.011 o
-12 -1 -6 1324.500 1465.160 63.060 208.062 o
-12 -1 -5 12995.100 12973.700 183.911 14.749 o
-12 -1 -4 9068.920 8937.720 136.124 25.056 o
-12 -1 -3 14791.000 14460.200 228.552 11.753 o
-12 -1 -2 17749.400 17759.400 226.015 9.306 o
-12 -1 -1 38772.100 38600.000 577.947 2.306 o
-11 -32 -2 697.736 556.499 234.512 51.136 o
-11 -32 -1 2205.170 2051.650 241.428 40.304 o
-11 -31 -4 172.371 237.586 183.788 86.998 o
-11 -31 -3 145.220 162.501 165.145 107.919 o
-11 -31 -2 140.984 0.307 156.391 121.783 o
-11 -31 -1 9297.440 8908.160 252.847 18.025 o
-11 -30 -5 1985.920 2417.830 252.345 37.736 o
-11 -30 -4 125.971 162.834 163.690 110.138 o
-11 -30 -3 6696.480 6152.810 253.637 23.308 o
-11 -30 -2 579.760 683.932 133.462 136.660 o
-11 -30 -1 3521.400 3226.790 146.526 59.299 o
-11 -29 -6 482.450 39.665 231.519 54.611 o
-11 -29 -5 691.043 313.967 164.131 98.284 o
-11 -29 -4 5164.130 4886.020 218.609 31.738 o
-11 -29 -3 648.594 650.341 137.996 128.080 o
-11 -29 -2 2264.010 2050.660 143.400 79.325 o
-11 -29 -1 950.462 726.709 126.894 134.550 o
-11 -28 -7 4883.040 5292.630 234.490 29.713 o
-11 -28 -6 7840.880 7774.040 331.054 15.709 o
-11 -28 -5 3102.920 2482.350 186.202 51.491 o
-11 -28 -4 3335.860 3355.580 153.922 57.753 o
-11 -28 -3 2880.980 2650.420 169.936 58.033 o
-11 -28 -2 2861.490 2967.690 135.137 71.106 o
-11 -28 -1 1233.230 1086.570 118.402 132.035 o
-11 -27 -7 2559.370 2609.790 197.707 50.401 o
-11 -27 -6 220.583 -20.596 138.791 150.595 o
-11 -27 -5 4090.440 3686.840 143.929 54.116 o
-11 -27 -4 4092.790 4112.270 163.904 47.611 o
-11 -27 -3 709.672 602.496 146.589 115.346 o
-11 -27 -2 314.394 255.554 113.277 204.251 o
-11 -27 -1 15557.800 15173.600 240.402 10.849 o
-11 -26 -8 3110.060 3208.940 219.654 40.540 o
-11 -26 -7 4513.790 4771.590 258.002 27.914 o
-11 -26 -6 524.722 390.776 167.511 96.834 o
-11 -26 -5 425.053 490.194 121.394 169.723 o
-11 -26 -4 2231.970 1916.790 123.375 93.788 o
-11 -26 -3 13394.700 12651.300 215.167 13.718 o
-11 -26 -2 3755.130 3667.490 122.916 63.161 o
-11 -26 -1 7543.050 7251.130 153.339 29.605 o
-11 -25 -8 136.888 -13.953 179.726 92.880 o
-11 -25 -7 1412.140 1123.000 146.561 96.430 o
-11 -25 -6 9578.060 9409.920 201.152 20.131 o
-11 -25 -5 11390.100 10943.600 220.998 16.127 o
-11 -25 -4 8116.380 8210.800 173.594 25.449 o
-11 -25 -3 2109.670 1980.560 119.928 97.966 o
-11 -25 -2 5805.310 5502.440 200.462 31.675 o
-11 -25 -1 9447.520 9453.890 170.907 21.922 o
-11 -24 -9 4744.100 4148.100 187.843 39.368 o
-11 -24 -8 6050.030 5756.090 236.119 26.534 o
-11 -24 -7 3634.880 3584.110 141.425 58.637 o
-11 -24 -6 2145.270 2238.560 148.842 76.476 o
-11 -24 -5 680.521 479.190 129.283 143.760 o
-11 -24 -4 5470.580 5363.170 156.985 39.379 o
-11 -24 -3 5071.270 4778.970 142.012 45.242 o
-11 -24 -2 6440.200 6385.550 198.328 29.127 o
-11 -24 -1 379.937 226.822 85.117 317.033 o
-11 -23 -9 1826.360 1615.070 150.344 83.475 o
-11 -23 -8 467.033 179.622 126.236 164.017 o
-11 -23 -7 765.931 710.692 118.681 155.280 o
-11 -23 -6 1022.870 926.719 106.875 161.126 o
-11 -23 -5 511.522 654.444 97.510 223.959 o
-11 -23 -4 7989.920 8115.690 167.462 26.284 o
-11 -23 -3 3789.740 3915.130 117.713 63.309 o
-11 -23 -2 15902.000 15976.800 276.531 9.816 o
-11 -23 -1 2174.740 2250.030 97.841 110.652 o
-11 -22 -10 1447.910 1286.460 234.676 46.382 o
-11 -22 -9 2324.410 2093.050 168.887 65.055 o
-11 -22 -8 5681.610 5510.840 220.630 29.397 o
-11 -22 -7 6772.730 5904.780 179.395 30.995 o
-11 -22 -6 3037.030 2936.370 115.596 78.059 o
-11 -22 -5 139.776 262.657 92.818 308.370 o
-11 -22 -4 6703.290 6311.990 181.417 30.401 o
-11 -22 -3 10168.300 10365.900 244.944 16.689 o
-11 -22 -2 2433.250 2484.520 95.891 103.277 o
-11 -22 -1 762.696 787.547 80.261 249.761 o
-11 -21 -10 9989.410 9544.340 311.340 14.320 o
-11 -21 -9 6936.070 6085.050 254.407 22.917 o
-11 -21 -8 3859.410 3452.400 133.419 59.864 o
-11 -21 -7 967.517 878.650 120.247 141.674 o
-11 -21 -6 6851.470 6097.290 164.133 32.193 o
-11 -21 -5 21689.300 20686.100 325.787 6.416 o
-11 -21 -4 1768.610 1904.570 94.121 130.582 o
-11 -21 -3 483.562 456.734 79.357 312.057 o
-11 -21 -2 1990.780 2036.880 92.056 123.495 o
-11 -21 -1 25441.500 25071.900 479.426 4.266 o
-11 -20 -11 749.430 1224.840 598.128 8.395 o
-11 -20 -10 1503.810 1380.130 173.964 73.276 o
-11 -20 -9 1244.430 1353.970 125.640 118.846 o
-11 -20 -8 3630.610 3632.430 122.689 64.584 o
-11 -20 -7 2518.500 2818.190 110.998 89.044 o
-11 -20 -6 1921.710 1806.760 99.520 121.915 o
-11 -20 -5 2286.510 2217.400 96.483 109.355 o
-11 -20 -4 6498.800 6696.530 153.247 33.581 o
-11 -20 -3 19319.800 19140.900 300.900 7.543 o
-11 -20 -2 832.312 840.020 73.396 261.439 o
-11 -20 -1 8730.180 8997.580 158.378 24.393 o
-11 -19 -11 223.301 646.124 187.431 80.972 o
-11 -19 -10 7160.770 7144.690 271.895 20.448 o
-11 -19 -9 3661.250 3990.500 133.477 59.258 o
-11 -19 -8 6057.540 6102.830 147.275 36.943 o
-11 -19 -7 3640.500 3993.170 127.640 61.229 o
-11 -19 -6 3056.210 3011.680 103.954 82.642 o
-11 -19 -5 670.225 703.129 81.266 261.363 o
-11 -19 -4 2361.270 2586.190 91.769 106.539 o
-11 -19 -3 1700.010 1659.180 78.722 155.760 o
-11 -19 -2 6250.020 6078.790 114.743 40.328 o
-11 -19 -1 12505.100 12477.600 223.428 14.296 o
-11 -18 -11 3038.310 2619.750 189.611 50.382 o
-11 -18 -10 4148.470 4228.450 220.181 35.286 o
-11 -18 -9 5296.560 5150.990 139.196 43.622 o
-11 -18 -8 3935.230 3649.990 122.162 61.825 o
-11 -18 -7 6827.890 6261.530 170.662 31.300 o
-11 -18 -6 7384.460 7054.740 156.883 29.991 o
-11 -18 -5 1974.220 1890.710 84.782 133.326 o
-11 -18 -4 6880.610 6889.270 133.316 34.096 o
-11 -18 -3 3019.820 2965.820 85.850 92.182 o
-11 -18 -2 4420.090 4618.230 95.796 60.058 o
-11 -18 -1 4575.760 4492.190 95.779 59.237 o
-11 -17 -11 1702.870 1079.890 143.923 94.170 o
-11 -17 -10 2936.910 2563.440 140.778 69.936 o
-11 -17 -9 5760.790 5767.960 153.930 37.840 o
-11 -17 -8 3150.300 3146.350 131.048 68.793 o
-11 -17 -7 4489.690 4383.860 113.749 56.304 o
-11 -17 -6 2470.400 2565.390 97.414 100.603 o
-11 -17 -5 7115.950 6676.620 118.660 35.076 o
-11 -17 -4 10272.900 10145.400 135.551 21.597 o
-11 -17 -3 2276.730 2346.980 75.067 124.123 o
-11 -17 -2 2645.070 2657.690 79.034 107.021 o
-11 -17 -1 4445.810 4707.520 100.354 58.416 o
-11 -16 -12 4460.810 4416.490 215.184 34.930 o
-11 -16 -11 770.367 748.611 179.055 80.958 o
-11 -16 -10 1059.610 1125.420 122.848 130.772 o
-11 -16 -9 4343.770 4217.750 121.163 56.295 o
-11 -16 -8 11938.900 11877.200 219.815 15.181 o
-11 -16 -7 2035.320 1956.660 88.499 126.639 o
-11 -16 -6 5091.140 4913.030 114.011 50.031 o
-11 -16 -5 462.461 544.399 74.704 332.423 o
-11 -16 -4 1653.510 1781.250 78.792 155.002 o
-11 -16 -3 15560.500 14384.300 193.555 11.951 o
-11 -16 -2 1705.370 1663.180 61.812 176.744 o
-11 -16 -1 6261.460 6187.700 105.994 41.061 o
-11 -15 -12 4215.460 4383.340 235.520 32.283 o
-11 -15 -11 655.416 514.098 161.884 99.564 o
-11 -15 -10 19303.900 18409.300 276.053 7.950 o
-11 -15 -9 3464.470 3600.640 112.026 70.192 o
-11 -15 -8 430.732 429.549 79.435 322.729 o
-11 -15 -7 106.125 81.348 77.405 457.033 o
-11 -15 -6 15069.200 14459.800 222.824 11.692 o
-11 -15 -5 28006.200 28251.600 281.140 4.657 o
-11 -15 -4 4652.490 4867.180 120.823 51.758 o
-11 -15 -3 5678.530 5627.070 107.279 45.399 o
-11 -15 -2 408.516 448.931 45.614 589.489 o
-11 -15 -1 9403.440 9299.040 112.443 25.140 o
-11 -14 -12 1775.520 1724.990 177.998 66.874 o
-11 -14 -11 6368.820 6328.250 171.015 32.523 o
-11 -14 -10 6733.660 6043.000 154.306 33.765 o
-11 -14 -9 1277.520 1086.380 89.052 176.526 o
-11 -14 -8 32997.700 32870.600 483.274 3.097 o
-11 -14 -7 19567.600 19150.700 309.172 7.373 o
-11 -14 -6 2033.500 2021.980 80.589 132.966 o
-11 -14 -5 1764.000 1847.230 75.435 152.470 o
-11 -14 -4 21534.400 21816.400 308.170 6.465 o
-11 -14 -3 13342.900 12955.700 175.040 14.660 o
-11 -14 -2 971.578 1040.830 45.759 315.523 o
-11 -14 -1 10606.800 11324.700 154.010 19.411 o
-11 -13 -12 2534.820 2220.600 167.238 63.483 o
-11 -13 -11 2929.650 2806.390 148.342 65.534 o
-11 -13 -10 3633.500 3570.150 127.478 63.252 o
-11 -13 -9 9409.600 9230.540 154.421 23.074 o
-11 -13 -8 1629.490 1559.360 86.693 151.024 o
-11 -13 -7 936.368 809.869 66.280 273.572 o
-11 -13 -6 16049.400 15928.400 179.461 11.361 o
-11 -13 -5 7916.830 7716.910 150.652 28.230 o
-11 -13 -4 19632.500 20268.400 290.119 7.384 o
-11 -13 -3 8828.130 8648.290 132.621 26.119 o
-11 -13 -2 36045.200 36473.800 356.718 3.024 o
-11 -13 -1 1663.640 1701.770 56.331 185.066 o
-11 -12 -12 724.821 785.139 151.697 106.959 o
-11 -12 -11 12986.900 12254.500 309.378 11.566 o
-11 -12 -10 667.287 994.058 111.786 166.807 o
-11 -12 -9 4133.740 4064.460 110.594 61.483 o
-11 -12 -8 1498.400 1513.800 92.229 150.267 o
-11 -12 -7 431.650 519.667 60.380 433.955 o
-11 -12 -6 5445.990 5865.550 110.901 45.505 o
-11 -12 -5 292.607 355.324 58.225 538.359 o
-11 -12 -4 6566.160 6775.350 120.335 36.831 o
-11 -12 -3 699.177 799.504 48.905 387.312 o
-11 -12 -2 12838.400 13314.300 137.785 15.870 o
-11 -12 -1 11360.300 11564.400 153.084 18.244 o
-11 -11 -13 5205.580 5053.190 221.143 31.056 o
-11 -11 -12 2822.260 2394.840 165.399 61.212 o
-11 -11 -11 798.481 926.950 126.972 136.085 o
-11 -11 -10 6594.060 6931.740 219.774 25.967 o
-11 -11 -9 5149.700 5355.750 149.600 42.038 o
-11 -11 -8 913.042 801.370 77.661 241.411 o
-11 -11 -7 1257.430 1317.290 69.272 207.658 o
-11 -11 -6 6912.260 6745.210 112.718 36.294 o
-11 -11 -5 14483.000 14164.000 241.001 11.778 o
-11 -11 -4 6976.890 7011.630 190.408 27.902 o
-11 -11 -3 4113.920 3978.960 86.069 68.784 o
-11 -11 -2 16268.500 16022.200 213.044 10.681 o
-11 -11 -1 16781.100 15785.700 256.572 9.779 o
-11 -10 -13 399.979 142.865 220.242 60.252 o
-11 -10 -12 7586.190 7782.190 260.386 20.320 o
-11 -10 -11 4060.140 3888.480 165.799 47.939 o
-11 -10 -10 1049.900 1136.130 106.909 155.210 o
-11 -10 -9 210.477 66.822 84.195 370.264 o
-11 -10 -8 7986.290 8008.590 214.653 22.856 o
-11 -10 -7 10015.400 9980.410 198.342 19.266 o
-11 -10 -6 767.264 749.714 64.044 311.074 o
-11 -10 -5 9212.920 9284.770 196.844 21.003 o
-11 -10 -4 6726.180 6469.090 99.656 38.933 o
-11 -10 -3 27212.600 27186.700 349.490 4.564 o
-11 -10 -2 6643.810 6540.870 154.940 33.172 o
-11 -10 -1 26869.100 26859.600 315.003 4.809 o
-11 -9 -13 1098.960 950.653 182.318 74.132 o
-11 -9 -12 3559.940 3462.420 167.524 51.613 o
-11 -9 -11 2468.810 2234.050 167.169 64.011 o
-11 -9 -10 6508.860 6295.710 197.733 29.134 o
-11 -9 -9 7255.570 7197.960 158.845 29.968 o
-11 -9 -8 13228.400 12997.000 209.074 13.874 o
-11 -9 -7 5092.700 5223.110 115.946 48.678 o
-11 -9 -6 8975.490 8752.370 175.141 23.127 o
-11 -9 -5 411.811 550.462 56.063 468.862 o
-11 -9 -4 848.071 860.082 54.285 325.443 o
-11 -9 -3 16667.300 16603.600 279.382 9.282 o
-11 -9 -2 3604.130 3557.440 97.374 73.986 o
-11 -9 -1 28201.500 27669.800 338.586 4.432 o
-11 -8 -13 2008.440 1904.960 237.052 42.391 o
-11 -8 -12 4367.460 4508.470 176.664 42.408 o
-11 -8 -11 9177.470 9057.420 207.116 20.640 o
-11 -8 -10 7815.430 7363.930 164.817 27.777 o
-11 -8 -9 5902.930 5779.500 143.498 38.724 o
-11 -8 -8 3651.970 3872.970 91.068 73.500 o
-11 -8 -7 13098.900 12347.800 183.629 14.953 o
-11 -8 -6 11709.600 11849.800 233.706 14.936 o
-11 -8 -5 18219.700 18471.600 281.939 8.256 o
-11 -8 -4 33077.700 33545.500 496.798 3.023 o
-11 -8 -3 6134.990 6269.310 144.822 36.642 o
-11 -8 -2 4413.350 4140.870 94.364 62.683 o
-11 -8 -1 15441.500 14735.500 182.713 12.105 o
-11 -7 -13 1159.690 994.715 207.079 59.570 o
-11 -7 -12 2042.030 1754.140 137.794 88.077 o
-11 -7 -11 6588.650 6591.020 207.706 27.542 o
-11 -7 -10 4679.330 4485.740 120.822 52.895 o
-11 -7 -9 16566.500 16632.200 423.380 7.125 o
-11 -7 -8 19133.900 19336.600 275.221 7.858 o
-11 -7 -7 18273.900 18501.900 225.302 8.920 o
-11 -7 -6 31957.400 31994.200 520.882 3.096 o
-11 -7 -5 19789.700 19278.000 320.589 7.164 o
-11 -7 -4 12528.400 12779.600 209.957 14.541 o
-11 -7 -3 16095.500 15478.000 213.650 10.925 o
-11 -7 -2 3591.230 3768.390 84.195 77.228 o
-11 -7 -1 3294.990 3434.330 64.722 91.401 o
-11 -6 -13 2762.510 2587.370 168.786 59.581 o
-11 -6 -12 815.511 890.384 134.126 125.686 o
-11 -6 -11 1441.110 1476.470 95.253 149.298 o
-11 -6 -10 9395.950 8915.420 165.043 22.806 o
-11 -6 -9 14707.300 14758.300 300.882 10.215 o
-11 -6 -8 12964.700 13302.000 218.466 13.715 o
-11 -6 -7 20624.600 20655.200 311.668 6.826 o
-11 -6 -6 4276.230 4426.830 93.715 62.783 o
-11 -6 -5 11543.300 11523.300 243.180 14.900 o
-11 -6 -4 13531.900 14352.300 249.495 12.133 o
-11 -6 -3 17198.100 17581.900 223.852 9.634 o
-11 -6 -2 8029.070 7621.530 117.698 30.542 o
-11 -6 -1 12263.600 12694.600 148.136 16.595 o
-11 -5 -13 3014.630 3240.690 149.205 62.488 o
-11 -5 -12 5891.520 5439.250 152.633 38.161 o
-11 -5 -11 5574.300 5630.640 134.859 41.792 o
-11 -5 -10 3380.140 3474.450 129.407 65.441 o
-11 -5 -9 11450.300 11192.800 166.790 17.900 o
-11 -5 -8 2407.680 2404.090 75.473 118.994 o
-11 -5 -7 224.737 155.669 48.114 809.551 o
-11 -5 -6 20441.500 20664.000 281.242 7.165 o
-11 -5 -5 24471.800 22880.500 333.166 5.501 o
-11 -5 -4 6589.710 6543.890 126.158 36.565 o
-11 -5 -3 29496.100 29295.400 399.194 3.904 o
-11 -5 -2 212.900 337.979 36.775 953.721 o
-11 -5 -1 6693.080 6676.960 110.624 37.528 o
-11 -4 -13 2253.740 2577.400 163.318 66.149 o
-11 -4 -12 576.344 737.375 119.787 160.628 o
-11 -4 -11 3118.390 3243.030 119.667 73.309 o
-11 -4 -10 16308.600 16657.100 291.917 9.224 o
-11 -4 -9 2123.790 1884.090 80.775 132.050 o
-11 -4 -8 20192.700 20731.600 313.736 6.914 o
-11 -4 -7 30453.800 29407.600 388.965 3.826 o
-11 -4 -6 1271.240 1362.520 51.706 238.769 o
-11 -4 -5 7931.070 7393.830 140.881 29.391 o
-11 -4 -4 18905.100 18770.700 236.487 8.478 o
-11 -4 -3 16858.600 16690.900 282.383 9.135 o
-11 -4 -2 7460.090 7501.650 107.580 33.323 o
-11 -4 -1 16545.200 15890.500 205.815 10.674 o
-11 -3 -13 1669.630 1315.130 144.982 91.932 o
-11 -3 -12 3089.370 3139.060 163.208 57.193 o
-11 -3 -11 2445.410 2262.480 103.046 100.568 o
-11 -3 -10 6740.930 7011.110 184.586 29.055 o
-11 -3 -9 15410.600 15849.900 243.806 10.681 o
-11 -3 -8 17127.800 17264.200 237.699 9.550 o
-11 -3 -7 1136.340 1148.960 55.454 257.709 o
-11 -3 -6 20790.800 21262.600 316.673 6.653 o
-11 -3 -5 31720.600 32245.000 426.195 3.416 o
-11 -3 -4 2641.600 2785.830 61.288 115.489 o
-11 -3 -3 9759.210 9408.200 146.937 22.649 o
-11 -3 -2 11538.300 11059.800 160.514 18.090 o
-11 -3 -1 1144.280 1042.400 37.673 306.937 o
-11 -2 -13 4051.940 4155.580 169.351 46.403 o
-11 -2 -12 4364.310 4260.490 162.437 46.104 o
-11 -2 -11 6793.830 6567.950 144.683 33.756 o
-11 -2 -10 4821.800 5029.760 134.826 47.321 o
-11 -2 -9 421.650 391.754 69.220 391.177 o
-11 -2 -8 267.866 256.360 59.048 565.421 o
-11 -2 -7 11364.000 11624.000 208.909 16.248 o
-11 -2 -6 4528.270 4746.450 106.595 56.191 o
-11 -2 -5 5497.710 5508.770 102.033 47.586 o
-11 -2 -4 17981.300 18522.100 254.963 8.677 o
-11 -2 -3 18289.400 18606.200 235.687 8.769 o
-11 -2 -2 1951.340 2336.380 56.530 151.690 o
-11 -2 -1 27661.400 26684.700 321.138 4.666 o
-11 -1 -13 1478.470 1751.770 148.391 88.845 o
-11 -1 -12 6605.470 6049.450 142.579 35.567 o
-11 -1 -11 113.499 243.912 90.210 330.036 o
-11 -1 -10 1285.430 1184.450 92.560 167.321 o
-11 -1 -9 2740.690 3156.990 104.339 86.224 o
-11 -1 -8 3319.260 3251.730 80.430 86.696 o
-11 -1 -7 4861.250 4996.670 90.307 55.812 o
-11 -1 -6 4965.140 4644.330 108.591 52.857 o
-11 -1 -5 233.127 271.951 37.721 951.564 o
-11 -1 -4 8061.600 8532.940 137.094 27.826 o
-11 -1 -3 17197.800 18005.100 251.767 9.155 o
-11 -1 -2 21373.100 20940.300 266.411 6.982 o
-11 -1 -1 19715.500 19270.600 258.731 7.846 o
-10 -32 -3 181.599 56.418 195.752 77.833 o
-10 -32 -2 411.972 336.218 151.092 119.236 o
-10 -32 -1 675.662 705.164 152.451 107.856 o
-10 -31 -4 990.886 509.840 187.702 73.732 o
-10 -31 -3 10154.700 9338.090 343.234 13.008 o
-10 -31 -2 1063.670 615.625 171.905 83.848 o
-10 -31 -1 1198.590 850.766 137.779 112.095 o
-10 -30 -5 7028.420 6494.760 268.478 21.313 o
-10 -30 -4 5969.260 5853.640 195.006 31.439 o
-10 -30 -3 769.435 780.468 163.701 93.819 o
-10 -30 -2 6281.590 6522.110 169.625 32.657 o
-10 -30 -1 3778.970 3442.270 154.155 54.192 o
-10 -29 -6 13620.300 13150.400 345.082 10.129 o
-10 -29 -5 8722.760 8157.340 269.558 18.150 o
-10 -29 -4 2249.900 2262.340 181.780 59.280 o
-10 -29 -3 3538.310 3461.760 148.433 57.623 o
-10 -29 -2 5570.400 5526.500 163.109 37.700 o
-10 -29 -1 2415.420 2441.550 166.218 64.009 o
-10 -28 -7 15714.500 15584.100 330.356 9.035 o
-10 -28 -6 609.148 649.897 157.561 103.849 o
-10 -28 -5 2472.860 2355.030 162.690 65.475 o
-10 -28 -4 17734.800 17264.100 247.008 9.147 o
-10 -28 -3 10.254 34.458 116.037 225.162 o
-10 -28 -2 5735.090 5350.190 144.303 40.249 o
-10 -28 -1 1831.140 1801.690 114.295 110.460 o
-10 -27 -8 4057.080 4085.970 203.131 39.079 o
-10 -27 -7 819.924 655.252 191.503 72.130 o
-10 -27 -6 14039.800 14517.000 271.257 11.266 o
-10 -27 -5 2237.450 2346.010 136.934 81.567 o
-10 -27 -4 5674.640 5388.820 149.890 39.572 o
-10 -27 -3 4933.760 5197.920 139.396 45.351 o
-10 -27 -2 7909.990 7664.460 204.392 24.067 o
-10 -27 -1 10264.700 10178.200 173.337 19.942 o
-10 -26 -8 1231.250 883.853 264.059 39.085 o
-10 -26 -7 2241.640 1942.960 176.049 63.052 o
-10 -26 -6 2264.820 2154.630 142.266 79.318 o
-10 -26 -5 4578.020 4204.600 145.033 49.015 o
-10 -26 -4 3232.150 2985.160 158.517 58.352 o
-10 -26 -3 1937.340 1948.770 117.410 103.735 o
-10 -26 -2 10078.000 10501.200 187.591 19.330 o
-10 -26 -1 5295.090 5636.640 203.130 32.554 o
-10 -25 -9 31.300 -70.517 169.294 106.258 o
-10 -25 -8 9586.160 8364.790 346.250 13.547 o
-10 -25 -7 5846.890 5431.760 187.317 33.419 o
-10 -25 -6 269.116 97.516 120.146 191.610 o
-10 -25 -5 269.005 196.644 110.479 218.805 o
-10 -25 -4 2223.080 2254.610 117.992 94.693 o
-10 -25 -3 12708.500 12446.500 310.255 11.646 o
-10 -25 -2 1075.250 1345.470 99.029 162.701 o
-10 -25 -1 394.027 191.654 93.764 273.684 o
-10 -24 -9 1673.780 1225.160 158.732 82.204 o
-10 -24 -8 139.454 243.362 130.403 167.575 o
-10 -24 -7 2466.460 2387.980 129.466 82.487 o
-10 -24 -6 2324.550 2115.980 118.865 93.517 o
-10 -24 -5 12304.500 11712.200 225.775 14.730 o
-10 -24 -4 335.828 450.003 102.888 229.570 o
-10 -24 -3 2071.460 1924.850 103.069 113.016 o
-10 -24 -2 1587.490 1415.760 94.022 146.216 o
-10 -24 -1 3089.690 2987.560 103.741 82.420 o
-10 -23 -10 1220.400 1448.750 170.006 78.483 o
-10 -23 -9 2293.130 2316.700 181.744 58.796 o
-10 -23 -8 615.543 733.636 132.114 136.927 o
-10 -23 -7 1608.870 1606.050 114.685 118.092 o
-10 -23 -6 2115.730 2174.900 144.343 79.861 o
-10 -23 -5 2633.400 2590.680 130.503 78.299 o
-10 -23 -4 2829.100 3044.320 117.680 79.148 o
-10 -23 -3 13300.100 13439.100 215.533 13.470 o
-10 -23 -2 779.289 618.136 81.485 253.072 o
-10 -23 -1 17027.900 17203.900 189.786 10.272 o
-10 -22 -10 2233.980 2256.230 164.923 67.018 o
-10 -22 -9 487.861 547.727 131.812 144.807 o
-10 -22 -8 740.898 638.443 114.995 165.184 o
-10 -22 -7 2837.300 2694.830 120.658 79.951 o
-10 -22 -6 3391.160 3366.290 120.162 69.302 o
-10 -22 -5 15546.500 14959.000 249.308 10.748 o
-10 -22 -4 1134.500 1166.230 88.802 183.016 o
-10 -22 -3 2278.080 2230.160 99.340 107.260 o
-10 -22 -2 858.250 816.438 89.904 211.409 o
-10 -22 -1 3570.820 3609.970 102.685 72.219 o
-10 -21 -10 336.847 520.086 144.979 127.824 o
-10 -21 -9 2411.890 2415.670 151.624 71.055 o
-10 -21 -8 4694.450 4262.780 133.392 50.744 o
-10 -21 -7 9399.040 9414.100 220.988 19.310 o
-10 -21 -6 1425.590 1619.010 98.586 142.588 o
-10 -21 -5 8342.830 8019.150 154.550 26.540 o
-10 -21 -4 2049.310 1942.440 89.995 125.042 o
-10 -21 -3 11595.400 11769.700 221.797 15.489 o
-10 -21 -2 1943.050 2141.110 80.363 134.272 o
-10 -21 -1 2662.980 2713.310 84.696 102.632 o
-10 -20 -11 599.884 292.633 163.752 100.365 o
-10 -20 -10 10173.900 9896.870 224.705 17.865 o
-10 -20 -9 2222.840 2362.190 124.536 89.384 o
-10 -20 -8 2476.720 2531.220 117.053 88.546 o
-10 -20 -7 3881.290 3821.230 136.702 57.211 o
-10 -20 -6 2952.940 2906.450 107.919 83.095 o
-10 -20 -5 9749.100 9554.690 155.552 22.110 o
-10 -20 -4 9748.520 9664.210 218.589 18.823 o
-10 -20 -3 2332.720 2481.880 84.800 113.408 o
-10 -20 -2 9982.180 10100.800 162.940 20.909 o
-10 -20 -1 6168.190 6153.160 137.965 37.613 o
-10 -19 -11 6102.150 5754.560 195.642 31.131 o
-10 -19 -10 735.556 875.595 143.656 115.343 o
-10 -19 -9 7359.070 6840.020 170.321 29.093 o
-10 -19 -8 3932.330 3781.070 123.245 60.940 o
-10 -19 -7 186.729 409.858 87.927 317.665 o
-10 -19 -6 21300.500 20572.500 240.375 7.278 o
-10 -19 -5 825.490 853.745 82.735 232.483 o
-10 -19 -4 6838.400 6661.480 120.095 36.012 o
-10 -19 -3 7058.800 6833.270 118.410 35.021 o
-10 -19 -2 2791.500 2585.560 80.243 103.724 o
-10 -19 -1 4995.000 4611.080 160.562 42.513 o
-10 -18 -11 3651.940 3611.150 208.982 40.229 o
-10 -18 -10 1275.700 1331.300 138.421 104.677 o
-10 -18 -9 4123.110 3913.740 127.331 57.610 o
-10 -18 -8 5864.020 6035.440 160.936 35.963 o
-10 -18 -7 14879.700 14277.600 225.739 11.812 o
-10 -18 -6 1900.280 1664.250 89.732 134.829 o
-10 -18 -5 1582.770 1593.350 82.313 158.145 o
-10 -18 -4 26601.700 26106.100 315.275 4.915 o
-10 -18 -3 3269.880 3094.270 87.225 86.059 o
-10 -18 -2 6128.130 6197.170 108.335 41.406 o
-10 -18 -1 2457.350 2252.610 71.624 122.473 o
-10 -17 -12 1146.850 1275.450 216.626 54.532 o
-10 -17 -11 8314.140 7304.260 248.369 20.503 o
-10 -17 -10 653.095 870.098 126.735 142.272 o
-10 -17 -9 16404.800 16679.700 299.841 9.052 o
-10 -17 -8 1608.670 1529.220 93.579 143.699 o
-10 -17 -7 336.222 452.233 79.845 335.232 o
-10 -17 -6 18335.100 18527.900 295.964 8.029 o
-10 -17 -5 5347.520 5375.940 146.827 41.540 o
-10 -17 -4 7924.030 7894.380 153.928 27.734 o
-10 -17 -3 7470.820 7650.050 132.129 31.059 o
-10 -17 -2 10872.000 10622.700 185.167 18.301 o
-10 -17 -1 11477.000 11505.800 177.585 17.300 o
-10 -16 -12 4295.700 4188.640 198.542 38.925 o
-10 -16 -11 737.745 658.591 137.973 125.557 o
-10 -16 -10 9063.160 9227.530 219.084 19.994 o
-10 -16 -9 8490.460 8555.400 168.257 24.692 o
-10 -16 -8 7240.270 7435.700 191.456 26.724 o
-10 -16 -7 12083.500 12161.600 195.188 15.699 o
-10 -16 -6 1928.170 1724.700 77.907 145.301 o
-10 -16 -5 12083.000 12117.700 198.167 15.627 o
-10 -16 -4 27167.100 26563.700 372.021 4.508 o
-10 -16 -3 1740.620 1742.590 64.545 169.074 o
-10 -16 -2 28408.100 27782.900 402.799 4.113 o
-10 -16 -1 7492.030 7602.850 115.981 32.383 o
-10 -15 -12 2898.430 2836.170 179.141 54.000 o
-10 -15 -11 8658.930 8602.560 250.421 19.092 o
-10 -15 -10 2147.420 2261.210 118.591 95.598 o
-10 -15 -9 2337.320 2481.530 102.433 100.956 o
-10 -15 -8 24448.500 23857.100 286.972 5.699 o
-10 -15 -7 1958.630 1993.760 90.166 126.922 o
-10 -15 -6 13205.200 13718.500 201.027 13.801 o
-10 -15 -5 1225.870 1388.450 61.141 223.383 o
-10 -15 -4 5955.710 6358.440 130.011 39.095 o
-10 -15 -3 10319.500 10375.600 150.704 20.696 o
-10 -15 -2 569.518 567.486 50.022 454.355 o
-10 -15 -1 3893.360 3811.840 75.768 75.372 o
-10 -14 -12 3486.260 4092.570 216.943 38.256 o
-10 -14 -11 1376.510 1289.450 126.512 115.348 o
-10 -14 -10 20894.800 20442.200 467.670 5.342 o
-10 -14 -9 1855.360 2082.790 102.605 117.007 o
-10 -14 -8 696.290 734.621 83.172 250.012 o
-10 -14 -7 1779.460 1634.170 76.037 155.939 o
-10 -14 -6 13359.700 13057.600 211.506 13.678 o
-10 -14 -5 8250.920 8198.050 142.198 27.417 o
-10 -14 -4 217.535 173.435 45.416 865.407 o
-10 -14 -3 1139.220 1207.860 50.780 264.802 o
-10 -14 -2 1430.340 1497.520 49.644 220.322 o
-10 -14 -1 4706.280 4326.290 78.234 62.487 o
-10 -13 -13 3343.520 3297.720 209.433 41.919 o
-10 -13 -12 5131.710 4861.820 172.020 39.298 o
-10 -13 -11 5942.440 5724.770 201.277 30.898 o
-10 -13 -10 3636.770 3585.600 118.620 66.124 o
-10 -13 -9 1831.230 1811.310 95.413 128.715 o
-10 -13 -8 12653.100 12995.700 201.552 14.574 o
-10 -13 -7 2127.050 1912.520 81.095 131.155 o
-10 -13 -6 1602.910 1625.730 74.946 166.287 o
-10 -13 -5 1170.450 1337.920 53.932 246.394 o
-10 -13 -4 3481.930 3323.940 84.604 81.906 o
-10 -13 -3 23794.200 23127.400 313.632 5.746 o
-10 -13 -2 3471.360 3524.360 84.300 80.665 o
-10 -13 -1 23522.900 22951.000 298.397 5.928 o
-10 -12 -13 4432.880 4251.350 200.164 37.999 o
-10 -12 -12 10568.100 10247.900 391.454 10.912 o
-10 -12 -11 2522.700 2570.250 128.703 80.871 o
-10 -12 -10 7430.240 7063.030 182.136 27.553 o
-10 -12 -9 3641.250 3521.880 111.005 69.020 o
-10 -12 -8 2843.660 2629.980 90.698 96.307 o
-10 -12 -7 1229.410 1176.620 65.622 223.430 o
-10 -12 -6 1375.340 1413.870 59.082 213.032 o
-10 -12 -5 6024.130 5791.850 141.001 38.540 o
-10 -12 -4 3015.500 2914.690 76.357 97.279 o
-10 -12 -3 7234.160 6815.380 110.819 35.101 o
-10 -12 -2 21377.900 21333.600 288.399 6.737 o
-10 -12 -1 29131.300 29227.200 377.343 4.040 o
-10 -11 -13 2417.700 2381.360 187.186 55.599 o
-10 -11 -12 9719.150 9797.490 280.038 15.805 o
-10 -11 -11 4757.840 4411.700 150.203 46.272 o
-10 -11 -10 5808.090 5700.480 173.560 35.008 o
-10 -11 -9 573.866 506.895 87.237 261.373 o
-10 -11 -8 8563.200 8467.860 169.952 24.520 o
-10 -11 -7 1467.160 1441.890 64.044 196.449 o
-10 -11 -6 140.475 118.066 49.281 902.702 o
-10 -11 -5 649.410 598.178 52.737 407.704 o
-10 -11 -4 17998.900 17918.600 276.048 8.518 o
-10 -11 -3 4143.480 4253.640 91.031 65.664 o
-10 -11 -2 5049.510 4927.470 80.787 56.231 o
-10 -11 -1 56354.400 56241.700 619.079 1.330 o
-10 -10 -13 2172.120 2015.950 177.224 62.778 o
-10 -10 -12 6526.310 6264.350 179.714 31.145 o
-10 -10 -11 2004.650 2241.740 126.643 92.597 o
-10 -10 -10 10721.600 10139.600 267.835 15.292 o
-10 -10 -9 1363.260 1306.890 95.508 155.946 o
-10 -10 -8 595.309 619.852 70.480 323.230 o
-10 -10 -7 1375.530 1525.880 64.036 200.095 o
-10 -10 -6 14489.300 14075.500 258.681 11.413 o
-10 -10 -5 4872.810 5241.720 106.692 51.761 o
-10 -10 -4 9176.420 9506.400 175.563 22.083 o
-10 -10 -3 40158.700 40742.400 427.446 2.449 o
-10 -10 -2 20872.600 20776.000 215.588 7.589 o
-10 -10 -1 21766.000 21527.500 235.708 7.026 o
-10 -9 -13 2948.820 3225.850 230.056 38.672 o
-10 -9 -12 7347.750 6992.880 188.595 27.238 o
-10 -9 -11 4970.210 5222.170 149.687 43.199 o
-10 -9 -10 8491.310 8575.310 251.856 19.228 o
-10 -9 -9 6854.030 6795.640 172.534 30.278 o
-10 -9 -8 2803.610 2813.860 102.286 89.086 o
-10 -9 -7 2534.400 2279.270 71.740 119.658 o
-10 -9 -6 3938.350 4112.870 102.574 65.383 o
-10 -9 -5 23004.300 23348.500 344.369 5.672 o
-10 -9 -4 13021.600 13056.800 202.565 14.195 o
-10 -9 -3 16263.400 16855.900 194.304 10.732 o
-10 -9 -2 11163.600 10612.700 129.725 19.986 o
-10 -9 -1 26369.300 25452.900 293.905 5.121 o
-10 -8 -13 7685.790 7227.950 236.506 22.332 o
-10 -8 -12 4662.080 4520.050 179.124 40.621 o
-10 -8 -11 3901.160 3896.360 136.400 56.856 o
-10 -8 -10 1326.850 1079.950 93.685 165.966 o
-10 -8 -9 3606.710 3586.050 107.206 70.363 o
-10 -8 -8 7933.980 8523.530 173.869 25.484 o
-10 -8 -7 15659.500 15868.100 241.404 10.583 o
-10 -8 -6 834.289 820.251 51.070 344.405 o
-10 -8 -5 1397.430 1357.350 53.900 222.645 o
-10 -8 -4 32562.700 32378.800 378.075 3.477 o
-10 -8 -3 17843.500 18308.600 256.459 8.757 o
-10 -8 -2 8860.560 8696.800 115.483 26.962 o
-10 -8 -1 6585.410 6440.920 88.541 40.737 o
-10 -7 -13 3280.090 3199.180 135.299 65.555 o
-10 -7 -12 747.401 702.460 120.221 153.343 o
-10 -7 -11 4890.850 4932.140 140.939 46.008 o
-10 -7 -10 1540.730 1473.910 99.271 140.109 o
-10 -7 -9 6813.790 6632.610 180.165 29.811 o
-10 -7 -8 1566.950 1594.760 75.698 167.974 o
-10 -7 -7 1814.240 1950.330 63.256 161.172 o
-10 -7 -6 20655.100 20633.900 282.213 7.097 o
-10 -7 -5 7212.780 7341.950 129.829 32.549 o
-10 -7 -4 3755.770 3695.260 94.525 72.202 o
-10 -7 -3 2013.310 1959.280 55.873 158.306 o
-10 -7 -2 21171.200 21659.500 293.208 6.708 o
-10 -7 -1 2627.250 2582.170 55.797 121.903 o
-10 -6 -13 7055.000 6698.100 201.915 26.971 o
-10 -6 -12 2586.410 2497.960 122.646 83.853 o
-10 -6 -11 5795.540 5625.690 135.949 40.610 o
-10 -6 -10 5435.150 5242.040 124.391 45.166 o
-10 -6 -9 4332.430 4606.980 135.955 51.392 o
-10 -6 -8 7459.550 7197.350 175.341 27.935 o
-10 -6 -7 7926.310 7916.200 142.681 28.564 o
-10 -6 -6 4151.440 4060.270 100.174 64.164 o
-10 -6 -5 2051.150 1985.730 54.783 156.774 o
-10 -6 -4 16672.300 17805.400 305.582 8.635 o
-10 -6 -3 1173.340 1106.200 46.371 277.289 o
-10 -6 -2 28623.700 29746.500 349.123 4.185 o
-10 -6 -1 17000.100 15661.600 197.947 10.600 o
-10 -5 -14 2277.110 2305.140 206.284 49.815 o
-10 -5 -13 319.457 576.186 129.402 155.169 o
-10 -5 -12 8406.880 8500.220 206.745 22.300 o
-10 -5 -11 9248.100 9426.100 221.876 19.453 o
-10 -5 -10 456.145 424.984 85.086 290.653 o
-10 -5 -9 3877.660 3949.600 107.275 65.456 o
-10 -5 -8 1227.880 1516.740 62.928 214.118 o
-10 -5 -7 5581.990 5470.410 108.134 46.275 o
-10 -5 -6 7332.430 7424.890 151.766 30.087 o
-10 -5 -5 453.773 502.584 39.097 611.489 o
-10 -5 -4 20236.200 20111.700 342.513 6.699 o
-10 -5 -3 13731.900 13159.800 184.439 13.996 o
-10 -5 -2 5065.020 4518.220 76.567 58.558 o
-10 -5 -1 25200.100 24341.600 296.832 5.435 o
-10 -4 -14 1530.240 1479.500 202.809 57.672 o
-10 -4 -13 1989.670 2153.160 146.304 80.422 o
-10 -4 -12 980.556 769.482 112.281 156.728 o
-10 -4 -11 4660.040 4994.780 143.904 46.514 o
-10 -4 -10 6484.450 6718.370 190.699 29.432 o
-10 -4 -9 3285.720 3431.560 106.390 75.496 o
-10 -4 -8 2379.760 2520.110 75.218 118.297 o
-10 -4 -7 1328.060 1234.860 53.745 235.543 o
-10 -4 -6 2637.380 2806.710 62.997 114.398 o
-10 -4 -5 24762.400 23870.000 322.221 5.417 o
-10 -4 -4 3848.160 3459.970 84.010 75.886 o
-10 -4 -3 5379.580 5098.840 91.520 51.328 o
-10 -4 -2 3639.160 3279.590 78.927 81.870 o
-10 -4 -1 6192.000 5776.360 99.629 43.206 o
-10 -3 -14 1392.430 1282.410 187.168 67.081 o
-10 -3 -13 11988.900 12226.200 358.017 10.768 o
-10 -3 -12 1334.800 1223.030 116.543 129.195 o
-10 -3 -11 1161.120 1225.030 128.419 119.386 o
-10 -3 -10 10161.900 9889.640 192.938 19.386 o
-10 -3 -9 1387.540 1611.410 84.213 164.562 o
-10 -3 -8 6383.160 6263.220 115.455 39.221 o
-10 -3 -7 7555.470 7435.300 165.658 28.259 o
-10 -3 -6 1051.040 1193.830 49.646 280.261 o
-10 -3 -5 7516.070 8036.740 127.293 30.734 o
-10 -3 -4 1871.400 1853.990 46.515 177.879 o
-10 -3 -3 27372.100 27470.700 398.159 4.289 o
-10 -3 -2 40156.900 40550.200 520.964 2.292 o
-10 -3 -1 43310.500 43834.500 511.781 2.073 o
-10 -2 -14 6684.750 6720.250 330.744 17.117 o
-10 -2 -13 9099.920 8844.570 213.649 20.528 o
-10 -2 -12 10719.400 10545.700 231.699 16.597 o
-10 -2 -11 5921.380 6358.310 158.557 35.496 o
-10 -2 -10 8609.540 8837.200 151.192 25.259 o
-10 -2 -9 1702.400 1729.620 75.919 157.465 o
-10 -2 -8 1673.550 1747.550 67.876 168.502 o
-10 -2 -7 2932.800 3052.720 79.996 95.825 o
-10 -2 -6 189.454 137.663 36.568 1183.470 o
-10 -2 -5 33463.700 33190.300 416.758 3.240 o
-10 -2 -4 9707.080 9487.970 151.307 22.455 o
-10 -2 -3 78893.900 78665.200 922.830 0.698 o
-10 -2 -2 22615.500 22873.700 275.553 6.313 o
-10 -2 -1 52971.300 52676.200 625.150 1.454 o
-10 -1 -14 9657.140 10460.000 338.414 13.152 o
-10 -1 -13 4851.550 5014.580 182.898 38.199 o
-10 -1 -12 7379.200 7980.560 270.432 19.757 o
-10 -1 -11 9094.990 9203.330 191.279 21.572 o
-10 -1 -10 11426.500 11257.500 222.940 15.861 o
-10 -1 -9 1270.660 1307.220 72.513 200.775 o
-10 -1 -8 2763.950 2890.830 91.342 94.963 o
-10 -1 -7 4741.520 4746.490 86.889 58.509 o
-10 -1 -6 7798.920 7905.160 100.771 31.999 o
-10 -1 -5 5455.290 5270.480 118.778 45.899 o
-10 -1 -4 27777.900 27623.200 346.649 4.461 o
-10 -1 -3 21224.300 21430.100 259.286 7.013 o
-10 -1 -2 24182.200 25598.000 349.263 5.196 o
-10 -1 -1 71859.500 71249.600 802.237 0.848 o
-9 -33 -2 1269.470 1318.620 180.986 71.576 o
-9 -33 -1 15763.300 15452.800 351.030 8.680 o
-9 -32 -4 758.023 651.141 211.754 60.895 o
-9 -32 -3 4313.590 3572.240 186.932 42.510 o
-9 -32 -2 2618.900 2272.140 189.730 53.755 o
-9 -32 -1 3088.170 2775.310 210.741 43.689 o
-9 -31 -5 569.611 506.650 177.127 86.347 o
-9 -31 -4 1126.790 1154.230 164.499 85.450 o
-9 -31 -3 1485.240 1653.370 150.790 87.643 o
-9 -31 -2 9818.630 10080.300 302.596 14.613 o
-9 -31 -1 709.439 869.330 130.090 135.019 o
-9 -30 -6 626.251 659.797 177.066 84.755 o
-9 -30 -5 596.299 223.704 154.726 111.590 o
-9 -30 -4 5261.300 4944.800 177.779 37.660 o
-9 -30 -3 803.161 520.861 128.618 139.980 o
-9 -30 -2 386.853 383.108 124.529 166.875 o
-9 -30 -1 1792.900 1774.940 127.527 100.017 o
-9 -29 -7 2823.970 2432.000 183.611 54.183 o
-9 -29 -6 1431.250 1553.220 198.572 59.996 o
-9 -29 -5 16.796 101.301 133.998 167.477 o
-9 -29 -4 1007.320 1214.190 137.290 112.867 o
-9 -29 -3 294.872 401.498 121.589 177.916 o
-9 -29 -2 1775.250 1698.540 126.840 101.695 o
-9 -29 -1 1336.050 1117.350 112.013 136.842 o
-9 -28 -8 111.261 304.647 479.662 13.232 o
-9 -28 -7 1410.180 1380.750 160.898 83.027 o
-9 -28 -6 2255.440 1856.920 156.749 72.975 o
-9 -28 -5 733.039 718.008 154.664 104.137 o
-9 -28 -4 1388.730 1169.780 124.368 118.962 o
-9 -28 -3 157.345 8.928 103.003 268.795 o
-9 -28 -2 6047.610 6272.820 168.027 33.992 o
-9 -28 -1 1358.960 1260.820 105.973 141.825 o
-9 -27 -8 98.437 -97.756 172.805 100.919 o
-9 -27 -7 2032.360 1933.570 171.123 67.228 o
-9 -27 -6 479.486 344.871 150.452 118.454 o
-9 -27 -5 1998.400 1772.450 129.025 95.042 o
-9 -27 -4 8901.830 8438.790 190.263 22.593 o
-9 -27 -3 2772.010 2735.970 120.540 80.627 o
-9 -27 -2 19768.700 18814.700 253.595 7.961 o
-9 -27 -1 825.552 788.416 93.675 205.118 o
-9 -26 -9 1119.650 893.354 179.876 75.836 o
-9 -26 -8 22.298 7.372 152.151 131.533 o
-9 -26 -7 54.189 -361.595 132.427 172.015 o
-9 -26 -6 1012.550 883.190 122.006 137.345 o
-9 -26 -5 4157.250 4132.190 137.098 53.914 o
-9 -26 -4 4557.690 4250.720 145.342 48.928 o
-9 -26 -3 417.175 231.708 105.562 222.591 o
-9 -26 -2 2987.930 3065.410 114.936 78.156 o
-9 -26 -1 1831.150 1879.220 107.246 116.033 o
-9 -25 -9 606.781 307.623 154.363 110.963 o
-9 -25 -8 1778.850 1548.130 172.034 70.882 o
-9 -25 -7 1181.190 807.338 134.187 117.204 o
-9 -25 -6 255.425 41.249 110.144 227.302 o
-9 -25 -5 5821.780 5569.470 150.114 38.547 o
-9 -25 -4 11881.800 11525.100 196.275 16.198 o
-9 -25 -3 382.890 282.507 95.455 262.170 o
-9 -25 -2 10570.800 10452.500 187.975 18.683 o
-9 -25 -1 9438.500 9755.330 164.815 22.003 o
-9 -24 -10 151.617 179.381 164.245 108.778 o
-9 -24 -9 114.474 180.228 156.461 120.205 o
-9 -24 -8 3812.020 3570.820 179.793 46.562 o
-9 -24 -7 1661.710 1735.190 127.875 102.704 o
-9 -24 -6 1835.330 1527.740 129.389 100.020 o
-9 -24 -5 1354.610 1230.960 106.313 142.064 o
-9 -24 -4 108.209 276.879 93.763 306.619 o
-9 -24 -3 29500.000 29176.000 323.207 4.206 o
-9 -24 -2 1693.910 1587.600 91.390 141.964 o
-9 -24 -1 22195.400 22020.500 264.949 6.611 o
-9 -23 -10 15361.600 13921.000 414.392 7.967 o
-9 -23 -9 41.043 -271.814 139.171 156.468 o
-9 -23 -8 804.247 710.301 120.366 150.666 o
-9 -23 -7 1436.650 1297.910 122.316 118.382 o
-9 -23 -6 271.940 173.112 101.119 255.815 o
-9 -23 -5 10144.900 9722.420 266.001 16.085 o
-9 -23 -4 824.821 887.924 93.084 203.075 o
-9 -23 -3 2960.520 2977.890 105.537 83.594 o
-9 -23 -2 908.665 994.987 84.031 215.490 o
-9 -23 -1 40610.400 42065.700 520.188 2.231 o
-9 -22 -10 369.427 477.879 149.497 120.821 o
-9 -22 -9 714.741 705.677 123.422 148.744 o
-9 -22 -8 538.088 752.883 114.404 173.545 o
-9 -22 -7 941.318 815.826 108.785 163.937 o
-9 -22 -6 451.947 426.849 103.322 219.423 o
-9 -22 -5 7288.100 7249.600 155.876 30.081 o
-9 -22 -4 1733.390 1500.410 93.986 139.016 o
-9 -22 -3 32802.900 31723.400 541.048 2.978 o
-9 -22 -2 4767.250 4525.090 107.920 54.904 o
-9 -22 -1 16145.200 16102.500 230.400 10.446 o
-9 -21 -11 3359.040 3245.770 180.147 49.738 o
-9 -21 -10 2868.020 2983.900 155.490 62.393 o
-9 -21 -9 659.055 698.032 116.813 163.860 o
-9 -21 -8 4071.010 3894.580 132.844 56.566 o
-9 -21 -7 1947.910 1848.180 117.225 104.736 o
-9 -21 -6 4660.770 4594.350 131.159 50.387 o
-9 -21 -5 644.920 474.146 85.907 260.236 o
-9 -21 -4 9929.040 10048.100 203.268 19.098 o
-9 -21 -3 4200.950 3994.810 114.036 60.257 o
-9 -21 -2 5297.830 5473.060 123.232 45.478 o
-9 -21 -1 17448.400 17823.000 245.202 9.175 o
-9 -20 -11 11459.100 11232.000 388.062 10.408 o
-9 -20 -10 4147.540 4027.370 220.271 35.578 o
-9 -20 -9 5127.680 4657.620 165.272 40.938 o
-9 -20 -8 1044.520 934.018 115.691 145.094 o
-9 -20 -7 1153.730 1223.620 102.992 155.292 o
-9 -20 -6 232.691 131.267 84.210 358.594 o
-9 -20 -5 1217.030 1321.370 94.449 164.147 o
-9 -20 -4 2434.790 2519.760 90.579 106.396 o
-9 -20 -3 1619.840 1497.500 79.811 162.067 o
-9 -20 -2 7617.150 7076.340 134.310 31.300 o
-9 -20 -1 2103.150 1945.510 70.939 140.737 o
-9 -19 -11 309.843 270.120 187.817 81.755 o
-9 -19 -10 422.649 364.838 121.515 172.589 o
-9 -19 -9 504.766 416.604 98.494 231.575 o
-9 -19 -8 5967.260 5555.690 157.329 36.968 o
-9 -19 -7 516.964 476.987 89.546 260.475 o
-9 -19 -6 3505.350 3193.240 129.865 65.425 o
-9 -19 -5 2754.680 2712.480 91.132 97.019 o
-9 -19 -4 7763.430 7942.730 161.265 27.491 o
-9 -19 -3 9385.410 9475.260 137.972 23.746 o
-9 -19 -2 24633.400 24549.600 424.295 4.741 o
-9 -19 -1 527.723 462.222 55.654 446.973 o
-9 -18 -12 996.949 1141.570 181.508 74.730 o
-9 -18 -11 44.200 195.041 145.413 140.254 o
-9 -18 -10 2553.180 2778.920 130.430 78.158 o
-9 -18 -9 145.104 97.399 97.968 290.650 o
-9 -18 -8 1497.440 1397.370 103.444 137.724 o
-9 -18 -7 3699.760 3447.970 110.042 69.114 o
-9 -18 -6 2581.970 2553.060 94.213 100.402 o
-9 -18 -5 5314.350 5444.170 110.854 47.512 o
-9 -18 -4 207.251 149.928 58.700 636.128 o
-9 -18 -3 8614.690 8674.770 119.592 27.369 o
-9 -18 -2 2179.890 2227.970 70.901 132.617 o
-9 -18 -1 521.553 586.577 53.578 443.102 o
-9 -17 -12 915.597 974.101 168.194 86.440 o
-9 -17 -11 2992.320 2891.650 177.261 53.869 o
-9 -17 -10 1510.160 1590.260 110.662 125.465 o
-9 -17 -9 6479.250 5999.790 181.849 31.406 o
-9 -17 -8 3279.690 3661.040 118.812 69.417 o
-9 -17 -7 4449.500 4359.740 137.450 51.084 o
-9 -17 -6 5847.000 5837.570 142.582 38.966 o
-9 -17 -5 112.753 12.669 59.077 753.532 o
-9 -17 -4 5982.680 5766.910 105.477 43.599 o
-9 -17 -3 7305.890 7161.160 134.103 32.155 o
-9 -17 -2 18415.400 18514.300 285.664 8.131 o
-9 -17 -1 14562.700 14539.100 314.162 10.061 o
-9 -16 -12 2932.550 2889.010 168.825 57.218 o
-9 -16 -11 23019.400 22268.300 402.409 5.344 o
-9 -16 -10 22.120 -40.260 99.989 302.993 o
-9 -16 -9 3549.650 3487.700 117.848 67.798 o
-9 -16 -8 2573.080 2716.030 113.223 87.714 o
-9 -16 -7 1525.830 1594.310 85.587 156.342 o
-9 -16 -6 7243.760 6776.980 121.756 34.140 o
-9 -16 -5 2395.230 2280.270 73.074 122.936 o
-9 -16 -4 34403.200 33953.900 404.609 3.157 o
-9 -16 -3 5712.550 5456.830 99.614 46.797 o
-9 -16 -2 560.832 620.094 49.874 449.289 o
-9 -16 -1 4305.260 4652.800 109.953 57.606 o
-9 -15 -12 716.738 573.169 151.789 109.129 o
-9 -15 -11 1060.000 975.643 146.397 104.327 o
-9 -15 -10 3695.700 3582.090 147.640 56.244 o
-9 -15 -9 12434.100 11910.800 265.238 13.306 o
-9 -15 -8 3095.760 3111.930 101.679 82.338 o
-9 -15 -7 893.682 915.070 74.724 246.209 o
-9 -15 -6 13532.500 13892.800 180.277 13.950 o
-9 -15 -5 5.619 99.092 50.955 1070.060 o
-9 -15 -4 678.681 715.551 52.575 385.100 o
-9 -15 -3 1407.250 1360.300 55.975 218.014 o
-9 -15 -2 44305.500 43839.400 549.777 1.975 o
-9 -15 -1 1488.700 1383.860 54.779 212.008 o
-9 -14 -13 777.884 1105.830 189.887 71.529 o
-9 -14 -12 7036.420 7770.070 259.010 21.166 o
-9 -14 -11 2180.780 2212.180 130.774 87.179 o
-9 -14 -10 2554.630 2744.930 113.487 87.628 o
-9 -14 -9 1712.240 1603.370 108.267 122.028 o
-9 -14 -8 5682.760 5565.360 122.569 43.287 o
-9 -14 -7 2264.760 2115.190 76.136 127.397 o
-9 -14 -6 2260.330 2257.610 70.468 129.643 o
-9 -14 -5 500.432 499.629 51.415 481.999 o
-9 -14 -4 4367.450 4392.520 83.184 64.507 o
-9 -14 -3 19455.700 20145.100 256.866 7.804 o
-9 -14 -2 7697.990 7393.220 147.683 29.474 o
-9 -14 -1 28437.700 27973.900 335.149 4.391 o
-9 -13 -13 519.043 738.927 199.417 69.285 o
-9 -13 -12 10143.300 9512.250 266.794 16.150 o
-9 -13 -11 1582.000 1457.900 121.499 113.599 o
-9 -13 -10 16927.100 16489.100 356.634 8.013 o
-9 -13 -9 593.108 531.994 82.585 276.143 o
-9 -13 -8 12.645 79.171 74.182 532.088 o
-9 -13 -7 136.275 110.943 57.589 721.772 o
-9 -13 -6 779.015 820.746 56.027 335.379 o
-9 -13 -5 31220.400 31338.000 390.100 3.631 o
-9 -13 -4 507.140 489.525 50.250 490.490 o
-9 -13 -3 9555.730 9402.840 128.695 23.936 o
-9 -13 -2 1352.020 1302.270 43.946 247.605 o
-9 -13 -1 83192.100 82735.600 891.295 0.654 o
-9 -12 -13 328.861 403.639 182.667 85.119 o
-9 -12 -12 14669.100 14476.100 296.519 10.393 o
-9 -12 -11 772.085 694.316 114.240 163.971 o
-9 -12 -10 2405.370 2351.730 124.509 86.593 o
-9 -12 -9 51.999 77.208 79.189 456.504 o
-9 -12 -8 3427.180 3532.170 101.160 75.039 o
-9 -12 -7 1043.910 866.988 62.305 268.268 o
-9 -12 -6 1735.440 1849.220 63.778 167.357 o
-9 -12 -5 375.669 365.949 58.469 497.228 o
-9 -12 -4 2387.570 2447.700 75.263 119.091 o
-9 -12 -3 67174.300 66031.400 821.404 0.932 o
-9 -12 -2 3046.130 2791.700 54.620 107.730 o
-9 -12 -1 54284.400 53339.500 558.069 1.465 o
-9 -11 -13 604.201 745.151 166.018 94.379 o
-9 -11 -12 4210.960 4245.800 165.871 46.158 o
-9 -11 -11 2089.290 2047.320 124.877 94.079 o
-9 -11 -10 8052.350 7792.730 258.810 19.823 o
-9 -11 -9 1126.220 1075.380 84.092 196.020 o
-9 -11 -8 518.220 382.087 64.419 400.227 o
-9 -11 -7 994.781 945.822 59.854 276.804 o
-9 -11 -6 7075.770 7054.390 120.239 34.385 o
-9 -11 -5 2784.320 2751.540 73.433 105.699 o
-9 -11 -4 15583.100 15730.700 257.470 10.373 o
-9 -11 -3 4479.780 4239.490 80.428 64.753 o
-9 -11 -2 447.627 474.576 32.574 690.033 o
-9 -11 -1 61071.500 60019.000 612.848 1.190 o
-9 -10 -13 174.377 154.231 153.189 124.025 o
-9 -10 -12 4149.110 4075.920 159.097 48.571 o
-9 -10 -11 3663.040 3891.320 137.164 58.516 o
-9 -10 -10 5704.530 5693.610 146.894 39.249 o
-9 -10 -9 4886.940 4933.930 147.413 44.769 o
-9 -10 -8 4122.420 3948.010 120.864 59.265 o
-9 -10 -7 2888.220 3020.580 77.979 98.042 o
-9 -10 -6 3386.960 3635.320 86.300 80.371 o
-9 -10 -5 3590.980 3336.300 78.342 82.379 o
-9 -10 -4 4394.400 4306.860 94.136 62.123 o
-9 -10 -3 3638.380 3657.030 100.247 71.963 o
-9 -10 -2 12650.500 12791.600 160.224 15.800 o
-9 -10 -1 5206.310 4925.240 88.480 53.716 o
-9 -9 -13 12612.200 13086.100 316.703 11.347 o
-9 -9 -12 5428.380 5584.930 198.634 32.876 o
-9 -9 -11 3413.160 3610.800 130.952 63.926 o
-9 -9 -10 2249.870 1968.550 109.840 102.890 o
-9 -9 -9 1739.740 1714.240 97.480 131.082 o
-9 -9 -8 11082.500 10343.300 253.711 15.447 o
-9 -9 -7 149.815 75.183 55.981 758.194 o
-9 -9 -6 11516.100 11396.400 169.752 17.590 o
-9 -9 -5 17136.900 17234.600 298.647 8.669 o
-9 -9 -4 28704.000 29526.600 337.633 4.235 o
-9 -9 -3 15626.300 14869.600 176.803 12.032 o
-9 -9 -2 45757.700 45946.100 464.589 1.979 o
-9 -9 -1 6575.500 6661.710 94.339 39.701 o
-9 -8 -14 1370.040 965.620 237.311 46.449 o
-9 -8 -13 1652.430 1806.410 140.128 92.082 o
-9 -8 -12 253.680 288.114 125.271 173.656 o
-9 -8 -11 5210.970 4845.280 154.717 42.042 o
-9 -8 -10 19629.400 20346.400 313.047 7.135 o
-9 -8 -9 6689.940 6941.220 154.789 32.406 o
-9 -8 -8 8490.680 8215.040 186.210 23.802 o
-9 -8 -7 15808.100 15913.600 246.550 10.401 o
-9 -8 -6 1384.870 1359.870 53.872 223.735 o
-9 -8 -5 15546.700 14704.100 230.712 11.171 o
-9 -8 -4 3323.340 3663.470 93.832 78.293 o
-9 -8 -3 13518.300 13912.500 163.156 14.338 o
-9 -8 -2 9561.140 9584.520 101.787 24.942 o
-9 -8 -1 14614.200 13908.000 162.812 13.404 o
-9 -7 -14 1266.790 1041.070 186.039 69.834 o
-9 -7 -13 455.815 418.540 173.076 92.125 o
-9 -7 -12 2019.150 1914.840 121.863 98.856 o
-9 -7 -11 5485.550 5609.160 134.897 42.264 o
-9 -7 -10 5081.490 5407.160 145.767 42.908 o
-9 -7 -9 14364.300 13973.000 192.621 12.973 o
-9 -7 -8 25887.700 26849.400 364.482 4.718 o
-9 -7 -7 3630.190 3850.560 78.879 77.810 o
-9 -7 -6 27142.300 26934.800 383.476 4.428 o
-9 -7 -5 7058.130 7086.870 105.682 35.709 o
-9 -7 -4 9397.630 10142.200 146.185 22.676 o
-9 -7 -3 30951.700 32262.600 367.725 3.684 o
-9 -7 -2 18875.600 18909.100 242.289 8.398 o
-9 -7 -1 22775.700 21847.200 258.349 6.528 o
-9 -6 -14 5907.270 5700.090 298.570 20.782 o
-9 -6 -13 1820.210 1887.740 177.137 66.235 o
-9 -6 -12 23822.100 23034.300 417.401 5.033 o
-9 -6 -11 20998.700 20524.600 303.626 6.816 o
-9 -6 -10 8622.970 8831.820 166.776 24.246 o
-9 -6 -9 46.746 94.144 60.447 745.857 o
-9 -6 -8 7563.090 7849.340 115.988 31.754 o
-9 -6 -7 21724.800 20560.000 414.012 5.649 o
-9 -6 -6 7224.290 7446.940 161.627 29.458 o
-9 -6 -5 10223.000 10048.900 148.309 21.220 o
-9 -6 -4 77723.200 78752.600 843.770 0.732 o
-9 -6 -3 29171.100 30682.200 343.314 4.075 o
-9 -6 -2 3105.610 2960.730 75.793 95.242 o
-9 -6 -1 4812.590 4566.200 63.458 62.925 o
-9 -5 -14 5988.470 5718.260 208.772 29.862 o
-9 -5 -13 16656.000 16211.500 411.300 7.328 o
-9 -5 -12 6.221 291.332 111.583 232.234 o
-9 -5 -11 2819.340 2717.520 115.397 82.728 o
-9 -5 -10 9148.100 9164.860 191.054 21.530 o
-9 -5 -9 26831.600 27190.000 324.131 4.744 o
-9 -5 -8 16031.000 16083.500 215.179 10.763 o
-9 -5 -7 6750.290 6794.970 153.137 32.622 o
-9 -5 -6 46914.700 46762.800 561.403 1.801 o
-9 -5 -5 1125.900 1227.040 47.865 272.054 o
-9 -5 -4 7290.500 7656.740 138.604 31.038 o
-9 -5 -3 106.994 89.221 31.984 1746.350 o
-9 -5 -2 91467.000 92347.900 1088.860 0.522 o
-9 -5 -1 32422.900 32145.100 346.128 3.598 o
-9 -4 -14 656.370 537.373 173.255 88.418 o
-9 -4 -13 4970.110 4681.250 170.875 40.543 o
-9 -4 -12 6671.310 6451.190 159.360 32.734 o
-9 -4 -11 5675.660 5807.800 149.573 38.736 o
-9 -4 -10 6857.550 6930.490 169.242 30.421 o
-9 -4 -9 1730.520 1619.610 74.371 160.692 o
-9 -4 -8 4869.700 4698.770 108.598 53.350 o
-9 -4 -7 19209.900 18566.800 215.402 8.624 o
-9 -4 -6 6605.180 7006.600 135.936 34.586 o
-9 -4 -5 9107.580 9121.240 138.352 24.655 o
-9 -4 -4 44233.500 41899.200 496.677 2.096 o
-9 -4 -3 1082.700 1132.630 36.468 312.568 o
-9 -4 -2 48945.200 49112.200 599.681 1.648 o
-9 -4 -1 6330.250 5890.270 80.014 44.351 o
-9 -3 -14 1485.280 894.963 231.272 48.192 o
-9 -3 -13 773.464 857.583 159.357 97.334 o
-9 -3 -12 5782.080 5731.310 175.111 34.829 o
-9 -3 -11 5437.670 5544.630 141.165 41.650 o
-9 -3 -10 4213.690 4576.040 133.127 52.972 o
-9 -3 -9 1628.560 1775.500 75.916 159.924 o
-9 -3 -8 12526.500 12296.400 183.846 15.529 o
-9 -3 -7 2552.950 2468.920 61.557 122.705 o
-9 -3 -6 22940.700 21482.400 483.589 4.815 o
-9 -3 -5 29633.600 30970.300 411.023 3.748 o
-9 -3 -4 1044.390 1111.920 36.547 321.110 o
-9 -3 -3 28414.600 27512.300 339.893 4.407 o
-9 -3 -2 5482.150 5694.320 89.751 48.889 o
-9 -3 -1 5931.150 6728.400 83.909 43.835 o
-9 -2 -14 4342.390 4373.600 293.068 24.264 o
-9 -2 -13 869.443 967.610 110.745 160.065 o
-9 -2 -12 4167.920 4327.370 122.431 56.922 o
-9 -2 -11 3398.370 3231.240 99.351 78.120 o
-9 -2 -10 8672.900 9413.760 185.336 22.454 o
-9 -2 -9 793.319 707.610 67.897 295.043 o
-9 -2 -8 15236.500 15814.900 232.942 10.987 o
-9 -2 -7 9257.620 9667.010 160.876 22.606 o
-9 -2 -6 3801.800 3929.230 82.272 73.934 o
-9 -2 -5 15205.600 15381.400 192.402 11.875 o
-9 -2 -4 142.622 244.243 29.565 1420.440 o
-9 -2 -3 6236.060 5887.740 83.374 44.533 o
-9 -2 -2 16388.400 16438.300 243.113 10.027 o
-9 -2 -1 5728.030 5448.320 78.456 49.581 o
-9 -1 -14 2289.720 2314.580 227.628 43.225 o
-9 -1 -13 7576.180 7454.960 215.920 23.953 o
-9 -1 -12 4911.650 5107.300 162.825 41.344 o
-9 -1 -11 1099.080 1091.770 85.617 194.094 o
-9 -1 -10 1553.460 1634.640 79.061 162.986 o
-9 -1 -9 7024.050 6911.080 133.022 33.594 o
-9 -1 -8 1950.750 2010.540 68.221 148.270 o
-9 -1 -7 116.132 55.814 42.925 1207.180 o
-9 -1 -6 1339.140 1349.910 48.625 238.077 o
-9 -1 -5 10922.000 10822.000 182.907 18.201 o
-9 -1 -4 6682.920 6882.170 97.947 38.377 o
-9 -1 -3 7920.810 7471.090 93.879 32.776 o
-9 -1 -2 11893.500 10946.100 153.793 17.931 o
-9 -1 -1 28527.100 28330.600 273.635 4.597 o
-8 -34 -1 12083.300 13195.500 693.613 4.750 o
-8 -33 -3 6337.310 5679.590 211.621 28.731 o
-8 -33 -2 925.863 1041.910 171.856 82.965 o
-8 -33 -1 9210.670 9222.660 210.863 20.258 o
-8 -32 -5 1520.690 1374.430 200.606 59.056 o
-8 -32 -4 7237.810 6841.710 228.151 24.078 o
-8 -32 -3 4759.050 4451.700 190.636 38.216 o
-8 -32 -2 2180.000 1988.160 151.338 76.109 o
-8 -32 -1 3992.540 3919.290 156.107 50.720 o
-8 -31 -6 8161.800 7679.710 249.086 20.407 o
-8 -31 -5 820.869 685.415 207.171 62.768 o
-8 -31 -4 4728.040 4765.000 192.668 37.397 o
-8 -31 -3 1733.480 1941.840 142.436 88.032 o
-8 -31 -2 802.022 552.737 145.783 114.840 o
-8 -31 -1 4621.990 4440.950 153.078 46.316 o
-8 -30 -6 527.673 331.078 178.476 86.793 o
-8 -30 -5 4513.700 4281.150 186.892 40.200 o
-8 -30 -4 2670.030 2857.250 155.165 64.797 o
-8 -30 -3 3763.570 3781.200 141.137 56.957 o
-8 -30 -2 10502.900 10726.400 220.978 17.184 o
-8 -30 -1 3998.250 4327.230 137.407 54.269 o
-8 -29 -7 657.686 940.002 195.495 69.763 o
-8 -29 -6 8708.340 8274.640 298.173 16.515 o
-8 -29 -5 5149.770 5263.300 165.349 39.547 o
-8 -29 -4 3694.710 3458.990 150.570 55.803 o
-8 -29 -3 5672.280 5623.310 152.689 38.669 o
-8 -29 -2 454.313 776.253 111.519 184.235 o
-8 -29 -1 642.401 611.518 103.141 199.256 o
-8 -28 -8 7832.830 7299.380 236.765 22.030 o
-8 -28 -7 4454.100 4262.700 222.969 33.858 o
-8 -28 -6 614.952 467.797 146.110 119.766 o
-8 -28 -5 5932.620 5364.110 163.529 36.577 o
-8 -28 -4 6454.940 6111.120 157.178 34.247 o
-8 -28 -3 4378.040 4607.370 183.816 40.697 o
-8 -28 -2 4308.320 4508.200 134.456 52.236 o
-8 -28 -1 4270.560 4145.630 130.258 54.816 o
-8 -27 -8 5519.290 4983.830 222.147 30.224 o
-8 -27 -7 1368.190 1349.280 154.274 88.845 o
-8 -27 -6 15503.100 15619.500 280.627 10.017 o
-8 -27 -5 4285.600 3998.160 138.690 53.077 o
-8 -27 -4 6764.260 6816.340 180.336 29.682 o
-8 -27 -3 11074.900 11164.700 210.048 16.758 o
-8 -27 -2 639.776 749.544 99.399 204.756 o
-8 -27 -1 2410.980 2588.620 108.090 94.721 o
-8 -26 -9 771.551 521.761 237.531 49.709 o
-8 -26 -8 1137.920 1069.500 187.711 69.847 o
-8 -26 -7 4386.730 4408.810 166.526 44.707 o
-8 -26 -6 7377.420 6786.680 163.832 29.728 o
-8 -26 -5 3304.760 3083.010 127.577 68.887 o
-8 -26 -4 11369.400 11634.400 201.029 16.520 o
-8 -26 -3 3657.110 3774.570 122.305 63.776 o
-8 -26 -2 16622.500 17296.600 281.994 9.113 o
-8 -26 -1 398.250 401.210 90.696 274.160 o
-8 -25 -9 5778.860 5453.720 182.120 34.318 o
-8 -25 -8 5193.120 5026.100 176.767 37.931 o
-8 -25 -7 2078.650 1855.300 148.132 80.055 o
-8 -25 -6 5687.470 5439.520 150.614 39.300 o
-8 -25 -5 1693.990 1653.550 111.735 118.245 o
-8 -25 -4 1420.740 1569.270 115.057 123.349 o
-8 -25 -3 3392.580 3159.210 110.146 74.375 o
-8 -25 -2 8050.270 7934.930 157.455 27.110 o
-8 -25 -1 1703.840 1949.860 92.343 133.902 o
-8 -24 -10 2777.100 2611.960 179.079 55.522 o
-8 -24 -9 1140.730 1123.640 147.341 100.477 o
-8 -24 -8 105.299 -39.203 135.515 162.231 o
-8 -24 -7 168.000 -67.179 105.224 257.652 o
-8 -24 -6 46.422 93.119 100.055 292.738 o
-8 -24 -5 6084.970 5636.820 144.204 38.170 o
-8 -24 -4 4127.020 4126.190 122.857 57.943 o
-8 -24 -3 5798.040 5654.840 125.324 42.080 o
-8 -24 -2 2655.500 2558.760 100.219 95.220 o
-8 -24 -1 15528.300 15135.800 197.611 11.652 o
-8 -23 -10 811.479 605.654 150.493 108.398 o
-8 -23 -9 422.123 451.922 137.040 139.349 o
-8 -23 -8 798.287 634.160 122.886 147.892 o
-8 -23 -7 689.075 581.625 103.742 195.576 o
-8 -23 -6 406.332 264.673 95.371 260.902 o
-8 -23 -5 848.466 873.435 96.301 194.106 o
-8 -23 -4 2074.850 2098.620 97.620 115.332 o
-8 -23 -3 10791.700 10711.300 211.777 17.255 o
-8 -23 -2 1293.070 1254.250 88.215 172.483 o
-8 -23 -1 9729.920 10218.600 141.985 22.204 o
-8 -22 -11 4133.020 4397.490 233.510 32.805 o
-8 -22 -10 2449.140 2253.130 168.810 63.365 o
-8 -22 -9 1183.320 1388.120 131.411 113.398 o
-8 -22 -8 541.148 607.273 108.050 192.940 o
-8 -22 -7 1068.120 704.222 100.601 176.531 o
-8 -22 -6 26.656 -106.626 90.099 371.275 o
-8 -22 -5 3086.370 3048.800 109.072 79.594 o
-8 -22 -4 5039.560 4836.720 146.020 44.498 o
-8 -22 -3 1386.510 1258.580 79.694 181.629 o
-8 -22 -2 5392.480 5426.040 117.521 46.019 o
-8 -22 -1 21890.100 21698.000 235.484 6.965 o
-8 -21 -11 2406.330 2342.290 165.266 64.941 o
-8 -21 -10 459.820 414.340 135.468 141.491 o
-8 -21 -9 11423.700 11162.600 239.740 15.293 o
-8 -21 -8 2675.400 2610.430 113.566 86.725 o
-8 -21 -7 288.853 332.069 92.430 284.434 o
-8 -21 -6 3896.640 4125.320 123.122 59.793 o
-8 -21 -5 3098.840 2829.170 107.980 81.483 o
-8 -21 -4 4086.060 4071.440 107.035 62.874 o
-8 -21 -3 4175.830 4193.360 101.738 62.859 o
-8 -21 -2 30618.800 31674.600 374.284 3.732 o
-8 -21 -1 3244.280 3398.940 86.536 84.285 o
-8 -20 -11 8055.640 7742.550 282.003 18.358 o
-8 -20 -10 5620.330 5547.510 165.634 37.090 o
-8 -20 -9 2526.670 2327.420 114.835 90.764 o
-8 -20 -8 11544.100 11085.900 196.779 16.782 o
-8 -20 -7 14331.200 13852.100 251.366 11.740 o
-8 -20 -6 1715.190 1579.060 109.563 120.927 o
-8 -20 -5 5467.080 5590.230 146.485 40.567 o
-8 -20 -4 16834.500 16422.700 324.064 8.553 o
-8 -20 -3 1125.500 1133.950 68.704 228.064 o
-8 -20 -2 11420.800 11763.600 187.765 16.862 o
-8 -20 -1 1530.990 1827.380 68.480 173.440 o
-8 -19 -12 3879.820 4294.390 214.446 37.097 o
-8 -19 -11 9697.560 9380.730 344.764 13.217 o
-8 -19 -10 3610.110 3943.620 155.279 53.312 o
-8 -19 -9 8835.220 8766.270 168.297 23.800 o
-8 -19 -8 9489.700 9597.520 217.955 19.232 o
-8 -19 -7 337.439 283.235 83.014 331.625 o
-8 -19 -6 26710.400 25989.100 612.463 3.403 o
-8 -19 -5 21898.300 21484.100 383.422 5.784 o
-8 -19 -4 6138.810 6011.450 165.310 34.469 o
-8 -19 -3 10012.700 9698.100 211.120 18.835 o
-8 -19 -2 728.479 719.301 59.591 339.892 o
-8 -19 -1 6744.730 6803.100 130.636 35.009 o
-8 -18 -12 579.674 129.406 184.814 82.015 o
-8 -18 -11 420.038 396.842 130.730 152.082 o
-8 -18 -10 13925.200 13908.200 268.277 11.580 o
-8 -18 -9 3332.230 3304.910 114.594 72.463 o
-8 -18 -8 12704.200 12706.500 235.543 13.684 o
-8 -18 -7 12261.300 12111.900 311.207 11.974 o
-8 -18 -6 1228.880 1182.680 79.394 194.834 o
-8 -18 -5 3808.300 3765.260 107.999 66.905 o
-8 -18 -4 2859.590 2977.560 92.241 91.878 o
-8 -18 -3 12564.700 12590.500 298.971 12.001 o
-8 -18 -2 3825.240 3828.860 95.162 70.375 o
-8 -18 -1 6430.150 6243.300 118.880 38.662 o
-8 -17 -12 6189.940 5473.120 186.889 32.383 o
-8 -17 -11 5551.530 5486.650 170.802 36.685 o
-8 -17 -10 1231.450 1431.110 111.227 136.129 o
-8 -17 -9 6476.890 6292.840 181.269 31.067 o
-8 -17 -8 8525.850 8703.250 180.515 23.663 o
-8 -17 -7 3042.160 3061.450 151.429 62.171 o
-8 -17 -6 4092.730 4002.810 115.374 60.812 o
-8 -17 -5 3855.200 3911.630 94.754 69.672 o
-8 -17 -4 10373.800 10222.900 145.623 20.945 o
-8 -17 -3 22120.000 22587.400 305.097 6.249 o
-8 -17 -2 2050.090 2163.220 83.437 127.439 o
-8 -17 -1 8191.720 8596.490 153.879 26.272 o
-8 -16 -12 4515.610 4530.310 221.429 33.559 o
-8 -16 -11 923.908 930.069 120.784 141.458 o
-8 -16 -10 6279.170 6122.620 214.927 27.987 o
-8 -16 -9 5079.430 5100.100 123.203 47.815 o
-8 -16 -8 2139.220 2344.280 101.046 107.886 o
-8 -16 -7 1444.360 1632.810 77.257 171.345 o
-8 -16 -6 3629.360 3514.250 90.489 76.325 o
-8 -16 -5 6626.720 6404.730 138.786 35.278 o
-8 -16 -4 2910.850 3043.480 75.069 98.733 o
-8 -16 -3 4329.290 4356.080 95.966 62.070 o
-8 -16 -2 41601.600 42074.600 465.124 2.270 o
-8 -16 -1 5397.400 5292.770 103.949 48.584 o
-8 -15 -13 172.783 213.803 179.783 90.905 o
-8 -15 -12 2405.430 2474.970 158.896 67.299 o
-8 -15 -11 7111.450 6750.040 163.339 30.560 o
-8 -15 -10 8996.910 8489.030 199.952 21.785 o
-8 -15 -9 1290.060 1532.410 91.551 160.163 o
-8 -15 -8 8833.060 8878.720 192.236 22.212 o
-8 -15 -7 1313.790 1418.970 83.449 174.836 o
-8 -15 -6 1134.740 888.147 64.919 248.993 o
-8 -15 -5 3353.510 3393.650 81.090 84.698 o
-8 -15 -4 8982.390 9184.190 163.367 23.419 o
-8 -15 -3 4113.560 4273.010 99.856 63.572 o
-8 -15 -2 4358.710 4127.880 89.636 64.438 o
-8 -15 -1 34579.900 33854.200 583.116 2.663 o
-8 -14 -13 965.443 1109.130 180.461 75.913 o
-8 -14 -12 16108.400 14715.100 313.879 9.344 o
-8 -14 -11 959.858 792.517 109.944 161.426 o
-8 -14 -10 2586.470 2498.850 121.901 84.266 o
-8 -14 -9 368.158 129.908 81.955 346.777 o
-8 -14 -8 1643.890 1675.390 82.373 153.362 o
-8 -14 -7 1207.680 1382.320 73.815 200.141 o
-8 -14 -6 22.562 145.913 54.944 880.300 o
-8 -14 -5 3343.120 3267.950 76.424 87.709 o
-8 -14 -4 2757.870 2835.820 68.563 107.892 o
-8 -14 -3 27120.700 26629.000 295.861 4.875 o
-8 -14 -2 933.731 920.472 44.505 337.883 o
-8 -14 -1 28571.400 28409.800 281.209 4.555 o
-8 -13 -13 1928.510 1524.320 181.045 64.882 o
-8 -13 -12 8311.080 8189.100 319.027 15.798 o
-8 -13 -11 2414.930 2134.940 127.084 86.526 o
-8 -13 -10 16411.200 15966.700 184.682 11.048 o
-8 -13 -9 719.643 580.433 82.378 258.718 o
-8 -13 -8 3791.420 3627.210 95.924 71.732 o
-8 -13 -7 2046.170 2111.440 72.939 137.908 o
-8 -13 -6 4657.130 4547.040 126.790 51.521 o
-8 -13 -5 1467.260 1396.500 56.141 211.061 o
-8 -13 -4 20567.200 20792.800 271.344 7.200 o
-8 -13 -3 30561.300 29777.400 356.447 3.910 o
-8 -13 -2 2452.410 2468.600 69.265 120.927 o
-8 -13 -1 79977.000 79444.800 684.148 0.750 o
-8 -12 -13 1798.780 1781.340 234.938 43.988 o
-8 -12 -12 6967.170 6956.690 217.329 25.437 o
-8 -12 -11 8621.960 8128.290 191.282 23.294 o
-8 -12 -10 7807.560 7505.360 152.635 28.623 o
-8 -12 -9 5120.730 5175.830 135.232 45.173 o
-8 -12 -8 723.770 618.037 62.436 337.731 o
-8 -12 -7 290.361 246.981 55.497 600.770 o
-8 -12 -6 2111.170 2255.230 66.199 138.525 o
-8 -12 -5 4951.120 5223.440 120.922 48.644 o
-8 -12 -4 845.818 791.466 44.570 370.987 o
-8 -12 -3 12763.200 12133.100 156.391 16.132 o
-8 -12 -2 24710.000 24184.700 280.890 5.644 o
-8 -12 -1 37872.600 36927.800 384.211 2.807 o
-8 -11 -13 13271.900 12005.700 286.497 12.094 o
-8 -11 -12 2963.140 2714.660 147.704 65.916 o
-8 -11 -11 1944.590 2035.790 125.124 96.609 o
-8 -11 -10 573.460 412.426 115.513 177.969 o
-8 -11 -9 4831.640 4648.920 149.448 45.400 o
-8 -11 -8 632.893 628.895 60.890 363.186 o
-8 -11 -7 1139.640 1180.390 61.443 241.354 o
-8 -11 -6 329.372 277.735 46.372 690.042 o
-8 -11 -5 1430.410 1442.410 51.278 220.193 o
-8 -11 -4 8945.630 8829.320 127.094 25.957 o
-8 -11 -3 4384.960 4263.620 77.625 66.251 o
-8 -11 -2 22507.500 21824.700 241.801 6.723 o
-8 -11 -1 9474.430 9433.750 123.022 24.344 o
-8 -10 -14 602.308 470.650 216.693 59.896 o
-8 -10 -13 3411.500 3417.970 189.678 46.361 o
-8 -10 -12 1036.790 920.236 137.117 115.801 o
-8 -10 -11 10766.000 10726.200 230.805 16.492 o
-8 -10 -10 1405.800 1365.460 108.253 135.255 o
-8 -10 -9 2308.410 2243.800 90.743 112.803 o
-8 -10 -8 1314.990 1408.540 67.592 202.844 o
-8 -10 -7 6652.100 6551.070 159.865 32.582 o
-8 -10 -6 740.273 736.961 50.221 378.587 o
-8 -10 -5 286.847 319.547 40.126 808.037 o
-8 -10 -4 8792.200 8653.380 138.331 25.854 o
-8 -10 -3 6910.220 6945.550 97.435 37.317 o
-8 -10 -2 11914.700 11875.400 173.946 16.703 o
-8 -10 -1 585.255 690.274 36.075 515.801 o
-8 -9 -14 2805.510 2516.320 189.787 51.922 o
-8 -9 -13 2067.520 2100.590 136.661 85.868 o
-8 -9 -12 1791.830 1751.060 119.345 107.374 o
-8 -9 -11 11973.200 11773.800 215.964 15.325 o
-8 -9 -10 8303.200 8411.240 173.677 24.848 o
-8 -9 -9 3662.000 3508.600 99.028 72.996 o
-8 -9 -8 1293.740 1136.760 68.523 213.515 o
-8 -9 -7 490.496 579.954 51.537 469.653 o
-8 -9 -6 605.891 622.253 49.898 433.964 o
-8 -9 -5 9455.030 8868.920 145.103 23.836 o
-8 -9 -4 7766.910 7888.770 160.472 27.611 o
-8 -9 -3 2560.530 2802.690 70.295 112.458 o
-8 -9 -2 29376.100 29418.500 325.474 4.198 o
-8 -9 -1 26780.300 26891.200 298.692 4.898 o
-8 -8 -14 3826.540 4257.490 206.110 39.002 o
-8 -8 -13 9353.730 9296.760 281.686 16.290 o
-8 -8 -12 11303.200 10771.500 229.254 15.987 o
-8 -8 -11 1412.730 1402.960 100.589 144.546 o
-8 -8 -10 1760.520 1935.360 91.318 133.290 o
-8 -8 -9 212.269 208.336 67.257 505.310 o
-8 -8 -8 11398.700 11441.000 175.563 17.503 o
-8 -8 -7 4236.630 3961.530 119.374 58.656 o
-8 -8 -6 2872.830 3050.730 71.612 101.134 o
-8 -8 -5 1784.040 2034.370 53.888 170.384 o
-8 -8 -4 1871.840 1987.110 54.588 166.129 o
-8 -8 -3 34954.800 34796.400 409.396 3.062 o
-8 -8 -2 16209.500 16976.200 192.207 10.759 o
-8 -8 -1 46565.500 47051.100 494.501 1.887 o
-8 -7 -14 2509.640 2545.210 178.765 57.670 o
-8 -7 -13 270.269 642.875 162.941 103.935 o
-8 -7 -12 8424.470 8401.820 254.671 19.245 o
-8 -7 -11 316.669 258.701 95.234 272.240 o
-8 -7 -10 9722.970 9691.340 238.677 17.830 o
-8 -7 -9 604.120 565.160 67.903 339.441 o
-8 -7 -8 2476.740 2647.860 98.746 98.769 o
-8 -7 -7 7779.230 7918.960 195.360 24.777 o
-8 -7 -6 11192.600 11951.800 191.833 16.869 o
-8 -7 -5 31823.800 31388.600 381.513 3.593 o
-8 -7 -4 19183.800 19659.800 273.331 7.807 o
-8 -7 -3 22824.900 22901.500 282.799 6.206 o
-8 -7 -2 767.544 797.465 32.698 441.367 o
-8 -7 -1 35818.700 35198.500 399.618 2.999 o
-8 -6 -14 4583.170 4639.940 250.458 28.919 o
-8 -6 -13 6797.130 6448.720 177.514 30.383 o
-8 -6 -12 1153.910 1320.630 117.588 131.938 o
-8 -6 -11 676.992 771.950 97.051 207.649 o
-8 -6 -10 6579.470 6503.640 146.602 34.386 o
-8 -6 -9 17114.000 17358.100 250.655 9.351 o
-8 -6 -8 9246.500 9380.100 155.994 23.154 o
-8 -6 -7 18074.000 17939.700 275.955 8.487 o
-8 -6 -6 12237.200 12148.100 171.729 16.263 o
-8 -6 -5 5803.690 6017.810 123.725 41.403 o
-8 -6 -4 12686.300 13156.100 168.934 15.349 o
-8 -6 -3 2663.080 2591.980 68.926 113.327 o
-8 -6 -2 44582.800 44072.600 504.412 2.021 o
-8 -6 -1 40592.500 39411.600 438.768 2.444 o
-8 -5 -14 4737.140 4610.980 232.502 31.153 o
-8 -5 -13 385.972 535.589 152.356 115.828 o
-8 -5 -12 10144.700 10096.500 199.506 18.960 o
-8 -5 -11 19682.900 19803.800 252.845 7.826 o
-8 -5 -10 3110.330 3064.160 106.700 80.217 o
-8 -5 -9 5559.260 5705.950 118.410 44.191 o
-8 -5 -8 8298.150 7838.180 167.613 25.898 o
-8 -5 -7 10180.500 10371.300 166.097 20.247 o
-8 -5 -6 11029.700 11342.400 242.828 15.458 o
-8 -5 -5 11580.800 11888.800 182.262 16.800 o
-8 -5 -4 46382.300 46239.800 523.017 1.877 o
-8 -5 -3 22891.100 22219.900 280.381 6.291 o
-8 -5 -2 5648.270 5857.050 89.664 47.335 o
-8 -5 -1 32524.400 33700.500 363.611 3.456 o
-8 -4 -14 5965.430 5197.130 332.160 18.347 o
-8 -4 -13 4995.480 4876.970 138.060 46.142 o
-8 -4 -12 10855.800 10296.200 194.187 18.156 o
-8 -4 -11 7619.430 7111.930 135.405 31.145 o
-8 -4 -10 4769.140 4672.700 135.531 48.539 o
-8 -4 -9 2243.050 2190.180 78.010 125.379 o
-8 -4 -8 2293.680 2282.810 73.689 125.649 o
-8 -4 -7 6603.530 6754.750 119.318 36.831 o
-8 -4 -6 9387.110 9014.180 179.981 21.895 o
-8 -4 -5 2935.380 3110.510 59.845 104.341 o
-8 -4 -4 7436.940 6658.720 124.898 33.386 o
-8 -4 -3 13518.300 12556.600 183.545 14.471 o
-8 -4 -2 12674.500 11987.800 127.858 17.045 o
-8 -4 -1 25917.500 24322.100 299.812 5.280 o
-8 -3 -14 9335.150 8247.500 517.063 8.270 o
-8 -3 -13 217.571 301.838 109.053 223.718 o
-8 -3 -12 3374.070 3443.490 134.543 63.796 o
-8 -3 -11 1819.000 2029.020 90.013 131.057 o
-8 -3 -10 9156.020 9758.950 174.990 21.935 o
-8 -3 -9 1714.190 1735.820 68.642 165.686 o
-8 -3 -8 9222.790 9327.810 159.412 23.059 o
-8 -3 -7 4094.220 4283.190 130.542 55.540 o
-8 -3 -6 5856.420 6290.360 122.409 40.690 o
-8 -3 -5 15234.200 15087.600 176.510 12.235 o
-8 -3 -4 11296.700 11357.100 166.905 17.986 o
-8 -3 -3 204.178 173.885 24.798 1511.510 o
-8 -3 -2 11417.000 12090.300 135.130 18.387 o
-8 -3 -1 71549.600 68129.100 844.101 0.854 o
-8 -2 -14 13816.800 13526.000 315.999 10.623 o
-8 -2 -13 4681.460 4885.030 146.984 46.070 o
-8 -2 -12 15702.100 15767.000 270.744 10.064 o
-8 -2 -11 644.210 692.227 78.209 276.755 o
-8 -2 -10 2260.130 2272.340 81.392 120.920 o
-8 -2 -9 1007.020 1037.760 59.475 270.204 o
-8 -2 -8 6525.020 6651.950 110.115 38.344 o
-8 -2 -7 3597.640 3883.730 103.848 69.906 o
-8 -2 -6 487.603 567.454 38.263 579.848 o
-8 -2 -5 9809.300 9081.970 174.485 21.440 o
-8 -2 -4 1513.230 1715.590 44.547 210.864 o
-8 -2 -3 31367.400 29978.300 339.445 3.860 o
-8 -2 -2 22098.500 21302.500 241.660 6.916 o
-8 -2 -1 34482.300 35135.700 376.257 3.171 o
-8 -1 -14 3924.130 3655.630 194.906 42.213 o
-8 -1 -13 27034.900 26906.800 457.293 4.078 o
-8 -1 -12 8206.850 8439.150 195.937 23.441 o
-8 -1 -11 6955.790 7095.210 193.753 27.532 o
-8 -1 -10 10114.300 10455.900 218.188 17.908 o
-8 -1 -9 4332.830 4550.820 121.449 55.036 o
-8 -1 -8 2136.980 2146.750 61.809 143.303 o
-8 -1 -7 1634.800 1817.600 55.435 184.284 o
-8 -1 -6 519.468 485.337 39.393 575.405 o
-8 -1 -5 6056.320 5652.500 87.273 45.796 o
-8 -1 -4 28866.400 27464.100 288.735 4.554 o
-8 -1 -3 10772.200 10815.600 145.093 19.878 o
-8 -1 -2 33791.900 32230.300 409.901 3.273 o
-8 -1 -1 95280.600 92798.600 929.254 0.528 o
-7 -34 -2 89.634 24.648 172.375 101.358 o
-7 -34 -1 74.189 -285.127 165.199 110.730 o
-7 -33 -4 3104.870 3219.490 240.783 35.913 o
-7 -33 -3 4652.190 4080.690 237.032 31.334 o
-7 -33 -2 8233.100 8411.260 211.209 22.355 o
-7 -33 -1 239.318 231.403 156.469 116.812 o
-7 -32 -5 872.429 291.262 244.288 47.268 o
-7 -32 -4 1268.760 735.288 191.544 67.903 o
-7 -32 -3 2226.120 2343.240 157.545 70.340 o
-7 -32 -2 3507.540 3657.750 154.218 55.308 o
-7 -32 -1 6105.820 5923.040 178.399 33.044 o
-7 -31 -6 588.600 511.564 193.502 73.531 o
-7 -31 -5 4619.700 4046.220 182.229 41.177 o
-7 -31 -4 6865.250 6767.440 202.859 27.220 o
-7 -31 -3 2964.560 3005.230 149.502 63.841 o
-7 -31 -2 1288.030 1151.260 134.263 110.608 o
-7 -31 -1 5904.150 5877.780 153.656 37.106 o
-7 -30 -7 143.163 66.642 177.329 94.789 o
-7 -30 -6 4571.390 4190.930 205.448 36.650 o
-7 -30 -5 5756.040 5575.640 194.540 32.497 o
-7 -30 -4 2262.200 2123.300 147.538 76.514 o
-7 -30 -3 4993.560 4855.480 147.871 44.335 o
-7 -30 -2 608.463 644.659 124.185 152.626 o
-7 -30 -1 4883.340 5033.240 133.265 47.261 o
-7 -29 -8 6436.650 5914.670 232.012 26.056 o
-7 -29 -7 4165.790 3826.190 182.150 43.673 o
-7 -29 -6 322.752 311.290 142.327 135.495 o
-7 -29 -5 1273.790 1269.820 133.801 110.100 o
-7 -29 -4 2103.200 2112.160 145.519 79.712 o
-7 -29 -3 2649.310 2510.080 125.439 81.322 o
-7 -29 -2 3047.080 3013.580 123.110 74.056 o
-7 -29 -1 3248.940 3427.120 155.992 57.441 o
-7 -28 -8 1604.200 1234.680 170.259 75.289 o
-7 -28 -7 739.694 485.633 191.091 73.909 o
-7 -28 -6 9936.810 9780.300 218.310 18.527 o
-7 -28 -5 6765.690 6358.320 209.681 27.207 o
-7 -28 -4 3084.340 3030.790 141.639 65.761 o
-7 -28 -3 4617.360 4615.700 137.884 49.128 o
-7 -28 -2 335.090 444.150 103.908 226.301 o
-7 -28 -1 3335.820 3239.460 121.468 70.104 o
-7 -27 -9 889.365 583.160 186.219 75.362 o
-7 -27 -8 2009.040 1924.020 175.387 65.351 o
-7 -27 -7 4301.680 4142.020 173.763 44.180 o
-7 -27 -6 3557.190 3461.460 148.158 57.569 o
-7 -27 -5 2146.320 1851.630 123.359 95.923 o
-7 -27 -4 8040.940 7936.990 179.840 25.428 o
-7 -27 -3 2921.490 2778.170 112.623 82.195 o
-7 -27 -2 1736.930 1553.460 105.608 124.867 o
-7 -27 -1 14783.900 14736.700 186.325 12.504 o
-7 -26 -9 6509.920 5739.110 247.526 24.529 o
-7 -26 -8 9261.970 8700.790 289.128 16.281 o
-7 -26 -7 3902.220 4089.820 156.720 50.590 o
-7 -26 -6 5808.630 5406.790 161.669 37.230 o
-7 -26 -5 1109.630 1090.060 106.429 154.439 o
-7 -26 -4 3999.070 3776.360 128.238 58.918 o
-7 -26 -3 7462.860 7419.330 155.359 29.417 o
-7 -26 -2 8737.840 8935.700 164.916 24.035 o
-7 -26 -1 15263.700 15915.000 237.121 10.866 o
-7 -25 -10 3399.540 3316.710 218.787 39.507 o
-7 -25 -9 1154.950 1206.140 190.364 67.575 o
-7 -25 -8 681.605 704.515 136.012 129.329 o
-7 -25 -7 968.208 984.010 116.453 145.792 o
-7 -25 -6 12192.600 12438.200 249.930 13.760 o
-7 -25 -5 6967.510 6668.260 172.971 30.097 o
-7 -25 -4 17127.900 17322.600 290.851 8.769 o
-7 -25 -3 5073.360 5081.410 159.793 41.227 o
-7 -25 -2 7014.750 7295.890 154.989 30.876 o
-7 -25 -1 8042.060 8013.610 170.898 26.021 o
-7 -24 -10 1117.580 1123.630 154.021 94.621 o
-7 -24 -9 2490.050 2339.580 148.642 72.130 o
-7 -24 -8 3914.600 3844.740 149.091 53.355 o
-7 -24 -7 2651.070 2502.780 122.748 82.818 o
-7 -24 -6 504.520 501.874 100.207 222.223 o
-7 -24 -5 6613.680 6536.790 148.003 34.054 o
-7 -24 -4 4067.040 3798.250 118.853 60.963 o
-7 -24 -3 5415.590 5424.000 124.012 44.840 o
-7 -24 -2 8650.020 8716.730 171.757 23.985 o
-7 -24 -1 5264.260 5421.990 142.965 42.469 o
-7 -23 -11 805.295 577.359 192.071 72.239 o
-7 -23 -10 550.793 592.615 163.234 99.235 o
-7 -23 -9 4212.660 4128.730 162.277 47.302 o
-7 -23 -8 1860.710 1703.350 121.195 104.758 o
-7 -23 -7 1557.840 1583.750 108.798 126.254 o
-7 -23 -6 45.492 22.692 92.306 348.156 o
-7 -23 -5 2279.790 2186.520 102.700 105.219 o
-7 -23 -4 2313.650 2509.200 100.753 102.317 o
-7 -23 -3 10560.100 10721.000 189.748 18.448 o
-7 -23 -2 17003.600 17282.000 217.889 9.885 o
-7 -23 -1 3150.750 3093.530 88.412 87.547 o
-7 -22 -11 5178.640 5025.180 228.475 30.148 o
-7 -22 -10 2936.890 2811.480 148.150 65.523 o
-7 -22 -9 2220.480 2345.470 133.302 84.004 o
-7 -22 -8 1758.010 2006.960 116.796 107.537 o
-7 -22 -7 1211.810 1368.110 103.235 149.421 o
-7 -22 -6 105.245 -10.744 90.533 351.796 o
-7 -22 -5 5980.460 6251.100 176.396 33.179 o
-7 -22 -4 3092.710 2862.110 106.835 81.867 o
-7 -22 -3 6814.920 7215.850 128.998 34.186 o
-7 -22 -2 4665.270 4440.570 108.001 56.007 o
-7 -22 -1 2334.950 2229.590 80.479 120.041 o
-7 -21 -11 10087.700 9853.010 310.065 14.186 o
-7 -21 -10 7399.290 7197.370 192.737 26.523 o
-7 -21 -9 34.358 -18.472 121.339 205.627 o
-7 -21 -8 1052.140 1026.440 105.597 159.795 o
-7 -21 -7 4744.520 4790.970 125.696 50.376 o
-7 -21 -6 3889.300 3670.010 118.710 63.218 o
-7 -21 -5 514.789 345.410 82.721 299.210 o
-7 -21 -4 10455.400 11062.000 177.288 18.882 o
-7 -21 -3 126.640 138.576 62.435 632.066 o
-7 -21 -2 6471.360 6557.770 120.626 37.626 o
-7 -21 -1 8477.040 8337.680 118.602 28.217 o
-7 -20 -12 5126.700 5080.900 229.237 30.102 o
-7 -20 -11 1204.410 1472.500 159.986 85.807 o
-7 -20 -10 738.246 1018.820 130.883 130.669 o
-7 -20 -9 7997.540 7668.690 162.216 27.184 o
-7 -20 -8 4599.260 4669.090 126.455 51.574 o
-7 -20 -7 1325.750 1137.740 96.599 159.818 o
-7 -20 -6 5921.830 5868.060 142.112 38.654 o
-7 -20 -5 4594.920 4847.360 107.134 55.157 o
-7 -20 -4 2119.550 2159.530 79.127 128.976 o
-7 -20 -3 7519.910 7544.760 136.015 30.744 o
-7 -20 -2 8691.760 8522.670 128.859 26.814 o
-7 -20 -1 5924.870 6140.660 119.484 41.107 o
-7 -19 -12 3820.250 3296.870 197.390 42.836 o
-7 -19 -11 2587.280 2506.290 141.309 73.826 o
-7 -19 -10 9311.410 8707.850 232.398 19.253 o
-7 -19 -9 9549.180 9553.100 232.340 18.435 o
-7 -19 -8 15384.200 15073.700 192.809 11.851 o
-7 -19 -7 3878.220 3971.140 122.480 60.807 o
-7 -19 -6 6916.970 6881.940 134.598 33.854 o
-7 -19 -5 2191.660 2141.810 79.570 126.527 o
-7 -19 -4 17154.000 18082.100 243.887 9.265 o
-7 -19 -3 12969.100 13016.700 205.137 14.189 o
-7 -19 -2 10196.000 10419.700 130.799 21.686 o
-7 -19 -1 13303.900 13353.300 169.868 14.637 o
-7 -18 -12 6505.660 6224.370 223.320 26.504 o
-7 -18 -11 4166.590 4212.970 177.035 43.923 o
-7 -18 -10 5732.940 5512.890 143.777 39.980 o
-7 -18 -9 8793.180 8601.740 197.584 22.175 o
-7 -18 -8 6988.870 6841.950 192.406 27.879 o
-7 -18 -7 7104.760 7451.570 167.152 29.257 o
-7 -18 -6 14823.100 14906.300 236.879 11.424 o
-7 -18 -5 15166.600 15315.300 209.865 11.606 o
-7 -18 -4 11996.200 12129.800 180.139 16.278 o
-7 -18 -3 6224.700 6602.360 105.485 40.309 o
-7 -18 -2 2952.670 3030.270 74.164 98.416 o
-7 -18 -1 3324.100 3257.130 79.194 87.054 o
-7 -17 -12 3923.590 4163.300 231.807 33.973 o
-7 -17 -11 162.276 130.749 118.769 201.326 o
-7 -17 -10 5893.630 5860.910 161.851 36.047 o
-7 -17 -9 3050.970 3244.700 120.319 73.831 o
-7 -17 -8 8735.940 8881.570 158.289 24.505 o
-7 -17 -7 9944.500 10020.300 183.182 20.068 o
-7 -17 -6 1748.410 1690.970 73.652 158.956 o
-7 -17 -5 3613.990 3303.870 107.055 71.976 o
-7 -17 -4 3422.960 3563.760 91.769 78.364 o
-7 -17 -3 9813.560 9873.310 167.454 21.147 o
-7 -17 -2 4915.580 5017.760 90.806 55.203 o
-7 -17 -1 2631.530 2734.000 78.655 106.650 o
-7 -16 -13 295.870 84.856 207.923 68.220 o
-7 -16 -12 2881.560 2763.330 156.277 62.899 o
-7 -16 -11 694.373 599.971 108.415 183.097 o
-7 -16 -10 9098.940 9417.030 173.966 22.384 o
-7 -16 -9 4069.970 4000.870 113.005 61.689 o
-7 -16 -8 7604.030 7915.830 179.392 26.424 o
-7 -16 -7 2853.910 2941.760 86.977 95.014 o
-7 -16 -6 4852.740 4631.210 125.719 50.188 o
-7 -16 -5 19773.400 19603.200 405.460 6.229 o
-7 -16 -4 502.426 526.469 60.535 410.861 o
-7 -16 -3 9156.650 9145.790 198.637 21.094 o
-7 -16 -2 442.122 371.538 43.718 612.497 o
-7 -16 -1 22671.100 23478.800 248.784 6.407 o
-7 -15 -13 109.795 -19.893 178.023 95.013 o
-7 -15 -12 16128.900 16282.500 308.138 9.110 o
-7 -15 -11 2743.700 2653.200 148.785 67.847 o
-7 -15 -10 5367.460 5350.270 131.945 43.982 o
-7 -15 -9 1620.240 1582.200 93.399 142.449 o
-7 -15 -8 8681.070 8694.720 173.122 23.859 o
-7 -15 -7 3164.530 3105.190 83.373 89.420 o
-7 -15 -6 9806.180 10085.600 193.401 19.722 o
-7 -15 -5 15063.500 15480.500 184.424 12.079 o
-7 -15 -4 7833.780 7640.920 122.930 30.712 o
-7 -15 -3 37572.800 37685.900 437.972 2.692 o
-7 -15 -2 1325.500 1482.690 49.740 230.760 o
-7 -15 -1 28940.400 29315.300 269.856 4.471 o
-7 -14 -13 651.798 517.074 182.369 81.012 o
-7 -14 -12 4468.780 4543.080 152.920 46.906 o
-7 -14 -11 2943.860 3350.740 188.891 49.137 o
-7 -14 -10 17181.500 17538.300 263.483 9.098 o
-7 -14 -9 100.081 15.520 77.600 468.096 o
-7 -14 -8 7351.930 7425.480 153.522 29.874 o
-7 -14 -7 15431.400 15548.600 219.881 11.188 o
-7 -14 -6 6513.210 6020.300 169.098 32.779 o
-7 -14 -5 9403.220 9160.520 147.982 23.498 o
-7 -14 -4 15704.300 15613.400 254.283 10.398 o
-7 -14 -3 1976.660 1930.950 59.308 157.584 o
-7 -14 -2 9279.400 9589.910 124.913 24.498 o
-7 -14 -1 27294.100 25660.500 255.179 5.113 o
-7 -13 -13 8840.330 8533.600 238.620 19.612 o
-7 -13 -12 11350.600 10563.900 210.642 16.762 o
-7 -13 -11 1421.020 1091.400 109.098 138.334 o
-7 -13 -10 2847.650 2986.330 105.408 85.341 o
-7 -13 -9 7072.130 7181.790 141.876 32.136 o
-7 -13 -8 4070.960 3883.620 91.315 68.379 o
-7 -13 -7 1594.990 1543.930 66.816 180.349 o
-7 -13 -6 7278.290 7240.380 174.715 28.382 o
-7 -13 -5 4474.940 4654.170 98.351 58.842 o
-7 -13 -4 5578.490 5855.260 109.334 45.023 o
-7 -13 -3 32393.300 32185.000 314.130 3.690 o
-7 -13 -2 38647.400 38716.500 392.484 2.672 o
-7 -13 -1 3940.820 3910.630 85.250 71.448 o
-7 -12 -13 5396.580 5130.140 198.385 33.682 o
-7 -12 -12 17.574 150.965 116.289 219.136 o
-7 -12 -11 8835.050 9100.930 177.996 22.892 o
-7 -12 -10 6547.130 6582.990 182.761 30.309 o
-7 -12 -9 1240.320 1200.090 109.006 143.030 o
-7 -12 -8 55.396 143.863 58.095 767.742 o
-7 -12 -7 7936.960 8086.060 117.161 30.165 o
-7 -12 -6 164.139 88.344 45.682 989.954 o
-7 -12 -5 10043.400 10151.100 143.199 21.661 o
-7 -12 -4 28790.700 28625.300 297.898 4.442 o
-7 -12 -3 2333.310 2331.960 54.553 137.208 o
-7 -12 -2 23679.400 23260.100 257.734 6.124 o
-7 -12 -1 17280.400 17993.400 197.802 9.832 o
-7 -11 -14 21.985 235.937 185.280 87.461 o
-7 -11 -13 2456.650 2683.080 155.667 67.341 o
-7 -11 -12 70.785 14.624 105.103 268.031 o
-7 -11 -11 17601.800 17418.200 255.340 9.058 o
-7 -11 -10 1275.910 1309.280 93.788 162.657 o
-7 -11 -9 10950.900 11066.900 155.441 19.053 o
-7 -11 -8 1432.110 1257.570 66.118 202.334 o
-7 -11 -7 252.380 215.324 50.568 710.828 o
-7 -11 -6 3091.290 2872.200 94.219 87.763 o
-7 -11 -5 2525.230 2684.830 71.241 114.448 o
-7 -11 -4 18089.900 18407.400 252.140 8.691 o
-7 -11 -3 5616.440 5878.800 104.222 45.474 o
-7 -11 -2 16560.100 15962.900 164.489 11.244 o
-7 -11 -1 23223.700 22827.600 238.365 6.416 o
-7 -10 -14 2693.510 2417.830 182.672 55.392 o
-7 -10 -13 6596.250 6682.790 179.996 30.343 o
-7 -10 -12 2135.240 2387.070 120.074 93.645 o
-7 -10 -11 444.735 573.929 93.567 247.519 o
-7 -10 -10 103.083 131.049 75.748 467.364 o
-7 -10 -9 7524.350 7379.620 158.217 29.056 o
-7 -10 -8 374.598 316.625 59.485 497.967 o
-7 -10 -7 14276.400 14014.200 213.251 12.577 o
-7 -10 -6 3050.200 3108.990 104.223 81.884 o
-7 -10 -5 85.739 50.409 37.076 1604.570 o
-7 -10 -4 21385.800 21148.400 251.602 7.071 o
-7 -10 -3 6561.430 5683.820 82.499 43.394 o
-7 -10 -2 22556.100 22417.300 226.425 6.732 o
-7 -10 -1 15558.200 15128.400 175.106 12.018 o
-7 -9 -14 2982.550 2942.730 218.945 41.679 o
-7 -9 -13 1190.490 1402.150 139.319 104.782 o
-7 -9 -12 8531.740 8731.770 200.233 22.331 o
-7 -9 -11 2417.910 2461.580 148.221 72.463 o
-7 -9 -10 1912.530 1955.600 92.512 126.733 o
-7 -9 -9 8722.680 9486.850 135.187 25.265 o
-7 -9 -8 286.980 359.542 57.542 547.667 o
-7 -9 -7 8019.920 7978.320 105.800 30.848 o
-7 -9 -6 25400.700 25965.400 569.823 3.729 o
-7 -9 -5 2186.340 2146.170 53.280 148.011 o
-7 -9 -4 13619.400 13723.100 171.048 14.157 o
-7 -9 -3 10032.200 9892.050 122.749 22.791 o
-7 -9 -2 13712.100 12546.100 151.543 15.057 o
-7 -9 -1 72234.600 73600.500 711.892 0.862 o
-7 -8 -14 8038.820 7536.580 211.071 23.439 o
-7 -8 -13 312.327 363.319 133.855 150.570 o
-7 -8 -12 9412.660 9279.580 220.866 19.387 o
-7 -8 -11 6386.850 6640.820 169.865 32.129 o
-7 -8 -10 7600.400 7705.270 192.349 25.593 o
-7 -8 -9 3685.880 3960.670 89.958 72.876 o
-7 -8 -8 3060.470 3149.650 80.855 92.021 o
-7 -8 -7 21946.600 21773.600 299.175 6.440 o
-7 -8 -6 345.529 332.871 41.864 719.148 o
-7 -8 -5 16993.300 16814.900 223.614 9.926 o
-7 -8 -4 28642.100 27359.800 321.814 4.462 o
-7 -8 -3 9897.320 10123.400 139.916 22.085 o
-7 -8 -2 10625.000 10486.300 111.056 21.609 o
-7 -8 -1 53822.600 51449.200 523.203 1.533 o
-7 -7 -14 4832.620 4820.110 187.502 37.826 o
-7 -7 -13 52.391 17.709 100.971 291.864 o
-7 -7 -12 8938.600 8977.870 193.970 21.849 o
-7 -7 -11 1604.820 1683.500 111.898 120.083 o
-7 -7 -10 4032.710 4003.710 165.292 47.898 o
-7 -7 -9 11974.600 11790.400 215.723 15.323 o
-7 -7 -8 24606.000 25046.400 337.757 5.240 o
-7 -7 -7 2896.080 2878.840 72.689 102.013 o
-7 -7 -6 18497.700 17706.700 348.177 7.452 o
-7 -7 -5 17060.700 18194.400 262.556 9.023 o
-7 -7 -4 8335.060 8066.260 119.708 28.893 o
-7 -7 -3 38738.500 38683.200 409.665 2.636 o
-7 -7 -2 4048.960 3993.800 71.658 73.221 o
-7 -7 -1 14029.200 12783.900 151.382 14.641 o
-7 -6 -14 2018.240 1687.020 182.152 62.984 o
-7 -6 -13 1849.060 1870.700 133.874 93.091 o
-7 -6 -12 2155.110 2272.770 108.680 102.545 o
-7 -6 -11 2533.640 2592.920 102.688 95.735 o
-7 -6 -10 18094.600 17932.900 243.527 8.895 o
-7 -6 -9 51.095 36.060 61.154 751.892 o
-7 -6 -8 15191.400 15687.300 244.284 10.838 o
-7 -6 -7 9015.650 9268.640 144.675 24.342 o
-7 -6 -6 16431.300 15497.800 296.290 9.347 o
-7 -6 -5 22611.000 21950.300 300.660 6.242 o
-7 -6 -4 17359.800 18084.400 237.391 9.261 o
-7 -6 -3 5960.740 5664.760 74.457 47.825 o
-7 -6 -2 1002.870 1103.510 34.147 335.871 o
-7 -6 -1 20048.300 19329.900 220.765 8.094 o
-7 -5 -14 1303.980 1373.760 169.213 78.503 o
-7 -5 -13 4346.830 4721.900 140.719 49.831 o
-7 -5 -12 11097.100 10839.500 204.380 17.134 o
-7 -5 -11 3967.560 3828.450 108.769 64.715 o
-7 -5 -10 6235.720 6357.470 137.698 36.972 o
-7 -5 -9 4497.880 4373.240 104.790 58.383 o
-7 -5 -8 17120.000 17336.400 272.103 9.043 o
-7 -5 -7 7897.480 8025.440 128.900 29.525 o
-7 -5 -6 12447.200 11806.800 210.763 15.031 o
-7 -5 -5 21788.200 21267.700 257.296 6.889 o
-7 -5 -4 11091.700 10926.600 152.904 19.047 o
-7 -5 -3 64776.100 63466.100 800.638 0.994 o
-7 -5 -2 10074.300 10985.700 130.962 21.402 o
-7 -5 -1 4062.840 3987.260 59.262 76.030 o
-7 -4 -14 3806.820 3355.730 163.821 51.490 o
-7 -4 -13 2719.720 2713.030 123.904 79.774 o
-7 -4 -12 194.827 31.722 91.484 326.141 o
-7 -4 -11 659.849 696.185 81.898 260.676 o
-7 -4 -10 15502.300 15282.600 207.680 11.444 o
-7 -4 -9 955.582 886.165 59.294 288.244 o
-7 -4 -8 12096.500 12441.200 173.784 16.196 o
-7 -4 -7 9251.340 9682.270 190.071 21.014 o
-7 -4 -6 7331.660 7538.610 131.331 31.724 o
-7 -4 -5 10944.300 10371.500 146.523 19.900 o
-7 -4 -4 168.102 210.208 27.464 1474.030 o
-7 -4 -3 497.680 423.012 24.701 745.060 o
-7 -4 -2 947.791 872.439 31.419 382.032 o
-7 -4 -1 39786.400 37108.000 408.157 2.621 o
-7 -3 -14 8892.920 8570.970 308.167 15.711 o
-7 -3 -13 4029.450 3666.530 142.087 55.135 o
-7 -3 -12 12653.900 12642.000 184.944 15.202 o
-7 -3 -11 2663.380 2632.470 97.217 96.127 o
-7 -3 -10 636.423 423.427 70.756 332.189 o
-7 -3 -9 14469.800 14118.900 179.165 13.114 o
-7 -3 -8 5195.320 4982.920 92.390 52.926 o
-7 -3 -7 3561.920 3819.030 98.677 72.440 o
-7 -3 -6 24133.400 24409.500 287.385 5.705 o
-7 -3 -5 4972.850 4270.540 103.660 55.193 o
-7 -3 -4 23311.500 25380.900 324.362 5.541 o
-7 -3 -3 51805.300 50741.800 618.965 1.518 o
-7 -3 -2 2819.300 2192.110 39.692 129.960 o
-7 -3 -1 25497.200 24735.100 285.453 5.400 o
-7 -2 -14 5138.190 5457.390 194.723 34.522 o
-7 -2 -13 2662.420 2802.460 122.631 80.605 o
-7 -2 -12 2682.180 2590.060 144.907 70.573 o
-7 -2 -11 17632.400 17385.100 331.480 7.996 o
-7 -2 -10 6668.400 6825.270 130.472 35.265 o
-7 -2 -9 5510.870 5255.790 118.714 45.638 o
-7 -2 -8 9199.180 9334.950 148.849 23.678 o
-7 -2 -7 10417.200 10472.900 168.681 19.709 o
-7 -2 -6 5523.130 5719.110 105.153 46.339 o
-7 -2 -5 12328.900 12090.100 178.944 15.982 o
-7 -2 -4 42299.100 42254.100 504.809 2.168 o
-7 -2 -3 11853.300 12646.800 155.793 16.883 o
-7 -2 -2 2899.380 2905.060 47.767 112.897 o
-7 -2 -1 47271.100 48318.000 564.269 1.756 o
-7 -1 -14 1787.110 1741.650 154.254 80.548 o
-7 -1 -13 4292.800 4439.690 139.255 51.413 o
-7 -1 -12 3447.860 3594.360 119.125 67.855 o
-7 -1 -11 17355.700 17562.500 278.860 8.803 o
-7 -1 -10 840.382 804.902 66.218 287.261 o
-7 -1 -9 14918.300 14879.700 218.775 11.734 o
-7 -1 -8 2590.180 2440.680 68.524 117.732 o
-7 -1 -7 787.853 807.882 47.608 370.252 o
-7 -1 -6 5043.970 4640.760 70.793 59.162 o
-7 -1 -5 5343.550 5784.800 106.986 46.928 o
-7 -1 -4 8344.010 8423.510 157.557 25.870 o
-7 -1 -3 4082.970 4099.560 57.855 75.287 o
-7 -1 -2 22327.100 20865.600 254.106 6.818 o
-7 -1 -1 13303.900 12588.700 154.033 15.385 o
-6 -34 -3 1461.630 1256.070 177.476 72.169 o
-6 -34 -2 6711.770 6678.740 282.313 20.516 o
-6 -34 -1 7621.000 6947.580 260.752 20.799 o
-6 -33 -4 5706.430 5858.290 293.020 21.409 o
-6 -33 -3 2699.180 3025.430 250.998 35.224 o
-6 -33 -2 3484.700 3793.000 180.611 47.460 o
-6 -33 -1 82.389 143.536 140.410 149.645 o
-6 -32 -5 1744.160 1482.360 176.246 69.166 o
-6 -32 -4 8.568 33.520 142.180 150.533 o
-6 -32 -3 3597.400 3221.410 157.216 55.275 o
-6 -32 -2 6276.960 6119.020 199.405 29.745 o
-6 -32 -1 2374.350 2547.710 132.791 80.758 o
-6 -31 -6 3575.000 3218.200 255.070 32.036 o
-6 -31 -5 3862.200 3586.100 208.875 39.519 o
-6 -31 -4 1552.320 1552.170 163.176 78.670 o
-6 -31 -3 2829.630 2962.970 165.149 59.055 o
-6 -31 -2 2668.450 2440.870 142.823 72.529 o
-6 -31 -1 4310.360 4290.820 128.656 54.399 o
-6 -30 -7 4471.210 4426.990 254.069 28.878 o
-6 -30 -6 840.437 883.006 149.301 106.403 o
-6 -30 -5 2568.930 2511.150 149.854 69.809 o
-6 -30 -4 5795.710 5551.680 159.613 37.303 o
-6 -30 -3 3317.760 3316.970 134.483 64.938 o
-6 -30 -2 732.554 578.439 98.243 207.403 o
-6 -30 -1 5477.810 5291.790 123.327 44.973 o
-6 -29 -8 3548.680 3240.680 189.200 46.250 o
-6 -29 -7 2926.160 2885.930 170.944 56.513 o
-6 -29 -6 1774.400 1370.870 165.950 75.423 o
-6 -29 -5 5713.970 5587.000 162.333 37.150 o
-6 -29 -4 3112.760 3022.110 123.420 73.088 o
-6 -29 -3 2536.600 2376.400 123.812 84.826 o
-6 -29 -2 5152.790 4772.820 119.679 49.024 o
-6 -29 -1 6813.330 6544.700 147.604 33.415 o
-6 -28 -8 178.185 -146.147 191.869 81.261 o
-6 -28 -7 2215.270 1967.310 154.841 73.860 o
-6 -28 -6 3316.380 3167.400 146.911 61.085 o
-6 -28 -5 7781.710 7164.400 199.089 25.218 o
-6 -28 -4 5048.460 4865.650 141.007 45.323 o
-6 -28 -3 1246.790 1386.450 109.546 138.659 o
-6 -28 -2 35.227 57.070 87.602 383.630 o
-6 -28 -1 1628.810 1860.480 96.853 133.043 o
-6 -27 -9 8622.520 7906.360 272.017 18.254 o
-6 -27 -8 1001.980 836.418 158.614 94.546 o
-6 -27 -7 1712.200 1601.240 163.444 76.394 o
-6 -27 -6 4781.950 4489.030 145.063 47.004 o
-6 -27 -5 1721.480 1776.640 119.128 108.868 o
-6 -27 -4 1887.910 1922.660 108.473 112.893 o
-6 -27 -3 6296.140 6107.610 139.014 37.062 o
-6 -27 -2 5095.650 5120.270 117.616 48.678 o
-6 -27 -1 10286.700 10331.700 149.401 20.838 o
-6 -26 -10 621.499 515.643 888.947 3.853 o
-6 -26 -9 4409.460 3874.820 182.245 42.448 o
-6 -26 -8 4986.140 4917.160 176.619 38.966 o
-6 -26 -7 3422.570 3251.820 146.750 59.919 o
-6 -26 -6 7608.710 7834.490 224.342 22.905 o
-6 -26 -5 557.191 773.628 100.566 206.598 o
-6 -26 -4 13212.600 12830.300 180.425 14.704 o
-6 -26 -3 7496.800 7943.280 160.746 28.187 o
-6 -26 -2 1824.020 1872.550 93.755 129.666 o
-6 -26 -1 16122.500 16498.400 167.988 11.303 o
-6 -25 -10 3997.730 3851.470 252.347 30.780 o
-6 -25 -9 1028.000 954.332 181.219 75.550 o
-6 -25 -8 3684.600 3508.690 153.430 54.830 o
-6 -25 -7 7097.290 6779.080 164.984 30.395 o
-6 -25 -6 1328.860 1428.930 106.806 138.731 o
-6 -25 -5 8796.420 8204.290 171.938 24.188 o
-6 -25 -4 7548.300 7575.280 157.836 28.771 o
-6 -25 -3 8119.540 8225.940 147.445 27.332 o
-6 -25 -2 7736.270 7752.200 135.974 29.823 o
-6 -25 -1 9669.900 9401.910 194.501 20.355 o
-6 -24 -10 4273.340 4266.890 213.164 36.103 o
-6 -24 -9 3467.710 3581.230 146.858 58.216 o
-6 -24 -8 4361.000 4223.010 143.844 50.567 o
-6 -24 -7 3260.910 3423.670 129.690 66.766 o
-6 -24 -6 4481.560 4555.350 126.891 52.666 o
-6 -24 -5 7161.730 7423.610 154.430 30.325 o
-6 -24 -4 558.171 465.068 78.962 301.620 o
-6 -24 -3 2936.740 3152.170 102.027 84.296 o
-6 -24 -2 19700.200 19970.500 222.305 8.090 o
-6 -24 -1 29870.800 31421.600 374.036 3.832 o
-6 -23 -11 10232.900 9590.030 360.899 12.243 o
-6 -23 -10 3612.460 3632.150 157.352 53.728 o
-6 -23 -9 1627.720 1772.990 127.733 103.136 o
-6 -23 -8 3778.450 3804.270 130.922 59.840 o
-6 -23 -7 2208.000 2242.520 109.987 100.791 o
-6 -23 -6 2996.930 2633.400 111.161 82.878 o
-6 -23 -5 19513.900 19339.900 281.114 7.665 o
-6 -23 -4 5974.080 6103.390 173.088 33.857 o
-6 -23 -3 23811.700 23698.400 275.171 5.931 o
-6 -23 -2 2667.820 2570.050 86.322 103.166 o
-6 -23 -1 313.585 365.046 58.919 519.171 o
-6 -22 -11 474.976 672.288 171.607 91.470 o
-6 -22 -10 7849.340 7544.310 226.635 22.574 o
-6 -22 -9 5066.300 5389.350 178.463 37.446 o
-6 -22 -8 15035.000 15076.000 266.707 10.658 o
-6 -22 -7 5103.810 5297.580 134.160 45.129 o
-6 -22 -6 2646.300 2812.480 109.250 87.959 o
-6 -22 -5 5467.190 5545.910 155.278 39.281 o
-6 -22 -4 371.298 154.093 75.639 387.103 o
-6 -22 -3 11968.500 12038.000 180.687 16.340 o
-6 -22 -2 12236.600 11891.700 177.159 16.239 o
-6 -22 -1 12774.700 13078.500 163.479 15.440 o
-6 -21 -11 3659.230 4012.130 163.478 50.489 o
-6 -21 -10 7636.110 7532.430 194.643 25.508 o
-6 -21 -9 3474.440 3265.300 138.767 62.199 o
-6 -21 -8 856.196 929.679 100.668 181.974 o
-6 -21 -7 4495.600 4267.620 135.183 51.616 o
-6 -21 -6 862.237 887.846 91.843 203.486 o
-6 -21 -5 5136.100 5074.220 117.510 48.589 o
-6 -21 -4 2505.000 2519.600 89.031 105.777 o
-6 -21 -3 22756.700 22941.200 299.665 6.097 o
-6 -21 -2 8868.790 8736.340 168.061 23.779 o
-6 -21 -1 2492.350 2443.030 76.446 115.372 o
-6 -20 -12 2011.390 1610.910 232.173 44.328 o
-6 -20 -11 3972.430 3930.410 162.395 49.175 o
-6 -20 -10 5399.140 5176.850 153.805 40.601 o
-6 -20 -9 913.688 761.811 104.553 175.144 o
-6 -20 -8 661.204 724.879 97.904 208.201 o
-6 -20 -7 6948.440 6761.200 146.015 32.788 o
-6 -20 -6 5795.010 5718.980 135.514 40.465 o
-6 -20 -5 921.594 843.511 72.042 255.150 o
-6 -20 -4 11327.500 11076.700 179.591 17.666 o
-6 -20 -3 2105.780 1951.960 71.216 140.254 o
-6 -20 -2 481.638 360.301 55.706 481.237 o
-6 -20 -1 15181.700 15402.400 184.464 12.024 o
-6 -19 -12 4597.430 4450.880 226.707 32.599 o
-6 -19 -11 709.893 611.614 125.219 147.486 o
-6 -19 -10 2732.260 2713.430 121.220 80.987 o
-6 -19 -9 15022.400 14621.800 278.302 10.552 o
-6 -19 -8 1341.460 1687.110 99.731 142.983 o
-6 -19 -7 9021.210 9021.750 267.728 17.467 o
-6 -19 -6 376.488 298.112 69.327 414.896 o
-6 -19 -5 68.246 58.719 63.476 680.586 o
-6 -19 -4 11923.500 12329.000 172.422 16.487 o
-6 -19 -3 8001.790 7953.360 134.584 28.919 o
-6 -19 -2 8563.740 8187.090 146.651 26.380 o
-6 -19 -1 13611.300 14126.300 175.905 13.881 o
-6 -18 -12 4740.020 4927.880 214.269 33.500 o
-6 -18 -11 7902.270 7371.100 179.227 26.381 o
-6 -18 -10 1493.710 1237.110 107.697 135.168 o
-6 -18 -9 7886.010 7717.950 208.765 23.725 o
-6 -18 -8 1165.790 1368.200 90.111 173.014 o
-6 -18 -7 787.344 861.184 82.556 236.294 o
-6 -18 -6 11372.500 11354.800 174.951 17.609 o
-6 -18 -5 8433.600 8570.450 163.833 25.091 o
-6 -18 -4 8615.870 8930.240 127.104 26.612 o
-6 -18 -3 5988.010 5831.680 111.856 42.563 o
-6 -18 -2 3681.570 3214.700 85.765 79.332 o
-6 -18 -1 1844.150 1618.690 54.619 178.305 o
-6 -17 -13 541.201 329.553 231.732 53.537 o
-6 -17 -12 326.371 237.526 148.899 125.762 o
-6 -17 -11 714.087 871.681 122.794 146.763 o
-6 -17 -10 14395.700 14368.700 226.356 12.086 o
-6 -17 -9 2096.100 2195.570 99.637 111.855 o
-6 -17 -8 6503.210 6376.780 143.579 35.227 o
-6 -17 -7 3638.750 3742.410 105.291 69.761 o
-6 -17 -6 7293.050 7327.800 160.466 29.539 o
-6 -17 -5 23382.800 23373.200 299.107 5.907 o
-6 -17 -4 12599.700 13627.000 199.852 14.387 o
-6 -17 -3 5413.320 5419.040 110.947 46.979 o
-6 -17 -2 7631.560 7450.420 146.995 29.636 o
-6 -17 -1 4361.090 3838.130 93.385 64.957 o
-6 -16 -13 1993.430 1591.840 207.310 52.809 o
-6 -16 -12 8117.180 8224.370 204.304 23.197 o
-6 -16 -11 2612.060 2644.170 133.368 76.747 o
-6 -16 -10 861.341 723.593 95.515 200.207 o
-6 -16 -9 3475.250 3505.770 106.708 72.555 o
-6 -16 -8 31118.700 31108.500 481.883 3.336 o
-6 -16 -7 16899.200 17769.700 228.120 9.674 o
-6 -16 -6 2509.540 2554.290 78.825 111.858 o
-6 -16 -5 2118.170 2037.540 68.208 140.786 o
-6 -16 -4 19159.500 19585.500 242.192 8.163 o
-6 -16 -3 22169.400 21573.600 230.368 6.939 o
-6 -16 -2 2590.740 2671.010 64.207 116.964 o
-6 -16 -1 28368.000 30589.200 313.151 4.303 o
-6 -15 -13 2326.920 2245.400 251.671 37.169 o
-6 -15 -12 2689.730 2725.880 149.833 67.550 o
-6 -15 -11 9005.570 9054.870 197.134 21.489 o
-6 -15 -10 8045.090 8189.490 159.014 26.707 o
-6 -15 -9 3904.440 3996.510 123.879 60.058 o
-6 -15 -8 1026.110 1061.150 72.554 231.500 o
-6 -15 -7 11674.000 12093.900 200.005 15.994 o
-6 -15 -6 17665.500 18489.700 227.141 9.166 o
-6 -15 -5 24621.200 24875.200 308.442 5.429 o
-6 -15 -4 16042.700 16513.700 249.754 10.073 o
-6 -15 -3 3092.440 2723.540 75.918 97.873 o
-6 -15 -2 6207.320 6025.000 110.331 41.196 o
-6 -15 -1 8501.980 7924.360 107.262 29.410 o
-6 -14 -13 3657.350 3505.070 164.562 51.740 o
-6 -14 -12 2103.260 2370.420 141.518 80.454 o
-6 -14 -11 1552.230 1367.630 116.238 121.157 o
-6 -14 -10 2343.620 2768.820 111.812 91.980 o
-6 -14 -9 16625.700 16604.700 282.206 9.256 o
-6 -14 -8 4604.250 4898.380 102.755 55.809 o
-6 -14 -7 4829.560 4816.120 123.744 50.147 o
-6 -14 -6 11937.300 11637.600 136.261 17.965 o
-6 -14 -5 6662.090 6715.380 141.907 34.255 o
-6 -14 -4 3168.440 3108.100 107.412 78.783 o
-6 -14 -3 12001.800 12127.000 212.616 15.240 o
-6 -14 -2 9760.130 9819.270 130.380 23.046 o
-6 -14 -1 8172.400 7662.310 105.785 30.866 o
-6 -13 -13 1574.990 1532.260 145.444 91.344 o
-6 -13 -12 3846.100 3615.040 136.845 58.254 o
-6 -13 -11 9266.010 9295.520 220.194 19.609 o
-6 -13 -10 6204.680 5926.650 176.002 33.036 o
-6 -13 -9 3200.030 3100.490 110.025 77.277 o
-6 -13 -8 4017.170 3967.390 92.695 68.126 o
-6 -13 -7 3333.290 3144.730 98.079 80.160 o
-6 -13 -6 3518.910 3206.430 78.160 84.623 o
-6 -13 -5 7022.380 6925.370 130.764 33.797 o
-6 -13 -4 22352.500 22020.500 359.527 5.830 o
-6 -13 -3 23447.900 24322.300 254.801 6.070 o
-6 -13 -2 1338.420 1225.870 44.314 252.898 o
-6 -13 -1 754.089 719.918 36.628 441.533 o
-6 -12 -14 2307.860 2314.990 200.057 51.759 o
-6 -12 -13 13114.900 11361.900 483.544 7.678 o
-6 -12 -12 4049.140 4134.310 134.537 55.365 o
-6 -12 -11 350.078 353.223 90.411 284.716 o
-6 -12 -10 4206.960 4101.890 119.494 58.287 o
-6 -12 -9 4593.690 4386.180 108.435 56.697 o
-6 -12 -8 16159.700 15882.300 186.254 11.204 o
-6 -12 -7 9290.540 9430.710 171.607 22.172 o
-6 -12 -6 7487.880 7632.090 135.984 30.713 o
-6 -12 -5 5357.870 5225.540 129.189 44.824 o
-6 -12 -4 2282.040 2444.070 59.918 133.357 o
-6 -12 -3 16271.400 15998.600 198.712 10.910 o
-6 -12 -2 28151.700 28349.500 246.982 4.756 o
-6 -12 -1 8239.490 8179.740 150.022 26.915 o
-6 -11 -14 1678.020 1505.570 177.944 68.725 o
-6 -11 -13 2.405 325.102 134.518 162.061 o
-6 -11 -12 6998.200 7528.850 221.931 24.429 o
-6 -11 -11 2418.180 2483.750 116.649 90.156 o
-6 -11 -10 10280.100 10125.700 180.329 19.641 o
-6 -11 -9 797.201 762.507 66.058 297.365 o
-6 -11 -8 1294.460 1294.870 68.377 207.354 o
-6 -11 -7 11124.200 11529.600 152.220 18.611 o
-6 -11 -6 752.505 667.990 49.283 388.690 o
-6 -11 -5 14580.700 13928.700 255.758 11.467 o
-6 -11 -4 2442.130 2325.090 56.008 132.322 o
-6 -11 -3 2733.960 2747.730 65.470 111.260 o
-6 -11 -2 6020.580 6184.440 91.235 44.026 o
-6 -11 -1 56637.700 60350.200 594.140 1.293 o
-6 -10 -14 7894.060 7780.800 257.665 20.110 o
-6 -10 -13 1188.610 1247.240 121.470 126.922 o
-6 -10 -12 6637.900 6567.280 183.700 29.986 o
-6 -10 -11 4274.930 4171.340 114.725 58.679 o
-6 -10 -10 3436.900 3709.240 105.981 72.059 o
-6 -10 -9 6166.370 6122.440 108.261 41.410 o
-6 -10 -8 1945.820 1982.030 81.766 135.680 o
-6 -10 -7 1809.830 1728.670 60.884 169.933 o
-6 -10 -6 7316.430 7146.760 130.726 32.449 o
-6 -10 -5 7486.240 7203.280 179.456 27.498 o
-6 -10 -4 12640.700 12270.000 151.010 16.334 o
-6 -10 -3 33840.300 34871.600 379.356 3.232 o
-6 -10 -2 1391.410 1671.210 43.609 224.998 o
-6 -10 -1 32272.900 31553.100 317.485 3.731 o
-6 -9 -14 3161.150 2934.790 176.682 52.871 o
-6 -9 -13 1811.890 1685.660 118.640 108.294 o
-6 -9 -12 10234.200 10039.900 170.553 20.216 o
-6 -9 -11 60.319 -28.416 73.135 542.988 o
-6 -9 -10 1668.920 1699.060 74.788 161.251 o
-6 -9 -9 19311.000 19621.300 233.271 8.192 o
-6 -9 -8 3635.600 3577.140 84.342 77.894 o
-6 -9 -7 33232.100 33807.500 445.594 3.150 o
-6 -9 -6 12865.300 12816.600 179.153 15.072 o
-6 -9 -5 2706.070 2327.050 63.822 118.844 o
-6 -9 -4 27151.100 27177.200 334.720 4.644 o
-6 -9 -3 8554.300 8516.760 113.939 28.058 o
-6 -9 -2 34674.000 34205.200 300.109 3.376 o
-6 -9 -1 31149.800 30994.700 284.400 3.998 o
-6 -8 -14 1381.630 1395.220 136.353 103.934 o
-6 -8 -13 354.655 510.411 112.641 195.191 o
-6 -8 -12 1974.400 1905.220 102.944 115.892 o
-6 -8 -11 6422.900 6563.770 179.237 31.069 o
-6 -8 -10 1398.850 1636.400 74.121 178.596 o
-6 -8 -9 20330.900 20624.600 279.537 7.220 o
-6 -8 -8 2392.730 2476.160 81.292 114.348 o
-6 -8 -7 5031.990 5411.980 124.534 46.934 o
-6 -8 -6 36115.900 36539.000 389.922 2.944 o
-6 -8 -5 14644.400 14086.900 264.476 11.193 o
-6 -8 -4 27814.600 26869.600 299.248 4.725 o
-6 -8 -3 308.613 212.956 26.266 1128.880 o
-6 -8 -2 9532.430 9500.640 121.692 24.216 o
-6 -8 -1 22837.500 21607.300 224.240 6.782 o
-6 -7 -14 1999.560 1960.370 140.293 85.468 o
-6 -7 -13 5766.100 5636.630 176.632 34.828 o
-6 -7 -12 1448.850 1495.850 114.031 124.777 o
-6 -7 -11 4965.530 4540.480 125.162 49.870 o
-6 -7 -10 11844.000 11782.700 211.860 15.582 o
-6 -7 -9 2083.190 2064.630 64.028 145.357 o
-6 -7 -8 13746.900 13588.100 191.490 13.638 o
-6 -7 -7 23197.300 23483.000 287.051 6.019 o
-6 -7 -6 662.458 639.406 38.322 480.520 o
-6 -7 -5 25646.200 25636.100 460.282 4.313 o
-6 -7 -4 36843.700 37883.300 366.159 2.884 o
-6 -7 -3 6436.240 6174.220 75.819 43.394 o
-6 -7 -2 29226.500 28707.400 281.218 4.433 o
-6 -7 -1 16468.600 16625.500 189.157 10.755 o
-6 -6 -14 1272.530 1180.580 138.223 106.475 o
-6 -6 -13 1399.470 1298.130 135.521 105.365 o
-6 -6 -12 7682.540 7337.630 154.522 29.013 o
-6 -6 -11 1197.030 1283.520 90.216 173.434 o
-6 -6 -10 264.638 322.499 65.937 476.606 o
-6 -6 -9 1776.090 1773.670 65.957 164.660 o
-6 -6 -8 68272.600 68910.600 826.197 0.897 o
-6 -6 -7 11247.200 10460.300 158.106 18.964 o
-6 -6 -6 11508.500 11165.700 186.366 17.153 o
-6 -6 -5 4643.550 4300.320 103.950 57.658 o
-6 -6 -4 2347.420 2085.270 67.894 131.596 o
-6 -6 -3 51139.800 49052.900 636.402 1.545 o
-6 -6 -2 1727.600 1699.760 38.853 200.778 o
-6 -6 -1 5139.970 5405.040 62.196 56.242 o
-6 -5 -14 1420.020 1252.940 138.399 102.621 o
-6 -5 -13 228.927 175.202 108.860 228.702 o
-6 -5 -12 501.604 492.043 95.739 238.044 o
-6 -5 -11 689.476 725.757 82.595 253.204 o
-6 -5 -10 36568.600 36424.400 459.682 2.757 o
-6 -5 -9 3531.200 3406.840 94.911 76.801 o
-6 -5 -8 3680.300 3877.930 82.541 75.792 o
-6 -5 -7 4444.410 3535.720 83.728 68.160 o
-6 -5 -6 24721.100 24954.000 339.847 5.214 o
-6 -5 -5 93442.000 94021.900 1466.660 0.437 o
-6 -5 -4 12083.700 12035.300 163.407 16.745 o
-6 -5 -3 46.837 79.751 20.345 3687.230 o
-6 -5 -2 2792.360 2516.090 41.338 124.629 o
-6 -5 -1 13627.400 13876.300 140.224 14.733 o
-6 -4 -14 504.101 297.092 151.922 116.435 o
-6 -4 -13 351.801 352.207 103.933 228.695 o
-6 -4 -12 12758.400 12672.900 228.568 13.855 o
-6 -4 -11 2439.430 2518.890 115.282 90.344 o
-6 -4 -10 1621.060 1669.110 74.306 165.066 o
-6 -4 -9 17744.400 18112.900 254.634 8.861 o
-6 -4 -8 29625.300 29589.700 396.938 3.881 o
-6 -4 -7 34329.000 35990.200 501.787 2.826 o
-6 -4 -6 41248.700 42665.800 543.249 2.147 o
-6 -4 -5 6128.830 5990.980 106.311 42.160 o
-6 -4 -4 7161.340 7522.530 102.869 34.731 o
-6 -4 -3 48592.900 48360.900 581.736 1.691 o
-6 -4 -2 14866.300 14337.700 151.596 13.228 o
-6 -4 -1 308.760 380.090 22.234 1043.790 o
-6 -3 -14 624.320 491.653 171.739 90.527 o
-6 -3 -13 10353.100 10050.100 282.641 15.034 o
-6 -3 -12 373.016 247.957 93.532 273.878 o
-6 -3 -11 6387.050 6378.690 137.221 36.403 o
-6 -3 -10 3685.810 3686.950 106.804 69.039 o
-6 -3 -9 2839.120 2908.380 75.630 101.481 o
-6 -3 -8 20238.500 21157.200 312.450 6.855 o
-6 -3 -7 48238.000 47544.400 549.651 1.752 o
-6 -3 -6 6691.160 6710.600 95.819 38.922 o
-6 -3 -5 18217.500 18661.600 245.179 8.674 o
-6 -3 -4 76239.900 75953.000 952.348 0.725 o
-6 -3 -3 2154.340 2442.530 39.416 152.175 o
-6 -3 -2 2336.770 2103.330 48.114 146.067 o
-6 -3 -1 4418.780 4597.990 49.892 69.264 o
-6 -2 -14 680.773 672.622 137.745 127.249 o
-6 -2 -13 7310.690 7297.330 195.032 26.403 o
-6 -2 -12 1396.770 1369.420 101.404 144.689 o
-6 -2 -11 4397.880 4588.410 113.489 56.282 o
-6 -2 -10 498.997 391.737 61.116 427.490 o
-6 -2 -9 19807.600 19775.800 262.659 7.688 o
-6 -2 -8 2802.180 3202.020 71.840 100.914 o
-6 -2 -7 10089.600 9805.910 158.824 21.165 o
-6 -2 -6 46052.700 46549.500 538.858 1.864 o
-6 -2 -5 7629.610 7437.450 113.707 32.381 o
-6 -2 -4 22220.700 22263.400 372.362 5.730 o
-6 -2 -3 5144.540 4850.100 63.870 58.372 o
-6 -2 -2 41952.300 39357.000 483.449 2.294 o
-6 -2 -1 17245.500 17926.300 187.714 9.992 o
-6 -1 -14 989.794 1095.060 139.497 112.079 o
-6 -1 -13 304.850 387.446 110.352 209.467 o
-6 -1 -12 2468.450 2254.700 124.136 86.595 o
-6 -1 -11 7732.060 7646.800 145.491 29.218 o
-6 -1 -10 9216.720 9220.320 134.553 24.527 o
-6 -1 -9 5354.110 5704.870 125.357 44.201 o
-6 -1 -8 5341.720 5528.280 137.750 42.703 o
-6 -1 -7 5249.510 4993.870 92.694 52.439 o
-6 -1 -6 10593.400 10619.100 149.978 20.110 o
-6 -1 -5 16481.700 16972.900 217.353 10.239 o
-6 -1 -4 21457.600 21781.800 257.276 6.910 o
-6 -1 -3 13837.600 13081.100 139.740 14.924 o
-6 -1 -2 28501.600 27790.000 300.732 4.537 o
-6 -1 -1 33360.000 31964.300 330.578 3.551 o
-5 -35 -1 2519.510 2670.550 175.576 58.403 o
-5 -34 -3 3007.280 3299.550 293.299 27.115 o
-5 -34 -2 4042.370 3670.080 237.792 33.280 o
-5 -34 -1 2771.890 3069.150 161.097 60.637 o
-5 -33 -5 820.570 858.164 177.721 80.788 o
-5 -33 -4 7222.650 7068.140 236.554 23.198 o
-5 -33 -3 1990.500 1741.680 174.289 66.841 o
-5 -33 -2 5236.920 5747.790 175.167 36.689 o
-5 -33 -1 997.399 933.157 137.792 115.768 o
-5 -32 -6 7383.720 6599.370 289.796 19.217 o
-5 -32 -5 3080.830 3273.780 182.815 50.426 o
-5 -32 -4 9610.800 9046.990 326.574 14.130 o
-5 -32 -3 2538.930 2250.790 120.569 87.685 o
-5 -32 -2 930.676 808.473 107.499 167.111 o
-5 -32 -1 959.907 799.421 123.515 138.201 o
-5 -31 -7 6867.860 6449.970 285.811 20.196 o
-5 -31 -6 1464.340 1316.030 172.211 75.099 o
-5 -31 -5 5424.030 5659.610 192.111 33.699 o
-5 -31 -4 8106.880 7610.420 221.507 22.484 o
-5 -31 -3 1198.010 1170.910 108.783 145.507 o
-5 -31 -2 5293.650 5635.260 151.370 40.455 o
-5 -31 -1 571.827 704.950 110.653 181.721 o
-5 -30 -7 2205.940 2092.050 179.427 61.236 o
-5 -30 -6 10089.100 10241.000 330.189 13.260 o
-5 -30 -5 9287.070 9196.990 268.123 17.081 o
-5 -30 -4 1862.020 1922.560 130.019 95.368 o
-5 -30 -3 6144.250 6122.910 157.540 35.255 o
-5 -30 -2 4149.670 4230.600 122.050 57.553 o
-5 -30 -1 1225.700 1098.460 103.984 153.292 o
-5 -29 -8 2512.610 2640.190 222.817 43.059 o
-5 -29 -7 11204.000 10787.200 256.738 15.024 o
-5 -29 -6 12034.200 11281.800 242.071 14.617 o
-5 -29 -5 14756.500 14600.400 225.067 11.802 o
-5 -29 -4 11010.900 10728.100 193.408 17.733 o
-5 -29 -3 2463.100 2537.990 108.171 94.173 o
-5 -29 -2 2605.280 2606.800 107.503 91.398 o
-5 -29 -1 282.183 179.815 85.049 338.550 o
-5 -28 -9 8376.670 7522.270 277.082 18.431 o
-5 -28 -8 16316.100 16364.100 343.715 8.441 o
-5 -28 -7 9620.580 9511.720 274.829 16.270 o
-5 -28 -6 9449.380 9237.330 203.346 20.322 o
-5 -28 -5 2179.920 2078.310 130.232 88.590 o
-5 -28 -4 1774.360 1647.180 108.331 119.612 o
-5 -28 -3 16218.700 16218.900 225.223 10.459 o
-5 -28 -2 6113.250 6096.430 152.201 36.102 o
-5 -28 -1 2454.310 2270.940 98.122 103.660 o
-5 -27 -9 721.626 872.513 169.299 88.773 o
-5 -27 -8 6438.110 6306.380 195.500 29.544 o
-5 -27 -7 16380.100 16185.400 249.990 9.983 o
-5 -27 -6 6607.900 6566.760 252.462 23.225 o
-5 -27 -5 14947.400 14796.300 230.210 11.515 o
-5 -27 -4 16037.400 15922.500 296.914 9.414 o
-5 -27 -3 2124.360 2262.640 93.318 115.394 o
-5 -27 -2 1284.860 1599.390 90.520 160.394 o
-5 -27 -1 6267.030 6001.210 127.855 38.799 o
-5 -26 -10 3316.820 3565.750 251.276 32.900 o
-5 -26 -9 9086.190 9433.910 267.839 17.180 o
-5 -26 -8 1538.570 1556.960 168.597 75.316 o
-5 -26 -7 786.472 895.118 118.254 151.480 o
-5 -26 -6 14354.700 14190.100 234.118 12.003 o
-5 -26 -5 10480.800 10445.500 192.483 18.610 o
-5 -26 -4 3375.730 3458.310 113.406 71.513 o
-5 -26 -3 2364.080 2359.100 88.847 111.290 o
-5 -26 -2 148.710 221.165 74.593 448.971 o
-5 -26 -1 3980.480 4043.200 103.622 65.009 o
-5 -25 -10 10.512 -282.099 159.955 119.416 o
-5 -25 -9 5298.210 5554.420 173.521 37.074 o
-5 -25 -8 4871.370 4995.240 157.562 42.758 o
-5 -25 -7 7898.360 7669.080 221.782 22.757 o
-5 -25 -6 2971.970 2975.900 116.637 78.180 o
-5 -25 -5 267.354 294.034 93.510 284.442 o
-5 -25 -4 5265.940 4722.310 116.500 49.061 o
-5 -25 -3 1370.010 1415.350 76.979 182.446 o
-5 -25 -2 5909.320 6071.760 126.899 40.350 o
-5 -25 -1 276.747 353.669 80.427 352.622 o
-5 -24 -11 727.033 744.367 185.082 76.977 o
-5 -24 -10 2148.150 2224.250 162.701 69.071 o
-5 -24 -9 4423.030 4422.090 150.712 47.994 o
-5 -24 -8 2966.580 3097.050 131.994 70.628 o
-5 -24 -7 2581.450 2603.720 118.711 85.354 o
-5 -24 -6 10160.000 9913.160 190.270 19.499 o
-5 -24 -5 5826.330 5810.990 138.488 39.693 o
-5 -24 -4 2504.250 2429.000 95.010 102.907 o
-5 -24 -3 548.504 438.484 67.833 364.511 o
-5 -24 -2 4800.930 5069.420 116.994 50.858 o
-5 -24 -1 1473.500 1436.310 76.142 176.959 o
-5 -23 -11 5238.520 5191.140 232.019 29.343 o
-5 -23 -10 756.167 650.878 137.941 125.211 o
-5 -23 -9 522.674 720.291 125.302 152.392 o
-5 -23 -8 12607.100 12076.600 235.938 14.002 o
-5 -23 -7 16769.900 16780.300 249.348 9.661 o
-5 -23 -6 847.737 892.807 93.413 200.463 o
-5 -23 -5 4273.370 4094.730 114.478 59.081 o
-5 -23 -4 12183.800 12139.200 147.466 17.030 o
-5 -23 -3 10566.000 10554.100 133.111 20.858 o
-5 -23 -2 570.741 507.639 60.030 398.002 o
-5 -23 -1 2650.710 2686.030 77.335 107.538 o
-5 -22 -11 3529.420 3576.880 224.180 37.473 o
-5 -22 -10 6461.250 5959.790 167.368 33.244 o
-5 -22 -9 5972.880 6041.810 153.108 36.607 o
-5 -22 -8 2277.920 2081.840 111.006 100.260 o
-5 -22 -7 5826.320 5773.880 150.658 38.036 o
-5 -22 -6 8716.420 8879.820 171.282 23.731 o
-5 -22 -5 17574.000 17561.900 239.010 9.260 o
-5 -22 -4 983.045 940.732 68.680 252.652 o
-5 -22 -3 5559.970 5697.750 106.853 45.936 o
-5 -22 -2 1802.970 1833.110 66.795 160.797 o
-5 -22 -1 5552.790 5346.970 120.210 44.915 o
-5 -21 -12 1997.030 1588.550 217.864 49.006 o
-5 -21 -11 832.743 965.460 140.425 116.054 o
-5 -21 -10 2890.070 2809.710 142.470 68.402 o
-5 -21 -9 6734.730 6675.880 151.067 33.084 o
-5 -21 -8 16451.400 16001.200 231.939 10.285 o
-5 -21 -7 7416.730 7805.230 168.805 27.874 o
-5 -21 -6 3161.460 3099.950 108.861 78.302 o
-5 -21 -5 6876.420 6643.830 129.872 34.900 o
-5 -21 -4 1284.160 1097.200 73.703 205.308 o
-5 -21 -3 9927.640 9958.260 143.782 22.003 o
-5 -21 -2 3275.660 3245.360 75.787 89.344 o
-5 -21 -1 763.300 795.456 55.894 341.538 o
-5 -20 -12 957.622 653.266 171.994 84.861 o
-5 -20 -11 1544.750 1448.510 132.572 103.702 o
-5 -20 -10 2818.810 2864.820 125.417 76.728 o
-5 -20 -9 13369.200 13199.500 207.802 13.708 o
-5 -20 -8 3640.470 3631.090 124.090 64.028 o
-5 -20 -7 461.448 542.671 90.011 261.188 o
-5 -20 -6 13128.000 13011.300 206.578 14.018 o
-5 -20 -5 18799.200 18893.300 245.148 8.398 o
-5 -20 -4 1550.790 1659.110 76.522 165.987 o
-5 -20 -3 7670.740 7473.430 104.036 32.916 o
-5 -20 -2 6983.680 6973.660 101.552 36.592 o
-5 -20 -1 2171.780 2059.490 61.390 144.017 o
-5 -19 -12 1987.600 1835.790 178.132 64.558 o
-5 -19 -11 5322.050 5220.710 179.328 36.683 o
-5 -19 -10 13890.400 13352.900 235.901 12.557 o
-5 -19 -9 701.413 771.159 97.146 205.635 o
-5 -19 -8 8492.450 8826.400 178.653 23.733 o
-5 -19 -7 17000.200 17037.300 234.894 9.705 o
-5 -19 -6 4516.480 4351.700 127.720 52.940 o
-5 -19 -5 16440.200 17206.800 205.919 10.367 o
-5 -19 -4 32004.400 32892.700 367.418 3.539 o
-5 -19 -3 7524.700 7346.990 132.235 31.347 o
-5 -19 -2 9050.790 9358.670 153.107 23.709 o
-5 -19 -1 1381.420 1395.940 53.128 223.686 o
-5 -18 -12 4287.450 4483.340 194.895 39.117 o
-5 -18 -11 382.503 286.555 122.460 174.237 o
-5 -18 -10 607.580 657.480 101.800 203.713 o
-5 -18 -9 6540.200 6929.420 205.208 27.528 o
-5 -18 -8 25267.900 25072.000 348.996 5.052 o
-5 -18 -7 6114.320 6084.760 166.181 34.317 o
-5 -18 -6 20728.700 20954.000 250.506 7.312 o
-5 -18 -5 3853.220 3811.900 107.207 66.437 o
-5 -18 -4 1410.070 1217.820 63.104 211.070 o
-5 -18 -3 24261.000 25306.100 288.942 5.574 o
-5 -18 -2 6533.160 6882.070 85.981 40.168 o
-5 -18 -1 8644.660 9156.160 118.151 26.781 o
-5 -17 -13 31.358 233.330 176.950 95.595 o
-5 -17 -12 3739.880 3658.540 176.429 47.576 o
-5 -17 -11 2073.400 1715.760 125.947 96.553 o
-5 -17 -10 16315.900 15824.700 282.888 9.552 o
-5 -17 -9 909.760 1005.910 90.220 199.825 o
-5 -17 -8 16678.400 16416.500 246.528 9.835 o
-5 -17 -7 9978.420 10066.800 173.786 20.432 o
-5 -17 -6 8216.150 8251.190 123.600 28.709 o
-5 -17 -5 15674.200 15678.800 198.338 11.374 o
-5 -17 -4 33878.700 33331.700 343.923 3.393 o
-5 -17 -3 4829.050 4643.470 93.026 56.999 o
-5 -17 -2 2027.580 2038.120 58.099 153.702 o
-5 -17 -1 3497.390 4129.670 71.978 79.825 o
-5 -16 -13 2389.220 2250.700 161.472 67.275 o
-5 -16 -12 1234.680 1069.990 131.812 115.508 o
-5 -16 -11 4410.380 4394.420 142.609 50.016 o
-5 -16 -10 9693.440 9851.250 207.306 19.344 o
-5 -16 -9 19871.600 20360.700 242.915 7.762 o
-5 -16 -8 7076.790 7251.300 132.390 32.908 o
-5 -16 -7 1712.470 1673.320 73.923 160.817 o
-5 -16 -6 41663.300 41863.600 508.806 2.203 o
-5 -16 -5 16943.000 16890.400 217.547 10.019 o
-5 -16 -4 8480.880 8397.900 171.645 24.642 o
-5 -16 -3 22073.800 21872.600 289.817 6.470 o
-5 -16 -2 4153.190 4043.440 69.825 72.028 o
-5 -16 -1 10302.000 10706.500 145.712 20.667 o
-5 -15 -13 2023.960 1814.190 189.147 59.306 o
-5 -15 -12 1559.730 1536.110 135.370 100.015 o
-5 -15 -11 2556.220 2726.230 117.657 85.395 o
-5 -15 -10 4084.990 4267.140 151.989 50.144 o
-5 -15 -9 15626.800 15661.600 273.496 10.077 o
-5 -15 -8 15223.700 15210.400 239.829 11.039 o
-5 -15 -7 22633.400 22741.600 284.522 6.260 o
-5 -15 -6 3420.240 3447.880 86.776 81.094 o
-5 -15 -5 3009.630 2968.160 73.667 98.102 o
-5 -15 -4 21068.000 21345.000 274.789 6.940 o
-5 -15 -3 5901.410 6085.070 82.165 46.030 o
-5 -15 -2 22863.200 22168.800 219.140 6.728 o
-5 -15 -1 7940.840 8548.370 88.667 31.253 o
-5 -14 -13 5972.610 5768.840 235.808 26.709 o
-5 -14 -12 221.202 74.637 115.356 210.291 o
-5 -14 -11 15886.100 15519.100 284.203 9.795 o
-5 -14 -10 2530.120 2588.960 103.990 95.040 o
-5 -14 -9 1436.850 1413.810 86.835 163.105 o
-5 -14 -8 675.295 666.449 67.315 319.862 o
-5 -14 -7 10130.700 10499.400 134.655 21.574 o
-5 -14 -6 17833.000 17807.400 229.929 9.208 o
-5 -14 -5 9592.470 9574.360 116.547 24.249 o
-5 -14 -4 45830.500 46707.100 441.938 1.985 o
-5 -14 -3 711.249 746.085 42.458 422.936 o
-5 -14 -2 10140.100 10360.600 121.530 22.206 o
-5 -14 -1 2160.310 2379.510 50.496 146.092 o
-5 -13 -14 2565.500 2978.530 251.806 35.477 o
-5 -13 -13 131.864 117.209 157.713 118.692 o
-5 -13 -12 8688.930 8204.130 157.911 25.334 o
-5 -13 -11 4363.690 4342.100 114.965 57.184 o
-5 -13 -10 1663.190 1730.420 80.117 154.079 o
-5 -13 -9 5765.060 6023.610 122.857 41.695 o
-5 -13 -8 23669.100 23368.200 294.755 5.873 o
-5 -13 -7 19124.700 18909.900 203.718 8.708 o
-5 -13 -6 10758.200 10744.000 159.924 19.382 o
-5 -13 -5 7486.830 7822.980 135.776 30.453 o
-5 -13 -4 22284.100 21690.200 199.700 7.098 o
-5 -13 -3 18933.300 18519.900 235.574 8.526 o
-5 -13 -2 28961.200 29848.000 304.532 4.303 o
-5 -13 -1 1943.960 1740.070 46.089 177.326 o
-5 -12 -14 2770.970 2261.130 200.009 49.460 o
-5 -12 -13 4249.730 4224.690 135.180 53.432 o
-5 -12 -12 1046.080 1036.530 108.254 155.236 o
-5 -12 -11 4700.020 4624.420 132.121 49.834 o
-5 -12 -10 29341.200 29098.200 382.215 4.002 o
-5 -12 -9 14133.800 14097.800 199.174 12.960 o
-5 -12 -8 7615.890 7727.740 143.470 29.589 o
-5 -12 -7 8356.270 8314.910 135.930 27.440 o
-5 -12 -6 24187.000 24068.400 366.901 5.221 o
-5 -12 -5 22851.300 22305.200 272.466 6.348 o
-5 -12 -4 2497.880 2570.060 69.968 117.625 o
-5 -12 -3 1814.720 1604.840 47.319 188.850 o
-5 -12 -2 16067.800 15901.700 246.252 10.274 o
-5 -12 -1 77939.000 78109.200 736.434 0.764 o
-5 -11 -14 7669.910 6395.510 312.414 17.529 o
-5 -11 -13 1097.260 1080.790 124.320 128.318 o
-5 -11 -12 18041.900 17442.500 281.740 8.518 o
-5 -11 -11 3298.210 3359.650 111.993 73.570 o
-5 -11 -10 1351.610 1231.360 80.502 183.189 o
-5 -11 -9 402.724 434.303 59.066 468.436 o
-5 -11 -8 12342.300 12251.300 178.289 15.903 o
-5 -11 -7 7604.290 7310.720 128.081 31.506 o
-5 -11 -6 8116.410 8277.260 126.390 28.755 o
-5 -11 -5 9632.920 9053.160 128.943 24.124 o
-5 -11 -4 14425.600 14253.400 273.515 11.073 o
-5 -11 -3 73546.500 75907.500 742.319 0.822 o
-5 -11 -2 820.575 761.917 33.757 425.612 o
-5 -11 -1 19798.400 19731.400 219.405 8.125 o
-5 -10 -14 1731.910 1830.190 174.971 68.391 o
-5 -10 -13 2529.230 2719.120 162.988 63.284 o
-5 -10 -12 4143.510 4413.020 115.370 58.601 o
-5 -10 -11 415.047 437.090 82.109 310.560 o
-5 -10 -10 16282.000 16305.500 284.834 9.428 o
-5 -10 -9 4767.790 4813.230 107.289 53.944 o
-5 -10 -8 3983.860 4180.900 94.376 66.855 o
-5 -10 -7 12771.000 13391.000 184.852 14.739 o
-5 -10 -6 7315.610 7176.170 153.924 30.287 o
-5 -10 -5 32867.600 33630.600 382.905 3.371 o
-5 -10 -4 3304.980 3138.550 86.525 85.412 o
-5 -10 -3 2121.750 1973.450 46.665 160.313 o
-5 -10 -2 24175.600 25036.400 257.929 5.800 o
-5 -10 -1 39508.500 37361.200 598.032 2.260 o
-5 -9 -14 4288.570 4369.230 163.965 45.871 o
-5 -9 -13 341.788 329.442 112.305 202.878 o
-5 -9 -12 5538.390 5617.520 153.794 39.066 o
-5 -9 -11 8942.660 8849.440 162.375 23.875 o
-5 -9 -10 162.369 -35.823 64.452 620.166 o
-5 -9 -9 3349.290 3267.100 88.524 82.876 o
-5 -9 -8 43557.900 44413.900 474.437 2.100 o
-5 -9 -7 12437.100 11881.600 171.562 16.196 o
-5 -9 -6 3643.740 3481.670 69.081 83.461 o
-5 -9 -5 11144.100 12722.700 179.812 16.904 o
-5 -9 -4 51376.900 54042.300 516.362 1.573 o
-5 -9 -3 32542.400 31999.900 350.959 3.579 o
-5 -9 -2 6909.090 7056.980 65.017 39.618 o
-5 -9 -1 23326.200 22603.800 178.946 6.771 o
-5 -8 -14 357.048 534.816 139.690 135.560 o
-5 -8 -13 6709.090 6394.860 153.594 33.347 o
-5 -8 -12 3313.260 3347.610 140.672 62.578 o
-5 -8 -11 3142.470 3168.230 104.529 79.983 o
-5 -8 -10 6180.770 6449.040 115.486 39.708 o
-5 -8 -9 8267.430 8274.450 143.560 27.188 o
-5 -8 -8 9101.150 8770.330 121.678 25.963 o
-5 -8 -7 16707.400 16240.600 204.285 10.509 o
-5 -8 -6 6329.570 6010.710 122.666 39.153 o
-5 -8 -5 19260.400 19569.900 237.797 8.174 o
-5 -8 -4 13230.100 13029.000 163.158 15.021 o
-5 -8 -3 13369.100 13354.600 155.023 14.919 o
-5 -8 -2 26669.600 26597.600 280.490 5.028 o
-5 -8 -1 7357.410 7220.770 59.376 37.556 o
-5 -7 -14 83.597 -99.096 164.184 111.900 o
-5 -7 -13 184.342 143.738 113.232 217.721 o
-5 -7 -12 898.987 753.905 100.043 186.023 o
-5 -7 -11 6595.450 6327.360 126.257 36.959 o
-5 -7 -10 8592.690 8487.990 170.978 24.373 o
-5 -7 -9 8217.240 8323.730 130.638 28.138 o
-5 -7 -8 32.912 -73.417 43.755 1477.390 o
-5 -7 -7 6553.040 7141.820 103.998 37.798 o
-5 -7 -6 17589.500 16708.200 187.093 10.139 o
-5 -7 -5 19846.700 19496.000 241.666 7.934 o
-5 -7 -4 9294.430 9357.120 119.019 25.004 o
-5 -7 -3 2511.480 2510.880 47.272 131.596 o
-5 -7 -2 1914.370 1812.510 39.911 182.524 o
-5 -7 -1 3676.950 3548.140 52.222 87.204 o
-5 -6 -14 171.083 -140.010 147.041 136.389 o
-5 -6 -13 2924.960 2906.090 119.618 77.865 o
-5 -6 -12 1878.040 2158.310 106.048 112.358 o
-5 -6 -11 357.995 323.446 78.984 348.611 o
-5 -6 -10 5460.160 5682.240 102.623 47.198 o
-5 -6 -9 20431.400 20867.700 217.653 7.707 o
-5 -6 -8 11011.500 10899.300 199.812 17.377 o
-5 -6 -7 17865.700 18310.000 270.496 8.566 o
-5 -6 -6 40110.300 39989.800 489.029 2.367 o
-5 -6 -5 15013.300 14165.700 150.815 13.192 o
-5 -6 -4 10025.800 9547.380 126.154 22.986 o
-5 -6 -3 21410.900 21554.600 228.879 7.182 o
-5 -6 -2 6024.700 6111.080 88.003 44.578 o
-5 -6 -1 745.810 731.311 22.979 501.342 o
-5 -5 -14 120.333 44.870 126.446 183.579 o
-5 -5 -13 971.714 883.209 110.425 157.985 o
-5 -5 -12 3754.090 3744.490 119.322 63.956 o
-5 -5 -11 11395.200 11582.400 163.514 17.837 o
-5 -5 -10 3094.280 3174.140 90.970 86.681 o
-5 -5 -9 3930.040 4225.920 111.986 62.229 o
-5 -5 -8 24741.800 25736.800 324.671 5.228 o
-5 -5 -7 44670.300 45463.300 546.161 1.932 o
-5 -5 -6 13111.400 13072.500 194.085 14.334 o
-5 -5 -5 5987.190 5601.360 87.470 46.333 o
-5 -5 -4 55106.100 55458.600 654.605 1.342 o
-5 -5 -3 11654.300 11117.500 143.317 18.469 o
-5 -5 -2 20365.700 19833.000 236.437 7.743 o
-5 -5 -1 2922.380 2986.180 40.123 113.946 o
-5 -4 -15 2960.140 3220.560 206.557 44.393 o
-5 -4 -14 29.774 -296.354 131.501 175.583 o
-5 -4 -13 5728.400 5404.110 137.438 41.205 o
-5 -4 -12 29.954 50.583 90.777 359.928 o
-5 -4 -11 8247.490 8189.760 151.903 26.751 o
-5 -4 -10 4542.330 4337.970 95.992 60.175 o
-5 -4 -9 4994.500 5044.220 126.441 47.886 o
-5 -4 -8 7807.240 7931.220 135.400 29.419 o
-5 -4 -7 12081.100 11748.600 189.445 16.096 o
-5 -4 -6 21827.300 22350.700 248.309 6.793 o
-5 -4 -5 12879.300 12922.700 163.040 15.424 o
-5 -4 -4 64654.100 64679.800 1073.120 0.847 o
-5 -4 -3 7938.560 8702.760 123.515 28.855 o
-5 -4 -2 736.510 621.493 21.430 536.985 o
-5 -4 -1 26069.200 25332.500 249.875 5.407 o
-5 -3 -15 5066.990 5097.940 199.051 34.647 o
-5 -3 -14 1889.760 1924.380 146.494 83.126 o
-5 -3 -13 270.298 370.496 98.923 254.928 o
-5 -3 -12 2144.380 2162.730 114.983 99.207 o
-5 -3 -11 5611.980 5500.510 120.339 44.163 o
-5 -3 -10 4.932 -19.133 59.695 853.420 o
-5 -3 -9 10292.700 9916.600 145.947 21.317 o
-5 -3 -8 8460.420 8886.660 125.021 27.167 o
-5 -3 -7 7603.540 7862.390 120.033 31.297 o
-5 -3 -6 28296.200 29177.600 345.333 4.283 o
-5 -3 -5 3591.490 4082.020 83.415 75.344 o
-5 -3 -4 1510.850 1700.270 41.172 216.033 o
-5 -3 -3 12645.700 12725.300 172.490 15.512 o
-5 -3 -2 10127.400 9668.410 127.897 22.605 o
-5 -3 -1 4573.460 4940.900 55.133 64.776 o
-5 -2 -15 3785.810 3948.730 220.152 36.857 o
-5 -2 -14 2390.170 2338.850 145.124 75.078 o
-5 -2 -13 10132.000 9523.630 207.204 18.985 o
-5 -2 -12 2184.230 2394.910 106.232 102.431 o
-5 -2 -11 777.305 1005.320 87.123 217.731 o
-5 -2 -10 7844.850 7880.770 157.873 27.637 o
-5 -2 -9 15672.000 15696.800 225.449 10.905 o
-5 -2 -8 6214.680 6105.740 102.772 41.869 o
-5 -2 -7 3674.490 3563.740 90.823 75.282 o
-5 -2 -6 16302.900 16703.000 191.728 10.791 o
-5 -2 -5 60010.300 60268.100 645.709 1.190 o
-5 -2 -4 35474.300 31589.400 636.347 2.534 o
-5 -2 -3 4716.730 4701.880 66.112 62.762 o
-5 -2 -2 47802.500 48538.500 538.692 1.762 o
-5 -2 -1 8439.900 8545.180 95.831 29.355 o
-5 -1 -15 5563.190 5493.310 201.050 32.285 o
-5 -1 -14 12973.100 12579.200 304.249 11.620 o
-5 -1 -13 2798.050 2626.240 150.690 66.611 o
-5 -1 -12 19522.600 19801.000 311.828 7.259 o
-5 -1 -11 13878.400 13666.400 271.671 11.600 o
-5 -1 -10 9147.940 9310.650 155.430 23.438 o
-5 -1 -9 1860.530 1937.690 64.102 158.284 o
-5 -1 -8 17360.200 16655.000 272.602 9.078 o
-5 -1 -7 13969.000 14155.300 170.366 13.685 o
-5 -1 -6 7367.780 7625.640 109.004 33.316 o
-5 -1 -5 8726.790 8984.180 108.864 27.294 o
-5 -1 -4 13448.800 13538.200 190.619 13.928 o
-5 -1 -3 76936.700 74886.800 1187.170 0.647 o
-5 -1 -2 48141.500 48807.700 601.813 1.676 o
-5 -1 -1 10832.000 10851.500 199.738 17.619 o
-4 -35 -2 4043.830 4068.420 186.371 42.729 o
-4 -35 -1 530.562 364.252 161.456 103.477 o
-4 -34 -4 14646.900 14721.400 435.402 7.699 o
-4 -34 -3 2160.030 1841.490 191.172 57.440 o
-4 -34 -2 5835.520 5824.490 186.731 32.935 o
-4 -34 -1 4498.510 4517.230 201.541 37.050 o
-4 -33 -5 3776.770 4322.300 200.542 40.227 o
-4 -33 -4 3254.270 2733.120 239.071 36.537 o
-4 -33 -3 2360.620 2358.580 151.363 72.029 o
-4 -33 -2 9239.860 8597.270 231.733 19.455 o
-4 -33 -1 4243.070 4351.830 161.262 46.772 o
-4 -32 -6 2925.560 2748.610 187.240 51.409 o
-4 -32 -5 6455.200 6212.390 211.528 27.861 o
-4 -32 -4 4058.430 3983.140 187.511 42.598 o
-4 -32 -3 785.063 789.471 119.072 152.181 o
-4 -32 -2 5806.010 5990.070 163.901 35.848 o
-4 -32 -1 6839.010 6676.500 174.409 30.287 o
-4 -31 -7 3824.820 3815.840 231.887 34.722 o
-4 -31 -6 3654.020 3604.800 217.731 38.351 o
-4 -31 -5 1905.490 2304.900 160.854 72.057 o
-4 -31 -4 3799.740 3700.630 129.864 60.425 o
-4 -31 -3 13242.500 12944.900 197.112 14.197 o
-4 -31 -2 567.510 428.831 100.748 218.357 o
-4 -31 -1 657.939 438.191 111.945 181.253 o
-4 -30 -8 1447.890 1269.490 190.112 65.101 o
-4 -30 -7 8081.320 7909.090 230.216 21.664 o
-4 -30 -6 4990.910 4878.900 181.655 38.145 o
-4 -30 -5 8820.950 8689.940 212.191 21.144 o
-4 -30 -4 6421.680 6261.080 135.885 36.655 o
-4 -30 -3 2667.040 2544.600 109.679 89.606 o
-4 -30 -2 1600.710 1556.610 101.404 133.902 o
-4 -30 -1 668.492 901.905 104.508 185.062 o
-4 -29 -8 5010.680 4931.380 199.060 35.088 o
-4 -29 -7 5210.910 5519.990 184.791 35.698 o
-4 -29 -6 1462.780 1339.780 139.960 99.541 o
-4 -29 -5 1168.360 1212.400 105.837 150.379 o
-4 -29 -4 3449.520 3611.100 112.330 70.192 o
-4 -29 -3 1939.610 2154.960 107.922 109.296 o
-4 -29 -2 1639.440 1499.730 98.717 136.761 o
-4 -29 -1 18.704 50.514 91.622 355.749 o
-4 -28 -9 1652.580 1760.970 189.674 61.903 o
-4 -28 -8 466.704 638.275 162.435 101.118 o
-4 -28 -7 1480.420 1640.560 145.181 92.195 o
-4 -28 -6 6882.160 6583.680 159.990 31.814 o
-4 -28 -5 13404.600 12929.800 346.185 10.250 o
-4 -28 -4 699.131 734.562 90.617 225.871 o
-4 -28 -3 3698.280 3643.360 113.177 67.021 o
-4 -28 -2 973.783 1091.080 91.418 189.979 o
-4 -28 -1 6198.580 6062.520 148.339 36.345 o
-4 -27 -9 5225.820 5606.880 224.832 29.827 o
-4 -27 -8 10097.400 10607.800 291.476 14.650 o
-4 -27 -7 7252.210 7060.050 173.163 28.818 o
-4 -27 -6 5418.820 5347.440 146.839 41.276 o
-4 -27 -5 11891.200 11646.600 233.590 14.869 o
-4 -27 -4 3593.790 3370.240 110.699 70.510 o
-4 -27 -3 21855.300 22064.000 289.685 6.503 o
-4 -27 -2 1469.620 1520.580 90.732 153.426 o
-4 -27 -1 2416.050 2794.030 95.726 100.415 o
-4 -26 -10 6336.940 6088.670 249.765 24.309 o
-4 -26 -9 1467.600 1274.200 166.262 79.207 o
-4 -26 -8 7423.970 7340.100 235.237 22.757 o
-4 -26 -7 10992.300 10661.800 278.954 14.411 o
-4 -26 -6 1075.500 1152.050 102.499 161.258 o
-4 -26 -5 10240.200 10065.700 173.779 20.041 o
-4 -26 -4 1251.740 1291.380 82.302 184.274 o
-4 -26 -3 1794.050 1847.990 90.883 134.105 o
-4 -26 -2 19244.300 19251.600 169.417 8.907 o
-4 -26 -1 18668.500 18401.900 228.139 8.742 o
-4 -25 -10 523.722 566.670 158.303 105.351 o
-4 -25 -9 1456.300 1562.650 145.341 93.080 o
-4 -25 -8 2112.660 2063.860 138.823 84.077 o
-4 -25 -7 1042.290 1131.530 112.386 146.681 o
-4 -25 -6 3164.200 3264.400 110.064 76.653 o
-4 -25 -5 3511.030 3474.230 107.885 71.885 o
-4 -25 -4 4766.370 4459.280 105.128 55.761 o
-4 -25 -3 13674.700 14349.900 249.459 12.042 o
-4 -25 -2 6679.650 6785.640 132.229 35.110 o
-4 -25 -1 4171.080 4065.280 98.960 64.269 o
-4 -24 -11 8169.020 7921.380 270.823 18.829 o
-4 -24 -10 798.316 772.148 156.357 100.668 o
-4 -24 -9 353.810 325.355 122.884 173.668 o
-4 -24 -8 3052.970 3244.260 132.692 68.630 o
-4 -24 -7 8778.100 8454.730 183.159 23.254 o
-4 -24 -6 1873.330 1857.950 86.845 135.385 o
-4 -24 -5 558.039 621.874 76.689 300.196 o
-4 -24 -4 24886.900 24566.700 340.710 5.214 o
-4 -24 -3 1961.190 2063.050 77.902 137.381 o
-4 -24 -2 10896.000 11346.900 150.804 19.102 o
-4 -24 -1 12596.300 12431.000 157.846 16.113 o
-4 -23 -11 3021.580 3291.210 173.118 53.787 o
-4 -23 -10 2063.890 2163.920 174.313 64.406 o
-4 -23 -9 22838.500 23030.400 281.195 6.199 o
-4 -23 -8 2085.830 2606.310 144.307 77.558 o
-4 -23 -7 3192.580 3222.320 116.889 73.702 o
-4 -23 -6 19884.600 19222.400 266.102 7.720 o
-4 -23 -5 2617.340 2683.400 91.235 100.089 o
-4 -23 -4 3270.850 3259.040 86.897 84.835 o
-4 -23 -3 1871.350 2006.750 73.657 146.273 o
-4 -23 -2 13504.300 13697.600 195.270 13.704 o
-4 -23 -1 5792.810 5752.950 106.115 44.576 o
-4 -22 -11 10138.900 9660.240 323.822 13.666 o
-4 -22 -10 2767.310 2688.700 140.382 71.258 o
-4 -22 -9 2736.400 3032.510 127.280 75.816 o
-4 -22 -8 3975.880 4297.060 129.121 56.770 o
-4 -22 -7 5160.840 5028.830 126.428 46.955 o
-4 -22 -6 14904.300 14393.900 247.058 11.321 o
-4 -22 -5 7800.670 7234.950 146.619 29.498 o
-4 -22 -4 23785.800 23888.100 228.105 6.199 o
-4 -22 -3 4186.180 4282.520 109.155 60.410 o
-4 -22 -2 4535.330 4976.210 95.679 57.526 o
-4 -22 -1 8548.150 8551.980 124.011 27.426 o
-4 -21 -12 11757.000 11692.400 322.616 12.050 o
-4 -21 -11 2288.740 2103.290 150.984 74.410 o
-4 -21 -10 1473.530 1397.250 130.057 108.153 o
-4 -21 -9 3154.130 3112.840 133.032 68.125 o
-4 -21 -8 4025.870 3970.550 124.628 58.926 o
-4 -21 -7 6410.280 6290.570 143.973 35.675 o
-4 -21 -6 3020.340 2995.860 90.112 89.871 o
-4 -21 -5 6434.720 6334.990 115.086 38.879 o
-4 -21 -4 1763.210 1680.190 63.833 170.411 o
-4 -21 -3 7922.930 8156.260 147.138 27.927 o
-4 -21 -2 4859.090 5339.370 97.411 53.214 o
-4 -21 -1 4718.290 4664.770 92.815 57.883 o
-4 -20 -12 598.188 739.798 228.479 53.678 o
-4 -20 -11 586.304 325.264 137.182 135.938 o
-4 -20 -10 9676.270 9369.950 231.067 18.458 o
-4 -20 -9 1149.180 1137.490 102.980 157.411 o
-4 -20 -8 32172.100 31656.500 375.784 3.561 o
-4 -20 -7 21892.700 21268.500 346.102 6.124 o
-4 -20 -6 3660.760 3312.470 84.678 79.307 o
-4 -20 -5 2257.340 2231.170 72.412 128.679 o
-4 -20 -4 2826.880 2567.610 70.102 108.705 o
-4 -20 -3 20510.800 20640.900 206.437 7.813 o
-4 -20 -2 8944.290 9010.410 120.542 26.110 o
-4 -20 -1 12942.900 13140.900 167.111 15.150 o
-4 -19 -12 2927.150 2659.050 180.546 53.895 o
-4 -19 -11 1995.650 1949.790 138.927 86.524 o
-4 -19 -10 6434.040 6146.300 178.051 31.770 o
-4 -19 -9 3360.430 3261.860 108.045 74.969 o
-4 -19 -8 6062.050 5983.620 120.211 40.735 o
-4 -19 -7 6006.340 5910.470 112.559 42.181 o
-4 -19 -6 7449.630 7584.030 148.288 29.844 o
-4 -19 -5 33716.700 33701.700 397.270 3.248 o
-4 -19 -4 5006.740 5113.060 108.335 50.978 o
-4 -19 -3 18413.900 18233.000 211.142 9.081 o
-4 -19 -2 814.212 825.666 49.850 352.953 o
-4 -19 -1 1604.140 1774.790 55.439 187.722 o
-4 -18 -13 3127.010 3175.660 216.039 41.402 o
-4 -18 -12 801.125 564.271 156.397 102.419 o
-4 -18 -11 336.539 236.375 114.764 198.922 o
-4 -18 -10 8792.510 8488.350 173.089 23.845 o
-4 -18 -9 4393.010 4389.210 109.146 58.166 o
-4 -18 -8 928.266 924.721 70.790 253.571 o
-4 -18 -7 223.720 203.453 59.206 602.099 o
-4 -18 -6 9735.550 9786.400 163.525 21.539 o
-4 -18 -5 2776.710 2579.060 69.978 109.904 o
-4 -18 -4 5964.860 6074.240 104.192 43.050 o
-4 -18 -3 5296.400 5395.810 87.765 51.449 o
-4 -18 -2 3277.910 3365.070 69.829 90.508 o
-4 -18 -1 4186.200 4778.780 81.820 64.692 o
-4 -17 -13 237.470 92.993 161.417 111.602 o
-4 -17 -12 2694.670 2600.590 157.570 64.690 o
-4 -17 -11 1386.850 1277.320 95.327 155.826 o
-4 -17 -10 589.763 636.242 101.529 206.492 o
-4 -17 -9 12115.200 12295.700 200.446 15.436 o
-4 -17 -8 22008.500 22905.900 273.240 6.481 o
-4 -17 -7 6004.000 5928.660 126.345 40.319 o
-4 -17 -6 13679.700 13576.400 179.408 13.979 o
-4 -17 -5 2517.210 2431.620 64.805 122.394 o
-4 -17 -4 5118.340 5136.600 111.536 49.580 o
-4 -17 -3 3659.700 3379.120 68.738 84.142 o
-4 -17 -2 6046.280 6049.560 84.508 45.025 o
-4 -17 -1 283.247 325.554 38.258 841.218 o
-4 -16 -13 510.993 396.914 126.365 157.247 o
-4 -16 -12 987.907 641.263 123.912 139.302 o
-4 -16 -11 4047.220 4111.510 122.587 58.733 o
-4 -16 -10 9443.710 9021.130 171.829 22.249 o
-4 -16 -9 6243.250 6575.240 138.147 36.467 o
-4 -16 -8 5391.320 5268.830 114.220 47.023 o
-4 -16 -7 6850.770 6695.800 119.624 35.946 o
-4 -16 -6 13773.200 13547.000 168.339 14.159 o
-4 -16 -5 10366.400 10716.600 146.344 20.531 o
-4 -16 -4 22996.700 23894.100 256.754 6.220 o
-4 -16 -3 2054.100 2039.820 59.268 151.393 o
-4 -16 -2 2504.160 2631.350 57.435 124.114 o
-4 -16 -1 7214.790 6845.050 102.033 35.888 o
-4 -15 -13 1071.680 978.088 130.344 122.594 o
-4 -15 -12 1262.820 1247.140 123.883 121.846 o
-4 -15 -11 7467.800 7289.950 163.177 28.884 o
-4 -15 -10 14.970 -111.370 76.830 512.398 o
-4 -15 -9 6629.240 6640.770 156.792 32.853 o
-4 -15 -8 14524.900 14578.500 152.260 13.397 o
-4 -15 -7 18756.300 18988.200 206.365 8.820 o
-4 -15 -6 3173.520 3249.310 72.440 92.535 o
-4 -15 -5 801.970 713.577 48.593 373.856 o
-4 -15 -4 14106.000 13577.500 163.138 13.965 o
-4 -15 -3 12119.200 13323.200 144.444 16.499 o
-4 -15 -2 4702.580 5111.520 73.268 59.715 o
-4 -15 -1 4850.600 5043.150 67.547 59.608 o
-4 -14 -13 7172.050 7288.540 232.084 23.472 o
-4 -14 -12 3987.300 4021.250 136.046 55.832 o
-4 -14 -11 351.061 425.929 87.353 294.479 o
-4 -14 -10 1283.170 1354.490 82.733 179.688 o
-4 -14 -9 15860.400 16487.100 210.313 10.824 o
-4 -14 -8 15496.400 15995.500 217.013 11.067 o
-4 -14 -7 3592.270 3674.010 89.877 75.960 o
-4 -14 -6 6841.350 6465.040 107.441 37.671 o
-4 -14 -5 5493.730 5468.820 127.045 43.819 o
-4 -14 -4 9417.450 9105.330 127.184 24.606 o
-4 -14 -3 5251.600 5303.710 102.410 49.740 o
-4 -14 -2 30090.600 30461.300 287.218 4.164 o
-4 -14 -1 10794.600 10687.300 103.914 21.369 o
-4 -13 -14 5389.480 5491.900 277.358 23.570 o
-4 -13 -13 163.570 362.657 125.842 174.823 o
-4 -13 -12 2078.910 1994.940 108.757 107.224 o
-4 -13 -11 9604.140 9647.620 166.224 21.739 o
-4 -13 -10 14187.600 14698.600 193.133 12.822 o
-4 -13 -9 11646.400 11893.400 171.852 17.067 o
-4 -13 -8 574.724 607.135 55.411 411.754 o
-4 -13 -7 1321.530 1294.060 52.903 234.825 o
-4 -13 -6 40457.600 39784.600 401.442 2.504 o
-4 -13 -5 9093.650 8548.900 126.313 25.983 o
-4 -13 -4 13082.200 13162.100 191.436 14.389 o
-4 -13 -3 7868.000 8217.210 116.983 30.187 o
-4 -13 -2 23635.200 22261.900 228.505 6.445 o
-4 -13 -1 17229.100 16316.800 183.413 10.489 o
-4 -12 -14 3103.160 3220.900 204.930 44.203 o
-4 -12 -13 8588.710 8594.190 245.690 19.470 o
-4 -12 -12 12958.300 13018.700 216.197 13.897 o
-4 -12 -11 6635.320 6975.670 152.330 32.786 o
-4 -12 -10 1789.270 2027.370 86.794 135.416 o
-4 -12 -9 1324.990 1426.330 66.812 202.820 o
-4 -12 -8 15258.800 16033.900 172.570 11.954 o
-4 -12 -7 20540.100 20683.900 239.884 7.509 o
-4 -12 -6 3443.230 3191.460 70.599 88.801 o
-4 -12 -5 10860.500 11200.000 159.255 18.944 o
-4 -12 -4 66018.900 68299.600 704.350 0.986 o
-4 -12 -3 16563.200 16389.500 183.498 10.849 o
-4 -12 -2 34681.600 34573.700 349.411 3.243 o
-4 -12 -1 18364.200 18215.700 204.300 9.185 o
-4 -11 -14 7313.420 6876.080 223.408 24.322 o
-4 -11 -13 539.555 626.235 116.312 172.362 o
-4 -11 -12 2280.890 2279.190 103.205 103.794 o
-4 -11 -11 2784.840 3137.810 137.890 69.797 o
-4 -11 -10 1921.440 2128.120 89.881 126.242 o
-4 -11 -9 6936.960 6990.210 115.906 35.421 o
-4 -11 -8 11046.800 11402.000 160.111 18.523 o
-4 -11 -7 18329.500 18342.400 253.270 8.595 o
-4 -11 -6 12637.300 13175.900 161.574 15.579 o
-4 -11 -5 10351.000 10387.600 143.405 20.939 o
-4 -11 -4 12091.700 12298.200 144.323 17.132 o
-4 -11 -3 26525.000 26210.600 256.498 5.200 o
-4 -11 -2 11960.800 12068.900 140.433 17.541 o
-4 -11 -1 21248.800 21696.500 187.786 7.514 o
-4 -10 -14 1181.350 1205.630 147.481 98.881 o
-4 -10 -13 4056.780 4076.130 187.188 42.475 o
-4 -10 -12 3123.480 3413.250 127.992 68.894 o
-4 -10 -11 2387.050 2465.150 92.151 107.097 o
-4 -10 -10 4071.820 4275.820 136.081 54.276 o
-4 -10 -9 3704.110 3807.580 85.454 75.034 o
-4 -10 -8 25943.100 26643.800 275.337 5.181 o
-4 -10 -7 7660.420 7344.630 118.139 32.083 o
-4 -10 -6 8099.640 8149.070 118.182 29.535 o
-4 -10 -5 23870.900 23466.000 274.474 5.948 o
-4 -10 -4 6758.770 7693.570 118.451 34.541 o
-4 -10 -3 29465.400 30008.100 288.847 4.277 o
-4 -10 -2 5538.620 5492.230 110.824 46.053 o
-4 -10 -1 35278.600 34232.800 265.458 3.388 o
-4 -9 -14 386.153 606.456 148.383 120.451 o
-4 -9 -13 1013.960 890.685 106.094 163.816 o
-4 -9 -12 6293.650 6249.640 134.264 37.378 o
-4 -9 -11 479.349 321.262 76.633 339.371 o
-4 -9 -10 25496.300 25355.300 356.838 4.944 o
-4 -9 -9 652.216 585.656 57.962 379.384 o
-4 -9 -8 1562.040 1503.950 55.176 200.761 o
-4 -9 -7 4395.000 4270.670 104.486 59.789 o
-4 -9 -6 32708.700 32784.900 376.347 3.447 o
-4 -9 -5 72156.200 71429.300 775.806 0.853 o
-4 -9 -4 1833.590 1853.860 44.497 182.215 o
-4 -9 -3 17097.700 16281.300 296.810 8.899 o
-4 -9 -2 6639.200 6236.630 76.031 42.134 o
-4 -9 -1 7652.340 7185.730 116.643 32.488 o
-4 -8 -14 457.074 373.374 138.043 137.756 o
-4 -8 -13 246.760 241.527 107.414 229.757 o
-4 -8 -12 3229.870 3396.040 110.238 74.893 o
-4 -8 -11 423.133 490.093 76.575 334.416 o
-4 -8 -10 6891.360 6886.470 140.978 33.285 o
-4 -8 -9 12367.300 12431.200 189.939 15.442 o
-4 -8 -8 62560.600 63200.300 736.964 1.065 o
-4 -8 -7 10228.700 10017.300 163.385 20.567 o
-4 -8 -6 13516.500 12872.400 130.492 15.543 o
-4 -8 -5 3618.530 3316.860 54.749 89.652 o
-4 -8 -4 3268.270 3241.390 64.189 93.973 o
-4 -8 -3 30236.300 28899.900 287.405 4.251 o
-4 -8 -2 3800.370 4115.040 56.709 79.481 o
-4 -8 -1 7565.680 7894.880 85.790 33.805 o
-4 -7 -14 473.209 524.135 165.931 98.231 o
-4 -7 -13 5233.430 4814.830 133.537 45.850 o
-4 -7 -12 4995.230 5069.560 145.616 44.205 o
-4 -7 -11 7935.330 7944.560 160.231 27.159 o
-4 -7 -10 20203.900 20515.800 311.610 6.962 o
-4 -7 -9 11343.800 11555.800 192.644 16.893 o
-4 -7 -8 21597.200 21308.100 377.082 5.919 o
-4 -7 -7 74217.200 77069.100 866.714 0.768 o
-4 -7 -6 840.680 631.018 37.271 425.020 o
-4 -7 -5 13214.300 12204.000 150.824 15.754 o
-4 -7 -4 58566.200 58592.400 916.722 1.056 o
-4 -7 -3 22841.400 23554.500 223.268 6.516 o
-4 -7 -2 6431.480 6500.910 66.731 43.327 o
-4 -7 -1 4873.170 4750.320 47.005 63.740 o
-4 -6 -15 481.008 493.035 282.481 36.712 o
-4 -6 -14 45.162 -42.829 155.901 124.842 o
-4 -6 -13 580.428 588.846 103.895 202.189 o
-4 -6 -12 5124.000 5144.560 123.569 47.351 o
-4 -6 -11 17620.600 17897.700 279.428 8.624 o
-4 -6 -10 9387.550 9209.640 166.953 22.452 o
-4 -6 -9 43132.200 42812.700 553.692 2.042 o
-4 -6 -8 712.376 929.967 52.010 354.715 o
-4 -6 -7 11695.100 11487.500 137.509 18.347 o
-4 -6 -6 105635.000 108003.000 1126.250 0.411 o
-4 -6 -5 73980.700 71380.600 811.642 0.819 o
-4 -6 -4 71488.600 72017.500 640.488 0.907 o
-4 -6 -3 4130.380 3924.930 69.403 73.172 o
-4 -6 -2 3878.000 3941.650 54.882 80.041 o
-4 -6 -1 6553.230 6537.900 64.357 42.758 o
-4 -5 -15 380.080 406.617 177.381 89.182 o
-4 -5 -14 459.502 142.053 146.926 126.583 o
-4 -5 -13 3356.550 3620.840 151.533 57.391 o
-4 -5 -12 8346.000 8015.000 225.002 21.543 o
-4 -5 -11 1951.680 2133.680 85.908 128.891 o
-4 -5 -10 95.730 102.429 56.795 778.360 o
-4 -5 -9 36739.800 36704.600 502.429 2.639 o
-4 -5 -8 41585.800 41383.400 580.852 2.099 o
-4 -5 -7 59782.100 58809.500 660.687 1.200 o
-4 -5 -6 18010.000 17897.200 225.560 9.164 o
-4 -5 -5 399.024 408.143 26.867 831.075 o
-4 -5 -4 44894.000 43110.400 595.463 1.902 o
-4 -5 -3 20088.200 18097.300 198.870 8.525 o
-4 -5 -2 22495.900 20616.400 207.593 7.146 o
-4 -5 -1 13328.900 13172.400 122.984 15.735 o
-4 -4 -15 900.162 1022.400 201.983 63.817 o
-4 -4 -14 673.556 207.329 134.741 139.146 o
-4 -4 -13 1545.170 1534.500 102.821 134.462 o
-4 -4 -12 712.635 746.256 96.058 208.673 o
-4 -4 -11 2732.440 2892.030 99.197 91.299 o
-4 -4 -10 10972.500 11173.200 179.640 18.043 o
-4 -4 -9 11260.100 11159.300 191.144 17.270 o
-4 -4 -8 2306.540 2499.370 71.300 123.556 o
-4 -4 -7 3011.490 3048.350 83.466 92.693 o
-4 -4 -6 29864.800 28856.700 331.638 4.147 o
-4 -4 -5 36709.100 35617.900 408.159 2.893 o
-4 -4 -4 11263.700 10437.200 142.681 19.518 o
-4 -4 -3 9358.250 9200.940 114.216 25.266 o
-4 -4 -2 10428.700 10011.700 100.796 22.754 o
-4 -4 -1 40398.100 39328.900 399.675 2.524 o
-4 -3 -15 1586.610 1396.490 180.846 68.422 o
-4 -3 -14 1669.440 1776.250 139.144 92.819 o
-4 -3 -13 180.776 111.095 109.685 232.393 o
-4 -3 -12 109.848 -41.496 86.295 383.874 o
-4 -3 -11 472.292 534.107 77.966 314.596 o
-4 -3 -10 3039.880 3006.260 82.115 93.185 o
-4 -3 -9 1857.760 1937.100 62.888 159.708 o
-4 -3 -8 4862.930 4941.680 79.942 57.889 o
-4 -3 -7 15877.700 16414.400 205.904 10.906 o
-4 -3 -6 6847.140 6385.450 100.370 38.514 o
-4 -3 -5 30727.400 31058.600 372.008 3.762 o
-4 -3 -4 11998.900 11831.200 146.661 17.463 o
-4 -3 -3 12560.000 12726.400 152.533 16.131 o
-4 -3 -2 42827.000 42385.200 445.227 2.228 o
-4 -3 -1 10092.200 9737.020 92.770 23.979 o
-4 -2 -15 149.135 234.085 162.402 110.667 o
-4 -2 -14 1625.960 1459.690 136.685 98.345 o
-4 -2 -13 679.964 652.318 107.070 185.635 o
-4 -2 -12 1835.120 1918.440 95.990 126.311 o
-4 -2 -11 8385.590 8373.670 148.405 26.458 o
-4 -2 -10 3408.780 3598.040 113.254 70.390 o
-4 -2 -9 944.049 787.683 61.080 291.288 o
-4 -2 -8 32605.400 32303.800 420.973 3.346 o
-4 -2 -7 67541.300 67747.900 830.630 0.912 o
-4 -2 -6 5128.630 5523.840 87.841 52.179 o
-4 -2 -5 5954.570 6232.040 91.819 44.190 o
-4 -2 -4 23616.100 23144.900 264.232 6.111 o
-4 -2 -3 33254.200 32120.200 522.095 2.988 o
-4 -2 -2 51663.100 52071.900 557.188 1.559 o
-4 -2 -1 30241.000 29133.000 336.112 4.063 o
-4 -1 -15 157.186 446.222 165.987 104.122 o
-4 -1 -14 1398.570 1625.750 137.021 100.735 o
-4 -1 -13 1419.210 1287.130 137.201 103.447 o
-4 -1 -12 2820.280 2906.710 114.265 81.912 o
-4 -1 -11 11998.200 11756.000 217.194 15.269 o
-4 -1 -10 5467.230 5705.160 150.310 39.718 o
-4 -1 -9 14712.200 14836.400 208.223 12.093 o
-4 -1 -8 12213.000 12192.600 172.725 16.236 o
-4 -1 -7 1725.840 1717.000 48.921 189.304 o
-4 -1 -6 25923.600 25054.400 258.758 5.422 o
-4 -1 -5 49365.800 49449.400 521.487 1.709 o
-4 -1 -4 7016.140 6697.510 86.225 38.358 o
-4 -1 -3 5640.720 5302.610 70.597 51.679 o
-4 -1 -2 9997.170 9258.820 115.776 23.774 o
-4 -1 -1 8967.140 9471.830 109.702 26.070 o
-3 -35 -2 2639.600 2344.190 178.133 57.711 o
-3 -35 -1 4172.900 4183.950 182.892 42.670 o
-3 -34 -4 1766.270 1641.640 238.707 43.254 o
-3 -34 -3 299.115 -22.161 144.793 136.578 o
-3 -34 -2 6735.660 6775.400 228.872 24.980 o
-3 -34 -1 4160.450 4321.100 201.815 38.535 o
-3 -33 -5 2589.110 2492.380 264.953 33.397 o
-3 -33 -4 4597.340 4272.310 193.647 38.591 o
-3 -33 -3 1202.910 1387.510 128.157 116.581 o
-3 -33 -2 3444.010 3100.000 154.413 57.736 o
-3 -33 -1 1277.120 1015.380 127.880 119.743 o
-3 -32 -6 547.646 797.607 189.128 75.614 o
-3 -32 -5 756.634 1024.300 149.284 106.682 o
-3 -32 -4 1127.130 1159.940 124.326 126.291 o
-3 -32 -3 12263.100 12163.200 232.048 14.372 o
-3 -32 -2 2919.870 2933.510 145.589 66.175 o
-3 -32 -1 860.037 974.191 127.516 132.589 o
-3 -31 -7 9439.620 9361.540 377.612 12.127 o
-3 -31 -6 3075.890 2826.670 156.521 60.925 o
-3 -31 -5 12366.800 12472.000 289.609 12.429 o
-3 -31 -4 4422.100 4204.240 145.907 49.755 o
-3 -31 -3 103.056 230.081 106.122 248.584 o
-3 -31 -2 752.900 640.474 111.227 172.484 o
-3 -31 -1 3690.660 4055.030 128.381 60.297 o
-3 -30 -8 7170.800 6885.900 310.189 17.914 o
-3 -30 -7 3151.260 2604.550 182.112 52.174 o
-3 -30 -6 8989.330 8933.760 266.630 17.606 o
-3 -30 -5 5629.740 5790.820 152.373 38.547 o
-3 -30 -4 907.309 1074.860 102.627 171.163 o
-3 -30 -3 6945.880 6984.870 168.929 30.135 o
-3 -30 -2 2091.110 1943.170 101.064 114.002 o
-3 -30 -1 594.267 382.008 101.288 216.410 o
-3 -29 -8 3461.660 3517.990 185.282 47.037 o
-3 -29 -7 16343.700 15591.000 262.648 9.936 o
-3 -29 -6 1269.250 1136.890 110.355 141.175 o
-3 -29 -5 995.575 1135.750 106.523 158.259 o
-3 -29 -4 13083.900 13274.700 198.774 14.148 o
-3 -29 -3 586.211 408.021 93.903 240.485 o
-3 -29 -2 3430.810 3673.690 113.547 69.612 o
-3 -29 -1 193.097 226.061 90.851 314.371 o
-3 -28 -9 14362.900 13661.300 338.891 9.826 o
-3 -28 -8 1617.790 1950.830 163.410 75.526 o
-3 -28 -7 2386.060 2229.590 135.882 80.967 o
-3 -28 -6 11377.500 10940.100 197.201 17.035 o
-3 -28 -5 12940.800 13096.000 217.860 13.834 o
-3 -28 -4 3317.370 3747.070 114.302 70.196 o
-3 -28 -3 6915.040 6442.090 136.155 34.465 o
-3 -28 -2 4444.240 4583.250 116.313 55.283 o
-3 -28 -1 2236.530 2192.050 98.285 109.504 o
-3 -27 -9 3066.830 3230.930 179.763 51.570 o
-3 -27 -8 9076.520 8854.250 244.540 18.771 o
-3 -27 -7 16878.600 16206.500 243.839 9.831 o
-3 -27 -6 862.260 718.835 97.907 194.422 o
-3 -27 -5 8779.860 9142.880 209.959 21.000 o
-3 -27 -4 9778.030 10147.100 171.895 20.770 o
-3 -27 -3 8800.880 8473.190 146.657 25.524 o
-3 -27 -2 5304.380 5035.600 117.050 47.759 o
-3 -27 -1 5773.900 6195.900 124.772 40.978 o
-3 -26 -10 1131.750 1268.070 164.370 84.743 o
-3 -26 -9 3249.030 3083.060 173.302 52.948 o
-3 -26 -8 7101.250 7108.630 201.287 26.487 o
-3 -26 -7 965.249 743.029 100.696 181.009 o
-3 -26 -6 5117.490 5121.080 139.799 44.510 o
-3 -26 -5 12694.500 12844.300 176.305 15.301 o
-3 -26 -4 205.697 298.783 75.567 411.715 o
-3 -26 -3 8682.150 8347.870 145.741 25.986 o
-3 -26 -2 832.807 893.774 77.743 244.668 o
-3 -26 -1 1533.700 1573.240 80.178 163.979 o
-3 -25 -10 4336.310 4326.030 178.115 42.651 o
-3 -25 -9 170.249 189.060 139.866 146.870 o
-3 -25 -8 1172.970 1444.970 105.351 146.285 o
-3 -25 -7 1059.170 1014.890 107.194 156.955 o
-3 -25 -6 534.579 540.248 87.437 263.192 o
-3 -25 -5 8260.080 8221.090 151.565 26.709 o
-3 -25 -4 8252.460 8091.210 140.806 27.643 o
-3 -25 -3 4490.020 4431.210 122.576 54.048 o
-3 -25 -2 7323.190 7306.180 146.091 30.795 o
-3 -25 -1 6037.220 6146.030 130.412 39.150 o
-3 -24 -11 3232.740 3003.570 217.628 40.946 o
-3 -24 -10 661.196 453.913 133.832 137.118 o
-3 -24 -9 9146.030 9554.020 270.843 16.905 o
-3 -24 -8 2350.740 2438.000 123.046 87.671 o
-3 -24 -7 2622.340 2634.380 106.273 91.573 o
-3 -24 -6 8376.320 8449.570 150.393 26.258 o
-3 -24 -5 2312.700 2218.770 102.383 104.356 o
-3 -24 -4 5117.240 5697.350 117.165 46.884 o
-3 -24 -3 3217.780 3263.930 87.961 85.215 o
-3 -24 -2 3844.960 3888.210 90.327 71.260 o
-3 -24 -1 927.943 889.276 66.992 267.300 o
-3 -23 -11 8384.600 8182.360 217.716 21.850 o
-3 -23 -10 174.465 391.023 109.992 220.290 o
-3 -23 -9 153.894 75.635 94.592 310.088 o
-3 -23 -8 2238.890 2308.770 121.754 91.390 o
-3 -23 -7 11824.800 11557.900 190.798 16.426 o
-3 -23 -6 1606.720 1928.930 95.579 134.056 o
-3 -23 -5 257.903 265.297 71.935 432.695 o
-3 -23 -4 6669.280 6886.780 154.241 32.615 o
-3 -23 -3 13673.200 13760.500 146.236 14.623 o
-3 -23 -2 654.951 477.139 67.543 339.956 o
-3 -23 -1 1645.600 1713.520 69.562 168.795 o
-3 -22 -12 6217.920 6572.040 268.366 22.403 o
-3 -22 -11 282.623 512.783 128.777 159.251 o
-3 -22 -10 2059.330 2000.210 115.480 102.197 o
-3 -22 -9 5130.280 4838.230 125.602 47.848 o
-3 -22 -8 7017.320 7037.950 202.802 26.601 o
-3 -22 -7 4272.390 3924.780 121.335 57.988 o
-3 -22 -6 1304.840 1466.190 86.283 169.383 o
-3 -22 -5 2893.420 2928.370 87.055 94.338 o
-3 -22 -4 4924.200 4865.700 112.524 51.592 o
-3 -22 -3 2573.110 2652.790 72.943 112.553 o
-3 -22 -2 9042.680 9149.960 113.968 26.059 o
-3 -22 -1 5824.860 6249.900 102.443 43.546 o
-3 -21 -12 1122.930 866.624 167.972 84.633 o
-3 -21 -11 366.853 406.434 119.702 178.772 o
-3 -21 -10 12671.900 12975.800 254.242 13.072 o
-3 -21 -9 1418.800 1277.770 120.748 120.904 o
-3 -21 -8 10002.000 10696.800 167.666 20.201 o
-3 -21 -7 12860.200 12614.900 181.489 15.111 o
-3 -21 -6 10119.300 10288.200 180.081 19.766 o
-3 -21 -5 2829.930 2732.200 83.209 99.621 o
-3 -21 -4 3637.440 3572.820 81.964 78.691 o
-3 -21 -3 15705.300 16132.900 192.168 11.315 o
-3 -21 -2 1719.950 1843.840 63.966 168.124 o
-3 -21 -1 11363.700 11769.600 165.810 17.682 o
-3 -20 -12 8465.880 7542.930 411.180 11.802 o
-3 -20 -11 49.758 49.264 137.566 158.771 o
-3 -20 -10 6973.220 7026.900 202.754 26.712 o
-3 -20 -9 6875.850 7494.630 179.256 28.639 o
-3 -20 -8 11266.300 11516.900 175.218 17.630 o
-3 -20 -7 3482.700 3505.620 105.080 73.062 o
-3 -20 -6 40183.800 40503.300 410.040 2.484 o
-3 -20 -5 41214.700 41202.900 485.137 2.281 o
-3 -20 -4 1589.720 1578.580 63.192 184.718 o
-3 -20 -3 33640.500 33967.800 386.323 3.273 o
-3 -20 -2 3880.270 3973.270 88.288 70.928 o
-3 -20 -1 5371.110 5495.670 90.958 50.107 o
-3 -19 -12 1157.850 1453.030 135.830 108.496 o
-3 -19 -11 3647.920 3761.290 149.352 55.423 o
-3 -19 -10 8278.790 8544.990 158.225 25.834 o
-3 -19 -9 3282.460 3340.670 106.288 76.167 o
-3 -19 -8 10523.500 11336.400 170.296 18.887 o
-3 -19 -7 27977.000 29067.900 269.470 4.642 o
-3 -19 -6 240.482 310.317 59.689 557.793 o
-3 -19 -5 9537.970 9651.760 134.955 23.422 o
-3 -19 -4 28421.900 28334.000 295.031 4.531 o
-3 -19 -3 17444.400 17742.800 194.098 9.859 o
-3 -19 -2 3242.810 3389.050 72.823 89.797 o
-3 -19 -1 6826.320 6686.010 110.393 36.984 o
-3 -18 -13 1118.020 1007.160 160.492 89.849 o
-3 -18 -12 179.256 146.129 125.520 180.336 o
-3 -18 -11 6163.260 6174.860 143.702 36.858 o
-3 -18 -10 1930.470 1875.960 97.228 122.850 o
-3 -18 -9 22556.200 22797.600 244.280 6.558 o
-3 -18 -8 619.258 629.033 84.353 260.171 o
-3 -18 -7 1397.490 1338.240 69.166 196.557 o
-3 -18 -6 14498.000 14251.600 157.242 13.463 o
-3 -18 -5 12228.500 12269.900 161.900 16.493 o
-3 -18 -4 6013.050 6246.890 114.195 41.116 o
-3 -18 -3 5502.110 5892.100 109.418 45.335 o
-3 -18 -2 6026.720 6084.960 104.530 42.660 o
-3 -18 -1 1635.380 1577.790 51.542 197.518 o
-3 -17 -13 691.024 608.398 147.622 114.388 o
-3 -17 -12 302.958 302.777 133.431 152.908 o
-3 -17 -11 7819.640 7671.990 151.710 28.452 o
-3 -17 -10 3424.760 3568.090 109.428 71.784 o
-3 -17 -9 5548.860 5543.440 121.299 44.236 o
-3 -17 -8 13138.600 13304.500 185.357 14.430 o
-3 -17 -7 21516.100 22123.100 258.803 6.833 o
-3 -17 -6 4992.000 5126.780 101.342 52.310 o
-3 -17 -5 3475.670 3824.430 88.147 77.110 o
-3 -17 -4 26750.500 27214.900 292.723 4.903 o
-3 -17 -3 695.766 841.723 50.669 374.581 o
-3 -17 -2 6438.130 6764.350 107.503 38.754 o
-3 -17 -1 2291.090 2497.620 64.029 129.223 o
-3 -16 -13 1670.190 1930.730 173.726 69.166 o
-3 -16 -12 3895.760 4042.560 136.674 56.263 o
-3 -16 -11 5481.910 5226.180 145.941 41.412 o
-3 -16 -10 4495.300 4463.550 121.351 54.178 o
-3 -16 -9 25693.400 25884.200 297.370 5.188 o
-3 -16 -8 10302.000 10922.600 166.178 19.656 o
-3 -16 -7 1342.330 1457.840 75.502 185.337 o
-3 -16 -6 17684.400 17391.100 223.190 9.458 o
-3 -16 -5 13944.400 13790.100 180.390 13.643 o
-3 -16 -4 9966.240 10257.700 125.801 22.446 o
-3 -16 -3 19914.900 20113.200 195.950 8.221 o
-3 -16 -2 7400.400 6861.250 93.578 35.822 o
-3 -16 -1 749.412 776.067 39.633 420.186 o
-3 -15 -13 371.006 148.478 132.384 155.420 o
-3 -15 -12 19.311 79.426 106.844 261.679 o
-3 -15 -11 3156.020 2906.300 106.857 80.619 o
-3 -15 -10 12897.600 13023.600 244.021 13.176 o
-3 -15 -9 832.640 1056.110 76.951 238.745 o
-3 -15 -8 9319.740 9326.290 118.500 25.007 o
-3 -15 -7 12663.600 12946.600 185.223 15.039 o
-3 -15 -6 5778.920 6344.110 111.986 42.309 o
-3 -15 -5 28888.800 28311.200 326.988 4.336 o
-3 -15 -4 6200.330 6166.700 105.593 41.456 o
-3 -15 -3 3211.820 3622.840 64.674 91.209 o
-3 -15 -2 7057.440 6756.190 82.137 38.376 o
-3 -15 -1 17428.800 17300.800 172.540 10.244 o
-3 -14 -14 271.611 290.064 172.215 96.609 o
-3 -14 -13 6878.480 7287.150 217.926 25.235 o
-3 -14 -12 1154.200 1236.320 123.002 126.120 o
-3 -14 -11 3536.130 3761.070 111.178 68.802 o
-3 -14 -10 2112.370 2272.960 92.876 115.937 o
-3 -14 -9 359.748 312.876 62.768 473.508 o
-3 -14 -8 8012.950 8227.260 131.682 28.731 o
-3 -14 -7 5771.950 5824.400 105.434 44.588 o
-3 -14 -6 2638.110 2608.810 63.619 116.832 o
-3 -14 -5 2911.190 2873.160 62.983 106.393 o
-3 -14 -4 16353.900 17182.400 168.392 10.944 o
-3 -14 -3 14559.300 14442.100 160.394 13.277 o
-3 -14 -2 32100.700 32800.600 326.896 3.653 o
-3 -14 -1 149.522 182.900 29.376 1509.660 o
-3 -13 -14 1599.910 2140.090 182.906 64.128 o
-3 -13 -13 4511.060 4711.990 203.503 36.329 o
-3 -13 -12 5692.020 5696.020 166.565 36.414 o
-3 -13 -11 8742.480 8937.420 200.601 21.793 o
-3 -13 -10 3495.870 3559.810 108.035 71.505 o
-3 -13 -9 2835.990 2844.500 83.526 98.145 o
-3 -13 -8 15626.400 15369.400 236.653 10.824 o
-3 -13 -7 15340.400 15138.600 204.123 11.656 o
-3 -13 -6 294.935 395.330 43.299 714.871 o
-3 -13 -5 19344.200 19361.600 227.210 8.291 o
-3 -13 -4 49032.700 48454.900 458.512 1.801 o
-3 -13 -3 12003.600 12357.400 106.781 18.165 o
-3 -13 -2 30115.800 29413.900 270.953 4.286 o
-3 -13 -1 1143.540 1054.810 35.300 311.407 o
-3 -12 -14 1192.890 1161.680 165.524 83.758 o
-3 -12 -13 4448.530 4646.080 159.491 45.315 o
-3 -12 -12 1529.400 1453.480 105.689 132.862 o
-3 -12 -11 6771.020 7014.260 153.828 32.142 o
-3 -12 -10 11072.200 10944.900 185.509 17.836 o
-3 -12 -9 12175.500 11869.100 196.004 15.728 o
-3 -12 -8 2294.740 2228.440 67.242 131.429 o
-3 -12 -7 3069.780 2786.010 66.854 101.903 o
-3 -12 -6 35516.300 35452.900 423.251 2.957 o
-3 -12 -5 8187.360 7914.600 104.335 30.529 o
-3 -12 -4 13551.900 13331.200 131.042 15.259 o
-3 -12 -3 4983.730 4923.630 76.062 57.584 o
-3 -12 -2 47004.800 49099.500 450.656 1.876 o
-3 -12 -1 53178.500 54899.300 502.138 1.517 o
-3 -11 -14 7243.460 7244.190 248.005 22.098 o
-3 -11 -13 3386.790 3411.570 138.623 62.377 o
-3 -11 -12 8968.230 8712.060 170.784 23.445 o
-3 -11 -11 2505.960 2561.720 95.127 101.353 o
-3 -11 -10 6088.340 5988.260 143.547 37.537 o
-3 -11 -9 7245.050 7286.610 133.405 32.212 o
-3 -11 -8 483.919 437.394 49.584 516.778 o
-3 -11 -7 1618.910 1633.720 55.340 191.671 o
-3 -11 -6 10751.200 10751.300 126.208 20.648 o
-3 -11 -5 7096.930 7292.040 112.809 34.551 o
-3 -11 -4 16362.900 16347.400 168.688 11.190 o
-3 -11 -3 19009.000 18016.100 178.738 9.206 o
-3 -11 -2 21051.800 20734.700 204.166 7.625 o
-3 -11 -1 36265.700 35297.200 325.065 3.122 o
-3 -10 -14 3236.100 2901.420 210.348 42.921 o
-3 -10 -13 1767.770 2002.230 137.697 90.489 o
-3 -10 -12 8730.030 8923.590 175.989 23.369 o
-3 -10 -11 4105.880 4215.420 111.960 60.682 o
-3 -10 -10 10602.400 10577.000 176.846 19.029 o
-3 -10 -9 6634.810 6843.380 120.855 36.371 o
-3 -10 -8 8172.740 8362.840 126.173 28.504 o
-3 -10 -7 7773.140 7879.990 151.284 28.338 o
-3 -10 -6 10550.200 10790.800 115.459 21.324 o
-3 -10 -5 14625.500 14085.900 178.716 13.014 o
-3 -10 -4 17154.700 17225.800 196.246 10.114 o
-3 -10 -3 30837.300 30389.300 321.715 3.958 o
-3 -10 -2 3294.320 3240.410 61.647 94.392 o
-3 -10 -1 18776.300 18082.000 175.258 9.334 o
-3 -9 -14 4037.650 4023.920 170.279 46.597 o
-3 -9 -13 20.452 70.288 99.379 301.827 o
-3 -9 -12 2863.360 2832.200 104.910 86.573 o
-3 -9 -11 4938.950 4844.680 131.970 47.740 o
-3 -9 -10 9886.040 9652.770 139.287 22.558 o
-3 -9 -9 1079.970 1096.790 61.667 251.880 o
-3 -9 -8 29499.300 28381.300 281.952 4.414 o
-3 -9 -7 45538.000 45977.700 482.216 1.966 o
-3 -9 -6 13432.000 13690.900 155.885 14.679 o
-3 -9 -5 8748.830 9042.750 100.750 27.581 o
-3 -9 -4 18702.200 17758.200 177.660 9.421 o
-3 -9 -3 48681.800 50157.000 509.997 1.732 o
-3 -9 -2 6297.650 6528.570 87.887 42.015 o
-3 -9 -1 11749.600 11893.400 102.994 18.931 o
-3 -8 -14 335.105 455.485 152.873 117.160 o
-3 -8 -13 5066.360 5088.300 132.673 46.177 o
-3 -8 -12 7734.540 7898.340 155.692 28.061 o
-3 -8 -11 1307.400 1375.850 83.093 177.028 o
-3 -8 -10 13513.700 13378.600 169.608 14.439 o
-3 -8 -9 12708.400 12976.100 178.018 15.176 o
-3 -8 -8 2406.040 2702.780 75.118 115.042 o
-3 -8 -7 5091.120 5101.880 110.699 50.021 o
-3 -8 -6 44120.200 44088.200 442.762 2.124 o
-3 -8 -5 57784.000 58319.000 531.209 1.330 o
-3 -8 -4 18530.300 18501.700 197.533 9.119 o
-3 -8 -3 8694.650 8906.170 118.900 26.922 o
-3 -8 -2 13724.200 10979.700 294.089 11.924 o
-3 -8 -1 2613.080 2745.470 45.942 124.717 o
-3 -7 -15 6224.140 6502.260 503.034 9.644 o
-3 -7 -14 130.969 166.371 130.098 170.457 o
-3 -7 -13 333.961 205.108 117.328 192.607 o
-3 -7 -12 880.437 801.326 94.918 197.694 o
-3 -7 -11 9074.600 9453.130 150.300 23.727 o
-3 -7 -10 319.301 287.057 63.287 488.684 o
-3 -7 -9 6565.750 6645.890 120.761 37.047 o
-3 -7 -8 14830.300 14739.500 221.546 11.781 o
-3 -7 -7 17163.600 16585.600 199.616 10.234 o
-3 -7 -6 30303.700 32142.800 296.188 3.997 o
-3 -7 -5 17351.700 17300.300 186.739 10.112 o
-3 -7 -4 57025.600 57155.100 589.046 1.324 o
-3 -7 -3 13331.900 12880.400 135.960 15.617 o
-3 -7 -2 3506.530 3322.700 62.919 89.136 o
-3 -7 -1 15855.500 15637.300 250.715 10.376 o
-3 -6 -15 198.616 358.850 162.856 107.944 o
-3 -6 -14 547.876 224.209 125.804 160.482 o
-3 -6 -13 2521.990 2482.220 105.370 95.348 o
-3 -6 -12 1201.260 1290.080 95.614 163.740 o
-3 -6 -11 1441.220 1519.290 86.644 160.601 o
-3 -6 -10 5629.050 5799.620 133.001 41.414 o
-3 -6 -9 14228.200 14288.600 213.083 12.517 o
-3 -6 -8 18936.400 18927.500 248.377 8.303 o
-3 -6 -7 29484.100 29359.800 315.029 4.226 o
-3 -6 -6 21795.400 21903.800 270.889 6.690 o
-3 -6 -5 21079.800 21663.200 259.720 7.018 o
-3 -6 -4 14218.900 13077.500 143.834 14.480 o
-3 -6 -3 11769.700 12217.700 138.637 17.739 o
-3 -6 -2 17952.400 18340.500 156.757 9.862 o
-3 -6 -1 1607.070 1540.150 30.090 227.196 o
-3 -5 -15 3214.950 2843.540 179.453 51.937 o
-3 -5 -14 47.456 194.205 118.015 209.344 o
-3 -5 -13 896.102 727.038 92.429 205.395 o
-3 -5 -12 6854.160 6711.140 187.910 28.808 o
-3 -5 -11 7340.130 8003.250 138.513 30.390 o
-3 -5 -10 9491.220 9305.400 180.364 21.462 o
-3 -5 -9 11308.300 11879.400 175.268 17.359 o
-3 -5 -8 3261.110 3654.120 89.930 80.735 o
-3 -5 -7 14399.500 14524.300 176.987 13.054 o
-3 -5 -6 13836.000 13079.300 175.300 14.153 o
-3 -5 -5 19975.400 19808.200 197.185 8.245 o
-3 -5 -4 3563.440 3161.060 51.255 93.202 o
-3 -5 -3 600.660 458.447 23.259 657.446 o
-3 -5 -2 19734.700 19952.100 175.875 8.495 o
-3 -5 -1 7390.810 7220.530 76.627 36.369 o
-3 -4 -15 817.256 621.931 163.328 94.654 o
-3 -4 -14 199.015 -12.335 130.555 170.028 o
-3 -4 -13 12342.200 12388.000 178.991 15.811 o
-3 -4 -12 7802.440 7964.880 144.705 28.669 o
-3 -4 -11 7030.580 6908.160 127.291 34.136 o
-3 -4 -10 3387.290 3301.860 85.185 83.321 o
-3 -4 -9 3266.460 3331.710 77.333 88.135 o
-3 -4 -8 8983.910 9327.950 125.234 25.407 o
-3 -4 -7 17831.100 18193.500 188.088 9.625 o
-3 -4 -6 3195.950 3593.370 69.493 90.042 o
-3 -4 -5 1308.640 1472.160 42.524 245.391 o
-3 -4 -4 827.120 1323.780 30.900 358.167 o
-3 -4 -3 1351.050 1054.880 30.222 287.531 o
-3 -4 -2 92153.900 90344.100 899.109 0.560 o
-3 -4 -1 4706.410 5003.230 57.446 62.729 o
-3 -3 -15 10268.500 10342.200 290.488 14.660 o
-3 -3 -14 588.409 496.838 153.558 110.393 o
-3 -3 -13 2961.330 3164.790 127.901 72.078 o
-3 -3 -12 2807.320 2650.700 119.022 81.511 o
-3 -3 -11 18563.100 18703.600 362.551 7.114 o
-3 -3 -10 5670.610 5480.610 106.975 45.906 o
-3 -3 -9 4335.530 4105.700 102.033 61.686 o
-3 -3 -8 11035.300 10462.000 187.097 18.118 o
-3 -3 -7 17155.000 16192.300 187.597 10.509 o
-3 -3 -6 549.349 545.504 33.389 589.817 o
-3 -3 -5 3984.600 3874.790 67.361 75.954 o
-3 -3 -4 21930.300 21287.000 235.784 7.012 o
-3 -3 -3 5350.080 5023.520 92.658 51.619 o
-3 -3 -2 29117.800 30001.000 318.594 4.219 o
-3 -3 -1 31161.600 32491.600 351.516 3.700 o
-3 -2 -15 1256.740 973.178 183.642 71.681 o
-3 -2 -14 532.863 541.634 127.333 151.591 o
-3 -2 -13 13691.200 13412.200 247.211 12.395 o
-3 -2 -12 7700.520 7224.920 177.134 27.176 o
-3 -2 -11 8592.610 8759.790 174.432 23.881 o
-3 -2 -10 8616.120 8988.250 145.933 25.409 o
-3 -2 -9 12829.300 12529.600 189.933 14.950 o
-3 -2 -8 2864.360 2888.750 67.841 105.016 o
-3 -2 -7 908.618 994.936 43.390 339.111 o
-3 -2 -6 31790.900 31389.800 358.032 3.671 o
-3 -2 -5 18233.700 15674.400 197.705 9.938 o
-3 -2 -4 14695.000 13567.600 157.698 13.575 o
-3 -2 -3 19288.800 17913.700 218.060 8.698 o
-3 -2 -2 44787.700 43397.100 479.391 2.060 o
-3 -2 -1 35714.900 35836.000 428.106 2.915 o
-3 -1 -15 3523.160 3698.040 176.619 48.582 o
-3 -1 -14 13057.500 12950.200 283.397 12.019 o
-3 -1 -13 584.691 626.742 104.324 199.435 o
-3 -1 -12 6857.830 6729.190 155.725 32.116 o
-3 -1 -11 2702.470 2904.370 101.552 90.444 o
-3 -1 -10 5011.330 4914.330 121.470 49.127 o
-3 -1 -9 20756.300 21078.900 312.047 6.729 o
-3 -1 -8 17458.100 17481.500 239.876 9.318 o
-3 -1 -7 31095.100 31159.900 349.930 3.788 o
-3 -1 -6 28226.200 29513.500 310.461 4.411 o
-3 -1 -5 6634.170 6742.160 74.032 41.047 o
-3 -1 -4 19194.000 18416.100 211.942 8.698 o
-3 -1 -3 6307.120 6285.540 76.762 43.706 o
-3 -1 -2 56678.000 54050.400 949.743 1.098 o
-3 -1 -1 13992.200 15184.600 146.492 13.693 o
-2 -35 -3 4957.320 4400.700 273.396 25.542 o
-2 -35 -2 1031.390 943.094 156.330 95.348 o
-2 -35 -1 7114.470 6353.850 246.191 23.137 o
-2 -34 -4 304.794 221.027 194.361 76.919 o
-2 -34 -3 3044.490 2836.570 156.969 60.969 o
-2 -34 -2 5982.560 6328.630 185.405 31.928 o
-2 -34 -1 5528.540 5563.670 175.170 35.977 o
-2 -33 -5 1135.950 1098.130 164.653 85.578 o
-2 -33 -4 1689.870 1512.290 159.427 79.751 o
-2 -33 -3 2407.160 2504.680 133.576 80.165 o
-2 -33 -2 4860.740 5118.150 167.194 40.749 o
-2 -33 -1 112.307 156.943 127.223 178.963 o
-2 -32 -6 246.184 170.388 148.967 128.630 o
-2 -32 -5 6494.690 6485.470 183.854 30.461 o
-2 -32 -4 1407.350 1455.530 130.300 108.721 o
-2 -32 -3 842.039 840.815 119.692 147.872 o
-2 -32 -2 1806.240 2010.280 151.553 80.366 o
-2 -32 -1 4538.640 4596.120 149.894 47.034 o
-2 -31 -7 3134.080 2843.030 172.716 54.643 o
-2 -31 -6 9186.110 8911.690 242.477 18.719 o
-2 -31 -5 4096.490 4284.320 148.835 50.809 o
-2 -31 -4 2729.130 2857.580 126.780 77.249 o
-2 -31 -3 10062.900 10145.000 273.772 15.622 o
-2 -31 -2 2367.890 2417.920 116.994 91.354 o
-2 -31 -1 958.745 925.458 111.595 155.547 o
-2 -30 -8 6222.620 5698.000 364.311 15.815 o
-2 -30 -7 20292.400 19749.600 352.661 6.629 o
-2 -30 -6 528.195 773.925 137.886 129.896 o
-2 -30 -5 5478.980 5498.030 147.370 40.580 o
-2 -30 -4 17893.900 17439.100 237.586 9.164 o
-2 -30 -3 449.027 469.219 97.612 237.365 o
-2 -30 -2 1204.310 1218.030 103.467 152.485 o
-2 -30 -1 768.613 671.628 96.638 205.733 o
-2 -29 -8 1809.180 1616.720 152.363 82.320 o
-2 -29 -7 652.986 643.512 129.030 142.305 o
-2 -29 -6 22403.500 22390.300 307.957 6.183 o
-2 -29 -5 4964.160 4832.610 133.127 47.401 o
-2 -29 -4 732.234 998.873 98.466 192.434 o
-2 -29 -3 2067.680 2258.180 100.882 110.773 o
-2 -29 -2 11265.100 11324.000 161.048 18.254 o
-2 -29 -1 3854.920 3793.790 115.489 63.951 o
-2 -28 -9 1829.960 1551.310 166.193 73.725 o
-2 -28 -8 2454.440 2605.860 161.281 65.164 o
-2 -28 -7 13557.400 13317.100 265.565 12.055 o
-2 -28 -6 811.162 872.672 103.755 179.423 o
-2 -28 -5 1229.850 995.160 105.346 153.118 o
-2 -28 -4 24810.700 25546.800 352.382 5.071 o
-2 -28 -3 2924.550 3062.460 112.808 80.033 o
-2 -28 -2 2716.920 2642.790 101.806 92.374 o
-2 -28 -1 1837.290 1800.760 94.651 129.478 o
-2 -27 -10 6.742 -111.425 190.905 83.924 o
-2 -27 -9 15450.100 15160.900 332.508 9.185 o
-2 -27 -8 4283.710 4538.140 153.311 47.864 o
-2 -27 -7 1694.380 1865.230 116.642 110.778 o
-2 -27 -6 9351.050 9331.710 180.530 21.661 o
-2 -27 -5 4068.980 4174.990 141.742 53.166 o
-2 -27 -4 1639.090 1903.750 92.866 136.415 o
-2 -27 -3 344.592 328.686 83.481 323.666 o
-2 -27 -2 6167.500 6286.160 144.173 36.568 o
-2 -27 -1 2718.840 2604.040 100.994 93.156 o
-2 -26 -10 2181.310 2167.320 175.004 63.114 o
-2 -26 -9 744.713 683.457 147.702 112.290 o
-2 -26 -8 1972.800 2289.820 125.580 93.490 o
-2 -26 -7 7230.940 7699.060 191.249 26.475 o
-2 -26 -6 665.240 753.440 97.602 207.687 o
-2 -26 -5 3740.400 3661.930 135.850 59.224 o
-2 -26 -4 6320.340 6361.580 124.017 38.275 o
-2 -26 -3 1763.760 1961.930 89.263 134.893 o
-2 -26 -2 2219.290 2068.910 87.898 119.886 o
-2 -26 -1 4643.890 4482.170 119.596 53.432 o
-2 -25 -10 2920.930 2700.650 151.151 64.931 o
-2 -25 -9 1397.620 1138.180 122.152 121.729 o
-2 -25 -8 3490.180 3558.450 150.798 56.864 o
-2 -25 -7 1623.270 1699.270 103.659 128.246 o
-2 -25 -6 174.445 70.811 91.279 327.594 o
-2 -25 -5 1276.970 1487.160 92.741 160.014 o
-2 -25 -4 841.982 1039.400 91.061 201.423 o
-2 -25 -3 16646.100 15973.600 182.293 10.940 o
-2 -25 -2 5219.200 5299.110 121.441 46.720 o
-2 -25 -1 6294.130 6204.160 108.245 40.603 o
-2 -24 -11 1707.410 1312.210 195.704 60.274 o
-2 -24 -10 6072.760 6174.170 192.796 30.989 o
-2 -24 -9 817.643 894.027 143.016 114.051 o
-2 -24 -8 652.368 541.923 95.344 223.656 o
-2 -24 -7 2800.930 2737.400 110.564 85.375 o
-2 -24 -6 328.326 242.004 82.106 342.688 o
-2 -24 -5 16277.800 16111.900 262.990 9.836 o
-2 -24 -4 1548.190 1518.500 74.975 172.105 o
-2 -24 -3 3128.130 3181.660 91.060 86.020 o
-2 -24 -2 1463.310 1516.930 68.206 187.510 o
-2 -24 -1 9313.280 9885.660 140.904 23.338 o
-2 -23 -11 1838.440 1498.370 135.509 95.190 o
-2 -23 -10 602.535 429.999 134.323 138.555 o
-2 -23 -9 2797.250 3029.560 117.105 79.964 o
-2 -23 -8 3502.240 3506.880 141.745 59.918 o
-2 -23 -7 1325.810 1349.380 90.461 164.580 o
-2 -23 -6 5756.630 5549.790 126.486 42.370 o
-2 -23 -5 7149.790 7329.440 137.786 32.045 o
-2 -23 -4 8203.660 8542.150 145.585 26.880 o
-2 -23 -3 7948.390 7754.390 115.670 30.730 o
-2 -23 -2 419.415 332.062 57.854 492.182 o
-2 -23 -1 3347.230 3514.020 82.142 83.438 o
-2 -22 -12 4784.380 5139.240 272.518 25.317 o
-2 -22 -11 1084.360 1214.690 146.168 101.827 o
-2 -22 -10 6371.820 6359.940 175.997 31.881 o
-2 -22 -9 303.214 214.666 118.803 189.986 o
-2 -22 -8 9974.000 10016.800 192.891 19.560 o
-2 -22 -7 4045.950 3994.930 105.093 64.177 o
-2 -22 -6 237.946 350.195 76.239 391.270 o
-2 -22 -5 3594.480 3683.140 96.644 73.568 o
-2 -22 -4 202.050 131.775 57.020 673.116 o
-2 -22 -3 18250.100 18331.700 144.228 9.829 o
-2 -22 -2 7924.600 8111.380 120.686 29.917 o
-2 -22 -1 18007.400 17726.800 236.890 9.060 o
-2 -21 -12 7770.690 7305.010 278.045 19.177 o
-2 -21 -11 3168.260 3415.560 147.746 60.987 o
-2 -21 -10 4124.110 4161.240 163.970 47.291 o
-2 -21 -9 5149.390 4854.540 131.876 46.515 o
-2 -21 -8 3924.910 4014.630 110.755 63.633 o
-2 -21 -7 5821.540 5476.060 114.502 43.984 o
-2 -21 -6 8577.900 8740.180 136.289 26.371 o
-2 -21 -5 4861.890 5134.120 131.453 47.444 o
-2 -21 -4 2975.930 3010.340 78.843 95.934 o
-2 -21 -3 23457.000 23808.000 257.423 6.113 o
-2 -21 -2 18934.300 19931.500 214.081 8.473 o
-2 -21 -1 7721.880 7925.300 130.569 30.039 o
-2 -20 -12 2858.390 2989.660 173.668 55.657 o
-2 -20 -11 4717.730 4780.120 152.659 45.004 o
-2 -20 -10 5923.320 5749.100 139.939 39.203 o
-2 -20 -9 699.577 660.553 111.649 173.779 o
-2 -20 -8 11546.300 11718.600 169.115 17.379 o
-2 -20 -7 9704.940 9283.240 144.330 22.994 o
-2 -20 -6 1499.430 1528.110 71.853 179.274 o
-2 -20 -5 9349.630 9267.700 142.376 23.795 o
-2 -20 -4 50548.100 52165.100 543.350 1.604 o
-2 -20 -3 3714.830 3896.550 83.227 74.997 o
-2 -20 -2 10936.300 11001.500 122.209 20.288 o
-2 -20 -1 5479.660 5898.730 125.573 43.019 o
-2 -19 -13 3417.620 3622.540 287.657 26.958 o
-2 -19 -12 138.880 275.666 133.915 158.840 o
-2 -19 -11 1026.300 782.939 132.296 123.890 o
-2 -19 -10 775.390 665.265 99.576 197.818 o
-2 -19 -9 29216.700 28709.400 360.300 4.131 o
-2 -19 -8 11592.000 10970.800 195.657 16.834 o
-2 -19 -7 5991.660 6398.210 118.913 40.267 o
-2 -19 -6 17127.300 17172.200 220.478 9.814 o
-2 -19 -5 6831.140 7306.580 147.716 32.124 o
-2 -19 -4 1412.680 1435.480 59.100 209.025 o
-2 -19 -3 6981.410 6977.930 100.300 36.704 o
-2 -19 -2 11821.500 12002.400 146.300 17.587 o
-2 -19 -1 2020.290 2165.290 60.646 148.880 o
-2 -18 -13 653.351 654.381 163.321 96.977 o
-2 -18 -12 3382.760 3519.580 153.607 56.897 o
-2 -18 -11 14071.100 13816.800 282.653 11.187 o
-2 -18 -10 661.998 512.715 88.381 247.229 o
-2 -18 -9 6530.530 6174.560 137.342 36.230 o
-2 -18 -8 2688.430 2771.240 107.042 88.821 o
-2 -18 -7 8563.330 8518.500 139.947 26.434 o
-2 -18 -6 2367.420 2239.910 72.263 125.039 o
-2 -18 -5 6677.420 6995.640 111.146 36.886 o
-2 -18 -4 17419.900 17481.800 210.988 9.722 o
-2 -18 -3 2899.170 3028.520 67.536 102.715 o
-2 -18 -2 5964.010 6167.340 103.898 42.850 o
-2 -18 -1 6993.730 7218.200 122.625 34.163 o
-2 -17 -13 1868.070 2622.080 197.553 54.300 o
-2 -17 -12 393.620 586.433 118.970 174.542 o
-2 -17 -11 8532.640 8257.080 191.030 23.356 o
-2 -17 -10 6324.420 6527.940 145.823 35.335 o
-2 -17 -9 8810.800 8726.270 150.344 25.001 o
-2 -17 -8 3466.860 3698.940 100.609 73.681 o
-2 -17 -7 6471.320 6655.810 111.416 38.429 o
-2 -17 -6 18043.700 18050.300 236.985 8.974 o
-2 -17 -5 10911.600 11607.100 149.673 18.938 o
-2 -17 -4 3915.270 3898.830 88.626 70.856 o
-2 -17 -3 200.078 146.933 38.847 1080.480 o
-2 -17 -2 4120.270 4039.300 85.644 68.482 o
-2 -17 -1 1263.010 1204.830 45.160 261.649 o
-2 -16 -13 817.397 1083.810 186.669 73.345 o
-2 -16 -12 2721.270 2561.300 164.288 61.807 o
-2 -16 -11 2843.530 2964.170 113.776 81.407 o
-2 -16 -10 7433.780 7530.980 188.614 26.445 o
-2 -16 -9 9378.960 9329.730 163.170 22.567 o
-2 -16 -8 18453.100 19254.400 227.879 8.658 o
-2 -16 -7 18031.400 17859.200 215.440 9.287 o
-2 -16 -6 334.463 394.113 49.729 603.196 o
-2 -16 -5 11487.200 11731.600 173.766 17.286 o
-2 -16 -4 21497.300 22423.600 268.341 6.721 o
-2 -16 -3 20665.300 20658.100 218.015 7.660 o
-2 -16 -2 12535.900 12796.200 155.024 16.055 o
-2 -16 -1 2345.100 2429.310 60.826 130.741 o
-2 -15 -13 14476.300 14052.100 354.726 9.368 o
-2 -15 -12 4638.630 4369.800 135.777 50.224 o
-2 -15 -11 5421.010 5293.270 137.001 43.014 o
-2 -15 -10 8630.330 8416.440 154.646 25.447 o
-2 -15 -9 2892.530 2976.810 108.157 83.358 o
-2 -15 -8 2981.090 3000.760 79.288 95.716 o
-2 -15 -7 3669.280 3594.960 82.870 77.783 o
-2 -15 -6 11868.900 12058.300 201.387 15.768 o
-2 -15 -5 8298.960 8135.940 139.409 27.569 o
-2 -15 -4 4262.760 4547.270 90.445 63.106 o
-2 -15 -3 30570.300 30459.800 306.699 4.037 o
-2 -15 -2 17407.300 18228.300 167.312 10.066 o
-2 -15 -1 11971.600 12422.800 111.726 18.048 o
-2 -14 -14 2305.330 2347.000 200.036 51.693 o
-2 -14 -13 1829.780 1882.100 143.337 86.411 o
-2 -14 -12 350.091 504.561 104.129 221.820 o
-2 -14 -11 10027.000 9959.170 219.167 18.265 o
-2 -14 -10 18234.000 18429.700 226.260 8.941 o
-2 -14 -9 874.438 966.359 73.085 250.394 o
-2 -14 -8 3213.490 3271.480 79.190 88.850 o
-2 -14 -7 3591.510 3429.610 79.273 81.332 o
-2 -14 -6 1260.060 1433.680 54.681 230.612 o
-2 -14 -5 27800.400 28157.300 298.810 4.626 o
-2 -14 -4 1571.090 1429.740 46.406 215.646 o
-2 -14 -3 1389.320 1311.830 39.563 250.207 o
-2 -14 -2 8638.610 8646.910 106.501 28.086 o
-2 -14 -1 38140.200 39214.000 339.032 2.786 o
-2 -13 -14 3550.890 3871.310 182.928 46.318 o
-2 -13 -13 9407.500 9262.500 230.375 18.892 o
-2 -13 -12 4568.880 4628.050 131.855 50.717 o
-2 -13 -11 1056.730 1255.150 97.682 168.208 o
-2 -13 -10 1041.880 1202.180 83.959 197.758 o
-2 -13 -9 473.169 497.810 64.794 394.370 o
-2 -13 -8 9229.480 9099.550 111.394 25.810 o
-2 -13 -7 1488.090 1535.400 59.353 198.891 o
-2 -13 -6 8688.580 8602.600 99.099 28.408 o
-2 -13 -5 12272.600 12838.500 172.410 15.839 o
-2 -13 -4 7320.840 7771.930 86.476 34.893 o
-2 -13 -3 25491.800 25415.500 203.186 5.736 o
-2 -13 -2 12293.000 11927.700 100.805 18.198 o
-2 -13 -1 1295.200 1242.650 35.811 272.636 o
-2 -12 -14 7882.510 8082.910 262.683 19.598 o
-2 -12 -13 2638.040 2580.490 135.090 75.939 o
-2 -12 -12 12843.600 12699.300 247.923 13.227 o
-2 -12 -11 2373.390 2524.110 102.861 99.480 o
-2 -12 -10 6649.330 7037.240 138.399 34.117 o
-2 -12 -9 1814.040 1952.880 74.822 148.626 o
-2 -12 -8 11219.600 12080.200 166.205 17.655 o
-2 -12 -7 5416.340 5485.560 104.878 47.719 o
-2 -12 -6 1675.750 1480.140 51.515 198.181 o
-2 -12 -5 8027.030 8020.830 101.259 31.054 o
-2 -12 -4 2722.360 3149.350 58.189 109.894 o
-2 -12 -3 21417.000 21846.900 178.911 7.491 o
-2 -12 -2 31975.500 33068.400 304.342 3.715 o
-2 -12 -1 23970.600 25072.400 177.037 6.263 o
-2 -11 -14 6551.870 6757.980 182.799 30.059 o
-2 -11 -13 533.393 852.444 113.122 174.120 o
-2 -11 -12 16941.100 16192.800 293.622 9.030 o
-2 -11 -11 3272.680 3218.890 100.493 79.498 o
-2 -11 -10 7489.890 7601.320 163.933 28.364 o
-2 -11 -9 4925.590 4827.610 117.560 50.721 o
-2 -11 -8 2269.130 2356.020 69.750 128.226 o
-2 -11 -7 2441.970 2469.430 64.950 124.077 o
-2 -11 -6 3255.150 3548.500 75.060 87.323 o
-2 -11 -5 17431.900 17868.000 182.759 9.970 o
-2 -11 -4 2236.090 1938.380 44.359 157.162 o
-2 -11 -3 5573.130 5285.870 83.010 50.589 o
-2 -11 -2 2126.190 1901.040 40.033 167.036 o
-2 -11 -1 113345.000 114587.000 980.669 0.385 o
-2 -10 -14 14689.600 14730.600 344.764 9.345 o
-2 -10 -13 3864.990 3676.110 174.750 47.303 o
-2 -10 -12 9340.350 9358.260 177.676 21.814 o
-2 -10 -11 13643.000 13854.600 234.264 12.594 o
-2 -10 -10 7566.490 7776.630 147.540 29.322 o
-2 -10 -9 291.799 253.799 56.201 588.901 o
-2 -10 -8 3426.630 3359.120 75.443 85.877 o
-2 -10 -7 969.468 787.462 47.328 334.412 o
-2 -10 -6 19691.100 20237.500 226.849 8.001 o
-2 -10 -5 1547.860 1374.820 43.797 223.950 o
-2 -10 -4 28204.600 29213.100 272.522 4.583 o
-2 -10 -3 56186.300 57153.100 535.471 1.381 o
-2 -10 -2 4553.610 4207.220 58.293 68.571 o
-2 -10 -1 23128.500 22693.200 199.538 6.699 o
-2 -9 -14 812.190 921.513 128.885 132.850 o
-2 -9 -13 7052.220 6998.430 148.658 31.824 o
-2 -9 -12 6366.000 6195.840 137.436 36.811 o
-2 -9 -11 1728.430 1851.070 87.269 140.398 o
-2 -9 -10 2978.790 3181.460 83.881 91.868 o
-2 -9 -9 28598.800 28603.000 349.800 4.263 o
-2 -9 -8 11307.600 11502.000 158.015 18.188 o
-2 -9 -7 16627.200 16603.000 211.229 10.351 o
-2 -9 -6 11782.200 11413.800 146.554 18.003 o
-2 -9 -5 14470.900 14173.600 156.832 13.525 o
-2 -9 -4 25277.200 27642.700 283.907 5.171 o
-2 -9 -3 1271.490 1316.860 34.373 273.268 o
-2 -9 -2 23646.500 23021.900 215.537 6.419 o
-2 -9 -1 27553.000 28681.500 255.060 4.799 o
-2 -8 -14 73.893 -86.816 124.029 194.519 o
-2 -8 -13 4679.500 4522.030 126.205 51.583 o
-2 -8 -12 246.357 129.925 89.630 320.789 o
-2 -8 -11 13646.900 13624.300 246.800 12.364 o
-2 -8 -10 2508.660 2432.700 79.063 113.331 o
-2 -8 -9 3729.210 3794.600 87.231 74.233 o
-2 -8 -8 4367.240 4673.000 109.098 57.217 o
-2 -8 -7 15952.700 15992.100 193.460 11.185 o
-2 -8 -6 35624.000 36902.300 377.677 2.996 o
-2 -8 -5 11301.300 11487.100 124.502 19.292 o
-2 -8 -4 73021.900 73750.300 690.160 0.859 o
-2 -8 -3 1025.320 864.479 27.850 373.430 o
-2 -8 -2 7917.780 7910.090 78.906 32.942 o
-2 -8 -1 4166.030 4218.760 42.431 76.203 o
-2 -7 -15 458.602 919.683 197.634 70.164 o
-2 -7 -14 666.506 1010.170 129.950 134.375 o
-2 -7 -13 8952.440 9010.800 191.626 21.941 o
-2 -7 -12 3982.370 3755.250 117.188 62.414 o
-2 -7 -11 934.673 971.069 83.862 214.774 o
-2 -7 -10 2347.450 2270.120 79.705 119.660 o
-2 -7 -9 8819.180 9010.220 171.761 23.385 o
-2 -7 -8 1690.850 1757.170 58.502 178.889 o
-2 -7 -7 12690.600 12451.900 160.505 15.929 o
-2 -7 -6 14433.600 14472.800 172.178 13.141 o
-2 -7 -5 34804.600 36826.100 348.791 3.133 o
-2 -7 -4 2670.600 2986.760 60.743 112.196 o
-2 -7 -3 2237.350 2196.350 42.496 152.148 o
-2 -7 -2 31176.000 31126.800 226.388 4.146 o
-2 -7 -1 17043.100 17139.300 134.334 10.942 o
-2 -6 -15 2525.930 2594.330 175.584 58.627 o
-2 -6 -14 1347.660 1697.140 147.783 91.744 o
-2 -6 -13 587.135 918.254 98.523 204.862 o
-2 -6 -12 863.664 928.958 90.534 205.138 o
-2 -6 -11 1742.210 1784.900 88.332 139.933 o
-2 -6 -10 2051.350 2117.790 75.811 135.000 o
-2 -6 -9 5598.300 5565.610 127.002 43.042 o
-2 -6 -8 18923.900 18023.400 237.635 8.606 o
-2 -6 -7 31147.200 31056.200 335.769 3.835 o
-2 -6 -6 8497.020 8714.030 123.844 27.362 o
-2 -6 -5 459.326 477.280 28.466 719.975 o
-2 -6 -4 14128.100 14829.300 167.236 13.339 o
-2 -6 -3 26755.200 27090.200 290.314 4.924 o
-2 -6 -2 11045.800 11747.200 153.087 18.541 o
-2 -6 -1 10378.500 10906.600 158.865 19.858 o
-2 -5 -15 1051.640 1201.360 258.482 40.658 o
-2 -5 -14 580.182 492.236 123.140 158.942 o
-2 -5 -13 4227.360 4202.070 124.030 56.533 o
-2 -5 -12 1016.160 980.986 87.220 200.148 o
-2 -5 -11 6654.840 5957.660 165.598 32.848 o
-2 -5 -10 12681.300 12850.500 176.866 15.296 o
-2 -5 -9 1940.640 1763.000 64.426 158.297 o
-2 -5 -8 1291.460 1431.530 56.879 223.607 o
-2 -5 -7 8376.000 8725.210 112.686 28.328 o
-2 -5 -6 19977.300 19807.200 240.588 7.844 o
-2 -5 -5 24082.700 23552.600 242.646 6.083 o
-2 -5 -4 11389.300 11044.800 127.402 19.398 o
-2 -5 -3 7346.840 7463.600 80.351 35.808 o
-2 -5 -2 36041.400 37000.000 539.310 2.588 o
-2 -5 -1 18224.700 19010.200 153.892 9.581 o
-2 -4 -15 10583.600 10548.600 314.123 13.433 o
-2 -4 -14 183.382 343.111 107.429 230.777 o
-2 -4 -13 1071.820 857.611 95.953 181.548 o
-2 -4 -12 2795.150 2930.680 112.700 82.893 o
-2 -4 -11 23270.900 23034.100 348.928 5.617 o
-2 -4 -10 7182.320 7320.710 137.215 32.009 o
-2 -4 -9 4973.540 4991.910 106.906 51.890 o
-2 -4 -8 8160.230 7445.330 126.806 29.755 o
-2 -4 -7 7000.270 6991.180 123.074 34.502 o
-2 -4 -6 25158.500 24773.500 272.288 5.537 o
-2 -4 -5 12033.500 11257.700 139.562 17.991 o
-2 -4 -4 7717.220 7067.560 91.452 34.381 o
-2 -4 -3 7421.290 7282.140 98.112 34.588 o
-2 -4 -2 31246.000 29849.200 572.134 3.059 o
-2 -4 -1 20626.700 20933.100 216.953 7.635 o
-2 -3 -15 1468.310 1507.440 169.458 75.791 o
-2 -3 -14 881.383 824.656 115.136 154.618 o
-2 -3 -13 34482.200 34417.000 473.871 2.947 o
-2 -3 -12 8916.390 8741.580 172.309 23.420 o
-2 -3 -11 3245.750 3385.060 100.089 78.874 o
-2 -3 -10 945.008 902.164 61.055 282.965 o
-2 -3 -9 25564.000 25876.600 341.053 4.977 o
-2 -3 -8 14924.200 15063.300 219.536 11.657 o
-2 -3 -7 33844.100 33257.300 396.480 3.259 o
-2 -3 -6 4015.190 4387.750 80.774 68.942 o
-2 -3 -5 1266.790 1315.890 34.869 273.140 o
-2 -3 -4 15107.900 13865.100 159.683 13.082 o
-2 -3 -3 9307.160 8707.000 95.769 26.826 o
-2 -3 -2 199205.000 175753.000 4088.670 0.086 o
-2 -3 -1 28089.800 29596.700 301.757 4.459 o
-2 -2 -15 6571.850 6346.460 197.537 28.939 o
-2 -2 -14 1965.660 1856.640 134.822 90.582 o
-2 -2 -13 472.497 578.566 91.330 252.838 o
-2 -2 -12 4811.140 4526.360 121.582 51.677 o
-2 -2 -11 20102.600 20610.300 323.013 6.864 o
-2 -2 -10 2338.600 2100.370 71.943 128.512 o
-2 -2 -9 22724.300 23301.600 294.499 6.099 o
-2 -2 -8 3196.780 3367.340 91.348 83.318 o
-2 -2 -7 44054.700 44971.400 506.186 2.022 o
-2 -2 -6 17965.600 18869.700 214.467 9.100 o
-2 -2 -5 34999.100 34055.000 357.326 3.219 o
-2 -2 -4 18540.700 18043.600 187.885 9.323 o
-2 -2 -3 11877.700 11536.100 138.101 18.055 o
-2 -2 -2 59782.600 59377.800 888.342 1.050 o
-2 -2 -1 50967.200 45683.400 434.230 1.803 o
-2 -1 -15 969.822 713.356 159.173 95.505 o
-2 -1 -14 7937.830 8009.890 244.041 20.833 o
-2 -1 -13 1241.100 1130.730 93.316 169.690 o
-2 -1 -12 10156.500 10267.600 197.976 18.903 o
-2 -1 -11 7653.670 7559.140 151.172 29.078 o
-2 -1 -10 1415.820 1217.840 61.390 213.736 o
-2 -1 -9 16994.700 16835.600 205.721 10.173 o
-2 -1 -8 6489.570 6484.030 144.139 35.018 o
-2 -1 -7 7461.600 7402.500 96.344 34.351 o
-2 -1 -6 20305.900 20478.400 240.389 7.617 o
-2 -1 -5 30748.100 30875.600 281.951 4.065 o
-2 -1 -4 27808.100 28871.600 296.250 4.579 o
-2 -1 -3 7859.500 7620.600 90.160 32.971 o
-2 -1 -2 22401.400 21148.100 199.226 7.149 o
-2 -1 -1 110224.000 101378.000 845.273 0.439 o
-1 -35 -3 1057.300 1106.800 188.149 70.126 o
-1 -35 -2 5038.350 4897.350 193.930 35.882 o
-1 -35 -1 7606.470 7655.410 208.062 24.349 o
-1 -34 -4 852.718 712.603 185.590 75.520 o
-1 -34 -3 6942.020 6715.410 252.615 22.578 o
-1 -34 -2 1800.850 1943.830 187.170 61.317 o
-1 -34 -1 727.996 897.500 146.711 111.539 o
-1 -33 -5 1657.210 1385.810 192.857 61.712 o
-1 -33 -4 5137.910 4723.560 237.436 29.384 o
-1 -33 -3 257.384 194.154 138.520 146.407 o
-1 -33 -2 6100.280 6109.050 176.534 33.010 o
-1 -33 -1 6970.690 7409.180 248.524 22.344 o
-1 -32 -6 2325.840 2164.220 161.986 68.023 o
-1 -32 -5 367.481 20.698 143.419 136.627 o
-1 -32 -4 1608.070 1675.140 122.985 108.975 o
-1 -32 -3 638.717 542.197 110.722 182.368 o
-1 -32 -2 8850.720 8688.420 187.556 22.636 o
-1 -32 -1 9142.180 9326.530 196.263 21.113 o
-1 -31 -7 5107.370 5455.350 248.210 27.306 o
-1 -31 -6 256.520 28.729 138.028 150.339 o
-1 -31 -5 636.267 478.576 124.881 153.482 o
-1 -31 -4 4949.010 5422.950 146.711 43.350 o
-1 -31 -3 1723.550 1724.690 123.780 105.169 o
-1 -31 -2 6413.290 6039.290 142.701 36.286 o
-1 -31 -1 2409.380 2287.670 111.052 95.646 o
-1 -30 -8 382.537 -10.275 167.197 102.676 o
-1 -30 -7 632.289 437.559 150.071 114.460 o
-1 -30 -6 793.882 674.237 135.242 127.708 o
-1 -30 -5 2959.130 3048.300 134.488 69.900 o
-1 -30 -4 3033.760 2996.820 127.666 72.312 o
-1 -30 -3 391.583 275.942 91.738 278.097 o
-1 -30 -2 3214.260 3247.100 122.014 71.205 o
-1 -30 -1 281.172 282.665 92.918 286.305 o
-1 -29 -9 248.388 -73.225 262.832 43.558 o
-1 -29 -8 1203.080 1123.940 166.478 83.147 o
-1 -29 -7 447.015 407.997 129.397 153.471 o
-1 -29 -6 1149.750 999.319 117.914 136.850 o
-1 -29 -5 1417.720 1090.700 106.442 142.144 o
-1 -29 -4 5580.480 5492.690 175.543 35.865 o
-1 -29 -3 4159.160 4082.650 118.454 59.045 o
-1 -29 -2 1292.370 1299.770 94.499 160.951 o
-1 -29 -1 6632.090 6775.730 145.198 33.896 o
-1 -28 -9 1036.750 1102.310 155.981 94.311 o
-1 -28 -8 405.461 286.928 139.095 138.918 o
-1 -28 -7 205.705 522.814 117.417 190.533 o
-1 -28 -6 1447.060 1663.790 114.025 122.433 o
-1 -28 -5 6290.300 6077.960 149.488 35.830 o
-1 -28 -4 403.137 610.326 89.144 267.578 o
-1 -28 -3 4660.220 4831.590 145.221 46.695 o
-1 -28 -2 15094.800 15426.300 215.079 11.520 o
-1 -28 -1 6463.760 6311.810 165.177 32.941 o
-1 -27 -10 1783.070 1809.000 180.676 65.091 o
-1 -27 -9 235.555 180.475 137.883 148.662 o
-1 -27 -8 1336.580 1553.880 137.939 101.760 o
-1 -27 -7 1240.700 1132.210 113.885 137.252 o
-1 -27 -6 605.056 460.054 105.408 200.703 o
-1 -27 -5 2322.090 2476.320 108.875 96.963 o
-1 -27 -4 6748.600 6910.520 159.843 31.739 o
-1 -27 -3 615.472 715.334 83.638 258.325 o
-1 -27 -2 2441.140 2643.840 104.224 96.067 o
-1 -27 -1 587.168 698.997 85.183 256.774 o
-1 -26 -10 707.933 390.925 159.528 102.238 o
-1 -26 -9 9912.070 9691.770 199.325 19.556 o
-1 -26 -8 1116.090 1281.510 121.731 128.216 o
-1 -26 -7 687.230 800.196 105.712 184.123 o
-1 -26 -6 3435.850 3315.040 118.343 69.778 o
-1 -26 -5 847.750 895.364 90.500 207.655 o
-1 -26 -4 1899.230 1923.000 86.286 133.888 o
-1 -26 -3 4023.670 4165.270 104.388 63.756 o
-1 -26 -2 4670.320 5030.910 125.844 50.051 o
-1 -26 -1 7399.120 7613.380 140.657 30.604 o
-1 -25 -11 7934.830 7563.700 337.486 15.378 o
-1 -25 -10 4841.800 5044.890 226.796 31.184 o
-1 -25 -9 28.884 -154.104 115.645 226.563 o
-1 -25 -8 2028.200 1871.420 118.974 101.384 o
-1 -25 -7 3800.240 3546.210 118.620 64.694 o
-1 -25 -6 339.873 182.234 90.520 297.368 o
-1 -25 -5 4335.410 4443.370 158.599 46.638 o
-1 -25 -4 15618.200 15886.500 206.702 11.204 o
-1 -25 -3 3688.600 3990.230 98.697 69.922 o
-1 -25 -2 4926.670 5335.010 137.400 45.393 o
-1 -25 -1 12221.000 11832.900 180.376 16.189 o
-1 -24 -11 5122.440 5099.050 176.599 38.089 o
-1 -24 -10 1026.020 886.010 145.978 106.319 o
-1 -24 -9 4532.230 4440.820 136.313 50.554 o
-1 -24 -8 4356.830 4236.140 123.964 55.425 o
-1 -24 -7 1710.960 1818.140 104.580 122.820 o
-1 -24 -6 1054.130 1056.390 88.846 191.416 o
-1 -24 -5 5072.250 4947.020 155.565 42.298 o
-1 -24 -4 358.800 366.689 65.759 438.611 o
-1 -24 -3 12123.900 12970.500 134.875 16.942 o
-1 -24 -2 7621.420 8290.220 128.464 29.964 o
-1 -24 -1 8999.840 9289.110 177.130 22.485 o
-1 -23 -11 346.886 465.455 132.462 150.141 o
-1 -23 -10 4852.470 5109.790 173.014 39.754 o
-1 -23 -9 925.668 997.708 114.142 151.008 o
-1 -23 -8 4972.420 5002.980 143.413 44.907 o
-1 -23 -7 1706.170 1558.210 95.613 137.036 o
-1 -23 -6 1032.130 909.438 85.805 204.864 o
-1 -23 -5 5780.630 5892.420 126.025 41.489 o
-1 -23 -4 682.831 649.328 64.422 333.317 o
-1 -23 -3 2053.870 2209.920 73.359 135.411 o
-1 -23 -2 18759.800 19896.900 241.561 8.261 o
-1 -23 -1 26531.200 26982.100 273.008 5.052 o
-1 -22 -12 2754.110 2907.070 206.255 46.088 o
-1 -22 -11 5071.420 5048.240 150.393 43.002 o
-1 -22 -10 1429.210 1343.230 116.464 124.705 o
-1 -22 -9 6100.480 5734.930 140.734 38.378 o
-1 -22 -8 11.573 66.562 89.914 368.861 o
-1 -22 -7 4241.680 4146.550 130.786 54.889 o
-1 -22 -6 448.654 354.632 76.434 343.224 o
-1 -22 -5 13188.200 12718.700 166.440 15.133 o
-1 -22 -4 11238.300 10949.200 176.792 17.958 o
-1 -22 -3 21599.800 22303.600 250.120 6.851 o
-1 -22 -2 30245.000 30395.100 306.989 4.083 o
-1 -22 -1 9475.850 9525.910 125.476 24.128 o
-1 -21 -12 5459.090 5124.690 241.298 27.768 o
-1 -21 -11 18741.900 18786.500 327.094 7.475 o
-1 -21 -10 2667.980 2408.920 116.952 86.523 o
-1 -21 -9 101.284 75.659 94.448 319.221 o
-1 -21 -8 1798.700 1663.910 97.499 129.954 o
-1 -21 -7 1480.340 1346.980 85.548 164.547 o
-1 -21 -6 300.721 329.019 69.490 431.179 o
-1 -21 -5 2831.860 2910.900 84.694 96.939 o
-1 -21 -4 24703.600 25676.700 269.305 5.554 o
-1 -21 -3 12803.600 13500.900 156.977 15.359 o
-1 -21 -2 34588.900 35775.400 385.072 3.112 o
-1 -21 -1 18718.000 19076.000 191.376 8.972 o
-1 -20 -12 401.010 337.421 151.043 119.547 o
-1 -20 -11 2198.910 2696.910 135.151 80.766 o
-1 -20 -10 550.961 402.120 102.734 214.512 o
-1 -20 -9 10985.700 11436.100 191.604 17.412 o
-1 -20 -8 651.982 577.292 81.517 270.155 o
-1 -20 -7 6756.820 6934.950 137.146 34.054 o
-1 -20 -6 9591.650 9857.410 154.181 22.188 o
-1 -20 -5 3425.120 3669.250 88.575 78.750 o
-1 -20 -4 2045.840 2058.740 78.593 133.727 o
-1 -20 -3 8068.770 8068.430 139.288 28.247 o
-1 -20 -2 26575.600 26187.700 365.524 4.657 o
-1 -20 -1 434.913 603.465 49.232 504.980 o
-1 -19 -13 1441.740 1814.670 219.603 50.490 o
-1 -19 -12 1465.070 1487.290 164.790 78.991 o
-1 -19 -11 5815.670 5816.390 161.117 36.515 o
-1 -19 -10 3975.190 3901.320 121.833 60.454 o
-1 -19 -9 1246.770 1385.570 95.862 158.909 o
-1 -19 -8 9852.530 9225.170 160.284 21.979 o
-1 -19 -7 6392.250 6806.870 154.195 33.643 o
-1 -19 -6 4842.260 4976.390 99.841 54.246 o
-1 -19 -5 8833.460 8649.040 149.806 25.068 o
-1 -19 -4 27049.800 26857.400 341.723 4.652 o
-1 -19 -3 18695.800 18798.600 203.392 8.918 o
-1 -19 -2 7746.420 8183.940 145.204 28.491 o
-1 -19 -1 5851.790 6265.200 97.586 43.968 o
-1 -18 -13 9847.710 9830.360 313.809 14.216 o
-1 -18 -12 9201.650 8813.340 196.514 21.407 o
-1 -18 -11 603.209 603.966 109.643 185.256 o
-1 -18 -10 7107.370 7208.360 141.335 32.036 o
-1 -18 -9 1557.830 1710.670 104.300 129.408 o
-1 -18 -8 5134.500 5362.330 121.696 46.985 o
-1 -18 -7 5373.830 5244.470 115.003 47.068 o
-1 -18 -6 6379.630 6354.860 106.687 40.029 o
-1 -18 -5 26455.200 27424.900 361.446 4.602 o
-1 -18 -4 2931.230 2925.540 66.507 103.644 o
-1 -18 -3 16322.900 16985.200 201.028 10.564 o
-1 -18 -2 25146.400 26041.400 278.419 5.378 o
-1 -18 -1 43671.100 44959.400 357.371 2.230 o
-1 -17 -13 120.275 364.536 183.779 86.868 o
-1 -17 -12 7284.860 7159.440 250.160 21.930 o
-1 -17 -11 4935.870 4985.500 138.507 46.086 o
-1 -17 -10 2213.630 2454.460 114.522 95.412 o
-1 -17 -9 6860.390 6982.920 142.686 33.054 o
-1 -17 -8 2293.290 2493.520 102.394 101.786 o
-1 -17 -7 8434.090 8517.670 120.535 27.975 o
-1 -17 -6 449.010 413.311 55.409 486.130 o
-1 -17 -5 12523.600 12303.400 153.557 16.378 o
-1 -17 -4 2937.290 3320.370 77.550 94.226 o
-1 -17 -3 22512.500 22383.000 207.914 6.871 o
-1 -17 -2 3836.100 3816.140 68.890 78.050 o
-1 -17 -1 18520.900 18783.100 171.319 9.327 o
-1 -16 -13 446.818 585.885 140.722 130.508 o
-1 -16 -12 7.070 79.222 112.313 238.461 o
-1 -16 -11 4214.020 4305.770 146.789 50.514 o
-1 -16 -10 4998.440 5097.890 130.796 46.884 o
-1 -16 -9 2557.340 2729.580 90.137 101.541 o
-1 -16 -8 2777.400 2777.900 81.043 101.438 o
-1 -16 -7 7799.650 7910.220 128.280 30.012 o
-1 -16 -6 6834.950 6914.630 136.755 33.860 o
-1 -16 -5 6309.380 6516.650 121.769 38.258 o
-1 -16 -4 8633.850 8569.900 120.499 27.399 o
-1 -16 -3 4901.060 5228.910 74.793 57.191 o
-1 -16 -2 7421.730 7608.330 92.550 34.395 o
-1 -16 -1 1332.610 1170.520 41.139 262.863 o
-1 -15 -13 1320.690 1513.680 141.892 98.797 o
-1 -15 -12 7018.440 7014.200 179.589 28.851 o
-1 -15 -11 4830.730 5047.150 139.108 46.380 o
-1 -15 -10 2759.850 2605.030 107.100 88.985 o
-1 -15 -9 1878.910 2014.750 81.695 137.606 o
-1 -15 -8 5264.880 5031.140 107.760 49.638 o
-1 -15 -7 9571.210 9684.400 161.053 22.029 o
-1 -15 -6 4656.040 4662.240 85.790 59.861 o
-1 -15 -5 6517.910 6653.050 88.854 40.521 o
-1 -15 -4 15459.100 16776.500 194.076 11.237 o
-1 -15 -3 42648.900 44508.300 398.113 2.246 o
-1 -15 -2 23055.700 24575.200 231.513 6.276 o
-1 -15 -1 34500.900 34920.600 297.269 3.364 o
-1 -14 -14 5774.350 6304.110 201.786 30.515 o
-1 -14 -13 7712.020 7653.000 247.332 21.168 o
-1 -14 -12 10246.900 10187.100 241.998 16.831 o
-1 -14 -11 2278.320 2394.610 115.044 94.420 o
-1 -14 -10 5947.890 5983.470 158.830 36.039 o
-1 -14 -9 5468.690 5787.350 115.770 44.861 o
-1 -14 -8 4694.240 4471.610 93.705 58.737 o
-1 -14 -7 2749.270 2723.820 72.820 107.214 o
-1 -14 -6 4174.600 3980.390 92.483 66.400 o
-1 -14 -5 10975.900 11504.000 120.299 19.896 o
-1 -14 -4 18670.000 18508.100 195.331 9.079 o
-1 -14 -3 33072.200 34036.900 283.931 3.590 o
-1 -14 -2 12168.000 12121.100 130.237 17.526 o
-1 -14 -1 77483.800 78067.900 697.588 0.780 o
-1 -13 -14 5986.540 6520.500 233.853 26.152 o
-1 -13 -13 4747.180 4753.970 198.013 36.420 o
-1 -13 -12 4978.830 5018.300 136.206 46.197 o
-1 -13 -11 457.167 471.789 95.886 242.752 o
-1 -13 -10 10295.700 10758.600 161.395 19.987 o
-1 -13 -9 2597.510 2809.690 84.086 103.377 o
-1 -13 -8 3029.200 2784.690 72.617 100.140 o
-1 -13 -7 3167.690 3060.530 75.150 93.328 o
-1 -13 -6 3968.630 3969.200 94.928 68.019 o
-1 -13 -5 16947.500 17385.900 214.687 9.931 o
-1 -13 -4 6134.010 6368.730 88.335 43.239 o
-1 -13 -3 21621.900 23021.300 231.866 6.876 o
-1 -13 -2 42410.500 44013.800 394.540 2.277 o
-1 -13 -1 10431.800 9445.730 97.722 23.409 o
-1 -12 -14 5698.050 6035.870 212.479 29.734 o
-1 -12 -13 6054.760 6352.000 191.227 30.985 o
-1 -12 -12 6983.140 6762.170 182.771 28.942 o
-1 -12 -11 3583.040 3380.640 113.816 69.452 o
-1 -12 -10 1294.730 1336.410 84.647 176.227 o
-1 -12 -9 1159.510 1247.220 69.969 217.130 o
-1 -12 -8 9562.690 9695.760 153.038 22.441 o
-1 -12 -7 1666.280 1585.420 58.840 185.461 o
-1 -12 -6 3194.670 3165.080 65.089 95.879 o
-1 -12 -5 10541.300 10133.900 115.634 21.909 o
-1 -12 -4 13437.500 13350.500 125.510 15.476 o
-1 -12 -3 17137.900 16638.100 150.751 10.855 o
-1 -12 -2 15104.200 14783.500 155.280 12.803 o
-1 -12 -1 9940.960 10375.500 112.005 22.935 o
-1 -11 -14 3686.190 3902.020 193.410 43.048 o
-1 -11 -13 5191.010 5451.610 148.372 41.832 o
-1 -11 -12 6472.970 6942.710 169.209 31.501 o
-1 -11 -11 20466.700 20864.200 304.458 6.909 o
-1 -11 -10 2067.690 2123.580 79.762 130.778 o
-1 -11 -9 1728.000 1801.740 68.040 163.971 o
-1 -11 -8 3521.000 3602.650 85.300 79.014 o
-1 -11 -7 4030.130 4294.530 83.011 68.739 o
-1 -11 -6 1005.860 995.791 45.622 313.865 o
-1 -11 -5 6927.550 6945.100 98.973 37.110 o
-1 -11 -4 34515.300 33728.700 285.107 3.450 o
-1 -11 -3 18408.300 17693.600 170.474 9.655 o
-1 -11 -2 36621.600 38443.800 356.045 2.900 o
-1 -11 -1 65259.500 66015.300 503.204 1.104 o
-1 -10 -14 2642.800 2959.690 152.309 65.802 o
-1 -10 -13 15371.000 15618.500 288.724 9.931 o
-1 -10 -12 4134.100 4350.850 130.058 55.117 o
-1 -10 -11 8171.880 7988.720 146.653 27.552 o
-1 -10 -10 1619.150 1611.100 82.520 155.757 o
-1 -10 -9 15291.200 15551.900 230.969 11.068 o
-1 -10 -8 4565.550 4795.800 89.613 59.297 o
-1 -10 -7 8055.690 8058.310 139.918 28.248 o
-1 -10 -6 7587.140 8219.600 114.992 31.172 o
-1 -10 -5 14522.600 14316.400 162.773 13.313 o
-1 -10 -4 9333.510 10299.000 124.032 23.699 o
-1 -10 -3 8480.240 8511.910 91.463 29.518 o
-1 -10 -2 30651.800 28484.100 216.307 4.441 o
-1 -10 -1 42468.300 43583.500 345.824 2.349 o
-1 -9 -14 282.385 391.450 130.840 157.359 o
-1 -9 -13 3787.740 3991.860 122.069 61.642 o
-1 -9 -12 1731.790 1733.490 100.606 127.645 o
-1 -9 -11 11588.900 11747.500 284.448 13.359 o
-1 -9 -10 17.408 54.717 60.382 792.984 o
-1 -9 -9 6688.880 6694.280 111.228 37.447 o
-1 -9 -8 58.167 138.922 45.320 1147.510 o
-1 -9 -7 1766.130 1692.750 62.167 171.901 o
-1 -9 -6 20726.700 20451.600 248.949 7.406 o
-1 -9 -5 8240.610 8162.710 124.252 28.719 o
-1 -9 -4 34869.000 35394.500 346.178 3.196 o
-1 -9 -3 1354.320 1223.150 32.793 270.955 o
-1 -9 -2 3777.140 3576.660 42.363 87.497 o
-1 -9 -1 7522.200 7343.940 56.053 36.760 o
-1 -8 -15 862.736 990.855 260.344 41.000 o
-1 -8 -14 6836.280 6904.040 210.681 26.377 o
-1 -8 -13 5150.180 5278.480 177.551 37.490 o
-1 -8 -12 5165.750 4932.630 127.386 47.030 o
-1 -8 -11 110.262 239.084 74.210 462.615 o
-1 -8 -10 11932.500 11421.100 185.922 16.546 o
-1 -8 -9 9645.650 9482.140 134.049 23.421 o
-1 -8 -8 13812.700 13743.800 162.678 14.159 o
-1 -8 -7 26272.100 26516.700 293.572 5.044 o
-1 -8 -6 5033.130 5716.800 93.972 51.199 o
-1 -8 -5 33667.000 36032.100 394.058 3.158 o
-1 -8 -4 17475.300 17466.700 172.751 10.171 o
-1 -8 -3 17592.600 17834.100 154.440 10.211 o
-1 -8 -2 55859.300 55949.000 473.223 1.446 o
-1 -8 -1 12197.300 12097.900 112.787 17.939 o
-1 -7 -15 6850.990 7680.280 273.053 20.415 o
-1 -7 -14 6927.410 6657.700 209.211 26.586 o
-1 -7 -13 806.638 792.039 101.941 186.087 o
-1 -7 -12 15623.300 15144.100 223.928 11.121 o
-1 -7 -11 13553.600 13808.400 187.866 13.792 o
-1 -7 -10 7311.950 7426.180 131.603 31.939 o
-1 -7 -9 16687.300 16212.500 204.536 10.524 o
-1 -7 -8 12624.200 12360.200 157.427 16.132 o
-1 -7 -7 7754.140 8208.870 131.736 29.459 o
-1 -7 -6 22666.000 23401.100 296.381 6.088 o
-1 -7 -5 6110.310 6219.210 83.476 44.298 o
-1 -7 -4 26807.700 25937.900 268.178 5.120 o
-1 -7 -3 68022.700 65776.800 591.988 1.022 o
-1 -7 -2 1763.590 1462.520 38.908 207.303 o
-1 -7 -1 29797.300 30819.300 278.495 4.208 o
-1 -6 -15 296.382 62.206 175.294 94.728 o
-1 -6 -14 1238.230 1234.770 121.415 125.733 o
-1 -6 -13 5491.950 5358.020 134.949 42.838 o
-1 -6 -12 4562.830 4412.400 142.809 48.985 o
-1 -6 -11 15544.400 14859.500 227.035 11.195 o
-1 -6 -10 9555.300 9767.770 169.881 21.533 o
-1 -6 -9 407.878 396.279 53.770 521.727 o
-1 -6 -8 11844.400 11208.900 173.492 17.182 o
-1 -6 -7 33152.500 32814.500 366.744 3.429 o
-1 -6 -6 16003.500 15583.300 168.613 11.666 o
-1 -6 -5 63379.500 62057.700 557.211 1.154 o
-1 -6 -4 30057.100 30073.500 296.165 4.165 o
-1 -6 -3 2492.550 2410.670 39.008 138.456 o
-1 -6 -2 95198.700 96187.100 836.329 0.533 o
-1 -6 -1 22171.800 21374.900 186.206 7.272 o
-1 -5 -15 463.674 242.071 160.046 107.476 o
-1 -5 -14 772.138 861.259 122.336 145.599 o
-1 -5 -13 1756.080 1516.110 102.801 127.905 o
-1 -5 -12 14669.800 14115.000 217.030 12.186 o
-1 -5 -11 6848.550 7143.960 181.415 28.936 o
-1 -5 -10 2396.130 2304.840 74.429 121.555 o
-1 -5 -9 16917.300 16873.900 262.280 9.376 o
-1 -5 -8 26478.700 26300.000 419.771 4.379 o
-1 -5 -7 25664.000 26437.400 328.266 4.981 o
-1 -5 -6 20241.100 20545.200 265.424 7.394 o
-1 -5 -5 18955.200 19480.900 196.116 8.735 o
-1 -5 -4 12482.700 12229.900 134.455 16.966 o
-1 -5 -3 38585.700 37439.700 352.389 2.795 o
-1 -5 -2 11562.100 11460.100 93.880 19.753 o
-1 -5 -1 4295.960 3518.330 37.224 80.290 o
-1 -4 -15 43.582 52.499 147.738 138.136 o
-1 -4 -14 5537.320 5645.100 175.514 35.754 o
-1 -4 -13 9657.280 9570.250 181.256 20.939 o
-1 -4 -12 3910.950 4069.190 130.764 57.719 o
-1 -4 -11 4235.260 3991.080 105.336 62.302 o
-1 -4 -10 10891.500 11165.600 161.037 18.859 o
-1 -4 -9 22600.800 22037.200 279.649 6.393 o
-1 -4 -8 11188.800 11504.500 154.688 18.456 o
-1 -4 -7 44810.400 44032.100 507.351 2.008 o
-1 -4 -6 17730.200 18062.400 236.007 9.119 o
-1 -4 -5 17520.600 16085.200 188.314 10.328 o
-1 -4 -4 36736.500 36939.600 352.680 2.957 o
-1 -4 -3 4719.240 4612.550 60.186 64.178 o
-1 -4 -2 27392.800 26215.300 251.146 5.061 o
-1 -4 -1 40809.800 37790.200 303.421 2.699 o
-1 -3 -15 4371.450 3779.100 202.254 38.667 o
-1 -3 -14 9720.350 9673.730 215.319 19.019 o
-1 -3 -13 21.276 -85.444 91.975 357.579 o
-1 -3 -12 13971.800 14141.700 159.800 13.905 o
-1 -3 -11 25015.800 25289.100 349.342 5.075 o
-1 -3 -10 6635.530 6779.710 136.835 34.785 o
-1 -3 -9 15555.400 15759.100 245.975 10.587 o
-1 -3 -8 6595.920 6974.170 117.915 36.572 o
-1 -3 -7 406.243 517.182 38.456 644.154 o
-1 -3 -6 27125.400 26545.800 302.644 4.850 o
-1 -3 -5 33558.700 32482.600 359.955 3.424 o
-1 -3 -4 28852.800 28650.500 310.113 4.384 o
-1 -3 -3 11254.700 10816.100 91.061 20.837 o
-1 -3 -2 22646.100 23457.000 236.342 6.499 o
-1 -3 -1 48020.100 47419.900 1036.910 1.220 o
-1 -2 -15 78.501 106.663 138.707 154.037 o
-1 -2 -14 782.893 672.499 109.986 172.804 o
-1 -2 -13 2587.960 2444.420 108.016 92.846 o
-1 -2 -12 1268.410 1127.450 90.118 173.973 o
-1 -2 -11 1819.810 1613.200 77.663 152.628 o
-1 -2 -10 1870.060 1837.210 68.756 155.273 o
-1 -2 -9 13032.400 12704.800 204.714 14.280 o
-1 -2 -8 10374.600 9674.740 173.792 20.131 o
-1 -2 -7 36940.600 37718.700 377.940 2.860 o
-1 -2 -6 1087.380 1004.880 36.829 322.355 o
-1 -2 -5 1492.230 1408.700 37.637 236.458 o
-1 -2 -4 7101.030 6740.440 86.564 37.865 o
-1 -2 -3 23118.100 22346.800 237.543 6.513 o
-1 -2 -2 108994.000 108719.000 1038.810 0.407 o
-1 -2 -1 44166.900 41650.700 487.386 2.119 o
-1 -1 -15 10352.800 9453.150 341.782 12.906 o
-1 -1 -14 349.433 123.932 115.093 200.741 o
-1 -1 -13 9.583 41.975 95.320 331.590 o
-1 -1 -12 190.534 66.297 82.808 385.672 o
-1 -1 -11 22445.100 21943.000 392.827 5.555 o
-1 -1 -10 1014.590 840.369 62.558 273.020 o
-1 -1 -9 1923.350 2018.990 62.669 154.765 o
-1 -1 -8 1407.250 1335.190 51.697 226.597 o
-1 -1 -7 4374.070 4001.660 85.077 66.043 o
-1 -1 -6 12886.100 13556.200 149.648 15.421 o
-1 -1 -5 21161.000 20498.900 250.258 7.250 o
-1 -1 -4 13540.500 12309.100 200.338 14.130 o
-1 -1 -3 1271.510 1036.100 32.188 297.937 o
-1 -1 -2 26712.500 27692.100 239.891 5.097 o
0 0 2 183258.000 155527.000 1969.370 0.156 o
0 0 3 684.934 288.034 24.737 648.232 o
0 0 4 129505.000 118107.000 1667.470 0.273 o
0 0 5 18073.100 18420.800 345.739 7.503 o
0 0 6 16541.300 15102.100 258.541 10.028 o
0 0 7 2201.530 2859.430 130.540 82.278 o
0 0 8 93.040 73.563 62.055 684.042 o
0 0 9 16603.500 15317.000 280.717 9.573 o
0 0 10 24812.100 25378.800 484.750 4.295 o
0 0 11 71418.700 73839.300 1526.770 0.573 o
0 0 12 862.245 795.040 120.239 147.042 o
0 0 13 644.353 857.354 137.310 126.342 o
0 0 14 137.255 297.725 161.121 111.948 o
0 0 15 29927.300 25383.100 1891.130 0.735 o
0 1 2 517009.000 449081.000 4876.460 0.021 o
0 1 3 482.742 563.890 20.315 729.887 o
0 1 4 66330.900 59094.300 665.988 1.073 o
0 1 5 265.031 299.857 26.155 1131.580 o
0 1 6 251.827 310.034 30.715 1046.800 o
0 1 7 2015.780 2054.130 54.694 156.909 o
0 1 8 358.873 280.794 42.773 716.871 o
0 1 9 7113.790 6592.310 137.042 33.432 o
0 1 10 266.977 285.672 58.627 563.480 o
0 1 11 7092.940 7367.820 137.750 32.167 o
0 1 12 2592.270 2865.080 101.714 92.672 o
0 1 13 70756.400 69268.300 767.578 0.887 o
0 1 14 487.620 899.772 136.261 131.740 o
0 1 15 5908.980 4660.110 311.307 20.311 o
0 2 2 6050.130 4868.190 46.460 52.768 o
0 2 3 5839.340 6490.680 75.742 45.894 o
0 2 4 136.025 252.226 20.961 1792.610 o
0 2 5 8066.000 7999.280 89.482 31.686 o
0 2 6 6656.490 6608.330 85.566 40.270 o
0 2 7 1078.180 1082.020 42.876 301.930 o
0 2 8 1361.680 1391.110 52.886 226.182 o
0 2 9 15636.500 15576.200 206.471 11.291 o
0 2 10 764.278 697.042 63.051 320.199 o
0 2 11 6233.070 6398.150 120.196 39.027 o
0 2 12 5148.440 5177.860 122.954 47.220 o
0 2 13 38.627 263.648 98.829 289.117 o
0 2 14 10926.900 10692.200 211.650 17.119 o
0 2 15 4311.880 3537.410 248.548 31.015 o
0 3 1 134900.000 127069.000 891.619 0.303 o
0 3 2 5571.770 5461.830 86.254 49.551 o
0 3 3 325.934 424.736 18.156 1032.210 o
0 3 4 1023.980 926.789 27.369 367.393 o
0 3 5 34267.100 34544.200 380.571 3.205 o
0 3 6 241.450 102.218 28.500 1372.970 o
0 3 7 1241.940 1354.350 51.812 242.097 o
0 3 8 83.352 107.794 41.824 1270.410 o
0 3 9 15149.000 16053.900 230.630 11.011 o
0 3 10 1958.550 1850.240 68.457 151.225 o
0 3 11 10656.100 11066.200 161.252 19.247 o
0 3 12 5627.500 5851.420 122.493 42.852 o
0 3 13 243.790 -19.193 93.445 308.891 o
0 3 14 9477.540 9747.000 200.460 20.070 o
0 3 15 1061.560 1055.230 148.927 100.980 o
0 4 0 60265.700 61519.500 655.471 1.167 o
0 4 1 22427.300 23099.300 170.410 7.012 o
0 4 2 27447.200 26422.600 426.451 4.210 o
0 4 3 5547.980 5195.170 58.662 54.199 o
0 4 4 63610.900 64288.800 694.741 1.060 o
0 4 5 722.545 1007.760 31.841 425.246 o
0 4 6 3472.190 3695.720 64.777 85.876 o
0 4 7 1257.500 960.702 40.928 288.041 o
0 4 8 42.635 77.350 41.130 1470.370 o
0 4 9 9982.430 10007.000 164.437 20.914 o
0 4 10 1899.270 1980.980 70.502 148.865 o
0 4 11 8610.670 8753.440 169.743 24.157 o
0 4 12 35361.000 35667.500 462.076 2.865 o
0 4 13 304.901 473.774 101.710 235.514 o
0 4 14 16694.000 17145.400 243.804 9.694 o
0 4 15 3611.590 3669.600 222.562 37.388 o
0 5 1 5064.750 4430.720 70.482 59.983 o
0 5 2 71404.400 71391.000 1155.800 0.715 o
0 5 3 2286.810 2236.200 32.281 154.707 o
0 5 4 1526.260 1699.740 35.165 221.841 o
0 5 5 6165.030 7027.300 111.899 38.901 o
0 5 6 10512.500 9973.590 113.086 22.199 o
0 5 7 299.362 322.972 37.591 835.897 o
0 5 8 6094.180 6032.460 101.193 42.858 o
0 5 9 1961.950 1819.250 62.981 157.384 o
0 5 10 4085.550 3543.690 88.655 70.935 o
0 5 11 15220.600 15646.200 298.107 9.819 o
0 5 12 7.106 93.890 89.700 368.602 o
0 5 13 75.335 28.469 90.366 356.129 o
0 5 14 4124.790 4338.240 145.273 51.352 o
0 5 15 186.793 196.104 177.111 93.481 o
0 6 0 79223.300 75423.000 1025.570 0.678 o
0 6 1 64156.700 60438.400 910.781 0.965 o
0 6 2 98.600 161.139 17.694 2601.310 o
0 6 3 7477.040 7081.930 90.413 35.335 o
0 6 4 2672.650 2862.000 50.851 118.715 o
0 6 5 3515.550 3291.180 51.142 92.896 o
0 6 6 7525.080 7558.840 101.197 33.482 o
0 6 7 4931.440 4923.130 73.635 58.442 o
0 6 8 4472.440 4719.460 91.377 60.103 o
0 6 9 4113.840 3991.650 96.067 66.015 o
0 6 10 18549.600 19110.300 276.796 8.084 o
0 6 11 805.889 894.097 80.236 239.847 o
0 6 12 963.445 1009.060 93.743 188.200 o
0 6 13 688.420 486.056 103.533 199.329 o
0 6 14 5057.410 5126.760 143.909 44.057 o
0 6 15 2458.610 2510.100 212.681 46.438 o
0 7 1 111217.000 109533.000 922.603 0.409 o
0 7 2 10756.800 10117.900 89.838 22.377 o
0 7 3 45920.800 46806.600 402.147 2.023 o
0 7 4 41.229 12.703 21.062 4557.880 o
0 7 5 17794.400 18679.900 205.524 9.325 o
0 7 6 738.180 665.294 35.825 460.458 o
0 7 7 1756.140 1829.970 50.625 181.650 o
0 7 8 6618.540 6764.620 127.526 35.879 o
0 7 9 80.284 102.990 49.917 979.423 o
0 7 10 14390.400 15302.800 232.483 11.658 o
0 7 11 11064.900 10695.600 195.025 17.623 o
0 7 12 13896.900 14173.300 184.880 13.427 o
0 7 13 9609.150 9635.090 186.453 20.693 o
0 7 14 7651.230 7152.310 222.291 23.573 o
0 7 15 51.726 10.374 171.883 102.672 o
0 8 0 115604.000 120217.000 1761.690 0.292 o
0 8 1 54931.500 54491.200 476.865 1.491 o
0 8 2 137.763 112.377 17.404 2471.740 o
0 8 3 41163.400 43075.200 408.143 2.353 o
0 8 4 1489.750 1534.410 38.036 229.783 o
0 8 5 1651.520 1450.710 44.315 210.672 o
0 8 6 38.083 200.312 30.503 1918.490 o
0 8 7 1732.730 1594.960 49.314 192.628 o
0 8 8 12819.100 12623.400 173.652 15.358 o
0 8 9 48.292 75.438 52.689 959.949 o
0 8 10 1536.480 1421.740 73.104 178.347 o
0 8 11 3784.570 4133.780 108.354 65.142 o
0 8 12 17303.100 17025.500 260.562 9.198 o
0 8 13 0.123 157.293 99.433 298.229 o
0 8 14 12532.700 11968.100 299.469 12.196 o
0 8 15 236.008 356.182 229.923 55.781 o
0 9 1 1889.620 1792.770 38.631 185.930 o
0 9 2 4867.160 4348.780 54.432 64.906 o
0 9 3 791.890 709.551 26.637 472.938 o
0 9 4 1662.200 1559.740 39.120 211.472 o
0 9 5 109.318 127.038 28.267 1875.810 o
0 9 6 1855.750 1401.250 44.381 196.446 o
0 9 7 3700.610 3988.450 97.050 70.311 o
0 9 8 1874.350 1994.110 60.337 160.077 o
0 9 9 1438.390 1418.170 60.834 204.761 o
0 9 10 737.288 900.827 67.708 289.777 o
0 9 11 3048.310 3228.990 96.995 84.278 o
0 9 12 4120.840 4436.120 142.050 51.865 o
0 9 13 11519.700 11555.600 233.867 15.236 o
0 9 14 2609.010 2219.190 140.962 75.419 o
0 10 0 88714.000 83278.200 937.965 0.599 o
0 10 1 8896.430 8687.980 76.565 28.773 o
0 10 2 412.881 213.780 21.116 1024.110 o
0 10 3 3712.830 3646.220 54.081 85.257 o
0 10 4 41774.800 43273.200 382.023 2.350 o
0 10 5 8907.440 10357.800 128.692 24.287 o
0 10 6 996.489 1526.220 51.660 260.718 o
0 10 7 174.009 240.847 39.194 1033.240 o
0 10 8 803.592 687.778 50.378 368.582 o
0 10 9 10072.000 10507.300 159.722 20.593 o
0 10 10 5817.570 5830.250 110.747 43.597 o
0 10 11 24309.700 24579.900 341.120 5.317 o
0 10 12 2765.730 2644.650 111.606 86.100 o
0 10 13 73.368 197.947 103.601 264.735 o
0 10 14 643.902 816.249 143.350 118.583 o
0 11 1 53195.700 54554.200 452.234 1.559 o
0 11 2 51500.900 50870.200 435.715 1.688 o
0 11 3 28754.800 30187.800 256.641 4.478 o
0 11 4 5685.550 5059.300 76.098 51.531 o
0 11 5 1370.300 1495.340 44.881 233.753 o
0 11 6 12223.300 13580.500 157.533 15.904 o
0 11 7 1356.950 1627.640 57.181 208.930 o
0 11 8 226.728 189.203 52.007 718.032 o
0 11 9 2241.730 2266.030 73.663 127.637 o
0 11 10 5701.710 5750.160 143.761 39.602 o
0 11 11 4021.580 4523.600 115.828 59.044 o
0 11 12 1777.980 1658.070 104.322 123.468 o
0 11 13 52506.500 52856.300 595.635 1.490 o
0 11 14 2163.220 2509.020 184.646 57.848 o
0 12 0 52493.100 48749.200 544.567 1.596 o
0 12 1 1049.460 1184.130 33.287 321.190 o
0 12 2 20955.000 20963.300 168.932 7.877 o
0 12 3 8236.230 9223.800 103.791 28.541 o
0 12 4 1408.940 1208.560 39.884 253.421 o
0 12 5 6514.560 7016.450 89.673 39.603 o
0 12 6 7985.680 7975.070 109.540 30.708 o
0 12 7 24.598 38.575 44.325 1407.470 o
0 12 8 10.105 82.728 46.286 1281.360 o
0 12 9 5670.850 5480.140 108.938 45.616 o
0 12 10 1116.620 1143.200 85.406 191.648 o
0 12 11 9726.120 9300.990 165.946 21.841 o
0 12 12 163.092 153.326 105.010 251.214 o
0 12 13 638.001 987.270 114.762 162.366 o
0 12 14 3286.120 3885.960 176.915 49.287 o
0 13 1 56438.800 57280.400 489.567 1.402 o
0 13 2 163.370 176.808 27.564 1548.120 o
0 13 3 698.522 605.509 31.603 510.177 o
0 13 4 45638.800 48536.900 461.354 1.932 o
0 13 5 3915.290 3998.690 70.371 75.280 o
0 13 6 11116.800 11501.000 164.097 18.224 o
0 13 7 1419.520 1537.120 62.371 199.153 o
0 13 8 7047.200 7137.890 108.841 35.374 o
0 13 9 5800.240 5411.670 106.990 45.362 o
0 13 10 3037.450 3034.560 105.256 82.147 o
0 13 11 1687.950 1887.740 111.017 116.036 o
0 13 12 7355.210 7707.270 168.240 28.194 o
0 13 13 1829.790 2150.080 137.952 88.184 o
0 13 14 3588.900 3821.120 178.989 47.272 o
0 14 0 3019.360 3108.560 65.555 100.003 o
0 14 1 58749.000 60103.700 498.228 1.305 o
0 14 2 11494.000 12671.400 138.183 17.815 o
0 14 3 55156.900 54308.800 486.243 1.480 o
0 14 4 17123.200 16643.000 183.030 10.462 o
0 14 5 1159.920 907.211 44.534 298.575 o
0 14 6 585.841 779.789 49.376 418.966 o
0 14 7 1554.020 1565.540 61.734 189.595 o
0 14 8 1620.920 1692.410 67.769 173.109 o
0 14 9 530.705 495.092 68.615 357.676 o
0 14 10 3370.040 3274.260 102.415 76.997 o
0 14 11 3124.300 3321.050 125.680 70.311 o
0 14 12 20745.700 20593.500 324.063 6.684 o
0 14 13 95.615 314.569 133.566 160.590 o
0 14 14 14198.000 14689.400 307.327 10.343 o
0 15 1 8573.650 7713.650 103.750 29.718 o
0 15 2 2039.610 1778.390 45.326 171.184 o
0 15 3 173.130 183.033 33.873 1260.820 o
0 15 4 12737.900 13954.000 140.613 15.575 o
0 15 5 525.508 351.779 43.907 568.283 o
0 15 6 11252.200 11535.300 171.340 17.773 o
0 15 7 2541.850 2556.290 75.718 112.960 o
0 15 8 7.509 -7.339 57.296 922.440 o
0 15 9 571.037 652.879 69.581 328.996 o
0 15 10 3575.360 3386.270 105.392 72.548 o
0 15 11 3555.490 3614.020 118.372 66.894 o
0 15 12 6371.560 6022.330 145.213 36.165 o
0 15 13 448.389 -68.892 138.601 143.069 o
0 15 14 3897.340 4762.310 987.644 3.020 o
0 16 0 22762.800 22921.000 367.313 5.595 o
0 16 1 1870.560 2213.570 55.904 159.055 o
0 16 2 8516.390 8099.390 103.063 29.369 o
0 16 3 493.103 504.271 38.865 589.537 o
0 16 4 5823.080 5358.550 89.291 47.847 o
0 16 5 11454.500 12138.200 146.275 17.967 o
0 16 6 37.347 67.125 48.288 1145.750 o
0 16 7 3299.430 3224.780 78.588 87.996 o
0 16 8 6152.630 6568.940 116.311 39.467 o
0 16 9 857.025 1017.640 82.951 221.682 o
0 16 10 3666.020 3739.030 116.417 65.790 o
0 16 11 22.075 186.143 97.111 306.619 o
0 16 12 217.570 449.596 129.177 162.456 o
0 16 13 29.537 -157.970 167.063 109.133 o
0 17 1 31555.300 32092.100 251.699 3.966 o
0 17 2 9403.810 9644.990 123.696 24.239 o
0 17 3 47410.600 47943.000 451.828 1.882 o
0 17 4 7748.910 7495.490 103.416 32.660 o
0 17 5 23303.800 23714.000 246.221 6.233 o
0 17 6 11446.100 11051.700 128.838 19.265 o
0 17 7 201.171 152.244 61.327 599.839 o
0 17 8 4887.230 4685.100 126.697 49.596 o
0 17 9 1917.320 2123.620 90.040 126.293 o
0 17 10 8088.670 8485.820 167.554 25.654 o
0 17 11 6021.620 5328.130 155.909 37.396 o
0 17 12 11151.000 11090.900 237.710 15.657 o
0 17 13 13885.300 14785.200 320.962 10.175 o
0 18 0 53621.400 56336.600 639.504 1.379 o
0 18 1 50509.400 52586.500 504.350 1.634 o
0 18 2 22006.100 22242.100 216.981 6.982 o
0 18 3 58958.700 61088.200 609.826 1.224 o
0 18 4 962.995 1033.470 52.783 296.404 o
0 18 5 19340.500 19821.600 262.121 7.845 o
0 18 6 5988.680 6296.300 126.263 39.572 o
0 18 7 45351.900 46202.000 478.074 1.974 o
0 18 8 13903.800 14413.700 198.926 13.020 o
0 18 9 12660.500 12606.600 192.016 15.014 o
0 18 10 19129.500 19739.300 274.779 7.796 o
0 18 11 5740.810 5616.790 149.206 38.916 o
0 18 12 7171.960 6960.850 183.821 28.131 o
0 18 13 1920.890 1614.320 174.957 67.672 o
0 19 1 14727.700 15152.000 197.111 12.191 o
0 19 2 816.500 951.839 47.637 347.668 o
0 19 3 19013.900 18795.500 252.334 8.254 o
0 19 4 6694.710 6764.330 145.064 33.718 o
0 19 5 44793.600 45833.500 485.262 1.998 o
0 19 6 41211.700 41819.200 476.892 2.278 o
0 19 7 726.400 832.416 70.977 283.985 o
0 19 8 18549.100 18446.300 233.132 8.725 o
0 19 9 11882.600 12345.100 231.199 14.648 o
0 19 10 2686.050 2982.820 101.389 90.135 o
0 19 11 4437.350 4415.180 138.241 50.798 o
0 19 12 8421.340 8746.410 222.281 21.062 o
0 19 13 986.189 1224.040 178.295 76.580 o
0 20 0 6212.350 6380.780 179.436 31.911 o
0 20 1 4789.790 5416.640 89.922 54.783 o
0 20 2 2106.550 2331.030 61.936 140.696 o
0 20 3 1966.860 1947.920 63.130 153.940 o
0 20 4 40584.200 40467.000 402.228 2.473 o
0 20 5 1765.230 2043.680 73.730 149.955 o
0 20 6 66.155 127.621 60.406 716.247 o
0 20 7 36314.100 37661.300 466.182 2.718 o
0 20 8 16407.200 16363.400 240.629 10.076 o
0 20 9 5080.230 5457.250 149.608 42.124 o
0 20 10 4721.300 4695.890 132.308 49.437 o
0 20 11 10243.300 10412.900 243.463 16.653 o
0 20 12 616.281 905.865 152.017 107.544 o
0 21 1 607.910 592.670 48.788 445.042 o
0 21 2 67976.200 69160.800 666.909 0.966 o
0 21 3 689.244 574.315 56.879 377.585 o
0 21 4 4360.100 4846.150 107.433 56.954 o
0 21 5 15.863 12.817 59.131 849.645 o
0 21 6 8889.100 9223.650 176.970 22.748 o
0 21 7 4353.880 4453.270 116.729 56.388 o
0 21 8 1338.630 1398.450 99.009 149.838 o
0 21 9 16548.900 16779.400 358.782 8.056 o
0 21 10 3233.460 3512.540 121.040 69.893 o
0 21 11 192.084 112.756 125.983 179.306 o
0 21 12 26.671 138.498 158.725 119.330 o
0 22 0 33658.500 32965.200 429.069 3.197 o
0 22 1 813.359 579.383 51.720 372.922 o
0 22 2 207.726 323.313 51.349 690.673 o
0 22 3 15720.300 15202.200 154.222 12.208 o
0 22 4 12408.000 12432.500 183.965 15.576 o
0 22 5 4.129 8.306 63.638 748.595 o
0 22 6 2190.610 2580.730 92.561 110.165 o
0 22 7 1546.490 1679.960 86.658 152.058 o
0 22 8 135.811 -41.309 90.705 344.710 o
0 22 9 4219.700 4331.860 153.741 48.722 o
0 22 10 48.997 233.458 112.456 227.695 o
0 22 11 11556.100 11933.700 249.627 14.489 o
0 22 12 2203.530 2413.960 192.482 54.833 o
0 23 1 522.553 571.277 57.001 422.066 o
0 23 2 427.840 329.564 56.413 502.561 o
0 23 3 807.124 730.602 61.624 315.705 o
0 23 4 1651.920 1778.750 70.789 165.152 o
0 23 5 6170.490 5992.950 151.162 36.216 o
0 23 6 2135.610 2177.050 91.688 117.591 o
0 23 7 7876.980 8125.640 152.804 27.651 o
0 23 8 670.693 784.256 99.102 202.145 o
0 23 9 506.741 191.072 115.471 187.913 o
0 23 10 646.620 376.710 126.133 152.676 o
0 23 11 831.399 854.649 168.937 87.726 o
0 24 0 2832.650 3411.040 113.786 78.448 o
0 24 1 3124.960 3500.480 85.697 85.737 o
0 24 2 921.518 1001.590 64.164 269.740 o
0 24 3 1056.420 1092.300 67.543 239.690 o
0 24 4 13457.300 13619.700 165.080 14.483 o
0 24 5 5719.420 6003.680 136.481 40.026 o
0 24 6 1270.440 1143.540 91.859 170.363 o
0 24 7 3375.110 3395.120 129.281 65.924 o
0 24 8 1996.530 1810.300 104.752 114.922 o
0 24 9 4358.270 4519.410 138.123 50.999 o
0 24 10 446.922 336.229 145.720 126.207 o
0 24 11 5015.460 4923.490 187.393 36.997 o
0 25 1 9146.290 8948.390 123.951 25.536 o
0 25 2 34167.700 34728.000 365.214 3.245 o
0 25 3 1216.760 1190.870 73.910 206.466 o
0 25 4 352.885 433.403 72.555 379.942 o
0 25 5 1075.770 919.494 86.713 199.257 o
0 25 6 4105.760 3961.150 119.393 59.760 o
0 25 7 124.910 129.620 95.659 304.136 o
0 25 8 860.127 721.711 101.274 186.523 o
0 25 9 11552.900 11831.400 211.070 15.873 o
0 25 10 1996.780 2104.340 146.450 80.554 o
0 25 11 963.073 1009.100 190.071 70.208 o
0 26 0 9620.140 9677.440 216.684 19.076 o
0 26 1 436.039 521.586 74.664 339.744 o
0 26 2 830.630 1253.890 78.088 226.427 o
0 26 3 1719.040 1651.050 81.209 152.006 o
0 26 4 4710.530 4593.130 109.482 54.743 o
0 26 5 6379.870 6868.430 191.153 29.458 o
0 26 6 2348.830 2341.390 110.657 96.549 o
0 26 7 15180.000 15332.400 234.990 11.121 o
0 26 8 671.522 621.731 117.936 162.729 o
0 26 9 276.650 283.307 122.307 180.111 o
0 26 10 2915.120 2951.060 213.042 43.436 o
0 27 1 1.349 137.717 77.140 486.897 o
0 27 2 642.463 723.472 74.610 289.249 o
0 27 3 10164.700 10357.600 186.346 19.366 o
0 27 4 628.622 495.593 83.217 271.396 o
0 27 5 8052.880 8112.020 175.722 25.529 o
0 27 6 8639.770 8546.490 188.327 23.084 o
0 27 7 4198.300 4299.930 137.517 52.939 o
0 27 8 5533.190 5039.540 152.565 40.517 o
0 27 9 7897.120 8163.950 277.023 18.611 o
0 27 10 699.709 774.296 169.512 89.556 o
0 28 0 44872.500 44923.300 552.848 1.925 o
0 28 1 9007.080 9164.700 170.165 22.992 o
0 28 2 11776.100 12408.600 179.637 16.381 o
0 28 3 8010.040 8864.030 152.547 26.474 o
0 28 4 472.945 729.058 102.909 207.622 o
0 28 5 18191.500 18328.600 270.060 8.443 o
0 28 6 82.140 10.354 103.373 275.663 o
0 28 7 12547.700 13147.800 238.008 13.563 o
0 28 8 13521.000 13185.600 262.123 12.207 o
0 28 9 988.205 291.557 186.402 75.696 o
0 29 1 4036.280 3946.860 116.348 61.293 o
0 29 2 11829.400 11808.100 171.035 16.931 o
0 29 3 12199.100 12474.900 201.403 15.239 o
0 29 4 8021.490 8088.760 155.551 27.138 o
0 29 5 13082.300 12441.400 267.312 12.605 o
0 29 6 2724.100 2887.230 129.452 75.816 o
0 29 7 2311.490 1940.980 161.333 69.557 o
0 29 8 2222.480 2001.440 174.491 63.687 o
0 29 9 109.355 -46.546 175.865 97.327 o
0 30 0 1091.700 1464.080 180.736 72.726 o
0 30 1 353.570 554.732 95.243 251.476 o
0 30 2 6607.180 6977.560 161.132 31.927 o
0 30 3 499.100 362.253 88.933 271.858 o
0 30 4 690.445 923.585 100.332 193.030 o
0 30 5 796.805 1009.800 126.719 135.198 o
0 30 6 789.771 738.011 158.232 99.186 o
0 30 7 10865.800 10304.100 272.104 14.925 o
0 30 8 4399.810 4466.370 195.802 38.555 o
0 31 1 6829.990 6709.130 156.259 32.176 o
0 31 2 6092.150 6470.310 196.770 30.074 o
0 31 3 1024.910 814.609 99.878 177.354 o
0 31 4 3936.610 4280.820 131.152 56.582 o
0 31 5 478.378 310.166 124.601 164.232 o
0 31 6 8040.130 8140.740 272.587 18.740 o
0 31 7 416.344 177.149 155.503 114.870 o
0 32 0 11847.800 10556.100 508.515 7.601 o
0 32 1 2149.090 2021.470 137.602 84.645 o
0 32 2 3774.160 3708.740 133.873 59.367 o
0 32 3 3216.850 3191.380 130.441 68.108 o
0 32 4 10094.900 10119.800 203.217 18.836 o
0 32 5 301.547 150.683 150.843 124.512 o
0 32 6 1857.450 1886.410 181.537 63.757 o
0 33 1 5453.730 5545.320 221.193 29.827 o
0 33 2 1645.990 1917.890 144.306 88.163 o
0 33 3 544.026 426.851 156.092 108.908 o
0 33 4 290.826 187.244 123.257 179.419 o
0 33 5 76.989 35.874 148.455 136.091 o
0 33 6 2244.300 2174.030 857.391 4.063 o
0 34 0 2181.910 2089.990 216.124 47.571 o
0 34 1 1340.580 1796.570 198.838 59.665 o
0 34 2 425.993 295.298 169.643 96.901 o
0 34 3 79.926 291.083 167.626 104.885 o
0 34 4 136.841 264.133 153.189 123.597 o
0 35 1 1890.290 1730.090 170.156 69.984 o
0 35 2 11416.200 11656.000 274.295 13.863 o
0 35 3 953.754 776.005 176.227 80.869 o
1 0 2 331270.000 281708.000 2680.780 0.054 o
1 0 3 20030.800 19293.900 207.557 8.230 o
1 0 4 9733.320 10088.100 114.711 23.515 o
1 0 5 4544.850 4866.390 77.504 61.575 o
1 0 6 5701.200 5278.740 73.911 50.921 o
1 0 7 608.155 951.535 39.171 439.340 o
1 0 8 385.687 313.724 36.121 772.633 o
1 0 9 16612.100 16689.400 234.758 9.983 o
1 0 10 246.638 329.474 58.170 568.249 o
1 0 11 794.664 929.066 72.194 264.567 o
1 0 12 967.369 1161.050 85.994 199.996 o
1 0 13 33279.400 34298.600 437.304 3.149 o
1 0 14 4214.420 4277.630 135.353 53.450 o
1 0 15 1895.940 1817.540 145.798 84.238 o
1 1 2 26284.000 27196.600 294.644 4.977 o
1 1 3 1385.410 1240.250 40.245 253.724 o
1 1 4 13943.300 13704.300 147.006 14.382 o
1 1 5 21058.900 20898.900 232.117 7.372 o
1 1 6 13345.000 14218.500 133.284 14.978 o
1 1 7 4317.000 4170.130 91.355 64.226 o
1 1 8 1381.330 1324.950 52.058 228.937 o
1 1 9 1944.050 2029.950 61.419 154.742 o
1 1 10 831.562 625.615 60.206 326.501 o
1 1 11 22254.000 22372.300 280.487 6.432 o
1 1 12 195.087 249.074 79.991 385.122 o
1 1 13 10.919 300.541 97.286 298.926 o
1 1 14 347.618 441.808 117.961 183.285 o
1 1 15 10038.300 8698.480 322.533 14.122 o
1 2 1 43848.500 41590.000 487.484 2.135 o
1 2 2 108488.000 107616.000 1080.730 0.406 o
1 2 3 23187.800 22605.100 209.545 6.636 o
1 2 4 7001.530 6573.340 71.823 39.845 o
1 2 5 1458.120 1397.280 35.045 244.300 o
1 2 6 1215.030 1154.040 38.179 285.827 o
1 2 7 36531.300 37295.800 416.778 2.825 o
1 2 8 10750.600 10254.100 149.587 20.164 o
1 2 9 13156.800 12821.800 200.481 14.236 o
1 2 10 1779.550 1730.980 65.394 166.265 o
1 2 11 1702.430 1941.930 91.044 135.502 o
1 2 12 1497.000 1485.500 90.698 153.040 o
1 2 13 2646.710 2925.360 125.627 78.453 o
1 2 14 851.262 842.544 119.932 147.082 o
1 2 15 65.250 -15.471 155.463 125.045 o
1 3 0 87097.900 81964.200 970.814 0.608 o
1 3 1 48385.300 48716.300 400.450 1.877 o
1 3 2 23476.800 24473.100 252.539 6.059 o
1 3 3 10664.700 10165.700 113.359 21.742 o
1 3 4 27587.600 27119.700 289.424 4.784 o
1 3 5 33602.800 32644.200 366.474 3.394 o
1 3 6 26567.400 26075.000 269.173 5.147 o
1 3 7 470.437 556.034 39.083 585.770 o
1 3 8 6587.430 6805.340 123.395 36.362 o
1 3 9 15089.400 15178.700 213.114 11.638 o
1 3 10 7233.180 7462.450 144.253 30.996 o
1 3 11 24038.200 24571.500 313.100 5.548 o
1 3 12 14483.200 14850.500 230.269 11.789 o
1 3 13 16.032 170.184 94.110 327.676 o
1 3 14 9673.650 9797.100 211.645 19.186 o
1 3 15 4562.650 4249.670 172.949 42.883 o
1 4 0 665.173 611.294 17.986 592.493 o
1 4 1 38720.200 34461.000 315.068 2.968 o
1 4 2 27257.300 26067.300 257.948 5.070 o
1 4 3 4924.400 4871.660 50.132 62.204 o
1 4 4 35775.300 35934.000 387.242 3.001 o
1 4 5 18314.000 17066.000 185.839 9.690 o
1 4 6 17662.900 17826.500 205.552 9.589 o
1 4 7 45784.600 45326.500 499.365 1.949 o
1 4 8 10968.300 11279.000 166.063 18.492 o
1 4 9 21951.300 21182.200 318.272 6.355 o
1 4 10 11035.400 11282.000 159.818 18.630 o
1 4 11 3738.720 3743.380 105.661 68.518 o
1 4 12 3472.480 3394.580 100.026 75.768 o
1 4 13 9419.970 9569.240 174.979 21.653 o
1 4 14 5439.150 5498.250 204.245 32.187 o
1 4 15 45.810 -252.565 147.160 139.943 o
1 5 0 691.225 280.192 11.699 718.677 o
1 5 1 4604.830 3811.730 46.877 72.314 o
1 5 2 11410.000 11413.100 115.740 19.444 o
1 5 3 38124.000 37539.600 338.879 2.851 o
1 5 4 12299.500 11982.100 132.272 17.396 o
1 5 5 19594.500 20331.100 202.523 8.244 o
1 5 6 19407.000 19546.500 233.434 8.168 o
1 5 7 25623.300 26405.500 311.739 5.078 o
1 5 8 26775.400 26301.400 348.298 4.705 o
1 5 9 16645.600 16223.600 215.734 10.376 o
1 5 10 2458.100 2566.010 77.204 114.125 o
1 5 11 6770.260 6794.360 134.465 34.532 o
1 5 12 14594.600 14044.800 229.929 11.985 o
1 5 13 1704.480 1428.350 105.511 127.862 o
1 5 14 694.863 739.963 123.397 148.893 o
1 5 15 478.955 373.595 160.090 105.903 o
1 6 0 162.092 73.503 15.799 2532.010 o
1 6 1 23733.600 23213.800 176.439 6.580 o
1 6 2 93707.200 96250.100 782.191 0.551 o
1 6 3 2837.280 2689.870 39.656 121.059 o
1 6 4 29740.300 29776.800 334.926 4.091 o
1 6 5 63916.400 63265.600 696.255 1.063 o
1 6 6 15814.700 15608.700 196.683 11.336 o
1 6 7 33497.200 33044.900 406.090 3.274 o
1 6 8 11474.200 10866.800 156.969 18.422 o
1 6 9 460.606 468.118 53.463 487.224 o
1 6 10 9092.890 9064.080 143.789 24.443 o
1 6 11 14951.200 14554.500 259.442 10.992 o
1 6 12 4465.850 4603.570 136.228 50.477 o
1 6 13 5642.660 5680.250 138.790 40.759 o
1 6 14 1385.340 1494.330 169.791 76.545 o
1 6 15 318.766 166.442 192.512 78.459 o
1 7 0 201585.000 187303.000 1919.850 0.130 o
1 7 1 28079.000 28799.400 186.025 4.932 o
1 7 2 1865.620 1568.610 44.025 190.111 o
1 7 3 69384.000 67161.200 563.429 1.000 o
1 7 4 27168.300 25659.900 248.683 5.165 o
1 7 5 6214.340 6433.010 74.794 43.999 o
1 7 6 22479.300 23145.200 272.689 6.334 o
1 7 7 8135.750 8548.760 130.519 28.065 o
1 7 8 12660.900 12235.100 186.554 15.348 o
1 7 9 15791.800 15624.700 198.295 11.319 o
1 7 10 7645.630 7740.230 122.917 31.132 o
1 7 11 13624.400 14144.100 265.555 11.755 o
1 7 12 15416.700 14766.700 235.782 11.133 o
1 7 13 825.103 854.239 106.249 173.830 o
1 7 14 6977.470 6758.540 170.642 30.185 o
1 7 15 6619.340 6368.840 273.596 21.537 o
1 8 0 2317.780 3305.060 82.732 104.913 o
1 8 1 11944.200 12126.600 110.022 18.325 o
1 8 2 54995.400 55475.500 490.358 1.466 o
1 8 3 18027.000 18061.600 204.372 9.374 o
1 8 4 17684.600 17595.900 162.411 10.141 o
1 8 5 35100.000 38053.900 386.524 2.972 o
1 8 6 4959.150 5589.540 80.498 54.350 o
1 8 7 25549.000 25462.600 334.782 5.050 o
1 8 8 14075.400 13985.000 205.553 12.905 o
1 8 9 9777.890 9766.350 164.544 21.435 o
1 8 10 12500.900 12369.200 192.365 15.270 o
1 8 11 102.933 153.602 74.269 479.654 o
1 8 12 5505.700 5591.120 202.979 32.046 o
1 8 13 5037.610 5335.180 162.756 40.311 o
1 8 14 6631.480 6542.590 174.205 31.072 o
1 8 15 819.991 522.360 278.763 36.827 o
1 9 0 524.720 489.535 19.521 731.128 o
1 9 1 7505.550 7556.330 69.912 35.647 o
1 9 2 3504.900 3355.960 44.895 94.177 o
1 9 3 1272.910 1102.680 33.503 290.065 o
1 9 4 34554.100 34876.500 362.712 3.209 o
1 9 5 7954.440 7821.700 90.103 32.310 o
1 9 6 21072.500 20719.300 227.521 7.434 o
1 9 7 1807.360 1743.960 51.783 179.866 o
1 9 8 75.205 198.203 44.179 1096.500 o
1 9 9 6526.820 6492.670 102.932 39.445 o
1 9 10 18.228 -13.718 59.364 847.707 o
1 9 11 11501.900 11384.600 196.344 16.680 o
1 9 12 1724.000 1789.480 104.832 122.598 o
1 9 13 3516.930 3795.540 124.493 64.288 o
1 9 14 253.880 423.932 137.958 143.680 o
1 10 0 49948.500 47493.000 352.287 1.879 o
1 10 1 41063.300 42162.100 366.959 2.446 o
1 10 2 30668.400 28950.900 272.894 4.235 o
1 10 3 7973.210 7967.070 81.640 32.500 o
1 10 4 9651.710 10556.600 96.043 23.927 o
1 10 5 14423.600 14031.100 168.319 13.402 o
1 10 6 7069.260 7762.240 129.060 32.402 o
1 10 7 8053.190 7927.010 143.384 28.168 o
1 10 8 4609.010 4912.290 102.168 55.839 o
1 10 9 15696.800 15905.000 199.715 11.267 o
1 10 10 1487.400 1502.460 72.979 179.059 o
1 10 11 8222.190 7894.390 141.379 27.926 o
1 10 12 4073.240 4144.720 132.049 55.816 o
1 10 13 15438.500 15632.300 269.519 10.251 o
1 10 14 2660.400 2832.470 151.584 66.546 o
1 11 0 19612.700 18391.100 141.502 9.167 o
1 11 1 68279.400 68581.700 582.579 1.000 o
1 11 2 36277.600 37876.400 372.331 2.916 o
1 11 3 18669.400 17898.000 188.179 9.294 o
1 11 4 33154.600 31727.300 335.955 3.571 o
1 11 5 6916.120 6760.120 80.342 39.147 o
1 11 6 968.125 935.340 44.079 331.033 o
1 11 7 4088.990 4251.040 102.192 63.299 o
1 11 8 3483.630 3425.920 77.954 83.499 o
1 11 9 1760.520 1821.710 65.772 164.433 o
1 11 10 1936.760 2000.490 82.284 135.165 o
1 11 11 20566.000 21260.700 298.518 6.881 o
1 11 12 6674.590 6990.420 215.744 26.134 o
1 11 13 5047.860 5168.160 160.133 41.087 o
1 11 14 3627.600 3740.290 187.875 45.015 o
1 12 0 45463.900 45668.000 383.482 2.091 o
1 12 1 10256.300 10611.200 122.002 21.756 o
1 12 2 14360.800 13898.400 146.406 13.932 o
1 12 3 18159.500 18052.600 190.999 9.467 o
1 12 4 13474.700 13335.800 145.424 15.036 o
1 12 5 10306.100 9775.540 119.424 22.522 o
1 12 6 3093.400 3082.240 65.438 98.729 o
1 12 7 1594.490 1458.480 63.651 187.677 o
1 12 8 9760.180 10067.600 169.188 20.992 o
1 12 9 1128.680 1202.450 68.179 225.803 o
1 12 10 1217.090 1215.210 83.445 186.699 o
1 12 11 3504.880 3604.730 107.095 71.474 o
1 12 12 6651.950 6673.760 140.245 34.544 o
1 12 13 6001.060 6300.790 202.250 29.881 o
1 12 14 5938.740 6269.000 248.409 24.975 o
1 13 0 14713.500 16756.100 153.045 12.392 o
1 13 1 10364.800 9399.820 113.055 23.017 o
1 13 2 42439.600 44172.000 384.319 2.285 o
1 13 3 21703.100 23404.800 227.008 6.831 o
1 13 4 6308.520 6589.920 90.226 41.568 o
1 13 5 17143.700 17250.800 184.815 10.261 o
1 13 6 4197.480 4219.080 83.124 67.255 o
1 13 7 3314.630 3354.810 97.885 79.008 o
1 13 8 3041.710 2844.940 73.461 98.823 o
1 13 9 2623.400 2658.040 83.739 104.726 o
1 13 10 10734.700 11136.700 203.938 17.396 o
1 13 11 504.506 428.277 97.926 233.041 o
1 13 12 5135.060 4777.290 132.376 46.722 o
1 13 13 4886.440 5001.610 156.328 42.904 o
1 13 14 6131.760 6622.370 226.600 26.519 o
1 14 0 18559.700 19628.000 152.959 9.278 o
1 14 1 75849.900 76017.100 572.541 0.845 o
1 14 2 12673.200 12938.700 117.336 16.720 o
1 14 3 32563.600 33875.900 326.011 3.547 o
1 14 4 19045.100 18721.100 195.809 8.862 o
1 14 5 11412.500 12104.100 151.199 17.889 o
1 14 6 4193.360 4021.270 79.258 69.380 o
1 14 7 2920.270 2842.400 70.597 102.905 o
1 14 8 4626.570 4382.330 93.009 59.880 o
1 14 9 5760.810 5899.290 154.158 37.549 o
1 14 10 5964.940 6181.680 145.843 37.339 o
1 14 11 2169.700 2484.020 112.903 97.076 o
1 14 12 10778.300 10735.800 202.529 17.637 o
1 14 13 7719.440 7794.030 198.038 24.804 o
1 14 14 5724.730 5984.740 215.306 29.386 o
1 15 0 485.133 282.264 29.777 772.032 o
1 15 1 35115.900 36164.100 333.964 3.167 o
1 15 2 23825.700 25556.500 294.856 5.603 o
1 15 3 41748.600 43509.300 468.250 2.220 o
1 15 4 15188.600 16258.300 179.025 11.821 o
1 15 5 6191.100 6238.260 115.034 40.196 o
1 15 6 4889.400 4996.290 101.991 53.408 o
1 15 7 10004.100 10170.500 140.790 21.817 o
1 15 8 5384.010 5314.130 117.436 46.402 o
1 15 9 1893.700 2160.210 77.385 138.592 o
1 15 10 2930.890 2793.120 99.854 88.367 o
1 15 11 4920.180 4929.740 137.376 46.546 o
1 15 12 7144.290 7002.790 180.754 28.440 o
1 15 13 1432.780 1610.910 158.445 83.023 o
1 16 0 29481.900 31474.100 264.589 4.250 o
1 16 1 1415.720 1265.280 39.570 249.836 o
1 16 2 7179.100 7458.230 95.916 35.339 o
1 16 3 4749.800 5168.930 93.601 55.402 o
1 16 4 8784.250 8812.280 113.230 27.131 o
1 16 5 6074.760 6345.050 110.083 41.094 o
1 16 6 6577.190 6549.850 101.019 39.284 o
1 16 7 7271.300 7265.270 111.359 34.095 o
1 16 8 2900.650 3030.130 81.247 96.089 o
1 16 9 2758.910 2818.020 86.611 98.362 o
1 16 10 5458.440 5131.730 126.685 44.957 o
1 16 11 4212.990 4268.390 125.299 56.060 o
1 16 12 6.824 236.291 113.053 228.763 o
1 16 13 465.662 445.442 148.975 119.646 o
1 17 0 21033.100 20794.200 213.710 7.547 o
1 17 1 18248.600 18231.700 178.502 9.517 o
1 17 2 3912.990 3998.130 68.697 75.749 o
1 17 3 21396.700 21269.400 242.508 7.123 o
1 17 4 3223.510 3504.800 66.367 91.495 o
1 17 5 12154.800 12041.200 140.508 17.317 o
1 17 6 297.588 232.140 50.919 664.422 o
1 17 7 8031.000 8041.020 169.620 26.112 o
1 17 8 2561.840 2597.730 82.997 107.350 o
1 17 9 6771.550 6776.540 131.497 34.870 o
1 17 10 2265.900 2675.570 109.206 95.911 o
1 17 11 5045.570 4933.230 146.249 44.178 o
1 17 12 7342.920 7482.400 207.538 25.060 o
1 17 13 106.428 408.790 156.410 117.874 o
1 18 0 26.261 202.640 35.092 1659.140 o
1 18 1 44057.300 45952.900 411.591 2.120 o
1 18 2 24959.800 25818.000 244.422 5.615 o
1 18 3 16227.000 16576.600 178.104 11.070 o
1 18 4 2896.130 3089.210 92.749 89.966 o
1 18 5 26099.100 27068.600 333.727 4.826 o
1 18 6 6394.030 6528.890 108.597 39.355 o
1 18 7 5492.210 5372.860 110.712 46.687 o
1 18 8 5149.460 5456.750 129.137 45.335 o
1 18 9 1827.380 2030.380 101.644 119.387 o
1 18 10 7380.110 7370.170 178.334 27.651 o
1 18 11 556.562 560.951 102.207 209.702 o
1 18 12 9081.260 8909.460 288.606 16.378 o
1 18 13 9882.600 9941.350 249.756 16.984 o
1 19 0 17002.500 16493.900 211.075 10.183 o
1 19 1 5842.200 6164.990 115.943 41.917 o
1 19 2 7997.640 8517.500 135.599 28.114 o
1 19 3 18091.200 18155.100 209.320 9.265 o
1 19 4 26137.400 25726.500 257.832 5.316 o
1 19 5 8871.890 8936.390 174.945 23.160 o
1 19 6 4695.310 4698.900 119.831 52.253 o
1 19 7 6324.750 6633.520 137.833 36.083 o
1 19 8 10029.600 9637.690 171.117 20.812 o
1 19 9 1195.080 1129.120 92.447 173.744 o
1 19 10 4077.460 3913.030 113.416 61.907 o
1 19 11 5808.990 5815.780 169.778 35.333 o
1 19 12 1367.310 1058.500 140.104 103.902 o
1 19 13 1654.850 2016.070 185.278 63.030 o
1 20 0 22389.100 22474.500 250.066 6.607 o
1 20 1 541.904 618.802 44.930 490.266 o
1 20 2 26990.500 26713.600 278.864 4.968 o
1 20 3 8144.120 8066.590 126.189 28.979 o
1 20 4 2027.360 2124.540 67.131 143.657 o
1 20 5 3256.590 3459.870 78.180 86.872 o
1 20 6 9926.490 9905.930 138.043 22.311 o
1 20 7 6768.000 7127.510 145.264 32.856 o
1 20 8 689.643 605.581 86.464 246.249 o
1 20 9 10883.800 11551.200 212.031 16.679 o
1 20 10 520.476 297.132 97.178 240.320 o
1 20 11 2193.260 2657.600 144.503 75.852 o
1 20 12 390.879 322.352 144.316 130.090 o
1 21 0 32997.000 34162.300 350.061 3.423 o
1 21 1 18987.300 19298.000 133.176 9.312 o
1 21 2 35326.300 36447.400 334.621 3.134 o
1 21 3 12597.900 12961.100 171.376 15.471 o
1 21 4 24313.400 25272.000 262.791 5.716 o
1 21 5 2776.000 2840.900 74.062 104.504 o
1 21 6 231.908 168.207 63.490 550.240 o
1 21 7 1647.200 1631.440 82.970 153.439 o
1 21 8 1754.260 1801.100 92.295 134.789 o
1 21 9 101.332 61.717 92.326 334.201 o
1 21 10 2712.720 2563.000 132.643 76.373 o
1 21 11 18862.900 18948.900 342.136 7.237 o
1 21 12 5604.480 5410.630 252.127 25.950 o
1 22 0 37046.500 38171.200 403.812 2.782 o
1 22 1 9401.100 9041.030 117.936 25.169 o
1 22 2 30705.100 30534.500 321.553 3.966 o
1 22 3 21227.300 22266.900 235.577 7.078 o
1 22 4 11059.400 10982.400 154.345 19.000 o
1 22 5 13605.300 13326.600 175.674 14.239 o
1 22 6 366.869 305.362 74.806 376.167 o
1 22 7 4160.290 4010.060 108.708 62.004 o
1 22 8 2.742 36.054 94.542 338.733 o
1 22 9 5946.440 5441.440 134.091 40.613 o
1 22 10 1515.510 1614.600 117.545 117.419 o
1 22 11 4931.470 5280.740 184.764 37.097 o
1 22 12 2717.810 3132.790 228.052 40.073 o
1 23 0 4003.950 4656.080 115.818 58.636 o
1 23 1 26417.900 26999.800 301.031 4.940 o
1 23 2 18690.000 19417.500 240.065 8.396 o
1 23 3 2318.520 2509.410 75.445 120.089 o
1 23 4 713.091 867.340 65.399 304.884 o
1 23 5 5389.020 5477.600 130.327 43.808 o
1 23 6 998.095 937.251 83.043 213.066 o
1 23 7 1958.290 2009.410 96.823 120.478 o
1 23 8 5043.300 4988.980 130.442 47.006 o
1 23 9 785.258 831.234 99.156 192.759 o
1 23 10 4976.540 5268.500 208.310 33.243 o
1 23 11 380.264 312.578 130.051 156.664 o
1 24 0 22501.500 24000.300 201.306 6.681 o
1 24 1 9007.900 9540.130 122.011 25.285 o
1 24 2 7885.480 8632.560 151.036 27.147 o
1 24 3 11384.100 12020.400 175.317 17.184 o
1 24 4 294.411 390.860 65.683 456.371 o
1 24 5 5287.610 5062.680 121.771 46.952 o
1 24 6 1066.570 1112.020 92.715 180.977 o
1 24 7 1627.020 1734.180 110.791 119.939 o
1 24 8 4281.380 4234.980 154.265 48.521 o
1 24 9 4610.340 4675.860 135.818 49.435 o
1 24 10 1010.060 1240.380 130.808 120.183 o
1 24 11 5137.650 5413.660 229.824 29.607 o
1 25 0 20721.900 21415.700 257.873 7.178 o
1 25 1 12501.800 12317.800 174.528 15.811 o
1 25 2 4438.980 4697.580 96.592 59.358 o
1 25 3 3517.530 3617.260 104.087 72.322 o
1 25 4 15737.300 15960.000 213.451 10.997 o
1 25 5 4167.180 4063.950 101.940 63.516 o
1 25 6 318.015 294.322 111.179 209.226 o
1 25 7 3803.290 3815.380 138.907 57.187 o
1 25 8 1957.760 1979.070 153.667 77.396 o
1 25 9 20.233 47.111 120.842 206.671 o
1 25 10 4697.370 4697.560 159.829 43.869 o
1 25 11 7974.240 7268.780 318.828 16.479 o
1 26 0 9370.330 9919.140 218.785 19.135 o
1 26 1 7389.460 7466.290 140.767 30.838 o
1 26 2 5069.820 5531.290 140.779 43.531 o
1 26 3 3945.730 3963.480 108.284 64.404 o
1 26 4 1773.830 1797.420 86.661 140.373 o
1 26 5 872.353 836.151 84.107 225.107 o
1 26 6 3316.990 3203.680 115.260 72.982 o
1 26 7 761.996 614.265 110.203 174.925 o
1 26 8 1217.470 1405.630 127.556 116.677 o
1 26 9 9791.560 9734.680 347.073 12.962 o
1 26 10 745.634 588.627 161.182 98.172 o
1 27 0 684.081 783.107 106.833 182.184 o
1 27 1 540.065 614.349 80.984 284.428 o
1 27 2 2586.360 2662.950 96.963 97.500 o
1 27 3 538.773 544.975 98.816 222.086 o
1 27 4 6440.860 6798.870 151.781 33.769 o
1 27 5 2219.230 2124.730 96.725 111.985 o
1 27 6 527.247 370.441 99.969 226.612 o
1 27 7 1208.030 1036.570 111.868 143.028 o
1 27 8 1437.550 1613.290 127.508 109.096 o
1 27 9 231.912 166.067 141.360 142.320 o
1 27 10 1851.640 1408.870 252.234 39.637 o
1 28 0 2421.310 2553.850 102.372 98.527 o
1 28 1 6643.980 6605.050 131.018 35.706 o
1 28 2 14934.200 15359.200 215.285 11.638 o
1 28 3 4679.380 4836.180 125.559 50.682 o
1 28 4 401.008 649.090 87.853 270.908 o
1 28 5 5887.320 5712.770 146.938 38.441 o
1 28 6 1318.600 1264.520 108.656 139.502 o
1 28 7 161.558 298.338 114.979 207.873 o
1 28 8 416.203 218.942 134.608 147.946 o
1 28 9 1022.070 777.430 162.511 91.165 o
1 29 0 15731.600 16386.400 289.454 9.576 o
1 29 1 6542.000 6709.530 144.445 34.402 o
1 29 2 1367.840 1454.840 93.904 154.838 o
1 29 3 4324.030 4154.970 116.442 57.899 o
1 29 4 5650.740 5509.880 143.194 40.438 o
1 29 5 1290.000 1134.790 98.101 159.114 o
1 29 6 1127.860 1210.300 117.031 135.322 o
1 29 7 373.981 59.048 130.789 160.529 o
1 29 8 1156.590 966.297 173.465 79.508 o
1 29 9 219.983 761.410 231.160 54.294 o
1 30 0 3617.620 3821.480 118.551 65.159 o
1 30 1 237.529 415.037 101.502 245.429 o
1 30 2 3153.850 3489.840 117.790 72.204 o
1 30 3 338.791 247.756 93.574 277.940 o
1 30 4 2901.910 3138.060 111.608 80.386 o
1 30 5 2924.410 3140.210 119.494 76.413 o
1 30 6 1022.560 1156.040 127.607 125.040 o
1 30 7 690.504 738.312 144.700 116.646 o
1 30 8 388.470 388.772 200.174 71.311 o
1 31 0 3623.010 3471.710 123.672 65.106 o
1 31 1 2408.740 2448.460 119.316 88.957 o
1 31 2 6220.910 6176.040 212.087 28.373 o
1 31 3 1787.810 2027.640 113.805 109.265 o
1 31 4 4755.810 5008.050 170.639 40.803 o
1 31 5 668.176 589.247 111.784 176.983 o
1 31 6 211.078 479.318 147.490 127.810 o
1 31 7 4969.660 5085.590 208.515 33.498 o
1 32 0 8316.160 8100.130 193.652 23.712 o
1 32 1 9220.860 9328.720 233.928 18.891 o
1 32 2 8717.290 8867.460 240.448 19.447 o
1 32 3 569.649 553.887 113.016 180.355 o
1 32 4 1599.010 1727.880 130.276 101.911 o
1 32 5 316.183 145.361 113.366 207.634 o
1 32 6 2180.380 1579.080 197.755 55.475 o
1 33 0 4801.710 5178.030 190.429 36.792 o
1 33 1 6781.700 7035.560 182.921 29.090 o
1 33 2 6090.950 5778.230 172.432 34.091 o
1 33 3 280.651 292.563 148.979 126.108 o
1 33 4 5153.050 5219.620 172.478 38.426 o
1 33 5 1716.310 1869.920 162.694 75.324 o
1 34 0 9505.080 9360.790 223.880 19.052 o
1 34 1 854.976 1489.250 157.664 92.622 o
1 34 2 1716.590 1908.700 172.561 69.471 o
1 34 3 6719.200 6559.980 192.436 28.859 o
1 34 4 923.512 1007.160 158.583 94.467 o
1 35 0 13351.600 13294.800 326.371 10.665 o
1 35 1 7358.700 7065.980 216.831 24.631 o
1 35 2 5051.390 5083.320 218.954 31.726 o
1 35 3 1013.490 766.484 182.738 75.612 o
2 0 1 97127.900 93708.200 741.390 0.543 o
2 0 2 6395.280 6697.850 65.596 43.081 o
2 0 3 4638.980 3933.390 48.027 70.927 o
2 0 4 1226.870 988.085 25.716 321.539 o
2 0 5 288.582 265.262 23.667 1171.850 o
2 0 6 405.657 505.761 29.514 744.339 o
2 0 7 513.820 505.095 34.047 618.534 o
2 0 8 565.234 514.276 41.216 530.043 o
2 0 9 12130.400 12852.000 164.895 16.195 o
2 0 10 1875.100 1813.740 74.326 149.531 o
2 0 11 3335.640 3458.040 96.832 78.407 o
2 0 12 12178.800 12092.200 230.529 14.522 o
2 0 13 113.761 60.819 91.707 336.257 o
2 0 14 15706.800 15343.500 253.901 10.474 o
2 0 15 211.942 118.874 151.461 126.219 o
2 1 1 109212.000 99125.600 1090.320 0.419 o
2 1 2 22877.700 21648.400 218.387 6.804 o
2 1 3 7514.770 7004.430 124.102 32.618 o
2 1 4 26709.700 27643.000 296.840 4.854 o
2 1 5 30902.500 31129.600 352.438 3.804 o
2 1 6 19628.200 20072.400 245.648 7.870 o
2 1 7 7427.970 7431.160 135.112 31.267 o
2 1 8 6603.510 6864.890 170.628 31.082 o
2 1 9 16397.500 16588.900 209.363 10.508 o
2 1 10 1258.970 1065.680 61.447 234.994 o
2 1 11 7327.970 7296.790 122.798 32.865 o
2 1 12 10276.500 10425.400 199.446 18.578 o
2 1 13 1269.830 1353.840 95.833 158.622 o
2 1 14 7940.060 7647.710 203.841 24.069 o
2 1 15 1029.530 1129.500 201.477 62.786 o
2 2 0 130685.000 107385.000 957.425 0.340 o
2 2 1 50652.800 44910.200 512.176 1.753 o
2 2 2 60730.100 60985.200 610.507 1.189 o
2 2 3 11867.500 11512.400 120.850 18.574 o
2 2 4 18084.500 17579.100 189.590 9.634 o
2 2 5 35718.500 35115.700 365.772 3.089 o
2 2 6 17314.700 17824.300 222.240 9.542 o
2 2 7 44664.300 45995.400 552.788 1.912 o
2 2 8 3336.120 3595.090 74.948 85.597 o
2 2 9 22420.100 22965.900 318.264 6.033 o
2 2 10 2375.430 2244.630 67.452 128.219 o
2 2 11 20428.200 21339.500 253.948 7.315 o
2 2 12 4786.810 4826.760 114.698 52.244 o
2 2 13 447.436 476.418 104.494 214.107 o
2 2 14 2062.230 2155.510 142.555 81.782 o
2 2 15 6780.580 6281.440 215.395 26.681 o
2 3 0 845.167 763.520 23.160 455.272 o
2 3 1 28244.600 28924.500 257.265 4.656 o
2 3 2 195358.000 182638.000 1954.530 0.135 o
2 3 3 9438.270 8844.510 97.487 26.262 o
2 3 4 15197.000 13883.700 140.960 13.323 o
2 3 5 1312.630 1425.730 41.403 249.442 o
2 3 6 3773.120 4224.370 72.950 74.992 o
2 3 7 34714.700 34519.600 412.111 3.087 o
2 3 8 14980.800 15558.900 224.160 11.378 o
2 3 9 25216.400 25782.000 350.862 4.989 o
2 3 10 955.216 869.094 62.736 278.482 o
2 3 11 3255.690 3200.850 89.514 84.464 o
2 3 12 8730.870 9009.380 172.463 23.508 o
2 3 13 34369.100 34204.700 429.472 3.083 o
2 3 14 929.869 657.545 133.668 126.379 o
2 3 15 1440.030 1341.010 169.835 76.756 o
2 4 0 139848.000 128702.000 1683.060 0.242 o
2 4 1 20526.600 20213.800 306.459 6.964 o
2 4 2 31255.300 30844.100 344.758 3.805 o
2 4 3 7768.030 7748.880 79.464 33.727 o
2 4 4 8293.990 7615.370 102.699 30.764 o
2 4 5 12281.400 11504.300 143.023 17.421 o
2 4 6 25141.800 24591.900 290.825 5.456 o
2 4 7 6827.340 6727.600 106.641 37.261 o
2 4 8 8285.650 7535.610 120.556 29.716 o
2 4 9 4751.270 4771.560 106.130 54.462 o
2 4 10 6521.050 6485.690 122.537 37.357 o
2 4 11 23318.000 23186.100 321.943 5.784 o
2 4 12 2941.540 2777.530 108.571 83.920 o
2 4 13 1057.160 906.223 110.997 152.854 o
2 4 14 152.492 128.198 116.462 209.546 o
2 4 15 10295.500 9981.050 313.445 13.855 o
2 5 0 4087.240 4990.050 53.121 70.376 o
2 5 1 18842.800 18935.200 252.939 8.285 o
2 5 2 34623.100 35747.200 394.981 3.086 o
2 5 3 7939.720 8191.340 88.991 31.814 o
2 5 4 10920.800 10780.000 124.980 20.396 o
2 5 5 24253.200 24053.800 244.378 5.972 o
2 5 6 19215.600 19168.100 214.919 8.504 o
2 5 7 8520.950 8870.120 134.592 26.457 o
2 5 8 1227.500 1327.510 51.908 244.920 o
2 5 9 1677.930 1533.070 61.209 183.244 o
2 5 10 12429.000 12796.000 181.962 15.431 o
2 5 11 6283.350 5747.450 154.664 35.799 o
2 5 12 1007.100 1058.800 83.463 206.623 o
2 5 13 4123.850 4065.870 121.021 58.715 o
2 5 14 571.509 406.239 137.158 135.190 o
2 5 15 958.142 714.094 164.089 91.158 o
2 6 0 10824.900 10795.100 91.748 21.580 o
2 6 1 10890.800 11508.200 119.575 20.047 o
2 6 2 10693.900 11744.200 110.606 20.448 o
2 6 3 26914.400 27560.000 280.126 4.901 o
2 6 4 14247.000 15047.800 173.320 13.040 o
2 6 5 501.313 510.575 27.567 680.263 o
2 6 6 9104.220 9392.520 120.613 25.305 o
2 6 7 31011.200 30722.800 382.358 3.713 o
2 6 8 18563.000 17662.600 229.895 8.921 o
2 6 9 5239.140 5217.710 93.475 51.585 o
2 6 10 1834.210 1795.160 71.684 154.704 o
2 6 11 1874.120 1979.080 94.270 125.856 o
2 6 12 1038.820 879.514 93.276 188.547 o
2 6 13 546.935 465.025 89.535 257.827 o
2 6 14 1407.370 1228.520 112.382 132.146 o
2 6 15 2484.750 2701.830 180.140 56.777 o
2 7 0 92988.600 94900.700 788.982 0.559 o
2 7 1 15904.400 16064.200 129.112 12.112 o
2 7 2 30376.300 30372.700 257.948 4.222 o
2 7 3 2502.000 2443.230 38.195 137.828 o
2 7 4 2935.160 3341.290 58.290 102.286 o
2 7 5 35215.700 37283.900 394.272 2.976 o
2 7 6 14378.100 14412.600 164.799 13.352 o
2 7 7 12742.100 12670.100 169.820 15.514 o
2 7 8 1784.780 1801.320 57.478 173.167 o
2 7 9 9398.860 9642.580 181.257 21.291 o
2 7 10 2633.300 2696.970 77.077 107.982 o
2 7 11 842.187 900.386 83.096 227.765 o
2 7 12 4346.160 4222.610 122.779 55.853 o
2 7 13 8783.410 8727.610 192.256 22.422 o
2 7 14 609.461 591.898 116.096 170.236 o
2 7 15 431.049 559.191 170.412 94.061 o
2 8 0 87949.300 87607.900 683.916 0.640 o
2 8 1 4017.850 4155.080 41.228 79.025 o
2 8 2 8267.370 8280.900 94.187 30.343 o
2 8 3 1052.750 877.426 28.254 364.273 o
2 8 4 73267.400 74208.400 714.306 0.845 o
2 8 5 11107.800 11154.500 127.696 19.726 o
2 8 6 34545.600 35840.900 395.330 3.088 o
2 8 7 15842.100 16009.900 208.769 10.999 o
2 8 8 4337.400 4513.270 82.734 64.297 o
2 8 9 3805.730 4030.700 111.251 64.571 o
2 8 10 2316.460 2395.810 76.712 120.930 o
2 8 11 13704.800 13800.000 252.822 12.120 o
2 8 12 238.344 433.064 91.956 286.763 o
2 8 13 4832.890 4540.430 134.798 48.707 o
2 8 14 79.582 34.090 136.226 160.939 o
2 9 0 100679.000 99569.400 806.811 0.496 o
2 9 1 28774.800 30291.100 275.407 4.403 o
2 9 2 23040.400 22388.700 205.825 6.730 o
2 9 3 1021.980 1114.530 31.426 337.510 o
2 9 4 24699.700 27196.200 367.316 4.864 o
2 9 5 13929.500 13767.500 146.270 14.380 o
2 9 6 11554.100 11157.800 149.120 18.388 o
2 9 7 16497.500 16845.000 230.961 10.059 o
2 9 8 11378.200 11809.200 176.006 17.292 o
2 9 9 29198.700 29709.400 354.831 4.090 o
2 9 10 2937.820 2965.610 84.925 94.185 o
2 9 11 1599.470 1670.850 84.840 152.290 o
2 9 12 6392.170 6418.600 179.016 31.387 o
2 9 13 7147.840 6985.860 164.312 30.036 o
2 9 14 850.183 957.234 175.804 81.337 o
2 10 0 16948.400 18526.300 154.844 10.372 o
2 10 1 22345.700 21288.800 239.773 6.860 o
2 10 2 4133.200 3830.860 47.029 78.684 o
2 10 3 56290.600 57226.000 590.792 1.340 o
2 10 4 27208.000 27882.900 376.417 4.387 o
2 10 5 1683.690 1472.860 44.681 206.642 o
2 10 6 19265.400 19833.200 223.042 8.272 o
2 10 7 960.621 801.587 43.927 346.520 o
2 10 8 3505.460 3467.270 76.855 83.210 o
2 10 9 271.274 306.965 53.364 622.529 o
2 10 10 7679.150 7829.510 125.527 30.694 o
2 10 11 13275.700 13894.700 219.011 13.224 o
2 10 12 9033.490 9294.480 189.088 21.725 o
2 10 13 3695.000 3579.480 167.285 50.515 o
2 10 14 15026.200 15242.000 385.042 8.377 o
2 11 0 15441.200 15856.000 111.716 12.747 o
2 11 1 111198.000 110716.000 794.904 0.418 o
2 11 2 2331.460 2259.150 44.902 145.002 o
2 11 3 5566.050 5541.610 81.364 49.984 o
2 11 4 2083.940 1761.640 42.697 171.324 o
2 11 5 16783.100 17138.000 183.337 10.510 o
2 11 6 3156.110 3377.320 81.248 88.083 o
2 11 7 2505.710 2499.660 69.856 118.492 o
2 11 8 2378.840 2509.050 68.026 123.403 o
2 11 9 4712.900 4351.130 92.024 59.459 o
2 11 10 7729.270 7915.320 164.990 27.307 o
2 11 11 3188.120 3247.920 103.622 79.170 o
2 11 12 16968.500 16289.900 262.931 9.475 o
2 11 13 507.292 163.289 114.372 191.676 o
2 11 14 6499.410 6164.090 236.644 25.235 o
2 12 0 64184.400 66526.000 488.032 1.126 o
2 12 1 25731.700 26898.100 251.417 5.311 o
2 12 2 31792.600 32982.500 292.946 3.772 o
2 12 3 19961.200 20346.800 201.508 8.110 o
2 12 4 3055.730 3614.980 69.116 92.608 o
2 12 5 7874.690 7838.380 98.597 32.005 o
2 12 6 1720.840 1695.940 53.517 184.964 o
2 12 7 5649.540 6022.250 89.383 46.858 o
2 12 8 11087.200 11831.300 178.905 17.525 o
2 12 9 1821.960 1949.130 73.040 150.285 o
2 12 10 6657.910 7060.480 140.384 33.839 o
2 12 11 2575.600 2629.760 94.107 99.795 o
2 12 12 12975.200 12479.700 261.778 12.820 o
2 12 13 2524.840 2448.960 125.416 83.539 o
2 12 14 7876.740 7663.380 217.058 23.155 o
2 13 0 420.937 531.944 29.230 722.014 o
2 13 1 1351.250 1359.120 38.074 254.302 o
2 13 2 11687.000 11244.500 116.458 19.141 o
2 13 3 26127.700 26137.200 264.992 5.244 o
2 13 4 7271.490 7659.710 92.269 34.880 o
2 13 5 12266.600 13059.400 155.592 16.189 o
2 13 6 8472.690 8385.130 145.135 26.462 o
2 13 7 1415.350 1436.700 55.760 214.368 o
2 13 8 9143.430 9129.040 188.409 21.720 o
2 13 9 608.883 537.054 64.917 357.041 o
2 13 10 1099.520 1224.670 87.479 185.962 o
2 13 11 1057.480 1187.550 93.858 177.100 o
2 13 12 4529.120 4648.650 134.471 50.325 o
2 13 13 9812.260 9710.400 273.178 16.075 o
2 13 14 3623.640 3749.800 227.889 36.165 o
2 14 0 77281.800 76326.200 554.732 0.830 o
2 14 1 36427.500 37276.800 358.868 2.956 o
2 14 2 8173.060 8006.760 99.604 30.728 o
2 14 3 1406.100 1222.080 40.352 252.176 o
2 14 4 1619.500 1630.240 48.319 200.910 o
2 14 5 27720.100 28176.200 319.544 4.548 o
2 14 6 1368.220 1604.450 65.083 196.030 o
2 14 7 3494.830 3347.020 78.691 83.686 o
2 14 8 3376.670 3465.980 91.287 79.902 o
2 14 9 830.505 993.625 67.239 272.278 o
2 14 10 18269.500 18488.700 277.055 8.296 o
2 14 11 10375.600 10125.800 183.809 19.349 o
2 14 12 362.395 330.362 104.051 228.304 o
2 14 13 1889.300 2309.300 156.603 74.576 o
2 14 14 2348.560 2043.810 235.072 41.487 o
2 15 0 14295.800 13626.800 136.563 14.293 o
2 15 1 12549.200 13042.500 111.437 16.930 o
2 15 2 16968.000 17695.800 148.128 10.672 o
2 15 3 30304.700 29925.800 284.683 4.179 o
2 15 4 4243.200 4512.510 87.679 64.126 o
2 15 5 8956.940 8757.150 129.290 25.890 o
2 15 6 12180.500 12310.500 170.714 16.267 o
2 15 7 3616.430 3586.160 79.557 79.695 o
2 15 8 2823.090 2787.920 77.257 102.342 o
2 15 9 3241.750 3378.240 114.407 73.179 o
2 15 10 8661.360 8850.850 156.067 24.829 o
2 15 11 5480.070 5502.840 174.349 36.380 o
2 15 12 4628.650 4223.330 156.017 46.228 o
2 15 13 14416.200 14252.000 448.909 7.595 o
2 16 0 4887.280 5018.980 72.349 58.619 o
2 16 1 2389.270 2479.460 49.538 135.419 o
2 16 2 12900.900 13199.000 153.619 15.495 o
2 16 3 21035.600 21300.200 263.355 7.054 o
2 16 4 21467.000 22628.400 281.150 6.599 o
2 16 5 11777.700 12068.900 151.842 17.435 o
2 16 6 373.065 464.364 50.907 550.187 o
2 16 7 19210.600 19183.500 221.438 8.437 o
2 16 8 18663.500 19283.700 250.746 8.312 o
2 16 9 9150.490 9059.480 200.463 21.064 o
2 16 10 7355.110 7012.380 167.123 29.179 o
2 16 11 2758.590 2836.390 114.227 83.352 o
2 16 12 2752.260 2965.850 132.046 73.768 o
2 16 13 938.504 550.424 160.500 96.033 o
2 17 0 6604.090 7121.830 115.287 36.514 o
2 17 1 1009.480 1027.280 38.908 329.490 o
2 17 2 3894.190 3671.080 66.489 78.914 o
2 17 3 239.362 221.062 37.682 981.380 o
2 17 4 4049.550 3876.490 84.567 70.537 o
2 17 5 10901.300 11783.200 160.471 18.450 o
2 17 6 18191.000 18429.100 269.095 8.436 o
2 17 7 6539.410 6691.520 128.780 36.184 o
2 17 8 3504.050 3798.880 93.682 75.000 o
2 17 9 9099.840 9225.790 156.367 23.558 o
2 17 10 6010.500 6216.600 190.533 31.377 o
2 17 11 8570.180 8083.300 159.208 25.634 o
2 17 12 353.484 351.039 119.510 181.442 o
2 17 13 2023.030 2196.130 173.620 64.942 o
2 18 0 8962.490 9722.410 108.826 25.830 o
2 18 1 6766.030 6862.200 78.111 39.787 o
2 18 2 6155.810 6497.380 123.285 38.775 o
2 18 3 3160.940 3062.700 73.486 94.148 o
2 18 4 17036.200 16853.600 177.428 10.524 o
2 18 5 6987.800 7431.410 122.455 33.825 o
2 18 6 2431.640 2322.350 71.548 122.244 o
2 18 7 8552.400 8544.560 133.343 26.848 o
2 18 8 2739.530 2761.660 96.980 93.574 o
2 18 9 6682.600 6573.180 127.095 36.046 o
2 18 10 652.536 613.977 84.850 255.448 o
2 18 11 14301.200 13795.000 242.661 11.975 o
2 18 12 3521.530 3416.690 147.535 58.216 o
2 18 13 724.464 612.664 180.495 81.129 o
2 19 0 3987.280 4143.410 97.002 66.290 o
2 19 1 2104.600 2157.170 59.893 146.038 o
2 19 2 11414.700 11352.400 134.722 18.910 o
2 19 3 7324.160 7406.110 95.763 34.899 o
2 19 4 1297.650 1342.320 57.985 225.072 o
2 19 5 6991.590 7461.690 128.403 33.213 o
2 19 6 16544.900 16469.700 215.451 10.368 o
2 19 7 6003.110 6423.290 153.411 35.751 o
2 19 8 11896.300 11374.400 192.860 16.378 o
2 19 9 28931.200 28775.700 373.346 4.110 o
2 19 10 736.657 694.210 89.449 227.879 o
2 19 11 1070.030 871.498 112.599 150.346 o
2 19 12 159.683 293.043 134.079 157.301 o
2 19 13 3341.450 3741.030 285.274 27.315 o
2 20 0 774.929 617.792 49.218 389.704 o
2 20 1 5872.000 5959.460 86.940 46.018 o
2 20 2 11199.600 11251.600 128.148 19.501 o
2 20 3 3865.840 4064.370 94.715 68.696 o
2 20 4 50160.800 52477.900 483.842 1.665 o
2 20 5 9836.700 9766.510 161.721 21.476 o
2 20 6 1387.460 1377.000 67.333 199.079 o
2 20 7 9954.530 9748.550 180.728 20.374 o
2 20 8 11405.700 11414.300 172.908 17.604 o
2 20 9 760.249 643.673 91.153 222.919 o
2 20 10 6031.770 6231.870 162.144 34.866 o
2 20 11 4838.470 4889.140 147.161 45.187 o
2 20 12 2869.680 3074.290 209.571 44.291 o
2 21 0 25082.900 25313.700 318.799 5.238 o
2 21 1 7599.340 7725.640 128.937 30.819 o
2 21 2 19055.600 20342.300 226.363 8.222 o
2 21 3 23374.200 23621.000 291.952 5.930 o
2 21 4 3070.540 3275.650 94.892 84.499 o
2 21 5 4833.730 5238.380 137.155 46.211 o
2 21 6 8715.750 8419.590 140.286 26.174 o
2 21 7 5852.130 5807.170 114.923 42.902 o
2 21 8 3943.770 3985.420 110.312 63.722 o
2 21 9 5461.930 5379.030 135.533 42.840 o
2 21 10 3968.590 3986.470 119.026 60.952 o
2 21 11 3208.600 3400.740 145.212 61.621 o
2 21 12 7443.570 7384.250 239.302 22.371 o
2 22 0 6438.750 6833.830 129.070 36.266 o
2 22 1 18163.600 17766.900 204.082 9.383 o
2 22 2 8359.560 8684.580 134.054 27.100 o
2 22 3 17723.000 17913.700 214.239 9.432 o
2 22 4 211.060 191.334 61.250 584.376 o
2 22 5 3527.020 3614.210 83.617 79.426 o
2 22 6 269.460 268.309 73.155 418.401 o
2 22 7 4037.480 4126.530 119.354 59.647 o
2 22 8 9243.740 9489.790 237.904 18.549 o
2 22 9 333.644 345.229 127.792 162.780 o
2 22 10 6379.920 6523.760 146.864 35.020 o
2 22 11 1104.180 1005.870 122.946 131.103 o
2 22 12 4785.980 5495.950 213.904 32.624 o
2 23 0 6125.450 6639.030 109.673 40.209 o
2 23 1 3319.960 3313.310 80.362 86.193 o
2 23 2 400.077 302.457 55.063 533.952 o
2 23 3 7734.700 7589.140 127.936 30.698 o
2 23 4 8274.720 8736.560 160.315 25.491 o
2 23 5 7532.340 7815.820 145.664 29.517 o
2 23 6 5208.070 4910.470 116.401 48.852 o
2 23 7 1365.020 1542.580 88.925 160.328 o
2 23 8 3531.380 3711.110 141.018 59.087 o
2 23 9 2610.900 2786.710 113.011 86.658 o
2 23 10 556.716 537.143 121.557 162.250 o
2 23 11 1892.350 1215.720 172.331 71.222 o
2 24 0 11775.400 11774.500 146.688 17.777 o
2 24 1 9530.120 9748.910 128.586 23.645 o
2 24 2 1323.420 1237.520 66.482 210.986 o
2 24 3 2823.070 2962.990 81.344 98.316 o
2 24 4 1391.620 1357.200 85.220 169.380 o
2 24 5 16126.700 16657.900 197.114 10.827 o
2 24 6 317.479 282.489 80.993 347.936 o
2 24 7 2755.430 2730.020 117.284 82.590 o
2 24 8 583.894 544.148 107.668 193.242 o
2 24 9 861.810 685.713 109.940 168.607 o
2 24 10 6148.280 5988.680 200.568 30.103 o
2 24 11 1691.780 1584.090 174.720 70.027 o
2 25 0 503.841 716.417 68.657 340.349 o
2 25 1 6381.260 6356.190 125.362 37.873 o
2 25 2 5098.750 5285.610 122.954 47.196 o
2 25 3 16798.100 16599.400 279.397 9.227 o
2 25 4 797.196 843.512 86.929 223.420 o
2 25 5 1130.960 1193.130 82.899 194.145 o
2 25 6 191.878 121.503 90.355 326.161 o
2 25 7 1602.810 1712.490 118.479 113.039 o
2 25 8 3421.670 3436.160 115.670 70.263 o
2 25 9 1343.740 1288.450 132.386 109.831 o
2 25 10 2983.640 2572.980 167.666 58.416 o
2 26 0 8049.980 7731.260 146.046 28.227 o
2 26 1 4663.880 4964.070 142.781 46.808 o
2 26 2 2077.670 2090.050 84.345 126.925 o
2 26 3 1854.690 1941.940 86.598 134.808 o
2 26 4 6774.670 7022.540 135.097 34.051 o
2 26 5 3666.990 3651.080 110.386 68.245 o
2 26 6 556.643 523.730 97.808 224.710 o
2 26 7 6841.760 7598.380 170.084 29.477 o
2 26 8 1877.900 2192.650 126.586 95.288 o
2 26 9 748.103 739.593 136.593 126.138 o
2 26 10 2184.390 2186.250 163.432 68.538 o
2 27 0 4320.270 4499.590 111.196 57.816 o
2 27 1 2684.450 2616.160 108.039 89.639 o
2 27 2 6667.230 6627.990 178.376 30.400 o
2 27 3 304.789 504.311 78.159 346.360 o
2 27 4 1716.340 2043.280 93.379 130.792 o
2 27 5 3947.250 4294.070 136.977 54.869 o
2 27 6 8990.070 8755.940 176.321 23.025 o
2 27 7 1749.620 1897.900 116.568 109.175 o
2 27 8 4168.540 4593.150 163.349 46.051 o
2 27 9 15820.400 15492.400 507.814 6.267 o
2 27 10 2.343 36.773 182.180 91.963 o
2 28 0 6363.810 6545.520 135.803 36.340 o
2 28 1 1769.060 1977.150 102.184 121.265 o
2 28 2 2602.700 2575.830 100.271 96.040 o
2 28 3 2996.730 3089.270 108.636 80.774 o
2 28 4 24398.900 25004.500 244.170 5.830 o
2 28 5 1314.780 1382.380 94.201 158.435 o
2 28 6 825.463 852.559 110.249 165.706 o
2 28 7 13404.400 12641.800 218.543 13.625 o
2 28 8 2391.780 2091.190 148.896 74.452 o
2 28 9 1919.390 1997.160 181.214 62.988 o
2 29 0 65.326 15.932 89.563 365.612 o
2 29 1 3916.720 3961.790 119.943 61.256 o
2 29 2 11155.600 11444.900 185.531 17.433 o
2 29 3 2073.400 2168.160 99.863 112.589 o
2 29 4 765.490 897.355 102.153 184.914 o
2 29 5 4992.050 5094.670 143.741 44.505 o
2 29 6 22173.100 21821.400 258.923 6.690 o
2 29 7 635.287 628.599 133.408 135.873 o
2 29 8 1904.690 1750.540 215.102 50.017 o
2 30 0 467.817 710.672 104.570 203.873 o
2 30 1 788.879 690.317 100.534 193.704 o
2 30 2 1290.990 1468.780 99.314 149.909 o
2 30 3 555.768 590.438 94.885 231.443 o
2 30 4 18085.000 17770.800 277.971 8.488 o
2 30 5 5606.620 5553.980 141.674 40.771 o
2 30 6 513.499 456.348 126.542 155.579 o
2 30 7 19926.600 20182.100 350.911 6.685 o
2 30 8 6319.860 5508.540 246.279 25.190 o
2 31 0 1024.940 957.067 107.685 158.892 o
2 31 1 949.227 976.248 111.544 154.963 o
2 31 2 2425.510 2378.250 119.626 89.065 o
2 31 3 10106.100 10033.100 214.046 18.366 o
2 31 4 2576.040 2665.940 142.993 72.224 o
2 31 5 3908.620 4181.810 163.229 48.609 o
2 31 6 9440.550 8440.310 347.287 13.573 o
2 31 7 3078.590 2998.260 259.901 32.605 o
2 32 0 10964.100 10913.100 214.441 16.844 o
2 32 1 4606.630 4778.770 149.146 46.318 o
2 32 2 1828.820 1834.650 135.285 92.663 o
2 32 3 845.001 845.602 114.041 157.718 o
2 32 4 1407.810 1579.070 134.062 103.749 o
2 32 5 6447.490 6205.620 257.804 23.280 o
2 32 6 222.535 58.206 156.554 118.996 o
2 33 0 3271.130 3457.510 155.231 57.418 o
2 33 1 105.433 56.905 134.749 162.823 o
2 33 2 4817.630 4988.380 169.220 40.843 o
2 33 3 2312.220 2152.430 140.401 79.814 o
2 33 4 1645.190 1510.570 140.713 94.182 o
2 33 5 1198.930 1427.360 175.774 74.994 o
2 34 0 421.400 486.800 156.333 110.464 o
2 34 1 5517.030 5433.260 187.772 34.386 o
2 34 2 5907.570 6039.520 204.302 30.205 o
2 34 3 3066.820 3007.270 202.566 45.470 o
2 34 4 293.741 526.731 159.144 109.110 o
2 35 0 6066.820 6038.310 213.252 28.757 o
2 35 1 7021.520 6661.220 255.973 22.219 o
2 35 2 958.138 689.881 176.207 81.328 o
2 35 3 5028.760 5575.150 318.350 20.180 o
3 0 1 32175.900 31931.300 354.005 3.612 o
3 0 2 3312.770 2807.300 52.722 101.844 o
3 0 3 1789.300 1809.730 31.300 198.708 o
3 0 4 85806.900 85397.400 959.091 0.607 o
3 0 5 4792.770 4441.010 64.959 63.510 o
3 0 6 32.083 172.524 26.287 2429.560 o
3 0 7 9837.200 9819.480 138.697 22.522 o
3 0 8 3043.950 3044.120 92.403 87.964 o
3 0 9 1325.700 1369.760 52.044 232.218 o
3 0 10 3236.110 3207.700 99.012 80.722 o
3 0 11 33701.400 32755.000 482.970 3.046 o
3 0 12 25355.200 25225.800 349.583 5.021 o
3 0 13 3990.150 4079.030 153.931 50.810 o
3 0 14 6473.850 6593.020 175.631 31.290 o
3 0 15 2371.570 2184.400 172.982 62.430 o
3 1 0 50666.400 48235.900 415.613 1.783 o
3 1 1 12954.000 14010.400 162.553 14.829 o
3 1 2 57381.500 56089.600 580.176 1.334 o
3 1 3 5723.750 5689.480 67.408 50.097 o
3 1 4 18311.600 17332.200 221.258 9.208 o
3 1 5 6594.370 6529.010 89.960 40.347 o
3 1 6 27627.100 28587.800 325.944 4.504 o
3 1 7 31891.900 31766.200 314.192 3.772 o
3 1 8 17788.800 17579.900 224.955 9.343 o
3 1 9 20270.400 20245.300 242.862 7.646 o
3 1 10 4769.120 4762.860 110.729 53.414 o
3 1 11 2907.020 3046.080 92.647 90.205 o
3 1 12 6670.740 6471.600 142.980 34.531 o
3 1 13 597.193 422.569 110.208 189.540 o
3 1 14 12932.300 12463.000 271.861 12.572 o
3 1 15 3606.140 3928.210 260.415 30.297 o
3 2 0 1799.150 1379.210 37.889 208.912 o
3 2 1 36007.100 34508.100 553.598 2.632 o
3 2 2 42489.600 40336.500 410.781 2.352 o
3 2 3 19712.500 18025.200 218.062 8.502 o
3 2 4 14708.700 13395.600 141.710 13.933 o
3 2 5 19494.400 17130.800 174.496 9.227 o
3 2 6 31263.300 30509.000 376.501 3.717 o
3 2 7 970.989 995.325 39.519 338.493 o
3 2 8 2565.750 2454.390 69.331 117.737 o
3 2 9 12730.400 12460.800 156.565 15.986 o
3 2 10 8867.350 9335.860 155.215 23.971 o
3 2 11 8191.800 7876.010 152.937 27.180 o
3 2 12 7982.670 7586.140 167.259 26.918 o
3 2 13 13369.200 13251.500 279.284 11.843 o
3 2 14 448.331 468.197 158.564 107.395 o
3 2 15 1286.550 1709.610 179.746 70.337 o
3 3 0 110350.000 99185.100 922.319 0.435 o
3 3 1 31466.500 31240.900 429.481 3.478 o
3 3 2 28178.800 28514.400 284.973 4.594 o
3 3 3 5186.190 4931.360 65.514 57.417 o
3 3 4 22815.500 22292.100 229.072 6.659 o
3 3 5 3924.270 3818.830 50.676 81.218 o
3 3 6 434.982 490.377 32.726 692.232 o
3 3 7 17223.700 16014.900 231.141 9.900 o
3 3 8 10834.100 10480.200 157.857 19.544 o
3 3 9 4032.470 3877.890 99.329 66.558 o
3 3 10 5398.670 5129.270 112.337 47.709 o
3 3 11 18163.800 18208.200 293.974 8.171 o
3 3 12 2806.610 2662.290 108.736 86.852 o
3 3 13 2914.010 2925.430 138.349 69.356 o
3 3 14 576.854 571.247 130.941 142.862 o
3 3 15 9766.500 9583.910 247.119 17.425 o
3 4 0 6277.300 5408.660 53.654 48.625 o
3 4 1 4703.830 5031.430 54.978 62.971 o
3 4 2 95867.300 92392.400 989.572 0.515 o
3 4 3 1693.240 1487.770 37.683 213.525 o
3 4 4 946.700 1428.620 31.475 321.544 o
3 4 5 1337.280 1481.700 36.786 250.736 o
3 4 6 3158.820 3562.810 62.852 93.450 o
3 4 7 17358.300 17862.400 215.582 9.600 o
3 4 8 9079.710 9428.690 136.195 24.509 o
3 4 9 3286.670 3481.560 95.090 79.614 o
3 4 10 3351.130 3450.410 107.644 74.059 o
3 4 11 7071.890 6827.080 145.022 32.389 o
3 4 12 7956.360 8139.090 171.837 26.000 o
3 4 13 12331.800 12312.100 214.472 14.791 o
3 4 14 224.979 185.396 130.832 164.076 o
3 4 15 798.153 933.669 170.991 85.925 o
3 5 0 102798.000 98684.100 1584.520 0.376 o
3 5 1 7768.510 7397.840 84.295 34.067 o
3 5 2 19905.000 19927.600 193.821 8.279 o
3 5 3 655.566 526.790 21.320 608.727 o
3 5 4 2568.010 2313.060 48.669 132.370 o
3 5 5 19705.200 19544.600 204.670 8.335 o
3 5 6 13261.700 12527.200 174.708 14.946 o
3 5 7 14169.900 14293.800 192.099 13.010 o
3 5 8 3091.390 3551.260 122.057 70.858 o
3 5 9 11766.500 12483.100 160.989 16.925 o
3 5 10 9247.350 9059.580 143.631 24.141 o
3 5 11 7031.200 7552.560 145.826 31.319 o
3 5 12 6905.400 6636.670 181.916 29.386 o
3 5 13 871.602 767.117 112.629 160.928 o
3 5 14 56.039 -45.373 143.436 146.878 o
3 5 15 3062.940 2624.010 174.460 55.235 o
3 6 0 48317.100 48757.900 425.476 1.855 o
3 6 1 1488.180 1415.720 25.791 251.090 o
3 6 2 18174.000 18416.700 180.585 9.486 o
3 6 3 12384.600 13063.600 154.425 16.090 o
3 6 4 13884.100 12828.800 155.445 14.669 o
3 6 5 21220.500 21861.500 236.389 7.135 o
3 6 6 21053.000 21092.100 246.127 7.226 o
3 6 7 29695.300 29642.900 347.965 4.057 o
3 6 8 18474.900 18451.500 229.208 8.800 o
3 6 9 13872.200 13628.800 211.298 13.059 o
3 6 10 5574.920 5949.400 112.735 44.293 o
3 6 11 1378.910 1603.990 96.621 147.349 o
3 6 12 1283.850 1176.590 86.866 177.532 o
3 6 13 2553.660 2569.380 114.513 88.481 o
3 6 14 555.554 597.093 127.843 148.726 o
3 6 15 192.009 -153.547 203.084 72.596 o
3 7 0 725.282 1118.510 26.491 425.434 o
3 7 1 16240.800 16374.500 148.154 11.533 o
3 7 2 3593.330 3591.270 46.521 89.768 o
3 7 3 13956.800 13907.800 134.374 14.518 o
3 7 4 56915.500 57412.700 604.288 1.314 o
3 7 5 17875.300 17860.000 209.707 9.429 o
3 7 6 29696.900 31235.000 350.950 3.946 o
3 7 7 17776.800 17406.700 202.093 9.678 o
3 7 8 15028.400 15067.800 172.995 12.450 o
3 7 9 6353.130 6494.500 105.071 40.007 o
3 7 10 291.459 237.275 61.482 529.895 o
3 7 11 9203.520 9249.250 205.817 20.534 o
3 7 12 892.362 849.209 96.746 191.013 o
3 7 13 346.967 294.139 88.817 297.126 o
3 7 14 140.446 191.742 126.791 177.798 o
3 7 15 5993.720 6053.920 382.957 14.784 o
3 8 0 1515.790 1563.460 30.689 234.568 o
3 8 1 2781.850 3022.820 39.282 117.792 o
3 8 2 13329.500 11529.300 110.198 16.928 o
3 8 3 8580.560 8943.150 87.469 28.817 o
3 8 4 18162.500 18255.200 207.911 9.226 o
3 8 5 58368.900 58284.100 563.046 1.297 o
3 8 6 43330.600 43245.000 497.816 2.106 o
3 8 7 5140.240 5221.400 87.046 53.334 o
3 8 8 2418.710 2866.420 79.501 109.753 o
3 8 9 12666.200 13033.400 208.195 14.359 o
3 8 10 13762.300 13916.000 191.312 13.496 o
3 8 11 1339.700 1284.450 86.872 171.410 o
3 8 12 7882.770 7854.310 164.558 27.052 o
3 8 13 5056.850 5202.620 148.775 42.990 o
3 8 14 310.819 -44.247 142.250 140.801 o
3 9 0 8764.040 9153.280 96.126 27.624 o
3 9 1 12431.400 12850.400 116.430 17.082 o
3 9 2 6670.470 6880.760 69.131 40.908 o
3 9 3 49951.500 51760.700 476.652 1.691 o
3 9 4 17766.100 17044.600 190.510 9.917 o
3 9 5 9209.910 9566.020 135.979 24.110 o
3 9 6 12779.000 12945.200 150.948 15.819 o
3 9 7 46626.100 46749.900 547.370 1.828 o
3 9 8 29802.600 29234.000 333.564 4.123 o
3 9 9 1041.610 1072.440 59.709 262.998 o
3 9 10 10100.800 10006.800 178.092 20.090 o
3 9 11 4740.730 4775.120 145.692 46.311 o
3 9 12 2701.460 2566.440 116.428 85.076 o
3 9 13 15.020 -48.186 110.726 248.242 o
3 9 14 3948.560 3035.810 187.272 45.314 o
3 10 0 11514.100 11734.800 112.613 19.141 o
3 10 1 20083.700 19673.800 172.364 8.438 o
3 10 2 3655.960 3710.850 55.599 85.277 o
3 10 3 31070.600 30676.400 273.520 4.061 o
3 10 4 16192.300 16309.700 178.988 11.161 o
3 10 5 15419.400 14690.500 170.752 12.343 o
3 10 6 10009.200 10269.600 126.095 22.344 o
3 10 7 7905.890 7917.500 121.625 30.186 o
3 10 8 8186.480 8743.270 126.618 27.940 o
3 10 9 6455.170 6752.940 125.406 36.766 o
3 10 10 10511.000 10667.200 140.170 20.585 o
3 10 11 4271.060 4213.410 130.863 54.412 o
3 10 12 8911.410 8908.660 205.109 21.272 o
3 10 13 1871.100 1885.720 117.281 105.949 o
3 10 14 3238.320 2915.730 163.557 56.804 o
3 11 0 11936.800 11445.000 99.555 19.067 o
3 11 1 36249.900 35644.000 333.714 3.091 o
3 11 2 21452.100 21430.200 167.856 7.622 o
3 11 3 19833.400 18837.200 197.460 8.492 o
3 11 4 16651.300 16546.100 207.182 10.413 o
3 11 5 7256.430 7409.310 119.504 33.201 o
3 11 6 10704.400 10916.700 147.971 19.796 o
3 11 7 1603.330 1657.980 53.240 194.696 o
3 11 8 522.388 463.089 49.306 497.157 o
3 11 9 7456.380 7483.470 138.549 30.808 o
3 11 10 6078.920 5814.980 166.932 34.793 o
3 11 11 2741.390 2757.270 99.132 92.388 o
3 11 12 9276.150 9267.250 179.110 21.918 o
3 11 13 3349.630 3388.600 129.125 66.266 o
3 11 14 7499.050 7244.150 290.991 18.653 o
3 12 0 20795.400 20609.300 176.738 7.946 o
3 12 1 53014.300 55149.400 420.770 1.577 o
3 12 2 46393.400 48083.600 402.128 1.973 o
3 12 3 5001.180 4929.200 59.648 59.914 o
3 12 4 13555.600 13157.000 140.491 15.150 o
3 12 5 8001.220 7798.000 92.899 32.021 o
3 12 6 36052.400 35914.800 416.025 2.914 o
3 12 7 3221.770 3206.010 79.098 89.320 o
3 12 8 2257.380 2171.690 64.309 136.070 o
3 12 9 12279.500 12237.300 182.882 15.839 o
3 12 10 10907.300 10718.900 209.432 17.216 o
3 12 11 6815.930 6993.250 167.523 30.626 o
3 12 12 1457.870 1275.770 126.301 113.770 o
3 12 13 4586.920 4820.040 147.264 46.707 o
3 12 14 1303.840 956.049 234.797 47.591 o
3 13 0 42287.400 40171.600 341.084 2.468 o
3 13 1 1177.880 1166.330 33.046 300.922 o
3 13 2 30724.000 30323.500 263.119 4.162 o
3 13 3 12150.800 12564.500 142.833 16.944 o
3 13 4 49478.900 49226.000 516.458 1.714 o
3 13 5 19678.000 19869.800 216.273 8.174 o
3 13 6 301.946 382.793 43.106 717.042 o
3 13 7 14971.700 14889.600 185.306 12.334 o
3 13 8 15741.800 15357.300 199.276 11.417 o
3 13 9 2987.800 3120.530 83.297 92.539 o
3 13 10 3485.200 3665.120 108.257 70.937 o
3 13 11 9131.650 9258.860 179.006 22.175 o
3 13 12 5650.240 5729.110 183.384 34.112 o
3 13 13 4684.460 4422.310 164.429 43.665 o
3 13 14 1568.260 1181.210 210.865 54.883 o
3 14 0 6607.060 6358.240 78.176 41.797 o
3 14 1 149.237 178.567 27.085 1622.760 o
3 14 2 30935.100 31688.400 311.204 3.900 o
3 14 3 14806.600 14916.600 189.907 12.356 o
3 14 4 16391.300 17284.800 188.761 10.616 o
3 14 5 2891.970 2948.640 85.045 95.183 o
3 14 6 2627.360 2703.640 63.822 115.671 o
3 14 7 5736.930 5850.060 95.557 46.046 o
3 14 8 8400.110 8672.010 159.438 25.350 o
3 14 9 300.842 232.009 57.954 568.041 o
3 14 10 2221.380 2305.680 93.225 112.360 o
3 14 11 3606.280 3864.120 116.976 65.577 o
3 14 12 1091.850 946.635 114.783 144.530 o
3 14 13 6931.020 6961.420 237.030 23.733 o
3 14 14 331.075 433.253 177.064 89.947 o
3 15 0 31802.500 31420.700 309.611 3.816 o
3 15 1 17523.200 17455.700 170.820 10.171 o
3 15 2 7704.590 7635.460 113.329 31.845 o
3 15 3 3103.730 3563.010 70.812 91.533 o
3 15 4 6145.260 6162.250 98.721 42.553 o
3 15 5 28910.400 28501.200 392.887 4.048 o
3 15 6 5914.570 6173.910 112.486 41.991 o
3 15 7 13627.100 14002.500 187.951 13.648 o
3 15 8 9086.240 9005.950 115.627 26.041 o
3 15 9 856.329 811.297 66.276 284.339 o
3 15 10 12600.700 12874.700 191.433 14.960 o
3 15 11 3334.180 3530.290 119.911 69.124 o
3 15 12 27.238 44.348 115.882 224.019 o
3 15 13 341.904 343.345 149.337 123.371 o
3 16 0 1716.970 2002.680 50.186 179.148 o
3 16 1 873.552 909.720 35.365 383.679 o
3 16 2 7518.830 7014.820 92.704 35.133 o
3 16 3 20553.200 21017.800 199.025 7.790 o
3 16 4 9759.900 10178.700 155.520 21.558 o
3 16 5 14442.400 14433.900 210.242 12.376 o
3 16 6 17377.400 17337.800 233.504 9.475 o
3 16 7 1433.690 1515.130 61.569 200.213 o
3 16 8 10323.300 11152.300 154.911 19.918 o
3 16 9 25789.700 25992.600 343.345 4.916 o
3 16 10 4206.610 4218.060 108.906 60.581 o
3 16 11 5545.300 5285.240 175.089 36.424 o
3 16 12 3917.260 3590.980 147.728 54.595 o
3 16 13 1561.970 1839.460 224.590 48.121 o
3 17 0 396.963 322.214 36.755 749.178 o
3 17 1 2355.400 2549.460 53.795 132.794 o
3 17 2 6269.760 6634.620 94.716 41.184 o
3 17 3 754.095 833.333 44.648 388.297 o
3 17 4 27513.100 28263.000 379.466 4.304 o
3 17 5 3669.130 3904.430 92.175 72.734 o
3 17 6 5235.790 5364.870 126.135 45.631 o
3 17 7 21650.200 22519.400 252.452 6.788 o
3 17 8 13359.600 13822.000 211.886 13.365 o
3 17 9 5477.570 5690.320 145.537 40.446 o
3 17 10 3699.330 3819.670 105.603 68.551 o
3 17 11 7853.450 7930.240 166.601 26.871 o
3 17 12 328.210 276.163 139.624 140.612 o
3 17 13 755.215 756.464 169.131 89.254 o
3 18 0 4732.600 4802.020 97.161 56.316 o
3 18 1 1483.040 1362.980 43.955 230.537 o
3 18 2 6645.140 6888.120 140.733 34.142 o
3 18 3 5693.360 6050.020 83.620 47.225 o
3 18 4 5752.570 6008.750 100.522 44.846 o
3 18 5 12512.800 12714.100 167.037 15.802 o
3 18 6 14306.400 14752.300 213.075 12.300 o
3 18 7 1271.920 1237.480 66.754 214.716 o
3 18 8 520.344 591.980 72.163 330.834 o
3 18 9 22845.800 23037.100 268.148 6.287 o
3 18 10 1960.220 1864.940 96.677 122.660 o
3 18 11 6175.050 6055.420 152.199 35.950 o
3 18 12 179.181 211.199 139.060 147.768 o
3 18 13 1231.770 1046.220 216.163 54.889 o
3 19 0 804.551 712.373 47.373 378.791 o
3 19 1 6792.330 6462.620 93.087 39.282 o
3 19 2 3277.100 3331.130 70.282 90.666 o
3 19 3 16677.900 16963.500 190.342 10.523 o
3 19 4 28560.600 29228.200 319.525 4.347 o
3 19 5 9822.810 10201.000 172.801 20.614 o
3 19 6 270.509 264.493 50.007 686.164 o
3 19 7 28148.500 28980.800 373.762 4.196 o
3 19 8 10621.300 11121.200 189.806 18.115 o
3 19 9 3319.170 3482.370 129.314 66.034 o
3 19 10 7984.750 8131.100 154.397 27.262 o
3 19 11 3507.640 3373.970 134.487 62.914 o
3 19 12 1180.740 995.492 149.556 98.775 o
3 20 0 1307.350 1489.790 56.762 219.741 o
3 20 1 5327.800 5609.870 80.002 51.593 o
3 20 2 3986.080 3925.350 90.661 69.288 o
3 20 3 33688.900 34287.100 280.087 3.519 o
3 20 4 1627.920 1645.010 62.450 181.202 o
3 20 5 41057.200 41701.200 419.196 2.382 o
3 20 6 39860.100 40927.100 428.311 2.460 o
3 20 7 3259.390 3310.240 95.763 80.983 o
3 20 8 11156.500 11414.900 156.040 18.512 o
3 20 9 6677.730 7229.090 151.568 32.333 o
3 20 10 7249.410 7385.390 170.045 28.701 o
3 20 11 42.721 -56.787 139.339 156.029 o
3 20 12 8365.790 8854.450 333.905 14.759 o
3 21 0 1031.340 1110.610 52.053 282.602 o
3 21 1 10975.500 11107.900 126.064 20.017 o
3 21 2 1688.940 1822.820 63.084 171.484 o
3 21 3 15922.500 16544.400 171.505 11.364 o
3 21 4 3612.860 3883.000 91.330 73.847 o
3 21 5 2693.850 2806.560 78.699 104.295 o
3 21 6 10485.900 11061.500 150.175 19.930 o
3 21 7 13457.100 13406.000 192.211 13.939 o
3 21 8 10043.200 10674.800 190.467 19.128 o
3 21 9 1542.860 1379.840 103.116 136.848 o
3 21 10 12462.800 12531.500 265.843 13.044 o
3 21 11 391.463 420.079 115.037 189.120 o
3 21 12 1033.350 995.432 167.369 85.433 o
3 22 0 7586.020 7888.760 128.061 30.685 o
3 22 1 5797.910 6210.250 123.465 41.010 o
3 22 2 8666.760 8660.870 139.255 26.074 o
3 22 3 2380.220 2452.770 77.700 117.526 o
3 22 4 4864.980 4808.600 94.975 55.657 o
3 22 5 2737.890 2714.090 81.051 103.027 o
3 22 6 1145.650 1230.670 66.811 226.019 o
3 22 7 4216.990 4147.080 106.379 61.470 o
3 22 8 7204.600 7525.220 167.498 28.870 o
3 22 9 4876.120 4596.670 148.720 45.449 o
3 22 10 1946.200 2062.080 125.028 96.410 o
3 22 11 274.058 149.844 155.627 118.131 o
3 22 12 6248.740 6538.510 267.980 22.417 o
3 23 0 2606.940 2636.480 74.727 110.806 o
3 23 1 1680.720 1774.490 74.070 159.707 o
3 23 2 887.179 904.642 58.718 299.096 o
3 23 3 13362.000 13771.000 196.669 13.757 o
3 23 4 6318.270 6311.550 110.176 40.016 o
3 23 5 183.894 173.686 69.850 494.600 o
3 23 6 1528.320 1715.490 78.941 162.384 o
3 23 7 11386.000 11506.400 208.766 16.292 o
3 23 8 2170.840 2321.290 106.461 103.341 o
3 23 9 150.309 -34.610 104.920 260.941 o
3 23 10 174.192 154.789 124.687 182.617 o
3 23 11 8236.890 8381.810 204.521 22.837 o
3 24 0 15914.400 16176.000 180.112 11.359 o
3 24 1 942.766 932.253 69.953 253.982 o
3 24 2 3608.730 3647.660 85.518 77.384 o
3 24 3 3043.200 3127.170 84.048 91.105 o
3 24 4 5103.250 5569.810 124.184 46.135 o
3 24 5 2022.830 1886.040 84.361 132.130 o
3 24 6 8021.720 8204.490 143.939 27.855 o
3 24 7 2563.720 2680.700 106.025 92.350 o
3 24 8 2496.940 2531.690 118.224 87.519 o
3 24 9 8994.890 9394.320 189.852 21.662 o
3 24 10 753.485 844.348 149.504 108.297 o
3 24 11 3055.520 3235.510 203.679 44.709 o
3 25 0 3414.000 3936.190 100.630 72.860 o
3 25 1 5811.920 5792.070 119.235 42.542 o
3 25 2 7038.940 6900.160 118.897 34.925 o
3 25 3 4495.530 4399.270 103.079 58.690 o
3 25 4 8144.360 7982.900 157.256 26.846 o
3 25 5 7991.940 7720.970 161.299 27.207 o
3 25 6 483.184 421.019 80.602 308.705 o
3 25 7 1071.160 1119.450 104.636 158.507 o
3 25 8 1157.160 1020.760 106.111 154.415 o
3 25 9 150.384 -37.159 120.630 200.405 o
3 25 10 4483.090 4455.750 170.111 43.365 o
3 26 0 2696.580 3023.900 97.601 91.618 o
3 26 1 1579.320 1425.970 88.207 154.148 o
3 26 2 875.820 961.051 73.422 249.528 o
3 26 3 8429.580 8369.100 152.055 26.115 o
3 26 4 239.124 358.893 86.198 323.289 o
3 26 5 12642.700 13247.300 210.586 14.220 o
3 26 6 5068.830 5034.990 130.251 46.763 o
3 26 7 870.344 925.198 125.340 136.286 o
3 26 8 7201.910 7224.800 195.755 26.651 o
3 26 9 3273.100 3558.520 156.919 56.476 o
3 26 10 1074.690 922.478 152.435 98.488 o
3 27 0 47.897 -53.185 80.543 455.773 o
3 27 1 5952.340 6298.060 170.332 33.968 o
3 27 2 5282.800 5077.430 119.120 47.401 o
3 27 3 8922.410 8758.760 145.159 25.043 o
3 27 4 9638.730 9614.400 178.481 21.078 o
3 27 5 8287.560 8577.800 162.013 25.518 o
3 27 6 834.715 801.673 80.941 239.448 o
3 27 7 16693.000 16293.100 281.002 9.313 o
3 27 8 9119.580 8907.080 229.819 19.519 o
3 27 9 3240.180 3215.110 173.163 52.637 o
3 28 0 354.865 379.688 86.615 301.003 o
3 28 1 2348.160 2403.900 107.085 98.365 o
3 28 2 4763.170 4869.730 137.648 47.557 o
3 28 3 6871.640 6623.320 135.107 34.409 o
3 28 4 3160.610 3193.460 109.853 77.257 o
3 28 5 12721.100 12785.500 253.067 13.139 o
3 28 6 11146.400 11101.300 185.681 17.644 o
3 28 7 2332.720 2369.170 113.327 94.803 o
3 28 8 1659.280 1686.750 148.736 86.426 o
3 28 9 14393.700 14096.700 305.667 10.428 o
3 29 0 1068.370 887.364 94.114 184.699 o
3 29 1 202.083 193.029 93.569 300.063 o
3 29 2 3401.840 3575.520 124.597 66.462 o
3 29 3 604.249 532.013 100.854 211.205 o
3 29 4 12841.600 13123.300 202.135 14.334 o
3 29 5 1199.870 1271.400 102.413 153.197 o
3 29 6 1213.620 1293.430 100.099 155.776 o
3 29 7 16495.600 15778.800 314.795 8.953 o
3 29 8 3700.600 3368.940 182.096 47.047 o
3 30 0 89.429 29.060 96.136 314.252 o
3 30 1 571.999 404.333 101.214 217.514 o
3 30 2 2148.920 2099.510 115.547 99.324 o
3 30 3 7210.890 7204.530 169.197 29.111 o
3 30 4 942.518 1022.900 112.899 151.934 o
3 30 5 5302.580 5418.830 157.371 39.908 o
3 30 6 8909.480 8745.850 208.570 21.189 o
3 30 7 3281.070 3009.640 242.845 35.299 o
3 30 8 7064.290 6457.910 236.320 23.998 o
3 31 0 2617.810 2572.170 120.023 84.306 o
3 31 1 3649.850 4214.180 128.391 59.963 o
3 31 2 727.342 606.594 109.277 179.064 o
3 31 3 84.012 247.248 136.223 156.518 o
3 31 4 4560.290 4673.820 148.075 47.089 o
3 31 5 12958.400 13213.100 246.220 13.002 o
3 31 6 2886.390 3048.800 152.571 63.116 o
3 31 7 9606.800 8305.900 411.570 11.117 o
3 32 0 1892.440 1507.340 129.426 99.094 o
3 32 1 809.124 956.842 138.821 118.742 o
3 32 2 2908.600 2832.790 138.285 69.927 o
3 32 3 12406.700 12403.100 339.885 11.011 o
3 32 4 1206.550 1170.840 125.964 121.871 o
3 32 5 787.541 904.399 130.763 131.079 o
3 32 6 619.967 341.282 155.393 109.095 o
3 33 0 5346.480 5421.210 183.521 35.599 o
3 33 1 1278.980 1457.910 139.929 101.910 o
3 33 2 3293.610 3307.750 173.696 51.862 o
3 33 3 1246.960 1597.060 172.869 75.486 o
3 33 4 4662.170 4728.800 186.197 38.871 o
3 33 5 2649.570 2556.890 180.086 56.178 o
3 34 0 3693.740 3755.340 169.630 49.368 o
3 34 1 4207.070 4171.230 179.396 43.310 o
3 34 2 6630.960 6763.020 197.119 28.340 o
3 34 3 307.564 407.895 161.864 106.659 o
3 34 4 1642.370 1483.190 170.205 73.628 o
3 35 0 58.669 111.039 154.079 126.036 o
3 35 1 4234.000 4260.200 175.538 43.828 o
3 35 2 2449.330 2155.580 180.261 58.867 o
4 0 0 18622.700 16808.400 440.736 6.397 o
4 0 1 12726.200 13661.100 193.874 14.420 o
4 0 2 15869.600 15365.400 258.581 10.299 o
4 0 3 9238.020 8719.420 92.388 27.136 o
4 0 4 10054.700 9770.030 125.709 22.739 o
4 0 5 7312.510 6876.300 93.717 36.130 o
4 0 6 13634.800 12756.700 159.371 14.852 o
4 0 7 3353.620 3203.430 61.833 93.516 o
4 0 8 4828.080 4916.850 99.350 54.677 o
4 0 9 6609.470 6271.100 101.445 39.729 o
4 0 10 22191.700 22909.900 280.156 6.382 o
4 0 11 2784.720 2775.620 124.371 78.255 o
4 0 12 1185.860 797.700 102.909 163.682 o
4 0 13 1884.830 1765.230 119.673 104.900 o
4 0 14 52.655 -6.747 133.603 169.113 o
4 0 15 1187.880 1025.910 193.557 66.244 o
4 1 0 430.273 626.698 14.234 789.683 o
4 1 1 8920.420 9294.070 104.808 26.633 o
4 1 2 9602.830 8747.880 96.275 26.036 o
4 1 3 5659.620 5261.680 46.699 54.259 o
4 1 4 6862.960 6489.220 105.960 37.676 o
4 1 5 48819.900 48234.500 477.015 1.795 o
4 1 6 26048.300 24995.900 275.540 5.318 o
4 1 7 1951.320 1970.160 67.633 149.707 o
4 1 8 11991.900 12015.200 190.844 16.005 o
4 1 9 14532.700 14698.300 210.490 12.217 o
4 1 10 5557.260 5713.550 162.380 37.499 o
4 1 11 11846.500 11578.800 284.192 13.245 o
4 1 12 2703.230 2918.760 115.969 82.659 o
4 1 13 1497.870 1456.440 118.441 118.992 o
4 1 14 1432.700 1456.010 142.840 96.484 o
4 1 15 184.194 16.343 169.211 103.563 o
4 2 0 3188.690 3370.810 35.533 103.364 o
4 2 1 31179.200 29642.800 321.890 3.962 o
4 2 2 50694.900 50512.100 487.677 1.677 o
4 2 3 34691.900 33589.300 336.699 3.319 o
4 2 4 22635.700 22094.100 225.577 6.761 o
4 2 5 6127.080 6378.830 86.867 43.406 o
4 2 6 5002.710 5323.580 71.754 56.404 o
4 2 7 67856.800 67438.300 695.460 0.969 o
4 2 8 32368.200 31445.400 372.698 3.561 o
4 2 9 781.065 665.074 56.501 348.599 o
4 2 10 3530.430 3754.450 87.850 76.941 o
4 2 11 8363.020 8201.450 165.795 25.496 o
4 2 12 2000.500 2103.330 114.732 102.941 o
4 2 13 626.593 402.319 132.327 141.631 o
4 2 14 1756.680 1744.950 138.951 91.795 o
4 2 15 163.576 145.137 176.108 95.204 o
4 3 0 1570.160 1439.020 21.667 244.253 o
4 3 1 10274.800 9879.490 95.463 23.367 o
4 3 2 42654.800 42215.500 420.651 2.276 o
4 3 3 12914.800 12947.200 150.731 15.680 o
4 3 4 10967.200 10655.600 108.827 20.949 o
4 3 5 31840.300 31598.200 315.261 3.784 o
4 3 6 7214.110 6679.680 87.600 37.428 o
4 3 7 15429.400 15596.400 176.771 11.919 o
4 3 8 5135.360 4999.070 103.946 51.284 o
4 3 9 1737.240 1783.240 64.206 168.550 o
4 3 10 2700.630 2718.470 92.590 97.219 o
4 3 11 430.020 287.633 77.032 349.930 o
4 3 12 94.432 -122.359 89.789 359.496 o
4 3 13 194.654 106.985 124.987 181.986 o
4 3 14 1653.840 1340.170 141.330 94.968 o
4 3 15 1503.930 1215.070 211.999 54.678 o
4 4 0 21652.400 21950.300 225.610 7.072 o
4 4 1 39609.200 38132.200 380.315 2.648 o
4 4 2 9854.840 9679.930 110.278 23.865 o
4 4 3 9583.150 9487.710 99.837 25.081 o
4 4 4 11195.800 10257.300 121.590 20.488 o
4 4 5 35770.900 34340.400 339.167 3.179 o
4 4 6 28322.700 26957.300 291.507 4.668 o
4 4 7 3049.930 3010.670 80.045 93.909 o
4 4 8 2140.770 2162.410 71.534 134.678 o
4 4 9 10799.900 10648.100 137.243 20.256 o
4 4 10 10838.000 10726.600 159.266 19.307 o
4 4 11 2641.580 2724.950 96.577 96.024 o
4 4 12 836.379 778.692 93.592 204.896 o
4 4 13 1540.420 1348.410 110.959 127.848 o
4 4 14 672.965 362.581 145.554 120.398 o
4 4 15 870.913 811.966 211.636 59.741 o
4 5 0 5661.380 5698.200 52.956 51.992 o
4 5 1 13668.600 13414.200 138.587 14.950 o
4 5 2 22552.900 21156.400 215.791 6.989 o
4 5 3 20794.200 18956.400 252.761 7.593 o
4 5 4 42841.000 42111.100 491.531 2.165 o
4 5 5 368.811 348.754 26.560 909.469 o
4 5 6 18375.300 18464.300 232.067 8.806 o
4 5 7 59702.100 59000.300 691.005 1.181 o
4 5 8 40738.800 40395.800 515.390 2.276 o
4 5 9 36913.400 36993.500 411.980 2.818 o
4 5 10 94.260 107.053 60.474 700.750 o
4 5 11 2079.680 2331.550 94.503 114.703 o
4 5 12 8342.760 8110.170 201.860 23.075 o
4 5 13 3459.010 3688.890 131.460 62.968 o
4 5 14 437.047 207.084 122.806 172.675 o
4 5 15 366.527 157.852 175.325 93.017 o
4 6 0 1503.410 1442.900 36.572 234.956 o
4 6 1 6799.740 6863.950 77.681 39.659 o
4 6 2 4130.370 4216.980 51.676 75.085 o
4 6 3 4088.290 3816.430 57.198 77.337 o
4 6 4 69681.200 70307.600 741.096 0.905 o
4 6 5 74255.800 73476.800 744.133 0.828 o
4 6 6 107280.000 109860.000 1076.350 0.407 o
4 6 7 11755.300 11567.600 161.482 17.468 o
4 6 8 708.579 797.427 49.657 381.609 o
4 6 9 43480.400 43869.200 536.872 2.028 o
4 6 10 9458.900 9465.690 159.122 22.519 o
4 6 11 18186.800 18294.800 270.176 8.450 o
4 6 12 5008.510 4962.170 128.923 47.574 o
4 6 13 583.941 594.907 108.962 188.353 o
4 6 14 42.662 144.524 132.074 170.111 o
4 6 15 429.484 -457.656 364.632 22.668 o
4 7 0 443.667 401.783 16.644 887.836 o
4 7 1 4632.010 4435.840 45.404 68.360 o
4 7 2 5754.800 5749.380 61.286 50.322 o
4 7 3 22699.400 23460.900 243.512 6.437 o
4 7 4 57329.900 58904.100 604.373 1.287 o
4 7 5 13694.600 13056.300 155.250 14.745 o
4 7 6 856.089 726.351 40.004 395.138 o
4 7 7 75052.300 77457.200 895.563 0.748 o
4 7 8 21465.800 21288.600 285.561 6.744 o
4 7 9 11191.600 11544.400 204.212 16.645 o
4 7 10 19885.800 20012.300 275.903 7.490 o
4 7 11 8032.580 8122.320 147.851 27.643 o
4 7 12 5162.410 5238.730 139.151 44.089 o
4 7 13 5234.700 4980.380 169.755 39.033 o
4 7 14 488.584 483.465 136.147 138.257 o
4 8 0 44719.300 46337.400 377.236 2.118 o
4 8 1 8338.310 8491.560 94.057 29.824 o
4 8 2 3646.510 3801.710 65.944 81.826 o
4 8 3 30522.800 29200.900 320.323 4.079 o
4 8 4 3138.680 3184.280 56.322 100.210 o
4 8 5 3589.850 3380.850 61.525 87.572 o
4 8 6 13080.600 12435.200 143.425 15.952 o
4 8 7 10757.700 10483.600 141.471 20.291 o
4 8 8 62240.300 63318.400 692.075 1.094 o
4 8 9 12476.300 12474.600 178.750 15.636 o
4 8 10 7219.870 7104.130 142.499 31.739 o
4 8 11 361.906 339.640 79.463 343.293 o
4 8 12 3194.420 3457.350 128.453 67.742 o
4 8 13 303.233 421.741 133.695 150.143 o
4 8 14 493.058 471.454 134.889 140.470 o
4 9 0 16739.600 17191.100 166.970 10.731 o
4 9 1 7774.610 7446.820 73.360 34.617 o
4 9 2 6683.460 6263.770 64.713 42.767 o
4 9 3 17208.100 16608.200 180.249 10.461 o
4 9 4 1656.120 1764.080 40.864 201.709 o
4 9 5 73075.100 73998.700 644.909 0.871 o
4 9 6 31675.500 31622.900 341.612 3.722 o
4 9 7 4504.050 4423.460 96.734 59.967 o
4 9 8 1467.560 1580.970 53.198 208.081 o
4 9 9 629.839 608.933 57.083 386.903 o
4 9 10 25165.200 24845.500 310.215 5.316 o
4 9 11 481.981 335.768 86.293 287.599 o
4 9 12 6399.980 6132.750 179.873 31.674 o
4 9 13 1004.100 690.444 121.937 141.018 o
4 9 14 493.453 402.345 138.513 135.393 o
4 10 0 9149.130 9116.350 94.581 26.764 o
4 10 1 35340.600 35503.600 303.717 3.241 o
4 10 2 5921.870 5935.780 63.327 48.361 o
4 10 3 28615.900 28650.100 256.340 4.621 o
4 10 4 6591.070 7620.930 98.841 37.115 o
4 10 5 23570.200 23728.900 266.013 6.041 o
4 10 6 7861.380 7951.780 115.450 30.710 o
4 10 7 8102.280 7802.070 115.964 30.180 o
4 10 8 25466.400 25832.400 323.037 5.097 o
4 10 9 3721.680 3948.160 103.501 68.272 o
4 10 10 4301.940 4314.780 98.254 61.966 o
4 10 11 2463.360 2616.430 112.001 91.105 o
4 10 12 3120.020 3542.950 129.234 67.766 o
4 10 13 4082.360 3946.480 150.361 51.577 o
4 10 14 1215.880 1329.900 149.594 95.294 o
4 11 0 15527.600 14837.400 150.298 12.542 o
4 11 1 20983.000 21908.400 202.283 7.464 o
4 11 2 12088.000 12159.100 128.185 17.657 o
4 11 3 26634.400 25967.600 243.828 5.259 o
4 11 4 11862.300 12080.800 151.103 17.346 o
4 11 5 10466.100 10894.900 115.587 21.375 o
4 11 6 13021.200 13618.100 186.230 14.373 o
4 11 7 18793.000 19018.600 240.503 8.428 o
4 11 8 10852.800 11352.400 160.468 18.805 o
4 11 9 7111.200 7324.100 110.667 34.627 o
4 11 10 1849.070 2077.560 81.436 137.809 o
4 11 11 3019.360 3374.180 109.157 78.241 o
4 11 12 2297.470 2604.540 111.043 94.784 o
4 11 13 555.268 686.733 116.103 170.553 o
4 11 14 7388.950 7557.080 227.748 23.236 o
4 12 0 3993.360 4248.590 54.538 76.195 o
4 12 1 18137.900 18185.400 162.314 9.751 o
4 12 2 34163.600 34769.800 314.440 3.366 o
4 12 3 16807.300 16389.100 183.501 10.707 o
4 12 4 63807.800 65451.900 663.462 1.063 o
4 12 5 11094.500 11550.900 157.478 18.454 o
4 12 6 3618.480 3640.640 95.334 73.981 o
4 12 7 19960.200 20453.700 255.627 7.594 o
4 12 8 15365.600 16335.100 188.355 11.527 o
4 12 9 1362.190 1384.550 65.189 204.473 o
4 12 10 1751.830 1651.310 95.608 133.807 o
4 12 11 6535.320 6693.180 182.054 30.270 o
4 12 12 13101.500 12918.100 295.519 11.680 o
4 12 13 8227.440 8475.770 310.793 16.181 o
4 12 14 3030.010 2730.910 186.627 51.062 o
4 13 0 50799.500 49792.300 410.134 1.753 o
4 13 1 17414.000 16328.800 161.965 10.651 o
4 13 2 23330.200 22468.500 181.149 6.777 o
4 13 3 7731.980 8311.270 91.022 32.179 o
4 13 4 13184.200 13700.400 161.780 14.776 o
4 13 5 8668.080 8394.030 138.075 26.453 o
4 13 6 40813.700 40501.600 483.362 2.324 o
4 13 7 1298.810 1366.770 58.136 223.547 o
4 13 8 518.700 472.302 54.682 455.454 o
4 13 9 11821.800 12370.500 177.940 16.405 o
4 13 10 14198.100 14683.800 194.884 12.784 o
4 13 11 9887.580 9812.780 174.261 20.744 o
4 13 12 2080.550 1867.880 139.921 85.215 o
4 13 13 160.322 179.465 169.213 102.584 o
4 13 14 5421.750 5357.070 205.936 32.198 o
4 14 0 2121.030 2458.770 57.586 140.924 o
4 14 1 10703.300 10491.300 113.050 21.401 o
4 14 2 29855.500 30392.800 238.892 4.353 o
4 14 3 5010.540 5075.840 68.230 57.923 o
4 14 4 9393.560 9256.450 135.085 24.097 o
4 14 5 5455.230 5578.780 100.057 47.930 o
4 14 6 7196.440 7012.840 142.144 31.986 o
4 14 7 3356.770 3494.110 99.783 76.732 o
4 14 8 15780.600 16265.900 208.119 10.970 o
4 14 9 15885.200 16729.400 220.346 10.580 o
4 14 10 1368.780 1255.970 88.514 167.916 o
4 14 11 292.885 293.481 93.442 281.497 o
4 14 12 3996.720 3783.310 159.478 50.222 o
4 14 13 7229.700 7526.590 195.902 26.254 o
4 15 0 1641.550 1438.310 41.736 215.348 o
4 15 1 4624.870 4667.430 62.714 64.460 o
4 15 2 4531.020 5040.860 62.336 63.559 o
4 15 3 11777.700 13026.500 152.465 16.845 o
4 15 4 14402.200 13959.200 184.214 13.126 o
4 15 5 755.845 769.719 46.273 388.825 o
4 15 6 3003.360 2984.040 79.221 95.470 o
4 15 7 19088.900 19051.700 239.329 8.321 o
4 15 8 14713.800 15180.600 177.829 12.552 o
4 15 9 6517.640 6500.450 144.773 34.816 o
4 15 10 14.507 -47.070 81.127 460.283 o
4 15 11 7561.090 7256.130 155.913 29.324 o
4 15 12 1376.450 1467.640 121.322 118.853 o
4 15 13 1093.550 999.878 148.778 101.050 o
4 16 0 3310.860 3173.400 67.450 92.586 o
4 16 1 7245.130 6879.270 98.469 36.003 o
4 16 2 2292.090 2343.820 48.983 142.294 o
4 16 3 2032.290 2064.630 51.711 158.413 o
4 16 4 23282.300 24304.700 285.934 5.913 o
4 16 5 10338.500 10615.800 126.830 21.426 o
4 16 6 14537.300 14791.600 205.245 12.288 o
4 16 7 6885.240 7101.040 132.984 33.748 o
4 16 8 5195.850 5287.570 121.882 46.812 o
4 16 9 6036.650 6419.810 135.183 37.960 o
4 16 10 9822.700 9585.370 160.438 21.715 o
4 16 11 4223.750 4607.000 155.476 47.511 o
4 16 12 1026.060 852.920 124.937 133.076 o
4 16 13 438.113 584.933 153.161 113.107 o
4 17 0 1005.520 1074.380 43.828 312.231 o
4 17 1 310.897 304.351 38.034 825.847 o
4 17 2 5530.300 5535.840 72.642 51.381 o
4 17 3 3819.130 3741.330 71.644 78.060 o
4 17 4 5345.160 5666.010 89.834 49.875 o
4 17 5 2530.190 2615.760 73.478 113.878 o
4 17 6 13994.200 14042.000 232.912 12.320 o
4 17 7 5611.880 5605.100 133.663 41.857 o
4 17 8 23100.400 24407.800 309.963 5.782 o
4 17 9 12672.700 12914.400 188.910 14.944 o
4 17 10 650.317 587.106 89.408 241.100 o
4 17 11 1289.590 1060.140 109.176 143.553 o
4 17 12 2762.950 2895.520 157.797 62.729 o
4 17 13 213.152 -77.069 184.149 87.617 o
4 18 0 5033.930 5630.640 107.003 49.322 o
4 18 1 4025.860 4585.840 96.994 63.640 o
4 18 2 3192.730 3091.580 60.622 98.421 o
4 18 3 5281.680 5366.920 79.954 52.823 o
4 18 4 5932.020 6232.860 100.497 43.267 o
4 18 5 2754.570 2609.880 70.728 109.661 o
4 18 6 9908.990 9844.530 153.118 21.701 o
4 18 7 253.703 284.054 64.538 502.582 o
4 18 8 801.188 936.185 75.031 254.213 o
4 18 9 4344.690 4377.370 112.678 57.756 o
4 18 10 8785.710 8278.990 208.399 21.757 o
4 18 11 376.847 528.393 115.520 185.555 o
4 18 12 861.090 401.591 151.061 108.798 o
4 18 13 3187.490 2853.010 195.199 47.323 o
4 19 0 4177.600 4492.710 84.569 65.644 o
4 19 1 1564.710 1617.960 52.278 200.322 o
4 19 2 771.950 860.252 43.739 384.146 o
4 19 3 17635.800 17783.000 213.977 9.507 o
4 19 4 4969.860 5452.590 90.751 53.133 o
4 19 5 33921.400 34936.600 405.277 3.154 o
4 19 6 7728.620 8049.660 131.603 29.764 o
4 19 7 6238.640 6352.200 144.880 36.087 o
4 19 8 6028.000 6124.670 153.374 36.212 o
4 19 9 3500.790 3322.330 114.284 70.529 o
4 19 10 6628.750 6595.800 159.251 32.653 o
4 19 11 2083.610 1998.620 127.432 92.763 o
4 19 12 2823.750 3054.890 176.667 54.627 o
4 20 0 126.322 265.016 46.166 904.791 o
4 20 1 12554.400 12734.100 138.499 16.488 o
4 20 2 8864.250 8996.890 108.572 26.949 o
4 20 3 20420.500 20561.800 233.138 7.630 o
4 20 4 2971.700 2994.050 70.128 100.274 o
4 20 5 2026.680 2184.450 62.982 146.134 o
4 20 6 3728.400 3655.700 88.886 74.616 o
4 20 7 21842.100 21031.500 285.171 6.680 o
4 20 8 32098.300 31275.500 405.319 3.494 o
4 20 9 1155.330 1330.400 99.946 157.800 o
4 20 10 9721.940 9502.180 250.806 17.336 o
4 20 11 652.491 607.831 151.492 110.444 o
4 20 12 583.015 723.085 167.124 93.798 o
4 21 0 13892.400 14581.300 166.715 13.646 o
4 21 1 4673.170 4653.890 96.198 57.614 o
4 21 2 4641.440 4695.160 84.854 60.032 o
4 21 3 7847.350 8208.960 145.677 28.162 o
4 21 4 1880.150 1782.840 61.053 164.464 o
4 21 5 6416.930 6687.850 97.823 40.030 o
4 21 6 3180.940 3457.640 88.028 84.223 o
4 21 7 6275.700 6483.140 129.185 37.593 o
4 21 8 4182.910 4584.390 121.320 56.082 o
4 21 9 3365.080 3544.450 127.157 66.060 o
4 21 10 1564.420 1710.240 123.202 109.358 o
4 21 11 2296.220 2404.210 147.774 74.364 o
4 21 12 11546.200 11466.800 277.543 13.725 o
4 22 0 89.894 251.232 50.261 858.273 o
4 22 1 8920.720 8981.700 125.779 25.912 o
4 22 2 4733.040 5038.040 90.802 56.594 o
4 22 3 4124.830 4361.640 106.636 61.264 o
4 22 4 22096.600 22698.900 284.088 6.403 o
4 22 5 7571.230 7522.170 132.502 30.918 o
4 22 6 14649.800 14798.600 155.203 13.154 o
4 22 7 4933.190 4912.650 129.896 47.979 o
4 22 8 3992.580 4332.260 120.064 58.960 o
4 22 9 2806.720 3375.160 143.696 65.932 o
4 22 10 2657.510 2843.320 139.135 72.200 o
4 22 11 10148.300 10168.400 261.481 16.072 o
4 23 0 13950.700 13864.600 137.604 14.483 o
4 23 1 5483.430 5541.570 112.800 45.922 o
4 23 2 13294.100 13443.200 153.404 14.985 o
4 23 3 1912.130 2380.570 74.666 136.324 o
4 23 4 3319.290 3272.520 88.420 83.342 o
4 23 5 2373.180 2464.320 78.653 116.894 o
4 23 6 19632.700 20171.400 211.930 8.174 o
4 23 7 3126.520 3234.770 98.164 82.511 o
4 23 8 2030.450 2080.180 112.506 104.323 o
4 23 9 22997.300 23316.300 336.300 5.736 o
4 23 10 2112.420 2311.230 136.323 83.915 o
4 23 11 2872.490 3400.680 187.294 49.868 o
4 24 0 581.309 844.661 60.971 350.603 o
4 24 1 13174.700 12730.200 177.492 14.861 o
4 24 2 11212.700 11576.700 169.283 17.869 o
4 24 3 1931.460 2094.850 76.703 139.061 o
4 24 4 23979.600 25098.800 346.720 5.295 o
4 24 5 561.551 540.563 66.663 357.238 o
4 24 6 1932.160 1960.010 96.068 122.662 o
4 24 7 8730.500 8652.970 166.774 24.210 o
4 24 8 3112.880 3455.390 132.505 67.013 o
4 24 9 395.072 237.400 115.348 193.527 o
4 24 10 773.992 599.005 144.784 116.217 o
4 24 11 8264.560 8607.730 302.793 16.519 o
4 25 0 35496.700 35450.500 374.955 3.073 o
4 25 1 4221.050 4343.830 101.205 61.853 o
4 25 2 6580.360 6618.320 119.807 37.147 o
4 25 3 14038.900 14682.800 214.381 12.483 o
4 25 4 5135.730 5000.460 164.076 40.377 o
4 25 5 3858.680 3908.180 102.600 67.282 o
4 25 6 3147.470 3132.290 93.643 84.968 o
4 25 7 1043.740 996.791 101.269 168.799 o
4 25 8 2120.080 2223.610 114.177 99.681 o
4 25 9 1513.680 1552.860 130.643 105.077 o
4 25 10 500.508 815.016 142.992 122.627 o
4 26 0 83.869 192.585 74.676 474.990 o
4 26 1 18383.800 17804.700 193.105 9.396 o
4 26 2 19780.400 20124.400 260.425 7.662 o
4 26 3 1964.140 2262.770 88.499 124.084 o
4 26 4 1353.690 1548.030 89.724 159.545 o
4 26 5 9868.380 9602.340 159.181 21.685 o
4 26 6 1169.940 1289.620 83.332 187.546 o
4 26 7 10877.500 11359.500 193.456 17.513 o
4 26 8 7360.650 7270.070 208.183 25.177 o
4 26 9 1373.780 1267.390 136.462 105.277 o
4 26 10 6246.100 5984.140 218.987 27.766 o
4 27 0 11063.100 10700.500 187.712 17.911 o
4 27 1 2390.670 2482.860 99.693 101.669 o
4 27 2 1462.570 1600.860 104.775 133.750 o
4 27 3 22315.500 22811.600 337.334 5.928 o
4 27 4 3756.740 3625.510 107.614 68.329 o
4 27 5 11976.300 12059.300 219.018 15.088 o
4 27 6 5242.500 5193.550 117.660 47.550 o
4 27 7 7180.530 7192.050 173.415 28.809 o
4 27 8 10159.500 10412.200 305.837 14.098 o
4 27 9 5027.360 5585.130 190.607 35.305 o
4 28 0 611.305 548.628 101.569 207.991 o
4 28 1 6248.910 6161.990 138.922 37.153 o
4 28 2 1001.180 1199.910 104.715 159.715 o
4 28 3 3720.740 3673.390 110.256 67.591 o
4 28 4 711.663 747.660 93.765 215.076 o
4 28 5 13536.700 13304.700 236.474 12.809 o
4 28 6 6837.680 6760.370 161.322 31.542 o
4 28 7 1455.320 1753.510 127.814 106.872 o
4 28 8 486.974 597.369 142.496 126.534 o
4 28 9 1784.430 1802.300 175.000 68.029 o
4 29 0 492.653 411.637 92.227 256.176 o
4 29 1 37.278 146.342 93.596 329.490 o
4 29 2 1643.940 1825.290 110.942 118.092 o
4 29 3 2101.450 2361.970 101.625 108.121 o
4 29 4 3305.140 3331.290 110.988 74.057 o
4 29 5 1050.440 1185.060 134.747 115.140 o
4 29 6 1464.190 1540.920 110.260 128.061 o
4 29 7 5211.590 4794.980 181.697 37.472 o
4 29 8 4875.430 4541.320 240.054 29.825 o
4 30 0 485.426 558.829 98.812 225.993 o
4 30 1 667.367 668.968 117.105 163.547 o
4 30 2 1646.130 1593.810 108.166 124.185 o
4 30 3 2668.610 2663.210 111.462 87.585 o
4 30 4 6652.300 6059.770 187.424 30.211 o
4 30 5 9121.200 9303.040 186.665 21.715 o
4 30 6 4984.640 4638.810 168.750 40.963 o
4 30 7 8188.000 6936.770 380.922 13.328 o
4 30 8 1511.190 1634.410 182.579 67.102 o
4 31 0 4628.670 4773.520 133.823 49.450 o
4 31 1 570.015 554.471 109.921 187.957 o
4 31 2 583.048 483.466 114.913 177.014 o
4 31 3 13660.300 13621.400 235.175 12.642 o
4 31 4 3773.510 3637.360 167.396 49.854 o
4 31 5 1937.230 1862.690 133.131 92.236 o
4 31 6 3487.520 2976.140 244.351 34.490 o
4 31 7 4089.120 4048.400 273.344 27.361 o
4 32 0 18.453 20.739 116.738 222.386 o
4 32 1 7160.720 7279.070 171.715 28.908 o
4 32 2 5744.540 6098.420 171.901 34.779 o
4 32 3 782.288 1078.770 143.312 112.423 o
4 32 4 4176.570 4045.900 147.953 51.279 o
4 32 5 6852.200 6505.980 224.110 25.462 o
4 32 6 2779.210 2463.180 173.625 58.042 o
4 33 0 11430.800 12449.900 234.239 14.899 o
4 33 1 4165.050 4274.370 156.861 48.455 o
4 33 2 9156.480 9167.150 206.032 20.652 o
4 33 3 2367.220 2290.850 154.563 70.686 o
4 33 4 3243.930 3404.020 157.647 57.007 o
4 33 5 3696.120 3636.420 252.540 31.689 o
4 34 0 403.283 188.155 144.417 131.457 o
4 34 1 4586.690 4339.930 213.840 34.894 o
4 34 2 5819.410 5830.300 183.087 33.461 o
4 34 3 2212.410 2068.550 179.039 61.447 o
4 34 4 15083.000 14872.900 360.162 8.872 o
4 35 0 11733.800 12397.600 317.269 12.020 o
4 35 1 530.107 549.261 181.949 82.533 o
4 35 2 3862.910 3956.790 196.563 41.472 o
5 0 1 183114.000 177344.000 1768.060 0.152 o
5 0 2 294.179 350.379 18.594 1160.720 o
5 0 3 10599.700 11828.600 137.697 19.646 o
5 0 4 3218.180 2904.510 44.071 105.891 o
5 0 5 17170.700 16453.500 188.300 10.419 o
5 0 6 1.244 14.656 29.020 3466.200 o
5 0 7 1781.290 1592.730 47.884 190.955 o
5 0 8 16719.200 16892.200 246.007 9.710 o
5 0 9 2336.630 2225.630 66.177 130.809 o
5 0 10 29340.400 29527.800 357.504 4.073 o
5 0 11 137.761 133.883 72.048 495.445 o
5 0 12 10903.600 11186.900 208.361 17.000 o
5 0 13 14417.200 14119.500 284.812 10.866 o
5 0 14 5044.340 4774.220 166.690 40.790 o
5 0 15 538.208 544.180 182.214 82.257 o
5 1 0 186241.000 170303.000 2796.040 0.124 o
5 1 1 11962.000 12390.700 141.083 17.323 o
5 1 2 47008.400 46737.900 551.398 1.809 o
5 1 3 79731.600 77688.600 805.605 0.729 o
5 1 4 13478.700 13660.900 161.527 14.525 o
5 1 5 9497.380 9650.030 127.195 23.876 o
5 1 6 7127.090 7345.450 89.175 36.288 o
5 1 7 14314.000 14175.800 210.367 12.555 o
5 1 8 17476.100 16853.700 224.965 9.660 o
5 1 9 1947.120 1920.950 63.635 155.000 o
5 1 10 9274.730 9339.410 139.177 24.042 o
5 1 11 13549.000 13522.600 200.982 13.601 o
5 1 12 19498.600 19734.700 343.733 6.932 o
5 1 13 2827.960 2986.850 128.007 74.634 o
5 1 14 12897.700 12016.100 263.870 12.977 o
5 1 15 5463.960 5845.510 206.368 31.357 o
5 2 0 81993.500 78632.900 792.330 0.707 o
5 2 1 6854.050 6815.800 76.872 39.582 o
5 2 2 48564.900 49263.700 513.832 1.748 o
5 2 3 4375.950 4187.470 67.317 69.013 o
5 2 4 35861.100 34231.300 358.816 3.131 o
5 2 5 61211.600 61444.300 630.868 1.163 o
5 2 6 15837.800 16122.200 214.926 10.867 o
5 2 7 3452.250 3520.860 80.603 82.304 o
5 2 8 6193.480 5802.870 108.156 42.078 o
5 2 9 15171.100 14935.100 216.156 11.606 o
5 2 10 8259.790 8113.950 147.303 27.138 o
5 2 11 1031.930 1222.580 82.835 200.164 o
5 2 12 2110.950 2267.720 125.394 91.444 o
5 2 13 10247.500 9933.290 275.144 15.493 o
5 2 14 2467.870 2492.890 160.278 66.002 o
5 2 15 3738.440 4198.160 201.484 40.414 o
5 3 0 22692.100 21551.800 230.739 6.787 o
5 3 1 4252.720 4534.580 63.173 69.264 o
5 3 2 9616.590 9220.860 87.469 25.800 o
5 3 3 12201.600 11926.600 132.728 17.541 o
5 3 4 1723.460 1956.650 43.547 187.031 o
5 3 5 3419.950 3794.800 75.115 82.570 o
5 3 6 28691.200 29806.900 338.602 4.214 o
5 3 7 7846.940 7962.170 114.521 30.804 o
5 3 8 8100.470 8483.440 112.373 29.439 o
5 3 9 10904.300 10834.600 172.328 18.632 o
5 3 10 11.540 31.351 60.170 816.179 o
5 3 11 5747.630 5715.300 165.875 36.276 o
5 3 12 2346.360 2530.900 109.558 95.527 o
5 3 13 300.059 488.845 102.474 232.482 o
5 3 14 1959.060 1916.120 143.107 84.478 o
5 3 15 5101.240 5030.180 201.959 34.194 o
5 4 0 20581.900 19580.500 173.923 8.245 o
5 4 1 26465.100 25489.600 275.152 5.193 o
5 4 2 599.081 538.528 19.467 652.426 o
5 4 3 8008.960 8598.300 95.069 30.595 o
5 4 4 64362.100 64651.300 710.243 1.037 o
5 4 5 12326.600 12256.500 146.601 16.816 o
5 4 6 21087.300 21307.400 266.957 7.007 o
5 4 7 12296.600 11967.600 147.876 16.986 o
5 4 8 7628.360 7657.970 121.779 31.401 o
5 4 9 4899.420 4813.380 95.093 55.342 o
5 4 10 4616.980 4725.800 156.302 44.918 o
5 4 11 8157.910 7829.790 156.718 27.035 o
5 4 12 30.183 10.156 90.471 366.454 o
5 4 13 5483.790 5362.110 187.394 34.663 o
5 4 14 21.823 267.687 138.849 152.846 o
5 4 15 2895.340 2955.110 265.634 32.044 o
5 5 0 16118.500 16850.500 178.477 11.048 o
5 5 1 2836.520 3024.260 45.178 114.000 o
5 5 2 20265.300 19724.100 314.886 7.023 o
5 5 3 11712.300 11076.900 116.170 19.234 o
5 5 4 53282.700 53864.700 579.564 1.468 o
5 5 5 6351.420 6027.580 96.816 42.062 o
5 5 6 13012.500 13158.900 161.348 15.215 o
5 5 7 45170.500 45646.100 518.361 1.944 o
5 5 8 24893.400 25127.900 318.557 5.293 o
5 5 9 3823.920 3885.170 88.103 72.201 o
5 5 10 2969.610 2949.050 84.111 94.130 o
5 5 11 11131.900 11534.700 232.182 15.671 o
5 5 12 3882.800 4053.850 120.695 60.928 o
5 5 13 1001.990 1028.840 109.232 155.614 o
5 5 14 117.267 447.021 127.029 172.072 o
5 6 0 2738.380 2516.850 49.125 122.846 o
5 6 1 840.128 866.840 22.974 439.636 o
5 6 2 6167.030 6391.300 72.460 44.602 o
5 6 3 21427.600 21656.200 239.396 7.080 o
5 6 4 9431.910 8947.920 99.832 26.050 o
5 6 5 15517.500 14909.000 179.958 12.040 o
5 6 6 39832.400 40949.100 463.392 2.401 o
5 6 7 18127.100 18450.500 242.902 8.782 o
5 6 8 10809.000 10482.300 154.694 19.703 o
5 6 9 21091.100 21388.900 248.323 7.151 o
5 6 10 5774.800 5677.840 122.350 42.569 o
5 6 11 434.084 501.383 83.220 297.206 o
5 6 12 1850.740 1873.330 106.734 116.078 o
5 6 13 2963.430 2837.530 125.401 75.105 o
5 6 14 175.109 256.542 154.330 121.057 o
5 7 0 48749.800 47085.500 453.525 1.843 o
5 7 1 3982.150 3826.300 44.309 81.557 o
5 7 2 2050.000 1951.700 41.620 168.688 o
5 7 3 2563.870 2567.220 44.271 130.248 o
5 7 4 8761.160 8646.680 117.101 27.180 o
5 7 5 20143.900 20416.000 235.466 7.728 o
5 7 6 16847.200 16287.800 201.675 10.457 o
5 7 7 6735.430 7348.390 136.902 33.447 o
5 7 8 33.334 70.979 45.209 1289.500 o
5 7 9 8549.480 8750.050 169.658 24.286 o
5 7 10 8934.720 8969.660 145.537 24.771 o
5 7 11 6535.770 6315.750 199.664 28.834 o
5 7 12 872.968 913.133 134.563 123.235 o
5 7 13 183.728 227.275 110.167 225.467 o
5 7 14 86.571 1.946 133.556 167.675 o
5 8 0 2551.160 2432.990 56.546 126.341 o
5 8 1 7402.070 7277.580 73.634 36.401 o
5 8 2 27330.900 27543.000 284.563 4.812 o
5 8 3 13646.200 13685.300 146.079 14.688 o
5 8 4 13490.200 13415.300 160.635 14.648 o
5 8 5 19749.100 20417.800 209.940 8.102 o
5 8 6 6279.590 6069.260 101.783 41.752 o
5 8 7 16735.500 16222.700 250.233 9.797 o
5 8 8 8722.940 8535.520 122.810 27.084 o
5 8 9 8621.850 8549.280 132.539 26.725 o
5 8 10 6129.560 6337.680 165.158 33.977 o
5 8 11 3324.910 3497.140 116.660 70.637 o
5 8 12 3239.380 3111.280 121.476 71.912 o
5 8 13 6692.620 6113.900 154.754 33.732 o
5 8 14 370.137 370.339 147.717 124.739 o
5 9 0 100993.000 92324.100 2056.780 0.321 o
5 9 1 23912.200 23334.700 231.350 6.218 o
5 9 2 6738.000 6967.750 67.072 40.513 o
5 9 3 33326.100 32919.000 339.004 3.482 o
5 9 4 50348.000 52945.000 503.711 1.634 o
5 9 5 10886.300 12299.600 159.177 18.177 o
5 9 6 3841.900 3731.170 70.318 78.181 o
5 9 7 12661.000 12374.800 163.697 15.916 o
5 9 8 43672.100 44408.900 577.609 1.950 o
5 9 9 3401.690 3487.110 86.978 81.002 o
5 9 10 220.368 227.719 65.961 512.511 o
5 9 11 8961.180 8865.910 168.183 23.472 o
5 9 12 5615.330 5605.290 140.500 40.795 o
5 9 13 314.270 546.942 115.847 187.753 o
5 9 14 4207.400 4323.990 181.096 42.595 o
5 10 0 3469.620 3610.550 50.754 90.812 o
5 10 1 40561.900 38827.600 364.090 2.588 o
5 10 2 24603.500 25798.700 221.987 5.807 o
5 10 3 2028.520 2052.730 46.248 163.438 o
5 10 4 3390.100 3363.750 71.250 87.981 o
5 10 5 34276.200 35271.200 383.600 3.165 o
5 10 6 7097.720 6962.900 88.667 37.236 o
5 10 7 13026.100 13873.300 173.724 14.561 o
5 10 8 3869.330 4022.020 98.618 67.744 o
5 10 9 4836.960 5135.820 130.067 47.854 o
5 10 10 16091.600 16151.900 230.377 10.462 o
5 10 11 411.764 476.272 82.934 303.821 o
5 10 12 3808.840 3759.640 119.691 63.248 o
5 10 13 2388.490 2987.840 133.753 77.193 o
5 10 14 1791.630 1302.080 149.350 86.835 o
5 11 0 5397.370 6113.170 79.529 49.434 o
5 11 1 19759.700 19209.100 174.529 8.650 o
5 11 2 884.149 905.008 30.582 397.187 o
5 11 3 74070.900 76444.800 648.015 0.843 o
5 11 4 14267.600 14173.600 155.470 13.723 o
5 11 5 9861.610 9311.800 130.084 23.353 o
5 11 6 8067.160 8122.870 115.734 29.830 o
5 11 7 7688.430 7710.810 141.412 29.580 o
5 11 8 12138.800 12279.400 147.204 17.007 o
5 11 9 365.031 418.804 59.021 485.847 o
5 11 10 1396.790 1409.820 77.231 180.563 o
5 11 11 3429.710 3307.490 113.837 71.598 o
5 11 12 17720.600 17366.200 264.561 8.893 o
5 11 13 1032.390 959.189 126.057 129.677 o
5 11 14 7775.730 7284.090 222.196 23.254 o
5 12 0 12518.500 13131.600 156.871 15.847 o
5 12 1 76942.100 76909.200 592.338 0.821 o
5 12 2 15706.300 15801.100 172.489 11.732 o
5 12 3 1667.060 1453.080 38.611 216.270 o
5 12 4 2410.810 2646.820 48.916 131.881 o
5 12 5 22512.800 22286.500 251.427 6.589 o
5 12 6 24079.400 23816.700 254.674 5.981 o
5 12 7 8380.400 8394.990 154.945 26.000 o
5 12 8 7661.970 7910.000 155.130 28.275 o
5 12 9 14412.800 14320.800 154.035 13.565 o
5 12 10 28711.000 29041.900 303.365 4.402 o
5 12 11 4575.490 4445.070 137.322 50.038 o
5 12 12 988.682 1049.070 111.864 151.273 o
5 12 13 4435.260 4454.350 158.372 46.126 o
5 12 14 2587.860 2709.460 181.531 55.550 o
5 13 0 29741.100 31215.700 322.000 4.044 o
5 13 1 1721.690 1503.880 40.321 207.469 o
5 13 2 29740.100 31070.300 260.029 4.256 o
5 13 3 19853.400 19390.200 207.503 8.281 o
5 13 4 22561.900 22016.400 219.239 6.836 o
5 13 5 7219.750 7613.640 145.528 30.698 o
5 13 6 10682.100 10730.200 167.744 19.188 o
5 13 7 18837.400 18805.900 233.235 8.534 o
5 13 8 23585.300 23355.800 272.657 6.039 o
5 13 9 5727.140 6012.260 114.816 43.032 o
5 13 10 1535.040 1656.440 89.635 149.165 o
5 13 11 4437.610 4620.690 131.287 51.733 o
5 13 12 8810.310 8722.390 197.729 22.037 o
5 13 13 145.406 320.692 142.829 139.899 o
5 13 14 2467.430 2721.370 200.879 49.558 o
5 14 0 2687.550 2977.180 62.578 110.951 o
5 14 1 1986.580 2194.900 49.181 159.543 o
5 14 2 10112.100 10096.800 121.664 22.494 o
5 14 3 644.081 648.427 32.408 520.588 o
5 14 4 46027.700 46932.300 450.729 1.962 o
5 14 5 9342.740 9563.640 137.737 23.755 o
5 14 6 17636.200 17813.500 244.580 9.103 o
5 14 7 10156.800 10755.800 164.772 20.052 o
5 14 8 692.981 814.672 60.495 333.503 o
5 14 9 1377.010 1389.010 79.349 178.869 o
5 14 10 2595.630 2858.880 96.540 95.636 o
5 14 11 15743.000 15504.900 296.937 9.636 o
5 14 12 223.010 321.857 119.992 188.206 o
5 14 13 6042.100 5932.350 177.208 33.380 o
5 15 0 26398.700 26224.800 248.606 5.259 o
5 15 1 7925.520 8347.960 95.985 31.189 o
5 15 2 22203.800 21925.000 197.126 7.104 o
5 15 3 6070.930 6287.720 103.646 42.029 o
5 15 4 20018.200 20023.900 221.166 7.973 o
5 15 5 3234.800 3304.150 83.934 86.266 o
5 15 6 3371.650 3473.500 103.502 75.246 o
5 15 7 22887.900 23069.900 270.495 6.257 o
5 15 8 15269.000 15534.000 192.763 11.776 o
5 15 9 15578.800 15898.400 212.641 11.123 o
5 15 10 4135.190 4239.480 109.470 60.978 o
5 15 11 2547.170 2587.820 111.817 90.023 o
5 15 12 1539.390 1227.430 133.298 105.380 o
5 15 13 2016.960 1966.080 149.495 79.293 o
5 16 0 1997.280 2192.660 56.578 152.847 o
5 16 1 10581.800 10965.900 131.754 20.550 o
5 16 2 4224.420 4292.650 67.091 70.237 o
5 16 3 22751.500 22559.500 279.488 6.290 o
5 16 4 8133.760 8024.180 125.944 29.082 o
5 16 5 16670.000 16480.700 221.575 10.207 o
5 16 6 41284.700 41450.700 415.660 2.381 o
5 16 7 1543.830 1552.720 64.606 186.511 o
5 16 8 7089.750 7258.900 119.459 34.043 o
5 16 9 20055.900 20903.900 282.475 7.233 o
5 16 10 9873.470 9654.390 191.403 20.033 o
5 16 11 4604.950 4643.140 129.785 50.890 o
5 16 12 1202.540 1126.750 135.089 111.903 o
5 16 13 2413.230 2123.980 161.346 67.703 o
5 17 0 824.082 848.993 42.577 377.220 o
5 17 1 3548.040 4145.520 78.955 76.873 o
5 17 2 2111.010 2091.170 57.976 148.799 o
5 17 3 4657.290 4632.570 79.958 61.143 o
5 17 4 34280.700 33880.500 372.849 3.254 o
5 17 5 15627.800 15887.400 209.945 11.143 o
5 17 6 8290.320 8376.620 136.622 27.481 o
5 17 7 10492.400 10620.900 147.599 20.358 o
5 17 8 16872.400 16611.300 227.944 9.974 o
5 17 9 880.637 795.651 80.554 236.385 o
5 17 10 16583.900 16321.200 248.345 9.876 o
5 17 11 2151.290 2199.570 114.021 99.414 o
5 17 12 3684.020 3897.050 153.931 53.363 o
5 17 13 31.790 -119.020 165.068 111.729 o
5 18 0 2777.640 2777.920 65.447 109.740 o
5 18 1 8355.970 8852.170 125.126 27.464 o
5 18 2 6675.270 6961.140 91.979 38.788 o
5 18 3 24385.300 25398.900 298.672 5.482 o
5 18 4 1577.380 1489.320 66.486 183.633 o
5 18 5 4238.170 4270.130 94.149 63.821 o
5 18 6 19682.900 19746.000 256.004 7.803 o
5 18 7 6060.600 6039.120 111.056 41.786 o
5 18 8 25220.800 24905.200 318.120 5.254 o
5 18 9 6498.780 6761.110 150.013 33.838 o
5 18 10 662.198 571.374 90.956 235.534 o
5 18 11 442.868 310.796 109.226 205.903 o
5 18 12 4012.260 4270.990 172.242 45.628 o
5 19 0 238.917 245.388 44.059 827.720 o
5 19 1 1282.100 1280.350 50.005 245.322 o
5 19 2 9230.410 9564.980 117.221 25.003 o
5 19 3 7783.450 8027.240 114.939 30.869 o
5 19 4 31735.700 32684.800 292.333 3.798 o
5 19 5 17031.000 17898.800 223.825 9.638 o
5 19 6 4998.830 5349.010 108.547 50.202 o
5 19 7 17867.500 18286.000 246.861 8.874 o
5 19 8 8634.050 9276.390 142.508 25.264 o
5 19 9 694.047 837.870 91.550 219.174 o
5 19 10 14010.500 13771.400 249.790 12.005 o
5 19 11 5365.390 5235.630 167.982 38.301 o
5 19 12 2113.440 2299.880 157.431 71.773 o
5 20 0 6025.650 5910.670 111.072 42.277 o
5 20 1 2077.990 2047.680 59.417 150.005 o
5 20 2 6959.200 7015.860 89.354 37.654 o
5 20 3 8089.970 8272.360 118.529 29.365 o
5 20 4 1534.020 1759.100 57.494 190.313 o
5 20 5 18927.900 19292.600 247.847 8.243 o
5 20 6 13505.600 13447.600 223.183 13.115 o
5 20 7 457.712 395.395 74.698 347.652 o
5 20 8 3594.400 3563.590 104.551 71.561 o
5 20 9 13902.900 14395.800 196.232 13.087 o
5 20 10 2895.870 2716.490 122.073 78.315 o
5 20 11 1615.800 1562.520 134.660 99.337 o
5 20 12 921.540 922.434 158.465 95.278 o
5 21 0 399.804 505.562 50.215 533.967 o
5 21 1 741.858 790.161 52.898 359.717 o
5 21 2 3096.610 3145.720 72.968 94.820 o
5 21 3 10201.300 10437.100 118.683 22.135 o
5 21 4 1057.480 1109.990 58.223 262.685 o
5 21 5 6775.940 6394.560 116.083 37.203 o
5 21 6 3435.460 3449.120 94.165 78.099 o
5 21 7 7771.610 8768.440 145.354 27.672 o
5 21 8 16409.700 16394.900 254.509 9.844 o
5 21 9 6469.930 6410.480 173.109 31.852 o
5 21 10 2715.530 2744.660 128.396 77.338 o
5 21 11 905.432 861.308 149.491 105.139 o
5 21 12 1917.280 1989.450 190.875 58.690 o
5 22 0 3295.160 3365.710 77.765 87.177 o
5 22 1 5475.710 4924.290 110.970 48.094 o
5 22 2 1817.210 1847.470 59.960 167.291 o
5 22 3 5633.250 5755.780 117.781 43.761 o
5 22 4 1217.100 1144.390 65.372 226.579 o
5 22 5 17266.000 17456.900 216.965 9.724 o
5 22 6 8063.370 8444.600 140.318 27.708 o
5 22 7 5777.320 6117.630 127.063 40.830 o
5 22 8 2340.190 2389.710 88.751 111.577 o
5 22 9 6004.920 6134.640 169.710 34.143 o
5 22 10 6414.250 6492.750 235.585 25.193 o
5 22 11 3528.310 3463.840 146.747 58.237 o
5 23 0 929.828 923.724 60.721 284.657 o
5 23 1 2751.820 2821.560 79.298 102.471 o
5 23 2 575.960 544.244 61.886 380.820 o
5 23 3 10130.500 10323.700 158.962 20.679 o
5 23 4 12154.900 12144.800 192.845 15.709 o
5 23 5 4401.770 4230.220 94.626 62.301 o
5 23 6 902.078 1017.370 75.160 238.812 o
5 23 7 16857.500 17596.900 258.154 9.303 o
5 23 8 12472.400 12065.900 197.296 15.298 o
5 23 9 511.447 437.753 110.686 193.051 o
5 23 10 741.706 296.217 129.213 144.950 o
5 23 11 5231.950 5423.620 195.834 34.114 o
5 24 0 214.767 171.540 58.782 623.243 o
5 24 1 1426.090 1252.820 63.796 207.114 o
5 24 2 4575.800 4641.920 100.425 57.580 o
5 24 3 566.612 520.493 67.797 352.023 o
5 24 4 2713.660 2836.990 88.380 98.123 o
5 24 5 5723.320 6250.850 130.346 40.317 o
5 24 6 10083.000 10274.000 193.531 19.203 o
5 24 7 2602.080 2807.990 95.799 96.437 o
5 24 8 2998.860 3225.450 117.430 75.850 o
5 24 9 4513.370 4531.240 161.263 44.899 o
5 24 10 2091.940 2158.560 162.401 70.091 o
5 24 11 732.879 762.535 167.163 91.286 o
5 25 0 3034.470 2836.440 88.042 92.053 o
5 25 1 313.359 268.642 73.217 405.771 o
5 25 2 6241.180 6397.360 129.257 37.902 o
5 25 3 1327.740 1326.780 76.786 188.263 o
5 25 4 5421.110 5298.780 144.968 41.685 o
5 25 5 260.009 275.131 92.668 290.935 o
5 25 6 2884.070 2994.920 103.767 85.516 o
5 25 7 8003.860 8250.330 174.376 25.587 o
5 25 8 4816.160 4839.730 142.925 46.279 o
5 25 9 5293.570 5739.610 206.793 31.905 o
5 25 10 10.369 -2.803 139.813 156.212 o
5 26 0 4408.610 4675.690 103.978 58.047 o
5 26 1 3851.430 3929.110 103.673 66.922 o
5 26 2 176.060 277.671 83.208 362.257 o
5 26 3 2454.830 2535.880 94.726 103.005 o
5 26 4 3497.850 3564.890 107.314 71.712 o
5 26 5 10593.200 11100.200 226.588 16.650 o
5 26 6 14631.800 14552.300 193.169 12.548 o
5 26 7 715.404 615.043 91.354 227.437 o
5 26 8 1576.760 1502.320 129.361 105.495 o
5 26 9 9266.920 9006.830 245.391 18.406 o
5 26 10 3235.400 3059.320 179.308 51.226 o
5 27 0 0.305 -15.979 68.941 643.902 o
5 27 1 6258.340 5940.270 140.725 37.325 o
5 27 2 1360.150 1532.890 100.832 143.737 o
5 27 3 1985.960 2051.580 89.849 125.450 o
5 27 4 16055.700 16118.400 256.247 10.056 o
5 27 5 14996.900 14906.300 285.519 10.347 o
5 27 6 6869.810 6791.210 168.707 30.636 o
5 27 7 16320.000 16352.100 195.517 10.827 o
5 27 8 6378.900 6496.920 206.359 28.267 o
5 27 9 703.674 709.133 140.850 121.781 o
5 28 0 324.697 339.465 88.995 296.159 o
5 28 1 2467.190 2479.660 105.465 96.360 o
5 28 2 6088.880 6032.700 179.023 32.849 o
5 28 3 16441.000 16267.800 241.897 10.063 o
5 28 4 1795.460 1679.940 97.063 130.267 o
5 28 5 2048.550 2388.540 106.700 105.104 o
5 28 6 9500.830 9592.240 178.184 21.331 o
5 28 7 9708.040 9086.990 212.529 19.569 o
5 28 8 16036.600 14879.700 418.228 7.574 o
5 28 9 8290.580 7886.420 219.708 22.096 o
5 29 0 3059.230 3432.460 118.482 73.380 o
5 29 1 330.626 347.833 114.074 197.758 o
5 29 2 2590.480 2748.880 125.312 80.554 o
5 29 3 2370.700 2479.430 109.977 95.280 o
5 29 4 10998.600 10394.900 196.804 17.812 o
5 29 5 15139.600 15337.600 268.096 10.506 o
5 29 6 11846.800 11356.000 287.764 13.206 o
5 29 7 11252.600 9256.920 612.525 6.066 o
5 29 8 2600.220 2340.250 194.087 52.134 o
5 30 0 3522.070 3374.510 116.740 69.099 o
5 30 1 1253.940 1503.770 110.192 135.517 o
5 30 2 4270.990 4397.570 128.368 54.369 o
5 30 3 6030.010 6305.530 147.497 36.631 o
5 30 4 1684.830 1722.610 117.406 111.980 o
5 30 5 9290.700 8900.900 241.735 18.640 o
5 30 6 10095.400 9970.920 277.145 15.523 o
5 30 7 2211.130 2188.700 170.440 64.888 o
5 31 0 1607.210 1334.100 112.632 124.135 o
5 31 1 534.098 784.153 129.899 142.483 o
5 31 2 5192.990 5472.330 198.411 33.776 o
5 31 3 1240.350 1019.330 131.945 115.829 o
5 31 4 8113.340 8264.420 242.293 20.532 o
5 31 5 5300.870 5344.450 150.079 41.285 o
5 31 6 1446.650 1495.320 173.728 73.415 o
5 31 7 6708.810 6392.230 234.447 24.856 o
5 32 0 139.366 -28.847 116.923 213.456 o
5 32 1 939.013 683.679 123.669 140.631 o
5 32 2 909.276 996.192 128.357 129.568 o
5 32 3 2521.360 2684.780 146.412 71.053 o
5 32 4 9622.000 9881.790 232.229 18.158 o
5 32 5 3179.420 2845.590 180.602 51.778 o
5 32 6 7095.410 7060.170 296.174 18.839 o
5 33 0 8035.310 8354.560 248.347 20.174 o
5 33 1 1047.570 1025.260 155.723 94.988 o
5 33 2 5065.360 5406.110 169.256 38.943 o
5 33 3 1910.530 1713.770 148.721 82.784 o
5 33 4 7277.070 7289.770 202.664 25.806 o
5 33 5 874.791 656.003 194.276 69.888 o
5 34 0 294.873 298.661 172.749 95.640 o
5 34 1 2865.650 2852.920 180.963 53.533 o
5 34 2 4048.270 3994.870 191.621 41.712 o
5 34 3 3005.980 2966.710 169.685 56.127 o
5 35 0 1183.990 1141.310 179.659 74.083 o
5 35 1 2503.520 2626.840 189.288 53.540 o
6 0 0 221778.000 202355.000 3160.720 0.091 o
6 0 1 21022.400 19811.600 206.378 7.779 o
6 0 2 70.439 106.547 17.351 3416.620 o
6 0 3 66330.500 67891.700 767.990 0.956 o
6 0 4 2212.620 2724.400 51.682 136.172 o
6 0 5 2159.530 2016.540 48.334 156.053 o
6 0 6 363.930 254.371 34.671 849.837 o
6 0 7 591.629 675.245 41.641 481.207 o
6 0 8 10393.400 9817.400 158.920 20.665 o
6 0 9 2138.360 1992.170 71.964 137.552 o
6 0 10 3.333 -46.426 57.843 910.633 o
6 0 11 640.951 703.653 77.720 278.355 o
6 0 12 21257.400 21517.700 335.740 6.333 o
6 0 13 835.562 661.320 114.950 160.446 o
6 0 14 10033.600 10146.400 295.146 14.732 o
6 0 15 21.145 505.572 923.189 3.586 o
6 1 0 4718.290 5009.730 97.597 55.513 o
6 1 1 33352.000 31311.600 387.107 3.424 o
6 1 2 28561.900 27347.100 332.205 4.431 o
6 1 3 13960.200 13035.900 128.774 15.041 o
6 1 4 21349.300 21602.500 233.667 7.157 o
6 1 5 17431.600 18044.100 200.095 9.716 o
6 1 6 10737.300 10718.900 141.185 20.152 o
6 1 7 4763.050 4567.150 82.475 59.974 o
6 1 8 5417.860 5614.620 97.244 48.473 o
6 1 9 5361.300 5478.010 110.249 47.225 o
6 1 10 9262.390 9336.420 159.669 22.964 o
6 1 11 7619.900 7257.740 142.041 30.360 o
6 1 12 2364.650 2385.930 109.983 96.273 o
6 1 13 293.874 620.756 111.855 197.771 o
6 1 14 961.849 671.718 141.132 115.598 o
6 2 0 47315.800 48913.700 515.858 1.798 o
6 2 1 16838.000 17817.700 184.850 10.273 o
6 2 2 41935.100 39665.000 394.769 2.428 o
6 2 3 5406.650 5164.350 71.073 53.891 o
6 2 4 22752.700 23156.300 265.125 6.317 o
6 2 5 7082.900 6919.660 93.345 37.005 o
6 2 6 46101.900 46187.800 526.961 1.884 o
6 2 7 9992.330 9542.010 132.224 22.786 o
6 2 8 2615.950 2846.210 81.222 104.205 o
6 2 9 20197.600 19890.300 274.618 7.423 o
6 2 10 438.710 447.745 69.560 377.903 o
6 2 11 4365.320 4525.900 116.896 55.974 o
6 2 12 1518.030 1408.270 105.497 134.233 o
6 2 13 7263.320 7343.820 196.259 26.346 o
6 2 14 559.303 437.220 147.719 119.257 o
6 3 0 92357.900 87987.300 828.937 0.579 o
6 3 1 4607.650 4810.290 65.465 63.428 o
6 3 2 2207.560 2009.810 37.072 161.722 o
6 3 3 2026.850 2369.750 37.792 161.301 o
6 3 4 76520.400 76022.400 800.434 0.771 o
6 3 5 18136.000 18194.300 214.109 9.179 o
6 3 6 6865.120 6793.530 123.517 35.314 o
6 3 7 48697.900 47547.300 542.309 1.744 o
6 3 8 20473.900 21354.300 242.758 7.397 o
6 3 9 2910.210 2798.480 81.419 98.175 o
6 3 10 3599.860 3705.550 100.283 72.122 o
6 3 11 6695.880 6677.520 145.443 33.820 o
6 3 12 335.984 306.901 103.770 232.624 o
6 3 13 10216.900 9870.370 187.124 19.597 o
6 3 14 634.531 416.949 142.441 125.094 o
6 4 0 7770.700 6705.190 74.428 36.015 o
6 4 1 274.060 354.086 19.383 1188.190 o
6 4 2 14347.500 13656.800 134.982 14.260 o
6 4 3 49354.200 49461.400 475.712 1.754 o
6 4 4 7065.040 7434.520 101.512 35.371 o
6 4 5 5658.320 5631.420 79.927 49.250 o
6 4 6 40587.200 41224.200 431.042 2.404 o
6 4 7 34962.600 35636.200 467.749 2.881 o
6 4 8 29570.900 28817.200 335.712 4.173 o
6 4 9 18294.000 18745.200 232.547 8.775 o
6 4 10 1701.670 1768.230 75.361 157.265 o
6 4 11 2283.310 2333.530 113.066 96.233 o
6 4 12 12865.500 12528.700 303.147 11.726 o
6 4 13 384.414 114.613 109.049 217.953 o
6 4 14 456.877 239.483 133.349 148.533 o
6 5 0 7969.580 8309.690 97.756 31.002 o
6 5 1 15167.100 15393.500 143.957 12.701 o
6 5 2 2844.480 2591.040 40.547 122.048 o
6 5 3 62.642 62.580 20.717 3477.460 o
6 5 4 11290.800 11204.600 121.109 19.620 o
6 5 5 95285.100 95872.300 944.015 0.516 o
6 5 6 23425.800 22804.500 284.768 6.061 o
6 5 7 4527.150 3650.730 86.213 66.004 o
6 5 8 3722.220 3840.480 102.421 69.207 o
6 5 9 3293.900 3371.550 80.967 85.906 o
6 5 10 37218.900 36908.100 453.008 2.711 o
6 5 11 697.066 708.573 82.456 253.797 o
6 5 12 479.533 482.677 96.572 237.600 o
6 5 13 195.178 341.719 112.613 211.698 o
6 5 14 1422.080 1521.870 139.212 99.288 o
6 6 0 48253.200 49819.600 458.793 1.804 o
6 6 1 4999.350 5302.150 71.756 56.521 o
6 6 2 1864.260 1999.820 40.264 179.430 o
6 6 3 52524.900 50825.200 522.812 1.582 o
6 6 4 2160.360 1905.260 40.828 164.474 o
6 6 5 4569.890 4239.280 76.421 64.676 o
6 6 6 11389.200 11202.400 146.348 18.672 o
6 6 7 11707.800 11098.300 141.766 18.459 o
6 6 8 68540.100 68744.800 826.296 0.894 o
6 6 9 2121.760 2335.980 74.183 130.078 o
6 6 10 227.941 215.768 66.879 501.618 o
6 6 11 1250.140 1207.440 90.864 171.478 o
6 6 12 7739.600 7660.870 178.252 26.500 o
6 6 13 1441.490 1264.890 122.311 118.691 o
6 6 14 1379.760 1039.180 146.131 98.106 o
6 7 0 3898.980 3692.710 66.780 78.607 o
6 7 1 17157.100 17128.000 174.696 10.414 o
6 7 2 28851.000 29053.900 273.513 4.491 o
6 7 3 6495.720 6226.520 85.966 41.967 o
6 7 4 36502.300 37627.100 424.340 2.798 o
6 7 5 26171.700 26767.100 305.600 4.981 o
6 7 6 631.333 582.931 36.075 519.240 o
6 7 7 23543.500 23973.200 351.836 5.451 o
6 7 8 13501.800 13504.900 176.145 14.241 o
6 7 9 1985.960 2150.670 74.844 137.696 o
6 7 10 11633.600 11789.000 169.152 17.232 o
6 7 11 4800.780 4511.300 120.032 52.129 o
6 7 12 1420.840 1318.560 105.415 139.280 o
6 7 13 5862.040 5708.240 161.236 36.527 o
6 7 14 1899.520 1777.560 149.787 81.805 o
6 8 0 35751.400 38075.500 369.982 2.955 o
6 8 1 22917.800 21770.500 248.860 6.568 o
6 8 2 9377.030 9241.370 98.090 25.909 o
6 8 3 290.478 245.290 22.253 1220.930 o
6 8 4 27732.200 26925.600 267.323 4.870 o
6 8 5 14067.800 13534.300 151.618 14.254 o
6 8 6 35513.000 36458.400 400.172 2.972 o
6 8 7 5029.600 5406.120 121.975 47.423 o
6 8 8 2436.720 2631.970 63.782 122.424 o
6 8 9 20029.800 20901.500 282.763 7.238 o
6 8 10 1278.880 1304.300 80.279 185.849 o
6 8 11 6900.030 6881.200 145.973 32.755 o
6 8 12 1926.140 2040.540 110.216 109.012 o
6 8 13 353.240 270.328 148.574 125.153 o
6 8 14 1426.150 1365.890 153.968 88.127 o
6 9 0 2705.630 2272.230 59.751 122.075 o
6 9 1 31292.600 31006.900 290.526 3.960 o
6 9 2 33272.100 32670.300 305.939 3.588 o
6 9 3 8748.320 8654.660 106.027 27.813 o
6 9 4 26976.000 26879.900 285.124 4.927 o
6 9 5 2789.330 2553.720 66.428 111.850 o
6 9 6 12628.900 12617.200 171.873 15.601 o
6 9 7 33092.900 34091.100 428.080 3.200 o
6 9 8 3654.280 3611.860 80.334 78.704 o
6 9 9 19083.200 19249.300 269.843 7.951 o
6 9 10 1646.920 1644.250 77.527 160.165 o
6 9 11 22.017 -17.532 95.896 329.125 o
6 9 12 10233.400 10009.600 250.290 16.565 o
6 9 13 1793.700 1916.630 131.312 95.628 o
6 9 14 3201.360 3415.450 181.745 49.676 o
6 10 0 11.409 62.906 22.023 4434.080 o
6 10 1 32514.200 31653.100 324.918 3.676 o
6 10 2 1421.390 1562.700 37.210 236.399 o
6 10 3 33775.400 35009.500 300.189 3.426 o
6 10 4 12270.000 11899.600 150.481 16.985 o
6 10 5 7807.030 7766.910 101.024 32.182 o
6 10 6 6951.990 6774.190 129.483 34.434 o
6 10 7 1764.150 1615.140 53.212 185.137 o
6 10 8 2172.260 2243.530 61.773 139.954 o
6 10 9 6227.470 6269.040 118.487 39.542 o
6 10 10 3529.540 3860.710 106.836 69.806 o
6 10 11 4237.540 4229.620 112.121 59.422 o
6 10 12 6684.670 6099.820 149.236 34.419 o
6 10 13 1172.280 1242.040 127.028 120.544 o
6 10 14 7872.320 7940.110 251.971 20.423 o
6 11 0 11672.500 11163.900 113.151 19.312 o
6 11 1 56390.900 59461.300 446.094 1.401 o
6 11 2 6228.310 6415.620 84.760 42.988 o
6 11 3 2909.740 2960.070 61.778 105.920 o
6 11 4 2539.590 2525.140 50.264 128.735 o
6 11 5 14700.200 14370.400 165.732 13.094 o
6 11 6 623.366 637.223 40.764 481.686 o
6 11 7 10893.500 11458.200 152.223 18.977 o
6 11 8 1224.400 1353.160 56.213 235.142 o
6 11 9 830.491 742.318 60.720 314.281 o
6 11 10 10151.100 10030.000 185.999 19.630 o
6 11 11 2248.920 2264.740 109.095 100.370 o
6 11 12 7064.560 6844.860 178.928 29.013 o
6 11 13 5.924 241.700 141.645 148.082 o
6 11 14 1752.530 1427.900 178.460 68.126 o
6 12 0 4506.480 5621.490 63.306 60.778 o
6 12 1 8024.480 8211.440 103.226 30.643 o
6 12 2 28335.400 28455.500 266.225 4.646 o
6 12 3 15790.800 15182.300 141.410 12.351 o
6 12 4 2321.950 2424.710 49.912 138.857 o
6 12 5 5198.530 5154.270 89.464 52.758 o
6 12 6 7462.730 7924.940 143.537 29.735 o
6 12 7 9042.630 9200.760 120.746 25.653 o
6 12 8 15987.600 16227.500 203.954 10.927 o
6 12 9 4599.850 4649.850 106.454 56.037 o
6 12 10 4392.340 4564.880 134.182 51.550 o
6 12 11 367.892 245.949 90.945 286.911 o
6 12 12 3957.280 4218.220 133.361 56.057 o
6 12 13 12983.000 12668.500 275.637 12.366 o
6 12 14 2290.280 2500.840 204.003 50.011 o
6 13 0 26449.300 26234.000 283.734 5.085 o
6 13 1 767.803 707.448 30.323 467.337 o
6 13 2 1378.010 1324.460 37.942 253.394 o
6 13 3 23233.700 23885.600 216.887 6.406 o
6 13 4 22028.900 21987.600 247.118 6.796 o
6 13 5 7386.580 7166.770 103.054 34.541 o
6 13 6 3542.530 3110.360 73.092 86.872 o
6 13 7 3091.830 2790.970 67.812 100.919 o
6 13 8 3884.690 3994.020 86.818 71.175 o
6 13 9 3213.540 3148.550 87.580 86.393 o
6 13 10 6262.130 6242.590 129.793 38.070 o
6 13 11 8879.190 8877.020 184.453 22.616 o
6 13 12 3854.370 3785.040 151.495 53.290 o
6 13 13 1575.810 1748.960 155.450 82.386 o
6 14 0 15149.200 16028.700 163.507 12.177 o
6 14 1 8433.980 7744.340 91.838 30.787 o
6 14 2 10000.800 10106.400 128.932 22.391 o
6 14 3 11950.500 12430.300 158.489 16.817 o
6 14 4 3104.230 3136.420 81.812 90.909 o
6 14 5 6241.420 6254.290 117.583 39.622 o
6 14 6 12081.100 12206.300 152.338 16.973 o
6 14 7 4897.010 5087.350 104.304 52.584 o
6 14 8 4630.640 5038.980 126.466 50.151 o
6 14 9 16241.000 16667.200 229.226 10.264 o
6 14 10 2219.500 2523.540 93.505 109.467 o
6 14 11 1600.920 1671.680 104.590 128.335 o
6 14 12 2206.920 2254.000 153.922 72.894 o
6 14 13 3707.790 3357.050 164.415 51.929 o
6 15 0 3897.570 4138.110 79.033 72.304 o
6 15 1 9276.870 8661.340 91.355 27.157 o
6 15 2 6361.600 6108.290 77.684 43.805 o
6 15 3 3225.290 2857.440 57.008 101.683 o
6 15 4 15557.900 16081.000 202.756 11.248 o
6 15 5 24588.300 24807.400 286.297 5.573 o
6 15 6 17596.400 18521.300 238.174 9.050 o
6 15 7 11534.900 11773.600 192.235 16.575 o
6 15 8 1067.160 1145.120 67.179 236.829 o
6 15 9 3646.140 3861.940 99.104 71.032 o
6 15 10 7994.820 7841.460 159.041 27.232 o
6 15 11 9070.570 9030.240 233.931 19.269 o
6 15 12 2764.800 2765.440 138.897 71.559 o
6 15 13 2458.110 2528.630 170.242 61.562 o
6 16 0 1949.110 2069.030 54.113 160.380 o
6 16 1 28066.300 30022.200 324.594 4.341 o
6 16 2 2720.310 2944.080 69.769 106.854 o
6 16 3 21568.200 21152.800 261.483 6.935 o
6 16 4 19494.300 20193.100 229.244 8.058 o
6 16 5 1838.550 1871.190 60.217 165.227 o
6 16 6 2639.630 2781.870 69.204 111.260 o
6 16 7 17167.500 17452.900 221.575 9.711 o
6 16 8 31109.500 31808.700 351.249 3.745 o
6 16 9 3427.010 3342.430 113.755 71.458 o
6 16 10 775.907 756.574 86.999 228.935 o
6 16 11 2625.080 2594.570 119.814 84.147 o
6 16 12 8208.230 8418.820 287.438 17.519 o
6 16 13 2023.220 1281.470 158.149 77.978 o
6 17 0 49.676 131.869 38.053 1527.760 o
6 17 1 4669.210 4166.390 79.632 63.363 o
6 17 2 7262.510 7265.810 105.306 34.632 o
6 17 3 5517.280 5530.260 84.980 49.863 o
6 17 4 12852.900 13767.200 153.461 15.259 o
6 17 5 23038.100 23157.300 271.572 6.201 o
6 17 6 7665.130 7991.770 111.321 31.552 o
6 17 7 3686.300 3871.850 99.021 70.530 o
6 17 8 6775.170 6953.790 124.195 35.282 o
6 17 9 2278.590 2504.780 94.406 107.615 o
6 17 10 14666.500 14827.400 233.201 11.620 o
6 17 11 703.163 793.295 129.535 137.301 o
6 17 12 315.492 92.668 129.787 164.560 o
6 17 13 522.739 88.810 186.558 81.451 o
6 18 0 5165.430 4984.350 97.433 52.273 o
6 18 1 1856.760 1800.770 51.677 175.223 o
6 18 2 3828.300 3481.500 81.648 76.754 o
6 18 3 6114.360 6014.070 94.840 43.559 o
6 18 4 8432.970 9078.840 109.892 27.871 o
6 18 5 8456.490 8395.700 143.509 26.596 o
6 18 6 12052.400 12239.100 127.135 17.679 o
6 18 7 898.372 895.089 67.334 269.585 o
6 18 8 1239.190 1518.280 84.935 173.749 o
6 18 9 7809.770 7665.830 165.763 27.350 o
6 18 10 1593.570 1776.760 107.717 123.534 o
6 18 11 7762.380 8037.960 226.183 22.351 o
6 18 12 4758.830 4631.490 220.132 32.947 o
6 19 0 10966.400 11931.700 168.136 17.997 o
6 19 1 13512.700 13810.800 193.236 13.698 o
6 19 2 8319.240 8247.190 129.754 28.032 o
6 19 3 7717.750 7827.480 104.514 32.133 o
6 19 4 12306.500 13109.200 160.265 15.995 o
6 19 5 45.461 55.410 49.883 1078.150 o
6 19 6 319.487 353.240 61.324 494.901 o
6 19 7 9173.090 9602.660 195.448 20.899 o
6 19 8 1311.900 1362.480 84.254 175.185 o
6 19 9 15302.900 15762.400 272.718 10.227 o
6 19 10 2700.030 2850.100 108.380 87.248 o
6 19 11 718.958 689.103 110.590 174.366 o
6 19 12 4469.160 4319.020 201.985 37.412 o
6 20 0 17.358 91.010 45.975 1267.530 o
6 20 1 15180.500 15459.600 175.320 12.162 o
6 20 2 526.649 578.273 42.302 524.874 o
6 20 3 1913.650 1868.490 57.699 163.955 o
6 20 4 11595.100 11316.200 147.659 18.276 o
6 20 5 974.290 856.763 60.126 284.998 o
6 20 6 5751.440 5763.900 110.259 44.195 o
6 20 7 7035.510 6886.690 149.683 31.945 o
6 20 8 534.849 504.928 83.526 281.532 o
6 20 9 1087.270 1049.630 96.104 174.953 o
6 20 10 5478.890 5446.850 136.185 42.485 o
6 20 11 4095.730 3681.530 153.879 51.406 o
6 20 12 2202.180 2305.100 176.775 61.617 o
6 21 0 14387.100 13855.400 175.886 13.350 o
6 21 1 2524.750 2523.530 70.881 116.944 o
6 21 2 8886.290 9095.970 133.815 25.412 o
6 21 3 22799.700 22995.500 230.659 6.557 o
6 21 4 2367.580 2715.980 79.148 113.260 o
6 21 5 5097.400 5405.270 122.372 46.957 o
6 21 6 860.619 988.464 74.364 246.886 o
6 21 7 4562.040 4646.420 121.930 52.909 o
6 21 8 799.267 791.233 91.390 213.033 o
6 21 9 3485.230 3243.990 116.032 70.494 o
6 21 10 7438.160 7817.250 166.207 28.029 o
6 21 11 3698.390 3904.850 150.986 54.086 o
6 22 0 161.198 248.106 52.076 747.854 o
6 22 1 13170.100 13347.200 141.209 15.428 o
6 22 2 12436.300 12069.800 128.106 17.279 o
6 22 3 12528.200 12749.400 165.605 15.807 o
6 22 4 278.367 209.315 61.625 540.794 o
6 22 5 5154.990 5141.610 120.944 47.649 o
6 22 6 2469.700 2561.500 89.146 106.037 o
6 22 7 5303.900 5454.970 130.514 44.279 o
6 22 8 15020.200 15363.400 261.148 10.698 o
6 22 9 5055.690 5080.120 140.828 44.751 o
6 22 10 7900.220 7576.580 212.994 23.500 o
6 22 11 500.181 472.272 150.115 116.973 o
6 23 0 42982.400 45157.000 414.540 2.190 o
6 23 1 296.245 384.833 58.081 531.359 o
6 23 2 2434.000 2225.600 73.676 122.150 o
6 23 3 23781.000 23307.400 253.999 6.117 o
6 23 4 6212.110 6507.260 133.776 37.249 o
6 23 5 19420.200 19331.100 244.764 8.086 o
6 23 6 2827.690 2833.370 93.562 93.113 o
6 23 7 2097.290 1979.530 103.228 111.549 o
6 23 8 3834.400 3833.450 115.697 63.894 o
6 23 9 1614.040 1829.800 110.123 119.676 o
6 23 10 3445.100 3341.980 145.994 59.630 o
6 23 11 10070.300 10443.600 357.037 12.233 o
6 24 0 5418.470 5864.280 118.058 44.575 o
6 24 1 29700.200 30749.300 346.328 3.993 o
6 24 2 19862.500 20650.200 259.605 7.555 o
6 24 3 2786.910 2892.230 86.720 96.971 o
6 24 4 498.196 518.637 72.453 340.364 o
6 24 5 7201.800 7403.030 144.148 31.187 o
6 24 6 4525.920 4364.430 99.672 59.363 o
6 24 7 3357.510 3521.280 102.197 75.619 o
6 24 8 4252.300 4426.400 124.344 55.401 o
6 24 9 3455.390 3530.910 155.240 55.807 o
6 24 10 4409.520 4726.770 164.017 44.347 o
6 25 0 7288.760 7886.230 129.569 31.468 o
6 25 1 9605.930 9522.450 141.401 23.101 o
6 25 2 7657.930 8028.590 152.598 28.338 o
6 25 3 7719.610 7776.750 161.516 27.778 o
6 25 4 7593.530 7636.060 147.910 29.409 o
6 25 5 8684.010 8594.440 188.343 22.961 o
6 25 6 1348.060 1361.270 85.514 171.126 o
6 25 7 7045.660 6815.980 136.845 33.305 o
6 25 8 3679.160 3818.760 128.064 61.524 o
6 25 9 1047.580 948.172 128.012 126.729 o
6 25 10 3864.190 4032.870 182.427 44.531 o
6 26 0 3094.590 3528.150 124.622 69.926 o
6 26 1 16271.600 16825.700 236.810 10.088 o
6 26 2 1682.220 1582.620 91.432 142.460 o
6 26 3 7486.110 7770.300 184.005 26.462 o
6 26 4 13268.400 13296.000 263.955 12.289 o
6 26 5 530.535 537.103 92.189 245.765 o
6 26 6 7633.830 7899.000 187.517 25.716 o
6 26 7 3598.790 3620.940 114.812 67.633 o
6 26 8 5104.490 5249.140 161.530 40.420 o
6 26 9 4425.120 4220.610 154.159 47.767 o
6 27 0 3042.690 3061.830 94.557 86.832 o
6 27 1 10035.300 10392.200 157.622 20.835 o
6 27 2 5074.850 5284.870 137.384 44.740 o
6 27 3 6490.740 6314.310 175.403 31.669 o
6 27 4 1759.280 1697.190 96.091 132.239 o
6 27 5 1721.640 1923.370 105.557 120.031 o
6 27 6 4909.600 4970.740 129.279 48.067 o
6 27 7 1645.970 1954.530 116.208 111.275 o
6 27 8 952.233 975.023 134.853 119.998 o
6 27 9 8676.250 7834.310 278.990 17.827 o
6 28 0 4084.320 3925.010 135.080 55.733 o
6 28 1 1635.310 1867.170 104.198 124.725 o
6 28 2 19.599 0.313 93.579 345.853 o
6 28 3 1299.990 1315.980 102.553 147.922 o
6 28 4 5021.810 5256.200 139.416 44.726 o
6 28 5 7984.460 7621.720 170.116 26.647 o
6 28 6 3234.980 3425.880 156.548 57.362 o
6 28 7 2265.530 2088.900 141.996 79.890 o
6 28 8 174.754 154.662 132.100 163.974 o
6 29 0 325.835 279.818 95.095 270.513 o
6 29 1 6870.500 6558.280 214.556 26.291 o
6 29 2 5242.930 5446.050 184.168 35.811 o
6 29 3 2450.150 2518.890 119.209 87.782 o
6 29 4 3226.740 2887.970 111.371 77.751 o
6 29 5 5894.300 5906.600 150.302 37.552 o
6 29 6 1743.520 1853.550 124.324 102.931 o
6 29 7 2992.890 2388.910 198.686 48.419 o
6 29 8 3460.880 2890.830 188.637 47.715 o
6 30 0 94.303 121.647 94.085 318.921 o
6 30 1 5534.000 5225.980 145.568 41.234 o
6 30 2 776.444 819.849 104.567 181.066 o
6 30 3 3386.030 3433.450 141.141 61.407 o
6 30 4 5810.590 5864.190 174.598 34.583 o
6 30 5 2534.230 2189.780 118.578 89.477 o
6 30 6 886.231 915.683 127.912 132.105 o
6 30 7 4520.810 3914.310 187.097 40.875 o
6 31 0 1483.830 1281.440 116.921 123.491 o
6 31 1 4230.190 4215.230 135.845 53.434 o
6 31 2 2745.060 2730.140 132.787 74.893 o
6 31 3 2900.120 3014.150 150.909 63.811 o
6 31 4 1598.580 1947.200 136.080 95.000 o
6 31 5 4056.780 3893.560 171.247 46.603 o
6 31 6 3422.320 3139.710 172.852 51.848 o
6 32 0 9881.830 10378.000 247.211 16.876 o
6 32 1 2439.530 2586.830 195.748 51.773 o
6 32 2 6237.360 6235.720 166.309 33.649 o
6 32 3 3449.460 3295.990 151.953 57.777 o
6 32 4 4.551 81.848 130.393 177.775 o
6 32 5 1830.570 1334.190 145.451 88.924 o
6 33 0 14151.800 13673.000 307.027 10.624 o
6 33 1 77.059 249.248 135.033 159.386 o
6 33 2 3472.010 4047.470 189.511 44.619 o
6 33 3 2620.570 2579.610 173.030 58.999 o
6 33 4 5437.920 5263.140 295.811 21.879 o
6 34 0 1774.600 1433.310 182.365 65.850 o
6 34 1 7660.240 7462.180 238.215 22.060 o
6 34 2 6661.980 6773.960 215.781 26.378 o
6 34 3 1434.510 1357.840 174.727 73.614 o
7 0 1 17192.100 15218.500 232.157 10.101 o
7 0 2 15405.800 12648.100 140.350 13.676 o
7 0 3 323.766 139.918 20.904 1301.010 o
7 0 4 39815.500 38918.700 389.035 2.593 o
7 0 5 231.034 338.251 30.525 1063.080 o
7 0 6 16754.800 19123.300 241.688 9.241 o
7 0 7 2007.560 2068.900 66.046 146.646 o
7 0 8 3.707 -24.563 43.407 1609.580 o
7 0 9 11038.700 11801.800 171.773 17.858 o
7 0 10 726.852 752.016 66.449 307.719 o
7 0 11 2099.530 2246.210 101.046 110.009 o
7 0 12 2738.790 2597.950 106.380 89.803 o
7 0 13 27588.100 27459.000 410.826 4.201 o
7 0 14 677.255 892.509 172.116 86.808 o
7 1 0 26748.100 27393.000 282.144 4.936 o
7 1 1 12527.600 11562.100 123.213 17.605 o
7 1 2 22516.400 20419.300 328.155 6.228 o
7 1 3 4117.400 4015.440 47.025 77.561 o
7 1 4 8893.670 8953.240 113.399 26.678 o
7 1 5 5195.220 5434.720 74.121 54.061 o
7 1 6 5026.270 4614.040 81.352 57.645 o
7 1 7 774.186 784.046 45.291 386.641 o
7 1 8 2584.710 2472.080 69.619 116.758 o
7 1 9 14610.400 14649.300 221.403 11.956 o
7 1 10 777.119 682.348 64.934 311.411 o
7 1 11 17395.800 17626.800 255.413 9.101 o
7 1 12 3254.600 3364.830 120.043 70.870 o
7 1 13 4123.500 4041.120 166.615 46.982 o
7 1 14 1884.700 2089.580 167.695 69.648 o
7 2 0 76718.600 71490.700 735.848 0.813 o
7 2 1 46888.700 47642.800 489.641 1.868 o
7 2 2 2929.780 3102.000 52.157 107.745 o
7 2 3 11517.700 12069.700 130.695 18.395 o
7 2 4 41671.400 41212.200 413.505 2.369 o
7 2 5 11895.900 11582.200 145.406 17.785 o
7 2 6 5479.610 5511.160 91.305 49.282 o
7 2 7 10407.500 10544.100 156.020 20.205 o
7 2 8 9124.210 9220.840 106.928 26.129 o
7 2 9 5334.740 5328.580 99.239 49.627 o
7 2 10 6333.360 6467.030 149.116 35.019 o
7 2 11 17312.600 17623.800 326.848 8.128 o
7 2 12 2626.170 2620.630 117.670 85.125 o
7 2 13 2542.080 2790.150 127.654 79.688 o
7 2 14 5086.730 5333.090 210.114 32.571 o
7 3 0 6086.220 6648.360 73.828 44.204 o
7 3 1 25961.800 25122.400 274.824 5.326 o
7 3 2 2718.400 2329.240 36.750 132.394 o
7 3 3 51420.600 49599.200 512.952 1.645 o
7 3 4 22501.600 24193.100 247.100 6.370 o
7 3 5 5269.060 4585.000 63.631 58.478 o
7 3 6 23462.600 23467.600 283.490 5.984 o
7 3 7 3515.500 3825.180 78.456 79.783 o
7 3 8 5291.620 5158.130 98.909 50.538 o
7 3 9 14825.000 14327.900 218.926 11.971 o
7 3 10 719.142 542.497 67.832 320.679 o
7 3 11 2718.110 2927.860 111.393 84.748 o
7 3 12 12333.300 12169.000 224.632 14.540 o
7 3 13 3931.240 3635.180 133.052 58.631 o
7 3 14 8969.350 8438.870 289.741 16.642 o
7 4 0 6072.800 6746.420 67.578 44.572 o
7 4 1 41540.100 39827.200 413.134 2.418 o
7 4 2 1237.200 1119.170 29.659 301.350 o
7 4 3 374.346 320.316 22.694 977.389 o
7 4 4 85.826 114.176 22.594 2554.590 o
7 4 5 11114.100 10782.000 135.456 19.737 o
7 4 6 6724.840 6607.130 92.250 39.339 o
7 4 7 9588.900 9771.510 146.069 22.671 o
7 4 8 12463.800 12562.600 167.445 15.922 o
7 4 9 869.405 810.061 60.306 303.793 o
7 4 10 15220.700 14936.600 203.219 11.816 o
7 4 11 635.406 626.458 87.032 248.833 o
7 4 12 196.152 273.951 96.496 280.126 o
7 4 13 2787.580 2819.380 126.632 76.822 o
7 4 14 3707.950 3431.780 170.749 49.907 o
7 5 0 560.566 511.760 21.447 679.322 o
7 5 1 3872.290 3826.210 62.346 79.182 o
7 5 2 10944.100 11726.300 114.020 19.964 o
7 5 3 64349.300 64701.800 598.990 1.091 o
7 5 4 10825.500 10685.400 135.259 20.259 o
7 5 5 21549.200 20803.400 259.241 7.010 o
7 5 6 12305.400 11638.600 126.740 17.750 o
7 5 7 8376.030 8576.150 142.798 26.620 o
7 5 8 16542.600 15945.100 212.130 10.563 o
7 5 9 4224.740 4060.930 87.698 66.676 o
7 5 10 6288.900 6758.680 138.870 35.861 o
7 5 11 4023.910 3856.060 107.979 64.252 o
7 5 12 11360.400 11498.800 226.122 15.691 o
7 5 13 4218.000 4262.220 140.398 52.211 o
7 5 14 1365.390 1537.230 157.065 85.410 o
7 6 0 2639.160 3154.820 51.311 115.201 o
7 6 1 20439.200 19933.000 188.676 8.115 o
7 6 2 1033.680 1080.080 28.941 344.351 o
7 6 3 6117.840 5813.440 73.963 46.441 o
7 6 4 17007.800 17684.500 210.895 9.877 o
7 6 5 23346.600 22805.700 256.798 6.268 o
7 6 6 16005.500 15183.700 163.688 11.873 o
7 6 7 8862.490 9053.860 141.559 25.067 o
7 6 8 14759.400 14969.000 200.254 12.172 o
7 6 9 72.822 89.502 56.735 808.990 o
7 6 10 18318.400 18581.300 266.773 8.387 o
7 6 11 2593.330 2546.490 102.714 95.023 o
7 6 12 2222.860 2671.110 109.100 96.848 o
7 6 13 1774.950 1958.190 126.608 99.356 o
7 6 14 2098.910 2280.310 154.410 73.658 o
7 7 0 40735.600 39830.700 359.263 2.551 o
7 7 1 14412.300 13134.100 162.698 13.901 o
7 7 2 4145.110 3998.140 58.606 74.970 o
7 7 3 39444.100 39895.700 412.834 2.544 o
7 7 4 8365.230 8315.200 99.747 29.685 o
7 7 5 16829.000 18204.600 211.761 9.825 o
7 7 6 18253.300 17731.500 209.753 9.283 o
7 7 7 3084.520 3103.590 73.021 95.460 o
7 7 8 25135.900 25032.200 299.494 5.364 o
7 7 9 12306.600 11978.700 173.129 16.238 o
7 7 10 4215.580 4143.680 109.359 60.715 o
7 7 11 1769.340 2138.450 100.836 120.267 o
7 7 12 8543.940 8877.960 207.921 21.696 o
7 7 13 41.002 -117.206 116.518 222.273 o
7 7 14 4984.120 5329.650 260.784 26.163 o
7 8 0 5156.520 5658.330 73.122 53.636 o
7 8 1 53897.300 51205.200 537.997 1.522 o
7 8 2 10192.900 10041.900 103.855 23.073 o
7 8 3 10342.700 10889.300 140.402 20.668 o
7 8 4 28092.500 26916.600 253.376 4.864 o
7 8 5 17532.800 17503.500 188.756 9.940 o
7 8 6 287.131 344.547 38.534 821.399 o
7 8 7 21868.000 22328.700 275.634 6.576 o
7 8 8 2958.910 2980.200 75.876 98.002 o
7 8 9 3617.370 3893.950 102.317 70.127 o
7 8 10 7396.340 7736.520 156.771 29.049 o
7 8 11 6002.910 6069.320 136.800 38.616 o
7 8 12 9367.030 9131.140 203.084 20.535 o
7 8 13 309.584 446.010 119.768 180.588 o
7 8 14 8200.050 8189.340 247.825 20.100 o
7 9 0 7026.760 6759.050 77.263 38.886 o
7 9 1 72555.600 72709.200 717.832 0.861 o
7 9 2 13355.300 12540.000 120.764 16.096 o
7 9 3 9925.340 9716.860 111.522 23.634 o
7 9 4 13849.900 14023.000 161.022 14.038 o
7 9 5 2203.150 2078.860 50.652 150.759 o
7 9 6 24697.100 25752.800 314.946 5.292 o
7 9 7 8129.230 8496.010 142.386 27.337 o
7 9 8 378.679 495.417 47.468 574.095 o
7 9 9 8562.860 8763.740 133.597 26.545 o
7 9 10 1986.740 2022.880 86.327 129.169 o
7 9 11 1992.050 2171.290 113.020 103.759 o
7 9 12 8549.060 8942.740 175.163 23.742 o
7 9 13 1191.470 1396.570 131.514 112.995 o
7 9 14 3050.890 3335.970 185.613 49.578 o
7 10 0 382.594 386.343 27.122 859.968 o
7 10 1 15580.900 15135.900 191.635 11.721 o
7 10 2 23238.900 22965.300 215.499 6.536 o
7 10 3 6742.040 5865.330 82.995 41.921 o
7 10 4 21630.900 21506.600 231.217 7.104 o
7 10 5 103.422 102.517 31.592 1756.400 o
7 10 6 2991.300 3084.960 66.759 100.358 o
7 10 7 14643.500 14370.500 176.364 12.937 o
7 10 8 341.212 339.695 59.459 507.253 o
7 10 9 7363.070 7175.460 128.969 32.408 o
7 10 10 103.987 101.180 71.197 526.595 o
7 10 11 410.069 608.779 96.718 237.682 o
7 10 12 1990.510 2160.810 108.628 107.455 o
7 10 13 6458.420 6683.930 185.565 30.103 o
7 10 14 2725.760 2361.480 209.960 46.379 o
7 11 0 88604.900 85190.500 878.604 0.606 o
7 11 1 22858.400 22592.700 241.801 6.522 o
7 11 2 16014.000 15415.700 161.943 11.815 o
7 11 3 5936.980 6157.320 84.660 45.327 o
7 11 4 18136.600 18801.800 224.059 8.929 o
7 11 5 2541.930 2734.170 70.303 113.880 o
7 11 6 2935.280 2699.760 58.797 109.923 o
7 11 7 199.628 244.157 41.138 941.092 o
7 11 8 1358.870 1321.310 66.448 204.907 o
7 11 9 10770.100 11050.200 167.798 18.845 o
7 11 10 1397.860 1490.190 80.534 172.859 o
7 11 11 17118.300 17373.800 279.783 8.924 o
7 11 12 66.549 216.981 100.503 279.712 o
7 11 13 2372.190 2547.640 143.508 74.933 o
7 11 14 24.259 -326.916 188.784 85.618 o
7 12 0 35442.200 35600.700 356.600 3.113 o
7 12 1 17567.000 18262.000 152.715 10.127 o
7 12 2 24122.900 23874.000 201.440 6.260 o
7 12 3 2426.080 2535.410 56.875 128.640 o
7 12 4 29358.900 29650.600 318.464 4.210 o
7 12 5 10325.800 10666.000 148.039 20.566 o
7 12 6 232.044 112.019 39.259 1042.480 o
7 12 7 8037.280 8329.440 107.941 30.128 o
7 12 8 77.255 41.288 48.993 1066.460 o
7 12 9 1131.850 1316.080 61.836 234.323 o
7 12 10 6414.660 6796.090 166.282 32.218 o
7 12 11 8820.790 9176.080 178.144 22.841 o
7 12 12 29.383 -47.737 104.817 275.117 o
7 12 13 5489.430 5134.340 175.650 36.811 o
7 13 0 7003.840 7250.010 78.549 37.802 o
7 13 1 4300.590 4316.310 56.099 71.373 o
7 13 2 38507.000 38506.700 342.026 2.780 o
7 13 3 33341.500 33247.300 289.608 3.590 o
7 13 4 5681.220 5949.530 122.510 42.335 o
7 13 5 4489.410 4442.490 75.180 64.713 o
7 13 6 7054.110 7326.530 109.337 34.950 o
7 13 7 1613.580 1694.540 64.072 178.394 o
7 13 8 4016.440 4120.200 88.543 68.425 o
7 13 9 6727.130 6870.770 163.452 31.481 o
7 13 10 2753.770 3013.970 123.041 77.756 o
7 13 11 1367.940 1248.560 103.489 145.218 o
7 13 12 11337.000 11459.900 211.095 16.283 o
7 13 13 8724.040 9180.020 266.841 17.746 o
7 14 0 6430.590 6348.160 81.793 42.397 o
7 14 1 27155.800 25096.600 259.133 5.174 o
7 14 2 9400.500 9743.450 99.016 25.238 o
7 14 3 2184.380 2217.580 50.175 148.824 o
7 14 4 15670.600 15537.800 197.484 11.435 o
7 14 5 9611.410 9536.370 121.658 24.018 o
7 14 6 6635.210 6828.620 118.767 36.616 o
7 14 7 15321.800 15624.700 201.119 11.566 o
7 14 8 7335.920 7546.970 128.424 31.948 o
7 14 9 143.705 334.628 70.546 472.075 o
7 14 10 17439.200 17862.500 262.679 8.933 o
7 14 11 2914.690 3058.730 117.588 77.948 o
7 14 12 4457.990 4761.560 162.027 44.439 o
7 14 13 672.526 402.840 161.785 100.317 o
7 15 0 965.380 775.779 43.093 351.139 o
7 15 1 29392.900 29453.200 271.671 4.386 o
7 15 2 1313.970 1444.230 45.008 242.118 o
7 15 3 37632.100 36913.400 454.751 2.679 o
7 15 4 8097.460 8001.750 87.083 31.719 o
7 15 5 14956.500 15354.500 217.544 11.582 o
7 15 6 9619.380 10172.800 157.042 21.727 o
7 15 7 2954.360 3111.670 95.041 87.662 o
7 15 8 8515.470 8977.050 126.960 26.805 o
7 15 9 1624.270 1639.160 86.182 150.186 o
7 15 10 5606.320 5750.120 143.788 40.013 o
7 15 11 2719.420 2765.370 116.996 83.009 o
7 15 12 16472.900 17610.300 411.444 7.190 o
7 15 13 116.035 45.922 162.939 112.474 o
7 16 0 28457.300 29429.000 300.518 4.422 o
7 16 1 22903.900 23531.100 256.082 6.293 o
7 16 2 408.988 363.753 35.384 737.287 o
7 16 3 8903.030 8885.320 120.973 26.330 o
7 16 4 495.119 429.792 40.661 593.714 o
7 16 5 19360.100 19611.000 213.265 8.375 o
7 16 6 5022.920 5051.030 99.268 52.735 o
7 16 7 2673.270 2741.820 75.849 107.162 o
7 16 8 7251.150 7542.520 133.168 31.810 o
7 16 9 3869.650 3924.500 122.609 61.050 o
7 16 10 8809.790 8769.340 222.514 20.468 o
7 16 11 645.291 297.274 108.570 194.760 o
7 16 12 2899.640 2976.780 157.366 61.425 o
7 16 13 285.997 365.166 158.098 112.207 o
7 17 0 330.708 317.032 43.416 715.986 o
7 17 1 2443.720 2641.190 60.473 124.097 o
7 17 2 4803.810 4868.400 73.177 59.917 o
7 17 3 9705.510 9774.350 129.114 23.252 o
7 17 4 3588.040 3810.230 85.845 76.444 o
7 17 5 3457.670 3343.490 76.232 85.205 o
7 17 6 1860.500 1850.680 67.469 156.800 o
7 17 7 9765.830 9948.090 137.867 22.573 o
7 17 8 9196.320 9404.040 155.250 23.267 o
7 17 9 3317.680 3478.450 99.215 77.585 o
7 17 10 5841.290 5782.830 149.082 38.181 o
7 17 11 179.459 124.780 122.825 188.329 o
7 17 12 4062.900 4071.320 161.156 48.566 o
7 18 0 744.529 824.571 46.346 384.353 o
7 18 1 3841.150 4081.630 91.312 69.871 o
7 18 2 2947.110 3118.030 68.781 100.067 o
7 18 3 6391.660 6677.240 95.746 40.387 o
7 18 4 11717.900 11828.500 162.348 17.328 o
7 18 5 15191.000 15581.600 204.944 11.595 o
7 18 6 15063.600 15572.000 176.761 12.180 o
7 18 7 6954.430 7469.150 126.136 33.536 o
7 18 8 7098.210 7326.240 133.364 32.625 o
7 18 9 8893.320 8818.010 146.765 24.946 o
7 18 10 5623.450 5531.830 144.984 40.236 o
7 18 11 4080.910 4023.170 149.815 51.483 o
7 18 12 6280.110 6018.990 174.411 32.859 o
7 19 0 4778.450 5268.710 84.172 56.480 o
7 19 1 12943.200 12915.700 127.315 16.207 o
7 19 2 10047.200 10273.600 132.250 22.017 o
7 19 3 12754.700 12720.800 139.861 16.238 o
7 19 4 17633.800 18391.900 178.276 9.784 o
7 19 5 2141.270 2115.510 68.074 138.479 o
7 19 6 6813.300 7012.810 123.088 35.143 o
7 19 7 3507.070 3564.430 94.926 76.064 o
7 19 8 15512.300 15450.700 262.943 10.381 o
7 19 9 9544.960 9417.110 165.434 22.078 o
7 19 10 9112.570 8601.390 207.375 21.063 o
7 19 11 2659.220 3123.470 159.672 61.889 o
7 19 12 3804.760 3806.430 199.588 41.341 o
7 20 0 686.912 691.542 50.358 397.498 o
7 20 1 5615.870 6043.510 100.983 45.457 o
7 20 2 9160.510 8908.490 124.345 25.528 o
7 20 3 7500.170 7649.420 100.963 33.428 o
7 20 4 2230.270 2243.350 64.525 135.577 o
7 20 5 4473.730 4791.330 102.404 57.374 o
7 20 6 5892.500 6033.150 128.908 40.241 o
7 20 7 1312.660 1042.440 80.415 191.913 o
7 20 8 4684.220 4820.050 114.661 53.001 o
7 20 9 8081.550 7898.370 196.173 24.154 o
7 20 10 711.410 669.736 106.062 185.696 o
7 20 11 1229.060 1184.270 125.262 121.941 o
7 20 12 5231.640 5023.160 202.011 33.801 o
7 21 0 9848.440 10060.900 116.294 23.249 o
7 21 1 8197.510 8110.440 119.612 29.218 o
7 21 2 6695.040 6826.050 117.221 36.544 o
7 21 3 75.724 136.361 47.735 1030.290 o
7 21 4 9926.320 10298.900 134.359 22.120 o
7 21 5 327.697 386.872 56.851 529.439 o
7 21 6 3636.690 3542.020 95.760 74.230 o
7 21 7 5060.170 5095.630 122.768 48.025 o
7 21 8 1051.200 834.685 93.185 189.380 o
7 21 9 25.052 68.694 99.757 299.063 o
7 21 10 7545.720 7778.750 277.987 19.166 o
7 21 11 10112.100 9592.830 342.616 12.979 o
7 22 0 30034.300 30081.500 265.611 4.268 o
7 22 1 2327.670 2380.320 70.938 125.033 o
7 22 2 4260.630 4110.210 82.713 67.260 o
7 22 3 6918.650 7400.050 115.994 34.719 o
7 22 4 3186.310 3089.840 80.682 90.333 o
7 22 5 6283.200 6667.780 131.881 36.875 o
7 22 6 78.603 131.241 73.382 503.577 o
7 22 7 1033.310 1078.790 92.445 184.494 o
7 22 8 1795.260 1705.840 103.027 123.595 o
7 22 9 2232.510 2272.750 119.774 93.141 o
7 22 10 2879.670 3339.150 135.872 68.621 o
7 22 11 5035.790 5453.060 185.391 36.322 o
7 23 0 584.360 606.670 60.098 381.483 o
7 23 1 3322.970 3360.420 82.751 84.824 o
7 23 2 17457.800 17451.700 239.944 9.324 o
7 23 3 10954.100 11100.200 173.979 18.329 o
7 23 4 2323.890 2415.560 82.169 116.442 o
7 23 5 2123.030 2336.970 84.729 121.378 o
7 23 6 76.630 207.635 101.553 273.746 o
7 23 7 1578.400 1566.440 98.776 137.676 o
7 23 8 1945.010 2043.580 105.680 112.440 o
7 23 9 4002.890 4380.580 140.108 53.341 o
7 23 10 552.957 428.899 131.575 145.035 o
7 23 11 902.232 806.447 164.219 91.183 o
7 24 0 9090.040 9156.890 148.980 24.063 o
7 24 1 5375.190 5698.420 133.509 42.806 o
7 24 2 8135.660 8518.040 169.145 25.406 o
7 24 3 5227.430 5381.270 119.814 46.714 o
7 24 4 4262.080 4298.190 132.965 53.644 o
7 24 5 6627.740 6363.520 136.063 35.657 o
7 24 6 505.987 554.077 73.475 330.105 o
7 24 7 2554.850 2681.670 111.555 89.256 o
7 24 8 3947.610 3867.240 130.160 58.409 o
7 24 9 2518.070 2755.060 134.008 76.896 o
7 24 10 1137.560 1206.250 152.343 95.140 o
7 25 0 9729.100 9740.160 193.940 20.051 o
7 25 1 7823.050 7891.710 149.521 28.334 o
7 25 2 7026.020 7387.360 185.327 27.829 o
7 25 3 4986.090 5232.230 116.561 49.207 o
7 25 4 17610.500 17438.300 302.374 8.399 o
7 25 5 6769.810 6645.980 144.241 33.753 o
7 25 6 12520.100 12584.000 212.946 14.548 o
7 25 7 1003.190 978.362 87.927 199.542 o
7 25 8 693.310 767.791 109.037 177.083 o
7 25 9 1113.800 1104.460 129.744 120.567 o
7 25 10 3381.770 3100.310 209.238 42.207 o
7 26 0 180.219 117.845 73.710 464.609 o
7 26 1 15180.200 16267.500 229.217 10.957 o
7 26 2 8804.010 9147.480 178.432 22.879 o
7 26 3 7428.700 7230.610 174.692 28.027 o
7 26 4 3977.790 3916.380 110.046 63.805 o
7 26 5 1007.490 1040.530 97.213 177.438 o
7 26 6 5927.150 5744.740 136.238 39.715 o
7 26 7 3984.150 4221.560 132.463 56.087 o
7 26 8 9267.560 9775.040 194.158 20.695 o
7 26 9 6512.410 6577.940 288.377 20.351 o
7 27 0 690.585 670.730 98.091 207.515 o
7 27 1 14933.600 15083.000 251.863 11.006 o
7 27 2 1771.320 1808.460 91.502 134.927 o
7 27 3 2812.420 2709.620 111.189 85.084 o
7 27 4 8011.770 8008.100 196.109 24.186 o
7 27 5 2118.770 2032.350 108.703 105.942 o
7 27 6 3598.970 3336.430 130.200 63.734 o
7 27 7 4144.410 4001.800 160.705 48.413 o
7 27 8 1957.200 1687.040 187.923 60.770 o
7 27 9 910.571 685.243 149.181 107.106 o
7 28 0 215.158 163.165 81.620 377.955 o
7 28 1 3214.660 3139.650 109.285 77.140 o
7 28 2 346.840 330.325 99.751 245.796 o
7 28 3 4614.430 4594.490 144.681 47.737 o
7 28 4 3108.560 3406.730 112.411 75.466 o
7 28 5 7262.220 7204.500 195.693 26.548 o
7 28 6 9884.730 9709.470 210.855 19.007 o
7 28 7 764.953 707.798 155.431 102.813 o
7 28 8 1703.940 1406.240 182.672 66.390 o
7 29 0 4865.380 4836.160 153.122 44.022 o
7 29 1 3109.740 3096.980 112.398 77.466 o
7 29 2 3032.420 2896.480 132.711 70.694 o
7 29 3 2675.480 2760.230 123.686 80.168 o
7 29 4 2098.380 2110.100 123.555 94.314 o
7 29 5 1204.860 1145.620 150.544 96.157 o
7 29 6 258.359 114.833 135.746 153.384 o
7 29 7 4121.180 3974.840 201.496 39.380 o
7 29 8 6068.060 6169.510 319.178 18.732 o
7 30 0 3999.850 3968.960 113.380 62.377 o
7 30 1 5006.600 5297.930 137.242 45.093 o
7 30 2 638.882 698.541 120.130 158.088 o
7 30 3 4948.330 4918.750 169.642 40.358 o
7 30 4 2337.310 2504.540 129.681 83.368 o
7 30 5 5623.260 5852.440 158.044 37.617 o
7 30 6 4616.800 4460.930 200.591 36.911 o
7 30 7 139.372 140.848 190.135 82.373 o
7 31 0 284.548 132.725 105.875 237.053 o
7 31 1 5865.340 5676.220 147.422 38.537 o
7 31 2 1337.700 1560.910 125.969 113.587 o
7 31 3 3012.630 3159.390 173.063 54.287 o
7 31 4 6937.950 6909.960 210.493 26.179 o
7 31 5 4685.340 4679.560 164.362 43.063 o
7 31 6 586.297 469.329 171.033 91.871 o
7 32 0 4376.070 4579.100 151.865 47.555 o
7 32 1 5931.680 5905.010 180.055 33.397 o
7 32 2 3521.450 3820.880 150.204 55.860 o
7 32 3 2342.090 2524.490 147.503 73.319 o
7 32 4 1202.660 1113.980 148.818 98.056 o
7 32 5 871.519 590.665 170.979 87.208 o
7 33 0 2944.250 2995.450 183.358 51.840 o
7 33 1 240.273 231.572 133.096 157.439 o
7 33 2 8054.880 8260.000 214.195 22.564 o
7 33 3 4696.530 5216.430 210.966 33.726 o
7 33 4 3136.020 2985.930 186.124 49.916 o
7 34 0 12731.200 12111.300 424.661 8.871 o
7 34 1 81.236 275.910 205.612 70.644 o
7 34 2 94.500 -134.806 166.969 108.050 o
8 0 0 179911.000 164774.000 2630.960 0.134 o
8 0 1 23948.200 23423.300 373.573 5.278 o
8 0 2 10831.300 9967.400 128.533 21.077 o
8 0 3 44916.900 44757.400 710.084 1.713 o
8 0 4 3635.710 3030.240 52.633 92.663 o
8 0 5 13119.800 14072.600 152.504 14.869 o
8 0 6 24954.900 25858.800 324.175 5.181 o
8 0 7 3680.640 3460.840 85.418 77.716 o
8 0 8 279.326 286.839 46.913 718.496 o
8 0 9 3300.090 3509.180 82.189 84.210 o
8 0 10 560.866 559.921 67.394 351.327 o
8 0 11 28725.800 29876.100 480.636 3.625 o
8 0 12 6993.420 6856.390 205.613 26.580 o
8 0 13 40.011 289.936 116.181 212.741 o
8 0 14 8001.530 8125.530 265.167 19.265 o
8 1 0 28478.100 27942.400 263.617 4.674 o
8 1 1 96680.400 94225.800 941.175 0.513 o
8 1 2 33656.100 32095.100 389.465 3.350 o
8 1 3 10721.300 10854.200 143.104 20.001 o
8 1 4 28041.500 25936.100 301.175 4.755 o
8 1 5 5896.650 5521.810 81.100 47.913 o
8 1 6 547.403 529.591 37.988 559.885 o
8 1 7 1654.580 1716.330 52.093 190.476 o
8 1 8 2217.640 2242.630 62.757 137.437 o
8 1 9 4253.520 4309.400 101.765 61.569 o
8 1 10 9968.300 9976.120 189.257 19.772 o
8 1 11 6880.710 7108.620 166.284 30.409 o
8 1 12 8319.910 7982.190 178.816 24.884 o
8 1 13 26788.000 27466.900 460.404 4.059 o
8 1 14 3904.810 4101.750 181.694 44.350 o
8 2 0 2557.140 2830.650 69.824 112.447 o
8 2 1 32801.100 32902.200 365.579 3.463 o
8 2 2 22771.800 22339.700 212.175 6.775 o
8 2 3 30836.900 28891.900 389.608 3.810 o
8 2 4 1595.500 1770.310 41.926 205.065 o
8 2 5 9554.760 8698.890 113.372 25.429 o
8 2 6 462.704 512.239 37.581 617.192 o
8 2 7 3655.010 3982.680 79.074 76.485 o
8 2 8 6256.930 6433.280 96.051 41.603 o
8 2 9 885.195 985.162 60.698 286.725 o
8 2 10 2386.980 2418.020 87.730 110.756 o
8 2 11 708.122 740.057 86.618 237.201 o
8 2 12 15803.900 15502.300 239.191 10.643 o
8 2 13 4267.330 4815.720 161.680 45.337 o
8 2 14 13676.900 12884.500 422.407 8.490 o
8 3 0 18657.100 17994.400 208.547 9.055 o
8 3 1 72578.000 68279.700 765.411 0.871 o
8 3 2 11283.600 12060.900 126.234 18.854 o
8 3 3 156.653 157.915 22.913 1840.080 o
8 3 4 11420.900 11329.000 124.408 19.235 o
8 3 5 14830.800 14799.000 174.244 12.673 o
8 3 6 5664.260 5823.170 95.055 46.623 o
8 3 7 4213.390 4300.100 96.490 63.329 o
8 3 8 9467.000 9492.640 157.326 22.575 o
8 3 9 1712.260 1671.040 68.766 167.357 o
8 3 10 9340.370 9784.490 149.615 22.940 o
8 3 11 1650.460 1816.300 104.044 125.196 o
8 3 12 3254.670 3327.270 113.118 73.850 o
8 3 13 227.915 314.833 121.301 184.546 o
8 3 14 9435.110 10063.700 278.971 15.991 o
8 4 0 8474.160 7810.750 98.953 30.153 o
8 4 1 25750.000 23888.900 236.543 5.692 o
8 4 2 12965.400 12102.500 129.652 16.591 o
8 4 3 13991.300 13369.900 148.144 14.469 o
8 4 4 7394.870 6529.620 89.828 36.808 o
8 4 5 2845.500 3197.130 65.499 102.946 o
8 4 6 9791.630 9438.940 141.533 22.824 o
8 4 7 6760.480 6738.320 121.042 36.067 o
8 4 8 2457.040 2508.560 66.167 122.197 o
8 4 9 2524.480 2465.480 74.059 115.735 o
8 4 10 4810.490 4451.540 106.307 55.196 o
8 4 11 7908.500 7596.740 155.287 28.036 o
8 4 12 11080.700 10725.600 198.787 17.438 o
8 4 13 4975.130 4885.500 148.251 44.280 o
8 4 14 6217.190 5961.140 213.550 28.464 o
8 5 0 49799.000 48564.700 459.142 1.770 o
8 5 1 32979.000 34560.600 306.988 3.516 o
8 5 2 5486.220 5707.220 67.561 51.699 o
8 5 3 22819.000 21999.900 214.549 6.795 o
8 5 4 45860.000 44591.600 549.448 1.897 o
8 5 5 11511.200 11577.900 132.666 18.682 o
8 5 6 11125.500 11368.700 160.051 18.443 o
8 5 7 10171.900 10136.400 161.368 20.653 o
8 5 8 8186.100 7613.720 135.959 28.779 o
8 5 9 5709.760 5926.370 126.388 41.696 o
8 5 10 3159.770 3188.550 108.782 77.761 o
8 5 11 19972.200 20081.800 394.314 6.245 o
8 5 12 10176.100 10432.000 220.551 17.742 o
8 5 13 420.486 636.284 120.054 169.494 o
8 5 14 4458.920 4744.110 180.422 40.748 o
8 6 0 654.526 677.230 27.809 534.004 o
8 6 1 40237.200 39661.900 465.306 2.411 o
8 6 2 45584.100 45519.700 375.455 2.098 o
8 6 3 2686.950 2703.120 57.543 117.344 o
8 6 4 12486.600 12935.700 175.848 15.475 o
8 6 5 5959.840 5981.590 85.397 45.619 o
8 6 6 12622.700 12598.400 182.669 15.317 o
8 6 7 18152.100 18257.300 289.120 8.229 o
8 6 8 9405.370 9455.690 160.510 22.550 o
8 6 9 17379.800 17401.800 219.248 9.652 o
8 6 10 6409.580 5973.330 122.041 38.961 o
8 6 11 669.603 852.119 96.118 207.774 o
8 6 12 1091.640 1359.140 103.230 154.661 o
8 6 13 6814.500 6936.200 179.675 29.463 o
8 6 14 4592.700 4631.840 178.193 40.858 o
8 7 0 2361.650 2379.900 51.182 137.379 o
8 7 1 36027.700 35542.400 375.827 3.023 o
8 7 2 935.739 1017.390 31.477 366.968 o
8 7 3 23080.800 23381.100 255.082 6.273 o
8 7 4 19367.900 20023.800 236.356 8.065 o
8 7 5 31357.000 31755.000 305.367 3.862 o
8 7 6 11306.000 11896.800 203.901 16.346 o
8 7 7 7729.610 8080.590 120.770 30.527 o
8 7 8 2348.380 2477.260 64.074 127.595 o
8 7 9 534.048 483.650 61.362 402.597 o
8 7 10 9349.860 9248.350 179.745 21.775 o
8 7 11 411.054 685.190 95.135 239.619 o
8 7 12 8689.490 8422.530 163.136 24.760 o
8 7 13 301.535 415.081 132.277 153.165 o
8 7 14 2585.510 2544.820 208.854 46.931 o
8 8 0 21419.100 21425.400 190.967 7.480 o
8 8 1 46355.300 47223.100 453.874 1.938 o
8 8 2 16739.400 17538.400 178.509 10.485 o
8 8 3 34266.300 34502.400 314.873 3.368 o
8 8 4 2000.890 2086.960 48.370 162.252 o
8 8 5 1547.470 1754.370 46.098 204.502 o
8 8 6 2685.610 2689.690 64.380 113.932 o
8 8 7 4148.770 3969.700 77.589 70.633 o
8 8 8 11166.300 11037.800 156.007 18.755 o
8 8 9 236.892 207.394 60.351 578.058 o
8 8 10 1751.450 2028.930 90.535 132.816 o
8 8 11 1370.280 1440.500 103.148 141.952 o
8 8 12 11184.300 10782.000 215.663 16.629 o
8 8 13 9358.010 9416.620 256.324 17.496 o
8 8 14 3801.250 3434.690 180.057 46.896 o
8 9 0 37689.600 36290.100 379.838 2.853 o
8 9 1 26656.300 26364.900 280.322 5.052 o
8 9 2 29767.200 30074.500 324.206 4.107 o
8 9 3 2418.240 2755.470 68.664 118.067 o
8 9 4 8052.200 8243.740 108.190 30.194 o
8 9 5 9751.940 9231.870 113.629 24.404 o
8 9 6 472.350 482.270 40.591 592.339 o
8 9 7 523.437 516.170 46.136 510.551 o
8 9 8 1424.490 1378.000 61.598 206.137 o
8 9 9 3519.860 3653.400 87.548 77.889 o
8 9 10 8340.730 9050.530 161.820 24.918 o
8 9 11 11544.900 11270.800 260.494 14.395 o
8 9 12 1687.510 1513.900 105.888 126.647 o
8 9 13 2089.850 2021.680 153.167 75.905 o
8 9 14 3036.510 2800.350 186.490 50.872 o
8 10 0 48699.900 49400.200 470.435 1.784 o
8 10 1 604.152 791.430 30.306 517.734 o
8 10 2 12256.900 12566.500 137.854 16.948 o
8 10 3 7259.650 7527.850 85.697 35.655 o
8 10 4 8684.730 8772.120 93.978 28.449 o
8 10 5 351.206 387.470 35.630 777.202 o
8 10 6 673.083 621.964 42.754 454.195 o
8 10 7 6716.330 6948.790 105.135 37.408 o
8 10 8 1258.290 1082.820 62.302 232.328 o
8 10 9 2263.470 2117.500 88.180 117.707 o
8 10 10 1474.480 1596.970 85.994 158.103 o
8 10 11 10061.100 10131.300 225.537 17.821 o
8 10 12 1120.340 1164.710 126.158 124.066 o
8 10 13 3302.850 3156.650 176.876 51.289 o
8 10 14 606.281 487.531 248.007 46.577 o
8 11 0 93.513 69.238 27.609 2220.620 o
8 11 1 9701.470 9464.140 108.614 24.482 o
8 11 2 22860.400 22578.700 209.952 6.729 o
8 11 3 4636.290 4519.750 81.967 61.478 o
8 11 4 9204.880 9161.440 105.345 26.083 o
8 11 5 1430.030 1615.310 45.146 221.778 o
8 11 6 290.993 201.282 39.422 884.831 o
8 11 7 1194.940 1311.860 51.265 250.770 o
8 11 8 649.945 706.549 55.092 380.427 o
8 11 9 4710.160 4605.460 101.128 56.475 o
8 11 10 547.650 494.343 77.296 308.903 o
8 11 11 1886.450 1967.840 104.766 115.726 o
8 11 12 2799.230 2683.680 129.794 75.978 o
8 11 13 13684.700 13595.000 349.803 9.896 o
8 12 0 30919.600 32168.500 481.347 3.308 o
8 12 1 38549.200 37324.100 366.091 2.777 o
8 12 2 25067.400 24657.300 208.887 5.895 o
8 12 3 12874.200 12380.800 143.561 16.203 o
8 12 4 970.323 880.165 40.426 347.787 o
8 12 5 4641.000 4718.150 78.747 61.127 o
8 12 6 2202.250 2596.320 60.536 133.059 o
8 12 7 285.968 269.934 43.926 769.099 o
8 12 8 702.664 623.438 51.974 393.926 o
8 12 9 5275.570 5695.490 111.334 46.914 o
8 12 10 7365.750 6793.780 178.408 28.374 o
8 12 11 8427.750 7626.550 164.783 26.053 o
8 12 12 6692.450 7109.260 173.355 30.206 o
8 12 13 1692.900 1941.130 151.211 82.495 o
8 13 0 7730.230 7184.800 111.039 32.674 o
8 13 1 80453.300 78585.800 624.406 0.764 o
8 13 2 2464.620 2442.000 47.276 134.588 o
8 13 3 30558.600 30208.200 285.418 4.124 o
8 13 4 21274.800 21702.000 216.042 7.300 o
8 13 5 1371.590 1349.480 45.840 239.589 o
8 13 6 4769.870 4644.470 90.302 58.034 o
8 13 7 1920.790 1930.870 61.306 158.363 o
8 13 8 3690.560 3856.100 79.938 76.603 o
8 13 9 695.206 612.055 74.230 291.231 o
8 13 10 16095.200 15752.300 238.584 10.429 o
8 13 11 2473.660 2593.010 110.775 91.876 o
8 13 12 8542.020 8082.090 291.436 17.129 o
8 13 13 1908.600 1956.110 165.136 71.451 o
8 14 0 2222.900 2388.390 56.106 139.343 o
8 14 1 28540.100 27969.200 284.163 4.583 o
8 14 2 1025.060 965.548 39.764 330.043 o
8 14 3 26981.500 25980.000 329.289 4.793 o
8 14 4 3000.690 3110.790 71.335 97.851 o
8 14 5 3215.190 3201.400 63.868 95.561 o
8 14 6 12.420 29.069 46.441 1339.220 o
8 14 7 1165.450 1515.790 62.368 220.651 o
8 14 8 1669.930 1826.140 74.364 158.616 o
8 14 9 416.595 332.586 75.630 356.799 o
8 14 10 2476.490 2473.990 97.683 101.268 o
8 14 11 974.232 855.742 112.082 155.511 o
8 14 12 16081.200 15022.500 418.204 7.543 o
8 14 13 994.472 1028.530 167.775 85.398 o
8 15 0 52337.700 51725.400 603.385 1.504 o
8 15 1 34234.900 33637.400 312.323 3.421 o
8 15 2 4481.830 4296.080 74.328 65.745 o
8 15 3 4207.350 4363.440 87.500 65.304 o
8 15 4 8170.150 8567.930 122.379 28.487 o
8 15 5 3462.950 3483.230 78.584 83.149 o
8 15 6 1229.250 1146.300 56.026 245.907 o
8 15 7 1360.510 1401.120 64.198 205.722 o
8 15 8 9140.690 9635.160 135.356 24.213 o
8 15 9 1092.580 1165.780 81.988 199.677 o
8 15 10 9071.240 8667.720 178.167 22.846 o
8 15 11 7046.500 6733.610 183.618 28.735 o
8 15 12 2266.080 2521.500 163.133 66.376 o
8 15 13 160.456 205.420 167.014 104.958 o
8 16 0 12.877 189.331 42.968 1295.480 o
8 16 1 5656.090 5845.660 96.709 46.380 o
8 16 2 40881.800 41727.800 434.587 2.367 o
8 16 3 4176.560 4013.620 77.336 70.101 o
8 16 4 3118.320 3316.290 69.642 94.086 o
8 16 5 7018.960 6960.280 91.740 37.321 o
8 16 6 3824.200 3952.020 81.506 73.722 o
8 16 7 1372.500 1586.540 73.177 183.213 o
8 16 8 2123.510 2208.280 85.754 122.442 o
8 16 9 4992.800 5108.070 157.095 42.015 o
8 16 10 6118.250 6230.530 166.751 33.991 o
8 16 11 973.245 1048.360 115.731 145.558 o
8 16 12 4571.810 4617.420 158.757 44.914 o
8 17 0 26990.100 26190.300 280.331 5.008 o
8 17 1 7548.430 8024.180 88.259 33.477 o
8 17 2 2242.560 2399.780 67.751 129.881 o
8 17 3 22441.300 22641.100 195.973 6.929 o
8 17 4 10136.200 10097.100 129.699 22.122 o
8 17 5 4095.310 4203.650 90.997 66.447 o
8 17 6 4141.250 4213.460 83.700 67.767 o
8 17 7 3229.770 3426.620 92.239 81.994 o
8 17 8 7884.760 8040.770 151.105 27.867 o
8 17 9 6500.950 6327.900 188.002 30.192 o
8 17 10 1296.690 1257.150 101.971 150.115 o
8 17 11 5517.610 5278.100 141.340 41.873 o
8 17 12 6168.520 6065.070 179.039 32.557 o
8 18 0 1849.280 1729.090 58.837 170.028 o
8 18 1 6754.680 6429.910 113.828 37.454 o
8 18 2 3726.950 3685.580 66.044 81.450 o
8 18 3 12913.100 13301.300 145.558 15.620 o
8 18 4 2596.840 2847.300 65.139 113.789 o
8 18 5 4052.400 3826.920 93.353 68.329 o
8 18 6 1164.800 1106.470 65.968 232.000 o
8 18 7 12375.500 12751.600 197.826 15.047 o
8 18 8 12641.700 12921.100 184.897 15.081 o
8 18 9 3260.560 3166.210 105.185 78.075 o
8 18 10 13751.300 13834.800 261.750 11.864 o
8 18 11 410.930 453.554 117.592 180.457 o
8 18 12 456.642 407.626 170.454 94.760 o
8 19 0 10673.400 11300.300 189.508 17.951 o
8 19 1 7166.600 7563.450 130.530 32.278 o
8 19 2 746.421 782.848 46.173 390.030 o
8 19 3 10044.500 9779.580 160.093 21.201 o
8 19 4 5727.600 5873.920 116.031 43.215 o
8 19 5 21680.600 21699.300 227.782 7.085 o
8 19 6 26040.600 26006.900 317.507 5.010 o
8 19 7 352.895 369.942 74.762 372.275 o
8 19 8 9460.440 9258.970 173.581 21.921 o
8 19 9 9216.130 9459.320 193.958 21.026 o
8 19 10 3529.240 3769.700 127.033 63.442 o
8 19 11 9994.470 10010.900 297.399 14.722 o
8 19 12 3761.440 3659.590 265.395 29.489 o
8 20 0 3584.320 3514.050 82.037 79.863 o
8 20 1 1489.160 1860.390 60.065 186.420 o
8 20 2 10752.400 11155.900 178.552 18.377 o
8 20 3 1011.140 1149.130 51.587 284.002 o
8 20 4 16549.000 16882.400 189.783 10.626 o
8 20 5 5387.440 5302.700 99.535 49.319 o
8 20 6 1784.770 1929.220 85.920 138.292 o
8 20 7 14061.600 13891.000 202.590 13.017 o
8 20 8 11556.700 11258.700 220.644 15.815 o
8 20 9 2320.510 2336.630 117.345 92.655 o
8 20 10 5447.010 5451.060 148.808 40.597 o
8 20 11 8430.210 7831.860 189.948 24.014 o
8 21 0 558.544 657.580 59.061 387.543 o
8 21 1 3469.160 3531.750 84.299 80.643 o
8 21 2 30349.900 31219.800 295.816 4.051 o
8 21 3 4306.940 4303.740 99.366 61.697 o
8 21 4 4162.290 4483.650 99.719 62.123 o
8 21 5 2894.960 2960.290 77.021 99.006 o
8 21 6 3413.800 3860.520 118.303 67.109 o
8 21 7 241.157 219.524 82.609 358.940 o
8 21 8 2914.010 2779.890 134.711 71.755 o
8 21 9 11592.600 11640.400 237.510 15.003 o
8 21 10 460.168 276.522 115.814 187.224 o
8 21 11 2507.200 2499.960 175.900 58.977 o
8 22 0 21479.800 21596.200 214.295 7.264 o
8 22 1 21575.100 21378.200 220.463 7.223 o
8 22 2 5457.370 5235.230 95.261 49.749 o
8 22 3 1275.800 1213.910 57.748 233.829 o
8 22 4 4478.310 4443.410 96.746 60.105 o
8 22 5 3419.640 3577.450 122.020 67.197 o
8 22 6 64.450 189.172 74.464 485.082 o
8 22 7 1229.270 1122.530 95.306 167.033 o
8 22 8 548.041 561.497 101.690 211.848 o
8 22 9 1114.430 1295.130 116.188 135.540 o
8 22 10 2429.730 2461.250 131.891 81.104 o
8 22 11 4178.800 4466.860 221.537 34.601 o
8 23 0 4641.190 4822.350 106.072 55.121 o
8 23 1 9663.550 9970.380 148.106 22.257 o
8 23 2 1455.770 1553.950 68.953 185.629 o
8 23 3 10731.000 10773.600 157.148 19.509 o
8 23 4 2266.080 2324.390 76.596 123.647 o
8 23 5 804.680 786.904 75.984 259.241 o
8 23 6 414.181 412.095 78.027 335.072 o
8 23 7 676.043 637.006 91.742 228.742 o
8 23 8 812.417 657.819 100.897 192.348 o
8 23 9 493.616 471.619 124.859 159.514 o
8 23 10 767.613 568.659 149.490 110.864 o
8 24 0 5217.680 5177.880 121.139 47.136 o
8 24 1 15739.500 15219.600 241.335 10.718 o
8 24 2 2813.090 2814.980 90.206 95.355 o
8 24 3 5597.460 5539.220 128.386 42.900 o
8 24 4 4139.750 4261.930 102.331 62.720 o
8 24 5 6136.020 5701.840 151.716 36.820 o
8 24 6 53.568 81.296 85.934 390.615 o
8 24 7 186.152 215.187 90.404 319.016 o
8 24 8 98.451 91.521 105.107 260.725 o
8 24 9 1096.800 1296.410 126.647 122.297 o
8 24 10 2703.870 2717.610 163.978 61.444 o
8 25 0 6016.570 5722.770 121.439 41.404 o
8 25 1 1473.760 1612.710 85.289 158.756 o
8 25 2 7841.220 8146.310 153.790 27.638 o
8 25 3 3343.300 3236.700 95.887 80.244 o
8 25 4 1394.810 1627.140 118.150 119.784 o
8 25 5 1609.510 1881.260 115.858 113.381 o
8 25 6 5668.340 5370.100 130.219 42.684 o
8 25 7 1989.690 2246.270 103.085 111.033 o
8 25 8 5024.630 5320.810 170.086 39.137 o
8 25 9 5662.270 5507.510 290.353 21.931 o
8 26 0 11185.500 11437.800 256.425 14.771 o
8 26 1 397.608 505.726 75.634 343.143 o
8 26 2 16348.500 17292.000 256.622 9.627 o
8 26 3 3775.600 4259.260 116.833 62.102 o
8 26 4 11523.600 11854.000 210.109 15.924 o
8 26 5 3221.680 3139.340 116.923 73.838 o
8 26 6 7582.670 7253.250 237.196 22.420 o
8 26 7 4435.240 4564.320 129.342 52.389 o
8 26 8 1092.040 861.358 114.283 146.927 o
8 26 9 724.552 584.113 138.601 126.022 o
8 27 0 26144.100 25937.800 383.461 4.647 o
8 27 1 2394.630 2671.850 96.313 101.797 o
8 27 2 668.796 686.992 87.089 242.124 o
8 27 3 10980.000 10863.200 220.056 16.630 o
8 27 4 7025.860 7339.860 174.598 28.902 o
8 27 5 4371.170 4149.260 120.624 56.484 o
8 27 6 15405.100 14878.400 244.853 10.934 o
8 27 7 1364.330 1432.450 127.016 113.370 o
8 27 8 5752.640 4456.730 309.403 20.766 o
8 28 0 3518.990 3622.330 114.746 68.501 o
8 28 1 4224.410 3908.500 121.932 58.287 o
8 28 2 4518.660 4441.700 114.425 55.693 o
8 28 3 4170.710 4195.130 122.068 57.522 o
8 28 4 6496.080 6459.920 183.293 30.555 o
8 28 5 6017.720 6222.170 175.738 33.191 o
8 28 6 614.299 429.646 114.060 178.803 o
8 28 7 4498.420 4526.570 194.119 38.398 o
8 28 8 7479.770 7444.630 226.520 23.276 o
8 29 0 1819.650 1356.270 109.744 120.932 o
8 29 1 510.325 575.052 100.861 216.744 o
8 29 2 502.018 649.453 95.614 231.194 o
8 29 3 5746.360 5518.990 147.308 39.380 o
8 29 4 3750.200 3823.890 178.788 46.489 o
8 29 5 5089.950 5244.400 153.654 41.867 o
8 29 6 8816.870 8051.720 259.862 18.671 o
8 29 7 658.695 742.188 151.206 109.279 o
8 30 0 107.503 236.767 103.424 259.706 o
8 30 1 4061.500 4211.970 156.976 49.207 o
8 30 2 10566.100 11038.000 220.268 16.973 o
8 30 3 4113.980 4220.300 146.893 51.391 o
8 30 4 2809.650 2849.690 150.176 65.677 o
8 30 5 4533.090 4568.160 139.933 49.336 o
8 30 6 442.464 343.734 147.035 124.253 o
8 31 0 11956.400 11434.200 241.554 14.636 o
8 31 1 4560.120 4352.330 135.550 50.833 o
8 31 2 780.597 643.359 136.376 126.877 o
8 31 3 1858.050 2043.210 145.840 83.183 o
8 31 4 4723.590 4620.520 217.943 33.405 o
8 31 5 888.003 797.978 153.112 102.214 o
8 31 6 8323.240 8095.550 238.691 20.598 o
8 32 0 604.430 469.420 137.314 132.996 o
8 32 1 3961.290 4065.060 170.483 46.840 o
8 32 2 2172.260 2251.970 162.196 68.962 o
8 32 3 4757.430 4838.950 169.285 41.416 o
8 32 4 7217.610 7164.380 320.215 17.108 o
8 32 5 1595.530 1392.400 272.921 35.366 o
8 33 0 502.180 491.283 153.494 112.318 o
8 33 1 9105.010 8672.010 435.741 10.466 o
8 33 2 992.888 1015.100 155.980 95.714 o
8 33 3 6208.760 6339.630 235.673 25.711 o
8 34 0 735.341 512.851 187.392 76.403 o
8 34 1 11925.800 10680.400 860.449 3.454 o
9 0 1 63.483 89.694 19.477 3401.520 o
9 0 2 17447.000 16763.400 201.405 10.014 o
9 0 3 9952.160 9535.250 110.538 23.803 o
9 0 4 4816.730 5345.370 98.507 53.306 o
9 0 5 4061.060 4234.160 77.365 70.156 o
9 0 6 4785.280 4346.750 92.894 58.658 o
9 0 7 3919.280 3861.100 83.127 72.626 o
9 0 8 1398.380 1360.450 55.404 219.791 o
9 0 9 1149.210 1185.060 63.150 236.171 o
9 0 10 940.336 845.975 72.622 251.153 o
9 0 11 863.114 916.762 83.257 224.718 o
9 0 12 1366.270 1192.160 95.454 158.500 o
9 0 13 3127.750 3363.270 142.880 63.347 o
9 0 14 5851.080 5674.300 254.888 24.982 o
9 1 0 2198.010 2753.290 41.866 141.978 o
9 1 1 29102.700 28831.000 318.814 4.301 o
9 1 2 12149.800 11429.100 126.362 18.099 o
9 1 3 8611.310 8172.430 104.850 28.896 o
9 1 4 6690.150 6946.980 100.416 37.973 o
9 1 5 10925.600 10905.600 140.182 19.761 o
9 1 6 1209.320 1195.880 44.225 271.082 o
9 1 7 94.404 65.129 39.921 1388.730 o
9 1 8 1922.460 2016.400 61.612 155.904 o
9 1 9 7002.220 7044.960 121.305 34.567 o
9 1 10 1802.660 2018.470 83.283 138.753 o
9 1 11 977.468 862.552 97.891 182.856 o
9 1 12 4881.910 5018.380 150.063 44.071 o
9 1 13 7827.980 7937.000 177.710 26.046 o
9 1 14 2441.680 2228.180 162.812 66.265 o
9 2 0 32543.400 32667.500 468.974 3.186 o
9 2 1 6007.830 5680.920 76.998 47.195 o
9 2 2 16601.500 16409.300 187.668 10.762 o
9 2 3 6391.560 6045.650 81.688 43.416 o
9 2 4 123.222 261.489 24.957 1653.680 o
9 2 5 15067.300 15333.500 192.671 11.979 o
9 2 6 3766.730 3826.510 68.383 79.124 o
9 2 7 9356.470 9649.290 151.356 22.945 o
9 2 8 15379.000 15478.000 202.934 11.544 o
9 2 9 790.942 881.619 61.987 304.436 o
9 2 10 8690.890 8899.940 182.124 23.075 o
9 2 11 3457.790 3530.220 109.431 71.618 o
9 2 12 4317.840 4110.520 127.281 55.356 o
9 2 13 847.520 953.323 121.977 141.833 o
9 2 14 4326.060 4333.890 232.151 32.603 o
9 3 0 84127.300 88678.100 1018.650 0.594 o
9 3 1 5211.860 5977.230 85.769 50.309 o
9 3 2 5389.570 5656.360 77.171 51.371 o
9 3 3 27860.300 26904.600 277.325 4.808 o
9 3 4 1126.260 1169.720 31.929 311.586 o
9 3 5 29360.800 30357.000 317.804 4.165 o
9 3 6 22762.300 21523.100 261.720 6.550 o
9 3 7 2682.010 2613.870 62.946 115.880 o
9 3 8 12540.000 12205.200 134.475 16.912 o
9 3 9 1868.610 1876.400 69.230 153.916 o
9 3 10 4221.340 4319.620 133.875 53.627 o
9 3 11 5615.220 5480.520 150.276 39.571 o
9 3 12 5731.410 5759.340 165.281 36.340 o
9 3 13 687.254 693.090 122.742 151.274 o
9 3 14 1419.250 1320.670 174.032 74.392 o
9 4 0 24228.800 23182.900 255.567 6.015 o
9 4 1 6458.550 5799.640 87.641 43.100 o
9 4 2 48592.200 48927.000 462.506 1.805 o
9 4 3 866.800 984.838 32.756 384.294 o
9 4 4 43879.100 41360.200 442.383 2.204 o
9 4 5 8688.130 8574.750 101.675 28.311 o
9 4 6 6570.090 6921.670 110.732 37.519 o
9 4 7 19252.900 18496.200 260.231 8.132 o
9 4 8 4728.190 4678.670 117.714 52.545 o
9 4 9 1888.460 1648.620 70.041 157.455 o
9 4 10 6832.110 6882.860 138.330 33.762 o
9 4 11 5961.850 6288.880 145.198 37.226 o
9 4 12 6764.430 6766.130 146.191 33.362 o
9 4 13 5103.130 5157.600 190.179 35.832 o
9 4 14 756.679 851.400 156.832 100.213 o
9 5 0 3960.830 3062.010 44.190 88.424 o
9 5 1 32513.600 32773.700 331.581 3.596 o
9 5 2 90251.800 91169.100 841.501 0.580 o
9 5 3 169.599 218.566 26.540 1489.870 o
9 5 4 7228.770 7715.340 117.117 32.979 o
9 5 5 1241.200 1255.220 37.921 275.360 o
9 5 6 47461.200 46951.100 506.505 1.840 o
9 5 7 6464.320 6252.250 113.262 39.138 o
9 5 8 16185.500 16504.600 217.327 10.525 o
9 5 9 26951.900 27675.400 384.872 4.396 o
9 5 10 9491.810 9886.990 164.689 21.806 o
9 5 11 2951.970 2903.730 109.369 82.425 o
9 5 12 11.896 -92.816 99.729 306.047 o
9 5 13 16218.200 16590.000 349.237 8.347 o
9 5 14 5982.200 5980.900 192.632 31.524 o
9 6 0 81647.300 82476.800 789.012 0.693 o
9 6 1 4580.130 4330.340 75.438 64.301 o
9 6 2 3159.610 3164.630 51.700 101.620 o
9 6 3 29844.400 31438.200 331.941 3.982 o
9 6 4 76726.100 77716.300 749.085 0.775 o
9 6 5 10175.500 10261.500 122.214 22.205 o
9 6 6 7240.240 7535.760 97.348 34.849 o
9 6 7 21756.300 20829.400 236.072 7.132 o
9 6 8 7279.850 7602.820 112.142 33.407 o
9 6 9 36.836 40.109 60.008 790.265 o
9 6 10 8524.250 8698.880 153.162 25.467 o
9 6 11 21323.200 20992.800 304.134 6.661 o
9 6 12 24141.300 23037.800 329.211 5.578 o
9 6 13 1918.720 1774.840 137.507 90.037 o
9 6 14 6066.310 6038.180 190.633 31.458 o
9 7 0 4827.010 4869.960 61.605 61.570 o
9 7 1 22029.600 21680.400 230.139 6.966 o
9 7 2 18699.200 19078.000 204.047 8.849 o
9 7 3 31225.800 32050.600 346.552 3.734 o
9 7 4 9615.530 10397.400 141.504 22.271 o
9 7 5 7039.100 7383.910 90.591 36.456 o
9 7 6 27171.600 27142.700 313.536 4.743 o
9 7 7 3513.990 3624.250 70.785 83.859 o
9 7 8 25690.300 26631.700 292.206 5.146 o
9 7 9 14783.000 14256.100 199.304 12.424 o
9 7 10 4875.500 5326.180 119.975 48.972 o
9 7 11 5347.220 5602.070 171.251 37.156 o
9 7 12 1954.400 2008.410 109.792 109.088 o
9 7 13 464.848 468.943 140.148 132.583 o
9 7 14 1252.640 1011.440 187.374 69.300 o
9 8 0 2557.190 1962.700 41.676 143.597 o
9 8 1 14361.200 13777.500 168.929 13.545 o
9 8 2 9608.460 9770.610 108.290 24.367 o
9 8 3 13124.200 13600.800 136.839 15.440 o
9 8 4 3424.180 3755.360 74.991 82.855 o
9 8 5 15860.700 15239.800 190.196 11.531 o
9 8 6 1242.860 1338.160 47.805 250.809 o
9 8 7 15605.300 15352.200 212.590 11.272 o
9 8 8 8493.340 8858.240 136.174 26.438 o
9 8 9 6748.770 6906.160 119.539 35.942 o
9 8 10 19593.900 20689.300 310.193 7.125 o
9 8 11 4857.580 4869.950 126.916 49.159 o
9 8 12 301.057 250.878 104.625 235.038 o
9 8 13 1712.270 1589.790 142.512 91.015 o
9 8 14 1407.210 1249.020 183.766 69.005 o
9 9 0 729.636 864.445 33.319 440.244 o
9 9 1 6206.140 6236.230 75.814 44.498 o
9 9 2 46107.800 46883.400 437.299 1.974 o
9 9 3 16102.300 15545.200 184.397 11.373 o
9 9 4 28737.800 30184.600 269.255 4.438 o
9 9 5 17175.700 17957.700 213.655 9.690 o
9 9 6 11388.300 11232.400 185.460 17.286 o
9 9 7 166.083 141.061 47.595 898.040 o
9 9 8 10783.000 10544.300 164.666 19.301 o
9 9 9 1765.190 1788.350 71.498 158.351 o
9 9 10 2287.860 2224.430 105.688 102.434 o
9 9 11 3560.570 3579.450 116.750 67.585 o
9 9 12 5615.560 5816.960 143.943 39.804 o
9 9 13 12368.000 12551.100 261.656 13.229 o
9 10 0 61810.500 61564.900 627.203 1.153 o
9 10 1 5408.700 5376.780 69.364 53.283 o
9 10 2 12300.200 12448.200 148.688 16.680 o
9 10 3 3730.760 3756.790 83.032 75.776 o
9 10 4 4370.180 4209.410 101.195 61.096 o
9 10 5 3548.910 3503.540 73.824 83.265 o
9 10 6 3397.910 3742.440 93.304 76.918 o
9 10 7 2876.120 3079.400 67.668 102.598 o
9 10 8 4172.090 4278.440 94.967 64.234 o
9 10 9 4953.190 5170.540 105.275 51.712 o
9 10 10 5696.250 6022.830 150.473 38.084 o
9 10 11 3339.880 3388.350 125.922 67.561 o
9 10 12 4102.170 4167.180 134.903 54.759 o
9 10 13 173.987 262.886 135.112 155.115 o
9 11 0 3272.040 2965.700 66.863 95.632 o
9 11 1 61427.100 59826.600 557.952 1.215 o
9 11 2 486.440 563.641 30.506 647.164 o
9 11 3 4574.240 4420.580 80.069 62.951 o
9 11 4 16049.300 16197.400 206.201 10.864 o
9 11 5 2539.600 2508.470 57.494 124.922 o
9 11 6 7220.770 7507.090 120.800 33.044 o
9 11 7 991.039 1076.570 51.964 291.242 o
9 11 8 472.301 384.574 53.361 500.229 o
9 11 9 1124.930 1111.520 80.733 201.989 o
9 11 10 7731.610 7591.300 187.312 25.851 o
9 11 11 2144.550 2346.720 110.548 100.614 o
9 11 12 4130.230 4137.900 149.180 50.970 o
9 11 13 550.365 396.606 161.304 103.010 o
9 12 0 3797.400 3555.530 79.165 77.444 o
9 12 1 54678.200 53529.600 439.956 1.538 o
9 12 2 3019.760 2922.670 53.472 107.213 o
9 12 3 67652.800 69304.100 701.612 0.956 o
9 12 4 2394.990 2442.200 62.683 127.556 o
9 12 5 340.250 318.036 35.452 827.907 o
9 12 6 1800.370 1931.170 53.725 172.572 o
9 12 7 1030.550 1036.260 55.283 279.002 o
9 12 8 3517.260 3486.600 79.716 81.878 o
9 12 9 61.453 88.986 61.201 719.525 o
9 12 10 2302.820 2467.680 86.115 113.442 o
9 12 11 747.392 825.162 92.932 211.564 o
9 12 12 13887.600 12930.300 288.321 11.406 o
9 12 13 338.632 372.717 174.145 93.061 o
9 13 0 1205.530 1378.890 43.174 261.884 o
9 13 1 83866.500 82023.400 767.079 0.681 o
9 13 2 1287.480 1271.070 38.442 267.126 o
9 13 3 9723.540 9941.870 162.221 21.494 o
9 13 4 440.215 453.639 40.716 619.374 o
9 13 5 30763.800 31156.500 289.352 4.022 o
9 13 6 875.392 933.095 48.284 335.234 o
9 13 7 152.035 215.114 49.476 826.544 o
9 13 8 18.207 72.749 54.871 935.462 o
9 13 9 588.256 527.895 64.151 366.823 o
9 13 10 16468.500 16627.800 255.628 9.742 o
9 13 11 1550.860 1701.680 111.404 121.858 o
9 13 12 9959.820 9529.740 299.284 14.860 o
9 13 13 528.598 557.486 170.856 92.232 o
9 14 0 6622.370 6347.850 152.269 33.861 o
9 14 1 28748.800 28375.300 349.543 4.259 o
9 14 2 7329.250 6940.900 92.416 36.037 o
9 14 3 19700.100 20655.600 251.643 7.686 o
9 14 4 4051.400 4167.810 76.340 70.927 o
9 14 5 468.121 495.678 42.789 570.713 o
9 14 6 2148.950 2236.300 61.060 141.597 o
9 14 7 2312.880 2311.480 63.866 131.826 o
9 14 8 5566.490 5635.370 132.755 42.142 o
9 14 9 1672.780 1746.340 91.082 140.115 o
9 14 10 2413.430 2616.540 113.597 90.990 o
9 14 11 2121.750 2251.040 121.956 93.783 o
9 14 12 7048.620 7591.660 221.673 24.303 o
9 14 13 713.498 595.418 189.985 74.398 o
9 15 0 2447.430 2222.790 59.617 131.592 o
9 15 1 1571.120 1468.750 49.099 210.172 o
9 15 2 44393.800 43741.900 454.311 2.104 o
9 15 3 1356.850 1294.930 46.210 243.457 o
9 15 4 577.342 521.767 41.414 521.218 o
9 15 5 2.007 -5.507 42.021 1724.370 o
9 15 6 13860.900 14575.200 188.097 13.226 o
9 15 7 890.825 894.850 55.116 311.790 o
9 15 8 3077.740 3357.700 93.728 84.248 o
9 15 9 12707.900 12619.400 185.831 15.136 o
9 15 10 3615.880 3641.360 126.436 63.432 o
9 15 11 1084.730 1309.730 118.271 133.387 o
9 15 12 680.143 714.004 154.470 105.381 o
9 16 0 89860.800 89916.100 897.243 0.577 o
9 16 1 4010.660 4136.550 94.236 66.844 o
9 16 2 499.809 541.358 46.585 511.814 o
9 16 3 5772.180 5467.380 96.886 46.791 o
9 16 4 33710.900 33529.700 320.418 3.460 o
9 16 5 2500.430 2577.980 64.655 120.751 o
9 16 6 6599.620 6421.040 100.606 39.517 o
9 16 7 1594.300 1429.070 71.024 177.790 o
9 16 8 2532.040 2487.660 89.220 105.396 o
9 16 9 3453.460 3537.790 136.825 61.861 o
9 16 10 12.377 156.029 89.718 360.860 o
9 16 11 22554.800 22693.600 285.132 6.281 o
9 16 12 2692.170 2415.000 159.785 64.570 o
9 17 0 1553.230 1810.790 60.655 183.079 o
9 17 1 15023.300 15328.300 185.696 12.137 o
9 17 2 18341.800 18338.200 181.460 9.415 o
9 17 3 7326.110 7504.640 124.199 32.408 o
9 17 4 6122.180 5993.650 92.781 43.813 o
9 17 5 131.682 83.361 49.373 935.258 o
9 17 6 5405.170 5429.130 107.662 47.521 o
9 17 7 4549.590 4767.960 113.370 54.454 o
9 17 8 3309.200 3408.650 102.413 76.913 o
9 17 9 6163.790 6253.870 144.617 36.588 o
9 17 10 1643.490 1604.680 101.707 131.319 o
9 17 11 2787.520 2474.940 147.708 68.783 o
9 17 12 904.458 1024.500 152.753 100.255 o
9 18 0 871.268 788.809 53.696 329.996 o
9 18 1 522.053 567.599 50.421 468.495 o
9 18 2 2414.760 2602.100 59.278 126.414 o
9 18 3 8775.340 8900.820 121.693 26.576 o
9 18 4 226.944 199.278 44.422 860.403 o
9 18 5 4871.680 5154.420 123.519 48.856 o
9 18 6 2723.710 2730.800 78.668 104.499 o
9 18 7 3891.260 3993.180 99.736 67.332 o
9 18 8 1448.550 1450.260 103.111 138.954 o
9 18 9 105.281 -61.974 89.330 360.762 o
9 18 10 2694.170 2781.110 122.702 80.278 o
9 18 11 51.487 142.677 135.831 160.777 o
9 18 12 1024.060 1060.270 172.970 80.849 o
9 19 0 449.589 495.969 54.010 481.588 o
9 19 1 630.909 682.817 54.465 391.593 o
9 19 2 24862.700 25269.900 212.282 5.855 o
9 19 3 9234.020 9233.540 145.710 23.880 o
9 19 4 8076.690 8307.020 131.695 28.455 o
9 19 5 3054.880 3306.870 88.960 87.123 o
9 19 6 3371.900 3191.580 86.516 83.912 o
9 19 7 476.644 408.619 76.103 334.680 o
9 19 8 6042.970 5758.960 126.388 40.523 o
9 19 9 474.877 408.016 91.291 262.124 o
9 19 10 379.594 634.154 109.208 199.285 o
9 19 11 317.112 441.422 150.329 121.324 o
9 20 0 33900.400 34023.400 341.688 3.363 o
9 20 1 2249.600 2299.990 72.286 127.885 o
9 20 2 7403.600 7538.180 111.177 33.170 o
9 20 3 1555.010 1589.890 63.781 185.764 o
9 20 4 2668.280 2824.140 72.953 107.901 o
9 20 5 1015.640 1078.910 64.488 252.797 o
9 20 6 287.084 228.399 67.593 469.366 o
9 20 7 1056.710 978.754 84.840 202.738 o
9 20 8 1052.040 1274.430 93.531 175.603 o
9 20 9 5139.560 5226.160 143.571 43.455 o
9 20 10 3933.420 4169.590 131.630 56.904 o
9 20 11 11848.600 11518.600 286.202 13.199 o
9 21 0 11720.000 12160.500 129.232 18.105 o
9 21 1 17321.200 17560.500 189.501 10.026 o
9 21 2 5835.010 6107.250 113.549 42.415 o
9 21 3 4328.540 4210.400 94.646 63.101 o
9 21 4 9339.780 9471.930 166.967 22.305 o
9 21 5 687.108 676.094 63.057 336.318 o
9 21 6 4730.710 4512.790 126.322 51.247 o
9 21 7 1892.380 1902.830 97.208 123.603 o
9 21 8 4044.610 3946.210 113.600 62.004 o
9 21 9 595.447 546.617 105.416 198.429 o
9 21 10 2994.260 2854.990 132.299 71.524 o
9 21 11 3314.620 3388.810 170.053 52.599 o
9 22 0 438.065 689.482 70.576 345.713 o
9 22 1 15968.100 15832.600 189.061 11.294 o
9 22 2 4790.270 4615.000 94.422 57.162 o
9 22 3 32225.600 32618.700 308.738 3.700 o
9 22 4 1795.680 1726.110 71.511 158.366 o
9 22 5 7229.110 7103.460 119.650 33.809 o
9 22 6 395.806 498.437 81.002 314.476 o
9 22 7 907.895 709.809 93.033 203.633 o
9 22 8 498.931 557.072 105.080 205.616 o
9 22 9 680.587 745.580 128.131 141.133 o
9 22 10 371.514 269.626 140.554 137.701 o
9 23 0 233.971 134.180 88.988 326.437 o
9 23 1 41163.700 42356.300 467.293 2.282 o
9 23 2 912.535 842.795 68.869 266.187 o
9 23 3 2963.110 3161.180 89.175 89.865 o
9 23 4 792.586 866.605 67.244 285.997 o
9 23 5 10615.500 10860.500 232.928 16.490 o
9 23 6 252.186 30.399 88.712 334.068 o
9 23 7 1484.380 1246.600 95.513 151.954 o
9 23 8 768.486 638.356 109.363 175.802 o
9 23 9 41.514 83.178 115.872 221.429 o
9 23 10 15681.200 15518.500 265.547 10.230 o
9 24 0 3.522 -2.117 80.077 476.166 o
9 24 1 21307.400 21036.700 246.288 7.155 o
9 24 2 1845.290 1879.290 84.328 138.664 o
9 24 3 29563.800 29996.100 305.303 4.206 o
9 24 4 93.825 103.688 66.943 590.694 o
9 24 5 1527.520 1697.420 94.402 142.551 o
9 24 6 1800.970 1669.890 97.843 129.414 o
9 24 7 1641.210 1660.850 108.970 122.490 o
9 24 8 3848.300 3795.420 146.631 54.676 o
9 24 9 126.325 -61.895 124.511 190.020 o
9 24 10 133.476 213.120 149.910 129.534 o
9 25 0 5562.760 5848.240 163.308 37.085 o
9 25 1 9821.690 10608.000 162.495 20.782 o
9 25 2 10847.500 10217.600 189.349 18.419 o
9 25 3 412.922 517.021 81.349 308.454 o
9 25 4 12148.100 11903.300 238.291 14.380 o
9 25 5 5797.680 5419.890 159.169 37.614 o
9 25 6 277.878 221.757 91.659 297.421 o
9 25 7 1170.690 1046.240 98.507 166.251 o
9 25 8 1727.380 1784.910 170.469 71.116 o
9 25 9 596.693 665.009 140.235 126.014 o
9 26 0 42622.000 42480.500 561.511 2.060 o
9 26 1 1930.330 2019.670 95.945 121.952 o
9 26 2 2740.080 2911.640 98.071 91.593 o
9 26 3 470.523 569.967 83.327 286.695 o
9 26 4 4735.010 4702.380 159.407 43.758 o
9 26 5 4242.340 4112.800 119.342 57.992 o
9 26 6 1100.570 1136.740 107.773 151.636 o
9 26 7 57.466 -95.805 112.975 234.782 o
9 26 8 22.987 -96.024 115.882 226.118 o
9 26 9 1125.750 1243.000 194.098 65.582 o
9 27 0 2844.190 2685.180 107.713 86.607 o
9 27 1 892.845 822.928 93.554 199.411 o
9 27 2 19693.800 19188.300 288.085 7.556 o
9 27 3 2935.470 2949.900 107.227 83.368 o
9 27 4 8755.530 8274.620 278.393 17.549 o
9 27 5 1897.730 1901.250 109.952 111.586 o
9 27 6 482.327 541.229 117.467 174.731 o
9 27 7 1962.140 2077.620 156.037 75.380 o
9 27 8 115.248 182.999 140.508 147.602 o
9 28 0 9359.500 9640.910 204.593 20.093 o
9 28 1 1337.880 1156.670 100.509 152.712 o
9 28 2 5901.350 6305.620 160.923 35.350 o
9 28 3 192.083 256.652 87.595 331.775 o
9 28 4 1467.300 1392.590 119.465 119.519 o
9 28 5 722.465 574.221 99.580 204.617 o
9 28 6 2380.990 2062.230 136.294 81.927 o
9 28 7 1431.750 1727.620 146.101 91.538 o
9 28 8 106.086 -255.136 779.507 5.034 o
9 29 0 3748.000 3532.110 152.768 54.507 o
9 29 1 1418.370 1437.940 104.980 137.817 o
9 29 2 1797.430 1628.690 98.670 129.304 o
9 29 3 304.076 58.687 119.443 192.718 o
9 29 4 1122.610 1050.920 124.962 127.161 o
9 29 5 13.216 58.925 100.589 296.562 o
9 29 6 1326.130 1475.950 143.336 97.738 o
9 29 7 2804.920 3227.350 170.606 56.291 o
9 30 0 16811.200 16502.300 317.272 8.652 o
9 30 1 1732.330 2186.670 121.883 101.824 o
9 30 2 376.744 301.592 123.141 172.509 o
9 30 3 756.276 708.603 132.865 131.802 o
9 30 4 5174.760 5203.210 192.761 35.113 o
9 30 5 587.312 607.014 133.255 137.984 o
9 30 6 623.662 567.666 150.749 112.381 o
9 31 0 1128.220 1018.400 126.155 125.898 o
9 31 1 690.998 727.429 123.006 149.983 o
9 31 2 9851.790 10164.300 204.290 19.074 o
9 31 3 1482.900 1200.570 130.741 109.420 o
9 31 4 1109.480 1702.510 182.333 70.474 o
9 31 5 566.011 293.230 204.260 67.671 o
9 32 0 5634.820 5798.420 173.848 35.392 o
9 32 1 3115.400 3578.190 178.470 50.672 o
9 32 2 2508.080 2138.060 171.989 61.964 o
9 32 3 4209.770 4051.140 252.381 30.081 o
9 32 4 771.934 547.272 178.373 82.627 o
9 33 0 1125.380 1200.990 162.333 86.874 o
9 33 1 15724.300 15124.600 361.353 8.574 o
9 33 2 1284.840 1170.230 176.393 75.032 o
10 0 0 15540.000 15632.000 257.583 10.418 o
10 0 1 20284.200 21206.500 243.451 7.476 o
10 0 2 35517.500 38372.600 462.770 2.756 o
10 0 3 21111.000 20441.700 227.173 7.470 o
10 0 4 18390.700 18986.100 340.079 7.394 o
10 0 5 909.150 913.997 39.903 359.203 o
10 0 6 2574.880 2673.010 57.847 120.996 o
10 0 7 308.419 255.438 47.509 698.371 o
10 0 8 78.499 -26.499 51.728 1002.870 o
10 0 9 12051.200 11750.600 182.121 16.361 o
10 0 10 650.127 572.979 80.209 275.808 o
10 0 11 300.887 267.659 77.316 378.076 o
10 0 12 26696.500 26378.300 401.350 4.440 o
10 0 13 358.626 407.445 138.955 138.740 o
10 0 14 13713.400 14201.500 479.397 7.266 o
10 1 0 19377.700 18299.700 192.869 8.838 o
10 1 1 71301.500 70353.500 696.460 0.900 o
10 1 2 25555.100 27324.300 305.545 5.040 o
10 1 3 21338.300 21367.700 271.092 6.890 o
10 1 4 28333.500 28249.900 368.763 4.242 o
10 1 5 5528.150 5539.090 92.702 48.675 o
10 1 6 7827.540 7908.190 131.804 29.669 o
10 1 7 4792.300 4719.020 92.851 57.026 o
10 1 8 2991.820 3013.020 97.327 86.767 o
10 1 9 1241.700 1323.130 63.250 220.676 o
10 1 10 11526.300 11177.800 212.732 16.173 o
10 1 11 8957.230 8909.950 152.394 24.383 o
10 1 12 7387.370 7349.210 199.023 25.836 o
10 1 13 4913.440 4989.710 206.446 34.128 o
10 1 14 9709.300 9212.540 441.784 9.967 o
10 2 0 44392.900 42050.400 430.968 2.176 o
10 2 1 53268.200 52631.600 591.443 1.476 o
10 2 2 22350.700 22442.200 256.622 6.575 o
10 2 3 79425.900 80610.500 921.838 0.686 o
10 2 4 10038.100 9741.890 138.859 22.221 o
10 2 5 33946.800 33616.800 362.688 3.324 o
10 2 6 198.336 252.368 37.183 1035.240 o
10 2 7 2945.060 2948.070 84.725 94.313 o
10 2 8 1720.450 1832.860 59.848 173.256 o
10 2 9 1802.790 1902.530 70.507 154.977 o
10 2 10 8862.050 9074.580 145.310 24.827 o
10 2 11 6294.910 6153.480 141.962 36.611 o
10 2 12 11082.500 10968.000 281.566 14.123 o
10 2 13 9121.440 9590.940 204.008 20.506 o
10 2 14 6636.590 6399.870 370.847 14.925 o
10 3 0 7804.570 7528.240 101.810 32.532 o
10 3 1 42450.700 42951.900 445.258 2.232 o
10 3 2 38786.700 39068.800 402.972 2.632 o
10 3 3 27237.900 27606.400 308.054 4.719 o
10 3 4 1853.440 1839.530 41.873 183.868 o
10 3 5 7936.950 8521.130 134.813 28.322 o
10 3 6 1011.530 999.673 41.228 325.213 o
10 3 7 7427.940 7346.260 130.855 31.765 o
10 3 8 6585.500 6388.530 118.600 37.729 o
10 3 9 1437.710 1484.020 68.027 190.601 o
10 3 10 10236.200 9893.640 173.106 20.205 o
10 3 11 1081.680 1274.950 96.749 168.112 o
10 3 12 1314.040 1196.290 118.141 128.201 o
10 3 13 12072.000 12088.400 259.041 13.703 o
10 3 14 1448.370 1251.230 214.506 53.853 o
10 4 0 54583.900 54563.100 577.392 1.426 o
10 4 1 6242.980 5762.770 79.763 45.237 o
10 4 2 3786.960 3486.410 55.291 85.041 o
10 4 3 4990.230 4634.750 77.934 58.468 o
10 4 4 3891.290 3569.990 63.082 80.632 o
10 4 5 25078.500 24003.100 262.782 5.688 o
10 4 6 2539.100 2681.960 56.370 122.793 o
10 4 7 1304.700 1322.810 53.001 234.886 o
10 4 8 2333.510 2502.370 66.317 126.133 o
10 4 9 3148.230 3279.970 83.221 88.240 o
10 4 10 6460.110 7022.280 135.246 35.153 o
10 4 11 4856.720 4971.510 164.158 41.646 o
10 4 12 1022.630 987.149 119.479 139.056 o
10 4 13 1904.970 2093.500 145.751 82.271 o
10 4 14 1573.050 1793.600 194.109 60.279 o
10 5 0 20100.700 18460.000 227.729 8.169 o
10 5 1 25141.000 24140.300 283.321 5.545 o
10 5 2 4906.020 4363.070 66.383 62.518 o
10 5 3 13248.300 12622.300 121.431 16.155 o
10 5 4 20565.000 20942.300 224.074 7.595 o
10 5 5 391.471 363.717 33.593 776.901 o
10 5 6 7339.530 7186.610 105.416 34.486 o
10 5 7 5494.180 5519.530 85.874 49.931 o
10 5 8 1360.610 1536.870 61.521 205.047 o
10 5 9 3854.570 3957.330 92.708 70.027 o
10 5 10 398.167 400.713 79.653 329.764 o
10 5 11 9300.990 9311.730 190.285 21.214 o
10 5 12 8330.300 8365.730 163.205 25.571 o
10 5 13 408.373 655.306 163.572 100.731 o
10 5 14 2479.060 2650.580 174.822 59.065 o
10 6 0 3165.880 3006.330 48.468 104.455 o
10 6 1 16735.900 15487.000 194.420 10.853 o
10 6 2 28382.300 29688.200 289.454 4.455 o
10 6 3 1166.660 1061.630 39.437 297.629 o
10 6 4 17095.100 17762.400 179.964 10.210 o
10 6 5 1913.310 1843.040 53.133 169.252 o
10 6 6 4023.010 4011.620 73.758 72.907 o
10 6 7 8048.230 7989.040 108.268 30.582 o
10 6 8 7577.830 7529.700 118.096 32.055 o
10 6 9 4536.800 4805.480 103.495 56.562 o
10 6 10 5732.300 5978.300 130.034 40.945 o
10 6 11 5683.550 5622.500 133.914 41.438 o
10 6 12 2609.620 2297.590 131.913 79.773 o
10 6 13 7193.650 7484.640 194.256 26.523 o
10 7 0 3304.870 3110.620 64.489 94.433 o
10 7 1 2640.610 2706.570 66.377 113.830 o
10 7 2 21235.800 21684.600 235.684 7.163 o
10 7 3 1895.160 1779.680 43.003 182.050 o
10 7 4 3523.990 3277.290 65.530 88.367 o
10 7 5 7206.570 7348.020 112.712 34.064 o
10 7 6 20197.900 20005.100 225.086 7.876 o
10 7 7 1836.620 1924.350 55.861 168.488 o
10 7 8 1572.110 1664.750 59.441 188.266 o
10 7 9 6690.460 6948.440 123.287 35.703 o
10 7 10 1721.690 1537.130 89.589 144.042 o
10 7 11 4902.910 4840.080 146.464 45.114 o
10 7 12 785.108 846.913 109.215 169.900 o
10 7 13 3243.630 3282.200 161.708 56.092 o
10 8 0 34265.400 34403.600 347.859 3.294 o
10 8 1 6763.940 6488.850 108.541 37.836 o
10 8 2 9126.960 9171.850 114.943 25.788 o
10 8 3 18020.900 18772.200 184.121 9.437 o
10 8 4 32142.100 31722.000 329.909 3.700 o
10 8 5 1327.440 1225.450 43.739 255.288 o
10 8 6 860.827 839.334 43.509 365.947 o
10 8 7 15447.900 15535.700 230.166 10.996 o
10 8 8 8062.810 8611.460 150.780 26.769 o
10 8 9 3477.570 3621.720 91.702 77.230 o
10 8 10 1146.130 1280.480 91.461 174.073 o
10 8 11 3848.230 4105.410 143.951 54.341 o
10 8 12 4732.270 4541.740 134.951 49.284 o
10 8 13 7743.640 7431.580 248.703 21.181 o
10 9 0 37945.800 39184.500 408.927 2.674 o
10 9 1 27276.000 25890.200 337.040 4.715 o
10 9 2 11826.400 11199.300 116.570 18.969 o
10 9 3 16160.500 17025.100 211.459 10.487 o
10 9 4 12999.900 13118.900 155.337 15.393 o
10 9 5 23144.600 23532.900 260.378 6.204 o
10 9 6 3814.180 3833.420 82.103 74.445 o
10 9 7 2445.270 2287.480 64.048 127.545 o
10 9 8 2943.140 2961.220 73.180 99.824 o
10 9 9 6832.970 7274.180 129.875 33.935 o
10 9 10 8673.630 8769.980 162.753 24.463 o
10 9 11 4731.440 4856.670 125.556 50.278 o
10 9 12 7402.660 7669.380 183.303 26.819 o
10 9 13 2948.200 3044.790 154.716 61.769 o
10 10 0 5698.300 5280.740 92.243 48.477 o
10 10 1 21264.100 20946.400 222.117 7.378 o
10 10 2 20951.400 21090.300 205.650 7.587 o
10 10 3 41046.900 42388.400 418.433 2.364 o
10 10 4 8992.970 9478.620 150.222 23.866 o
10 10 5 4691.790 4819.770 103.194 55.339 o
10 10 6 14377.800 14363.900 192.968 12.809 o
10 10 7 1293.300 1464.600 56.010 223.517 o
10 10 8 669.716 751.901 57.678 357.626 o
10 10 9 1300.440 1492.050 74.266 189.060 o
10 10 10 10852.400 10567.300 202.857 17.636 o
10 10 11 1948.460 2292.360 118.805 98.916 o
10 10 12 6691.370 6908.380 182.763 29.500 o
10 10 13 2054.680 2394.770 154.470 73.484 o
10 11 0 2066.780 1861.410 48.258 164.832 o
10 11 1 56001.000 55368.200 516.135 1.422 o
10 11 2 5093.170 4908.780 92.749 53.904 o
10 11 3 3796.880 3834.070 84.082 74.074 o
10 11 4 18191.600 18439.200 210.086 9.146 o
10 11 5 769.544 634.509 44.137 413.872 o
10 11 6 143.919 157.437 44.774 993.906 o
10 11 7 1414.320 1350.380 59.661 211.417 o
10 11 8 8580.260 8660.340 144.770 25.925 o
10 11 9 561.653 613.377 66.917 348.227 o
10 11 10 5948.860 5921.450 150.280 37.313 o
10 11 11 4795.620 4720.450 139.590 47.404 o
10 11 12 9535.970 9736.010 214.702 19.251 o
10 11 13 2529.600 2589.370 209.531 46.882 o
10 12 0 3956.720 3609.500 65.802 78.633 o
10 12 1 29397.300 29266.600 301.902 4.292 o
10 12 2 21292.200 22079.900 205.110 7.314 o
10 12 3 6919.370 6715.970 109.707 36.615 o
10 12 4 2813.220 2709.090 60.080 112.424 o
10 12 5 5886.710 5799.350 85.609 46.568 o
10 12 6 1241.020 1299.570 54.704 239.263 o
10 12 7 1224.750 1243.830 55.176 242.950 o
10 12 8 2874.520 3139.470 78.510 96.840 o
10 12 9 3613.350 3650.700 99.564 72.537 o
10 12 10 7171.700 6921.440 137.414 32.661 o
10 12 11 2560.060 2975.770 110.025 87.606 o
10 12 12 10854.100 11029.400 273.617 14.576 o
10 12 13 4445.220 4552.330 223.934 33.318 o
10 13 0 20551.100 20946.000 241.466 7.449 o
10 13 1 23350.600 22642.800 247.547 6.348 o
10 13 2 2860.050 3003.950 62.596 106.223 o
10 13 3 25012.100 24542.900 258.565 5.667 o
10 13 4 3218.770 3048.180 67.483 95.628 o
10 13 5 1088.810 1329.590 52.672 259.119 o
10 13 6 1669.830 1778.060 60.198 177.445 o
10 13 7 1955.180 1840.310 62.825 157.361 o
10 13 8 12840.000 13433.300 221.844 13.671 o
10 13 9 1817.310 2011.580 82.216 139.445 o
10 13 10 3471.110 3787.360 132.128 62.190 o
10 13 11 5863.180 5912.560 167.103 35.344 o
10 13 12 4976.340 5289.150 172.548 38.973 o
10 13 13 3228.230 3199.460 199.484 45.130 o
10 14 0 4796.260 4992.450 99.231 54.654 o
10 14 1 4607.970 4344.230 89.169 61.060 o
10 14 2 1275.890 1272.070 39.630 266.412 o
10 14 3 1298.290 1410.070 48.474 239.481 o
10 14 4 201.319 245.027 42.787 899.906 o
10 14 5 8181.560 8522.080 120.984 28.609 o
10 14 6 13661.500 13788.200 151.616 14.510 o
10 14 7 1748.610 1772.990 63.052 169.577 o
10 14 8 713.259 881.982 66.705 298.578 o
10 14 9 1847.410 2019.820 88.720 131.555 o
10 14 10 20195.400 20101.300 265.152 7.483 o
10 14 11 1276.300 1352.980 126.243 117.352 o
10 14 12 3449.490 3951.630 167.961 50.679 o
10 15 0 6371.710 6073.720 142.535 36.399 o
10 15 1 3868.090 3826.340 86.035 72.635 o
10 15 2 498.603 582.751 36.729 582.015 o
10 15 3 10154.400 10445.300 112.870 22.432 o
10 15 4 5918.790 6585.700 103.808 42.026 o
10 15 5 1108.930 1172.000 56.978 255.902 o
10 15 6 13066.400 13601.400 160.531 14.965 o
10 15 7 1796.810 1908.180 67.886 158.030 o
10 15 8 24780.100 25117.000 286.802 5.499 o
10 15 9 2347.530 2689.880 104.145 97.493 o
10 15 10 2118.530 2052.390 101.131 111.861 o
10 15 11 8346.370 8218.880 177.684 24.673 o
10 15 12 2748.740 2876.740 171.328 57.651 o
10 16 0 115.220 130.206 40.216 1231.090 o
10 16 1 7415.800 7656.360 116.629 32.493 o
10 16 2 28732.500 28672.100 258.637 4.593 o
10 16 3 1819.520 1823.670 51.310 177.162 o
10 16 4 27035.500 27122.300 262.404 4.996 o
10 16 5 11530.800 11910.400 169.111 17.283 o
10 16 6 1850.660 1963.740 61.845 160.486 o
10 16 7 12421.300 12440.000 149.741 16.518 o
10 16 8 7483.490 7607.920 140.813 30.354 o
10 16 9 8582.030 8988.990 178.099 23.449 o
10 16 10 8980.940 9207.700 177.265 22.582 o
10 16 11 762.348 743.767 119.360 153.490 o
10 16 12 4220.570 4468.150 231.275 32.846 o
10 17 0 9283.850 9542.200 164.930 22.452 o
10 17 1 11489.800 11673.200 148.731 18.146 o
10 17 2 10686.900 10500.000 104.549 21.702 o
10 17 3 7553.930 7790.030 126.678 31.040 o
10 17 4 7897.000 8085.570 110.176 30.767 o
10 17 5 5391.800 5388.590 102.861 48.490 o
10 17 6 18443.800 19143.300 232.676 8.630 o
10 17 7 335.167 431.001 68.363 415.282 o
10 17 8 1507.540 1443.460 88.356 156.799 o
10 17 9 16326.000 16311.600 268.890 9.669 o
10 17 10 679.548 796.360 109.074 176.972 o
10 17 11 8027.520 7830.050 252.355 20.264 o
10 17 12 1124.260 1204.630 183.777 71.753 o
10 18 0 7976.780 8064.780 121.722 29.761 o
10 18 1 2570.490 2349.920 85.769 108.374 o
10 18 2 6202.300 6308.860 97.412 42.038 o
10 18 3 3125.590 3163.330 71.888 94.529 o
10 18 4 26824.100 26457.400 288.036 4.978 o
10 18 5 1483.990 1510.920 60.891 197.720 o
10 18 6 1931.860 2132.570 79.376 135.769 o
10 18 7 14089.600 14310.000 205.718 12.770 o
10 18 8 5992.890 6349.680 134.942 38.316 o
10 18 9 3970.690 4094.020 121.384 59.789 o
10 18 10 1217.570 1309.120 128.124 117.230 o
10 18 11 3603.650 3829.930 170.623 49.399 o
10 19 0 22822.900 22451.400 270.331 6.352 o
10 19 1 4933.520 4644.470 102.622 54.271 o
10 19 2 2938.110 2728.380 63.501 107.270 o
10 19 3 7362.930 6998.370 120.326 33.467 o
10 19 4 7375.070 7337.970 117.206 33.114 o
10 19 5 1025.100 1210.570 62.516 249.488 o
10 19 6 21830.900 21537.700 259.056 6.824 o
10 19 7 186.930 310.545 77.077 402.676 o
10 19 8 4175.980 4241.880 111.484 60.071 o
10 19 9 7900.370 7450.630 201.474 24.514 o
10 19 10 720.181 671.489 112.739 170.101 o
10 19 11 6258.540 6722.710 307.655 19.097 o
10 20 0 2122.880 1846.760 71.397 141.486 o
10 20 1 6303.900 6282.950 125.069 38.385 o
10 20 2 10064.500 10234.200 164.166 20.618 o
10 20 3 2177.820 2437.650 65.912 132.876 o
10 20 4 9494.730 9599.140 153.377 22.633 o
10 20 5 9847.270 10253.300 164.934 20.909 o
10 20 6 2751.310 2857.650 89.216 96.690 o
10 20 7 4062.790 4324.230 113.056 60.287 o
10 20 8 2457.780 2434.140 98.100 101.819 o
10 20 9 2218.750 2237.450 112.699 98.664 o
10 20 10 10267.000 10555.300 259.702 15.855 o
10 20 11 611.711 575.094 143.119 122.671 o
10 21 0 5620.310 5642.400 112.268 44.952 o
10 21 1 2619.500 2606.160 79.654 107.901 o
10 21 2 1796.280 2005.920 67.586 156.036 o
10 21 3 11398.400 11527.500 178.592 17.345 o
10 21 4 2060.540 1940.100 78.062 135.830 o
10 21 5 7915.480 7797.120 152.369 27.997 o
10 21 6 1219.820 1438.960 83.785 179.091 o
10 21 7 9459.040 9659.580 163.818 22.102 o
10 21 8 4591.170 4532.250 137.226 49.690 o
10 21 9 2357.390 2487.400 118.199 90.180 o
10 21 10 330.028 675.540 150.103 118.566 o
10 21 11 1327.510 723.780 850.677 4.180 o
10 22 0 169.107 61.572 68.189 545.269 o
10 22 1 3779.780 3870.470 107.788 66.718 o
10 22 2 846.732 783.939 62.210 302.494 o
10 22 3 2187.300 2184.950 69.220 134.497 o
10 22 4 1194.470 1142.650 65.464 228.578 o
10 22 5 15757.700 15884.500 202.424 11.191 o
10 22 6 3314.390 3310.340 101.830 77.738 o
10 22 7 2929.210 2955.060 102.442 85.769 o
10 22 8 782.262 654.883 112.028 168.954 o
10 22 9 388.420 376.644 116.999 185.335 o
10 22 10 2523.470 2592.710 142.911 73.255 o
10 23 0 13427.700 12797.300 202.583 13.960 o
10 23 1 16501.700 16380.200 234.766 10.116 o
10 23 2 815.056 798.413 63.976 299.733 o
10 23 3 13422.200 13669.600 166.158 14.468 o
10 23 4 2961.710 3092.680 84.569 92.693 o
10 23 5 2654.790 2720.390 94.700 96.900 o
10 23 6 2142.080 1986.860 88.169 123.157 o
10 23 7 1661.110 1479.410 99.237 135.732 o
10 23 8 654.734 756.487 110.053 177.173 o
10 23 9 2274.370 2254.780 139.273 80.301 o
10 23 10 1240.520 1257.550 148.373 96.582 o
10 24 0 2389.120 2634.060 112.092 92.192 o
10 24 1 2990.860 2911.450 98.255 87.173 o
10 24 2 1600.260 1547.110 76.217 166.750 o
10 24 3 2057.370 2160.040 88.074 123.183 o
10 24 4 282.828 456.175 70.689 408.396 o
10 24 5 11970.400 11859.000 179.983 16.458 o
10 24 6 2398.960 2379.990 111.194 94.885 o
10 24 7 2504.530 2528.320 119.118 86.898 o
10 24 8 147.266 239.292 114.877 211.293 o
10 24 9 1864.160 1603.030 145.101 86.693 o
10 25 0 1.038 0.405 82.935 444.692 o
10 25 1 371.112 239.488 78.789 355.694 o
10 25 2 1183.900 1232.940 77.252 200.521 o
10 25 3 12892.400 12841.800 213.228 14.107 o
10 25 4 2157.130 2165.260 97.106 112.745 o
10 25 5 227.711 189.984 76.997 408.501 o
10 25 6 231.539 193.675 97.868 274.027 o
10 25 7 5685.100 5799.920 154.547 37.987 o
10 25 8 9318.430 8636.020 226.657 19.616 o
10 25 9 27.525 -15.970 152.502 130.890 o
10 26 0 1209.180 1058.610 95.021 170.212 o
10 26 1 5118.520 5151.160 118.463 48.287 o
10 26 2 10382.500 10962.600 181.230 18.882 o
10 26 3 1993.880 2123.320 94.136 120.252 o
10 26 4 3343.470 3164.060 114.632 73.154 o
10 26 5 4773.700 4684.940 114.913 52.792 o
10 26 6 2255.810 2525.930 120.249 90.257 o
10 26 7 2264.860 2473.800 139.879 78.663 o
10 26 8 1218.740 989.288 154.058 94.044 o
10 27 0 9743.070 9505.560 167.756 21.548 o
10 27 1 10196.000 9847.460 183.444 19.816 o
10 27 2 7987.650 7761.850 151.694 27.913 o
10 27 3 4893.240 5375.170 129.293 46.973 o
10 27 4 5770.780 5600.740 133.272 41.175 o
10 27 5 2327.450 2591.800 101.167 100.863 o
10 27 6 14153.700 13684.200 396.221 8.722 o
10 27 7 779.790 1088.910 143.155 112.552 o
10 27 8 4176.970 4451.050 188.123 40.975 o
10 28 0 4896.480 5531.440 138.477 44.832 o
10 28 1 1907.370 2179.200 110.963 107.214 o
10 28 2 5891.870 5630.460 138.045 39.865 o
10 28 3 7.373 131.014 95.226 325.058 o
10 28 4 17798.600 17600.200 323.751 8.010 o
10 28 5 2461.490 2445.040 129.585 82.089 o
10 28 6 578.963 540.256 143.737 123.072 o
10 28 7 15252.700 15602.000 400.780 7.979 o
10 29 0 1383.600 1193.110 125.098 117.958 o
10 29 1 2476.580 2470.650 121.109 86.612 o
10 29 2 5379.900 5457.980 148.058 41.003 o
10 29 3 3497.420 3717.700 153.994 55.237 o
10 29 4 2336.270 2387.900 137.095 79.879 o
10 29 5 8712.600 7961.860 315.156 15.761 o
10 29 6 13387.700 13172.800 309.887 11.082 o
10 30 0 1751.060 1764.280 129.663 99.141 o
10 30 1 3690.440 3761.940 138.862 58.291 o
10 30 2 6389.120 6794.620 185.260 30.174 o
10 30 3 720.950 713.553 142.063 119.663 o
10 30 4 5995.770 6123.950 188.669 31.779 o
10 30 5 6849.120 6512.180 280.159 20.616 o
10 31 0 6027.360 5918.860 177.805 33.370 o
10 31 1 1231.420 1055.430 131.691 115.902 o
10 31 2 1046.300 1230.210 130.257 120.056 o
10 31 3 10138.400 8959.390 468.539 9.144 o
10 31 4 1027.610 692.606 149.628 104.267 o
10 32 0 3208.580 3290.960 175.600 51.841 o
10 32 1 774.219 680.354 167.271 91.184 o
10 32 2 476.858 514.987 163.088 101.286 o
10 32 3 177.295 82.290 159.754 115.191 o
10 33 0 1196.700 1384.510 187.973 67.840 o
11 0 1 10086.200 9043.690 119.790 23.638 o
11 0 2 928.952 1091.860 38.163 341.196 o
11 0 3 2155.050 2194.100 55.935 146.280 o
11 0 4 23949.500 24795.200 428.748 4.798 o
11 0 5 1853.150 2032.550 57.001 163.525 o
11 0 6 4303.390 4411.110 80.396 65.712 o
11 0 7 10633.700 10119.800 123.049 21.487 o
11 0 8 313.989 423.589 57.786 517.755 o
11 0 9 383.240 460.908 67.489 404.408 o
11 0 10 2150.530 1734.450 88.701 126.323 o
11 0 11 5633.070 5462.610 206.390 31.414 o
11 0 12 854.986 950.182 107.633 167.084 o
11 0 13 35.026 -243.154 143.019 148.448 o
11 1 0 1789.220 2315.300 43.776 171.464 o
11 1 1 18713.300 18452.500 223.188 8.769 o
11 1 2 21711.300 21623.800 255.584 6.874 o
11 1 3 16638.800 17502.700 233.379 9.789 o
11 1 4 8163.360 8529.830 127.660 28.209 o
11 1 5 164.893 160.835 35.729 1243.110 o
11 1 6 4821.230 4628.670 111.866 53.288 o
11 1 7 5150.740 5255.780 100.932 50.824 o
11 1 8 3200.960 3087.810 76.996 91.654 o
11 1 9 2953.110 3381.220 90.272 87.626 o
11 1 10 1404.550 1376.620 95.318 152.875 o
11 1 11 147.377 14.914 93.739 321.141 o
11 1 12 6702.910 6230.420 166.544 32.172 o
11 1 13 1525.440 1501.790 156.050 84.244 o
11 2 0 13833.500 13066.100 147.553 14.773 o
11 2 1 27787.200 26857.600 295.894 4.745 o
11 2 2 1952.740 2333.240 48.858 158.029 o
11 2 3 18178.000 18850.200 213.046 9.027 o
11 2 4 17512.100 18053.000 227.203 9.332 o
11 2 5 6057.280 5956.070 99.659 43.440 o
11 2 6 4575.450 4821.350 101.974 56.512 o
11 2 7 11763.400 11825.100 197.098 16.138 o
11 2 8 249.297 181.020 55.637 645.134 o
11 2 9 365.774 309.866 59.906 498.853 o
11 2 10 4767.620 4765.160 121.401 51.203 o
11 2 11 6724.590 6486.000 190.490 29.142 o
11 2 12 4511.910 4284.850 125.813 53.657 o
11 2 13 3983.840 3835.030 232.588 34.123 o
11 3 0 1852.940 1562.510 38.491 196.827 o
11 3 1 1218.010 1091.630 34.287 298.023 o
11 3 2 11244.300 10828.600 125.309 19.843 o
11 3 3 10130.800 9756.920 157.461 21.201 o
11 3 4 2575.340 2869.110 61.571 116.036 o
11 3 5 32026.200 31497.400 463.210 3.301 o
11 3 6 21173.400 21752.700 287.028 6.748 o
11 3 7 1120.830 1184.170 52.143 265.411 o
11 3 8 16841.500 16810.300 194.857 10.413 o
11 3 9 15771.100 15857.500 203.594 11.172 o
11 3 10 6593.320 6796.860 157.295 32.664 o
11 3 11 2464.400 2396.580 105.380 97.276 o
11 3 12 3109.500 3346.260 147.385 61.905 o
11 3 13 1722.010 1832.010 133.227 96.136 o
11 4 0 8993.770 9474.450 135.834 24.660 o
11 4 1 16828.200 16301.400 208.649 10.362 o
11 4 2 7838.520 8155.720 100.195 31.504 o
11 4 3 17071.700 17596.300 242.549 9.431 o
11 4 4 18732.100 18987.000 235.831 8.511 o
11 4 5 8222.630 7781.030 93.658 31.286 o
11 4 6 1288.670 1425.450 47.756 240.987 o
11 4 7 31783.800 30455.000 358.356 3.723 o
11 4 8 20427.200 20679.400 275.159 7.224 o
11 4 9 2107.820 1982.980 76.379 134.883 o
11 4 10 16111.800 16146.000 268.342 9.818 o
11 4 11 3022.030 2907.350 132.270 70.940 o
11 4 12 576.771 517.288 115.216 175.750 o
11 4 13 2174.360 2148.840 138.362 82.912 o
11 5 0 15853.300 16875.400 215.703 10.632 o
11 5 1 6187.590 5934.780 91.960 43.713 o
11 5 2 144.343 193.402 30.209 1473.360 o
11 5 3 29472.600 29410.600 298.103 4.285 o
11 5 4 6328.480 6227.900 84.846 42.945 o
11 5 5 24861.500 23618.000 288.856 5.625 o
11 5 6 20238.700 20584.100 244.182 7.587 o
11 5 7 226.437 271.676 48.036 752.533 o
11 5 8 2354.940 2461.100 70.429 123.253 o
11 5 9 11536.500 11587.300 212.257 15.971 o
11 5 10 3382.250 3674.570 102.186 74.325 o
11 5 11 5700.720 5732.330 149.332 38.824 o
11 5 12 5909.200 5353.720 141.175 39.943 o
11 5 13 3014.350 3080.670 149.562 63.047 o
11 6 0 8935.620 9337.470 112.122 26.183 o
11 6 1 13184.200 13543.300 150.972 15.098 o
11 6 2 7961.370 7735.590 102.324 31.643 o
11 6 3 16957.500 17430.200 195.139 10.179 o
11 6 4 12933.200 13450.800 174.928 14.814 o
11 6 5 10810.400 10919.900 150.750 19.533 o
11 6 6 4169.160 4220.750 80.140 68.294 o
11 6 7 21230.300 21403.800 254.364 7.056 o
11 6 8 12665.400 12819.400 151.800 15.986 o
11 6 9 14940.200 15360.100 245.892 11.042 o
11 6 10 9398.560 9088.450 195.063 20.969 o
11 6 11 1457.560 1428.630 98.114 145.670 o
11 6 12 878.311 995.641 114.359 152.594 o
11 6 13 2776.560 2962.510 150.813 65.194 o
11 7 0 9844.650 10414.600 126.356 22.503 o
11 7 1 3276.240 3441.460 53.934 95.344 o
11 7 2 3327.850 3462.810 66.706 89.828 o
11 7 3 16639.300 16513.200 165.260 11.015 o
11 7 4 12355.800 12607.600 189.257 15.386 o
11 7 5 20988.300 20146.200 234.135 7.500 o
11 7 6 31026.600 31361.800 377.769 3.692 o
11 7 7 18324.200 18854.200 248.711 8.550 o
11 7 8 19463.800 19355.300 261.329 7.892 o
11 7 9 16064.300 16469.800 201.467 10.851 o
11 7 10 4613.170 4779.570 138.097 48.613 o
11 7 11 6577.290 6688.260 211.919 27.030 o
11 7 12 2092.440 2043.160 135.544 86.663 o
11 7 13 1155.700 1047.060 143.350 104.914 o
11 8 0 29.777 90.574 31.282 2286.700 o
11 8 1 14854.300 14288.000 151.662 13.257 o
11 8 2 4420.580 4276.570 96.795 61.386 o
11 8 3 6239.570 6428.300 92.010 42.138 o
11 8 4 32878.300 33678.200 361.344 3.428 o
11 8 5 18225.700 18090.700 221.494 9.075 o
11 8 6 12192.100 12834.100 192.705 15.334 o
11 8 7 13052.800 12582.200 147.658 15.801 o
11 8 8 3395.920 3534.460 78.772 83.740 o
11 8 9 5689.820 5487.010 114.912 44.603 o
11 8 10 8051.540 8056.260 150.063 27.514 o
11 8 11 9224.330 9052.030 201.561 20.893 o
11 8 12 4438.940 4809.110 143.259 48.443 o
11 8 13 1963.710 1886.200 158.027 75.274 o
11 9 0 3446.960 3644.760 63.042 87.292 o
11 9 1 29429.500 29451.900 356.873 4.069 o
11 9 2 3740.760 3548.010 65.397 82.498 o
11 9 3 16661.000 16607.200 183.004 10.735 o
11 9 4 731.763 661.534 43.887 422.388 o
11 9 5 374.225 377.025 42.052 676.227 o
11 9 6 8681.830 8580.670 111.640 27.774 o
11 9 7 4958.630 5329.500 84.647 54.704 o
11 9 8 12854.900 13008.100 180.954 14.942 o
11 9 9 7040.080 6854.500 134.081 33.532 o
11 9 10 6753.390 7242.990 171.214 30.078 o
11 9 11 2564.950 2464.640 109.173 92.373 o
11 9 12 3599.440 3916.580 140.314 57.951 o
11 9 13 1106.320 948.266 152.846 97.335 o
11 10 0 2517.000 2900.570 66.149 114.693 o
11 10 1 27278.500 27907.500 283.700 4.794 o
11 10 2 6642.070 6471.600 114.474 37.767 o
11 10 3 27006.400 27121.400 295.982 4.852 o
11 10 4 6944.380 6759.550 98.388 37.479 o
11 10 5 9170.740 9064.610 134.948 24.767 o
11 10 6 799.737 788.616 50.115 359.093 o
11 10 7 9796.670 9921.990 160.617 21.467 o
11 10 8 7942.400 8126.690 140.885 28.382 o
11 10 9 241.642 146.708 65.406 527.306 o
11 10 10 1074.920 1245.600 92.361 177.342 o
11 10 11 3892.810 3929.640 138.669 56.142 o
11 10 12 7545.390 8323.020 199.119 24.544 o
11 10 13 462.353 613.815 157.876 106.556 o
11 11 0 380.824 367.018 36.824 742.540 o
11 11 1 16648.800 16195.500 148.750 11.319 o
11 11 2 16630.800 16620.200 199.394 10.518 o
11 11 3 4202.890 4222.570 69.519 70.384 o
11 11 4 6585.870 6897.700 129.668 35.522 o
11 11 5 15023.700 14557.000 190.696 12.314 o
11 11 6 7104.140 6782.590 102.914 36.371 o
11 11 7 1168.190 1260.170 60.737 235.917 o
11 11 8 777.751 633.264 72.190 286.106 o
11 11 9 4827.520 4993.750 106.214 53.057 o
11 11 10 6610.070 6393.640 129.825 36.370 o
11 11 11 893.243 545.778 102.860 186.141 o
11 11 12 2827.930 2756.640 145.119 68.132 o
11 11 13 5238.570 6000.620 289.902 22.207 o
11 12 0 82612.600 80750.500 885.272 0.668 o
11 12 1 11413.500 11407.900 177.465 17.438 o
11 12 2 12860.100 13170.800 153.831 15.546 o
11 12 3 758.524 905.245 44.955 376.774 o
11 12 4 6411.810 6714.450 104.842 39.263 o
11 12 5 319.480 302.456 43.630 728.546 o
11 12 6 5260.810 5462.800 110.008 47.920 o
11 12 7 536.097 527.579 59.585 407.529 o
11 12 8 1508.940 1533.950 68.479 183.597 o
11 12 9 4243.030 4255.820 106.251 60.770 o
11 12 10 681.110 722.388 81.668 257.567 o
11 12 11 12609.300 12701.100 184.820 15.220 o
11 12 12 668.177 291.422 119.494 167.174 o
11 13 0 2828.470 2650.220 61.209 112.242 o
11 13 1 1586.640 1684.140 46.435 203.757 o
11 13 2 36528.900 37005.900 433.774 2.798 o
11 13 3 8432.930 8391.790 102.232 29.238 o
11 13 4 19280.300 20007.900 265.238 7.801 o
11 13 5 7543.930 7068.300 133.579 31.601 o
11 13 6 15545.700 15623.700 172.424 11.901 o
11 13 7 1022.220 1102.300 66.270 246.040 o
11 13 8 1572.490 1686.770 85.166 152.709 o
11 13 9 9323.380 9389.630 142.696 23.710 o
11 13 10 3579.960 3649.610 113.552 68.114 o
11 13 11 2789.400 2922.320 113.568 82.600 o
11 13 12 2444.970 2254.710 184.121 57.013 o
11 14 0 8733.700 8404.760 125.673 27.048 o
11 14 1 11050.100 11646.200 157.388 18.453 o
11 14 2 871.797 871.788 45.802 351.258 o
11 14 3 12781.300 12557.400 134.529 16.427 o
11 14 4 21397.500 21816.900 247.224 7.003 o
11 14 5 1769.180 1767.800 60.308 171.788 o
11 14 6 1904.010 1973.950 66.454 152.935 o
11 14 7 19260.400 20274.900 246.569 7.955 o
11 14 8 32929.700 33987.800 371.482 3.380 o
11 14 9 1186.420 1093.210 76.182 207.830 o
11 14 10 6623.270 6525.040 184.435 30.001 o
11 14 11 6147.720 6126.310 157.443 35.249 o
11 14 12 1711.020 1843.030 167.047 72.947 o
11 15 0 2794.940 2784.580 64.252 109.817 o
11 15 1 10108.900 10040.500 110.671 22.985 o
11 15 2 405.287 373.791 44.608 625.189 o
11 15 3 5718.050 5722.700 88.689 47.446 o
11 15 4 4757.910 5058.800 113.695 51.841 o
11 15 5 27680.400 28244.800 301.146 4.628 o
11 15 6 15325.900 15603.000 198.963 11.608 o
11 15 7 121.340 126.481 73.596 485.426 o
11 15 8 465.749 442.098 65.752 397.148 o
11 15 9 3668.260 3892.620 98.957 70.640 o
11 15 10 19191.800 18937.400 278.894 7.866 o
11 15 11 622.406 621.968 162.894 98.171 o
11 15 12 4051.800 4280.990 186.862 42.125 o
11 16 0 2224.110 1949.690 71.551 135.507 o
11 16 1 6504.220 6541.010 120.229 37.569 o
11 16 2 1604.680 1663.150 61.562 183.292 o
11 16 3 15733.300 15505.100 169.186 11.865 o
11 16 4 1611.360 1743.710 58.630 184.161 o
11 16 5 560.403 644.932 55.864 407.694 o
11 16 6 5296.430 5739.540 133.499 43.097 o
11 16 7 2219.970 2247.430 83.661 120.693 o
11 16 8 11611.200 11814.700 197.858 16.277 o
11 16 9 4460.460 4456.020 116.777 55.538 o
11 16 10 1077.940 1198.990 112.097 144.497 o
11 16 11 757.158 592.906 122.360 151.200 o
11 16 12 4371.420 4405.660 200.862 37.812 o
11 17 0 2303.130 2313.370 69.467 128.013 o
11 17 1 4189.350 4347.220 86.108 65.919 o
11 17 2 2652.790 2757.060 64.591 113.793 o
11 17 3 2333.380 2349.890 69.678 126.254 o
11 17 4 10031.600 10433.300 121.115 22.354 o
11 17 5 6777.650 7110.500 116.141 35.776 o
11 17 6 2922.550 3184.530 108.150 81.382 o
11 17 7 4815.250 5071.330 113.804 51.383 o
11 17 8 3091.680 3201.040 101.045 82.017 o
11 17 9 6078.640 6345.830 133.205 38.191 o
11 17 10 2840.600 2958.050 121.966 77.509 o
11 17 11 1835.160 1868.080 139.446 89.206 o
11 18 0 60.004 113.054 52.596 920.261 o
11 18 1 4509.570 4474.690 104.120 58.010 o
11 18 2 4421.400 4455.540 82.003 63.897 o
11 18 3 2894.360 3087.260 71.500 100.309 o
11 18 4 7286.260 7447.080 118.437 33.127 o
11 18 5 1977.180 2028.130 73.008 142.149 o
11 18 6 7637.200 7622.040 157.877 28.478 o
11 18 7 7028.740 7072.830 134.695 33.144 o
11 18 8 3837.760 3738.770 111.362 65.678 o
11 18 9 5684.370 5963.460 128.513 41.423 o
11 18 10 3863.520 4397.290 165.146 47.783 o
11 18 11 3419.110 3380.690 150.216 58.263 o
11 19 0 183.906 199.694 55.268 691.227 o
11 19 1 12694.200 12627.600 168.136 15.630 o
11 19 2 6037.680 6094.240 102.418 42.841 o
11 19 3 1885.570 1926.890 61.015 160.514 o
11 19 4 2262.250 2507.510 75.192 121.993 o
11 19 5 687.347 630.355 75.767 284.803 o
11 19 6 2815.760 2864.390 93.704 92.971 o
11 19 7 3714.750 4211.790 129.228 59.179 o
11 19 8 5786.640 6238.950 158.089 36.261 o
11 19 9 3728.460 3951.660 154.442 52.744 o
11 19 10 7251.920 7824.520 173.906 27.807 o
11 19 11 300.800 99.848 135.171 153.259 o
11 20 0 1757.540 1794.990 75.928 153.373 o
11 20 1 8631.730 9062.890 151.158 24.974 o
11 20 2 763.119 717.239 56.751 345.801 o
11 20 3 19833.900 20360.300 218.171 8.007 o
11 20 4 6577.840 6673.090 120.996 36.918 o
11 20 5 2215.680 2263.380 100.184 107.698 o
11 20 6 1803.980 1844.130 99.848 124.519 o
11 20 7 2553.140 2848.010 99.739 94.698 o
11 20 8 3583.520 3882.330 127.381 62.313 o
11 20 9 1247.370 1404.940 112.452 134.397 o
11 20 10 1490.410 1643.030 148.270 89.575 o
11 20 11 723.910 1053.440 889.618 3.838 o
11 21 0 102.003 -20.578 64.494 658.404 o
11 21 1 25800.700 25787.400 290.453 5.213 o
11 21 2 2104.130 1963.330 78.305 133.614 o
11 21 3 457.836 481.896 55.993 465.171 o
11 21 4 1742.560 1899.750 68.007 160.774 o
11 21 5 21682.500 21412.100 283.484 6.685 o
11 21 6 7400.490 6985.210 158.870 29.860 o
11 21 7 967.461 930.354 81.892 218.758 o
11 21 8 3766.640 3874.840 122.340 62.280 o
11 21 9 7036.140 6765.340 211.607 26.021 o
11 21 10 9639.860 9376.480 212.711 19.456 o
11 22 0 9159.340 9116.040 197.308 21.189 o
11 22 1 815.985 880.740 77.277 248.570 o
11 22 2 2486.710 2763.480 97.740 98.020 o
11 22 3 10040.100 10105.200 171.026 20.439 o
11 22 4 6741.050 6422.000 131.468 35.636 o
11 22 5 102.674 109.960 68.049 567.961 o
11 22 6 3164.700 3119.310 106.416 79.191 o
11 22 7 6706.590 6264.580 176.345 31.016 o
11 22 8 5463.400 5794.610 179.172 35.217 o
11 22 9 2284.870 2527.820 144.806 75.374 o
11 22 10 1504.710 1445.600 139.088 98.585 o
11 23 0 226.181 358.598 75.770 396.785 o
11 23 1 2280.030 2315.320 87.032 115.414 o
11 23 2 16239.700 16185.400 219.980 10.541 o
11 23 3 3692.220 4208.670 129.447 59.314 o
11 23 4 8299.560 8525.170 172.295 24.836 o
11 23 5 501.576 466.840 75.762 326.718 o
11 23 6 972.502 928.711 84.066 212.923 o
11 23 7 720.442 472.979 97.981 213.014 o
11 23 8 443.695 399.567 104.808 216.343 o
11 23 9 2013.740 2082.750 133.956 88.638 o
11 24 0 30344.000 30690.000 323.160 3.997 o
11 24 1 331.535 85.218 79.584 375.494 o
11 24 2 6310.350 6488.980 137.637 36.436 o
11 24 3 4918.580 4837.030 140.428 46.217 o
11 24 4 5595.960 5482.720 129.847 42.822 o
11 24 5 717.474 715.705 91.323 222.991 o
11 24 6 2196.740 2385.390 99.423 107.285 o
11 24 7 3552.800 3640.140 121.981 65.547 o
11 24 8 6172.950 6120.990 153.133 35.718 o
11 24 9 5041.160 4937.620 160.050 41.648 o
11 25 0 208.932 403.408 87.995 314.209 o
11 25 1 9583.600 9573.370 242.294 17.875 o
11 25 2 5797.150 5874.820 136.207 40.006 o
11 25 3 2128.610 2293.120 89.746 117.763 o
11 25 4 8109.750 8104.850 154.511 26.987 o
11 25 5 11445.600 11505.400 165.905 17.741 o
11 25 6 9203.650 9655.770 198.581 20.638 o
11 25 7 1423.400 1607.080 122.736 114.365 o
11 25 8 141.094 298.113 125.341 178.858 o
11 26 0 214.054 251.617 92.849 298.054 o
11 26 1 7422.810 7248.950 178.128 27.712 o
11 26 2 3736.390 3641.050 112.767 66.771 o
11 26 3 13755.500 13367.200 237.977 12.595 o
11 26 4 2213.100 2347.430 96.939 109.214 o
11 26 5 369.614 399.878 94.066 262.968 o
11 26 6 507.237 449.541 111.742 190.132 o
11 26 7 4469.140 4899.940 150.582 46.434 o
11 26 8 3153.070 3303.280 147.118 61.815 o
11 27 0 4376.150 3993.530 123.665 56.281 o
11 27 1 15653.300 15865.400 269.341 10.089 o
11 27 2 384.416 429.332 107.530 211.064 o
11 27 3 704.348 715.337 87.935 234.557 o
11 27 4 4184.360 4454.470 125.257 55.580 o
11 27 5 4127.980 4319.080 138.945 52.993 o
11 27 6 227.843 123.633 108.927 230.723 o
11 27 7 2692.120 2832.860 165.971 60.286 o
11 28 0 183.361 310.015 108.767 227.221 o
11 28 1 1247.080 1451.970 111.652 134.685 o
11 28 2 2906.380 3043.700 124.763 74.836 o
11 28 3 2880.240 2920.970 129.219 73.842 o
11 28 4 3270.710 3015.360 135.975 66.277 o
11 28 5 3139.570 2900.630 192.949 48.093 o
11 28 6 7874.060 7315.850 245.460 21.314 o
11 28 7 4642.630 4827.480 239.545 30.102 o
11 29 0 238.150 149.506 124.061 181.052 o
11 29 1 911.997 764.291 114.618 155.536 o
11 29 2 2364.920 2499.140 133.684 80.706 o
11 29 3 718.808 509.148 153.940 107.211 o
11 29 4 5171.550 4871.400 178.380 38.035 o
11 29 5 677.855 894.087 137.183 125.115 o
11 29 6 458.097 617.485 151.646 114.275 o
11 30 0 862.374 908.402 129.606 130.477 o
11 30 1 3668.160 3550.500 151.953 55.245 o
11 30 2 598.995 320.945 132.379 143.865 o
11 30 3 6789.060 6874.570 232.483 24.460 o
11 30 4 106.504 144.703 158.676 117.560 o
11 30 5 2039.570 2037.990 172.092 66.219 o
11 31 0 34.772 39.627 130.443 177.190 o
11 31 1 9300.340 8817.210 231.844 19.229 o
11 31 2 131.880 -3.547 144.240 142.788 o
11 31 3 117.536 75.362 157.790 119.372 o
11 31 4 197.200 169.529 172.485 98.383 o
11 32 0 667.390 1082.910 176.773 81.984 o
11 32 1 2254.490 2436.890 226.365 43.477 o
11 32 2 777.909 799.755 178.302 81.161 o
12 0 0 31049.700 28990.500 456.262 3.534 o
12 0 1 6088.320 6803.190 95.174 41.616 o
12 0 2 664.262 1128.990 39.351 395.217 o
12 0 3 43295.200 42386.000 543.714 2.059 o
12 0 4 5177.510 4709.560 107.757 51.296 o
12 0 5 22692.100 22220.700 407.165 5.371 o
12 0 6 5728.130 6072.510 113.110 43.108 o
12 0 7 5485.660 5968.760 113.182 44.660 o
12 0 8 22553.500 23145.500 288.833 6.199 o
12 0 9 4756.260 4837.690 124.450 50.407 o
12 0 10 2309.410 2470.400 111.811 95.304 o
12 0 11 4367.680 4639.830 135.597 51.137 o
12 0 12 7512.780 7608.050 271.027 19.781 o
12 0 13 60.155 102.844 152.633 128.449 o
12 1 0 6900.510 7355.460 104.713 35.885 o
12 1 1 38085.800 38420.300 368.009 2.767 o
12 1 2 17572.200 17469.300 239.956 9.269 o
12 1 3 14453.400 14199.100 220.308 12.235 o
12 1 4 9062.310 8969.870 163.122 23.485 o
12 1 5 12722.400 12415.200 154.744 16.067 o
12 1 6 1406.910 1484.410 50.076 222.368 o
12 1 7 1224.300 1338.580 59.357 229.465 o
12 1 8 5497.440 5830.570 105.456 46.119 o
12 1 9 2517.070 2642.120 87.102 105.306 o
12 1 10 7612.910 8023.570 181.958 26.078 o
12 1 11 827.748 889.552 97.151 192.920 o
12 1 12 2268.700 2537.180 137.104 79.781 o
12 1 13 5596.510 5819.280 174.051 35.459 o
12 2 0 11865.300 11988.200 146.565 17.534 o
12 2 1 4236.920 4166.440 77.529 68.460 o
12 2 2 3845.770 4087.010 73.107 74.897 o
12 2 3 2592.150 2559.870 59.538 121.257 o
12 2 4 1734.010 1854.020 50.392 182.552 o
12 2 5 2712.420 2591.300 52.286 120.936 o
12 2 6 7373.150 7155.890 110.748 33.978 o
12 2 7 5711.010 5419.030 105.742 46.032 o
12 2 8 3645.440 3861.310 89.003 74.321 o
12 2 9 3846.140 4198.900 102.757 65.837 o
12 2 10 821.665 970.147 97.132 190.771 o
12 2 11 2117.180 2038.370 120.454 96.884 o
12 2 12 2671.460 2911.330 136.339 72.988 o
12 2 13 144.270 90.538 159.852 115.666 o
12 3 0 6878.830 6777.780 125.798 35.063 o
12 3 1 3577.070 3244.420 63.473 88.391 o
12 3 2 2189.320 2210.150 45.147 152.317 o
12 3 3 15454.600 15094.100 169.309 12.198 o
12 3 4 47636.700 47815.600 525.830 1.795 o
12 3 5 10362.600 10755.400 123.788 21.379 o
12 3 6 4722.910 4491.230 87.072 59.771 o
12 3 7 14956.600 14853.800 208.353 11.921 o
12 3 8 7983.370 8492.530 157.819 26.587 o
12 3 9 953.116 1038.290 77.131 227.593 o
12 3 10 3203.770 3423.190 106.070 76.747 o
12 3 11 16073.600 15662.300 270.905 9.907 o
12 3 12 3380.900 3626.660 184.601 47.354 o
12 3 13 786.599 705.562 151.616 106.620 o
12 4 0 4626.920 4273.490 75.922 64.013 o
12 4 1 2481.720 2529.270 53.772 128.688 o
12 4 2 22686.600 22433.000 235.111 6.635 o
12 4 3 3841.360 3769.560 72.302 77.357 o
12 4 4 3567.630 3568.490 86.618 78.136 o
12 4 5 13579.300 13730.900 195.863 13.614 o
12 4 6 27498.800 27899.600 330.920 4.553 o
12 4 7 5056.720 5006.100 101.161 52.312 o
12 4 8 9041.300 9214.600 171.074 22.832 o
12 4 9 25839.000 25661.300 422.127 4.499 o
12 4 10 4492.710 4504.310 111.274 56.381 o
12 4 11 456.008 421.073 90.373 267.374 o
12 4 12 1557.360 1647.360 107.373 126.918 o
12 4 13 753.931 709.038 125.937 142.903 o
12 5 0 11.096 24.981 29.593 3096.440 o
12 5 1 13028.500 13017.000 158.851 15.331 o
12 5 2 1017.000 1047.820 35.476 335.213 o
12 5 3 4532.320 4793.030 82.866 60.987 o
12 5 4 10655.000 10495.500 190.476 18.440 o
12 5 5 6876.700 6652.000 128.665 35.008 o
12 5 6 7720.360 7605.670 140.847 29.683 o
12 5 7 13434.500 13437.500 143.309 15.071 o
12 5 8 7301.870 7603.550 106.947 33.748 o
12 5 9 733.433 855.338 69.914 285.371 o
12 5 10 6687.820 6942.310 145.522 33.395 o
12 5 11 3298.590 3209.980 147.377 60.889 o
12 5 12 202.067 45.732 107.768 241.041 o
12 5 13 122.266 -149.256 129.084 177.462 o
12 6 0 783.473 758.511 38.521 417.529 o
12 6 1 2737.760 2718.470 58.968 114.935 o
12 6 2 321.940 348.922 35.364 832.523 o
12 6 3 15273.400 15645.600 172.033 12.087 o
12 6 4 469.238 472.698 44.456 561.017 o
12 6 5 12927.500 12627.900 161.488 15.565 o
12 6 6 29801.300 29720.800 316.313 4.154 o
12 6 7 1843.260 2019.160 58.428 162.958 o
12 6 8 15654.500 16175.000 197.973 11.239 o
12 6 9 17279.700 17284.900 231.451 9.562 o
12 6 10 7945.920 8176.680 147.376 27.826 o
12 6 11 2273.750 2636.570 118.405 90.202 o
12 6 12 5613.620 5892.790 169.266 35.955 o
12 6 13 85.763 -305.352 158.055 120.557 o
12 7 0 706.845 619.752 34.513 487.986 o
12 7 1 2033.210 2285.610 59.575 146.611 o
12 7 2 2324.340 2484.630 50.744 137.071 o
12 7 3 18876.200 19466.700 231.746 8.404 o
12 7 4 47282.900 48511.500 621.385 1.687 o
12 7 5 10008.100 9862.690 156.766 21.349 o
12 7 6 5572.230 5490.120 91.909 48.662 o
12 7 7 41904.800 43198.200 462.782 2.228 o
12 7 8 29010.400 29676.600 362.020 4.088 o
12 7 9 2538.360 2593.830 83.276 107.791 o
12 7 10 18002.600 18295.900 315.408 7.935 o
12 7 11 4510.570 4600.540 144.790 48.297 o
12 7 12 4761.740 4929.170 198.051 36.071 o
12 7 13 1408.810 1526.880 149.414 90.798 o
12 8 0 933.594 904.009 36.160 366.969 o
12 8 1 9864.930 9552.730 157.758 21.802 o
12 8 2 8083.210 8229.530 132.248 28.501 o
12 8 3 4159.570 4364.180 80.548 67.497 o
12 8 4 297.271 463.789 46.952 638.459 o
12 8 5 9543.010 9600.610 159.589 22.226 o
12 8 6 22112.500 22264.800 233.611 6.831 o
12 8 7 1188.580 1350.800 59.854 231.303 o
12 8 8 19037.200 19409.000 215.032 8.527 o
12 8 9 10171.200 10268.000 160.213 20.603 o
12 8 10 6006.140 5912.620 129.915 39.865 o
12 8 11 2872.960 2974.330 114.310 80.655 o
12 8 12 255.295 176.177 120.261 189.791 o
12 8 13 437.231 693.449 191.190 75.712 o
12 9 0 3048.520 3060.260 84.645 91.347 o
12 9 1 7180.210 7279.620 170.164 29.002 o
12 9 2 5127.230 5293.440 102.781 50.540 o
12 9 3 1736.780 1573.370 49.050 193.426 o
12 9 4 11751.500 11989.700 138.031 17.926 o
12 9 5 18093.400 18402.700 221.622 9.063 o
12 9 6 4928.630 4709.400 100.963 54.387 o
12 9 7 7319.490 7465.220 121.485 32.726 o
12 9 8 506.143 447.064 59.416 429.165 o
12 9 9 3310.240 3305.900 91.871 81.839 o
12 9 10 5683.930 5746.480 134.499 41.059 o
12 9 11 1975.550 1901.240 110.729 109.046 o
12 9 12 3184.850 3212.270 166.495 55.152 o
12 9 13 2607.030 2624.010 168.095 60.910 o
12 10 0 1491.480 1364.630 52.430 216.366 o
12 10 1 8322.130 8434.150 152.608 26.247 o
12 10 2 1179.220 1209.160 51.761 257.551 o
12 10 3 11187.100 11601.900 108.694 19.838 o
12 10 4 6320.480 6657.520 122.791 37.799 o
12 10 5 15740.600 16350.300 211.863 10.907 o
12 10 6 4596.490 4770.360 85.376 59.994 o
12 10 7 1718.960 1717.340 67.026 167.917 o
12 10 8 11121.700 11024.100 180.644 17.912 o
12 10 9 4518.180 4613.020 113.357 55.282 o
12 10 10 4459.840 4288.180 119.644 55.502 o
12 10 11 3124.560 3338.870 123.519 71.088 o
12 10 12 4830.490 4890.020 159.655 42.803 o
12 11 0 32646.700 30608.300 315.907 3.746 o
12 11 1 7020.780 6951.880 137.285 33.118 o
12 11 2 9126.550 8833.490 116.157 26.121 o
12 11 3 17654.100 17667.300 249.806 9.057 o
12 11 4 1635.560 1808.290 62.375 175.870 o
12 11 5 6579.720 6564.790 120.630 37.168 o
12 11 6 1378.800 1684.610 60.928 199.013 o
12 11 7 11584.400 11390.300 146.549 18.277 o
12 11 8 10524.700 10504.100 145.112 20.499 o
12 11 9 3343.900 3202.160 88.907 83.311 o
12 11 10 11514.500 11523.800 211.958 16.036 o
12 11 11 2770.160 2810.250 124.774 78.019 o
12 11 12 2579.340 2776.710 147.297 69.553 o
12 12 0 7760.530 7787.470 127.440 30.368 o
12 12 1 6036.770 5897.250 123.752 40.587 o
12 12 2 33868.300 34181.400 388.059 3.238 o
12 12 3 8686.130 9099.660 98.353 27.789 o
12 12 4 5972.420 6022.110 103.405 43.246 o
12 12 5 11813.500 12194.900 187.218 16.214 o
12 12 6 170.159 217.600 51.761 759.652 o
12 12 7 86.466 71.840 62.832 674.830 o
12 12 8 1569.580 1538.360 77.957 166.158 o
12 12 9 6064.330 6492.520 144.726 36.498 o
12 12 10 3090.480 3151.340 101.017 82.420 o
12 12 11 1341.880 1354.500 118.448 124.685 o
12 12 12 4364.470 4398.250 146.715 49.327 o
12 13 0 24962.100 25347.100 290.059 5.421 o
12 13 1 8826.830 8497.540 131.181 26.383 o
12 13 2 3685.420 3767.630 89.147 74.364 o
12 13 3 7022.360 7338.450 106.685 35.277 o
12 13 4 25620.300 26035.400 235.808 5.494 o
12 13 5 634.884 644.048 50.881 415.941 o
12 13 6 10383.300 10636.800 161.943 19.924 o
12 13 7 7823.960 7816.310 164.594 27.232 o
12 13 8 391.313 382.992 74.468 364.224 o
12 13 9 1695.300 1951.140 79.067 149.042 o
12 13 10 363.199 355.914 84.352 313.476 o
12 13 11 12957.400 12820.200 217.567 13.942 o
12 13 12 1179.160 1272.610 136.328 109.458 o
12 14 0 1485.290 1429.100 51.598 215.419 o
12 14 1 4314.200 4130.110 90.067 64.776 o
12 14 2 20498.600 19858.700 189.741 8.098 o
12 14 3 3646.680 3873.940 72.315 79.407 o
12 14 4 2639.360 2639.940 63.555 116.385 o
12 14 5 14469.200 14980.800 173.113 12.898 o
12 14 6 12716.600 12786.000 174.536 15.355 o
12 14 7 10120.100 10508.300 154.731 20.735 o
12 14 8 9194.110 9456.910 149.090 23.556 o
12 14 9 23231.200 23298.900 354.282 5.560 o
12 14 10 4692.890 4557.000 121.779 52.341 o
12 14 11 739.031 794.458 117.209 157.423 o
12 14 12 666.538 727.625 165.108 94.444 o
12 15 0 444.019 576.754 47.951 517.457 o
12 15 1 1982.280 2068.740 65.804 147.962 o
12 15 2 944.790 1046.720 53.486 296.061 o
12 15 3 4176.280 4603.120 82.219 65.625 o
12 15 4 27631.100 27878.700 328.732 4.544 o
12 15 5 4461.430 4607.060 99.990 58.796 o
12 15 6 11529.200 11520.600 175.545 17.300 o
12 15 7 13719.800 13948.800 170.509 13.982 o
12 15 8 6583.330 6830.680 156.252 32.757 o
12 15 9 6501.580 6260.110 142.315 35.593 o
12 15 10 2043.830 2276.710 111.320 102.862 o
12 15 11 5942.130 6243.590 167.214 34.494 o
12 15 12 1168.780 1530.370 192.948 64.759 o
12 16 0 26.742 94.835 46.629 1209.940 o
12 16 1 355.092 396.146 54.676 537.057 o
12 16 2 1958.030 1976.460 64.132 152.708 o
12 16 3 631.139 737.767 47.771 420.666 o
12 16 4 2123.670 2239.570 65.529 138.899 o
12 16 5 8068.300 8270.640 139.456 27.977 o
12 16 6 292.726 369.916 63.855 477.545 o
12 16 7 6192.860 6571.340 141.868 36.216 o
12 16 8 3768.040 3615.100 109.180 67.750 o
12 16 9 1263.920 872.648 87.638 186.369 o
12 16 10 3519.270 3537.970 127.171 64.583 o
12 16 11 232.243 193.810 127.852 170.609 o
12 17 0 1827.400 2055.650 64.611 156.501 o
12 17 1 703.294 741.598 52.436 376.470 o
12 17 2 526.084 654.627 56.334 413.146 o
12 17 3 11802.600 12004.000 144.453 17.665 o
12 17 4 4835.440 4996.210 93.708 55.388 o
12 17 5 2326.210 2457.130 75.291 120.749 o
12 17 6 1924.410 1799.170 76.786 145.117 o
12 17 7 11303.800 12180.900 208.872 16.025 o
12 17 8 25624.000 26110.400 342.665 4.938 o
12 17 9 214.574 115.855 101.388 263.939 o
12 17 10 715.837 764.985 115.260 162.887 o
12 17 11 130.198 67.798 140.494 149.122 o
12 18 0 48.129 75.490 55.994 862.934 o
12 18 1 2146.480 2312.430 68.831 133.980 o
12 18 2 1859.810 1722.160 59.921 168.431 o
12 18 3 2819.460 2924.100 79.098 99.961 o
12 18 4 2654.020 2928.640 81.243 102.393 o
12 18 5 32015.400 31982.400 345.602 3.652 o
12 18 6 20053.700 20666.900 248.609 7.594 o
12 18 7 3741.310 3705.180 104.733 69.003 o
12 18 8 1772.750 1675.510 101.014 126.836 o
12 18 9 3493.300 3345.140 128.742 65.209 o
12 18 10 8049.240 8122.630 239.714 20.894 o
12 18 11 2175.870 2176.820 136.960 83.569 o
12 19 0 146.697 157.699 58.349 681.184 o
12 19 1 905.090 1030.980 62.856 273.976 o
12 19 2 3472.580 3420.160 81.400 82.483 o
12 19 3 9147.910 9332.610 192.839 21.295 o
12 19 4 2465.250 2552.370 82.786 110.440 o
12 19 5 3990.090 3971.710 97.114 67.145 o
12 19 6 7046.160 7450.120 158.299 30.250 o
12 19 7 4356.920 4693.420 131.033 52.090 o
12 19 8 12873.100 12786.500 217.986 14.014 o
12 19 9 2992.920 3360.920 140.602 65.474 o
12 19 10 1523.290 1433.820 146.340 92.222 o
12 20 0 4514.600 4508.700 119.198 54.368 o
12 20 1 8456.400 8733.940 174.710 24.151 o
12 20 2 475.487 439.540 59.142 442.021 o
12 20 3 5195.530 5146.410 134.047 45.062 o
12 20 4 6756.420 6988.850 152.053 32.412 o
12 20 5 2399.180 2476.280 91.714 106.979 o
12 20 6 2904.970 3055.790 98.025 87.513 o
12 20 7 9997.250 9951.760 150.152 21.598 o
12 20 8 10647.600 11087.500 205.231 17.473 o
12 20 9 2306.930 2367.100 147.331 74.691 o
12 20 10 2658.030 2584.590 159.417 64.287 o
12 21 0 692.771 717.821 84.052 248.293 o
12 21 1 7220.970 7663.090 149.794 30.242 o
12 21 2 324.418 373.650 67.933 430.224 o
12 21 3 7763.560 7702.620 122.913 30.831 o
12 21 4 9392.380 9645.320 198.267 20.384 o
12 21 5 7113.090 7576.170 137.767 31.776 o
12 21 6 13951.900 14015.500 236.297 12.279 o
12 21 7 8908.220 8858.530 221.768 20.310 o
12 21 8 6556.880 6728.300 164.392 32.101 o
12 21 9 3553.710 3900.360 166.830 50.528 o
12 21 10 3900.370 4101.660 167.002 47.930 o
12 22 0 204.331 168.914 73.659 448.573 o
12 22 1 4481.830 4421.330 113.286 56.327 o
12 22 2 4881.650 4652.400 112.784 52.581 o
12 22 3 945.574 927.613 70.870 251.236 o
12 22 4 3322.160 3526.860 90.699 80.478 o
12 22 5 4905.930 5260.400 122.081 48.591 o
12 22 6 10358.800 10629.800 180.273 19.181 o
12 22 7 3550.510 3827.400 123.426 64.171 o
12 22 8 3790.280 4059.750 144.347 54.801 o
12 22 9 6699.630 6461.840 178.532 30.521 o
12 23 0 7651.700 7390.400 153.657 29.098 o
12 23 1 2431.240 2506.490 106.188 96.330 o
12 23 2 2029.430 2174.290 98.049 115.168 o
12 23 3 1657.150 1655.740 87.425 146.901 o
12 23 4 2488.900 2663.440 95.340 100.499 o
12 23 5 522.033 678.574 89.020 250.896 o
12 23 6 54.372 -13.620 89.762 368.039 o
12 23 7 30.116 -175.409 121.352 205.866 o
12 23 8 238.391 503.917 124.681 170.626 o
12 23 9 446.279 417.716 175.038 90.403 o
12 24 0 18.333 -160.136 85.626 412.601 o
12 24 1 4133.870 4261.710 115.473 59.297 o
12 24 2 5638.680 5552.330 128.851 42.590 o
12 24 3 923.188 705.634 102.175 181.269 o
12 24 4 8724.050 8214.800 160.829 25.055 o
12 24 5 2701.930 2740.820 102.090 91.602 o
12 24 6 3791.340 4040.540 124.551 60.647 o
12 24 7 3230.820 3211.470 186.525 48.678 o
12 24 8 461.236 269.063 148.132 123.104 o
12 25 0 3225.800 3395.050 112.589 74.001 o
12 25 1 3441.010 3704.390 110.218 70.519 o
12 25 2 3302.140 3291.640 134.430 65.227 o
12 25 3 11113.800 11213.400 222.758 16.204 o
12 25 4 7126.640 7070.430 119.194 34.271 o
12 25 5 8435.700 7893.140 143.271 27.263 o
12 25 6 2376.720 2585.520 132.455 80.661 o
12 25 7 11710.100 11049.900 242.351 14.991 o
12 25 8 4702.080 4838.650 179.936 39.654 o
12 26 0 1195.810 1402.250 105.902 145.418 o
12 26 1 11112.800 10611.100 177.990 18.285 o
12 26 2 5549.430 5316.870 132.966 42.975 o
12 26 3 2030.360 2079.400 105.874 109.751 o
12 26 4 2565.390 2593.440 120.376 84.735 o
12 26 5 5449.640 5529.570 139.104 41.959 o
12 26 6 3319.790 3237.310 158.301 56.843 o
12 26 7 3504.720 3854.690 188.288 45.222 o
12 27 0 2227.160 2377.860 118.798 92.969 o
12 27 1 2030.280 2186.190 117.014 99.713 o
12 27 2 1201.970 929.555 105.876 154.837 o
12 27 3 6531.440 6406.190 183.404 30.519 o
12 27 4 825.845 727.596 100.080 191.256 o
12 27 5 2427.600 2406.730 131.679 81.627 o
12 27 6 2381.960 2399.780 163.093 65.900 o
12 27 7 1368.340 970.614 157.839 88.713 o
12 28 0 84.413 351.437 117.926 201.868 o
12 28 1 2362.000 2464.240 127.683 84.486 o
12 28 2 2522.160 2502.740 126.381 82.643 o
12 28 3 806.467 976.764 120.938 144.572 o
12 28 4 280.830 156.483 128.145 168.521 o
12 28 5 15645.500 14651.800 473.376 6.865 o
12 28 6 5285.920 5434.500 173.044 37.417 o
12 29 0 3237.940 3094.670 142.808 63.590 o
12 29 1 1999.330 2071.010 139.737 85.045 o
12 29 2 264.167 268.137 153.219 120.456 o
12 29 3 7743.140 7850.190 213.904 23.466 o
12 29 4 1048.130 828.361 128.740 127.439 o
12 29 5 96.694 294.710 168.312 103.743 o
12 30 0 874.564 667.472 147.252 110.230 o
12 30 1 3152.880 3091.420 151.022 61.268 o
12 30 2 731.321 594.360 139.567 124.329 o
12 30 3 862.504 1254.740 142.092 110.170 o
12 30 4 1415.320 1348.830 180.067 70.626 o
12 31 0 703.012 661.955 149.797 110.871 o
12 31 1 2255.140 2674.780 168.152 63.517 o
12 31 2 164.797 -259.483 170.088 102.992 o
12 31 3 4278.290 4348.520 1225.880 1.985 o
13 0 1 66046.900 66413.400 662.421 1.019 o
13 0 2 21483.200 21643.900 396.255 5.743 o
13 0 3 17939.400 18505.200 252.119 8.733 o
13 0 4 7562.440 7705.020 128.943 30.961 o
13 0 5 22322.900 21966.100 379.555 5.682 o
13 0 6 1724.970 1621.210 59.855 179.292 o
13 0 7 39625.500 38703.400 511.858 2.387 o
13 0 8 14427.700 14358.400 275.517 10.999 o
13 0 9 1065.270 928.435 77.712 221.019 o
13 0 10 25501.700 25458.300 475.845 4.255 o
13 0 11 341.490 338.689 112.881 200.865 o
13 0 12 355.171 238.114 117.773 189.129 o
13 0 13 13394.300 13048.000 460.310 7.822 o
13 1 0 32540.300 33358.400 388.693 3.399 o
13 1 1 15240.400 15242.900 188.266 11.972 o
13 1 2 7961.360 8275.350 118.467 29.730 o
13 1 3 69506.600 70225.300 1084.260 0.766 o
13 1 4 2588.910 3023.990 72.860 107.445 o
13 1 5 26002.900 25799.400 340.443 4.912 o
13 1 6 17027.500 16439.000 247.286 9.651 o
13 1 7 6645.500 6587.790 105.083 38.484 o
13 1 8 5782.370 5927.580 152.529 37.640 o
13 1 9 4123.220 4387.930 102.832 62.148 o
13 1 10 3610.130 3495.430 113.390 68.677 o
13 1 11 6982.430 6780.100 172.858 29.918 o
13 1 12 13895.500 14642.800 237.903 12.071 o
13 1 13 908.144 762.425 169.611 86.754 o
13 2 0 4623.610 4632.900 73.591 62.691 o
13 2 1 26488.400 27061.700 340.035 4.732 o
13 2 2 10291.000 10316.000 123.239 21.908 o
13 2 3 999.393 1030.420 40.099 327.799 o
13 2 4 5226.530 5015.420 92.502 52.560 o
13 2 5 4604.280 5018.900 100.656 55.766 o
13 2 6 5044.920 5150.140 131.188 46.398 o
13 2 7 2242.860 2187.770 63.086 137.265 o
13 2 8 2289.860 2327.390 86.787 115.168 o
13 2 9 1974.650 1999.250 85.369 130.876 o
13 2 10 4676.200 4602.800 124.177 51.776 o
13 2 11 7754.170 8062.250 223.994 22.506 o
13 2 12 3821.270 3819.270 152.213 53.195 o
13 2 13 7042.750 7173.840 352.852 15.358 o
13 3 0 16607.000 16217.600 278.211 9.412 o
13 3 1 8522.450 8066.800 105.014 29.284 o
13 3 2 14530.900 13379.400 158.796 13.772 o
13 3 3 2957.490 3003.430 57.153 106.242 o
13 3 4 519.566 605.540 44.101 508.394 o
13 3 5 13888.500 13707.100 186.046 13.598 o
13 3 6 11259.600 11365.600 150.336 18.604 o
13 3 7 5929.650 6179.510 114.179 41.684 o
13 3 8 2453.450 2389.160 82.865 112.800 o
13 3 9 25269.900 24970.100 297.901 5.353 o
13 3 10 2146.320 2265.020 104.964 105.631 o
13 3 11 1240.320 1390.050 106.909 142.513 o
13 3 12 3233.480 3258.700 152.167 59.522 o
13 3 13 289.554 364.255 163.213 105.775 o
13 4 0 1359.170 1506.260 42.625 237.925 o
13 4 1 2594.520 2771.650 67.032 113.832 o
13 4 2 60.076 189.124 36.643 1466.560 o
13 4 3 3231.090 3613.190 75.118 87.159 o
13 4 4 31897.700 32309.900 433.496 3.372 o
13 4 5 3170.440 3178.830 73.177 92.966 o
13 4 6 4561.070 4498.680 82.334 62.227 o
13 4 7 16361.000 17015.900 221.665 10.227 o
13 4 8 8409.650 8942.600 173.656 24.109 o
13 4 9 6666.330 6622.920 182.739 29.941 o
13 4 10 1575.510 1774.560 104.598 127.516 o
13 4 11 14741.100 13683.800 269.755 11.138 o
13 4 12 1669.000 1363.650 140.341 95.332 o
13 4 13 2034.070 2234.660 184.397 59.811 o
13 5 0 4577.540 5092.430 91.031 57.620 o
13 5 1 3294.700 3524.500 76.950 86.148 o
13 5 2 8058.750 8300.950 136.506 28.172 o
13 5 3 6360.360 6686.570 95.912 40.496 o
13 5 4 690.983 575.688 42.471 457.680 o
13 5 5 10676.100 10443.000 128.015 20.959 o
13 5 6 971.213 951.159 49.843 310.843 o
13 5 7 3086.820 3155.870 68.764 96.700 o
13 5 8 3731.200 3883.350 91.019 72.462 o
13 5 9 11351.100 11168.000 205.702 16.621 o
13 5 10 2917.330 2677.400 97.391 90.879 o
13 5 11 975.289 911.746 93.323 191.465 o
13 5 12 49.040 -62.758 141.860 150.364 o
13 5 13 825.959 1075.080 166.381 88.481 o
13 6 0 610.475 864.820 42.682 434.808 o
13 6 1 222.552 198.934 31.181 1207.870 o
13 6 2 3714.980 3634.540 75.325 79.248 o
13 6 3 11354.700 11148.600 146.550 18.750 o
13 6 4 8620.550 8568.080 121.657 27.366 o
13 6 5 1834.390 1815.410 53.747 173.941 o
13 6 6 669.580 767.856 50.707 390.198 o
13 6 7 2790.220 2997.190 69.998 104.423 o
13 6 8 31001.300 31030.200 420.417 3.566 o
13 6 9 1106.530 1190.050 110.987 145.287 o
13 6 10 3182.070 3066.610 99.277 82.453 o
13 6 11 102.572 65.369 95.626 312.539 o
13 6 12 2469.610 2376.360 160.458 66.433 o
13 6 13 415.427 518.123 206.992 66.308 o
13 7 0 28.378 73.151 33.178 2167.580 o
13 7 1 4892.870 4973.940 81.840 57.164 o
13 7 2 2632.040 2626.370 62.923 117.147 o
13 7 3 7085.660 7459.140 121.081 33.562 o
13 7 4 4222.300 4187.480 96.876 63.697 o
13 7 5 32726.700 32755.900 397.946 3.383 o
13 7 6 27342.600 27587.700 368.293 4.427 o
13 7 7 1355.000 1409.850 63.999 206.166 o
13 7 8 1493.550 1518.960 64.319 191.448 o
13 7 9 10247.100 10518.600 165.836 20.048 o
13 7 10 13596.100 13199.700 252.732 12.392 o
13 7 11 1784.550 1746.180 112.654 113.799 o
13 7 12 1005.520 762.537 127.022 132.092 o
13 7 13 725.023 748.419 640.678 7.359 o
13 8 0 2041.140 2222.680 52.375 153.601 o
13 8 1 272.680 213.084 36.069 973.305 o
13 8 2 3470.160 3372.140 72.137 86.215 o
13 8 3 14011.100 13751.300 159.938 14.038 o
13 8 4 24732.600 24599.000 300.318 5.483 o
13 8 5 59.545 97.316 47.263 1111.660 o
13 8 6 2513.000 2557.220 78.320 112.054 o
13 8 7 14892.000 14893.400 149.407 13.023 o
13 8 8 13920.000 14134.200 211.098 12.840 o
13 8 9 1077.350 1229.330 80.973 200.650 o
13 8 10 266.314 81.156 85.863 345.513 o
13 8 11 1341.480 1257.050 123.534 120.021 o
13 8 12 4737.250 4618.320 146.455 46.603 o
13 9 0 5081.860 4899.530 81.320 55.991 o
13 9 1 14874.200 15533.100 284.405 10.274 o
13 9 2 7789.000 8053.480 144.659 28.592 o
13 9 3 12325.200 13237.800 159.794 15.919 o
13 9 4 9070.170 9514.730 146.833 23.865 o
13 9 5 813.367 934.021 54.876 322.815 o
13 9 6 2398.210 2581.900 68.535 121.335 o
13 9 7 4373.450 4475.950 99.991 60.147 o
13 9 8 2271.690 2364.440 86.941 115.043 o
13 9 9 2487.900 2517.880 110.852 92.240 o
13 9 10 80.662 -0.769 93.640 334.367 o
13 9 11 6378.070 7052.310 165.835 31.992 o
13 9 12 2826.390 2948.500 169.943 57.354 o
13 10 0 3865.100 3933.190 94.888 69.396 o
13 10 1 9228.080 9043.130 172.631 22.561 o
13 10 2 15765.300 15944.200 184.393 11.460 o
13 10 3 4124.300 4162.710 90.496 66.487 o
13 10 4 7562.750 7967.280 172.641 27.014 o
13 10 5 11408.200 11669.200 190.807 16.822 o
13 10 6 5944.470 5802.780 129.767 40.410 o
13 10 7 11458.000 11914.800 144.959 18.149 o
13 10 8 13698.100 14270.700 204.472 13.107 o
13 10 9 7470.920 7322.340 133.456 31.445 o
13 10 10 11096.200 11326.600 199.388 17.052 o
13 10 11 641.088 900.570 114.815 164.100 o
13 10 12 162.471 241.437 166.616 105.083 o
13 11 0 13546.500 13506.900 170.763 14.325 o
13 11 1 1369.370 1490.850 66.476 197.720 o
13 11 2 1138.500 1261.130 58.218 244.616 o
13 11 3 33486.600 33401.700 306.295 3.525 o
13 11 4 10372.000 10677.900 156.330 20.144 o
13 11 5 8363.750 8370.110 146.702 26.629 o
13 11 6 16387.000 16222.500 224.678 10.376 o
13 11 7 1788.670 1877.670 73.739 152.595 o
13 11 8 10799.600 11161.900 193.586 17.719 o
13 11 9 8481.880 9016.900 147.302 25.587 o
13 11 10 5296.870 5362.470 132.389 44.242 o
13 11 11 3272.440 3353.070 127.355 67.897 o
13 11 12 9802.880 9616.260 206.127 19.415 o
13 12 0 1027.720 1223.340 47.307 287.465 o
13 12 1 16252.800 16034.200 266.027 9.816 o
13 12 2 7328.530 7482.930 96.205 34.705 o
13 12 3 6992.310 7071.400 106.860 35.890 o
13 12 4 1163.260 1224.630 55.980 248.984 o
13 12 5 2334.960 2335.650 71.169 125.348 o
13 12 6 1044.340 951.590 62.344 262.823 o
13 12 7 8035.950 8171.440 180.424 25.152 o
13 12 8 5521.380 5557.710 119.110 44.685 o
13 12 9 1813.600 1874.740 89.239 134.698 o
13 12 10 10180.700 10534.800 189.114 19.098 o
13 12 11 28.150 -110.333 105.584 271.328 o
13 12 12 175.330 350.725 142.512 139.068 o
13 13 0 12017.800 12833.500 186.474 15.694 o
13 13 1 1930.690 1864.290 54.974 165.887 o
13 13 2 9772.840 10033.600 122.010 23.184 o
13 13 3 10979.400 11176.400 134.736 19.668 o
13 13 4 2521.140 2589.000 79.734 110.527 o
13 13 5 752.941 649.979 60.968 335.698 o
13 13 6 1906.250 2069.070 70.537 146.641 o
13 13 7 5785.080 5991.370 145.231 38.530 o
13 13 8 889.623 771.291 81.981 232.526 o
13 13 9 6463.140 6667.210 137.624 35.528 o
13 13 10 421.179 414.978 114.351 189.358 o
13 13 11 695.257 770.957 125.332 144.915 o
13 13 12 1611.280 1408.720 159.922 81.012 o
13 14 0 211.473 289.617 45.851 798.609 o
13 14 1 7843.660 7436.840 145.650 29.187 o
13 14 2 824.600 843.953 49.485 350.233 o
13 14 3 2404.080 2411.330 68.022 124.153 o
13 14 4 38400.400 39304.000 372.402 2.705 o
13 14 5 2268.070 2700.290 70.666 122.073 o
13 14 6 18227.400 18067.200 256.642 8.648 o
13 14 7 11180.800 11671.400 173.269 17.709 o
13 14 8 7536.050 7606.980 176.938 27.131 o
13 14 9 3371.700 3560.680 102.242 75.164 o
13 14 10 260.716 304.007 99.608 256.564 o
13 14 11 8451.140 8438.970 167.098 24.971 o
13 15 0 4622.680 4920.240 142.475 47.226 o
13 15 1 5161.630 4891.380 131.595 46.394 o
13 15 2 15053.800 14900.700 169.228 12.559 o
13 15 3 2216.050 2200.410 62.985 138.130 o
13 15 4 2778.230 3033.790 69.022 104.759 o
13 15 5 2345.090 2620.430 79.243 115.095 o
13 15 6 11048.500 11207.300 157.903 18.732 o
13 15 7 8298.340 8549.660 163.101 25.450 o
13 15 8 5819.130 5983.780 180.511 33.566 o
13 15 9 14767.000 14867.200 285.695 10.469 o
13 15 10 596.118 592.230 104.292 199.913 o
13 15 11 47.612 40.235 109.260 249.648 o
13 16 0 139.355 265.782 56.569 677.597 o
13 16 1 9882.230 9771.320 177.972 20.602 o
13 16 2 285.301 443.156 52.957 579.434 o
13 16 3 14760.200 14824.700 177.638 12.653 o
13 16 4 3891.650 3766.980 94.922 70.036 o
13 16 5 2159.570 2501.550 79.710 121.803 o
13 16 6 5105.600 5159.180 104.890 50.773 o
13 16 7 6435.630 6457.650 157.271 33.722 o
13 16 8 8709.600 8623.740 145.736 25.616 o
13 16 9 2772.360 2998.410 109.556 84.321 o
13 16 10 2000.830 1925.020 139.501 86.240 o
13 16 11 1785.620 2047.890 160.449 74.928 o
13 17 0 985.459 1090.800 57.363 275.551 o
13 17 1 844.811 888.753 54.328 323.254 o
13 17 2 841.897 863.786 61.452 299.745 o
13 17 3 4262.840 4532.480 98.483 61.258 o
13 17 4 6000.380 5990.790 97.909 43.867 o
13 17 5 38285.100 38866.400 414.894 2.650 o
13 17 6 21549.400 22164.500 262.821 6.786 o
13 17 7 3342.690 3497.250 99.556 76.987 o
13 17 8 4157.860 4128.150 109.413 61.292 o
13 17 9 5020.690 5079.590 134.751 46.069 o
13 17 10 14975.200 15373.400 331.955 9.345 o
13 17 11 3890.120 3706.960 172.243 47.729 o
13 18 0 835.312 730.087 60.947 313.611 o
13 18 1 235.477 258.833 53.264 663.976 o
13 18 2 8838.910 8751.000 124.930 26.420 o
13 18 3 32903.200 33604.900 318.410 3.545 o
13 18 4 9236.600 9243.130 140.341 24.155 o
13 18 5 650.031 826.007 67.869 308.278 o
13 18 6 4740.690 4798.640 109.686 53.707 o
13 18 7 39131.400 39219.200 419.685 2.574 o
13 18 8 37784.000 37825.300 378.567 2.791 o
13 18 9 5979.680 5881.810 171.976 34.346 o
13 18 10 1141.320 1507.630 181.626 71.502 o
13 19 0 12539.100 11924.400 179.858 15.822 o
13 19 1 4996.440 4905.130 93.087 54.599 o
13 19 2 366.178 379.525 64.649 443.408 o
13 19 3 3469.150 3571.510 96.683 75.884 o
13 19 4 17241.300 16720.100 194.752 10.222 o
13 19 5 23772.600 24589.900 277.437 5.825 o
13 19 6 16834.300 17312.600 218.760 9.950 o
13 19 7 8666.330 8880.400 158.274 24.649 o
13 19 8 472.039 476.536 98.613 231.412 o
13 19 9 1726.680 1937.290 139.112 90.611 o
13 19 10 8176.900 7967.040 205.601 23.224 o
13 20 0 2634.510 2603.590 86.858 103.215 o
13 20 1 2201.840 2208.750 79.369 125.296 o
13 20 2 6457.800 6409.180 157.139 33.744 o
13 20 3 1018.160 1230.090 92.328 181.122 o
13 20 4 4197.590 4262.410 112.574 59.508 o
13 20 5 4491.180 4700.320 112.607 55.323 o
13 20 6 14162.700 13716.700 220.496 12.601 o
13 20 7 1834.780 1923.560 119.878 104.104 o
13 20 8 173.584 126.269 117.130 205.962 o
13 20 9 9661.670 9448.540 221.242 18.935 o
13 20 10 1822.980 2449.470 161.487 71.818 o
13 21 0 2114.340 2251.180 111.127 101.795 o
13 21 1 1623.440 1533.350 91.221 146.018 o
13 21 2 4568.230 4373.930 135.668 50.684 o
13 21 3 7434.730 7156.700 144.178 30.859 o
13 21 4 15126.700 14767.800 227.836 11.460 o
13 21 5 2836.420 2688.830 99.614 91.032 o
13 21 6 7360.090 7005.780 139.584 31.728 o
13 21 7 6034.390 6379.510 139.049 37.557 o
13 21 8 8968.010 8609.790 222.825 20.338 o
13 21 9 8218.970 8443.780 211.666 22.320 o
13 22 0 5793.820 5527.040 139.287 40.349 o
13 22 1 8623.300 8561.600 152.997 25.412 o
13 22 2 2988.700 3051.930 94.745 87.728 o
13 22 3 1460.890 1673.910 85.431 157.724 o
13 22 4 4552.470 4450.000 108.372 56.786 o
13 22 5 5236.970 4971.940 117.746 48.240 o
13 22 6 6285.910 5955.210 129.359 38.627 o
13 22 7 5882.440 5599.090 141.349 39.500 o
13 22 8 3951.800 4288.840 181.065 43.840 o
13 22 9 4708.630 4366.820 163.676 43.837 o
13 23 0 1.712 -67.124 83.614 437.362 o
13 23 1 4214.680 4085.250 111.364 60.453 o
13 23 2 2845.050 2858.040 111.279 83.409 o
13 23 3 1339.240 1195.420 81.415 183.434 o
13 23 4 2830.970 2920.220 96.208 90.873 o
13 23 5 11.609 32.372 83.459 431.264 o
13 23 6 1095.380 989.815 105.075 159.580 o
13 23 7 1085.840 912.927 126.255 128.510 o
13 23 8 967.669 877.579 138.053 116.821 o
13 24 0 4239.670 4034.640 115.033 59.480 o
13 24 1 545.650 355.602 88.378 268.962 o
13 24 2 797.263 640.425 88.907 226.524 o
13 24 3 477.638 625.667 95.660 234.330 o
13 24 4 3838.670 3947.750 132.155 58.382 o
13 24 5 2435.240 2565.660 114.427 90.543 o
13 24 6 2525.360 2288.030 117.689 89.359 o
13 24 7 3211.840 3302.590 165.144 55.108 o
13 24 8 3479.610 3410.570 160.080 54.540 o
13 25 0 2043.600 1971.170 104.592 111.828 o
13 25 1 562.236 545.798 102.338 209.459 o
13 25 2 3866.070 3967.480 125.581 60.011 o
13 25 3 1497.090 1461.560 105.246 134.352 o
13 25 4 2933.580 3084.900 106.946 82.520 o
13 25 5 4223.910 4584.240 122.981 55.357 o
13 25 6 9077.200 9829.950 248.086 18.006 o
13 25 7 6709.760 6958.040 179.402 29.736 o
13 26 0 2.978 7.986 100.755 300.574 o
13 26 1 2169.930 2267.330 110.673 100.815 o
13 26 2 539.970 387.927 103.102 214.758 o
13 26 3 471.533 412.958 102.948 219.626 o
13 26 4 6478.180 6449.360 179.692 31.023 o
13 26 5 6523.340 6747.400 171.153 31.424 o
13 26 6 8573.180 8824.030 237.942 19.813 o
13 26 7 1236.910 1674.340 153.602 88.923 o
13 27 0 1203.530 1117.710 122.155 127.500 o
13 27 1 2566.610 2807.380 139.988 73.007 o
13 27 2 1138.160 1133.980 120.669 131.198 o
13 27 3 224.623 414.080 109.491 217.234 o
13 27 4 2765.570 2725.740 167.837 59.406 o
13 27 5 5120.620 5084.700 272.823 24.779 o
13 27 6 3391.200 3216.950 159.194 56.108 o
13 28 0 4.446 205.234 125.616 187.881 o
13 28 1 1336.680 1184.430 119.851 125.569 o
13 28 2 765.966 528.834 130.105 138.641 o
13 28 3 14341.200 14452.000 364.655 9.142 o
13 28 4 1446.610 1346.910 184.253 67.964 o
13 28 5 1007.370 807.885 200.666 64.531 o
13 29 0 204.769 117.385 170.715 100.640 o
13 29 1 2284.760 2039.630 139.306 81.572 o
13 29 2 50.841 -149.135 147.230 139.657 o
13 29 3 943.301 954.573 154.169 98.781 o
13 29 4 2462.940 2452.580 149.150 71.561 o
13 30 0 1290.170 922.415 154.341 93.194 o
13 30 1 961.162 752.495 161.101 93.533 o
13 30 2 191.404 62.374 162.150 111.859 o
13 30 3 3937.650 3932.910 192.798 42.047 o
13 31 0 0.379 -219.546 214.378 66.609 o
14 0 0 192.865 29.084 45.929 984.165 o
14 0 1 749.685 671.170 35.836 455.220 o
14 0 2 4083.400 3410.220 85.412 72.729 o
14 0 3 8790.180 8647.010 146.432 25.371 o
14 0 4 202.131 217.061 43.729 895.505 o
14 0 5 29776.400 29228.900 411.977 3.825 o
14 0 6 53640.200 54875.400 998.785 1.101 o
14 0 7 1679.310 1735.530 64.267 173.058 o
14 0 8 7310.410 7428.270 145.377 30.718 o
14 0 9 19020.800 18923.200 306.332 7.611 o
14 0 10 6565.020 6478.910 168.585 31.983 o
14 0 11 421.509 405.821 108.308 206.849 o
14 0 12 2737.190 2939.270 174.106 56.493 o
14 1 0 13972.100 13775.300 184.003 13.547 o
14 1 1 3541.460 3640.820 55.467 87.909 o
14 1 2 130.107 174.025 33.457 1412.160 o
14 1 3 4692.690 4326.920 106.178 56.646 o
14 1 4 46966.500 46654.200 820.570 1.487 o
14 1 5 8999.700 8889.510 171.499 23.178 o
14 1 6 999.529 1252.010 61.278 253.200 o
14 1 7 17649.600 18532.900 232.281 9.099 o
14 1 8 17497.600 17675.400 265.513 8.908 o
14 1 9 367.665 374.238 78.576 344.238 o
14 1 10 1811.580 1838.990 107.530 116.808 o
14 1 11 6189.530 6339.880 208.191 28.691 o
14 1 12 3070.190 2977.630 142.322 65.875 o
14 2 0 439.011 555.029 32.830 663.512 o
14 2 1 1103.820 1434.590 44.570 268.523 o
14 2 2 26180.600 25846.500 359.980 4.775 o
14 2 3 7082.640 6875.500 118.988 34.801 o
14 2 4 4646.980 4703.270 107.181 55.301 o
14 2 5 7475.520 7870.940 132.460 30.687 o
14 2 6 11481.400 11026.500 156.766 18.314 o
14 2 7 1065.250 1139.300 58.752 258.588 o
14 2 8 11842.800 12064.500 190.935 16.132 o
14 2 9 3314.930 3624.180 129.406 65.348 o
14 2 10 1458.860 1586.350 102.528 136.913 o
14 2 11 498.987 795.002 106.142 194.685 o
14 2 12 19.073 262.526 133.059 166.119 o
14 3 0 8095.840 7968.750 151.050 27.439 o
14 3 1 1878.970 1935.580 57.343 164.376 o
14 3 2 4910.540 4978.240 71.128 58.790 o
14 3 3 7765.140 7834.010 117.028 31.069 o
14 3 4 47058.700 46939.100 540.875 1.816 o
14 3 5 22130.300 23050.100 285.533 6.340 o
14 3 6 4670.040 4771.200 105.653 55.184 o
14 3 7 25544.600 26030.700 277.940 5.303 o
14 3 8 14111.500 14317.000 168.475 13.538 o
14 3 9 3343.500 3461.540 101.335 76.527 o
14 3 10 5827.300 6013.690 163.751 35.750 o
14 3 11 5281.500 5525.140 174.251 37.075 o
14 3 12 3174.670 3434.680 189.122 47.651 o
14 4 0 58.392 111.096 34.126 1787.870 o
14 4 1 1930.030 2047.370 59.996 156.361 o
14 4 2 5603.080 5701.270 80.965 49.252 o
14 4 3 26995.400 27818.300 348.366 4.555 o
14 4 4 2448.490 2411.100 63.671 125.646 o
14 4 5 27439.200 28459.400 430.293 4.066 o
14 4 6 32144.400 32095.200 405.266 3.449 o
14 4 7 854.124 1042.590 70.241 256.956 o
14 4 8 5144.060 5332.720 124.413 46.537 o
14 4 9 22290.900 22262.000 338.134 5.988 o
14 4 10 5993.390 6147.750 139.024 38.197 o
14 4 11 2763.790 2731.900 127.039 77.481 o
14 4 12 5266.850 5148.980 218.661 31.122 o
14 5 0 6597.140 6296.100 117.242 38.023 o
14 5 1 13410.200 13153.200 173.598 14.542 o
14 5 2 4998.770 5005.740 111.659 50.776 o
14 5 3 14407.800 13960.400 192.454 12.949 o
14 5 4 5763.880 5715.430 102.837 45.294 o
14 5 5 24552.900 24840.700 266.192 5.692 o
14 5 6 629.122 612.545 55.811 393.765 o
14 5 7 10548.200 10624.300 134.797 20.767 o
14 5 8 13422.600 13961.300 213.808 13.215 o
14 5 9 2947.630 3128.460 103.194 83.759 o
14 5 10 10664.400 11098.300 227.491 16.539 o
14 5 11 592.787 457.537 114.331 178.564 o
14 5 12 492.618 472.176 138.800 133.896 o
14 6 0 1026.380 1160.880 45.906 296.050 o
14 6 1 5821.500 6002.520 119.259 41.969 o
14 6 2 9059.140 9373.450 136.938 24.569 o
14 6 3 16565.700 16341.500 167.774 11.079 o
14 6 4 10747.600 10819.600 183.680 18.395 o
14 6 5 16119.000 16241.300 229.120 10.443 o
14 6 6 12415.200 12247.300 170.869 16.044 o
14 6 7 7138.130 7159.770 143.012 31.857 o
14 6 8 14446.800 15241.900 216.277 11.973 o
14 6 9 10733.900 10501.700 174.647 18.993 o
14 6 10 7743.890 8131.420 191.537 24.935 o
14 6 11 3591.030 3734.440 131.094 61.702 o
14 6 12 3013.990 3475.620 181.800 50.541 o
14 7 0 5564.160 5194.760 106.813 47.402 o
14 7 1 2313.850 2046.860 65.373 135.461 o
14 7 2 13520.800 13743.000 175.308 14.138 o
14 7 3 6786.570 7109.990 114.751 35.877 o
14 7 4 37221.900 39679.900 410.347 2.703 o
14 7 5 17205.500 16988.600 227.291 9.726 o
14 7 6 6683.010 6532.830 126.307 36.207 o
14 7 7 26130.100 25459.800 281.558 5.227 o
14 7 8 18367.800 18378.200 264.273 8.438 o
14 7 9 1344.940 1517.740 83.510 170.304 o
14 7 10 3794.850 4011.030 111.139 64.811 o
14 7 11 3202.790 3085.490 123.875 71.489 o
14 7 12 1272.090 1052.900 119.283 130.173 o
14 8 0 690.334 868.851 44.727 400.245 o
14 8 1 8640.880 8795.420 168.931 24.108 o
14 8 2 4756.390 4978.320 92.876 56.251 o
14 8 3 8028.530 8549.530 112.693 29.529 o
14 8 4 4399.030 4670.470 98.311 59.444 o
14 8 5 5075.810 5682.090 111.681 48.103 o
14 8 6 13408.200 13624.500 156.200 14.726 o
14 8 7 1519.330 1466.190 67.183 187.083 o
14 8 8 12695.700 12527.200 185.714 15.196 o
14 8 9 15816.000 16112.500 206.113 11.027 o
14 8 10 4169.360 4280.850 115.387 58.936 o
14 8 11 1066.900 1037.550 116.020 141.870 o
14 8 12 571.904 675.181 135.627 133.564 o
14 9 0 4731.720 4745.290 110.514 53.797 o
14 9 1 2906.670 2749.700 84.446 97.185 o
14 9 2 38.170 59.625 50.215 1075.020 o
14 9 3 9203.120 9774.690 138.131 23.803 o
14 9 4 6238.020 6584.860 101.247 40.757 o
14 9 5 11434.200 12385.700 156.320 17.524 o
14 9 6 1415.760 1546.830 60.970 201.335 o
14 9 7 4912.020 4880.390 99.600 54.127 o
14 9 8 2572.750 2679.810 85.632 104.497 o
14 9 9 1673.010 1737.680 99.016 131.202 o
14 9 10 2128.140 2199.910 105.406 106.437 o
14 9 11 1347.810 1409.770 115.724 127.004 o
14 9 12 4376.400 4129.900 200.390 38.377 o
14 10 0 630.566 667.126 45.076 447.530 o
14 10 1 16924.100 16824.600 253.982 9.509 o
14 10 2 7679.970 7785.350 115.102 31.552 o
14 10 3 4286.780 4556.360 105.536 59.231 o
14 10 4 3085.350 3102.900 76.805 93.792 o
14 10 5 8941.600 9414.220 150.802 23.999 o
14 10 6 18867.300 18562.800 267.368 8.179 o
14 10 7 3667.180 3727.310 89.682 74.687 o
14 10 8 5296.070 5566.480 147.046 41.303 o
14 10 9 13896.300 13855.700 186.938 13.511 o
14 10 10 8108.410 8121.000 168.035 25.973 o
14 10 11 2507.840 2534.020 125.581 83.076 o
14 10 12 303.432 503.063 151.634 119.059 o
14 11 0 9707.960 10571.600 189.310 19.717 o
14 11 1 1099.020 1194.920 54.087 262.768 o
14 11 2 2059.540 2182.890 69.618 138.995 o
14 11 3 3881.390 4002.960 84.531 71.815 o
14 11 4 14445.600 15327.200 173.912 12.770 o
14 11 5 6804.330 6992.000 142.765 33.216 o
14 11 6 3353.760 3607.010 86.737 80.913 o
14 11 7 13774.200 13858.100 212.592 13.017 o
14 11 8 13793.100 13838.800 225.417 12.706 o
14 11 9 4638.320 4736.200 114.875 53.589 o
14 11 10 1608.940 1601.480 108.654 124.630 o
14 11 11 10991.900 10667.500 225.716 16.494 o
14 11 12 4419.650 4282.890 234.019 32.129 o
14 12 0 1138.960 1256.470 50.057 263.434 o
14 12 1 281.365 217.082 46.777 749.356 o
14 12 2 22348.400 23048.900 310.335 6.100 o
14 12 3 3625.900 3650.030 82.557 78.109 o
14 12 4 736.268 801.979 60.491 326.611 o
14 12 5 440.983 435.202 64.041 416.891 o
14 12 6 3765.670 3696.620 88.952 73.851 o
14 12 7 1964.490 2001.000 84.549 131.979 o
14 12 8 3528.960 3739.900 109.478 69.585 o
14 12 9 8892.360 8963.290 213.116 20.776 o
14 12 10 839.720 1090.040 101.470 176.687 o
14 12 11 2900.470 2690.600 141.753 69.219 o
14 13 0 21632.000 21080.000 248.736 7.031 o
14 13 1 970.548 990.809 68.948 250.489 o
14 13 2 5733.200 5541.770 89.919 47.752 o
14 13 3 2702.310 2753.320 76.086 106.187 o
14 13 4 6149.090 6207.560 112.483 40.775 o
14 13 5 1643.870 1890.260 77.365 154.684 o
14 13 6 122.517 123.010 60.243 677.795 o
14 13 7 1443.450 1547.290 80.965 168.180 o
14 13 8 3052.570 3183.700 112.194 77.739 o
14 13 9 2283.740 2423.100 100.981 103.747 o
14 13 10 167.185 272.355 101.463 260.203 o
14 13 11 7943.860 7746.530 291.490 17.890 o
14 14 0 4507.220 4640.690 84.109 61.691 o
14 14 1 3943.020 4107.950 99.441 66.256 o
14 14 2 6185.120 6312.500 98.346 42.010 o
14 14 3 615.925 625.889 62.039 361.235 o
14 14 4 5401.420 5667.660 133.079 42.820 o
14 14 5 6563.140 6855.890 150.943 33.364 o
14 14 6 13700.600 13254.200 164.351 14.444 o
14 14 7 320.033 390.818 95.338 263.656 o
14 14 8 2302.780 2513.150 94.858 106.626 o
14 14 9 13038.700 12700.300 225.202 13.713 o
14 14 10 4918.950 4629.580 137.020 47.478 o
14 14 11 1190.960 1250.490 159.778 87.677 o
14 15 0 2242.790 2066.010 62.046 140.460 o
14 15 1 3200.080 3198.240 87.617 86.188 o
14 15 2 3981.760 3884.210 78.070 73.105 o
14 15 3 22071.400 22137.500 173.136 7.262 o
14 15 4 9733.070 9658.640 189.348 20.340 o
14 15 5 495.057 640.974 62.591 384.613 o
14 15 6 173.736 299.878 71.343 459.652 o
14 15 7 9846.460 9990.830 176.161 20.577 o
14 15 8 5656.170 5731.200 133.408 41.386 o
14 15 9 1573.290 1575.380 135.686 99.116 o
14 15 10 6175.400 5828.630 159.199 35.450 o
14 15 11 2575.820 2806.240 140.463 72.680 o
14 16 0 210.082 262.072 53.266 681.287 o
14 16 1 9917.600 9919.460 213.964 18.677 o
14 16 2 497.589 438.835 56.000 458.661 o
14 16 3 4256.460 4257.290 85.449 65.844 o
14 16 4 484.247 579.342 53.241 459.429 o
14 16 5 15416.400 15465.900 221.079 11.200 o
14 16 6 6621.560 7067.260 141.083 33.878 o
14 16 7 1518.700 1589.770 83.764 159.294 o
14 16 8 5431.490 5455.730 143.872 41.451 o
14 16 9 4294.930 4664.490 134.198 51.862 o
14 16 10 4663.630 4678.440 153.559 45.365 o
14 16 11 2174.950 2634.980 290.007 29.608 o
14 17 0 1068.760 1047.950 65.641 245.594 o
14 17 1 3534.520 3453.710 111.372 70.467 o
14 17 2 7.707 63.525 61.425 772.635 o
14 17 3 16982.100 17651.500 188.876 10.188 o
14 17 4 26016.200 26233.000 252.487 5.315 o
14 17 5 2676.280 3004.630 86.555 98.172 o
14 17 6 3419.600 3490.140 100.837 75.530 o
14 17 7 21539.500 21719.300 312.435 6.440 o
14 17 8 12233.300 11994.800 227.412 14.616 o
14 17 9 3096.150 3257.030 119.314 73.641 o
14 17 10 4618.430 4560.540 171.410 42.238 o
14 18 0 125.633 124.932 60.485 670.526 o
14 18 1 2535.790 2507.590 86.916 106.564 o
14 18 2 5216.130 5040.210 106.375 50.170 o
14 18 3 4472.190 4439.420 107.372 57.718 o
14 18 4 664.509 852.749 74.728 276.932 o
14 18 5 21588.600 22083.400 260.928 6.801 o
14 18 6 21097.400 21234.600 264.566 7.035 o
14 18 7 1854.550 1974.520 94.894 125.924 o
14 18 8 6552.020 6712.780 249.598 23.454 o
14 18 9 14184.100 14081.000 218.916 12.493 o
14 18 10 3900.100 3786.870 212.578 38.255 o
14 19 0 1339.820 1479.010 70.648 193.095 o
14 19 1 12195.000 11942.100 200.717 15.523 o
14 19 2 3579.780 3582.170 99.273 73.474 o
14 19 3 2655.090 2759.130 85.620 101.762 o
14 19 4 6379.870 6410.790 122.971 38.044 o
14 19 5 4662.410 4775.590 109.977 54.313 o
14 19 6 266.227 312.827 92.171 290.041 o
14 19 7 6255.040 6445.330 171.872 32.590 o
14 19 8 1262.080 1322.800 109.120 139.835 o
14 19 9 1795.260 1604.060 154.647 81.052 o
14 19 10 883.410 903.756 162.936 91.896 o
14 20 0 244.239 317.982 69.266 452.796 o
14 20 1 24100.700 23649.600 262.552 5.948 o
14 20 2 3356.810 3608.990 99.427 76.104 o
14 20 3 540.882 658.338 80.415 283.758 o
14 20 4 1745.330 1897.370 90.715 135.129 o
14 20 5 5449.150 5432.870 117.295 45.716 o
14 20 6 2805.090 3009.330 97.819 89.713 o
14 20 7 466.749 451.344 116.322 180.668 o
14 20 8 2627.470 2520.050 134.830 76.571 o
14 20 9 1969.570 2205.270 154.599 75.406 o
14 21 0 14487.500 14785.300 257.330 11.235 o
14 21 1 3102.540 3051.110 97.028 84.810 o
14 21 2 10541.700 10669.600 151.456 20.091 o
14 21 3 18400.600 18301.700 266.496 8.413 o
14 21 4 10626.900 10880.400 163.520 19.330 o
14 21 5 7244.270 7296.610 137.445 31.832 o
14 21 6 2497.810 2805.230 98.958 96.642 o
14 21 7 10100.000 10376.100 255.197 16.297 o
14 21 8 8126.500 8480.060 214.151 22.270 o
14 21 9 635.859 509.675 150.370 113.216 o
14 22 0 7301.080 7043.470 144.084 31.435 o
14 22 1 11726.800 11635.300 237.542 14.885 o
14 22 2 19629.400 19294.300 256.106 7.900 o
14 22 3 2230.610 2418.790 99.467 106.081 o
14 22 4 12923.000 12851.000 302.148 11.627 o
14 22 5 4462.220 4641.620 129.168 51.982 o
14 22 6 5976.150 6064.920 144.830 37.661 o
14 22 7 879.025 1035.630 120.883 141.025 o
14 22 8 1603.930 1613.940 142.518 92.554 o
14 23 0 39954.900 39340.400 499.314 2.375 o
14 23 1 265.969 34.002 93.167 304.596 o
14 23 2 5974.740 6009.830 205.056 29.981 o
14 23 3 5781.960 5718.020 183.620 33.681 o
14 23 4 6649.170 6488.040 181.840 30.263 o
14 23 5 2315.280 2545.260 109.917 95.743 o
14 23 6 2760.060 3046.230 120.478 78.708 o
14 23 7 399.835 357.397 106.715 215.190 o
14 23 8 937.748 1128.500 190.886 69.418 o
14 24 0 1627.670 1783.490 103.536 126.936 o
14 24 1 5094.650 5534.300 131.532 45.006 o
14 24 2 25873.900 25129.000 265.580 5.390 o
14 24 3 137.780 151.096 101.456 270.358 o
14 24 4 6094.660 6119.640 170.980 33.713 o
14 24 5 3419.200 3440.890 130.935 64.677 o
14 24 6 1983.510 2024.620 115.162 103.789 o
14 24 7 128.755 258.864 130.224 168.136 o
14 25 0 13394.000 12647.300 300.104 11.471 o
14 25 1 2563.320 2638.760 112.576 88.880 o
14 25 2 5704.690 5467.110 178.071 35.115 o
14 25 3 9424.500 9609.740 245.311 17.881 o
14 25 4 5580.320 5565.370 158.903 38.222 o
14 25 5 1124.910 1005.180 116.670 139.416 o
14 25 6 600.484 817.504 121.784 154.033 o
14 25 7 7357.410 7540.340 218.768 24.037 o
14 26 0 285.414 127.928 128.250 168.713 o
14 26 1 11042.700 11137.100 264.883 14.706 o
14 26 2 534.710 589.330 106.059 199.289 o
14 26 3 866.198 1011.990 146.257 107.969 o
14 26 4 725.996 817.890 135.025 127.910 o
14 26 5 452.297 558.876 125.516 158.062 o
14 26 6 2937.190 2660.130 149.281 65.751 o
14 27 0 714.358 851.082 134.960 127.863 o
14 27 1 1403.300 1717.090 185.985 65.843 o
14 27 2 1369.230 1541.210 121.557 117.823 o
14 27 3 5200.550 5164.900 167.583 39.165 o
14 27 4 1603.270 1602.560 161.952 78.584 o
14 27 5 835.593 740.430 135.855 124.787 o
14 28 0 36.310 115.470 129.330 178.211 o
14 28 1 4053.810 3804.490 166.745 47.968 o
14 28 2 755.379 540.226 135.009 131.075 o
14 28 3 687.941 607.510 142.549 121.135 o
14 28 4 333.866 466.345 190.754 78.160 o
14 29 0 1792.810 1275.050 168.790 74.002 o
14 29 1 931.427 1027.980 141.775 111.496 o
14 29 2 278.573 115.334 137.103 149.848 o
14 29 3 1435.500 1570.830 157.451 83.963 o
14 30 0 837.587 336.314 166.884 93.119 o
14 30 1 2278.090 2025.110 185.500 58.370 o
15 0 1 22106.600 21127.800 266.529 6.746 o
15 0 2 18353.900 17690.900 312.316 7.959 o
15 0 3 9074.320 9813.320 207.924 20.195 o
15 0 4 41488.500 41618.400 564.366 2.126 o
15 0 5 38.827 61.359 51.145 1037.970 o
15 0 6 6310.760 6051.880 94.819 42.431 o
15 0 7 13931.200 13350.200 261.827 11.901 o
15 0 8 9401.730 9237.050 169.580 22.259 o
15 0 9 75.677 128.308 90.831 343.077 o
15 0 10 3702.520 3699.270 121.355 64.011 o
15 0 11 11984.700 12148.500 241.603 14.308 o
15 0 12 11040.700 10682.500 344.030 12.068 o
15 1 0 34976.200 34358.700 451.109 2.971 o
15 1 1 10272.700 10271.800 161.556 20.383 o
15 1 2 39484.300 40050.200 475.987 2.424 o
15 1 3 16885.000 17385.000 236.317 9.656 o
15 1 4 8442.730 8391.970 189.603 23.494 o
15 1 5 209.417 266.969 49.487 744.134 o
15 1 6 7742.500 7600.790 139.178 29.763 o
15 1 7 1276.630 1304.880 58.315 228.168 o
15 1 8 2211.460 2108.320 88.179 119.313 o
15 1 9 8829.960 9183.210 167.786 23.444 o
15 1 10 3343.580 3476.080 138.045 62.678 o
15 1 11 5432.480 5373.910 148.060 40.955 o
15 1 12 5385.030 5153.700 186.642 35.444 o
15 2 0 27437.500 27224.300 336.607 4.588 o
15 2 1 16713.000 16366.600 240.779 9.920 o
15 2 2 25159.600 25355.800 344.455 5.073 o
15 2 3 17173.100 17303.500 221.629 9.744 o
15 2 4 26723.800 28376.900 390.721 4.351 o
15 2 5 2233.010 2501.300 65.008 130.471 o
15 2 6 3928.780 3968.760 88.889 70.207 o
15 2 7 3140.880 3175.790 82.032 89.795 o
15 2 8 1656.340 1825.220 82.642 149.206 o
15 2 9 1034.420 953.803 89.032 195.738 o
15 2 10 2905.990 2860.880 116.187 80.074 o
15 2 11 10996.500 10969.500 210.194 16.945 o
15 2 12 6393.840 6767.120 248.960 23.725 o
15 3 0 20692.900 20446.900 251.212 7.397 o
15 3 1 794.250 835.633 43.213 383.799 o
15 3 2 12423.200 12466.100 165.588 16.068 o
15 3 3 12409.000 12124.800 156.635 16.521 o
15 3 4 9017.930 9409.420 163.014 23.161 o
15 3 5 5794.350 5841.450 117.893 42.695 o
15 3 6 10858.500 11549.800 186.996 17.671 o
15 3 7 284.389 319.304 56.569 570.537 o
15 3 8 9999.310 10413.200 186.430 19.554 o
15 3 9 1952.150 2233.800 92.261 121.529 o
15 3 10 10163.900 9748.800 240.731 17.210 o
15 3 11 3987.320 4290.600 167.298 46.879 o
15 3 12 5969.680 5857.960 280.300 22.194 o
15 4 0 1432.390 1731.310 48.739 211.306 o
15 4 1 4004.200 4115.240 86.763 69.074 o
15 4 2 3894.750 3863.050 84.512 72.520 o
15 4 3 13457.100 14279.800 216.438 13.005 o
15 4 4 5681.560 5905.880 92.042 46.672 o
15 4 5 5206.410 5284.140 94.113 51.477 o
15 4 6 9270.850 9283.240 132.971 24.431 o
15 4 7 9175.270 9342.380 162.151 22.981 o
15 4 8 16415.400 17000.400 220.811 10.215 o
15 4 9 1284.720 1197.050 86.680 177.226 o
15 4 10 6610.440 6533.830 150.702 33.767 o
15 4 11 672.542 577.446 117.791 163.983 o
15 4 12 301.450 387.390 146.665 127.924 o
15 5 0 8.827 68.131 37.229 1923.460 o
15 5 1 7582.230 7590.710 129.987 30.989 o
15 5 2 14933.900 15374.200 202.553 11.874 o
15 5 3 12264.300 12800.300 175.586 15.777 o
15 5 4 76.668 209.571 46.419 1010.470 o
15 5 5 3862.170 3829.230 94.576 70.122 o
15 5 6 4339.210 4480.410 92.863 62.121 o
15 5 7 3487.100 3282.140 89.177 80.431 o
15 5 8 3232.170 3087.260 84.363 87.969 o
15 5 9 750.993 608.871 80.432 260.454 o
15 5 10 6523.050 6979.080 196.995 28.353 o
15 5 11 89.874 -34.935 119.923 206.662 o
15 5 12 4106.800 4209.640 173.303 45.064 o
15 6 0 11983.800 12507.800 146.462 17.076 o
15 6 1 2940.050 3236.620 62.242 101.752 o
15 6 2 6630.860 6600.700 113.975 37.598 o
15 6 3 5052.880 5222.050 75.089 55.904 o
15 6 4 1047.780 1015.250 47.690 299.334 o
15 6 5 7356.910 7172.470 102.975 34.646 o
15 6 6 5303.930 5416.850 106.092 48.436 o
15 6 7 5135.780 5360.490 103.216 50.184 o
15 6 8 5153.300 4978.110 115.905 49.074 o
15 6 9 5512.210 5229.010 122.868 45.031 o
15 6 10 2267.490 2550.870 109.782 96.689 o
15 6 11 5116.010 5136.100 146.108 43.343 o
15 6 12 3227.140 2768.500 204.884 44.660 o
15 7 0 8579.630 8953.960 138.761 25.969 o
15 7 1 572.367 513.763 44.444 502.891 o
15 7 2 2878.660 2834.770 81.314 98.509 o
15 7 3 6379.450 6619.270 104.838 39.625 o
15 7 4 5432.420 5572.770 91.522 49.358 o
15 7 5 2636.270 2555.090 70.898 113.396 o
15 7 6 5385.730 5459.540 134.213 43.235 o
15 7 7 10129.200 10123.600 164.779 20.575 o
15 7 8 5508.740 5732.190 109.973 45.667 o
15 7 9 7106.670 7448.360 178.646 28.185 o
15 7 10 3629.690 3331.380 164.202 52.563 o
15 7 11 3241.490 3414.720 167.448 53.796 o
15 7 12 1799.230 1224.570 158.897 80.526 o
15 8 0 2104.270 1870.210 58.723 153.481 o
15 8 1 5788.480 5381.730 112.566 44.700 o
15 8 2 4204.620 4255.000 88.211 65.726 o
15 8 3 17443.700 17279.800 210.009 9.773 o
15 8 4 4083.990 4006.930 94.694 66.626 o
15 8 5 4701.870 4885.900 114.737 52.625 o
15 8 6 648.579 870.696 63.926 321.563 o
15 8 7 2782.240 2728.830 76.693 104.253 o
15 8 8 1925.390 2252.660 108.234 108.223 o
15 8 9 3739.620 4105.470 113.983 64.021 o
15 8 10 5701.110 5875.290 220.789 28.906 o
15 8 11 3554.730 3954.050 157.380 53.037 o
15 8 12 2605.010 2697.520 216.723 44.241 o
15 9 0 5059.380 4858.860 85.363 55.653 o
15 9 1 4881.670 4911.890 119.431 50.362 o
15 9 2 14941.600 15475.900 191.737 12.033 o
15 9 3 1321.680 1354.760 63.930 211.177 o
15 9 4 2252.290 2242.400 67.217 132.705 o
15 9 5 5526.880 5129.190 114.552 46.582 o
15 9 6 3583.090 3810.110 91.667 74.585 o
15 9 7 3116.480 3308.500 85.500 87.570 o
15 9 8 946.607 984.415 80.624 221.493 o
15 9 9 4076.720 4397.440 115.606 59.170 o
15 9 10 6587.530 6713.280 178.591 30.478 o
15 9 11 3447.030 3466.920 161.325 54.183 o
15 10 0 2819.180 2923.030 73.205 102.998 o
15 10 1 9093.790 9152.600 127.563 25.234 o
15 10 2 5197.100 5185.100 87.827 52.919 o
15 10 3 7808.770 8147.490 154.731 27.644 o
15 10 4 9535.320 9796.860 126.310 23.694 o
15 10 5 1952.340 2080.830 82.909 132.588 o
15 10 6 3213.510 3286.530 107.568 76.905 o
15 10 7 10839.800 10915.400 187.870 18.049 o
15 10 8 8297.820 8146.930 190.831 23.904 o
15 10 9 124.361 105.971 82.180 402.361 o
15 10 10 982.888 945.005 134.706 119.788 o
15 10 11 7973.850 8255.710 284.157 18.039 o
15 11 0 12872.000 12690.800 148.980 15.904 o
15 11 1 7361.660 7275.490 116.846 33.297 o
15 11 2 21662.900 21594.600 256.257 6.886 o
15 11 3 8422.150 8739.370 116.794 27.944 o
15 11 4 2618.080 2567.010 73.616 112.091 o
15 11 5 9843.200 10363.500 181.262 20.057 o
15 11 6 3517.550 4038.340 103.786 69.958 o
15 11 7 5728.570 6118.800 156.393 36.936 o
15 11 8 1475.650 1393.140 84.942 164.533 o
15 11 9 14504.800 14362.000 238.667 11.752 o
15 11 10 4589.510 4990.570 136.429 48.476 o
15 11 11 1168.590 1104.700 141.064 106.448 o
15 12 0 13900.300 13823.000 175.114 13.781 o
15 12 1 17716.500 17940.400 225.415 9.288 o
15 12 2 15883.600 15932.700 219.051 10.826 o
15 12 3 3962.890 3965.320 105.461 65.050 o
15 12 4 17945.500 17985.400 242.899 8.955 o
15 12 5 332.414 337.160 66.913 441.950 o
15 12 6 2897.820 3236.560 87.927 90.949 o
15 12 7 553.652 637.832 74.948 307.603 o
15 12 8 1052.160 1147.930 84.385 198.021 o
15 12 9 2940.060 3178.280 106.870 81.771 o
15 12 10 2148.320 2055.420 116.717 98.898 o
15 12 11 10153.100 9743.320 276.743 15.590 o
15 13 0 31168.000 30860.400 331.897 3.856 o
15 13 1 6245.560 6505.280 125.156 38.152 o
15 13 2 6823.040 6730.560 114.891 36.462 o
15 13 3 10269.700 10441.200 142.763 21.055 o
15 13 4 7885.590 7934.310 121.611 30.221 o
15 13 5 6450.030 6750.190 126.282 36.694 o
15 13 6 1116.500 1056.400 64.923 241.895 o
15 13 7 1195.220 1191.690 85.454 184.978 o
15 13 8 191.951 218.920 81.956 374.349 o
15 13 9 2387.630 2402.280 111.668 94.579 o
15 13 10 2974.230 3077.990 125.397 73.530 o
15 13 11 4420.010 4610.250 179.033 41.472 o
15 14 0 5720.680 6271.370 119.723 41.742 o
15 14 1 6830.520 6883.890 134.721 34.137 o
15 14 2 9004.960 9078.170 145.822 24.495 o
15 14 3 6895.780 6867.620 132.353 34.179 o
15 14 4 204.688 172.299 64.807 545.795 o
15 14 5 1250.310 1526.100 80.158 180.979 o
15 14 6 1350.250 1438.680 71.348 192.557 o
15 14 7 16169.600 16346.800 282.302 9.510 o
15 14 8 5317.470 5478.570 143.781 41.945 o
15 14 9 740.401 997.876 123.085 143.030 o
15 14 10 1956.070 1960.160 137.426 88.073 o
15 14 11 694.648 569.810 178.525 83.279 o
15 15 0 3825.020 3990.960 82.132 73.282 o
15 15 1 7833.190 8178.620 134.003 29.114 o
15 15 2 2152.410 2177.190 77.014 129.377 o
15 15 3 2761.990 2964.620 90.688 94.638 o
15 15 4 152.045 266.810 73.799 448.297 o
15 15 5 35023.900 36310.400 382.494 3.059 o
15 15 6 976.615 1096.480 79.919 215.985 o
15 15 7 2088.730 2212.770 90.248 119.614 o
15 15 8 1186.710 1190.500 99.166 160.863 o
15 15 9 1014.560 1220.760 109.794 150.160 o
15 15 10 6476.460 6914.180 166.828 31.794 o
15 16 0 3969.140 3836.770 85.702 71.424 o
15 16 1 15101.800 15146.300 178.195 12.278 o
15 16 2 643.262 621.641 57.685 378.685 o
15 16 3 15042.800 14984.200 147.723 12.896 o
15 16 4 4810.900 4652.370 114.429 52.744 o
15 16 5 1910.880 1972.730 88.429 130.500 o
15 16 6 8940.030 8802.150 155.922 24.316 o
15 16 7 3887.090 4138.370 120.067 60.700 o
15 16 8 4493.710 4576.970 124.097 53.147 o
15 16 9 5197.490 5475.750 146.258 42.103 o
15 16 10 2418.440 2676.530 136.449 77.342 o
15 17 0 290.837 206.461 59.379 562.370 o
15 17 1 5702.980 5812.720 164.981 36.389 o
15 17 2 5670.470 5876.150 123.349 42.449 o
15 17 3 970.579 1126.320 71.141 237.386 o
15 17 4 18828.300 18225.300 228.685 8.706 o
15 17 5 2959.150 3051.270 114.795 78.704 o
15 17 6 5757.420 5653.220 129.296 41.700 o
15 17 7 14779.800 14107.700 205.713 12.348 o
15 17 8 6662.290 7220.050 171.863 30.291 o
15 17 9 10470.800 10676.300 215.931 17.465 o
15 17 10 1141.890 1049.560 153.757 95.066 o
15 18 0 3633.910 3755.300 99.748 71.596 o
15 18 1 2367.020 2265.100 83.026 116.708 o
15 18 2 6521.210 6320.770 122.404 37.709 o
15 18 3 2542.840 2728.510 86.214 104.269 o
15 18 4 22658.300 22351.100 253.210 6.529 o
15 18 5 11601.600 11635.400 147.893 18.052 o
15 18 6 24150.200 24208.000 313.414 5.560 o
15 18 7 3453.180 3620.980 110.402 70.791 o
15 18 8 532.331 640.106 107.015 195.197 o
15 18 9 11773.900 11683.900 215.187 15.585 o
15 19 0 1015.280 959.497 68.642 248.149 o
15 19 1 15254.700 15719.400 220.896 11.224 o
15 19 2 10729.900 11033.100 162.383 19.122 o
15 19 3 3347.190 3453.640 96.731 78.316 o
15 19 4 10797.800 9886.210 173.373 19.384 o
15 19 5 9236.880 9031.730 131.350 24.854 o
15 19 6 525.254 679.209 80.263 285.107 o
15 19 7 13916.900 13544.100 204.388 13.220 o
15 19 8 3935.820 4449.810 143.041 52.797 o
15 19 9 4983.210 4966.420 154.687 42.833 o
15 20 0 7686.520 7792.590 133.632 30.092 o
15 20 1 10169.800 10317.800 250.959 16.444 o
15 20 2 5221.800 5042.740 118.080 48.056 o
15 20 3 29385.000 29862.100 311.881 4.216 o
15 20 4 2121.140 2174.130 91.926 117.837 o
15 20 5 5769.200 5586.910 128.274 41.953 o
15 20 6 6683.710 6819.170 134.612 34.781 o
15 20 7 729.116 730.261 134.227 130.244 o
15 20 8 8725.330 8722.960 182.053 23.177 o
15 20 9 3829.570 4086.540 179.015 45.383 o
15 21 0 7189.520 6724.160 154.741 31.225 o
15 21 1 7968.850 7377.900 197.942 24.731 o
15 21 2 1091.240 1018.190 87.442 193.217 o
15 21 3 172.734 210.596 76.232 427.706 o
15 21 4 3472.410 3684.950 111.063 69.972 o
15 21 5 23978.200 23806.500 288.342 5.798 o
15 21 6 9429.240 9211.790 174.467 21.965 o
15 21 7 2199.420 2280.670 124.028 90.776 o
15 21 8 537.745 557.837 120.166 165.589 o
15 22 0 15877.100 15160.100 270.668 10.129 o
15 22 1 189.738 161.893 96.435 288.534 o
15 22 2 662.693 566.362 93.626 227.107 o
15 22 3 8833.880 8319.570 157.819 24.912 o
15 22 4 2823.600 2890.980 119.538 79.358 o
15 22 5 364.420 510.054 101.357 229.873 o
15 22 6 433.540 189.908 95.174 262.884 o
15 22 7 6007.540 5919.160 176.171 33.644 o
15 22 8 7777.380 7537.840 223.685 22.922 o
15 23 0 461.539 768.725 99.951 215.768 o
15 23 1 2708.790 2715.110 111.960 86.251 o
15 23 2 11605.900 11322.300 200.489 16.453 o
15 23 3 2376.190 2560.070 129.633 82.450 o
15 23 4 3354.240 3407.070 119.124 69.876 o
15 23 5 579.605 604.696 137.450 131.523 o
15 23 6 181.815 5.279 113.602 221.920 o
15 23 7 44.005 27.643 129.689 179.060 o
15 24 0 13488.800 13163.400 223.377 13.230 o
15 24 1 1741.870 1813.800 114.994 111.803 o
15 24 2 2467.430 2241.530 133.856 80.962 o
15 24 3 7471.930 7346.710 166.979 28.464 o
15 24 4 1542.890 1525.380 105.579 131.373 o
15 24 5 359.271 366.042 134.146 148.239 o
15 24 6 422.204 221.126 108.649 212.399 o
15 24 7 1356.540 1448.900 155.808 87.097 o
15 25 0 108.043 236.946 113.508 219.005 o
15 25 1 2628.800 2567.370 136.833 75.244 o
15 25 2 345.593 520.766 126.966 160.307 o
15 25 3 175.513 268.121 132.688 160.220 o
15 25 4 1625.970 1552.990 121.390 111.519 o
15 25 5 6803.710 6447.340 168.601 31.325 o
15 25 6 2724.370 2530.190 152.473 66.977 o
15 26 0 731.020 797.026 130.841 134.312 o
15 26 1 3581.680 3673.150 151.743 55.487 o
15 26 2 203.711 268.691 133.716 156.821 o
15 26 3 8424.130 7392.620 252.045 20.051 o
15 26 4 1747.900 1896.050 152.232 81.393 o
15 26 5 771.378 731.223 135.748 126.816 o
15 27 0 2270.430 2257.710 178.420 60.567 o
15 27 1 3128.260 3098.190 174.870 53.153 o
15 27 2 5358.140 5247.570 194.097 34.254 o
15 27 3 52.162 -16.623 134.590 166.698 o
15 27 4 5507.600 5875.730 200.626 31.961 o
15 28 0 8.403 -133.389 157.120 123.805 o
15 28 1 1242.320 1088.470 149.046 97.380 o
15 28 2 794.734 1033.000 154.841 100.004 o
15 28 3 307.280 312.753 215.613 62.794 o
15 29 0 1439.720 1033.340 165.138 81.766 o
15 29 1 1038.160 657.267 169.414 85.908 o
16 0 0 10823.400 10587.900 232.291 16.443 o
16 0 1 10408.500 10408.200 165.210 19.917 o
16 0 2 16932.400 17023.600 327.847 8.351 o
16 0 3 36468.700 36652.900 442.176 2.796 o
16 0 4 466.343 344.521 55.250 494.278 o
16 0 5 3789.390 3648.080 102.602 69.475 o
16 0 6 8157.910 8292.020 173.610 25.275 o
16 0 7 1987.700 2000.920 67.793 147.299 o
16 0 8 1.702 63.222 67.101 656.633 o
16 0 9 1386.190 1368.630 107.925 136.297 o
16 0 10 3239.880 3152.790 121.664 71.591 o
16 0 11 2410.640 2604.300 145.526 73.130 o
16 0 12 830.485 1213.070 209.143 59.965 o
16 1 0 13884.500 14420.100 199.290 13.024 o
16 1 1 24767.100 24125.200 301.318 5.518 o
16 1 2 7961.470 8441.270 101.597 30.587 o
16 1 3 15940.100 16059.700 226.611 10.632 o
16 1 4 4247.290 4226.880 130.691 54.579 o
16 1 5 12226.700 11911.100 242.895 14.165 o
16 1 6 3283.140 3435.450 137.612 63.561 o
16 1 7 1692.530 1910.820 88.322 139.444 o
16 1 8 4178.810 4132.200 101.330 63.233 o
16 1 9 594.406 859.112 97.121 210.364 o
16 1 10 5043.950 4912.610 128.806 47.534 o
16 1 11 4376.640 4565.540 193.407 38.913 o
16 1 12 5723.720 6153.950 237.825 26.599 o
16 2 0 12461.900 11979.900 165.277 16.298 o
16 2 1 19278.900 18963.500 296.309 7.636 o
16 2 2 24722.300 24555.000 315.654 5.398 o
16 2 3 20842.000 20452.800 287.009 7.024 o
16 2 4 9757.740 9731.280 118.695 23.655 o
16 2 5 11886.600 11840.700 179.107 16.588 o
16 2 6 3728.910 3985.210 109.730 66.043 o
16 2 7 3311.220 3317.820 85.301 84.356 o
16 2 8 4133.430 4026.350 102.766 63.807 o
16 2 9 1069.140 706.873 90.523 198.426 o
16 2 10 5061.470 5325.450 147.248 42.943 o
16 2 11 4359.280 4699.210 202.359 37.067 o
16 2 12 8008.780 7619.870 462.489 10.202 o
16 3 0 4541.420 5144.950 109.715 53.894 o
16 3 1 5964.100 6308.980 133.839 38.666 o
16 3 2 8004.890 8052.200 117.011 30.026 o
16 3 3 4904.270 5090.660 106.410 52.123 o
16 3 4 314.599 366.538 54.810 562.955 o
16 3 5 15213.900 15362.400 250.665 10.795 o
16 3 6 2827.550 3233.750 108.505 82.243 o
16 3 7 11000.300 11072.200 183.167 17.936 o
16 3 8 10009.100 9614.260 166.122 21.105 o
16 3 9 1932.410 1926.610 120.431 101.593 o
16 3 10 2349.840 2817.870 124.377 83.996 o
16 3 11 988.599 753.691 135.298 121.327 o
16 3 12 1115.000 1106.430 192.816 66.918 o
16 4 0 5456.730 5114.310 120.968 45.971 o
16 4 1 2037.830 1952.860 65.684 148.179 o
16 4 2 6739.710 6761.670 130.622 35.105 o
16 4 3 7840.370 7770.160 102.411 31.972 o
16 4 4 7040.470 7110.050 118.107 34.609 o
16 4 5 12883.500 12749.800 208.101 14.296 o
16 4 6 15976.900 16790.100 266.768 9.756 o
16 4 7 2560.880 2648.040 105.262 93.151 o
16 4 8 459.507 562.431 73.264 339.136 o
16 4 9 11711.700 11819.100 257.843 14.129 o
16 4 10 2528.100 2776.410 121.282 83.424 o
16 4 11 4313.470 4443.450 152.111 48.241 o
16 4 12 1550.460 1496.420 243.434 42.890 o
16 5 0 22443.800 21396.300 232.448 6.869 o
16 5 1 2294.140 1846.620 54.051 149.279 o
16 5 2 2682.320 2515.120 63.896 116.750 o
16 5 3 5538.270 5708.250 109.137 45.692 o
16 5 4 38980.100 40115.000 462.718 2.476 o
16 5 5 7606.510 7839.470 139.815 29.758 o
16 5 6 753.272 862.161 69.649 283.106 o
16 5 7 12952.900 12904.000 164.849 15.314 o
16 5 8 6324.610 6569.120 126.157 37.575 o
16 5 9 1036.480 1284.360 115.497 139.364 o
16 5 10 646.120 599.103 124.294 151.838 o
16 5 11 12853.900 12327.800 371.611 10.010 o
16 6 0 1076.260 1092.020 53.587 273.594 o
16 6 1 8095.030 8002.070 128.361 29.049 o
16 6 2 9413.480 9582.840 115.247 24.679 o
16 6 3 7215.630 7476.500 130.944 32.223 o
16 6 4 3415.480 3329.170 87.146 81.921 o
16 6 5 2544.110 2613.840 77.742 110.876 o
16 6 6 16678.900 16963.500 209.861 10.247 o
16 6 7 3868.560 4019.560 108.682 64.775 o
16 6 8 10648.100 10460.900 170.033 19.331 o
16 6 9 19290.800 20040.800 365.891 6.707 o
16 6 10 1093.980 1075.370 153.509 95.864 o
16 6 11 1661.780 1525.930 124.973 107.554 o
16 7 0 1879.650 2002.540 56.150 163.764 o
16 7 1 65.838 126.830 47.040 1080.020 o
16 7 2 6317.900 6281.270 104.977 40.684 o
16 7 3 1338.730 1430.250 55.786 221.341 o
16 7 4 4367.610 4201.680 78.737 66.525 o
16 7 5 5718.700 5841.810 118.385 43.009 o
16 7 6 3219.850 3279.770 90.957 83.805 o
16 7 7 11609.300 12100.900 223.780 15.251 o
16 7 8 3074.460 3371.740 101.152 80.967 o
16 7 9 7336.660 7664.140 214.877 24.284 o
16 7 10 5254.850 4926.500 162.923 40.227 o
16 7 11 3449.550 3521.400 213.167 40.216 o
16 8 0 1190.750 1304.430 52.169 249.758 o
16 8 1 2305.510 2259.760 74.242 125.219 o
16 8 2 14514.100 14189.900 171.426 13.204 o
16 8 3 18724.000 19147.300 222.999 8.623 o
16 8 4 6721.910 7013.610 109.527 36.828 o
16 8 5 11178.600 11773.900 186.945 17.162 o
16 8 6 592.465 652.015 62.108 363.169 o
16 8 7 1354.510 1525.320 70.462 190.826 o
16 8 8 7754.800 7668.660 147.724 28.947 o
16 8 9 460.386 413.273 98.505 235.704 o
16 8 10 1985.890 1749.520 162.978 72.922 o
16 8 11 6752.770 6582.120 221.605 25.821 o
16 9 0 50441.900 50598.600 510.871 1.663 o
16 9 1 6045.690 5964.130 103.525 43.000 o
16 9 2 4832.320 4966.160 104.686 53.421 o
16 9 3 8490.520 8718.330 147.161 25.909 o
16 9 4 4091.560 4107.850 86.213 68.270 o
16 9 5 8486.740 8729.530 150.006 25.721 o
16 9 6 1008.340 901.384 67.702 254.820 o
16 9 7 3691.140 3864.410 103.772 68.986 o
16 9 8 4331.780 4391.550 107.991 58.956 o
16 9 9 6854.420 6913.750 150.399 32.394 o
16 9 10 8968.010 8850.390 291.724 16.351 o
16 9 11 7166.800 7577.200 225.811 23.757 o
16 10 0 47.684 163.971 50.607 961.223 o
16 10 1 3435.380 3327.150 95.501 78.442 o
16 10 2 8420.130 8262.970 148.686 26.487 o
16 10 3 5309.220 5247.810 133.558 44.278 o
16 10 4 6875.710 7273.500 135.928 33.199 o
16 10 5 7101.180 6978.970 131.510 33.364 o
16 10 6 1478.010 1430.370 78.733 172.862 o
16 10 7 1199.680 1258.460 86.314 181.063 o
16 10 8 1022.810 1030.100 83.604 206.193 o
16 10 9 3993.380 4095.450 121.996 59.417 o
16 10 10 2791.380 2810.650 151.649 65.402 o
16 10 11 1951.390 1817.100 164.788 71.913 o
16 11 0 2639.710 2183.450 66.540 121.337 o
16 11 1 5106.500 5419.210 138.456 44.035 o
16 11 2 1941.920 1988.730 62.729 154.544 o
16 11 3 2583.930 2765.240 81.525 105.719 o
16 11 4 2958.350 3160.230 82.564 93.062 o
16 11 5 338.732 194.321 71.088 426.452 o
16 11 6 605.640 378.741 77.868 306.134 o
16 11 7 1917.190 2084.740 86.996 129.813 o
16 11 8 616.429 521.863 80.530 282.286 o
16 11 9 1421.210 1534.620 99.939 142.575 o
16 11 10 805.779 1050.990 120.958 143.225 o
16 11 11 1604.420 1702.370 186.335 64.118 o
16 12 0 4607.750 5000.030 91.657 57.631 o
16 12 1 19880.000 20399.800 263.276 7.555 o
16 12 2 1579.290 1763.820 64.101 178.334 o
16 12 3 7324.210 7818.970 129.026 31.508 o
16 12 4 1536.430 1819.110 78.713 159.741 o
16 12 5 4214.980 4383.740 102.041 61.512 o
16 12 6 429.769 516.589 82.984 297.856 o
16 12 7 1044.540 911.630 83.772 208.656 o
16 12 8 498.336 431.860 81.949 298.953 o
16 12 9 1511.870 1557.350 142.074 94.913 o
16 12 10 7645.030 7742.140 184.531 26.103 o
16 12 11 285.778 1295.820 858.734 4.125 o
16 13 0 657.859 774.570 53.156 379.995 o
16 13 1 13477.400 14036.200 200.280 13.469 o
16 13 2 10560.900 10519.500 142.799 20.521 o
16 13 3 20211.800 20804.600 245.424 7.548 o
16 13 4 4978.280 4781.420 108.612 52.271 o
16 13 5 3051.220 2891.840 92.963 88.879 o
16 13 6 40.363 17.358 93.164 343.406 o
16 13 7 2508.130 2498.770 93.995 102.717 o
16 13 8 3502.970 3488.220 105.861 72.636 o
16 13 9 1412.510 1409.660 110.928 130.918 o
16 13 10 2172.170 2375.580 177.673 61.185 o
16 14 0 10779.000 10987.800 179.146 18.428 o
16 14 1 6171.060 6250.210 131.870 38.174 o
16 14 2 4852.820 4911.700 106.249 53.164 o
16 14 3 2820.010 2861.540 87.057 96.435 o
16 14 4 143.355 285.273 76.172 425.930 o
16 14 5 26406.900 26433.800 327.416 4.860 o
16 14 6 715.523 680.607 92.252 221.884 o
16 14 7 109.864 30.632 79.206 445.242 o
16 14 8 1838.400 1780.890 109.538 114.954 o
16 14 9 1847.090 2165.140 118.147 102.755 o
16 14 10 4558.510 4532.790 188.594 39.199 o
16 15 0 17539.900 17377.400 217.204 9.608 o
16 15 1 2944.270 3056.000 90.712 90.400 o
16 15 2 3478.870 3710.580 94.017 75.793 o
16 15 3 2555.320 2603.310 83.428 107.170 o
16 15 4 8464.200 8703.800 166.527 24.710 o
16 15 5 1150.060 1223.750 86.758 184.273 o
16 15 6 474.435 302.687 87.788 283.905 o
16 15 7 4909.430 4883.250 131.518 47.889 o
16 15 8 3453.070 3519.260 134.856 62.623 o
16 15 9 310.675 288.964 110.419 212.397 o
16 15 10 272.931 755.226 140.905 132.781 o
16 16 0 625.077 572.265 64.516 352.006 o
16 16 1 751.403 840.177 71.197 279.232 o
16 16 2 17713.900 17834.100 191.691 9.730 o
16 16 3 2335.240 2401.500 79.331 118.384 o
16 16 4 2029.230 1955.600 112.593 105.641 o
16 16 5 3187.380 3110.330 126.154 70.584 o
16 16 6 619.845 570.976 82.471 270.780 o
16 16 7 915.542 1143.560 104.450 165.539 o
16 16 8 3510.170 3525.260 119.546 67.413 o
16 16 9 6005.440 6246.760 172.659 33.582 o
16 16 10 2787.300 2271.880 364.154 19.797 o
16 17 0 1185.840 1316.680 66.881 218.425 o
16 17 1 1756.370 1825.150 78.831 149.395 o
16 17 2 1722.670 1823.460 81.625 147.635 o
16 17 3 123.288 133.655 68.187 549.959 o
16 17 4 3593.660 3680.090 104.058 71.056 o
16 17 5 776.936 761.781 77.032 260.400 o
16 17 6 6151.180 6175.750 128.895 38.790 o
16 17 7 2228.300 2326.030 120.262 92.419 o
16 17 8 965.595 1252.390 110.263 150.737 o
16 17 9 6011.260 5985.380 166.231 34.826 o
16 18 0 1194.080 1146.740 83.096 191.077 o
16 18 1 668.951 540.128 77.278 287.440 o
16 18 2 1302.160 1552.900 72.965 189.173 o
16 18 3 5115.570 5102.360 108.553 50.245 o
16 18 4 15692.400 16305.500 216.979 10.863 o
16 18 5 1405.060 1599.450 89.346 156.512 o
16 18 6 1124.780 1183.330 101.867 159.347 o
16 18 7 11724.900 11873.900 175.630 16.864 o
16 18 8 3127.230 3015.570 130.312 70.038 o
16 18 9 4037.600 4175.120 158.619 49.045 o
16 19 0 27679.200 27314.400 251.803 4.908 o
16 19 1 9687.350 9826.820 191.115 20.193 o
16 19 2 5635.520 5643.160 144.969 39.941 o
16 19 3 7181.100 6924.350 164.986 29.964 o
16 19 4 457.274 504.536 90.629 261.338 o
16 19 5 10999.700 10730.100 187.844 17.966 o
16 19 6 8804.620 8447.510 166.425 24.289 o
16 19 7 2364.810 2192.850 109.200 98.682 o
16 19 8 4576.160 4889.720 147.776 46.468 o
16 19 9 8164.920 8796.820 1129.980 2.234 o
16 20 0 4557.360 4255.810 100.398 59.397 o
16 20 1 6138.430 6024.670 134.691 38.420 o
16 20 2 19429.000 19493.100 281.525 7.664 o
16 20 3 4183.450 4306.230 109.014 60.366 o
16 20 4 9874.170 9597.200 166.321 21.328 o
16 20 5 9952.090 9625.410 153.290 21.807 o
16 20 6 4317.980 4304.260 117.817 56.996 o
16 20 7 6164.190 5976.270 162.148 34.849 o
16 20 8 1944.590 1884.060 184.613 61.650 o
16 21 0 25876.700 25162.000 337.245 5.006 o
16 21 1 3355.130 3410.850 118.777 69.978 o
16 21 2 6018.980 5831.220 123.450 40.864 o
16 21 3 7019.170 7309.110 149.549 31.367 o
16 21 4 4868.760 4589.040 124.028 50.572 o
16 21 5 2167.260 2291.300 129.408 87.664 o
16 21 6 2436.780 2259.050 126.166 85.812 o
16 21 7 4081.810 3613.920 191.243 42.460 o
16 21 8 2587.890 2762.580 160.992 63.452 o
16 22 0 14.480 143.573 86.638 386.513 o
16 22 1 18050.300 18664.500 265.204 8.493 o
16 22 2 2414.660 2536.290 111.434 93.019 o
16 22 3 322.186 277.948 121.740 179.324 o
16 22 4 3488.010 3780.970 118.685 66.622 o
16 22 5 1822.850 1844.360 115.560 109.012 o
16 22 6 3050.820 2580.120 198.639 47.670 o
16 22 7 348.057 171.890 122.435 178.961 o
16 23 0 38.464 208.671 95.600 311.530 o
16 23 1 9601.520 9685.150 242.173 17.797 o
16 23 2 1126.100 1041.590 128.916 122.102 o
16 23 3 17363.800 17735.000 218.598 9.588 o
16 23 4 2115.470 2593.390 117.947 93.611 o
16 23 5 86.385 300.959 113.877 216.917 o
16 23 6 13.828 -94.671 147.670 139.962 o
16 23 7 639.584 398.097 178.812 84.722 o
16 24 0 34.920 146.195 118.778 209.289 o
16 24 1 18485.800 18379.000 363.838 7.164 o
16 24 2 752.922 646.695 127.945 140.663 o
16 24 3 2183.850 2205.400 123.862 91.784 o
16 24 4 3128.380 2975.100 119.141 75.043 o
16 24 5 1955.120 1974.380 164.725 71.120 o
16 24 6 1895.210 1838.210 182.010 63.422 o
16 25 0 9845.090 9768.230 316.265 14.139 o
16 25 1 1561.960 1379.090 133.056 103.604 o
16 25 2 2901.080 2842.630 188.341 50.928 o
16 25 3 7118.740 6884.250 401.157 13.021 o
16 25 4 2381.370 2055.190 148.112 75.202 o
16 25 5 2539.790 2502.860 242.547 38.261 o
16 26 0 609.986 661.086 134.188 134.903 o
16 26 1 1545.660 1295.100 162.020 81.071 o
16 26 2 15345.500 15393.500 371.351 8.485 o
16 26 3 3332.490 3206.780 216.733 40.413 o
16 26 4 3215.180 3054.160 166.091 55.619 o
16 27 0 22167.800 21669.800 781.214 3.063 o
16 27 1 2206.410 1966.290 144.906 79.697 o
16 27 2 3100.690 3013.330 185.176 50.324 o
16 27 3 626.132 807.927 194.417 71.276 o
16 28 0 3.510 -251.992 191.041 83.841 o
16 28 1 1264.420 1362.470 138.985 104.034 o
17 0 1 38.116 187.651 42.162 1268.990 o
17 0 2 27946.900 28291.500 477.744 3.800 o
17 0 3 4207.420 4396.840 93.711 63.606 o
17 0 4 15934.300 15637.600 225.382 10.774 o
17 0 5 8337.180 8029.500 144.570 27.246 o
17 0 6 135.378 -0.251 63.939 645.906 o
17 0 7 800.107 831.852 81.919 238.406 o
17 0 8 4483.130 4451.730 111.827 56.538 o
17 0 9 986.970 1189.490 88.482 192.231 o
17 0 10 246.934 130.609 101.010 261.271 o
17 0 11 3187.970 3186.870 165.391 55.584 o
17 1 0 7909.920 7503.750 148.732 28.674 o
17 1 1 8934.210 8766.070 136.962 25.491 o
17 1 2 11522.700 12057.100 180.056 16.844 o
17 1 3 157.627 205.626 53.886 735.225 o
17 1 4 1814.200 2002.230 79.654 142.438 o
17 1 5 9723.720 9659.180 173.236 21.175 o
17 1 6 96.838 132.649 60.613 686.407 o
17 1 7 5558.690 5406.200 158.341 38.715 o
17 1 8 2682.730 2894.920 128.323 76.837 o
17 1 9 3839.160 4095.430 124.538 60.001 o
17 1 10 988.506 1096.850 109.920 153.567 o
17 1 11 3966.410 3980.940 229.697 34.481 o
17 2 0 21708.900 21683.100 266.710 6.777 o
17 2 1 14031.100 14136.800 203.789 12.921 o
17 2 2 3758.550 3646.630 85.665 75.312 o
17 2 3 4251.690 4361.980 88.520 64.605 o
17 2 4 2352.880 2307.940 66.982 128.252 o
17 2 5 1186.500 1185.050 75.999 204.682 o
17 2 6 2081.380 1904.910 74.727 138.848 o
17 2 7 1476.400 1420.090 76.510 176.691 o
17 2 8 4238.860 4738.950 119.545 55.492 o
17 2 9 1197.180 1137.400 102.536 156.019 o
17 2 10 8497.710 8375.650 199.372 22.748 o
17 2 11 5454.240 5127.740 245.394 27.281 o
17 3 0 148.539 61.224 41.834 1171.240 o
17 3 1 11928.200 11880.400 179.737 16.500 o
17 3 2 332.438 485.986 50.669 567.983 o
17 3 3 14682.800 14913.600 257.526 11.082 o
17 3 4 689.697 670.413 60.415 348.871 o
17 3 5 8763.940 9597.730 146.427 24.422 o
17 3 6 8621.620 8320.420 187.801 23.355 o
17 3 7 2851.540 3107.560 93.257 90.342 o
17 3 8 2956.590 3248.000 86.979 90.233 o
17 3 9 2857.570 2980.150 109.979 82.959 o
17 3 10 3086.660 3586.230 136.307 65.172 o
17 3 11 1893.810 1646.340 169.060 70.957 o
17 4 0 10857.300 11152.400 209.527 17.025 o
17 4 1 8542.500 8507.390 133.339 26.916 o
17 4 2 9.250 -18.743 46.072 1412.780 o
17 4 3 1280.210 1327.180 57.919 227.548 o
17 4 4 2695.680 2496.820 80.805 106.685 o
17 4 5 2411.540 2491.840 79.782 114.667 o
17 4 6 4631.200 4624.860 117.352 53.506 o
17 4 7 18388.300 18558.600 277.030 8.239 o
17 4 8 2626.960 2643.690 95.607 97.691 o
17 4 9 791.650 953.179 122.620 142.766 o
17 4 10 3338.740 3370.140 128.207 66.809 o
17 4 11 3717.060 3763.540 202.494 41.127 o
17 5 0 36.947 190.057 44.458 1172.290 o
17 5 1 6030.950 5944.580 99.137 43.675 o
17 5 2 14991.100 15381.900 194.325 11.985 o
17 5 3 794.221 906.829 56.403 322.958 o
17 5 4 362.574 523.633 58.466 471.886 o
17 5 5 1133.910 1460.440 70.529 209.281 o
17 5 6 21502.100 21555.700 240.068 7.067 o
17 5 7 1309.840 1418.450 84.201 173.821 o
17 5 8 1306.580 1311.610 104.501 144.924 o
17 5 9 16887.200 16625.100 278.068 9.204 o
17 5 10 481.563 500.466 129.863 149.492 o
17 5 11 812.054 828.284 159.122 97.174 o
17 6 0 5161.020 5306.110 97.473 51.164 o
17 6 1 1878.200 1951.110 59.846 161.469 o
17 6 2 4583.940 4930.970 92.745 57.908 o
17 6 3 7302.550 7157.540 129.194 32.614 o
17 6 4 28008.500 28698.700 342.561 4.369 o
17 6 5 326.555 307.413 63.755 477.538 o
17 6 6 860.471 1007.130 72.951 250.093 o
17 6 7 14433.400 13730.800 275.530 11.170 o
17 6 8 5185.610 5342.690 128.350 45.586 o
17 6 9 723.647 837.957 110.407 170.719 o
17 6 10 906.536 1026.060 142.136 111.646 o
17 6 11 8038.110 7801.140 322.684 15.988 o
17 7 0 1582.080 1516.200 57.231 195.856 o
17 7 1 2549.580 2482.110 86.918 106.538 o
17 7 2 44.676 36.504 59.439 798.304 o
17 7 3 4368.420 4217.460 94.496 62.715 o
17 7 4 918.660 964.916 62.928 276.341 o
17 7 5 3815.000 3603.170 97.525 71.078 o
17 7 6 9625.460 9840.210 188.958 20.384 o
17 7 7 2347.910 2430.520 97.556 104.646 o
17 7 8 5838.860 6108.560 139.193 38.901 o
17 7 9 6026.750 5997.240 192.019 31.454 o
17 7 10 1128.580 1355.740 140.935 104.857 o
17 7 11 2270.250 2082.640 167.982 65.999 o
17 8 0 27996.100 27696.200 308.440 4.590 o
17 8 1 12638.200 12443.700 219.525 14.313 o
17 8 2 3818.370 3970.620 87.046 72.058 o
17 8 3 3682.360 3598.990 81.754 77.934 o
17 8 4 952.950 869.885 55.255 303.099 o
17 8 5 12685.600 12367.800 185.426 15.291 o
17 8 6 2235.880 2636.100 102.606 101.346 o
17 8 7 11529.200 12250.100 315.486 12.239 o
17 8 8 5966.150 5639.360 132.237 40.338 o
17 8 9 2511.450 2735.520 116.874 86.461 o
17 8 10 9129.890 9413.290 239.857 18.628 o
17 8 11 2104.380 1810.130 208.444 51.223 o
17 9 0 12243.300 12430.800 155.118 16.578 o
17 9 1 5963.590 6108.220 121.349 40.755 o
17 9 2 14983.500 15362.300 208.735 11.729 o
17 9 3 20481.200 20879.100 337.956 6.583 o
17 9 4 11990.400 12079.100 184.348 16.179 o
17 9 5 8901.060 9220.320 138.912 24.957 o
17 9 6 4171.570 4062.080 105.659 62.482 o
17 9 7 3190.180 3371.460 112.762 74.517 o
17 9 8 3552.390 3552.130 108.377 70.771 o
17 9 9 461.943 357.890 115.419 185.827 o
17 9 10 2524.640 2652.180 154.472 67.391 o
17 9 11 6494.480 7253.020 620.077 6.733 o
17 10 0 21798.000 22093.200 266.494 6.698 o
17 10 1 4458.220 4502.860 115.866 55.588 o
17 10 2 34555.000 34357.600 452.106 3.002 o
17 10 3 2002.840 2027.910 78.554 135.870 o
17 10 4 3530.490 3764.390 97.939 73.416 o
17 10 5 10428.700 10342.000 143.875 20.831 o
17 10 6 994.616 1076.190 74.953 227.654 o
17 10 7 1155.830 1142.080 83.219 193.537 o
17 10 8 1045.710 1035.060 87.347 195.925 o
17 10 9 7502.630 7430.480 182.566 26.926 o
17 10 10 2535.890 2322.620 161.057 65.801 o
17 11 0 22938.600 22260.500 281.578 6.266 o
17 11 1 3460.670 3417.780 92.433 78.614 o
17 11 2 2923.690 2989.820 82.963 95.189 o
17 11 3 1609.770 1702.000 77.863 160.133 o
17 11 4 13233.700 13517.100 185.453 14.249 o
17 11 5 375.425 357.250 73.883 374.528 o
17 11 6 1689.470 1563.820 93.469 140.086 o
17 11 7 342.626 374.155 81.817 329.629 o
17 11 8 99.406 146.181 112.379 227.432 o
17 11 9 643.009 886.249 101.367 194.734 o
17 11 10 660.338 543.597 133.740 135.884 o
17 12 0 3668.480 3549.350 81.127 78.690 o
17 12 1 9424.230 9537.790 198.417 20.408 o
17 12 2 10920.400 10792.200 141.733 19.797 o
17 12 3 21727.400 21889.800 263.923 6.766 o
17 12 4 2238.250 2394.870 100.858 105.163 o
17 12 5 320.981 239.831 75.271 391.689 o
17 12 6 513.098 469.961 98.941 227.000 o
17 12 7 877.050 770.435 84.384 226.829 o
17 12 8 1768.250 1696.680 101.233 126.417 o
17 12 9 406.774 420.114 104.667 218.882 o
17 12 10 1979.170 2098.060 177.858 63.693 o
17 13 0 940.893 1063.640 84.731 208.487 o
17 13 1 22718.900 22817.900 289.544 6.194 o
17 13 2 1551.300 1635.570 73.457 170.850 o
17 13 3 2963.490 3136.710 95.018 87.310 o
17 13 4 311.887 313.666 78.020 365.508 o
17 13 5 12384.000 12896.800 181.815 15.430 o
17 13 6 1261.570 1417.990 95.147 158.600 o
17 13 7 250.961 71.086 99.894 269.326 o
17 13 8 69.813 47.544 96.840 311.506 o
17 13 9 345.266 357.349 107.611 216.436 o
17 13 10 10996.600 10896.100 268.269 14.717 o
17 14 0 7656.880 7534.660 196.021 25.349 o
17 14 1 4804.580 4904.460 108.607 53.074 o
17 14 2 1361.070 1319.630 71.911 194.943 o
17 14 3 8215.050 8327.810 143.671 27.243 o
17 14 4 4214.770 4297.360 120.862 57.074 o
17 14 5 1117.170 1256.680 88.766 181.416 o
17 14 6 2953.810 3170.040 110.592 79.906 o
17 14 7 2379.160 2327.210 98.625 104.356 o
17 14 8 3780.350 3801.670 139.204 57.328 o
17 14 9 3003.870 3248.820 172.696 54.176 o
17 15 0 26.803 158.267 66.087 627.766 o
17 15 1 179.875 183.040 69.980 492.894 o
17 15 2 9630.550 9519.630 174.069 21.396 o
17 15 3 287.400 297.531 79.528 362.232 o
17 15 4 1819.550 1753.640 96.263 129.137 o
17 15 5 3834.420 3820.350 121.335 62.220 o
17 15 6 2533.840 2995.220 109.913 87.938 o
17 15 7 2066.310 2339.410 100.733 109.933 o
17 15 8 3003.030 2956.000 152.237 62.642 o
17 15 9 7804.620 7132.510 216.852 23.758 o
17 16 0 17673.300 17923.200 214.793 9.446 o
17 16 1 3542.200 3639.840 94.746 75.169 o
17 16 2 879.614 923.831 76.862 240.933 o
17 16 3 5120.500 4982.280 105.218 51.216 o
17 16 4 9672.550 10481.000 216.711 18.498 o
17 16 5 2224.190 2356.510 111.591 98.172 o
17 16 6 2049.190 2237.000 107.689 106.011 o
17 16 7 7349.780 7665.470 177.429 27.454 o
17 16 8 3212.420 3190.960 142.029 63.680 o
17 16 9 4259.740 4508.540 158.322 46.933 o
17 17 0 1525.500 1720.280 85.331 153.839 o
17 17 1 63.614 35.206 70.321 573.832 o
17 17 2 10079.500 9475.720 253.014 16.868 o
17 17 3 2070.830 1975.080 84.530 128.852 o
17 17 4 26.397 -1.798 96.330 325.468 o
17 17 5 2324.670 2642.320 113.335 92.477 o
17 17 6 2363.600 2515.390 115.724 91.395 o
17 17 7 5789.290 6384.480 215.571 28.732 o
17 17 8 2366.800 2189.300 128.643 85.877 o
17 17 9 3513.340 3792.490 180.534 47.333 o
17 18 0 5145.000 5050.240 112.132 49.580 o
17 18 1 2415.970 2592.510 90.977 105.720 o
17 18 2 4717.990 4870.870 122.914 50.867 o
17 18 3 4523.350 4643.520 113.494 55.095 o
17 18 4 950.471 946.709 114.101 151.107 o
17 18 5 6521.320 6424.740 173.035 31.689 o
17 18 6 1207.370 1337.260 99.767 155.610 o
17 18 7 2268.940 2545.600 118.894 90.739 o
17 18 8 558.534 781.917 125.303 149.819 o
17 19 0 4233.770 4297.290 116.090 58.146 o
17 19 1 1952.980 1914.220 88.289 130.208 o
17 19 2 17605.000 17685.400 241.167 9.190 o
17 19 3 7392.740 7368.400 145.018 30.598 o
17 19 4 3144.080 3274.960 109.430 77.117 o
17 19 5 4682.910 4506.930 136.237 49.418 o
17 19 6 433.158 408.406 101.675 227.230 o
17 19 7 996.507 955.466 114.027 149.227 o
17 19 8 1196.990 1329.160 150.367 94.926 o
17 20 0 36387.800 36131.100 384.712 2.950 o
17 20 1 2614.230 2657.680 96.543 97.248 o
17 20 2 5985.000 6210.980 162.560 35.009 o
17 20 3 882.221 844.593 95.362 195.058 o
17 20 4 3781.920 3674.180 123.638 62.652 o
17 20 5 3076.560 3046.760 120.627 74.588 o
17 20 6 1677.650 1827.860 121.025 107.537 o
17 20 7 430.481 371.593 126.817 160.188 o
17 21 0 8818.160 8681.630 202.346 21.768 o
17 21 1 2252.200 2261.410 125.014 89.415 o
17 21 2 10233.100 10240.800 171.387 20.030 o
17 21 3 3187.680 3217.420 121.400 71.927 o
17 21 4 8522.870 8392.770 230.563 20.639 o
17 21 5 195.554 43.706 109.003 236.735 o
17 21 6 680.923 646.779 156.335 103.921 o
17 21 7 505.571 259.456 145.608 125.846 o
17 22 0 7123.460 7031.620 140.074 32.384 o
17 22 1 6218.520 6289.170 203.394 29.223 o
17 22 2 5023.330 5567.030 143.524 43.194 o
17 22 3 6961.530 6877.100 173.988 29.730 o
17 22 4 844.676 877.123 124.920 138.571 o
17 22 5 256.806 81.058 124.350 181.103 o
17 22 6 1913.390 1841.420 154.656 78.138 o
17 23 0 2185.010 2206.510 135.924 83.877 o
17 23 1 21045.800 20612.900 454.773 5.415 o
17 23 2 592.169 655.568 148.633 114.779 o
17 23 3 1832.120 1841.580 123.059 102.321 o
17 23 4 3590.100 3186.760 176.861 49.557 o
17 23 5 2315.370 2049.100 149.152 75.424 o
17 23 6 1298.990 870.679 203.360 60.875 o
17 24 0 198.751 424.906 135.912 149.517 o
17 24 1 7667.850 7465.440 338.712 15.552 o
17 24 2 2174.650 2068.280 153.467 74.513 o
17 24 3 6499.330 5948.790 268.073 22.473 o
17 24 4 1745.600 1546.110 162.434 76.961 o
17 24 5 18.435 -189.784 181.268 92.919 o
17 25 0 108.624 52.839 140.766 149.590 o
17 25 1 5408.420 5386.800 231.668 28.785 o
17 25 2 3365.670 3283.200 190.468 46.703 o
17 25 3 2391.500 2154.380 208.047 49.038 o
17 25 4 3281.970 2802.550 198.060 46.186 o
17 26 0 20523.000 19698.900 383.364 6.273 o
17 26 1 643.290 320.486 162.554 100.688 o
17 26 2 2933.230 2826.920 177.667 54.312 o
17 26 3 321.660 436.032 177.595 89.557 o
17 27 0 42.715 290.937 214.313 65.360 o
17 27 1 2312.750 3993.550 888.947 3.757 o
18 0 0 55549.600 55626.000 1028.610 1.044 o
18 0 1 21.140 -1.340 51.609 1107.300 o
18 0 2 15487.800 15627.000 325.931 9.196 o
18 0 3 166.194 267.399 59.646 610.910 o
18 0 4 8245.390 8986.570 194.378 22.991 o
18 0 5 2436.250 2633.310 88.358 106.495 o
18 0 6 1389.110 1597.020 79.983 171.252 o
18 0 7 164.244 169.671 76.647 432.438 o
18 0 8 963.464 831.607 86.662 210.966 o
18 0 9 10512.500 10745.200 259.336 15.557 o
18 0 10 24.441 48.287 107.542 259.473 o
18 0 11 13212.200 12739.400 592.905 5.814 o
18 1 0 9355.340 9858.080 202.842 20.039 o
18 1 1 7174.340 7145.360 133.958 32.616 o
18 1 2 25752.600 26397.800 375.835 4.713 o
18 1 3 1351.490 1548.050 74.357 183.819 o
18 1 4 23050.500 22990.200 391.492 5.354 o
18 1 5 1356.570 1227.560 76.507 190.130 o
18 1 6 518.792 481.824 72.168 341.504 o
18 1 7 2382.830 2613.910 90.898 106.297 o
18 1 8 1597.900 1731.760 111.166 120.382 o
18 1 9 452.510 362.749 111.538 196.772 o
18 1 10 2463.440 2321.480 176.686 59.629 o
18 1 11 8798.450 8016.260 372.665 13.030 o
18 2 0 12097.000 12798.900 163.737 16.294 o
18 2 1 10718.000 10213.400 140.969 20.586 o
18 2 2 4192.960 4268.750 100.992 62.528 o
18 2 3 10895.200 10880.900 169.864 18.710 o
18 2 4 2906.400 2992.370 81.347 96.304 o
18 2 5 5248.280 5031.660 159.075 40.691 o
18 2 6 2483.840 2514.310 93.177 103.615 o
18 2 7 2729.400 2595.930 85.249 102.139 o
18 2 8 4069.140 4024.420 113.393 61.480 o
18 2 9 7459.620 7326.990 150.818 29.953 o
18 2 10 732.371 438.331 149.820 112.594 o
18 2 11 1421.120 1137.480 223.115 50.905 o
18 3 0 1956.180 2270.290 65.644 144.929 o
18 3 1 17238.100 17075.800 234.636 9.586 o
18 3 2 1606.510 1579.540 62.319 184.823 o
18 3 3 5105.160 4939.500 103.153 51.844 o
18 3 4 1970.460 1932.060 76.157 141.237 o
18 3 5 4445.150 4678.850 131.922 51.345 o
18 3 6 1021.120 997.154 81.670 212.170 o
18 3 7 3217.240 3297.200 98.766 80.450 o
18 3 8 971.675 899.474 104.214 169.248 o
18 3 9 299.073 230.687 103.658 239.848 o
18 3 10 7945.240 8210.610 235.929 21.242 o
18 3 11 2257.430 2575.120 200.667 51.116 o
18 4 0 255.287 387.360 48.460 674.523 o
18 4 1 5905.260 5421.910 94.460 46.461 o
18 4 2 192.950 207.122 50.459 768.602 o
18 4 3 14803.600 15418.400 237.321 11.273 o
18 4 4 3574.460 3600.720 99.754 73.256 o
18 4 5 4281.460 4465.270 117.526 56.718 o
18 4 6 145.813 246.068 77.695 417.204 o
18 4 7 129.474 280.123 80.552 392.818 o
18 4 8 1075.150 957.682 96.267 177.856 o
18 4 9 80.332 78.986 118.365 209.874 o
18 4 10 606.408 541.593 154.201 108.801 o
18 5 0 32108.600 31896.700 348.109 3.639 o
18 5 1 8504.670 8775.480 126.281 27.119 o
18 5 2 1524.680 1535.320 69.150 181.562 o
18 5 3 2469.660 2272.900 77.847 117.437 o
18 5 4 7872.760 7942.280 115.158 30.711 o
18 5 5 5769.140 5893.340 128.502 41.190 o
18 5 6 1069.620 1064.430 95.851 176.005 o
18 5 7 1673.940 1909.700 91.121 137.015 o
18 5 8 1772.320 1719.120 98.906 128.408 o
18 5 9 323.029 334.930 120.801 180.186 o
18 5 10 6938.180 6601.650 186.838 28.845 o
18 6 0 512.387 561.328 50.180 475.019 o
18 6 1 5009.080 4605.680 93.895 55.524 o
18 6 2 15200.300 15167.300 205.187 11.718 o
18 6 3 6269.960 6469.500 146.493 35.558 o
18 6 4 103.263 41.062 58.068 771.657 o
18 6 5 6534.170 6663.110 143.657 34.598 o
18 6 6 361.251 485.626 78.733 334.002 o
18 6 7 4062.300 4145.630 110.151 61.888 o
18 6 8 6160.740 6531.440 183.418 31.370 o
18 6 9 660.370 644.604 130.495 139.570 o
18 6 10 1288.700 1049.900 148.925 97.027 o
18 7 0 146.924 -21.467 54.735 826.663 o
18 7 1 4778.630 5076.390 169.685 40.736 o
18 7 2 3824.730 3914.950 97.576 69.147 o
18 7 3 5314.040 4978.560 116.150 48.031 o
18 7 4 2583.320 2682.150 90.234 101.433 o
18 7 5 10526.600 10727.300 182.308 18.801 o
18 7 6 6104.730 5948.200 130.775 39.238 o
18 7 7 3292.110 3255.710 117.987 71.879 o
18 7 8 1752.270 1717.240 109.004 118.582 o
18 7 9 778.705 867.287 131.434 130.908 o
18 7 10 4377.320 4464.200 328.404 20.583 o
18 8 0 232.191 218.841 54.984 653.859 o
18 8 1 9371.810 9784.400 202.514 20.085 o
18 8 2 5263.320 5252.420 131.325 44.893 o
18 8 3 7672.720 7886.040 149.065 28.768 o
18 8 4 1344.380 1390.320 66.960 202.449 o
18 8 5 13.278 34.910 73.281 554.853 o
18 8 6 5132.890 5091.350 125.835 47.044 o
18 8 7 9497.890 9589.440 231.946 18.496 o
18 8 8 4073.650 4272.610 138.211 53.718 o
18 8 9 3663.700 3707.770 145.368 56.709 o
18 8 10 2256.610 2531.400 185.723 56.720 o
18 9 0 4996.510 4768.020 107.597 52.385 o
18 9 1 10090.300 10212.900 146.950 21.364 o
18 9 2 14581.700 14458.200 175.560 12.966 o
18 9 3 4779.190 4899.640 109.142 53.167 o
18 9 4 12715.200 12839.500 187.716 14.972 o
18 9 5 8742.750 8628.320 174.723 23.702 o
18 9 6 3103.020 3245.120 108.947 78.073 o
18 9 7 2316.980 2439.800 110.310 96.451 o
18 9 8 1918.030 2083.240 109.337 109.453 o
18 9 9 5815.460 5835.590 201.162 31.104 o
18 9 10 1525.010 1831.190 166.759 75.132 o
18 10 0 50698.300 51999.200 665.365 1.487 o
18 10 1 6043.760 6114.190 156.812 35.723 o
18 10 2 7764.260 8282.870 186.952 25.097 o
18 10 3 697.970 674.304 74.636 284.805 o
18 10 4 11899.900 11813.800 175.576 16.702 o
18 10 5 73.637 -30.264 85.192 402.225 o
18 10 6 8637.690 8610.950 170.513 24.193 o
18 10 7 664.165 608.958 85.452 252.290 o
18 10 8 1234.650 1328.760 106.948 143.818 o
18 10 9 3060.340 3353.770 145.162 63.130 o
18 10 10 2633.700 2807.260 181.508 54.946 o
18 11 0 9924.500 9903.170 187.724 19.962 o
18 11 1 273.673 351.584 67.109 457.172 o
18 11 2 30118.900 30625.400 393.928 3.777 o
18 11 3 758.523 786.513 76.101 264.324 o
18 11 4 17682.700 17940.800 244.463 9.057 o
18 11 5 24.651 44.180 80.149 460.495 o
18 11 6 501.785 233.937 87.959 284.050 o
18 11 7 1395.850 1517.850 93.805 152.375 o
18 11 8 1751.390 1787.410 99.879 126.962 o
18 11 9 2718.150 2882.240 138.974 71.395 o
18 11 10 1089.990 1165.140 173.480 79.127 o
18 12 0 23686.000 24105.400 288.971 5.825 o
18 12 1 2390.630 2256.100 83.475 115.848 o
18 12 2 21512.500 21576.800 321.670 6.386 o
18 12 3 4607.900 4676.020 116.046 53.776 o
18 12 4 661.353 733.320 84.412 249.568 o
18 12 5 475.734 403.354 92.938 255.648 o
18 12 6 3836.800 3770.430 138.224 57.304 o
18 12 7 1979.580 2140.280 94.180 120.381 o
18 12 8 936.249 926.563 112.835 154.290 o
18 12 9 7123.760 6604.540 275.386 20.577 o
18 13 0 9459.380 9708.920 175.500 21.446 o
18 13 1 6789.260 6864.900 147.006 33.033 o
18 13 2 1631.750 1712.940 89.172 144.631 o
18 13 3 3444.040 3670.850 104.086 72.887 o
18 13 4 10894.800 10856.500 171.164 18.676 o
18 13 5 695.344 727.456 102.110 194.617 o
18 13 6 2561.390 2523.700 104.156 94.963 o
18 13 7 100.327 -81.682 86.646 383.167 o
18 13 8 571.190 738.755 114.157 172.777 o
18 13 9 780.047 674.573 122.261 148.920 o
18 14 0 325.944 361.399 70.215 413.251 o
18 14 1 1983.870 1966.870 88.639 127.993 o
18 14 2 620.918 683.560 73.255 301.091 o
18 14 3 8323.680 8257.760 152.671 26.441 o
18 14 4 5569.470 5305.980 117.775 45.321 o
18 14 5 6237.360 6411.550 172.166 32.660 o
18 14 6 697.459 527.400 96.358 217.453 o
18 14 7 3734.800 4083.030 141.651 55.890 o
18 14 8 1310.940 1533.510 123.452 117.319 o
18 14 9 250.250 99.128 136.274 152.886 o
18 15 0 3321.960 3198.880 95.016 81.187 o
18 15 1 10160.300 10157.700 151.827 21.080 o
18 15 2 1434.670 1457.230 85.214 164.575 o
18 15 3 4415.550 4495.850 115.534 56.025 o
18 15 4 1200.740 1118.650 98.575 162.899 o
18 15 5 127.383 372.743 107.352 234.658 o
18 15 6 5820.990 5761.260 137.037 40.034 o
18 15 7 1317.220 1621.310 103.818 139.681 o
18 15 8 9430.550 9298.780 221.094 19.339 o
18 15 9 7577.780 7906.830 202.681 24.598 o
18 16 0 3672.240 3682.130 105.950 69.503 o
18 16 1 5650.000 5581.520 131.593 42.046 o
18 16 2 8777.460 8496.110 157.226 24.883 o
18 16 3 5920.500 5530.470 124.751 41.869 o
18 16 4 3035.970 3043.900 119.598 75.564 o
18 16 5 6729.630 6741.840 152.000 32.894 o
18 16 6 1603.380 1678.540 116.273 115.658 o
18 16 7 11681.600 11845.000 232.482 15.005 o
18 16 8 3155.390 3726.170 153.666 57.803 o
18 17 0 1303.600 1712.920 85.013 165.041 o
18 17 1 4248.120 4089.830 113.293 59.629 o
18 17 2 1103.600 1106.100 106.622 154.035 o
18 17 3 9112.280 9213.270 178.719 22.264 o
18 17 4 4862.490 4588.830 134.565 48.431 o
18 17 5 11399.300 11379.600 247.441 14.937 o
18 17 6 4334.360 4253.850 160.018 46.831 o
18 17 7 110.858 288.594 111.356 224.532 o
18 17 8 2380.070 2461.020 145.583 74.250 o
18 18 0 6445.500 6217.450 137.762 36.423 o
18 18 1 2097.140 2124.350 99.089 113.182 o
18 18 2 3501.600 3314.440 135.702 62.812 o
18 18 3 6966.730 6553.580 142.898 33.390 o
18 18 4 2452.070 2473.840 108.301 94.891 o
18 18 5 1405.350 1487.470 129.254 109.467 o
18 18 6 423.907 453.808 143.639 128.440 o
18 18 7 11344.600 10547.800 348.449 11.796 o
18 18 8 6981.700 4229.210 1003.760 2.865 o
18 19 0 2296.280 2247.530 89.837 113.758 o
18 19 1 5269.420 5246.470 124.035 46.135 o
18 19 2 2506.700 2515.820 115.138 89.329 o
18 19 3 6264.690 6329.060 151.922 35.168 o
18 19 4 3857.450 4050.190 125.995 59.611 o
18 19 5 7830.120 7989.670 228.175 22.136 o
18 19 6 6941.980 6775.040 174.318 29.885 o
18 19 7 191.532 71.270 154.457 122.677 o
18 20 0 3462.110 3455.600 116.710 69.322 o
18 20 1 3606.100 3846.420 133.166 60.419 o
18 20 2 4410.590 4493.190 146.815 48.746 o
18 20 3 554.434 516.878 100.764 215.869 o
18 20 4 2968.870 2888.050 124.098 75.328 o
18 20 5 2391.870 2320.200 140.550 77.657 o
18 20 6 523.686 511.518 136.296 136.462 o
18 20 7 3045.160 3014.960 252.235 34.092 o
18 21 0 1962.290 1938.110 104.280 114.578 o
18 21 1 3202.980 3013.510 123.214 72.174 o
18 21 2 9039.660 8663.590 274.269 17.283 o
18 21 3 357.308 581.425 107.733 206.917 o
18 21 4 2298.520 2505.960 155.948 69.602 o
18 21 5 108.356 10.345 118.474 209.940 o
18 21 6 827.527 636.452 171.889 86.712 o
18 22 0 9486.350 9339.560 241.516 18.161 o
18 22 1 1471.140 1384.430 111.938 128.247 o
18 22 2 2204.290 2348.430 181.092 59.587 o
18 22 3 5115.610 5322.730 221.483 30.895 o
18 22 4 3174.510 3068.420 164.490 56.395 o
18 22 5 1900.320 1934.890 202.927 54.048 o
18 23 0 16723.800 16240.700 436.518 6.952 o
18 23 1 5151.670 4906.530 191.575 35.868 o
18 23 2 1636.850 1306.880 152.329 86.793 o
18 23 3 1365.510 1177.390 178.574 72.809 o
18 23 4 4039.960 3650.050 204.291 39.713 o
18 23 5 3515.260 3891.820 244.530 33.187 o
18 24 0 664.891 499.579 127.683 146.789 o
18 24 1 2565.970 2220.030 165.628 63.934 o
18 24 2 5414.810 4976.330 370.753 16.239 o
18 24 3 2481.520 2147.700 146.294 74.504 o
18 24 4 785.359 622.105 165.845 92.757 o
18 25 0 628.995 709.436 151.815 109.496 o
18 25 1 544.208 751.168 149.185 114.079 o
18 25 2 644.128 702.356 145.742 116.793 o
19 0 1 457.045 459.542 63.868 410.130 o
19 0 2 3350.310 3023.330 102.513 78.940 o
19 0 3 14.243 -104.762 69.060 632.839 o
19 0 4 10.170 70.277 70.728 586.501 o
19 0 5 3095.470 3233.950 94.536 84.592 o
19 0 6 23.862 55.082 78.140 481.922 o
19 0 7 7497.490 6928.470 154.426 30.078 o
19 0 8 1471.730 1681.580 94.957 144.318 o
19 0 9 607.617 631.068 118.906 163.403 o
19 0 10 5631.810 5748.840 245.370 26.334 o
19 1 0 10596.300 9782.690 194.171 18.817 o
19 1 1 1276.950 1427.890 67.505 205.176 o
19 1 2 4078.360 4466.660 140.177 52.516 o
19 1 3 2560.790 2648.830 94.024 99.956 o
19 1 4 3330.570 3274.960 104.963 76.500 o
19 1 5 1868.740 2187.570 102.605 115.261 o
19 1 6 5904.580 5783.810 130.887 40.479 o
19 1 7 1177.390 1315.640 95.607 164.295 o
19 1 8 2766.480 2827.050 104.125 88.624 o
19 1 9 9595.710 9478.000 306.612 14.848 o
19 1 10 49.344 13.686 126.932 186.881 o
19 2 0 11097.300 10312.800 200.179 17.606 o
19 2 1 2906.580 2846.170 86.412 95.208 o
19 2 2 1789.700 2003.800 70.323 153.440 o
19 2 3 105.049 187.339 54.462 779.977 o
19 2 4 16018.800 15560.600 311.320 9.250 o
19 2 5 480.742 568.251 78.140 309.588 o
19 2 6 2445.160 2716.240 110.044 91.738 o
19 2 7 8801.060 8951.180 215.189 20.794 o
19 2 8 1398.710 1385.210 107.176 136.559 o
19 2 9 4086.510 4246.790 174.512 44.795 o
19 2 10 837.532 585.794 192.957 71.343 o
19 3 0 2208.320 2370.610 71.772 128.482 o
19 3 1 222.516 204.262 54.610 671.727 o
19 3 2 1988.940 1997.970 67.133 147.943 o
19 3 3 3923.200 3934.750 103.658 66.143 o
19 3 4 1783.180 1711.080 80.047 149.289 o
19 3 5 5340.970 5195.190 113.949 47.589 o
19 3 6 8149.000 8220.350 206.708 22.973 o
19 3 7 1404.250 1443.190 106.105 136.757 o
19 3 8 629.886 681.348 108.574 184.081 o
19 3 9 7169.570 7289.710 290.377 19.030 o
19 3 10 199.452 189.150 167.511 103.828 o
19 4 0 2778.200 2715.950 74.245 105.832 o
19 4 1 9458.680 9202.550 175.400 21.872 o
19 4 2 3386.810 3301.880 80.923 84.966 o
19 4 3 1239.330 1372.720 82.031 183.023 o
19 4 4 2944.590 3140.460 89.532 90.209 o
19 4 5 13875.100 14035.200 229.143 12.491 o
19 4 6 1807.020 2031.180 92.039 129.375 o
19 4 7 11193.400 11770.800 188.749 17.081 o
19 4 8 4699.960 4911.150 149.017 45.490 o
19 4 9 551.248 530.151 144.005 123.524 o
19 4 10 7512.950 7538.930 298.895 17.974 o
19 5 0 1052.200 716.571 64.163 271.265 o
19 5 1 9462.650 9769.610 127.016 23.834 o
19 5 2 4101.930 4250.780 114.606 59.850 o
19 5 3 20602.200 20676.700 291.504 7.019 o
19 5 4 393.522 494.270 65.749 409.583 o
19 5 5 12029.800 11958.400 190.457 16.008 o
19 5 6 1658.870 1792.830 89.520 141.589 o
19 5 7 6512.240 6642.990 155.906 33.324 o
19 5 8 16169.100 16363.200 288.472 9.404 o
19 5 9 3252.380 3219.290 167.370 54.390 o
19 5 10 658.239 472.462 185.255 78.966 o
19 6 0 6226.490 6336.780 102.546 41.267 o
19 6 1 15345.200 15291.500 204.019 11.606 o
19 6 2 4068.730 4202.400 101.276 63.982 o
19 6 3 7113.730 7298.790 129.607 32.966 o
19 6 4 5162.760 5108.470 144.668 43.437 o
19 6 5 18738.800 18768.800 295.222 7.859 o
19 6 6 2653.430 2820.840 118.224 82.920 o
19 6 7 14076.600 14906.800 236.002 11.909 o
19 6 8 10389.600 11013.100 248.622 15.988 o
19 6 9 482.374 634.090 139.832 130.202 o
19 6 10 14662.900 14094.900 553.269 6.003 o
19 7 0 7982.160 7761.880 142.546 28.630 o
19 7 1 6909.370 6834.790 139.550 33.457 o
19 7 2 2205.650 2085.490 71.538 133.717 o
19 7 3 15655.200 16203.700 234.753 10.610 o
19 7 4 2380.330 2547.450 86.175 110.370 o
19 7 5 13638.000 13778.800 234.909 12.609 o
19 7 6 18494.500 18696.900 333.312 7.489 o
19 7 7 1005.260 1210.360 97.702 171.997 o
19 7 8 9180.810 9549.670 263.728 17.234 o
19 7 9 12376.900 12712.800 351.343 10.647 o
19 7 10 77.861 152.375 167.812 105.918 o
19 8 0 138.086 109.664 69.555 530.701 o
19 8 1 9949.430 9803.470 169.902 20.867 o
19 8 2 7901.020 8000.160 142.533 28.531 o
19 8 3 19.048 -1.282 60.357 819.809 o
19 8 4 22645.600 22998.600 305.480 6.073 o
19 8 5 3696.880 3885.990 99.816 70.071 o
19 8 6 1345.410 1540.760 124.375 115.353 o
19 8 7 16313.200 16149.700 286.210 9.425 o
19 8 8 4641.960 4772.340 135.878 48.933 o
19 8 9 5468.890 5742.880 242.824 26.944 o
19 9 0 5364.500 5140.180 101.240 49.728 o
19 9 1 13151.200 13594.700 180.758 14.403 o
19 9 2 3633.560 3775.160 97.398 72.264 o
19 9 3 789.791 729.529 70.810 282.956 o
19 9 4 13421.500 12974.800 211.905 13.651 o
19 9 5 1178.340 1311.110 104.267 150.383 o
19 9 6 17903.500 17634.400 370.583 7.347 o
19 9 7 1627.590 1530.120 103.300 131.220 o
19 9 8 90.086 198.940 113.430 222.149 o
19 9 9 7497.490 7795.520 205.882 24.599 o
19 10 0 6147.870 5725.380 103.806 43.054 o
19 10 1 8775.220 8752.920 163.296 24.243 o
19 10 2 9606.750 9764.350 219.747 18.881 o
19 10 3 4216.480 4301.940 96.534 63.278 o
19 10 4 11017.500 11255.800 143.880 19.239 o
19 10 5 567.259 699.697 88.490 246.971 o
19 10 6 2648.780 2847.320 111.411 86.453 o
19 10 7 5010.860 5321.210 129.022 46.504 o
19 10 8 3857.940 3951.240 187.113 43.649 o
19 10 9 2609.290 2672.480 144.657 71.027 o
19 11 0 8196.750 8130.080 159.564 26.387 o
19 11 1 8835.450 9020.530 171.670 23.351 o
19 11 2 16498.400 16752.700 243.976 9.881 o
19 11 3 8223.240 8320.860 144.395 27.181 o
19 11 4 2373.760 2591.740 97.322 102.451 o
19 11 5 1209.850 1235.030 97.740 161.106 o
19 11 6 8242.790 8440.970 185.024 24.141 o
19 11 7 513.142 416.429 103.662 213.982 o
19 11 8 3088.210 3293.160 139.120 65.471 o
19 11 9 1753.600 1386.560 151.179 85.443 o
19 12 0 39486.600 40181.500 435.316 2.493 o
19 12 1 1763.800 1900.460 101.095 123.618 o
19 12 2 2184.280 2292.690 89.737 116.236 o
19 12 3 2689.290 2812.260 90.087 97.920 o
19 12 4 10494.500 10364.000 209.606 17.895 o
19 12 5 8242.990 8392.640 176.611 24.782 o
19 12 6 5.835 8.974 93.329 349.481 o
19 12 7 929.757 946.383 103.878 170.846 o
19 12 8 2413.150 2405.740 118.003 90.053 o
19 12 9 313.377 322.969 171.865 96.097 o
19 13 0 3318.720 3396.640 120.267 69.890 o
19 13 1 4000.930 3873.730 111.227 63.442 o
19 13 2 18878.900 18932.100 357.762 7.052 o
19 13 3 1293.280 1338.070 87.236 171.860 o
19 13 4 1444.670 1509.940 94.934 148.897 o
19 13 5 1343.290 1449.560 107.616 136.787 o
19 13 6 2002.980 1788.600 106.227 113.706 o
19 13 7 1391.290 1196.960 118.381 125.612 o
19 13 8 370.586 292.797 125.814 166.752 o
19 14 0 6772.070 6435.020 141.769 34.375 o
19 14 1 3246.230 3284.760 102.133 78.728 o
19 14 2 5216.880 5013.810 117.967 48.195 o
19 14 3 2800.200 3136.860 107.074 84.079 o
19 14 4 12408.100 12381.300 219.413 14.542 o
19 14 5 1076.390 1315.130 114.451 138.959 o
19 14 6 329.075 451.303 118.494 182.663 o
19 14 7 4730.260 4721.770 145.935 46.464 o
19 14 8 3173.330 3477.220 156.961 57.489 o
19 15 0 2256.340 2209.430 92.374 113.357 o
19 15 1 11461.800 11718.100 251.887 14.580 o
19 15 2 1379.940 1337.530 88.022 166.039 o
19 15 3 5935.110 5849.100 138.136 39.190 o
19 15 4 4426.320 4336.800 135.438 51.785 o
19 15 5 3867.190 4333.370 177.168 45.036 o
19 15 6 6045.600 5969.850 179.613 33.002 o
19 15 7 1544.790 1812.700 162.142 77.919 o
19 15 8 4915.370 5128.180 165.424 40.811 o
19 16 0 2129.690 2658.190 100.208 105.115 o
19 16 1 7215.180 7186.420 170.339 29.016 o
19 16 2 1725.700 1588.130 97.594 133.543 o
19 16 3 5581.880 5891.030 125.927 42.473 o
19 16 4 110.481 365.393 115.687 206.790 o
19 16 5 6028.520 6619.450 178.477 32.216 o
19 16 6 2730.010 2998.700 172.626 56.876 o
19 16 7 1811.950 1909.960 171.985 68.890 o
19 17 0 34.137 -78.439 79.320 474.249 o
19 17 1 1343.100 1455.070 102.858 143.097 o
19 17 2 1673.280 1814.360 100.644 128.171 o
19 17 3 6115.390 6012.490 133.407 38.710 o
19 17 4 11.227 1.670 116.733 223.712 o
19 17 5 1812.330 2141.850 139.663 87.315 o
19 17 6 3066.240 3297.470 160.286 57.803 o
19 17 7 1336.130 1248.240 145.845 97.302 o
19 18 0 398.205 481.179 88.818 277.534 o
19 18 1 2509.260 2473.720 125.295 83.655 o
19 18 2 4733.730 4792.310 132.292 49.066 o
19 18 3 238.150 237.537 98.704 266.744 o
19 18 4 8199.190 8248.680 213.923 22.356 o
19 18 5 3124.830 3193.710 155.141 59.578 o
19 18 6 700.941 996.348 163.382 93.521 o
19 18 7 5817.010 6156.910 214.638 29.042 o
19 19 0 2407.940 2104.770 114.063 95.362 o
19 19 1 3814.890 3824.420 124.868 61.293 o
19 19 2 2356.820 2527.050 122.304 87.327 o
19 19 3 1937.580 1955.770 119.883 101.637 o
19 19 4 6995.160 6870.410 204.042 26.711 o
19 19 5 998.175 1201.540 157.429 92.840 o
19 19 6 6103.640 6040.300 190.478 31.370 o
19 20 0 19.387 68.510 111.379 241.764 o
19 20 1 3564.160 3815.630 156.030 53.828 o
19 20 2 8460.030 8450.620 225.517 21.014 o
19 20 3 2675.980 2918.810 150.774 66.347 o
19 20 4 2664.870 2485.440 189.892 52.791 o
19 20 5 361.453 311.859 191.314 78.230 o
19 20 6 2234.520 2027.160 325.093 24.796 o
19 21 0 3298.980 3570.210 171.537 51.688 o
19 21 1 5458.430 5574.020 179.109 35.619 o
19 21 2 5581.140 5623.760 161.581 37.700 o
19 21 3 4102.480 3807.500 215.524 36.957 o
19 21 4 3784.990 3724.430 228.231 35.652 o
19 21 5 2265.280 2054.180 187.934 57.364 o
19 22 0 21899.300 19113.800 861.847 2.775 o
19 22 1 1091.990 1371.350 166.443 83.016 o
19 22 2 4145.600 4068.600 151.202 50.579 o
19 22 3 1724.340 1591.500 140.168 92.632 o
19 22 4 4261.840 4005.550 195.856 39.938 o
19 23 0 5.392 -66.579 128.347 185.548 o
19 23 1 722.239 585.345 133.802 133.241 o
19 23 2 16772.000 16902.700 387.611 7.542 o
19 23 3 2711.790 3168.610 169.995 57.368 o
19 24 0 20843.000 20140.800 563.598 4.581 o
19 24 1 713.919 967.860 188.560 73.610 o
19 24 2 2557.030 2382.460 866.049 3.971 o
20 0 0 14201.500 13392.700 240.150 12.230 o
20 0 1 4126.860 4331.720 99.508 63.246 o
20 0 2 4.047 -60.782 74.228 553.662 o
20 0 3 20653.100 20991.200 282.104 7.046 o
20 0 4 200.790 142.722 74.702 443.814 o
20 0 5 10180.400 9915.610 185.714 19.683 o
20 0 6 1579.820 1726.200 117.360 114.553 o
20 0 7 58.735 -29.100 92.731 344.720 o
20 0 8 10621.300 10883.600 254.482 15.591 o
20 0 9 1094.880 1287.310 125.571 123.815 o
20 1 0 508.870 686.440 74.920 311.030 o
20 1 1 15259.600 15079.600 265.166 10.568 o
20 1 2 11890.400 11968.200 223.818 15.051 o
20 1 3 177.942 98.960 71.808 489.418 o
20 1 4 3171.690 3292.350 97.176 81.825 o
20 1 5 9155.970 8888.770 151.191 24.074 o
20 1 6 5002.120 5058.960 127.705 47.558 o
20 1 7 3459.390 3469.530 122.410 67.203 o
20 1 8 3199.130 3135.960 151.981 60.355 o
20 1 9 1860.340 1879.830 139.553 88.650 o
20 2 0 16346.500 15707.800 248.165 10.149 o
20 2 1 8501.920 8188.020 140.270 26.950 o
20 2 2 6597.780 6586.880 141.006 34.805 o
20 2 3 7861.150 8242.110 193.608 24.439 o
20 2 4 8060.870 7718.040 232.301 21.691 o
20 2 5 3140.020 3238.310 130.352 68.699 o
20 2 6 4712.490 4516.380 124.734 51.702 o
20 2 7 3921.690 4305.050 138.733 54.540 o
20 2 8 6202.260 6113.720 153.933 35.524 o
20 2 9 5693.430 6459.400 199.344 30.824 o
20 3 0 40.601 43.057 59.814 789.889 o
20 3 1 1259.110 1308.880 80.557 186.450 o
20 3 2 6424.290 6417.310 118.834 38.320 o
20 3 3 95.890 48.757 68.883 575.096 o
20 3 4 14775.100 15125.100 269.283 10.732 o
20 3 5 1547.510 1779.070 91.410 143.911 o
20 3 6 3191.630 3052.580 115.203 75.474 o
20 3 7 4490.800 4583.160 193.967 38.350 o
20 3 8 2589.620 2431.080 162.388 64.256 o
20 3 9 1946.750 1763.190 158.066 76.133 o
20 4 0 9263.100 8970.500 161.043 23.226 o
20 4 1 1494.640 1515.840 73.290 177.756 o
20 4 2 7087.310 6721.090 114.678 35.477 o
20 4 3 3965.310 3922.700 102.601 66.079 o
20 4 4 390.711 339.616 72.188 384.651 o
20 4 5 771.135 578.277 105.399 186.454 o
20 4 6 7131.160 7216.310 182.827 28.017 o
20 4 7 3811.320 4161.000 130.982 58.086 o
20 4 8 3927.560 3873.340 185.841 43.806 o
20 4 9 10074.300 10523.100 431.313 9.898 o
20 5 0 3032.020 3288.470 84.096 89.830 o
20 5 1 5878.060 6221.600 144.069 37.842 o
20 5 2 371.152 289.760 71.879 398.027 o
20 5 3 1162.420 1147.290 82.510 194.358 o
20 5 4 4307.500 4132.440 112.185 59.222 o
20 5 5 6494.050 7165.490 191.685 28.747 o
20 5 6 6585.540 6725.020 157.350 32.796 o
20 5 7 595.058 740.587 133.553 135.150 o
20 5 8 407.372 510.019 111.395 195.362 o
20 5 9 1251.590 987.269 187.467 69.359 o
20 6 0 2530.900 2641.810 93.260 101.137 o
20 6 1 1775.630 1756.090 78.825 150.064 o
20 6 2 444.286 334.253 83.942 304.610 o
20 6 3 11967.300 11734.400 222.185 15.142 o
20 6 4 5277.700 5025.450 116.052 48.127 o
20 6 5 12384.200 12687.100 206.745 14.807 o
20 6 6 6710.860 6622.300 140.654 34.383 o
20 6 7 4582.490 4826.870 147.749 46.611 o
20 6 8 4768.830 5042.230 192.385 36.813 o
20 6 9 2063.400 2326.900 162.550 69.471 o
20 7 0 873.124 966.356 73.850 248.257 o
20 7 1 3255.270 3487.540 111.262 73.602 o
20 7 2 7714.070 7770.800 177.586 26.488 o
20 7 3 4449.300 4720.580 167.285 43.488 o
20 7 4 7869.050 8057.420 180.891 25.581 o
20 7 5 1537.060 1664.650 121.351 112.342 o
20 7 6 2258.660 2352.500 105.651 101.722 o
20 7 7 16552.500 17087.800 303.185 8.857 o
20 7 8 11447.700 11687.800 276.655 13.746 o
20 7 9 1628.620 1543.440 223.424 48.886 o
20 8 0 19623.100 19237.600 245.288 8.024 o
20 8 1 8.810 40.036 74.854 533.219 o
20 8 2 6021.590 5959.770 127.196 40.055 o
20 8 3 1954.440 1994.770 89.038 128.114 o
20 8 4 8015.220 8054.480 188.662 24.694 o
20 8 5 10238.900 10608.500 261.860 15.765 o
20 8 6 12631.500 12407.900 247.450 13.509 o
20 8 7 5842.850 5898.890 174.728 34.401 o
20 8 8 1271.010 1375.260 125.716 117.803 o
20 8 9 6467.640 6714.940 304.053 19.142 o
20 9 0 1885.970 1892.990 79.297 142.134 o
20 9 1 8539.260 8517.900 159.030 25.245 o
20 9 2 7133.920 7154.850 146.518 31.544 o
20 9 3 1122.340 1039.470 75.769 216.088 o
20 9 4 6905.540 6829.030 198.260 27.512 o
20 9 5 12864.400 12225.900 258.100 13.093 o
20 9 6 7994.930 8076.820 269.130 19.048 o
20 9 7 5336.430 5464.540 185.560 35.252 o
20 9 8 2535.730 2926.620 165.599 61.295 o
20 9 9 4913.930 4691.650 242.627 29.218 o
20 10 0 2317.600 2165.910 95.209 110.185 o
20 10 1 3625.920 3514.670 98.717 73.513 o
20 10 2 1702.430 1565.090 90.124 143.601 o
20 10 3 13254.200 13052.500 248.941 12.776 o
20 10 4 6279.030 6304.510 140.165 36.604 o
20 10 5 1768.670 1858.540 101.412 123.774 o
20 10 6 4135.830 4286.590 123.144 57.152 o
20 10 7 4577.550 4713.970 150.928 46.277 o
20 10 8 6053.820 5930.800 171.806 34.045 o
20 11 0 6748.720 7036.090 176.522 29.827 o
20 11 1 16760.900 16405.600 253.842 9.685 o
20 11 2 1861.440 2027.330 93.746 126.011 o
20 11 3 5386.570 5767.590 139.476 41.636 o
20 11 4 2623.570 2691.920 108.082 90.007 o
20 11 5 6624.860 6384.130 142.276 34.927 o
20 11 6 1183.280 1341.490 110.407 140.513 o
20 11 7 3412.570 3709.820 130.487 63.633 o
20 11 8 1755.060 1778.530 181.994 64.785 o
20 12 0 8991.570 9151.830 199.345 21.304 o
20 12 1 5234.890 5126.250 113.315 48.559 o
20 12 2 8720.070 8623.890 224.339 20.587 o
20 12 3 20559.100 19971.900 290.179 7.147 o
20 12 4 389.507 256.198 95.078 264.540 o
20 12 5 4489.590 4681.370 149.851 47.079 o
20 12 6 3113.990 2966.160 185.868 50.170 o
20 12 7 6442.050 6767.910 164.824 32.342 o
20 12 8 1024.580 880.847 155.240 96.994 o
20 13 0 6103.360 6010.530 174.474 33.415 o
20 13 1 1592.750 1529.580 96.117 141.114 o
20 13 2 4198.670 4426.610 155.272 48.208 o
20 13 3 1698.080 1694.350 102.645 127.108 o
20 13 4 8696.510 8500.980 216.969 21.174 o
20 13 5 8361.140 8536.950 213.860 21.867 o
20 13 6 1907.430 2167.350 134.848 89.020 o
20 13 7 3966.500 3411.700 248.127 32.047 o
20 13 8 823.121 1240.030 193.008 68.645 o
20 14 0 15924.100 15620.300 264.804 10.097 o
20 14 1 1802.830 1821.270 112.626 112.443 o
20 14 2 8318.300 8370.300 152.889 26.309 o
20 14 3 1061.710 1185.810 131.122 119.174 o
20 14 4 712.131 811.859 106.813 179.845 o
20 14 5 568.743 624.605 118.720 165.717 o
20 14 6 5169.440 5289.450 164.659 39.528 o
20 14 7 3540.900 3310.890 251.996 32.537 o
20 15 0 1216.710 1094.240 92.308 173.768 o
20 15 1 4567.000 4460.780 173.746 42.222 o
20 15 2 2758.120 2793.730 106.529 87.754 o
20 15 3 462.288 213.391 89.535 283.282 o
20 15 4 9983.750 9948.010 218.573 18.353 o
20 15 5 7669.060 7626.690 186.598 26.005 o
20 15 6 5374.510 5547.400 176.914 36.288 o
20 15 7 1574.210 1269.640 227.383 48.359 o
20 16 0 3856.780 3893.600 125.029 60.574 o
20 16 1 2142.100 2206.080 138.633 82.794 o
20 16 2 3778.440 3746.640 122.114 62.831 o
20 16 3 3493.040 3383.990 114.917 70.035 o
20 16 4 2742.070 2725.740 140.991 71.048 o
20 16 5 3550.910 3829.180 153.868 54.514 o
20 16 6 228.506 550.005 152.030 119.699 o
20 16 7 10529.500 10806.400 334.114 12.665 o
20 17 0 378.034 374.468 102.548 230.392 o
20 17 1 1240.880 1469.930 128.059 114.752 o
20 17 2 350.434 358.750 121.316 176.840 o
20 17 3 7576.800 7473.710 259.738 20.581 o
20 17 4 726.476 461.290 141.948 122.839 o
20 17 5 1334.810 1331.090 156.096 88.013 o
20 17 6 2149.970 2864.280 176.717 59.926 o
20 18 0 1128.220 1432.170 157.819 88.863 o
20 18 1 370.142 286.791 127.146 163.899 o
20 18 2 301.252 95.091 118.480 194.598 o
20 18 3 2614.210 2399.740 127.300 81.559 o
20 18 4 3831.640 3701.110 161.777 50.851 o
20 18 5 8384.440 8084.680 277.575 18.087 o
20 18 6 7284.550 7360.460 295.272 18.537 o
20 19 0 21.978 -132.343 107.526 262.389 o
20 19 1 4105.260 3786.780 145.214 53.319 o
20 19 2 4877.250 5152.460 280.087 24.318 o
20 19 3 3968.840 3672.440 200.292 40.799 o
20 19 4 637.607 476.692 155.158 107.693 o
20 19 5 4623.980 4569.800 236.070 30.952 o
20 20 0 863.053 865.756 150.595 104.719 o
20 20 1 1956.900 1983.340 133.474 90.670 o
20 20 2 1488.430 1424.290 140.269 98.031 o
20 20 3 3956.830 4028.410 217.220 36.746 o
20 20 4 10925.200 11053.100 413.191 9.976 o
20 21 0 420.168 474.411 138.412 136.705 o
20 21 1 1595.330 1442.810 121.239 113.725 o
20 21 2 1057.050 1170.910 205.917 60.226 o
20 21 3 601.746 475.583 189.044 76.720 o
20 22 0 172.896 435.024 136.767 148.572 o
20 22 1 432.834 506.475 145.876 124.136 o
20 22 2 2297.220 2025.070 196.649 53.872 o
21 0 1 9821.790 9518.500 231.510 18.172 o
21 0 2 8563.150 8626.720 253.712 18.997 o
21 0 3 4582.660 4605.820 115.009 54.450 o
21 0 4 572.898 742.329 86.344 251.757 o
21 0 5 2079.510 2196.860 95.427 115.742 o
21 0 6 47.107 12.337 111.518 241.208 o
21 0 7 3015.520 2904.850 131.413 71.400 o
21 0 8 2044.330 1708.430 125.673 97.370 o
21 0 9 12.572 27.492 173.009 101.846 o
21 1 0 13229.500 13956.200 262.544 12.136 o
21 1 1 1328.610 1488.750 88.152 164.608 o
21 1 2 747.996 988.470 80.959 238.732 o
21 1 3 8187.830 8238.080 149.760 26.987 o
21 1 4 7590.540 7504.110 146.322 29.731 o
21 1 5 2269.020 2350.600 105.863 101.373 o
21 1 6 1401.810 1690.210 134.610 102.255 o
21 1 7 7134.600 6776.580 211.325 25.836 o
21 1 8 7501.430 7561.970 287.931 18.680 o
21 1 9 154.584 -39.229 182.388 90.013 o
21 2 0 315.328 548.530 67.389 411.740 o
21 2 1 5813.570 5797.050 140.845 39.442 o
21 2 2 6386.790 6454.650 178.347 31.428 o
21 2 3 1339.410 1134.310 98.096 156.885 o
21 2 4 7563.220 7185.060 178.156 27.453 o
21 2 5 12072.900 12368.500 236.893 14.293 o
21 2 6 13393.800 13797.600 254.743 12.277 o
21 2 7 1248.310 1324.600 109.851 139.277 o
21 2 8 455.710 626.115 120.885 166.237 o
21 2 9 2141.050 2133.340 180.226 61.217 o
21 3 0 4105.200 4230.820 130.228 55.737 o
21 3 1 3723.470 3859.290 104.510 68.420 o
21 3 2 7675.050 7680.330 170.079 27.298 o
21 3 3 5128.950 4885.890 141.696 44.716 o
21 3 4 50.093 171.324 75.156 485.801 o
21 3 5 4343.790 3987.160 137.856 52.928 o
21 3 6 15129.900 15092.800 364.008 8.744 o
21 3 7 3437.340 3688.260 132.716 62.739 o
21 3 8 7963.770 7945.560 271.633 19.001 o
21 3 9 6610.890 5175.160 705.547 5.469 o
21 4 0 609.368 517.076 80.611 283.219 o
21 4 1 1515.590 1449.230 84.066 162.432 o
21 4 2 2477.900 2515.350 120.944 86.341 o
21 4 3 864.837 786.422 83.273 230.391 o
21 4 4 23031.700 22511.100 311.472 5.997 o
21 4 5 5653.600 5318.020 143.730 40.773 o
21 4 6 2009.170 2058.750 111.804 105.589 o
21 4 7 13876.200 13707.400 324.833 10.347 o
21 4 8 6035.880 5530.570 177.566 33.990 o
21 5 0 122.194 62.838 72.705 508.040 o
21 5 1 25.644 -92.734 67.904 646.697 o
21 5 2 3061.600 3165.180 98.499 83.889 o
21 5 3 39.195 76.436 82.861 422.985 o
21 5 4 3976.090 3809.390 114.351 63.064 o
21 5 5 6832.190 6753.250 156.729 32.052 o
21 5 6 10295.400 10660.700 201.291 18.323 o
21 5 7 3782.100 4148.100 167.842 48.241 o
21 5 8 628.948 616.297 146.413 117.269 o
21 6 0 78.571 71.038 74.212 505.521 o
21 6 1 7.275 -119.208 72.336 581.200 o
21 6 2 11852.700 10910.500 217.557 15.805 o
21 6 3 2899.720 3068.790 108.296 82.496 o
21 6 4 5680.170 5797.550 177.094 34.782 o
21 6 5 852.867 752.749 121.774 145.577 o
21 6 6 4517.810 4803.720 163.497 43.740 o
21 6 7 9236.620 9450.490 267.420 17.039 o
21 6 8 10364.600 9848.630 351.801 12.419 o
21 7 0 4264.890 4065.630 101.900 62.575 o
21 7 1 1218.440 1303.970 90.606 171.043 o
21 7 2 1284.890 1278.230 103.598 147.743 o
21 7 3 1650.200 1860.950 93.096 136.523 o
21 7 4 2764.020 3030.370 118.668 79.648 o
21 7 5 11419.100 11374.000 223.587 15.787 o
21 7 6 8659.230 8719.750 189.774 22.802 o
21 7 7 1040.470 1154.440 119.166 136.099 o
21 7 8 2012.740 2198.700 168.336 67.613 o
21 8 0 2608.010 2833.840 101.941 92.540 o
21 8 1 1043.780 1057.240 83.392 204.094 o
21 8 2 3224.510 3198.470 117.366 73.264 o
21 8 3 4794.640 5118.810 122.947 49.562 o
21 8 4 2372.100 2476.300 101.289 101.056 o
21 8 5 11531.700 11462.700 249.243 14.722 o
21 8 6 6118.300 6215.750 164.756 34.267 o
21 8 7 3540.810 3962.750 183.622 45.965 o
21 8 8 3484.920 3980.030 266.613 29.541 o
21 9 0 6525.840 6509.920 175.919 31.228 o
21 9 1 5153.710 5134.930 117.686 48.261 o
21 9 2 1727.570 1818.210 106.829 120.058 o
21 9 3 14633.400 14441.200 320.189 9.926 o
21 9 4 2651.210 2811.270 102.875 91.438 o
21 9 5 1498.070 1658.970 110.496 124.995 o
21 9 6 64.616 96.086 94.785 321.375 o
21 9 7 10909.200 10770.500 304.942 13.470 o
21 9 8 10080.800 9824.290 312.405 14.107 o
21 10 0 3967.860 3654.010 106.801 66.191 o
21 10 1 4564.230 4566.290 124.618 52.572 o
21 10 2 3873.140 3843.020 123.718 61.046 o
21 10 3 4439.340 4735.330 110.521 56.062 o
21 10 4 963.705 1071.950 93.089 187.630 o
21 10 5 16315.200 15084.300 302.353 9.381 o
21 10 6 4366.600 4455.400 145.265 49.479 o
21 10 7 1594.100 1558.910 122.888 110.718 o
21 10 8 792.066 773.341 361.785 22.375 o
21 11 0 3121.340 3078.820 106.706 79.954 o
21 11 1 552.886 611.238 86.245 261.635 o
21 11 2 654.476 680.028 103.675 194.803 o
21 11 3 2808.120 3045.840 100.539 87.959 o
21 11 4 1905.340 1824.110 121.939 101.945 o
21 11 5 4324.070 4493.300 151.064 48.278 o
21 11 6 1474.080 1991.610 182.630 65.889 o
21 11 7 975.765 1053.640 146.398 105.207 o
21 12 0 2812.740 2584.640 104.604 89.636 o
21 12 1 6222.950 6441.470 135.379 37.141 o
21 12 2 6316.730 6264.660 156.373 34.554 o
21 12 3 1390.170 1356.360 103.334 142.530 o
21 12 4 494.789 695.790 87.480 258.691 o
21 12 5 4277.100 3744.230 172.124 45.648 o
21 12 6 8210.180 8170.980 261.637 19.211 o
21 12 7 528.445 221.350 182.294 84.161 o
21 13 0 3001.880 3351.360 132.710 68.597 o
21 13 1 1478.790 1469.090 96.148 146.683 o
21 13 2 4950.480 5023.790 128.043 47.904 o
21 13 3 5002.920 5165.080 137.419 45.436 o
21 13 4 5063.860 5604.860 162.461 39.680 o
21 13 5 622.511 632.359 119.336 161.823 o
21 13 6 2246.950 1828.550 242.201 40.333 o
21 13 7 5108.050 5270.630 205.588 33.265 o
21 14 0 9195.270 9253.800 245.404 18.344 o
21 14 1 554.325 471.971 117.968 171.704 o
21 14 2 777.345 687.617 105.477 182.716 o
21 14 3 1368.390 1689.420 132.185 105.210 o
21 14 4 9819.040 9471.180 244.924 17.537 o
21 14 5 2908.980 3396.560 189.870 48.909 o
21 14 6 1262.960 1613.130 234.030 46.683 o
21 15 0 2723.820 2814.010 139.645 71.394 o
21 15 1 3293.920 3234.410 111.425 74.623 o
21 15 2 7970.390 8234.030 231.962 21.464 o
21 15 3 1173.720 970.119 105.715 155.448 o
21 15 4 1370.280 1376.970 140.114 100.774 o
21 15 5 2905.030 3035.300 158.662 60.647 o
21 15 6 5266.320 5549.280 283.784 23.067 o
21 16 0 5225.810 5558.820 164.680 38.747 o
21 16 1 89.534 175.712 104.078 261.936 o
21 16 2 1317.960 1296.450 110.230 136.817 o
21 16 3 2619.600 2530.670 115.879 86.939 o
21 16 4 5042.220 5433.180 240.343 28.438 o
21 16 5 2464.680 2705.680 201.741 49.335 o
21 17 0 171.200 -3.026 175.603 96.689 o
21 17 1 913.903 942.329 176.562 80.127 o
21 17 2 1126.890 1007.890 126.791 125.256 o
21 17 3 232.459 46.838 114.254 214.204 o
21 17 4 1356.800 1132.910 149.318 94.838 o
21 17 5 11397.600 11235.700 498.326 7.826 o
21 18 0 1016.690 1136.610 117.818 139.182 o
21 18 1 838.970 580.416 134.440 128.923 o
21 18 2 1604.090 1707.610 120.854 110.742 o
21 18 3 5986.860 5730.430 286.296 21.721 o
21 18 4 1400.130 1239.000 206.634 57.519 o
21 19 0 674.427 301.503 177.734 85.798 o
21 19 1 462.432 286.130 117.623 182.123 o
21 19 2 2403.680 2434.740 176.415 59.763 o
21 19 3 4460.130 4575.620 181.409 40.901 o
21 20 0 5625.900 6459.340 261.640 24.019 o
21 20 1 257.192 324.621 141.141 139.376 o
21 20 2 530.906 273.350 172.976 92.186 o
21 20 3 4695.280 2861.550 1001.070 2.945 o
21 21 0 10.709 -129.261 212.547 67.687 o
21 21 1 5098.730 3255.410 638.795 6.805 o
22 0 0 1117.370 935.159 146.954 103.043 o
22 0 1 5728.430 5697.580 130.934 41.492 o
22 0 2 3983.400 4287.110 119.410 59.408 o
22 0 3 5683.460 5511.730 162.392 37.401 o
22 0 4 738.207 649.699 90.203 227.422 o
22 0 5 722.189 812.625 96.191 205.175 o
22 0 6 1138.260 1254.460 123.676 125.457 o
22 0 7 475.886 431.943 128.901 152.867 o
22 0 8 269.521 222.179 161.992 108.973 o
22 1 0 139.808 133.465 80.309 411.113 o
22 1 1 5299.990 5481.400 140.226 42.611 o
22 1 2 683.665 582.978 97.954 211.698 o
22 1 3 1844.150 1610.580 98.971 127.784 o
22 1 4 1615.220 1572.660 101.303 133.259 o
22 1 5 8577.260 8174.630 199.388 22.783 o
22 1 6 12696.800 11926.500 358.477 10.496 o
22 1 7 774.064 709.072 129.527 136.388 o
22 1 8 820.964 1105.030 161.769 92.379 o
22 2 0 2963.340 2735.740 95.311 90.622 o
22 2 1 1271.870 1390.240 95.241 158.619 o
22 2 2 1639.130 1695.380 90.860 142.637 o
22 2 3 12061.300 12260.700 348.130 10.995 o
22 2 4 3888.020 4154.810 153.190 51.406 o
22 2 5 2778.310 3175.610 155.965 62.154 o
22 2 6 1851.800 1708.220 129.602 97.829 o
22 2 7 9869.880 9927.380 318.224 13.984 o
22 2 8 10294.100 10665.100 265.552 15.533 o
22 3 0 2.535 -56.625 78.213 499.449 o
22 3 1 1453.660 1821.060 91.877 146.227 o
22 3 2 1818.310 1897.460 82.404 141.401 o
22 3 3 4777.270 4921.420 169.114 41.182 o
22 3 4 7147.540 7507.010 208.449 25.340 o
22 3 5 4646.640 4454.290 166.461 43.353 o
22 3 6 841.066 901.631 122.577 142.002 o
22 3 7 11134.100 11010.400 210.908 16.744 o
22 3 8 5302.850 5444.440 183.772 35.670 o
22 4 0 1874.730 1819.190 94.758 127.866 o
22 4 1 1126.610 1072.020 78.784 207.608 o
22 4 2 909.054 874.147 86.734 213.395 o
22 4 3 887.846 820.330 86.602 217.644 o
22 4 4 2157.770 2330.330 101.379 107.361 o
22 4 5 8580.960 8757.050 157.226 25.021 o
22 4 6 17430.500 16824.700 387.009 7.374 o
22 4 7 510.478 432.915 129.800 149.794 o
22 4 8 502.549 844.107 171.166 90.300 o
22 5 0 1022.050 954.726 113.435 149.215 o
22 5 1 585.811 434.246 87.124 264.641 o
22 5 2 6493.040 6529.110 149.015 34.365 o
22 5 3 5517.840 5780.240 143.312 40.410 o
22 5 4 10854.400 10271.200 192.634 18.238 o
22 5 5 711.189 523.741 115.512 168.223 o
22 5 6 6044.440 6456.980 193.071 30.651 o
22 5 7 14917.900 15003.300 430.526 7.667 o
22 6 0 758.766 778.436 87.621 227.644 o
22 6 1 124.639 181.282 90.051 334.622 o
22 6 2 837.737 822.321 94.712 200.418 o
22 6 3 1666.830 1492.750 99.135 135.423 o
22 6 4 9811.170 9753.070 255.518 16.883 o
22 6 5 16905.800 17211.000 322.790 8.402 o
22 6 6 7449.010 7396.400 231.834 22.942 o
22 6 7 2842.070 2918.260 195.689 48.753 o
22 7 0 1568.080 1768.720 109.277 122.709 o
22 7 1 324.107 227.016 92.364 287.048 o
22 7 2 6137.700 6625.570 155.348 34.674 o
22 7 3 2860.950 3214.930 118.562 77.176 o
22 7 4 4565.490 4740.230 128.409 51.132 o
22 7 5 2969.300 2958.950 126.774 73.678 o
22 7 6 2678.010 2184.290 195.286 51.724 o
22 7 7 6203.160 5948.240 247.783 24.855 o
22 8 0 7100.360 6893.600 169.016 29.831 o
22 8 1 3324.390 2997.930 105.976 78.019 o
22 8 2 114.510 216.779 92.699 316.587 o
22 8 3 3259.210 3477.760 117.617 71.126 o
22 8 4 1086.960 1299.850 104.671 153.808 o
22 8 5 852.436 953.377 112.602 157.709 o
22 8 6 1575.790 1399.470 130.240 105.763 o
22 8 7 4450.460 4489.870 309.364 22.306 o
22 9 0 2053.130 2052.070 107.149 108.479 o
22 9 1 2636.610 2578.670 112.991 87.930 o
22 9 2 1238.240 1201.240 101.596 154.344 o
22 9 3 5761.080 5738.280 162.306 36.694 o
22 9 4 952.698 1160.680 128.906 125.218 o
22 9 5 16404.400 16623.900 408.229 7.385 o
22 9 6 6082.850 5820.760 272.791 22.745 o
22 9 7 1137.610 1002.600 176.985 77.048 o
22 10 0 2.507 178.279 101.878 282.950 o
22 10 1 7654.170 7972.900 149.846 28.640 o
22 10 2 1140.670 1170.910 98.936 163.912 o
22 10 3 6111.580 6433.600 168.262 33.495 o
22 10 4 256.619 7.209 108.903 233.352 o
22 10 5 846.942 837.264 115.824 154.547 o
22 10 6 1659.510 1476.780 139.044 95.599 o
22 10 7 3662.340 4338.430 758.710 5.012 o
22 11 0 2220.540 2082.320 106.682 104.699 o
22 11 1 4637.680 4935.490 146.678 46.234 o
22 11 2 3904.760 3836.900 114.993 63.418 o
22 11 3 3956.610 3833.890 136.543 56.630 o
22 11 4 3078.150 3231.820 144.922 63.605 o
22 11 5 155.614 91.817 175.388 96.470 o
22 11 6 2073.700 2237.150 176.212 63.144 o
22 12 0 454.842 174.349 105.883 220.780 o
22 12 1 1986.180 2253.300 107.286 107.584 o
22 12 2 2612.080 2827.740 115.383 85.016 o
22 12 3 3012.790 3102.360 139.682 66.898 o
22 12 4 13793.000 13221.700 335.931 10.245 o
22 12 5 1104.660 780.812 163.775 88.869 o
22 12 6 781.147 699.056 169.150 89.275 o
22 13 0 8439.630 8461.840 207.512 22.226 o
22 13 1 1792.030 2014.730 125.133 99.683 o
22 13 2 7447.210 7103.690 219.401 24.215 o
22 13 3 728.459 766.173 109.061 175.203 o
22 13 4 105.392 41.934 127.239 182.249 o
22 13 5 2968.280 2813.260 242.472 36.540 o
22 13 6 11046.200 10672.700 734.789 4.534 o
22 14 0 1924.390 2138.200 143.341 83.265 o
22 14 1 2379.540 2361.060 158.275 68.381 o
22 14 2 4357.600 4108.450 145.139 50.636 o
22 14 3 2560.870 2781.200 124.513 81.166 o
22 14 4 1136.950 1240.980 145.776 100.994 o
22 14 5 7273.940 6901.220 340.702 15.962 o
22 15 0 2034.430 2315.480 202.525 52.378 o
22 15 1 2054.830 2124.560 146.409 79.708 o
22 15 2 1197.630 1477.540 125.851 118.216 o
22 15 3 4926.920 4679.550 193.435 36.715 o
22 15 4 5031.630 5054.840 210.624 33.044 o
22 15 5 596.271 659.895 204.814 65.749 o
22 16 0 87.856 278.861 147.032 134.763 o
22 16 1 4883.630 4882.510 212.085 33.493 o
22 16 2 1723.220 1321.530 134.964 99.317 o
22 16 3 1087.390 867.933 133.338 119.832 o
22 16 4 5888.490 5688.180 194.835 31.918 o
22 17 0 31.692 -89.081 156.280 124.570 o
22 17 1 2482.320 2187.330 118.173 90.619 o
22 17 2 3560.700 3506.000 153.090 55.819 o
22 17 3 3043.020 2986.010 198.624 46.728 o
22 18 0 1477.030 1298.750 163.015 81.194 o
22 18 1 782.513 680.486 135.985 126.871 o
22 18 2 1043.660 1268.170 224.177 51.995 o
22 19 0 2360.360 2052.630 236.255 41.120 o
22 19 1 225.310 -1616.760 805.021 4.716 o
23 0 1 26443.200 25542.300 373.520 4.685 o
23 0 2 4.145 102.811 98.510 307.039 o
23 0 3 1902.120 1892.190 109.315 112.160 o
23 0 4 6605.480 6483.740 212.126 27.169 o
23 0 5 592.222 605.419 117.663 167.333 o
23 0 6 5.089 -153.465 150.231 135.495 o
23 0 7 2363.500 2667.660 170.831 61.511 o
23 1 0 4990.300 5351.450 185.670 36.613 o
23 1 1 9159.360 9373.200 217.296 19.862 o
23 1 2 7080.880 6715.940 208.858 26.238 o
23 1 3 11035.100 10508.000 179.941 18.375 o
23 1 4 6084.720 5861.360 305.240 19.938 o
23 1 5 2363.630 2195.250 134.392 82.385 o
23 1 6 1196.680 1201.840 135.875 110.335 o
23 1 7 5499.190 5637.420 254.299 25.696 o
23 2 0 1013.710 1179.930 101.759 164.845 o
23 2 1 3692.690 3704.860 124.885 62.933 o
23 2 2 7391.620 7820.020 165.920 28.165 o
23 2 3 1568.080 1605.460 125.003 108.719 o
23 2 4 4151.190 4473.910 151.672 49.202 o
23 2 5 3194.030 2808.130 143.399 65.075 o
23 2 6 3837.970 4086.180 238.203 33.200 o
23 2 7 489.901 254.999 165.332 100.805 o
23 3 0 13270.100 13141.100 367.391 9.767 o
23 3 1 338.454 354.813 94.937 265.352 o
23 3 2 1511.280 1686.660 98.705 138.014 o
23 3 3 1438.280 1625.100 118.121 118.687 o
23 3 4 2061.120 2192.430 151.422 76.256 o
23 3 5 4327.390 4205.400 169.414 44.867 o
23 3 6 108.639 -62.251 143.589 144.813 o
23 3 7 690.875 889.349 172.561 86.278 o
23 4 0 663.558 602.176 102.603 199.582 o
23 4 1 327.041 228.364 85.497 323.562 o
23 4 2 8595.850 8261.670 244.510 19.747 o
23 4 3 4334.780 4134.510 138.732 52.272 o
23 4 4 238.041 285.977 123.067 180.091 o
23 4 5 2531.520 2001.670 161.066 67.304 o
23 4 6 1886.430 1364.010 163.329 75.848 o
23 4 7 1108.380 398.146 821.806 4.489 o
23 5 0 2760.660 2827.660 111.342 84.891 o
23 5 1 2299.130 2218.170 93.192 111.519 o
23 5 2 1156.330 988.969 107.072 153.538 o
23 5 3 2228.860 2430.370 115.215 94.882 o
23 5 4 7745.060 7730.420 239.786 21.614 o
23 5 5 3787.260 3601.770 141.454 57.366 o
23 5 6 395.569 368.394 126.617 162.180 o
23 6 0 1878.340 2059.460 109.206 110.798 o
23 6 1 77.031 -87.357 98.699 302.768 o
23 6 2 2228.720 2633.970 120.362 89.738 o
23 6 3 4350.400 4428.540 126.222 54.205 o
23 6 4 3028.360 3222.390 157.183 59.483 o
23 6 5 2950.790 3238.500 188.594 49.489 o
23 6 6 13293.400 13208.800 496.625 7.189 o
23 7 0 20383.500 19925.400 336.574 6.745 o
23 7 1 714.633 582.090 103.733 193.937 o
23 7 2 418.096 424.392 104.307 218.995 o
23 7 3 968.358 820.591 110.411 159.543 o
23 7 4 10872.900 11160.400 295.408 13.703 o
23 7 5 153.447 342.131 130.539 164.455 o
23 7 6 353.886 360.958 164.095 103.621 o
23 8 0 903.528 867.004 108.038 165.957 o
23 8 1 71.500 176.617 145.065 140.339 o
23 8 2 13377.500 13149.200 224.032 13.304 o
23 8 3 2094.080 2289.030 160.319 70.508 o
23 8 4 819.656 795.194 125.590 139.726 o
23 8 5 1661.790 1942.570 186.884 62.488 o
23 8 6 3990.470 3781.850 187.472 43.351 o
23 9 0 6604.320 6803.000 240.548 24.111 o
23 9 1 1898.420 2029.340 111.067 109.061 o
23 9 2 911.390 1171.080 144.736 107.100 o
23 9 3 5194.590 5199.530 174.974 37.893 o
23 9 4 5666.010 5280.390 169.223 36.880 o
23 9 5 1589.600 1539.120 205.708 55.883 o
23 9 6 2691.960 2417.700 195.034 51.086 o
23 10 0 1733.450 1760.170 115.669 112.016 o
23 10 1 15156.200 15061.700 346.051 9.071 o
23 10 2 171.227 418.311 122.893 180.580 o
23 10 3 3632.370 3889.530 146.619 55.891 o
23 10 4 3695.470 3886.060 182.444 45.690 o
23 10 5 4200.490 4154.470 286.391 25.424 o
23 11 0 506.595 464.024 122.365 164.397 o
23 11 1 7233.050 7665.200 239.745 22.445 o
23 11 2 3725.000 3515.730 192.422 43.965 o
23 11 3 10851.700 10714.800 320.191 12.982 o
23 11 4 925.511 909.474 141.633 113.107 o
23 11 5 1451.430 1844.260 160.441 79.952 o
23 12 0 614.141 730.159 155.757 105.029 o
23 12 1 10773.200 10283.800 297.790 14.007 o
23 12 2 2319.900 2447.080 147.982 73.746 o
23 12 3 3577.920 3741.210 206.362 40.847 o
23 12 4 3619.670 3627.910 172.454 49.380 o
23 12 5 2527.010 2426.750 456.879 13.333 o
23 13 0 9251.160 9753.170 229.920 18.805 o
23 13 1 2589.920 2278.680 135.628 78.128 o
23 13 2 1498.030 1384.460 134.288 103.678 o
23 13 3 3230.940 2961.010 242.721 35.531 o
23 13 4 3669.160 3829.140 235.800 34.426 o
23 14 0 190.857 351.008 155.881 117.384 o
23 14 1 74.058 321.719 131.853 165.293 o
23 14 2 10421.900 10767.900 234.194 16.686 o
23 14 3 3750.660 3557.320 184.992 45.584 o
23 15 0 6123.830 5899.540 196.549 30.766 o
23 15 1 830.826 623.439 150.199 108.169 o
23 15 2 1260.230 1426.020 149.545 93.825 o
23 15 3 1181.910 1162.620 187.855 68.976 o
23 16 0 359.429 516.264 180.707 85.776 o
23 16 1 1845.310 1780.510 225.017 46.877 o
23 16 2 1190.000 960.663 250.793 42.829 o
24 0 0 3142.360 3491.120 281.514 28.425 o
24 0 1 9790.610 9791.380 331.693 13.543 o
24 0 2 759.129 573.380 113.892 168.153 o
24 0 3 1745.040 1855.480 116.339 109.983 o
24 0 4 753.698 578.932 134.676 131.062 o
24 0 5 15.608 -28.436 146.348 142.438 o
24 1 0 1395.680 1328.470 127.916 112.900 o
24 1 1 2435.150 2611.140 132.898 79.467 o
24 1 2 2257.710 2274.610 161.635 68.318 o
24 1 3 1747.660 1736.820 122.907 105.305 o
24 1 4 1263.570 953.744 139.399 107.795 o
24 1 5 281.863 192.917 178.965 90.389 o
24 2 0 3538.860 3197.430 163.542 53.783 o
24 2 1 616.299 679.192 113.044 174.486 o
24 2 2 24.195 142.186 97.630 306.457 o
24 2 3 596.800 553.140 128.704 146.447 o
24 2 4 4015.810 4118.230 253.377 30.284 o
24 2 5 4970.870 5016.450 184.871 37.415 o
24 3 0 16.287 86.504 101.579 288.701 o
24 3 1 4575.710 4465.760 155.634 45.948 o
24 3 2 13107.100 12702.600 494.422 7.326 o
24 3 3 2016.910 2147.230 139.430 84.452 o
24 3 4 2283.990 2258.470 158.615 69.644 o
24 3 5 3453.890 3720.800 193.296 44.512 o
24 4 0 5146.630 5468.610 173.959 37.730 o
24 4 1 6520.810 7010.460 215.023 26.500 o
24 4 2 1765.330 1965.190 149.178 82.739 o
24 4 3 6968.510 7208.510 228.470 24.202 o
24 4 4 1294.900 1098.300 164.246 83.830 o
24 4 5 2398.910 2832.400 175.043 58.898 o
24 5 0 4510.370 4583.360 215.096 34.545 o
24 5 1 2982.040 3121.080 164.930 57.427 o
24 5 2 486.191 467.056 107.167 203.584 o
24 5 3 1465.200 1536.080 167.518 76.913 o
24 5 4 11079.000 10403.400 480.982 8.376 o
24 5 5 9627.290 9378.540 317.291 14.396 o
24 6 0 2589.170 2362.070 154.386 68.205 o
24 6 1 3123.260 3218.690 128.671 69.662 o
24 6 2 6051.780 6037.500 258.735 23.956 o
24 6 3 9208.490 8738.100 358.806 13.150 o
24 6 4 5067.350 4574.740 263.960 26.315 o
24 6 5 380.521 453.721 196.982 73.263 o
24 7 0 45.129 77.908 103.783 273.957 o
24 7 1 4557.350 4516.230 205.905 36.078 o
24 7 2 13468.900 13450.100 474.279 7.502 o
24 7 3 2153.120 2526.680 141.506 78.815 o
24 7 4 7448.120 7232.650 336.862 15.913 o
24 7 5 2551.620 2454.410 201.468 49.621 o
24 8 0 10819.600 10194.200 298.264 13.988 o
24 8 1 2418.170 2331.950 163.223 65.820 o
24 8 2 137.793 -6.747 119.090 206.212 o
24 8 3 1366.010 1091.120 139.255 104.445 o
24 8 4 6226.290 6064.370 329.444 17.902 o
24 9 0 5879.700 5784.010 164.755 35.835 o
24 9 1 154.050 303.693 126.046 176.237 o
24 9 2 5074.300 5155.080 218.820 31.590 o
24 9 3 0.491 -93.713 130.887 178.673 o
24 9 4 2767.800 2648.330 245.633 36.680 o
24 10 0 4224.660 4222.990 205.995 37.673 o
24 10 1 9119.810 8694.330 311.706 15.302 o
24 10 2 1284.910 1131.020 156.413 89.928 o
24 10 3 818.952 880.032 153.023 102.819 o
24 10 4 5430.330 5233.560 219.898 30.434 o
24 11 0 2969.080 3003.320 159.645 59.895 o
24 11 1 3925.690 4096.730 246.966 31.515 o
24 11 2 3481.030 3470.880 159.580 54.481 o
24 11 3 8804.210 8884.740 235.197 19.634 o
24 12 0 40.854 -273.683 159.149 119.938 o
24 12 1 5145.160 4882.140 228.292 30.426 o
24 12 2 1223.450 1698.360 161.276 83.109 o
24 12 3 188.393 -392.103 791.592 4.878 o
24 13 0 235.504 518.001 242.904 49.843 o
24 13 1 1690.760 1974.140 235.012 44.010 o
24 13 2 4240.750 5795.610 1062.170 2.609 o
25 0 1 163.493 205.717 132.797 161.770 o
25 0 2 13279.200 12827.500 605.980 5.630 o
25 0 3 3691.080 3530.100 183.531 46.315 o
25 0 4 1214.260 1143.180 226.693 50.510 o
25 1 0 16175.100 14738.800 569.414 5.521 o
25 1 1 160.993 97.789 124.626 185.033 o
25 1 2 1002.950 1006.780 121.721 136.046 o
25 1 3 588.549 837.791 202.992 66.206 o
25 1 4 488.197 221.297 180.573 86.121 o
25 2 0 2953.870 2890.720 185.831 51.294 o
25 2 1 10714.700 10498.000 371.660 11.399 o
25 2 2 1316.510 1361.090 169.240 78.415 o
25 2 3 138.476 316.076 169.141 101.889 o
25 2 4 1157.340 764.341 180.617 75.609 o
25 3 0 519.128 354.668 143.986 126.678 o
25 3 1 13084.100 12917.000 407.488 8.989 o
25 3 2 1033.070 1155.220 150.193 99.354 o
25 3 3 14833.700 14231.300 694.797 4.437 o
25 3 4 3753.010 3330.910 383.577 17.076 o
25 4 0 877.042 577.314 138.588 122.109 o
25 4 1 17924.300 17832.200 641.634 4.418 o
25 4 2 2555.560 2561.740 168.029 61.588 o
25 4 3 1298.110 1078.520 163.157 84.743 o
25 5 0 665.881 576.430 127.852 145.068 o
25 5 1 1389.230 1397.870 194.499 62.806 o
25 5 2 1173.810 1089.530 165.700 84.327 o
25 5 3 4241.390 4417.130 265.838 27.742 o
25 6 0 240.145 380.872 128.709 164.016 o
25 6 1 295.301 362.895 136.318 146.397 o
25 6 2 1799.610 1904.470 147.325 83.933 o
25 6 3 1325.860 1479.000 182.921 69.192 o
25 7 0 10152.800 9963.630 407.374 10.668 o
25 7 1 11161.700 11150.600 368.640 11.116 o
25 7 2 1384.710 1347.650 162.072 82.710 o
25 7 3 3681.920 2619.840 899.018 3.656 o
25 8 0 89.600 424.301 161.728 110.843 o
25 8 1 13987.200 14521.100 593.234 5.572 o
25 8 2 1428.220 1300.120 175.426 73.535 o
25 9 0 10522.700 10999.500 306.620 13.598 o
25 9 1 1137.270 1668.140 169.525 78.511 o
26 0 0 28377.700 30289.100 1529.140 1.038 o
26 1 0 200.546 -79.015 546.536 10.216 o
;
_olex2_submission_special_instructions 'No special instructions were received'
loop_
_space_group_symop_id
_space_group_symop_operation_xyz
1 x,y,z
2 x+1/2,-y+1/2,-z
3 -x+1/2,y+1/2,-z
4 -x,-y,z
loop_
_atom_site_label
_atom_site_type_symbol
_atom_site_fract_x
_atom_site_fract_y
_atom_site_fract_z
_atom_site_U_iso_or_equiv
_atom_site_adp_type
_atom_site_occupancy
_atom_site_refinement_flags_posn
_atom_site_disorder_group
Ru3 Ru 0.422261(9) 0.360572(7) 0.171256(16) 0.01239(5) Uani 1.000000 . .
Ru1 Ru 0.303636(10) 0.552502(7) -0.362629(16) 0.01217(5) Uani 1.000000 . .
Ru4 Ru 0.539898(10) 0.358265(7) 0.098290(16) 0.01277(5) Uani 1.000000 . .
Ru2 Ru 0.302980(10) 0.466739(7) -0.290870(16) 0.01285(5) Uani 1.000000 . .
C59 C 0.58226(13) 0.26145(9) 0.0889(2) 0.0187(6) Uani 1.000000 . .
C50 C 0.43312(13) 0.32527(9) 0.3237(2) 0.0178(6) Uani 1.000000 . .
H50 H 0.46831(13) 0.33681(9) 0.3687(2) 0.0213(7) Uiso 1.000000 R .
C13 C 0.24198(12) 0.60964(9) -0.3267(2) 0.0156(6) Uani 1.000000 . .
H13 H 0.24808(12) 0.62348(9) -0.2551(2) 0.0187(7) Uiso 1.000000 R .
C66 C 0.63448(12) 0.36061(10) 0.1583(2) 0.0164(5) Uani 1.000000 . .
H66 H 0.64521(12) 0.38816(10) 0.2013(2) 0.0196(7) Uiso 1.000000 R .
C42 C 0.34271(13) 0.31832(9) 0.1282(2) 0.0165(6) Uani 1.000000 . .
H42 H 0.32363(13) 0.32566(9) 0.0578(2) 0.0199(7) Uiso 1.000000 R .
C21 C 0.31595(13) 0.39937(9) -0.3539(2) 0.0174(6) Uani 1.000000 . .
H21 H 0.35554(13) 0.39492(9) -0.3951(2) 0.0208(7) Uiso 1.000000 R .
N1 N 0.37348(10) 0.50102(8) -0.38305(18) 0.0148(5) Uani 1.000000 . .
C23 C 0.19798(13) 0.41492(9) -0.3902(2) 0.0165(5) Uani 1.000000 . .
C12 C 0.24153(12) 0.64263(10) -0.4159(2) 0.0165(5) Uani 1.000000 . .
C49 C 0.37853(13) 0.35201(9) 0.3267(2) 0.0166(6) Uani 1.000000 . .
H49 H 0.38089(13) 0.37934(9) 0.3740(2) 0.0200(7) Uiso 1.000000 R .
C48 C 0.31476(13) 0.33141(9) 0.3164(2) 0.0177(6) Uani 1.000000 . .
C35 C 0.31854(14) 0.31738(10) -0.2886(3) 0.0227(6) Uani 1.000000 . .
H35 H 0.33922(14) 0.30800(10) -0.3516(3) 0.0272(8) Uiso 1.000000 R .
C14 C 0.20512(12) 0.56966(9) -0.3283(2) 0.0161(6) Uani 1.000000 . .
H14 H 0.18926(12) 0.55929(9) -0.2577(2) 0.0193(7) Uiso 1.000000 R .
C26 C 0.07009(14) 0.40503(10) -0.3523(3) 0.0269(7) Uani 1.000000 . .
H26 H 0.02670(14) 0.40073(10) -0.3383(3) 0.0323(8) Uiso 1.000000 R .
C56 C 0.41581(12) 0.25815(9) 0.2080(2) 0.0167(6) Uani 1.000000 . .
C7 C 0.27169(12) 0.63017(9) -0.5106(2) 0.0170(6) Uani 1.000000 . .
C65 C 0.59869(12) 0.32605(10) 0.2125(2) 0.0164(6) Uani 1.000000 . .
H65 H 0.58834(12) 0.33321(10) 0.2880(2) 0.0196(7) Uiso 1.000000 R .
C6 C 0.29981(13) 0.58376(9) -0.5189(2) 0.0162(5) Uani 1.000000 . .
H6 H 0.33944(13) 0.58188(9) -0.5610(2) 0.0195(7) Uiso 1.000000 R .
C20 C 0.19216(13) 0.54685(9) -0.5160(2) 0.0180(6) Uani 1.000000 . .
C53 C 0.45730(16) 0.19864(11) 0.3643(3) 0.0292(7) Uani 1.000000 . .
H53 H 0.47101(16) 0.17833(11) 0.4181(3) 0.0351(9) Uiso 1.000000 R .
N2 N 0.32393(11) 0.52902(8) -0.20788(18) 0.0158(5) Uani 1.000000 . .
C63 C 0.62567(14) 0.24476(10) 0.2616(3) 0.0229(7) Uani 1.000000 . .
H63 H 0.64012(14) 0.25476(10) 0.3289(3) 0.0274(8) Uiso 1.000000 R .
C10 C 0.21219(15) 0.71459(11) -0.4935(3) 0.0285(7) Uani 1.000000 . .
H10 H 0.19083(15) 0.74297(11) -0.4889(3) 0.0342(9) Uiso 1.000000 R .
C46 C 0.21513(14) 0.30631(10) 0.3873(3) 0.0283(7) Uani 1.000000 . .
H46 H 0.18737(14) 0.30342(10) 0.4458(3) 0.0339(9) Uiso 1.000000 R .
C36 C 0.30248(13) 0.36326(9) -0.2742(2) 0.0178(5) Uani 1.000000 . .
C30 C 0.26373(13) 0.42697(9) -0.1630(2) 0.0171(6) Uani 1.000000 . .
H30 H 0.27396(13) 0.43820(9) -0.0902(2) 0.0205(7) Uiso 1.000000 R .
C55 C 0.42120(13) 0.21168(9) 0.1859(2) 0.0209(6) Uani 1.000000 . .
H55 H 0.41091(13) 0.20025(9) 0.1177(2) 0.0251(7) Uiso 1.000000 R .
C45 C 0.19810(15) 0.28944(10) 0.2891(3) 0.0286(7) Uani 1.000000 . .
H45 H 0.15874(15) 0.27473(10) 0.2802(3) 0.0344(8) Uiso 1.000000 R .
C5 C 0.26234(13) 0.54477(10) -0.5212(2) 0.0167(6) Uani 1.000000 . .
H5 H 0.27960(13) 0.51892(10) -0.5639(2) 0.0200(7) Uiso 1.000000 R .
C1 C 0.40069(14) 0.48497(10) -0.4842(2) 0.0189(6) Uani 1.000000 . .
H1a H 0.36685(14) 0.4759(6) -0.5324(6) 0.0283(9) Uiso 1.000000 GR .
H1b H 0.4251(8) 0.5096(2) -0.5166(8) 0.0283(9) Uiso 1.000000 GR .
H1c H 0.4281(7) 0.4588(4) -0.4708(3) 0.0283(9) Uiso 1.000000 GR .
C58 C 0.55397(13) 0.29579(9) 0.0148(2) 0.0162(6) Uani 1.000000 . .
H58 H 0.51703(13) 0.28474(9) -0.0267(2) 0.0194(7) Uiso 1.000000 R .
C41 C 0.39750(13) 0.29089(9) 0.1232(2) 0.0155(6) Uani 1.000000 . .
H41 H 0.41105(13) 0.28219(9) 0.0501(2) 0.0186(7) Uiso 1.000000 R .
C27 C 0.10850(14) 0.42368(10) -0.2754(2) 0.0216(6) Uani 1.000000 . .
H27 H 0.09120(14) 0.43322(10) -0.2097(2) 0.0259(8) Uiso 1.000000 R .
C72 C 0.65969(13) 0.33219(9) -0.0200(2) 0.0163(6) Uani 1.000000 . .
C54 C 0.44198(14) 0.18214(10) 0.2657(3) 0.0278(7) Uani 1.000000 . .
H54 H 0.44551(14) 0.15042(10) 0.2516(3) 0.0334(9) Uiso 1.000000 R .
C28 C 0.17293(13) 0.42854(9) -0.2943(2) 0.0165(6) Uani 1.000000 . .
C57 C 0.59010(13) 0.33082(9) -0.0350(2) 0.0164(6) Uani 1.000000 . .
H57 H 0.57474(13) 0.34085(9) -0.1061(2) 0.0197(7) Uiso 1.000000 R .
C69 C 0.78826(14) 0.33298(12) 0.0196(3) 0.0294(7) Uani 1.000000 . .
H69 H 0.83207(14) 0.33293(12) 0.0334(3) 0.0353(9) Uiso 1.000000 R .
C8 C 0.27335(13) 0.66087(11) -0.5940(3) 0.0239(6) Uani 1.000000 . .
H8 H 0.29481(13) 0.65313(11) -0.6575(3) 0.0287(8) Uiso 1.000000 R .
C52 C 0.45269(14) 0.24503(10) 0.3850(2) 0.0230(6) Uani 1.000000 . .
H52 H 0.46345(14) 0.25636(10) 0.4531(2) 0.0276(8) Uiso 1.000000 R .
C33 C 0.27239(15) 0.29841(10) -0.1202(3) 0.0266(7) Uani 1.000000 . .
H33 H 0.26103(15) 0.27627(10) -0.0687(3) 0.0320(9) Uiso 1.000000 R .
C71 C 0.70163(14) 0.31781(9) -0.0981(2) 0.0203(6) Uani 1.000000 . .
H71 H 0.68630(14) 0.30784(9) -0.1649(2) 0.0244(7) Uiso 1.000000 R .
C64 C 0.60387(13) 0.27646(10) 0.1876(2) 0.0177(6) Uani 1.000000 . .
C22 C 0.26678(13) 0.42267(9) -0.4099(2) 0.0157(6) Uani 1.000000 . .
H22 H 0.27758(13) 0.43165(9) -0.4841(2) 0.0188(7) Uiso 1.000000 R .
C29 C 0.21541(12) 0.45129(9) -0.2158(2) 0.0168(6) Uani 1.000000 . .
H29 H 0.19617(12) 0.47684(9) -0.1746(2) 0.0202(7) Uiso 1.000000 R .
C19 C 0.15486(14) 0.53726(11) -0.6044(3) 0.0265(7) Uani 1.000000 . .
H19 H 0.17382(14) 0.53050(11) -0.6706(3) 0.0318(8) Uiso 1.000000 R .
C61 C 0.60499(14) 0.18407(11) 0.1388(3) 0.0280(7) Uani 1.000000 . .
H61 H 0.60568(14) 0.15248(11) 0.1221(3) 0.0336(9) Uiso 1.000000 R .
C25 C 0.09475(14) 0.39262(11) -0.4494(3) 0.0262(7) Uani 1.000000 . .
H25 H 0.06798(14) 0.38085(11) -0.5030(3) 0.0314(8) Uiso 1.000000 R .
C43 C 0.29712(13) 0.31429(9) 0.2164(2) 0.0181(6) Uani 1.000000 . .
C17 C 0.06227(14) 0.54797(12) -0.4994(3) 0.0323(8) Uani 1.000000 . .
H17 H 0.01784(14) 0.54801(12) -0.4934(3) 0.0387(9) Uiso 1.000000 R .
C47 C 0.27320(14) 0.32759(10) 0.4002(3) 0.0232(6) Uani 1.000000 . .
H47 H 0.28438(14) 0.33962(10) 0.4675(3) 0.0279(8) Uiso 1.000000 R .
C70 C 0.76557(14) 0.31805(11) -0.0784(3) 0.0260(7) Uani 1.000000 . .
H70 H 0.79401(14) 0.30807(11) -0.1315(3) 0.0312(8) Uiso 1.000000 R .
C31 C 0.27323(13) 0.37648(9) -0.1800(2) 0.0171(6) Uani 1.000000 . .
C51 C 0.43266(12) 0.27476(9) 0.3076(2) 0.0170(6) Uani 1.000000 . .
C44 C 0.23868(13) 0.29402(10) 0.2030(3) 0.0227(6) Uani 1.000000 . .
H44 H 0.22636(13) 0.28326(10) 0.1351(3) 0.0272(8) Uiso 1.000000 R .
C18 C 0.08982(14) 0.53767(12) -0.5948(3) 0.0320(8) Uani 1.000000 . .
H18 H 0.06438(14) 0.53079(12) -0.6545(3) 0.0384(9) Uiso 1.000000 R .
C68 C 0.74630(14) 0.34795(11) 0.0969(3) 0.0252(7) Uani 1.000000 . .
H68 H 0.76166(14) 0.35880(11) 0.1629(3) 0.0303(8) Uiso 1.000000 R .
C11 C 0.21175(13) 0.68475(10) -0.4079(3) 0.0217(6) Uani 1.000000 . .
H11 H 0.19114(13) 0.69310(10) -0.3440(3) 0.0261(8) Uiso 1.000000 R .
C32 C 0.25692(13) 0.34441(10) -0.1050(2) 0.0206(6) Uani 1.000000 . .
H32 H 0.23516(13) 0.35351(10) -0.0428(2) 0.0247(7) Uiso 1.000000 R .
C34 C 0.30420(16) 0.28550(10) -0.2105(3) 0.0275(7) Uani 1.000000 . .
H34 H 0.31643(16) 0.25458(10) -0.2196(3) 0.0330(8) Uiso 1.000000 R .
C62 C 0.62621(14) 0.19876(11) 0.2368(3) 0.0266(7) Uani 1.000000 . .
H62 H 0.64117(14) 0.17722(11) 0.2870(3) 0.0320(9) Uiso 1.000000 R .
N3 N 0.45587(11) 0.37902(8) 0.01859(18) 0.0156(5) Uani 1.000000 . .
N4 N 0.49625(11) 0.40867(8) 0.19919(19) 0.0171(5) Uani 1.000000 . .
C37 C 0.42882(13) 0.36355(10) -0.0820(2) 0.0202(6) Uani 1.000000 . .
H37a H 0.4178(9) 0.3312(2) -0.0766(6) 0.0303(9) Uiso 1.000000 GR .
H37b H 0.3910(5) 0.3814(5) -0.0977(8) 0.0303(9) Uiso 1.000000 GR .
H37c H 0.4595(4) 0.3678(6) -0.1389(3) 0.0303(9) Uiso 1.000000 GR .
C2 C 0.40408(12) 0.48813(9) -0.2923(2) 0.0169(6) Uani 1.000000 . .
H2 H 0.43903(12) 0.46538(9) -0.2932(2) 0.0203(7) Uiso 1.000000 R .
C3 C 0.37753(13) 0.50378(9) -0.1976(2) 0.0160(6) Uani 1.000000 . .
H3 H 0.39219(13) 0.49247(9) -0.1271(2) 0.0192(7) Uiso 1.000000 R .
C4 C 0.29656(14) 0.54732(10) -0.1094(2) 0.0210(6) Uani 1.000000 . .
H4a H 0.3124(7) 0.5783(3) -0.0972(9) 0.0315(9) Uiso 1.000000 GR .
H4b H 0.25075(15) 0.5481(6) -0.1158(6) 0.0315(9) Uiso 1.000000 GR .
H4c H 0.3084(8) 0.5277(4) -0.0497(3) 0.0315(9) Uiso 1.000000 GR .
C38 C 0.49329(13) 0.41682(9) 0.0144(2) 0.0166(6) Uani 1.000000 . .
H38 H 0.50968(13) 0.42888(9) -0.0543(2) 0.0199(7) Uiso 1.000000 R .
C67 C 0.68207(12) 0.34705(9) 0.0778(2) 0.0170(6) Uani 1.000000 . .
C15 C 0.16412(13) 0.55819(9) -0.4206(2) 0.0170(6) Uani 1.000000 . .
C60 C 0.58283(14) 0.21506(10) 0.0653(3) 0.0240(7) Uani 1.000000 . .
H60 H 0.56796(14) 0.20469(10) -0.0014(3) 0.0288(8) Uiso 1.000000 R .
S1 S 0.44167(3) 0.60383(2) -0.35112(6) 0.01733(15) Uani 1.000000 . .
S2 S 0.35851(3) 0.46241(2) 0.16240(6) 0.01717(14) Uani 1.000000 . .
C39 C 0.51591(13) 0.43275(9) 0.1120(2) 0.0174(6) Uani 1.000000 . .
H39 H 0.54898(13) 0.45686(9) 0.1167(2) 0.0208(7) Uiso 1.000000 R .
F2 F 0.44117(11) 0.68999(6) -0.29171(17) 0.0429(5) Uani 1.000000 . .
F6 F 0.24145(9) 0.46766(8) 0.09864(17) 0.0422(5) Uani 1.000000 . .
F5 F 0.25303(9) 0.46306(7) 0.26784(16) 0.0410(5) Uani 1.000000 . .
O4 O 0.34977(9) 0.41294(6) 0.15490(17) 0.0197(4) Uani 1.000000 . .
F4 F 0.27408(10) 0.52582(6) 0.18695(19) 0.0450(5) Uani 1.000000 . .
O2 O 0.46204(11) 0.58246(8) -0.44744(17) 0.0303(5) Uani 1.000000 . .
O5 O 0.37814(10) 0.48341(7) 0.06492(17) 0.0271(5) Uani 1.000000 . .
O6 O 0.38945(11) 0.47805(7) 0.25623(18) 0.0297(5) Uani 1.000000 . .
C73 C 0.46027(16) 0.66389(11) -0.3722(3) 0.0276(7) Uani 1.000000 . .
O1 O 0.37352(9) 0.60600(7) -0.33577(16) 0.0185(4) Uani 1.000000 . .
F3 F 0.43349(11) 0.67956(7) -0.45976(17) 0.0479(6) Uani 1.000000 . .
O3 O 0.47579(10) 0.59122(8) -0.25759(18) 0.0296(5) Uani 1.000000 . .
F1 F 0.52182(10) 0.66950(7) -0.3834(2) 0.0503(6) Uani 1.000000 . .
C16 C 0.09869(14) 0.55828(11) -0.4121(3) 0.0266(7) Uani 1.000000 . .
H16 H 0.07932(14) 0.56541(11) -0.3464(3) 0.0319(8) Uiso 1.000000 R .
C74 C 0.27739(15) 0.48058(11) 0.1800(3) 0.0275(7) Uani 1.000000 . .
C24 C 0.15885(14) 0.39734(10) -0.4688(2) 0.0220(6) Uani 1.000000 . .
H24 H 0.17580(14) 0.38861(10) -0.5354(2) 0.0264(8) Uiso 1.000000 R .
C40 C 0.51901(14) 0.42486(10) 0.3026(2) 0.0206(6) Uani 1.000000 . .
H40a H 0.4874(4) 0.4448(5) 0.3347(7) 0.0309(9) Uiso 1.000000 GR .
H40b H 0.5266(9) 0.39867(11) 0.3491(6) 0.0309(9) Uiso 1.000000 GR .
H40c H 0.5582(5) 0.4419(6) 0.2928(3) 0.0309(9) Uiso 1.000000 GR .
C9 C 0.24371(15) 0.70294(11) -0.5852(3) 0.0298(7) Uani 1.000000 . .
H9 H 0.24515(15) 0.72383(11) -0.6426(3) 0.0357(9) Uiso 1.000000 R .
O0aa O 0.9260(2) 0.31833(14) 0.1695(3) 0.0895(12) Uani 1.000000 . .
C1aa C 0.9574(3) 0.28934(18) 0.3318(4) 0.0722(15) Uani 1.000000 . .
H1aa H 0.9983(3) 0.28414(18) 0.3670(4) 0.0866(18) Uiso 1.000000 R .
H1ab H 0.9265(3) 0.26733(18) 0.3604(4) 0.0866(18) Uiso 1.000000 R .
C75 C 0.9358(2) 0.33685(16) 0.3488(4) 0.0650(13) Uani 1.000000 . .
H75a H 0.9086(2) 0.33922(16) 0.4121(4) 0.0781(16) Uiso 1.000000 R .
H75b H 0.9717(2) 0.35805(16) 0.3564(4) 0.0781(16) Uiso 1.000000 R .
C76 C 0.9007(3) 0.3459(2) 0.2519(4) 0.0796(17) Uani 1.000000 . .
H76a H 0.9041(3) 0.3785(2) 0.2328(4) 0.096(2) Uiso 1.000000 R .
H76b H 0.8558(3) 0.3385(2) 0.2626(4) 0.096(2) Uiso 1.000000 R .
C0aa C 0.9635(3) 0.28426(18) 0.2144(4) 0.0680(13) Uani 1.000000 . .
H0aa H 0.9489(3) 0.25371(18) 0.1918(4) 0.0816(16) Uiso 1.000000 R .
H0ab H 1.0078(3) 0.28807(18) 0.1924(4) 0.0816(16) Uiso 1.000000 R .
H H 0.2594(15) 0.5047(11) -0.366(3) 0.024(8) Uiso 1.000000 . .
Ha H 0.4898(16) 0.3270(12) 0.171(3) 0.036(10) Uiso 1.000000 . .
O1aa O 0.0807(6) 0.4558(3) -0.8255(9) 0.138(5) Uiso 0.439(7) . -1
C8ba C 0.0987(5) 0.4271(3) -0.9132(6) 0.053(3) Uiso 0.439(7) G -1
C9ba C 0.1302(6) 0.3848(3) -0.8649(10) 0.149(12) Uiso 0.439(7) G -1
C0ca C 0.0947(7) 0.3803(4) -0.7593(9) 0.098(5) Uiso 0.439(7) G -1
C1ca C 0.0861(8) 0.4304(5) -0.7279(6) 0.207(17) Uiso 0.439(7) G -1
C2A C 0.1225(3) 0.3943(3) -0.7637(6) 0.0407(18) Uiso 0.561(7) . 1
C8A C 0.1158(5) 0.3847(3) -0.8829(7) 0.046(2) Uiso 0.561(7) . 1
C7A C 0.0540(4) 0.3977(3) -0.9134(7) 0.062(2) Uiso 0.561(7) . 1
O6A O 0.0337(3) 0.4313(2) -0.8392(5) 0.076(2) Uiso 0.561(7) . 1
C5A C 0.0754(5) 0.4321(3) -0.7503(8) 0.057(3) Uiso 0.561(7) . 1
O2aa O 0.4584(2) 0.07491(17) 0.1433(4) 0.0542(18) Uiso 0.503(6) . -1
C77 C 0.4500(4) 0.02608(16) 0.1404(7) 0.076(3) Uiso 0.503(6) G -1
C79 C 0.3885(5) 0.0577(3) 0.0012(7) 0.089(4) Uiso 0.503(6) G -1
C80 C 0.4154(4) 0.0962(2) 0.0701(6) 0.069(3) Uiso 0.503(6) G -1
C83 C 0.3912(7) 0.0541(5) -0.0652(12) 0.094(4) Uiso 0.497(6) . 1
C84 C 0.3880(7) 0.0136(5) 0.0087(11) 0.087(4) Uiso 0.497(6) . 1
O9A O 0.3875(4) 0.0328(3) 0.1034(7) 0.084(3) Uiso 0.497(6) . 1
C81 C 0.4124(5) 0.0790(4) 0.0979(9) 0.069(3) Uiso 0.497(6) . 1
C82 C 0.4356(7) 0.0844(5) -0.0153(12) 0.098(4) Uiso 0.497(6) . 1
C78 C 0.4284(7) 0.0135(5) 0.0407(11) 0.065(5) Uiso 0.384(18) . -1
loop_
_atom_site_aniso_label
_atom_site_aniso_U_11
_atom_site_aniso_U_22
_atom_site_aniso_U_33
_atom_site_aniso_U_12
_atom_site_aniso_U_13
_atom_site_aniso_U_23
Ru3 0.01202(10) 0.01354(10) 0.01159(10) -0.00028(9) -0.00081(8) -0.00074(9)
Ru1 0.01214(10) 0.01357(10) 0.01081(10) 0.00191(9) 0.00079(9) -0.00061(8)
Ru4 0.01149(10) 0.01459(10) 0.01224(10) 0.00002(9) -0.00141(8) -0.00005(9)
Ru2 0.01283(10) 0.01259(10) 0.01314(10) 0.00202(9) -0.00047(9) -0.00147(8)
C59 0.0142(13) 0.0179(14) 0.0242(15) 0.0012(11) 0.0044(12) 0.0014(12)
C50 0.0208(14) 0.0207(14) 0.0118(13) -0.0020(11) -0.0033(11) 0.0014(11)
C13 0.0149(13) 0.0181(14) 0.0138(13) 0.0047(11) 0.0039(11) -0.0026(11)
C66 0.0124(12) 0.0205(14) 0.0162(14) -0.0021(11) -0.0057(10) 0.0005(12)
C42 0.0154(14) 0.0165(14) 0.0177(15) -0.0007(11) -0.0031(11) -0.0027(11)
C21 0.0172(14) 0.0151(13) 0.0198(14) 0.0025(11) -0.0032(12) -0.0065(11)
N1 0.0111(11) 0.0155(11) 0.0179(13) 0.0009(9) 0.0010(9) -0.0019(10)
C23 0.0144(13) 0.0148(13) 0.0202(14) 0.0023(11) -0.0035(12) 0.0012(11)
C12 0.0132(12) 0.0172(13) 0.0193(14) -0.0004(11) -0.0017(11) 0.0003(12)
C49 0.0195(13) 0.0189(14) 0.0116(13) -0.0011(11) 0.0009(11) -0.0016(11)
C48 0.0198(15) 0.0116(13) 0.0215(15) 0.0023(11) 0.0024(12) 0.0016(11)
C35 0.0249(16) 0.0174(14) 0.0256(16) 0.0025(12) -0.0075(13) -0.0052(13)
C14 0.0134(13) 0.0183(13) 0.0166(13) 0.0066(11) 0.0056(11) 0.0010(11)
C26 0.0142(14) 0.0242(16) 0.042(2) -0.0000(12) -0.0032(14) 0.0080(14)
C56 0.0098(13) 0.0177(13) 0.0228(14) -0.0003(11) 0.0019(12) -0.0021(12)
C7 0.0124(13) 0.0200(15) 0.0186(14) 0.0013(11) -0.0002(11) 0.0037(11)
C65 0.0147(13) 0.0219(14) 0.0125(13) 0.0039(11) -0.0026(11) 0.0015(12)
C6 0.0132(13) 0.0261(14) 0.0094(12) 0.0015(12) 0.0011(11) 0.0025(11)
C20 0.0139(13) 0.0188(14) 0.0213(14) 0.0050(12) -0.0028(12) -0.0003(11)
C53 0.0315(17) 0.0245(16) 0.0317(18) 0.0044(14) 0.0015(15) 0.0106(14)
N2 0.0201(12) 0.0140(11) 0.0134(11) 0.0024(9) 0.0009(9) -0.0023(9)
C63 0.0157(14) 0.0288(16) 0.0241(16) 0.0015(12) 0.0023(12) 0.0050(13)
C10 0.0269(17) 0.0166(15) 0.042(2) 0.0027(13) -0.0023(14) 0.0055(14)
C46 0.0244(16) 0.0236(16) 0.037(2) 0.0002(12) 0.0135(14) 0.0004(14)
C36 0.0168(13) 0.0164(13) 0.0201(14) -0.0001(12) -0.0077(12) -0.0018(11)
C30 0.0187(14) 0.0168(14) 0.0158(14) -0.0013(11) 0.0003(11) -0.0013(11)
C55 0.0167(14) 0.0185(14) 0.0276(17) 0.0003(12) 0.0005(13) -0.0027(12)
C45 0.0167(14) 0.0238(15) 0.045(2) -0.0029(13) 0.0074(15) -0.0032(14)
C5 0.0177(14) 0.0208(15) 0.0115(13) 0.0059(11) 0.0008(11) -0.0029(11)
C1 0.0172(14) 0.0231(15) 0.0164(14) 0.0046(11) 0.0046(12) -0.0053(12)
C58 0.0133(14) 0.0165(14) 0.0187(14) 0.0012(11) -0.0008(11) -0.0029(11)
C41 0.0171(14) 0.0151(13) 0.0144(14) -0.0057(11) -0.0017(11) -0.0041(11)
C27 0.0194(15) 0.0202(15) 0.0252(16) 0.0049(12) 0.0030(13) 0.0063(13)
C72 0.0175(14) 0.0138(14) 0.0174(14) 0.0016(11) 0.0030(11) 0.0049(11)
C54 0.0242(16) 0.0156(15) 0.044(2) 0.0020(12) 0.0031(14) 0.0004(14)
C28 0.0162(13) 0.0143(13) 0.0190(14) 0.0032(10) -0.0028(11) 0.0047(11)
C57 0.0177(14) 0.0175(14) 0.0141(14) 0.0022(11) -0.0018(11) 0.0013(11)
C69 0.0142(15) 0.043(2) 0.0312(18) 0.0018(13) 0.0033(13) 0.0097(15)
C8 0.0168(14) 0.0318(16) 0.0231(16) -0.0007(12) 0.0020(13) 0.0069(14)
C52 0.0205(15) 0.0280(16) 0.0206(16) 0.0016(13) 0.0010(12) 0.0035(12)
C33 0.0298(17) 0.0189(15) 0.0313(19) -0.0056(13) -0.0135(14) 0.0033(13)
C71 0.0221(15) 0.0219(14) 0.0170(14) 0.0009(12) 0.0025(13) 0.0036(12)
C64 0.0134(13) 0.0186(14) 0.0210(15) 0.0010(11) 0.0008(11) 0.0037(12)
C22 0.0171(14) 0.0171(14) 0.0128(13) 0.0031(11) -0.0004(11) -0.0043(11)
C29 0.0172(13) 0.0151(13) 0.0182(14) 0.0004(10) 0.0053(11) -0.0010(11)
C19 0.0222(15) 0.0314(17) 0.0259(16) 0.0069(13) -0.0051(13) -0.0138(14)
C61 0.0228(16) 0.0211(16) 0.0402(19) 0.0032(12) 0.0047(15) 0.0011(15)
C25 0.0195(16) 0.0267(16) 0.0323(18) 0.0008(13) -0.0109(13) -0.0004(14)
C43 0.0178(14) 0.0134(13) 0.0230(14) 0.0012(11) 0.0031(13) -0.0005(11)
C17 0.0128(14) 0.0395(19) 0.044(2) 0.0040(13) -0.0015(14) -0.0163(16)
C47 0.0268(16) 0.0189(14) 0.0240(16) 0.0029(12) 0.0072(13) -0.0026(13)
C70 0.0198(15) 0.0303(17) 0.0279(18) 0.0058(13) 0.0086(13) 0.0066(14)
C31 0.0140(13) 0.0166(13) 0.0207(15) 0.0006(11) -0.0086(11) -0.0007(12)
C51 0.0113(13) 0.0204(14) 0.0192(15) 0.0000(11) 0.0025(11) 0.0008(12)
C44 0.0174(14) 0.0196(15) 0.0310(17) 0.0024(12) 0.0007(13) -0.0023(13)
C18 0.0177(15) 0.0425(19) 0.0359(18) 0.0074(14) -0.0092(14) -0.0164(16)
C68 0.0199(15) 0.0352(18) 0.0206(15) -0.0007(13) -0.0012(13) 0.0056(13)
C11 0.0224(15) 0.0198(14) 0.0230(15) 0.0012(12) -0.0006(12) -0.0019(13)
C32 0.0172(14) 0.0220(15) 0.0226(16) -0.0039(11) -0.0059(12) 0.0022(12)
C34 0.0384(18) 0.0125(13) 0.0316(17) 0.0023(13) -0.0174(16) -0.0033(12)
C62 0.0186(15) 0.0246(16) 0.0368(19) 0.0067(13) 0.0046(14) 0.0124(14)
N3 0.0140(11) 0.0185(11) 0.0144(11) 0.0003(10) -0.0017(10) 0.0014(9)
N4 0.0169(12) 0.0177(12) 0.0168(12) 0.0004(10) -0.0016(10) -0.0016(10)
C37 0.0191(14) 0.0300(16) 0.0116(13) -0.0036(13) -0.0031(11) 0.0025(12)
C2 0.0122(13) 0.0170(14) 0.0215(14) 0.0005(10) -0.0026(12) 0.0009(11)
C3 0.0176(14) 0.0143(13) 0.0162(14) -0.0008(11) -0.0022(11) -0.0009(11)
C4 0.0309(16) 0.0218(14) 0.0103(13) 0.0036(13) 0.0024(12) -0.0017(11)
C38 0.0139(13) 0.0174(14) 0.0186(14) 0.0017(11) 0.0016(11) 0.0048(11)
C67 0.0127(13) 0.0196(14) 0.0187(15) -0.0018(10) -0.0004(11) 0.0058(11)
C15 0.0148(13) 0.0128(13) 0.0236(15) 0.0033(11) 0.0007(11) -0.0011(12)
C60 0.0222(15) 0.0223(15) 0.0276(17) -0.0007(13) 0.0040(13) -0.0020(12)
S1 0.0149(3) 0.0198(3) 0.0173(4) -0.0021(3) 0.0006(3) -0.0008(3)
S2 0.0183(3) 0.0157(3) 0.0175(3) 0.0026(3) 0.0005(3) 0.0002(3)
C39 0.0159(14) 0.0152(13) 0.0211(15) 0.0003(11) 0.0001(11) 0.0027(11)
F2 0.0650(15) 0.0230(9) 0.0406(12) -0.0115(9) 0.0173(11) -0.0068(9)
F6 0.0227(10) 0.0579(13) 0.0460(12) 0.0124(9) -0.0086(9) -0.0090(11)
F5 0.0387(11) 0.0437(12) 0.0406(12) 0.0048(9) 0.0219(10) -0.0025(10)
O4 0.0178(10) 0.0142(10) 0.0272(12) 0.0021(8) -0.0017(9) -0.0005(9)
F4 0.0439(12) 0.0237(10) 0.0674(15) 0.0165(9) 0.0104(11) -0.0036(10)
O2 0.0281(12) 0.0361(13) 0.0268(12) -0.0048(10) 0.0111(10) -0.0124(10)
O5 0.0257(11) 0.0271(12) 0.0284(12) 0.0043(9) 0.0041(10) 0.0116(9)
O6 0.0338(13) 0.0278(12) 0.0276(12) 0.0015(10) -0.0099(10) -0.0077(10)
C73 0.0286(17) 0.0292(16) 0.0252(16) -0.0086(14) 0.0047(14) 0.0045(14)
O1 0.0147(10) 0.0195(10) 0.0214(11) -0.0017(8) 0.0005(8) -0.0017(8)
F3 0.0632(15) 0.0425(12) 0.0381(12) -0.0080(11) -0.0020(11) 0.0228(10)
O3 0.0279(12) 0.0319(12) 0.0291(12) -0.0024(10) -0.0129(9) 0.0027(10)
F1 0.0361(12) 0.0434(12) 0.0714(17) -0.0213(10) 0.0134(11) 0.0036(12)
C16 0.0183(15) 0.0308(17) 0.0306(17) 0.0065(13) 0.0028(13) -0.0043(15)
C74 0.0261(16) 0.0266(16) 0.0299(18) 0.0067(13) 0.0039(14) -0.0043(14)
C24 0.0203(15) 0.0203(15) 0.0256(17) 0.0044(12) -0.0048(13) -0.0017(13)
C40 0.0227(15) 0.0220(15) 0.0171(15) -0.0028(12) -0.0050(12) -0.0033(12)
C9 0.0279(17) 0.0283(17) 0.0331(19) -0.0031(14) -0.0032(15) 0.0141(14)
O0aa 0.119(3) 0.089(3) 0.061(2) 0.009(2) -0.032(2) 0.004(2)
C1aa 0.099(4) 0.070(3) 0.047(3) 0.016(3) -0.001(3) 0.004(2)
C75 0.074(3) 0.063(3) 0.058(3) 0.008(2) -0.016(3) -0.004(2)
C76 0.069(3) 0.096(4) 0.074(4) 0.025(3) -0.013(3) 0.005(3)
C0aa 0.083(4) 0.066(3) 0.055(3) 0.001(3) 0.007(3) -0.003(3)
loop_
_atom_type_symbol
_atom_type_scat_dispersion_real
_atom_type_scat_dispersion_imag
_atom_type_scat_Cromer_Mann_a1
_atom_type_scat_Cromer_Mann_a2
_atom_type_scat_Cromer_Mann_a3
_atom_type_scat_Cromer_Mann_a4
_atom_type_scat_Cromer_Mann_b1
_atom_type_scat_Cromer_Mann_b2
_atom_type_scat_Cromer_Mann_b3
_atom_type_scat_Cromer_Mann_b4
_atom_type_scat_Cromer_Mann_c
_atom_type_scat_source
_atom_type_scat_dispersion_source
Ru -1.23940 0.83517 19.26740 12.91820 4.86337 1.56756 0.80852 8.43467 24.79970
94.29280 5.37873983383
'International Tables Volume C Table 6.1.1.4 (pp. 500-502)'
'Henke, Gullikson and Davis, At. Data and Nucl. Data Tables, 1993, 54, 2'
C 0.00347 0.00161 2.31000 1.02000 1.58860 0.86500 20.84390 10.20750 0.56870
51.65120 0.215599998832
'International Tables Volume C Table 6.1.1.4 (pp. 500-502)'
'Henke, Gullikson and Davis, At. Data and Nucl. Data Tables, 1993, 54, 2'
F 0.01794 0.01033 3.53920 2.64120 1.51700 1.02430 10.28250 4.29440 0.26150
26.14760 0.277599990368
'International Tables Volume C Table 6.1.1.4 (pp. 500-502)'
'Henke, Gullikson and Davis, At. Data and Nucl. Data Tables, 1993, 54, 2'
H 0.00000 0.00000 0.49300 0.32291 0.14019 0.04081 10.51090 26.12570 3.14236
57.79970 0.0030380000826
'International Tables Volume C Table 6.1.1.4 (pp. 500-502)'
'Henke, Gullikson and Davis, At. Data and Nucl. Data Tables, 1993, 54, 2'
O 0.01158 0.00611 3.04850 2.28680 1.54630 0.86700 13.27710 5.70110 0.32390
32.90890 0.250800013542
'International Tables Volume C Table 6.1.1.4 (pp. 500-502)'
'Henke, Gullikson and Davis, At. Data and Nucl. Data Tables, 1993, 54, 2'
N 0.00653 0.00323 12.21260 3.13220 2.01250 1.16630 0.00570 9.89330 28.99750
0.58260 -11.5290002823
'International Tables Volume C Table 6.1.1.4 (pp. 500-502)'
'Henke, Gullikson and Davis, At. Data and Nucl. Data Tables, 1993, 54, 2'
S 0.12424 0.12443 6.90530 5.20340 1.43790 1.58630 1.46790 22.21510 0.25360
56.17200 0.866900026798
'International Tables Volume C Table 6.1.1.4 (pp. 500-502)'
'Henke, Gullikson and Davis, At. Data and Nucl. Data Tables, 1993, 54, 2'
loop_
_geom_angle_atom_site_label_1
_geom_angle_atom_site_label_2
_geom_angle_atom_site_label_3
_geom_angle
C50 Ru3 Ru4 101.02(7)
C42 Ru3 Ru4 129.25(7)
C42 Ru3 C50 91.89(11)
C49 Ru3 Ru4 134.94(7)
C49 Ru3 C50 37.34(10)
C49 Ru3 C42 80.00(10)
C41 Ru3 Ru4 96.13(7)
C41 Ru3 C50 80.15(10)
C41 Ru3 C42 37.95(10)
C41 Ru3 C49 92.21(10)
N3 Ru3 Ru4 51.52(6)
N3 Ru3 C50 151.44(10)
N3 Ru3 C42 100.45(10)
N3 Ru3 C49 170.48(10)
N3 Ru3 C41 93.87(10)
N4 Ru3 Ru4 51.92(6)
N4 Ru3 C50 95.06(10)
N4 Ru3 C42 172.51(10)
N4 Ru3 C49 103.96(9)
N4 Ru3 C41 146.51(9)
N4 Ru3 N3 74.57(9)
O4 Ru3 Ru4 130.39(5)
O4 Ru3 C50 119.18(9)
O4 Ru3 C42 79.92(9)
O4 Ru3 C49 82.20(9)
O4 Ru3 C41 117.20(9)
O4 Ru3 N3 88.50(8)
O4 Ru3 N4 94.22(8)
C13 Ru1 Ru2 130.55(7)
N1 Ru1 Ru2 51.66(6)
N1 Ru1 C13 171.83(10)
C14 Ru1 Ru2 98.23(7)
C14 Ru1 C13 37.59(10)
C14 Ru1 N1 148.19(9)
C6 Ru1 Ru2 134.68(7)
C6 Ru1 C13 80.91(11)
C6 Ru1 N1 102.38(10)
C6 Ru1 C14 92.66(10)
N2 Ru1 Ru2 51.84(6)
N2 Ru1 C13 100.46(10)
N2 Ru1 N1 74.87(9)
N2 Ru1 C14 95.02(10)
N2 Ru1 C6 168.91(10)
C5 Ru1 Ru2 102.09(7)
C5 Ru1 C13 91.55(10)
C5 Ru1 N1 95.53(9)
C5 Ru1 C14 79.68(10)
C5 Ru1 C6 37.18(10)
C5 Ru1 N2 152.74(10)
O1 Ru1 Ru2 128.68(5)
O1 Ru1 C13 80.06(9)
O1 Ru1 N1 92.91(8)
O1 Ru1 C14 117.04(9)
O1 Ru1 C6 82.20(9)
O1 Ru1 N2 87.19(8)
O1 Ru1 C5 119.17(9)
C66 Ru4 Ru3 139.12(7)
C65 Ru4 Ru3 109.26(8)
C65 Ru4 C66 39.30(10)
C58 Ru4 Ru3 108.89(7)
C58 Ru4 C66 93.98(11)
C58 Ru4 C65 82.59(11)
C57 Ru4 Ru3 138.27(7)
C57 Ru4 C66 79.70(10)
C57 Ru4 C65 94.06(10)
C57 Ru4 C58 38.98(10)
N3 Ru4 Ru3 50.97(6)
N3 Ru4 C66 159.74(10)
N3 Ru4 C65 159.26(10)
N3 Ru4 C58 97.44(9)
N3 Ru4 C57 98.91(10)
N4 Ru4 Ru3 51.37(6)
N4 Ru4 C66 100.01(10)
N4 Ru4 C65 99.06(10)
N4 Ru4 C58 159.75(10)
N4 Ru4 C57 158.62(10)
N4 Ru4 N3 73.90(9)
C38 Ru4 Ru3 74.23(7)
C38 Ru4 C66 123.68(10)
C38 Ru4 C65 156.47(11)
C38 Ru4 C58 119.01(11)
C38 Ru4 C57 97.89(10)
C38 Ru4 N3 36.16(9)
C38 Ru4 N4 64.22(10)
C39 Ru4 Ru3 74.67(7)
C39 Ru4 C66 98.90(10)
C39 Ru4 C65 120.79(11)
C39 Ru4 C58 154.56(11)
C39 Ru4 C57 122.45(10)
C39 Ru4 N3 64.55(9)
C39 Ru4 N4 36.21(10)
C39 Ru4 C38 36.34(10)
C21 Ru2 Ru1 137.66(8)
N1 Ru2 Ru1 51.18(6)
N1 Ru2 C21 98.02(10)
N2 Ru2 Ru1 50.63(6)
N2 Ru2 C21 159.09(9)
N2 Ru2 N1 73.85(8)
C30 Ru2 Ru1 139.74(7)
C30 Ru2 C21 80.23(11)
C30 Ru2 N1 158.05(9)
C30 Ru2 N2 100.04(10)
C22 Ru2 Ru1 109.51(8)
C22 Ru2 C21 39.30(10)
C22 Ru2 N1 98.93(10)
C22 Ru2 N2 159.19(10)
C22 Ru2 C30 93.42(10)
C29 Ru2 Ru1 110.70(7)
C29 Ru2 C21 94.68(11)
C29 Ru2 N1 161.35(9)
C29 Ru2 N2 98.33(9)
C29 Ru2 C30 38.53(10)
C29 Ru2 C22 82.41(11)
C2 Ru2 Ru1 74.30(7)
C2 Ru2 C21 97.49(10)
C2 Ru2 N1 36.29(9)
C2 Ru2 N2 64.38(9)
C2 Ru2 C30 121.91(10)
C2 Ru2 C22 120.83(10)
C2 Ru2 C29 154.08(11)
C3 Ru2 Ru1 73.76(7)
C3 Ru2 C21 123.05(10)
C3 Ru2 N1 64.22(9)
C3 Ru2 N2 36.04(9)
C3 Ru2 C30 98.19(10)
C3 Ru2 C22 156.44(10)
C3 Ru2 C29 118.99(10)
C3 Ru2 C2 36.24(10)
C64 C59 C58 118.4(2)
C60 C59 C58 121.7(3)
C60 C59 C64 119.7(3)
C49 C50 Ru3 70.95(16)
C51 C50 Ru3 110.28(18)
C51 C50 C49 123.5(2)
C12 C13 Ru1 110.34(18)
C14 C13 Ru1 72.19(15)
C14 C13 C12 121.8(3)
C65 C66 Ru4 69.46(14)
C67 C66 Ru4 112.89(18)
C67 C66 C65 119.8(3)
C41 C42 Ru3 72.01(15)
C43 C42 Ru3 111.69(19)
C43 C42 C41 121.8(3)
C36 C21 Ru2 112.30(19)
C22 C21 Ru2 69.59(15)
C22 C21 C36 122.0(2)
Ru2 N1 Ru1 77.16(7)
C1 N1 Ru1 127.02(18)
C1 N1 Ru2 126.34(18)
C2 N1 Ru1 115.18(17)
C2 N1 Ru2 75.61(15)
C2 N1 C1 116.6(2)
C22 C23 C28 118.5(2)
C24 C23 C28 119.9(3)
C24 C23 C22 121.4(3)
C7 C12 C13 118.2(2)
C11 C12 C13 121.8(3)
C11 C12 C7 120.0(3)
C50 C49 Ru3 71.71(16)
C48 C49 Ru3 110.84(19)
C48 C49 C50 121.8(2)
C43 C48 C49 117.7(2)
C47 C48 C49 123.2(3)
C47 C48 C43 119.0(3)
C34 C35 C36 120.0(3)
C13 C14 Ru1 70.22(15)
C15 C14 Ru1 110.66(18)
C15 C14 C13 121.5(2)
C25 C26 C27 120.1(3)
C41 C56 C55 120.5(3)
C51 C56 C55 120.0(3)
C51 C56 C41 119.3(2)
C6 C7 C12 118.7(2)
C8 C7 C12 119.3(3)
C8 C7 C6 122.0(3)
C66 C65 Ru4 71.24(15)
C64 C65 Ru4 109.43(19)
C64 C65 C66 123.1(3)
C7 C6 Ru1 109.62(18)
C5 C6 Ru1 72.25(15)
C5 C6 C7 121.3(2)
C19 C20 C5 121.7(3)
C15 C20 C5 118.6(2)
C15 C20 C19 119.8(3)
C52 C53 C54 119.9(3)
Ru2 N2 Ru1 77.53(8)
C3 N2 Ru1 115.75(18)
C3 N2 Ru2 76.14(15)
C4 N2 Ru1 125.40(17)
C4 N2 Ru2 129.57(18)
C4 N2 C3 116.6(2)
C62 C63 C64 120.0(3)
C9 C10 C11 119.9(3)
C47 C46 C45 119.8(3)
C35 C36 C21 123.3(3)
C31 C36 C21 117.6(2)
C31 C36 C35 119.1(3)
C29 C30 Ru2 70.04(16)
C31 C30 Ru2 111.76(19)
C31 C30 C29 121.5(2)
C54 C55 C56 119.1(3)
C44 C45 C46 120.1(3)
C6 C5 Ru1 70.57(15)
C20 C5 Ru1 110.87(18)
C20 C5 C6 122.5(2)
C59 C58 Ru4 108.94(19)
C57 C58 Ru4 71.11(15)
C57 C58 C59 122.7(2)
C42 C41 Ru3 70.04(15)
C56 C41 Ru3 109.76(17)
C56 C41 C42 123.3(2)
C28 C27 C26 120.1(3)
C71 C72 C57 122.6(3)
C67 C72 C57 117.3(2)
C67 C72 C71 120.1(3)
C55 C54 C53 120.6(3)
C27 C28 C23 119.9(3)
C29 C28 C23 118.3(2)
C29 C28 C27 121.7(3)
C58 C57 Ru4 69.91(16)
C72 C57 Ru4 112.65(19)
C72 C57 C58 119.9(2)
C68 C69 C70 119.7(3)
C9 C8 C7 120.2(3)
C51 C52 C53 120.6(3)
C34 C33 C32 119.6(3)
C70 C71 C72 120.1(3)
C65 C64 C59 118.0(2)
C63 C64 C59 119.7(3)
C63 C64 C65 122.1(3)
C21 C22 Ru2 71.11(15)
C23 C22 Ru2 109.20(18)
C23 C22 C21 123.9(3)
C30 C29 Ru2 71.44(16)
C28 C29 Ru2 109.16(18)
C28 C29 C30 121.7(2)
C18 C19 C20 119.7(3)
C60 C61 C62 120.4(3)
C24 C25 C26 120.1(3)
C48 C43 C42 118.0(2)
C44 C43 C42 122.0(3)
C44 C43 C48 120.0(3)
C16 C17 C18 120.5(3)
C46 C47 C48 120.9(3)
C71 C70 C69 120.0(3)
C30 C31 C36 116.9(2)
C32 C31 C36 120.5(3)
C32 C31 C30 122.5(3)
C56 C51 C50 118.1(2)
C52 C51 C50 121.9(3)
C52 C51 C56 119.9(3)
C43 C44 C45 120.1(3)
C17 C18 C19 120.3(3)
C67 C68 C69 120.2(3)
C10 C11 C12 119.9(3)
C31 C32 C33 120.1(3)
C33 C34 C35 120.6(3)
C61 C62 C63 120.1(3)
Ru4 N3 Ru3 77.51(8)
C37 N3 Ru3 125.02(17)
C37 N3 Ru4 130.34(18)
C38 N3 Ru3 115.96(18)
C38 N3 Ru4 76.14(15)
C38 N3 C37 116.6(2)
Ru4 N4 Ru3 76.71(8)
C39 N4 Ru3 115.50(18)
C39 N4 Ru4 75.38(16)
C40 N4 Ru3 126.89(18)
C40 N4 Ru4 126.97(18)
C40 N4 C39 116.4(2)
N1 C2 Ru2 68.10(14)
C3 C2 Ru2 72.34(16)
C3 C2 N1 115.5(2)
N2 C3 Ru2 67.82(14)
C2 C3 Ru2 71.42(15)
C2 C3 N2 115.7(2)
N3 C38 Ru4 67.71(15)
C39 C38 Ru4 71.88(16)
C39 C38 N3 115.9(2)
C72 C67 C66 117.0(2)
C68 C67 C66 123.1(3)
C68 C67 C72 119.8(3)
C20 C15 C14 118.7(2)
C16 C15 C14 121.5(3)
C16 C15 C20 119.8(3)
C61 C60 C59 120.1(3)
C73 S1 O2 103.41(14)
O1 S1 O2 115.50(13)
O1 S1 C73 101.11(14)
O3 S1 O2 115.55(14)
O3 S1 C73 104.99(14)
O3 S1 O1 113.85(13)
O5 S2 O4 113.92(13)
O6 S2 O4 115.42(13)
O6 S2 O5 115.91(14)
C74 S2 O4 100.17(13)
C74 S2 O5 104.79(14)
C74 S2 O6 104.03(14)
N4 C39 Ru4 68.40(14)
C38 C39 Ru4 71.79(16)
C38 C39 N4 115.3(2)
S2 O4 Ru3 126.77(11)
F2 C73 S1 112.1(2)
F3 C73 S1 111.3(2)
F3 C73 F2 107.7(3)
F1 C73 S1 110.4(2)
F1 C73 F2 108.1(3)
F1 C73 F3 107.1(3)
S1 O1 Ru1 128.47(12)
C15 C16 C17 119.9(3)
F6 C74 S2 111.5(2)
F5 C74 S2 111.1(2)
F5 C74 F6 108.0(3)
F4 C74 S2 110.5(2)
F4 C74 F6 107.6(3)
F4 C74 F5 108.1(3)
C25 C24 C23 119.8(3)
C8 C9 C10 120.5(3)
C0aa O0aa C76 108.9(4)
C0aa C1aa C75 105.3(4)
C76 C75 C1aa 102.0(4)
C75 C76 O0aa 108.4(4)
C1aa C0aa O0aa 106.3(4)
Ru2 H Ru1 102.7(16)
Ru4 Ha Ru3 102.7(18)
C1ca O1aa C8ba 109.5
C9ba C8ba O1aa 106.4
C0ca C9ba C8ba 101.5
C1ca C0ca C9ba 101.5
C0ca C1ca O1aa 106.4
C5A C2A C8A 100.5(7)
C7A C8A C2A 107.6(7)
O6A C7A C8A 106.7(7)
C5A O6A C7A 109.8(7)
O6A C5A C2A 108.2(7)
C80 O2aa C77 109.5
C78 C77 O2aa 109.1(7)
C78 C79 C80 102.5(5)
C79 C80 O2aa 106.4
C82 C83 C84 104.1(12)
O9A C84 C83 103.0(11)
C81 O9A C84 110.5(9)
C82 C81 O9A 105.0(10)
C81 C82 C83 97.7(11)
C79 C78 C77 103.8(9)
loop_
_geom_bond_atom_site_label_1
_geom_bond_atom_site_label_2
_geom_bond_distance
Ru3 Ru4 2.6722(5)
Ru3 C50 2.197(3)
Ru3 C42 2.169(3)
Ru3 C49 2.187(3)
Ru3 C41 2.195(3)
Ru3 N3 2.126(2)
Ru3 N4 2.145(2)
Ru3 O4 2.1878(19)
Ru1 Ru2 2.6725(6)
Ru1 C13 2.177(3)
Ru1 N1 2.136(2)
Ru1 C14 2.202(3)
Ru1 C6 2.177(3)
Ru1 N2 2.116(2)
Ru1 C5 2.198(3)
Ru1 O1 2.1895(19)
Ru4 C66 2.155(2)
Ru4 C65 2.131(3)
Ru4 C58 2.134(3)
Ru4 C57 2.150(3)
Ru4 N3 2.143(2)
Ru4 N4 2.161(2)
Ru4 C38 2.248(3)
Ru4 C39 2.249(3)
Ru2 C21 2.147(3)
Ru2 N1 2.150(2)
Ru2 N2 2.152(2)
Ru2 C30 2.160(3)
Ru2 C22 2.127(3)
Ru2 C29 2.142(3)
Ru2 C2 2.244(3)
Ru2 C3 2.256(3)
C59 C58 1.501(4)
C59 C64 1.399(4)
C59 C60 1.392(4)
C50 C49 1.404(4)
C50 C51 1.495(4)
C13 C12 1.484(4)
C13 C14 1.411(4)
C66 C65 1.441(4)
C66 C67 1.490(4)
C42 C41 1.419(4)
C42 C43 1.482(4)
C21 C36 1.488(4)
C21 C22 1.437(4)
N1 C1 1.480(3)
N1 C2 1.371(4)
C23 C28 1.383(4)
C23 C22 1.505(4)
C23 C24 1.395(4)
C12 C7 1.406(4)
C12 C11 1.392(4)
C49 C48 1.493(4)
C48 C43 1.410(4)
C48 C47 1.385(4)
C35 C36 1.400(4)
C35 C34 1.392(4)
C14 C15 1.495(4)
C26 C27 1.382(4)
C26 C25 1.383(5)
C56 C55 1.395(4)
C56 C41 1.490(4)
C56 C51 1.395(4)
C7 C6 1.490(4)
C7 C8 1.386(4)
C65 C64 1.492(4)
C6 C5 1.395(4)
C20 C5 1.498(4)
C20 C19 1.398(4)
C20 C15 1.385(4)
C53 C54 1.375(5)
C53 C52 1.388(4)
N2 C3 1.367(4)
N2 C4 1.475(3)
C63 C64 1.397(4)
C63 C62 1.384(4)
C10 C11 1.390(4)
C10 C9 1.381(5)
C46 C45 1.383(5)
C46 C47 1.396(4)
C36 C31 1.398(4)
C30 C29 1.419(4)
C30 C31 1.509(4)
C55 C54 1.400(4)
C45 C44 1.395(4)
C58 C57 1.429(4)
C27 C28 1.401(4)
C72 C57 1.496(4)
C72 C71 1.396(4)
C72 C67 1.394(4)
C28 C29 1.499(4)
C69 C70 1.399(5)
C69 C68 1.395(4)
C8 C9 1.390(5)
C52 C51 1.377(4)
C33 C32 1.401(4)
C33 C34 1.379(5)
C71 C70 1.385(4)
C19 C18 1.392(4)
C61 C62 1.385(5)
C61 C60 1.382(4)
C25 C24 1.395(4)
C43 C44 1.390(4)
C17 C18 1.373(5)
C17 C16 1.381(5)
C31 C32 1.379(4)
C68 C67 1.391(4)
N3 C37 1.467(3)
N3 C38 1.366(4)
N4 C39 1.373(4)
N4 C40 1.471(4)
C2 C3 1.400(4)
C38 C39 1.402(4)
C15 C16 1.399(4)
S1 O2 1.435(2)
S1 C73 1.824(3)
S1 O1 1.467(2)
S1 O3 1.435(2)
S2 O4 1.465(2)
S2 O5 1.438(2)
S2 O6 1.431(2)
S2 C74 1.823(3)
F2 C73 1.336(4)
F6 C74 1.336(4)
F5 C74 1.327(4)
F4 C74 1.331(4)
C73 F3 1.326(4)
C73 F1 1.330(4)
O0aa C76 1.423(6)
O0aa C0aa 1.399(6)
C1aa C75 1.482(6)
C1aa C0aa 1.495(6)
C75 C76 1.458(7)
O1aa C8ba 1.4432
O1aa C1ca 1.4434
C8ba C9ba 1.5353
C9ba C0ca 1.5390
C0ca C1ca 1.5347
C2A C8A 1.538(11)
C2A C5A 1.506(11)
C8A C7A 1.423(13)
C7A O6A 1.427(11)
O6A C5A 1.432(13)
O2aa C77 1.4432
O2aa C80 1.4430
C77 C78 1.390(16)
C79 C80 1.5352
C79 C78 1.628(17)
C83 C84 1.512(18)
C83 C82 1.443(19)
C84 O9A 1.320(15)
O9A C81 1.459(14)
C81 C82 1.520(18)
