#------------------------------------------------------------------------------
#$Date: 2018-11-21 01:21:47 +0200 (Wed, 21 Nov 2018) $
#$Revision: 212078 $
#$URL: file:///home/coder/svn-repositories/cod/cif/1/55/02/1550263.cif $
#------------------------------------------------------------------------------
#
# This file is available in the Crystallography Open Database (COD),
# http://www.crystallography.net/
#
# All data on this site have been placed in the public domain by the
# contributors.
#
data_1550263
loop_
_publ_author_name
'Milton, Margarita'
'Schuster, Nathaniel J.'
'Paley, Daniel W.'
'Hern\'andez S\'anchez, Ra\'ul'
'Ng, Fay'
'Steigerwald, Michael L.'
'Nuckolls, Colin'
_publ_section_title
;
 Defying strain in the synthesis of an electroactive bilayer helicene
;
_journal_name_full               'Chemical Science'
_journal_paper_doi               10.1039/C8SC04216K
_journal_year                    2019
_chemical_formula_moiety         'C116 H130 N4 O10, C7 H5 F3'
_chemical_formula_sum            'C123 H135 F3 N4 O10'
_chemical_formula_weight         1886.34
_space_group_crystal_system      triclinic
_space_group_IT_number           2
_space_group_name_Hall           '-P 1'
_space_group_name_H-M_alt        'P -1'
_symmetry_space_group_name_Hall  '-P 1'
_symmetry_space_group_name_H-M   'P -1'
_atom_sites_solution_hydrogens   geom
_audit_creation_date             2018-09-18
_audit_creation_method
;
Olex2 1.2
(compiled 2018.05.29 svn.r3510 for OlexSys, GUI svn.r5506)
;
_audit_update_record
;
2018-09-19 deposited with the CCDC.
2018-11-09 downloaded from the CCDC.
;
_cell_angle_alpha                68.468(15)
_cell_angle_beta                 77.568(14)
_cell_angle_gamma                82.152(13)
_cell_formula_units_Z            2
_cell_length_a                   16.011(3)
_cell_length_b                   17.232(3)
_cell_length_c                   19.864(3)
_cell_measurement_reflns_used    1535
_cell_measurement_temperature    99.8(5)
_cell_measurement_theta_max      37.9660
_cell_measurement_theta_min      3.8120
_cell_volume                     4968.5(16)
_computing_cell_refinement       'CrysAlisPro 1.171.38.46 (Rigaku OD, 2015)'
_computing_data_collection       'CrysAlisPro 1.171.38.46 (Rigaku OD, 2015)'
_computing_data_reduction        'CrysAlisPro 1.171.38.46 (Rigaku OD, 2015)'
_computing_molecular_graphics    'Olex2 (Dolomanov et al., 2009)'
_computing_publication_material  'Olex2 (Dolomanov et al., 2009)'
_computing_structure_refinement  'SHELXL-2018/3 (Sheldrick, 2018)'
_diffrn_ambient_environment      N~2~
_diffrn_ambient_temperature      99.8(5)
_diffrn_detector                 'CCD plate'
_diffrn_detector_area_resol_mean 8.0549
_diffrn_detector_type            EosS2
_diffrn_measured_fraction_theta_full 0.954
_diffrn_measured_fraction_theta_max 0.954
_diffrn_measurement_details
;
List of Runs (angles in degrees, time in seconds):

  # Type    Start    End  Width  t~exp~   \w     \q     \k     \f   Frames
#--------------------------------------------------------------------------
  1  \w   -110.00 -35.00   1.00   10.00    --  -37.78-178.00 -60.00   75
  2  \w    -57.00  31.00   1.00   10.00    --  -37.78  37.00 -90.00   88
  3  \w   -105.00 -11.00   1.00   10.00    --  -37.78 -77.00  90.00   94
  4  \w   -105.00 -11.00   1.00   10.00    --  -37.78 -77.00 120.00   94
  5  \w   -109.00  -8.00   1.00   10.00    --  -37.78 -19.00 -90.00  101
  6  \w   -105.00 -11.00   1.00   10.00    --  -37.78 -77.00-120.00   94
  7  \w      1.00  77.00   1.00   10.00    --   37.78 -99.00-180.00   76
  8  \w     44.00 111.00   1.00   10.00    --   37.78-162.00 119.00   67
  9  \w      1.00  77.00   1.00   10.00    --   37.78 -99.00 -30.00   76
;
_diffrn_measurement_device       'four-circle diffractometer'
_diffrn_measurement_device_type  'SuperNova, Dual, Cu at zero, EosS2'
_diffrn_measurement_method       '\w scans'
_diffrn_orient_matrix_type
'CrysAlisPro convention (1999,Acta A55,543-557)'
_diffrn_orient_matrix_UB_11      0.0523121000
_diffrn_orient_matrix_UB_12      -0.0604841000
_diffrn_orient_matrix_UB_13      0.0569967000
_diffrn_orient_matrix_UB_21      0.0617140000
_diffrn_orient_matrix_UB_22      -0.0236837000
_diffrn_orient_matrix_UB_23      -0.0615430000
_diffrn_orient_matrix_UB_31      0.0565897000
_diffrn_orient_matrix_UB_32      0.0710993000
_diffrn_orient_matrix_UB_33      -0.0120741000
_diffrn_radiation_monochromator  mirror
_diffrn_radiation_probe          x-ray
_diffrn_radiation_type           CuK\a
_diffrn_radiation_wavelength     1.54184
_diffrn_reflns_av_R_equivalents  0.0894
_diffrn_reflns_av_unetI/netI     0.1413
_diffrn_reflns_Laue_measured_fraction_full 0.954
_diffrn_reflns_Laue_measured_fraction_max 0.954
_diffrn_reflns_limit_h_max       12
_diffrn_reflns_limit_h_min       -12
_diffrn_reflns_limit_k_max       13
_diffrn_reflns_limit_k_min       -13
_diffrn_reflns_limit_l_max       15
_diffrn_reflns_limit_l_min       -15
_diffrn_reflns_number            13770
_diffrn_reflns_point_group_measured_fraction_full 0.954
_diffrn_reflns_point_group_measured_fraction_max 0.954
_diffrn_reflns_theta_full        38.959
_diffrn_reflns_theta_max         38.959
_diffrn_reflns_theta_min         3.386
_diffrn_source                   'micro-focus sealed X-ray tube'
_diffrn_source_type              'SuperNova (Cu) X-ray Source'
_exptl_absorpt_coefficient_mu    0.659
_exptl_absorpt_correction_T_max  1.000
_exptl_absorpt_correction_T_min  0.760
_exptl_absorpt_correction_type   gaussian
_exptl_absorpt_process_details
;
CrysAlisPro 1.171.38.46 (Rigaku Oxford Diffraction, 2015)
Numerical absorption correction based on gaussian integration over
            a multifaceted crystal model
Empirical absorption correction using spherical harmonics,
 implemented in SCALE3 ABSPACK scaling algorithm.
;
_exptl_crystal_colour            red
_exptl_crystal_colour_primary    red
_exptl_crystal_density_diffrn    1.261
_exptl_crystal_description       irregular
_exptl_crystal_F_000             2016
_exptl_crystal_size_max          0.162
_exptl_crystal_size_mid          0.028
_exptl_crystal_size_min          0.019
_refine_diff_density_max         0.461
_refine_diff_density_min         -0.378
_refine_diff_density_rms         0.065
_refine_ls_extinction_method     none
_refine_ls_goodness_of_fit_ref   1.019
_refine_ls_hydrogen_treatment    constr
_refine_ls_matrix_type           full
_refine_ls_number_parameters     687
_refine_ls_number_reflns         5376
_refine_ls_number_restraints     101
_refine_ls_restrained_S_all      1.014
_refine_ls_R_factor_all          0.1781
_refine_ls_R_factor_gt           0.0960
_refine_ls_shift/su_max          0.000
_refine_ls_shift/su_mean         0.000
_refine_ls_structure_factor_coef Fsqd
_refine_ls_weighting_details
'w=1/[\s^2^(Fo^2^)+(0.1581P)^2^+1.9594P] where P=(Fo^2^+2Fc^2^)/3'
_refine_ls_weighting_scheme      calc
_refine_ls_wR_factor_gt          0.2316
_refine_ls_wR_factor_ref         0.2985
_reflns_Friedel_coverage         0.000
_reflns_number_gt                2780
_reflns_number_total             5376
_reflns_threshold_expression     'I > 2\s(I)'
_iucr_refine_instructions_details
;
TITL dan1corr in P-1
    dan1corr.res
    created by SHELXL-2018/3 at 12:20:11 on 18-Sep-2018
REM P-1 (#2 in standard setting)
CELL 1.54184  16.010654  17.231655  19.863963  68.4682  77.5676  82.1519
ZERR    2.00   0.002563   0.002786   0.002874   0.0152   0.0137   0.0133
LATT  1
SFAC C H F N O
UNIT 246 270 6 8 20

L.S. 30
PLAN  40
TEMP -173
CONF
BOND $H
MORE -1
LIST 4
fmap 2
acta
REM <olex2.extras>
REM <HklSrc "%./dan1.hkl">
REM </olex2.extras>
simu .01 .02 1

rem dfix_NIMD 1.5 n13 c16
rem dfix_NIMD 2.5 .04 c11 c16 c14 c16
rem dfix_NIMD 2.5 .04 n13 c17 n13 c22
rem dfix_NIMD 1.54 c16 c17 c17 c18 c18 c19 c19 c20 c20 c21 =
rem dfix_NIMD 2.55 .04 c16 c18 c17 c19 c18 c20 c29 c21 =
rem
rem dfix_PHEN 1.45 o15 c16 o21 c22
rem dfix_PHEN 2.45 .04 o15 c17 o21 c23
rem dfix_PHEN 1.54 c16 c17 c17 c18 c18 c19 c19 c20 =
rem dfix_PHEN 2.55 .04 c16 c18 c17 c19 c18 c20 =

WGHT    0.158100    1.959400
FVAR       2.94374   0.79027   0.58266   0.47157   0.48025   0.26183   0.25786
resi NIMD 1
C1    1    0.561280    0.403987    0.066517    11.00000    0.03321
C2    1    0.474722    0.412718    0.095117    11.00000    0.02956
C3    1    0.451333    0.445298    0.153407    11.00000    0.03301
AFIX  43
H3    2    0.392660    0.449630    0.174965    11.00000   -1.20000
AFIX   0
C4    1    0.511355    0.470228    0.178650    11.00000    0.03426
C5    1    0.599134    0.464928    0.149415    11.00000    0.03111
C6    1    0.624683    0.433852    0.090857    11.00000    0.02738
C7    1    0.711661    0.428123    0.060137    11.00000    0.03025
C8    1    0.771870    0.453337    0.089725    11.00000    0.04034
AFIX  43
H8    2    0.831230    0.450300    0.069777    11.00000   -1.20000
AFIX   0
C9    1    0.744000    0.482528    0.147983    11.00000    0.04262
AFIX  43
H9    2    0.785111    0.497632    0.168315    11.00000   -1.20000
AFIX   0
C10   1    0.657724    0.490131    0.177116    11.00000    0.03449
C11   1    0.630275    0.524499    0.237222    11.00000    0.04524
O12   5    0.684162    0.539612    0.265592    11.00000    0.04689
N13   4    0.543272    0.533205    0.262472    11.00000    0.03655
C14   1    0.482575    0.505298    0.238928    11.00000    0.04291
O15   5    0.405775    0.512409    0.264619    11.00000    0.04141
C16   1    0.515486    0.565675    0.325671    11.00000    0.03862
AFIX  13
H16   2    0.451502    0.572745    0.333190    11.00000   -1.20000
AFIX   0
C17   1    0.546527    0.651534    0.305908    11.00000    0.05374
AFIX  23
H17A  2    0.536798    0.686393    0.255738    11.00000   -1.20000
H17B  2    0.608948    0.646505    0.305549    11.00000   -1.20000
AFIX   0
C18   1    0.501248    0.694472    0.359372    11.00000    0.06137
AFIX  23
H18A  2    0.522618    0.667470    0.406363    11.00000   -1.20000
H18B  2    0.439156    0.686273    0.369502    11.00000   -1.20000
AFIX   0
C19   1    0.513907    0.788386    0.331453    11.00000    0.07716
AFIX  23
H19A  2    0.487298    0.815827    0.287163    11.00000   -1.20000
H19B  2    0.576109    0.796494    0.316209    11.00000   -1.20000
AFIX   0
C20   1    0.476366    0.833144    0.387423    11.00000    0.08616
AFIX  23
H20A  2    0.505928    0.808882    0.430228    11.00000   -1.20000
H20B  2    0.488348    0.892994    0.364091    11.00000   -1.20000
AFIX   0
C21   1    0.385364    0.826659    0.413123    11.00000    0.10230
AFIX  33
H21A  2    0.365872    0.856106    0.448120    11.00000   -1.50000
H21B  2    0.355380    0.851830    0.371259    11.00000   -1.50000
H21C  2    0.372978    0.767635    0.437462    11.00000   -1.50000
AFIX   0
C22   1    0.537332    0.500131    0.395520    11.00000    0.05051
AFIX  23
H22A  2    0.522112    0.524294    0.435075    11.00000   -1.20000
H22B  2    0.600170    0.487744    0.388095    11.00000   -1.20000
AFIX   0
C23   1    0.494088    0.417204    0.422450    11.00000    0.05043
AFIX  23
H23A  2    0.503886    0.395406    0.381514    11.00000   -1.20000
H23B  2    0.521585    0.376092    0.462483    11.00000   -1.20000
AFIX   0
C24   1    0.398369    0.424539    0.450362    11.00000    0.05872
AFIX  23
H24A  2    0.388275    0.439124    0.495367    11.00000   -1.20000
H24B  2    0.371250    0.470089    0.412697    11.00000   -1.20000
AFIX   0
C25   1    0.357829    0.344358    0.467289    11.00000    0.07246
AFIX  23
H25A  2    0.386964    0.297829    0.502686    11.00000   -1.20000
H25B  2    0.363755    0.331607    0.421716    11.00000   -1.20000
AFIX   0
C26   1    0.259907    0.353533    0.501136    11.00000    0.12528
AFIX  33
H26A  2    0.233153    0.301313    0.512282    11.00000   -1.50000
H26B  2    0.254460    0.365648    0.546446    11.00000   -1.50000
H26C  2    0.231312    0.399336    0.465693    11.00000   -1.50000
AFIX   0

resi NIMD 2
C1    1    0.586513    0.373772    0.006669    11.00000    0.02603
C2    1    0.525330    0.344810   -0.020445    11.00000    0.02744
C3    1    0.552331    0.326289   -0.085710    11.00000    0.03237
AFIX  43
H3    2    0.511191    0.311907   -0.106494    11.00000   -1.20000
AFIX   0
C4    1    0.635391    0.328555   -0.119299    11.00000    0.02764
C5    1    0.698864    0.352069   -0.092965    11.00000    0.02185
C6    1    0.674833    0.376370   -0.030009    11.00000    0.02789
C7    1    0.737745    0.403306   -0.004267    11.00000    0.03020
C8    1    0.822669    0.405895   -0.042150    11.00000    0.04957
AFIX  43
H8    2    0.865105    0.424501   -0.025728    11.00000   -1.20000
AFIX   0
C9    1    0.845438    0.381575   -0.103390    11.00000    0.04165
AFIX  43
H9    2    0.903501    0.382122   -0.127633    11.00000   -1.20000
AFIX   0
C10   1    0.784354    0.356717   -0.129083    11.00000    0.03415
C11   1    0.807929    0.333509   -0.195135    11.00000    0.04434
O12   5    0.883129    0.336746   -0.227167    11.00000    0.04843
N13   4    0.746525    0.311737   -0.223158    11.00000    0.03318
C14   1    0.661632    0.308316   -0.188152    11.00000    0.04034
O15   5    0.608874    0.284441   -0.210645    11.00000    0.04554

simu_2 c16 c17b > c26b
same_2 c16 c17b > c26b
C16   1    0.771979    0.296346   -0.294101    11.00000    0.04777
part 1 21
AFIX  13
H16   2    0.833837    0.308442   -0.311554    21.00000   -1.20000
AFIX  13
part 2 -21
H16B  2    0.715475    0.279106   -0.295672   -21.00000   -1.20000
AFIX   0
part 0

part 1 21
C17   1    0.725972    0.356452   -0.351579    21.00000    0.03749
AFIX  23
H17A  2    0.723286    0.412277   -0.347388    21.00000   -1.20000
H17B  2    0.666348    0.339854   -0.340682    21.00000   -1.20000
AFIX   0
C18   1    0.762893    0.364719   -0.429953    21.00000    0.05605
AFIX  23
H18A  2    0.724304    0.403568   -0.462067    21.00000   -1.20000
H18B  2    0.764262    0.309471   -0.434989    21.00000   -1.20000
AFIX   0
C19   1    0.855048    0.397006   -0.457750    21.00000    0.07096
AFIX  23
H19A  2    0.856521    0.447543   -0.445572    21.00000   -1.20000
H19B  2    0.896033    0.353665   -0.432012    21.00000   -1.20000
AFIX   0
C20   1    0.883048    0.418231   -0.541580    21.00000    0.07714
AFIX  23
H20A  2    0.840749    0.459410   -0.567633    21.00000   -1.20000
H20B  2    0.885605    0.367108   -0.553828    21.00000   -1.20000
AFIX   0
C21   1    0.971100    0.454327   -0.566338    21.00000    0.17372
AFIX  33
H21A  2    0.988827    0.467781   -0.619548    21.00000   -1.50000
H21B  2    0.968112    0.505220   -0.554562    21.00000   -1.50000
H21C  2    1.012860    0.413140   -0.540791    21.00000   -1.50000
AFIX   0
C22   1    0.768321    0.205299   -0.280613    21.00000    0.05496
AFIX  23
H22A  2    0.777818    0.197535   -0.328725    21.00000   -1.20000
H22B  2    0.709983    0.188228   -0.254783    21.00000   -1.20000
AFIX   0
C23   1    0.833576    0.146920   -0.235284    21.00000    0.05230
AFIX  23
H23A  2    0.826662    0.156940   -0.188341    21.00000   -1.20000
H23B  2    0.820702    0.088264   -0.223325    21.00000   -1.20000
AFIX   0
C24   1    0.925756    0.158364   -0.274090    21.00000    0.05826
AFIX  23
H24A  2    0.928982    0.162198   -0.325539    21.00000   -1.20000
H24B  2    0.941899    0.212551   -0.275701    21.00000   -1.20000
AFIX   0
C25   1    0.988953    0.094126   -0.242495    21.00000    0.05877
AFIX  23
H25A  2    1.046193    0.107621   -0.273256    21.00000   -1.20000
H25B  2    0.975360    0.039851   -0.242653    21.00000   -1.20000
AFIX   0
C26   1    0.991518    0.086208   -0.163116    21.00000    0.09186
AFIX  33
H26A  2    1.034872    0.042295   -0.143736    21.00000   -1.50000
H26B  2    1.006058    0.139518   -0.162862    21.00000   -1.50000
H26C  2    0.935254    0.071775   -0.132272    21.00000   -1.50000
AFIX   0

part 2 -21
C17B  1    0.776949    0.371627   -0.360316   -21.00000    0.04436
AFIX  23
H17C  2    0.823324    0.404660   -0.361056   -21.00000   -1.20000
H17D  2    0.722462    0.406105   -0.357181   -21.00000   -1.20000
AFIX   0
C18B  1    0.793255    0.355362   -0.431434   -21.00000    0.05358
AFIX  23
H18C  2    0.756916    0.310663   -0.426197   -21.00000   -1.20000
H18D  2    0.853868    0.335021   -0.441600   -21.00000   -1.20000
AFIX   0
C19B  1    0.774483    0.434034   -0.497763   -21.00000    0.05482
AFIX  23
H19C  2    0.711689    0.445698   -0.493945   -21.00000   -1.20000
H19D  2    0.798727    0.482679   -0.495458   -21.00000   -1.20000
AFIX   0
C20B  1    0.812267    0.423936   -0.572667   -21.00000    0.12788
AFIX  23
H20C  2    0.769433    0.444663   -0.605582   -21.00000   -1.20000
H20D  2    0.827639    0.364196   -0.565669   -21.00000   -1.20000
AFIX   0
C21B  1    0.891988    0.474084   -0.606837   -21.00000    0.26791
AFIX  33
H21D  2    0.916777    0.468312   -0.654502   -21.00000   -1.50000
H21E  2    0.876155    0.533156   -0.613855   -21.00000   -1.50000
H21F  2    0.934169    0.452952   -0.574073   -21.00000   -1.50000
AFIX   0
C22B  1    0.823119    0.218334   -0.294357   -21.00000    0.05748
AFIX  23
H22C  2    0.882276    0.233851   -0.318791   -21.00000   -1.20000
H22D  2    0.800441    0.197099   -0.326474   -21.00000   -1.20000
AFIX   0
C23B  1    0.829845    0.144880   -0.223046   -21.00000    0.05092
AFIX  23
H23C  2    0.789279    0.155746   -0.181743   -21.00000   -1.20000
H23D  2    0.814225    0.093402   -0.227237   -21.00000   -1.20000
AFIX   0
C24B  1    0.919840    0.132640   -0.207726   -21.00000    0.03855
AFIX  23
H24C  2    0.950171    0.182602   -0.241804   -21.00000   -1.20000
H24D  2    0.915622    0.133014   -0.157385   -21.00000   -1.20000
AFIX   0
C25B  1    0.973826    0.061387   -0.212553   -21.00000    0.05801
AFIX  23
H25C  2    0.959751    0.044593   -0.251224   -21.00000   -1.20000
H25D  2    0.961804    0.014517   -0.165237   -21.00000   -1.20000
AFIX   0
C26B  1    1.070101    0.076425   -0.230305   -21.00000    0.01851
AFIX  33
H26D  2    1.103688    0.025273   -0.232869   -21.00000   -1.50000
H26E  2    1.082888    0.121832   -0.277696   -21.00000   -1.50000
H26F  2    1.084943    0.091731   -0.191638   -21.00000   -1.50000
AFIX   0
part 0 11

resi NIMD 3
C1    1    0.575572    0.094581    0.033819    11.00000    0.02046
C2    1    0.501046    0.148923    0.035004    11.00000    0.02213
C3    1    0.467015    0.164461    0.101392    11.00000    0.02946
AFIX  43
H3    2    0.414372    0.196881    0.105026    11.00000   -1.20000
AFIX   0
C4    1    0.507846    0.134183    0.159207    11.00000    0.03254
C5    1    0.583306    0.082199    0.158543    11.00000    0.03167
C6    1    0.619508    0.063630    0.094413    11.00000    0.02611
C7    1    0.695728    0.010691    0.092723    11.00000    0.03516
C8    1    0.733172   -0.016703    0.154163    11.00000    0.03981
AFIX  43
H8    2    0.786428   -0.048515    0.152328    11.00000   -1.20000
AFIX   0
C9    1    0.698882   -0.001282    0.218536    11.00000    0.04308
AFIX  43
H9    2    0.726131   -0.023791    0.260302    11.00000   -1.20000
AFIX   0
C10   1    0.622937    0.048490    0.219596    11.00000    0.04111
C11   1    0.582751    0.065118    0.286940    11.00000    0.06843
O12   5    0.611245    0.029121    0.345317    11.00000    0.09156
N13   4    0.510627    0.119014    0.288298    11.00000    0.05079
C14   1    0.471627    0.154937    0.226827    11.00000    0.04954
O15   5    0.406618    0.199892    0.229476    11.00000    0.04875

same_3 c16 > c21 c22b > c26b
C16   1    0.468534    0.135816    0.357473    11.00000    0.05710
part 1 31
AFIX  13
H16   2    0.434293    0.189813    0.338599    31.00000   -1.20000
AFIX  13
part 2 -31
H16B  2    0.514966    0.111305    0.387203   -31.00000   -1.20000
AFIX   0
part 0

C17   1    0.402255    0.076754    0.401545    11.00000    0.07546
AFIX  23
H17A  2    0.430415    0.019839    0.418282    11.00000   -1.20000
H17B  2    0.362796    0.077039    0.369313    11.00000   -1.20000
AFIX   0
C18   1    0.348369    0.094512    0.469880    11.00000    0.07419
AFIX  23
H18A  2    0.321003    0.151874    0.454468    11.00000   -1.20000
H18B  2    0.386216    0.090533    0.504559    11.00000   -1.20000
AFIX   0
C19   1    0.277779    0.029843    0.509034    11.00000    0.07276
AFIX  23
H19A  2    0.245604    0.027606    0.472510    11.00000   -1.20000
H19B  2    0.305117   -0.026476    0.531130    11.00000   -1.20000
AFIX   0
C20   1    0.215887    0.055153    0.569287    11.00000    0.10064
AFIX  23
H20A  2    0.182478    0.107716    0.546746    11.00000   -1.20000
H20B  2    0.248548    0.064572    0.602340    11.00000   -1.20000
AFIX   0
C21   1    0.155306   -0.015060    0.613195    11.00000    0.12166
AFIX  33
H21A  2    0.115462    0.000400    0.651851    11.00000   -1.50000
H21B  2    0.122917   -0.023742    0.580198    11.00000   -1.50000
H21C  2    0.188785   -0.066754    0.635622    11.00000   -1.50000
AFIX   0
part 1 31
C22   1    0.527353    0.156517    0.392530    31.00000    0.05191
AFIX  23
H22A  2    0.563467    0.105520    0.413928    31.00000   -1.20000
H22B  2    0.493966    0.173209    0.433712    31.00000   -1.20000
AFIX   0
C23   1    0.585672    0.225380    0.343736    31.00000    0.05561
AFIX  23
H23A  2    0.616705    0.210688    0.300799    31.00000   -1.20000
H23B  2    0.550086    0.277700    0.325087    31.00000   -1.20000
AFIX   0
C24   1    0.649585    0.240927    0.381387    31.00000    0.05267
AFIX  23
H24A  2    0.689321    0.190775    0.395770    31.00000   -1.20000
H24B  2    0.619484    0.251195    0.426686    31.00000   -1.20000
AFIX   0
C25   1    0.700135    0.315419    0.331620    31.00000    0.09149
AFIX  23
H25A  2    0.659753    0.364396    0.314620    31.00000   -1.20000
H25B  2    0.732632    0.303418    0.287763    31.00000   -1.20000
AFIX   0
C26   1    0.762626    0.337207    0.369368    31.00000    0.09184
AFIX  33
H26A  2    0.793512    0.385705    0.334749    31.00000   -1.50000
H26B  2    0.730760    0.350445    0.412212    31.00000   -1.50000
H26C  2    0.803671    0.289441    0.385343    31.00000   -1.50000
AFIX   0

part 2 -31
C22B  1    0.475764    0.222773    0.343321   -31.00000    0.06258
AFIX  23
H22C  2    0.454208    0.231074    0.390954   -31.00000   -1.20000
H22D  2    0.433919    0.253716    0.311069   -31.00000   -1.20000
AFIX   0
C23B  1    0.555683    0.267825    0.311115   -31.00000    0.05720
AFIX  23
H23C  2    0.540137    0.328171    0.300794   -31.00000   -1.20000
H23D  2    0.578929    0.260584    0.263250   -31.00000   -1.20000
AFIX   0
C24B  1    0.625400    0.243669    0.354700   -31.00000    0.05779
AFIX  23
H24C  2    0.653988    0.190251    0.351178   -31.00000   -1.20000
H24D  2    0.599076    0.232929    0.406922   -31.00000   -1.20000
AFIX   0
C25B  1    0.693056    0.304843    0.333860   -31.00000    0.09227
AFIX  23
H25C  2    0.667856    0.353672    0.347925   -31.00000   -1.20000
H25D  2    0.711688    0.324956    0.279779   -31.00000   -1.20000
AFIX   0
C26B  1    0.771840    0.267621    0.370482   -31.00000    0.14666
AFIX  33
H26D  2    0.813538    0.310311    0.354839   -31.00000   -1.50000
H26E  2    0.754171    0.248780    0.424074   -31.00000   -1.50000
H26F  2    0.798033    0.220045    0.355880   -31.00000   -1.50000
AFIX   0
part 0 11

resi NIMD 4
C1    1    0.605086    0.067398   -0.028407    11.00000    0.02252
C2    1    0.554699    0.087086   -0.082398    11.00000    0.02311
C3    1    0.585075    0.055527   -0.141638    11.00000    0.03474
AFIX  43
H3    2    0.552195    0.068565   -0.179342    11.00000   -1.20000
AFIX   0
C4    1    0.659381    0.007659   -0.145139    11.00000    0.02822
C5    1    0.708661   -0.013712   -0.089464    11.00000    0.02734
C6    1    0.681439    0.014298   -0.028667    11.00000    0.02602
C7    1    0.730186   -0.010844    0.028045    11.00000    0.03358
C8    1    0.806646   -0.059455    0.020121    11.00000    0.03606
AFIX  43
H8    2    0.840591   -0.076506    0.057484    11.00000   -1.20000
AFIX   0
C9    1    0.834186   -0.083463   -0.041397    11.00000    0.03559
AFIX  43
H9    2    0.887468   -0.114605   -0.046242    11.00000   -1.20000
AFIX   0
C10   1    0.784970   -0.062481   -0.094973    11.00000    0.03234
C11   1    0.813098   -0.087586   -0.159787    11.00000    0.03538
O12   5    0.885180   -0.126245   -0.166336    11.00000    0.04630
N13   4    0.762151   -0.069933   -0.210893    11.00000    0.03848
C14   1    0.683279   -0.022643   -0.208436    11.00000    0.03123
O15   5    0.641854   -0.005836   -0.256190    11.00000    0.04299
C16   1    0.789722   -0.101911   -0.273733    11.00000    0.04040
AFIX  13
H16   2    0.740215   -0.087324   -0.300370    11.00000   -1.20000
AFIX   0
C17   1    0.800498   -0.197151   -0.245488    11.00000    0.04279
AFIX  23
H17A  2    0.853675   -0.215201   -0.224535    11.00000   -1.20000
H17B  2    0.751714   -0.219910   -0.205634    11.00000   -1.20000
AFIX   0
C18   1    0.804813   -0.232420   -0.305593    11.00000    0.04942
AFIX  23
H18A  2    0.859152   -0.217635   -0.340885    11.00000   -1.20000
H18B  2    0.757097   -0.205876   -0.332530    11.00000   -1.20000
AFIX   0
C19   1    0.799748   -0.326191   -0.277568    11.00000    0.07808
AFIX  23
H19A  2    0.840747   -0.352061   -0.243399    11.00000   -1.20000
H19B  2    0.741497   -0.340019   -0.249189    11.00000   -1.20000
AFIX   0
C20   1    0.818775   -0.364363   -0.336898    11.00000    0.09272
AFIX  23
H20A  2    0.876600   -0.350083   -0.366075    11.00000   -1.20000
H20B  2    0.776822   -0.340203   -0.370400    11.00000   -1.20000
AFIX   0
C21   1    0.814797   -0.459373   -0.305180    11.00000    0.09396
AFIX  33
H21A  2    0.827502   -0.481625   -0.345403    11.00000   -1.50000
H21B  2    0.857045   -0.483650   -0.272735    11.00000   -1.50000
H21C  2    0.757295   -0.473773   -0.277060    11.00000   -1.50000
AFIX   0
C22   1    0.863179   -0.057504   -0.328819    11.00000    0.05326
AFIX  23
H22A  2    0.910274   -0.060978   -0.302492    11.00000   -1.20000
H22B  2    0.884160   -0.087855   -0.363572    11.00000   -1.20000
AFIX   0
C23   1    0.845003    0.031707   -0.372152    11.00000    0.05814
AFIX  23
H23A  2    0.830493    0.064072   -0.338597    11.00000   -1.20000
H23B  2    0.794632    0.036700   -0.395266    11.00000   -1.20000
AFIX   0
C24   1    0.920236    0.068709   -0.431443    11.00000    0.06554
AFIX  23
H24A  2    0.969044    0.067029   -0.407555    11.00000   -1.20000
H24B  2    0.937560    0.032969   -0.462007    11.00000   -1.20000
AFIX   0
C25   1    0.903871    0.156426   -0.480766    11.00000    0.09591
AFIX  23
H25A  2    0.892357    0.193335   -0.451164    11.00000   -1.20000
H25B  2    0.851784    0.159476   -0.501156    11.00000   -1.20000
AFIX   0
C26   1    0.978303    0.189359   -0.544753    11.00000    0.09617
AFIX  33
H26A  2    0.963260    0.246965   -0.574721    11.00000   -1.50000
H26B  2    1.029872    0.188008   -0.525150    11.00000   -1.50000
H26C  2    0.989251    0.154110   -0.575201    11.00000   -1.50000
AFIX   0

resi PHEN 5
C1    1    0.435963    0.343942    0.016789    11.00000    0.03175
C2    1    0.412911    0.385152    0.068622    11.00000    0.02603
C3    1    0.323867    0.402967    0.092334    11.00000    0.03281
AFIX  43
H3    2    0.306502    0.427679    0.129161    11.00000   -1.20000
AFIX   0
C4    1    0.264370    0.384561    0.062220    11.00000    0.04260
AFIX  43
H4    2    0.206136    0.402737    0.074041    11.00000   -1.20000
AFIX   0
C5    1    0.286388    0.338931    0.013526    11.00000    0.03155
C6    1    0.221896    0.323976   -0.016856    11.00000    0.03680
C7    1    0.238857    0.279209   -0.064174    11.00000    0.03484
C8    1    0.323342    0.239210   -0.071836    11.00000    0.03295
C9    1    0.343056    0.195153   -0.121560    11.00000    0.03887
AFIX  43
H9    2    0.301967    0.196167   -0.150022    11.00000   -1.20000
AFIX   0
C10   1    0.420132    0.151132   -0.129437    11.00000    0.04081
AFIX  43
H10   2    0.435773    0.128362   -0.167642    11.00000   -1.20000
AFIX   0
C11   1    0.476645    0.139825   -0.079737    11.00000    0.02517
C12   1    0.456141    0.178462   -0.026301    11.00000    0.02755
C13   1    0.384574    0.241878   -0.032325    11.00000    0.02761
C14   1    0.372899    0.307855   -0.001608    11.00000    0.02846

same_5 o15 c16b > c20b
O15   5    0.141158    0.362944   -0.003544    11.00000    0.04358

part 1 41
C16   1    0.077874    0.302033    0.034642    41.00000    0.02801
AFIX  23
H16A  2    0.103432    0.252006    0.069638    41.00000   -1.20000
H16B  2    0.057656    0.284552   -0.001042    41.00000   -1.20000
AFIX   0
C17   1    0.004039    0.340080    0.075386    41.00000    0.04436
AFIX  23
H17A  2   -0.049741    0.316133    0.077680    41.00000   -1.20000
H17B  2   -0.001628    0.401173    0.049075    41.00000   -1.20000
AFIX   0
C18   1    0.018914    0.322452    0.154079    41.00000    0.05778
AFIX  23
H18A  2    0.019446    0.261221    0.180191    41.00000   -1.20000
H18B  2    0.076847    0.339613    0.150090    41.00000   -1.20000
AFIX   0
C19   1   -0.039677    0.360717    0.199130    41.00000    0.05203
AFIX  23
H19A  2   -0.034490    0.329190    0.251084    41.00000   -1.20000
H19B  2   -0.098561    0.355582    0.193830    41.00000   -1.20000
AFIX   0
C20   1   -0.027819    0.454828    0.182396    41.00000    0.06430
AFIX  33
H20A  2   -0.070961    0.475413    0.216136    41.00000   -1.50000
H20B  2    0.029592    0.460841    0.188975    41.00000   -1.50000
H20C  2   -0.034645    0.487301    0.131573    41.00000   -1.50000
AFIX   0

part 2 -41
C16B  1    0.063298    0.319427    0.018812   -41.00000    0.03573
AFIX  23
H16C  2    0.073069    0.261626    0.052685   -41.00000   -1.20000
H16D  2    0.044875    0.316722   -0.024721   -41.00000   -1.20000
AFIX   0
C17B  1   -0.004394    0.366286    0.056721   -41.00000    0.04438
AFIX  23
H17C  2   -0.058986    0.338764    0.070123   -41.00000   -1.20000
H17D  2   -0.013356    0.423825    0.022073   -41.00000   -1.20000
AFIX   0
C18B  1    0.018923    0.370770    0.127538   -41.00000    0.06798
AFIX  23
H18C  2    0.032378    0.313013    0.159781   -41.00000   -1.20000
H18D  2    0.071936    0.401036    0.112856   -41.00000   -1.20000
AFIX   0
C19B  1   -0.043946    0.409718    0.170156   -41.00000    0.05185
AFIX  23
H19C  2   -0.096801    0.379364    0.184086   -41.00000   -1.20000
H19D  2   -0.057301    0.467181    0.137294   -41.00000   -1.20000
AFIX   0
C20B  1   -0.025149    0.416401    0.241503   -41.00000    0.05209
AFIX  33
H20D  2   -0.074641    0.444593    0.263725   -41.00000   -1.50000
H20E  2   -0.014362    0.360228    0.276382   -41.00000   -1.50000
H20F  2    0.025384    0.448589    0.229300   -41.00000   -1.50000
AFIX   0
part 0 11

sump 1 .001 1 5 1 6 1 7
same_5 o21 c22b > c26b
same_5 o21 c22c > c26c
O21   5    0.180817    0.267353   -0.099885    11.00000    0.04067

part 1 51
C22   1    0.152115    0.341536   -0.152361    51.00000    0.05126
AFIX  23
H22A  2    0.201996    0.369800   -0.187589    51.00000   -1.20000
H22B  2    0.121064    0.379950   -0.127240    51.00000   -1.20000
AFIX   0
C23   1    0.093079    0.321651   -0.193710    51.00000    0.04719
AFIX  23
H23A  2    0.040020    0.299814   -0.159220    51.00000   -1.20000
H23B  2    0.076900    0.373698   -0.232485    51.00000   -1.20000
AFIX   0
C24   1    0.133620    0.259964   -0.227537    51.00000    0.05440
AFIX  23
H24A  2    0.089758    0.241966   -0.246095    51.00000   -1.20000
H24B  2    0.154766    0.210250   -0.189261    51.00000   -1.20000
AFIX   0
C25   1    0.210892    0.293184   -0.293138    51.00000    0.06035
AFIX  23
H25A  2    0.256876    0.308202   -0.274731    51.00000   -1.20000
H25B  2    0.191105    0.343982   -0.331214    51.00000   -1.20000
AFIX   0
C26   1    0.246686    0.224344   -0.327495    51.00000    0.08714
AFIX  33
H26A  2    0.294444    0.245364   -0.368017    51.00000   -1.50000
H26B  2    0.266851    0.174393   -0.289824    51.00000   -1.50000
H26C  2    0.201212    0.210100   -0.346192    51.00000   -1.50000
AFIX   0

part 2 61
C22B  1    0.162821    0.331824   -0.164785    61.00000    0.05187
AFIX  23
H22C  2    0.215129    0.361966   -0.191845    61.00000   -1.20000
H22D  2    0.118130    0.372287   -0.151861    61.00000   -1.20000
AFIX   0
C23B  1    0.132085    0.295127   -0.213237    61.00000    0.05272
AFIX  23
H23C  2    0.178035    0.256113   -0.226926    61.00000   -1.20000
H23D  2    0.081876    0.262390   -0.184510    61.00000   -1.20000
AFIX   0
C24B  1    0.108260    0.357703   -0.280492    61.00000    0.04586
AFIX  23
H24C  2    0.157370    0.392202   -0.308851    61.00000   -1.20000
H24D  2    0.059931    0.395059   -0.267464    61.00000   -1.20000
AFIX   0
C25B  1    0.081103    0.313751   -0.329804    61.00000    0.08056
AFIX  23
H25C  2    0.131084    0.280201   -0.346185    61.00000   -1.20000
H25D  2    0.035630    0.275260   -0.299796    61.00000   -1.20000
AFIX   0
C26B  1    0.047500    0.379363   -0.399047    61.00000    0.08199
AFIX  33
H26D  2    0.031469    0.350099   -0.427929    61.00000   -1.50000
H26E  2   -0.002663    0.411979   -0.383009    61.00000   -1.50000
H26F  2    0.092744    0.416918   -0.429375    61.00000   -1.50000
AFIX   0

part 3 71
C22C  1    0.149829    0.340934   -0.151568    71.00000    0.05127
AFIX  23
H22E  2    0.197803    0.377085   -0.179618    71.00000   -1.20000
H22F  2    0.107158    0.372191   -0.125357    71.00000   -1.20000
AFIX   0
C23C  1    0.108601    0.319842   -0.204437    71.00000    0.05026
AFIX  23
H23E  2    0.063322    0.280574   -0.175919    71.00000   -1.20000
H23F  2    0.081151    0.371486   -0.235976    71.00000   -1.20000
AFIX   0
C24C  1    0.171244    0.282032   -0.251250    71.00000    0.05503
AFIX  23
H24E  2    0.201397    0.232562   -0.219588    71.00000   -1.20000
H24F  2    0.214430    0.322779   -0.281999    71.00000   -1.20000
AFIX   0
C25C  1    0.128372    0.254354   -0.303166    71.00000    0.05261
AFIX  23
H25E  2    0.172798    0.225943   -0.330761    71.00000   -1.20000
H25F  2    0.085017    0.213760   -0.272482    71.00000   -1.20000
AFIX   0
C26C  1    0.084678    0.329752   -0.358737    71.00000    0.10490
AFIX  33
H26G  2    0.059198    0.309681   -0.389499    71.00000   -1.50000
H26H  2    0.039786    0.357408   -0.331695    71.00000   -1.50000
H26I  2    0.127566    0.369591   -0.389973    71.00000   -1.50000
AFIX   0
part 0 11

resi SOLV 6
C1    1    0.899492    0.148504    0.005526    11.00000    0.08844
F2    3    0.844501    0.158915   -0.039856    11.00000    0.08419
F3    3    0.962955    0.199913   -0.039260    11.00000    0.08130
F4    3    0.939003    0.071239    0.013514    11.00000    0.08930
C5    1    0.866278    0.161650    0.072420    11.00000    0.05414
C6    1    0.916913    0.141449    0.125438    11.00000    0.06087
AFIX  43
H6    2    0.973883    0.118686    0.116212    11.00000   -1.20000
AFIX   0
C7    1    0.887046    0.153413    0.190174    11.00000    0.07869
AFIX  43
H7    2    0.921953    0.136714    0.226818    11.00000   -1.20000
AFIX   0
C8    1    0.804651    0.190423    0.203132    11.00000    0.06424
AFIX  43
H8    2    0.782990    0.200875    0.247650    11.00000   -1.20000
AFIX   0
C9    1    0.756608    0.210924    0.149247    11.00000    0.06333
AFIX  43
H9    2    0.700367    0.235481    0.157975    11.00000   -1.20000
AFIX   0
C10   1    0.783556    0.198685    0.084294    11.00000    0.06687
AFIX  43
H10   2    0.747893    0.214535    0.048272    11.00000   -1.20000
AFIX   0
HKLF 4




REM  dan1corr in P-1
REM wR2 = 0.2985, GooF = S = 1.019, Restrained GooF = 1.014 for all data
REM R1 = 0.0960 for 2780 Fo > 4sig(Fo) and 0.1781 for all 5376 data
REM 687 parameters refined using 101 restraints

END  
     
WGHT      0.1589      1.7679 

REM Highest difference peak  0.461,  deepest hole -0.378,  1-sigma level  0.065
Q1    1   0.6552  0.0660  0.3334  11.00000  0.05    0.46
Q2    1   0.5775  0.0044  0.3569  11.00000  0.05    0.42
Q3    1   1.0199  0.2028 -0.5149  11.00000  0.05    0.30
Q4    1   0.9128  0.3081 -0.1968  11.00000  0.05    0.28
Q5    1   0.9461  0.1605 -0.4536  11.00000  0.05    0.27
Q6    1   0.6760  0.4961  0.2975  11.00000  0.05    0.26
Q7    1   1.0037  0.1670 -0.0109  11.00000  0.05    0.25
Q8    1   0.6804  0.5735  0.2291  11.00000  0.05    0.25
Q9    1   0.1730  0.1842 -0.3331  11.00000  0.05    0.25
Q10   1   0.9038 -0.0929 -0.1957  11.00000  0.05    0.24
Q11   1   0.9030  0.0660 -0.1419  11.00000  0.05    0.23
Q12   1   0.6070  0.2836  0.3029  11.00000  0.05    0.23
Q13   1   0.7646 -0.4602 -0.3204  11.00000  0.05    0.23
Q14   1   0.5086  0.2617  0.3356  11.00000  0.05    0.23
Q15   1   0.3036  0.0884  0.4894  11.00000  0.05    0.23
Q16   1   0.3855  0.4768  0.3014  11.00000  0.05    0.23
Q17   1   0.8404  0.2716 -0.2852  11.00000  0.05    0.22
Q18   1   0.6852  0.3598  0.0059  11.00000  0.05    0.22
Q19   1   0.1316  0.3375  0.0327  11.00000  0.05    0.22
Q20   1   0.4804  0.0807  0.2981  11.00000  0.05    0.22
Q21   1   0.4996  0.1537  0.1295  11.00000  0.05    0.22
Q22   1   0.4132  0.0970  0.4761  11.00000  0.05    0.22
Q23   1   0.9055  0.0398  0.0615  11.00000  0.05    0.21
Q24   1   0.9377  0.4995 -0.5865  11.00000  0.05    0.21
Q25   1   0.4033  0.1130  0.4663  11.00000  0.05    0.21
Q26   1   0.7235  0.4006  0.1014  11.00000  0.05    0.20
Q27   1   0.9306  0.0547  0.0530  11.00000  0.05    0.20
Q28   1   1.0987  0.1260 -0.2386  11.00000  0.05    0.20
Q29   1   0.8746  0.3621 -0.2699  11.00000  0.05    0.20
Q30   1   0.8791  0.0628 -0.4807  11.00000  0.05    0.20
Q31   1   0.8272  0.3757 -0.0147  11.00000  0.05    0.20
Q32   1   0.3920  0.1424  0.3636  11.00000  0.05    0.20
Q33   1   0.1329  0.3940 -0.0454  11.00000  0.05    0.20
Q34   1   0.2836  0.3430  0.1352  11.00000  0.05    0.20
Q35   1   0.3773  0.1615  0.3576  11.00000  0.05    0.20
Q36   1   0.9352 -0.4106 -0.3461  11.00000  0.05    0.20
Q37   1   0.7388  0.0044  0.1341  11.00000  0.05    0.19
Q38   1   0.7612  0.2228 -0.0125  11.00000  0.05    0.19
Q39   1   0.5353  0.7560  0.1893  11.00000  0.05    0.19
Q40   1   0.6746  0.0391 -0.2836  11.00000  0.05    0.19
;
_cod_data_source_file            c8sc04216k2.cif
_cod_data_source_block           rhs46_dp
_cod_original_cell_volume        4968.3(15)
_cod_database_code               1550263
_shelx_shelxl_version_number     2018/3
_chemical_oxdiff_formula         'c123 h135 f3 n4 o10'
_shelx_space_group_comment
;
The symmetry employed for this shelxl refinement is uniquely defined
by the following loop, which should always be used as a source of
symmetry information in preference to the above space-group names.
They are only intended as comments.
;
_reflns_odcompleteness_completeness 91.23
_reflns_odcompleteness_iscentric 1
_reflns_odcompleteness_theta     39.58
_olex2_refinement_description
;
1. Fixed Uiso
 At 1.2 times of:
  All C(H) groups, All C(H,H) groups
 At 1.5 times of:
  All C(H,H,H) groups
2. Uiso/Uaniso restraints and constraints
All non-hydrogen atoms have similar U: within 1A with sigma of 0.01 and sigma
for terminal atoms of 0.02
C16_2 \\sim C17B_2 \\sim C18B_2 \\sim C19B_2 \\sim C20B_2 \\sim C21B_2 \\sim
C22B_2 \\sim C23B_2 \\sim C24B_2 \\sim C25B_2 \\sim C26B_2: within 2A with
sigma of 0.04 and sigma for terminal atoms of 0.08
3. Same fragment restrains
{C16_2, C17B_2, C18B_2, C19B_2, C20B_2, C21B_2, C22B_2, C23B_2, C24B_2, C25B_2,
C26B_2} sigma for 1-2: 0.02, 1-3: 0.04
as
{C16_2, C17_2, C18_2, C19_2, C20_2, C21_2, C22_2, C23_2, C24_2, C25_2, C26_2}
{C16_3, C17_3, C18_3, C19_3, C20_3, C21_3, C22B_3, C23B_3, C24B_3, C25B_3,
C26B_3} sigma for 1-2: 0.02, 1-3: 0.04
as
{C16_3, C17_3, C18_3, C19_3, C20_3, C21_3, C22_3, C23_3, C24_3, C25_3, C26_3}
{O15_5, C16B_5, C17B_5, C18B_5, C19B_5, C20B_5} sigma for 1-2: 0.02, 1-3: 0.04
as
{O15_5, C16_5, C17_5, C18_5, C19_5, C20_5}
{O21_5, C22B_5, C23B_5, C24B_5, C25B_5, C26B_5} sigma for 1-2: 0.02, 1-3: 0.04
{O21_5, C22C_5, C23C_5, C24C_5, C25C_5, C26C_5} sigma for 1-2: 0.02, 1-3: 0.04
as
{O21_5, C22_5, C23_5, C24_5, C25_5, C26_5}
4. Others
 1*[Sof(C22)+Sof(H22A)+Sof(H22B)+Sof(C23)+Sof(H23A)+Sof(H23B)+Sof(C24)+
 Sof(H24A)+Sof(H24B)+Sof(C25)+Sof(H25A)+Sof(H25B)+Sof(C26)+Sof(H26A)+Sof(H26B)+
 Sof(H26C)]+1*[Sof(C22B)+Sof(H22C)+Sof(H22D)+Sof(C23B)+Sof(H23C)+Sof(H23D)+
 Sof(C24B)+Sof(H24C)+Sof(H24D)+Sof(C25B)+Sof(H25C)+Sof(H25D)+Sof(C26B)+
 Sof(H26D)+Sof(H26E)+Sof(H26F)]+1*[Sof(C22C)+Sof(H22E)+Sof(H22F)+Sof(C23C)+
 Sof(H23E)+Sof(H23F)+Sof(C24C)+Sof(H24E)+Sof(H24F)+Sof(C25C)+Sof(H25E)+
 Sof(H25F)+Sof(C26C)+Sof(H26G)+Sof(H26H)+Sof(H26I)]=1 with esd of 0.001
 Sof(H16B)=Sof(C17B)=Sof(H17C)=Sof(H17D)=Sof(C18B)=Sof(H18C)=Sof(H18D)=
 Sof(C19B)=Sof(H19C)=Sof(H19D)=Sof(C20B)=Sof(H20C)=Sof(H20D)=Sof(C21B)=
 Sof(H21D)=Sof(H21E)=Sof(H21F)=Sof(C22B)=Sof(H22C)=Sof(H22D)=Sof(C23B)=
 Sof(H23C)=Sof(H23D)=Sof(C24B)=Sof(H24C)=Sof(H24D)=Sof(C25B)=Sof(H25C)=
 Sof(H25D)=Sof(C26B)=Sof(H26D)=Sof(H26E)=Sof(H26F)=1-FVAR(1)
 Sof(H16)=Sof(C17)=Sof(H17A)=Sof(H17B)=Sof(C18)=Sof(H18A)=Sof(H18B)=Sof(C19)=
 Sof(H19A)=Sof(H19B)=Sof(C20)=Sof(H20A)=Sof(H20B)=Sof(C21)=Sof(H21A)=Sof(H21B)=
 Sof(H21C)=Sof(C22)=Sof(H22A)=Sof(H22B)=Sof(C23)=Sof(H23A)=Sof(H23B)=Sof(C24)=
 Sof(H24A)=Sof(H24B)=Sof(C25)=Sof(H25A)=Sof(H25B)=Sof(C26)=Sof(H26A)=Sof(H26B)=
 Sof(H26C)=FVAR(1)
 Sof(H16B)=Sof(C22B)=Sof(H22C)=Sof(H22D)=Sof(C23B)=Sof(H23C)=Sof(H23D)=
 Sof(C24B)=Sof(H24C)=Sof(H24D)=Sof(C25B)=Sof(H25C)=Sof(H25D)=Sof(C26B)=
 Sof(H26D)=Sof(H26E)=Sof(H26F)=1-FVAR(2)
 Sof(H16)=Sof(C22)=Sof(H22A)=Sof(H22B)=Sof(C23)=Sof(H23A)=Sof(H23B)=Sof(C24)=
 Sof(H24A)=Sof(H24B)=Sof(C25)=Sof(H25A)=Sof(H25B)=Sof(C26)=Sof(H26A)=Sof(H26B)=
 Sof(H26C)=FVAR(2)
 Sof(C16B)=Sof(H16C)=Sof(H16D)=Sof(C17B)=Sof(H17C)=Sof(H17D)=Sof(C18B)=
 Sof(H18C)=Sof(H18D)=Sof(C19B)=Sof(H19C)=Sof(H19D)=Sof(C20B)=Sof(H20D)=
 Sof(H20E)=Sof(H20F)=1-FVAR(3)
 Sof(C16)=Sof(H16A)=Sof(H16B)=Sof(C17)=Sof(H17A)=Sof(H17B)=Sof(C18)=Sof(H18A)=
 Sof(H18B)=Sof(C19)=Sof(H19A)=Sof(H19B)=Sof(C20)=Sof(H20A)=Sof(H20B)=Sof(H20C)=
 FVAR(3)
 Sof(C22)=Sof(H22A)=Sof(H22B)=Sof(C23)=Sof(H23A)=Sof(H23B)=Sof(C24)=Sof(H24A)=
 Sof(H24B)=Sof(C25)=Sof(H25A)=Sof(H25B)=Sof(C26)=Sof(H26A)=Sof(H26B)=Sof(H26C)=
 FVAR(4)
 Sof(C22B)=Sof(H22C)=Sof(H22D)=Sof(C23B)=Sof(H23C)=Sof(H23D)=Sof(C24B)=
 Sof(H24C)=Sof(H24D)=Sof(C25B)=Sof(H25C)=Sof(H25D)=Sof(C26B)=Sof(H26D)=
 Sof(H26E)=Sof(H26F)=FVAR(5)
 Sof(C22C)=Sof(H22E)=Sof(H22F)=Sof(C23C)=Sof(H23E)=Sof(H23F)=Sof(C24C)=
 Sof(H24E)=Sof(H24F)=Sof(C25C)=Sof(H25E)=Sof(H25F)=Sof(C26C)=Sof(H26G)=
 Sof(H26H)=Sof(H26I)=FVAR(6)
5.a Ternary CH refined with riding coordinates:
 C16(H16), C16(H16), C16(H16B), C16(H16), C16(H16B), C16(H16)
5.b Secondary CH2 refined with riding coordinates:
 C17(H17A,H17B), C18(H18A,H18B), C19(H19A,H19B), C20(H20A,H20B), C22(H22A,
 H22B), C23(H23A,H23B), C24(H24A,H24B), C25(H25A,H25B), C17(H17A,H17B),
 C18(H18A,H18B), C19(H19A,H19B), C20(H20A,H20B), C22(H22A,H22B), C23(H23A,H23B),
  C24(H24A,H24B), C25(H25A,H25B), C17B(H17C,H17D), C18B(H18C,H18D), C19B(H19C,
 H19D), C20B(H20C,H20D), C22B(H22C,H22D), C23B(H23C,H23D), C24B(H24C,H24D),
 C25B(H25C,H25D), C17(H17A,H17B), C18(H18A,H18B), C19(H19A,H19B), C20(H20A,
 H20B), C22(H22A,H22B), C23(H23A,H23B), C24(H24A,H24B), C25(H25A,H25B),
 C22B(H22C,H22D), C23B(H23C,H23D), C24B(H24C,H24D), C25B(H25C,H25D), C17(H17A,
 H17B), C18(H18A,H18B), C19(H19A,H19B), C20(H20A,H20B), C22(H22A,H22B),
 C23(H23A,H23B), C24(H24A,H24B), C25(H25A,H25B), C16(H16A,H16B), C17(H17A,H17B),
  C18(H18A,H18B), C19(H19A,H19B), C16B(H16C,H16D), C17B(H17C,H17D), C18B(H18C,
 H18D), C19B(H19C,H19D), C22(H22A,H22B), C23(H23A,H23B), C24(H24A,H24B),
 C25(H25A,H25B), C22B(H22C,H22D), C23B(H23C,H23D), C24B(H24C,H24D), C25B(H25C,
 H25D), C22C(H22E,H22F), C23C(H23E,H23F), C24C(H24E,H24F), C25C(H25E,H25F)
5.c Me refined with riding coordinates:
 C21(H21A,H21B,H21C), C26(H26A,H26B,H26C), C21(H21A,H21B,H21C), C26(H26A,H26B,
 H26C), C21B(H21D,H21E,H21F), C26B(H26D,H26E,H26F), C21(H21A,H21B,H21C),
 C26(H26A,H26B,H26C), C26B(H26D,H26E,H26F), C21(H21A,H21B,H21C), C26(H26A,H26B,
 H26C), C20(H20A,H20B,H20C), C20B(H20D,H20E,H20F), C26(H26A,H26B,H26C),
 C26B(H26D,H26E,H26F), C26C(H26G,H26H,H26I)
5.d Aromatic/amide H refined with riding coordinates:
 C3(H3), C8(H8), C9(H9), C3(H3), C8(H8), C9(H9), C3(H3), C8(H8), C9(H9),
 C3(H3), C8(H8), C9(H9), C3(H3), C4(H4), C9(H9), C10(H10), C6(H6), C7(H7),
 C8(H8), C9(H9), C10(H10)
;
_olex2_submission_special_instructions 'No special instructions were received'
_oxdiff_exptl_absorpt_empirical_details
;
Empirical correction (ABSPACK) includes:
- Absorption correction using spherical harmonics
- Frame scaling
;
_oxdiff_exptl_absorpt_empirical_full_max 1.362
_oxdiff_exptl_absorpt_empirical_full_min 0.825
loop_
_space_group_symop_operation_xyz
'x, y, z'
'-x, -y, -z'
loop_
_atom_site_label
_atom_site_type_symbol
_atom_site_fract_x
_atom_site_fract_y
_atom_site_fract_z
_atom_site_U_iso_or_equiv
_atom_site_adp_type
_atom_site_occupancy
_atom_site_site_symmetry_order
_atom_site_calc_flag
_atom_site_refinement_flags_posn
_atom_site_refinement_flags_adp
_atom_site_refinement_flags_occupancy
_atom_site_disorder_assembly
_atom_site_disorder_group
C1_1 C 0.5613(8) 0.4040(7) 0.0665(7) 0.033(4) Uiso 1 1 d . U . . .
C2_1 C 0.4747(8) 0.4127(7) 0.0951(7) 0.030(4) Uiso 1 1 d . U . . .
C3_1 C 0.4513(8) 0.4453(7) 0.1534(7) 0.033(4) Uiso 1 1 d . U . . .
H3_1 H 0.392660 0.449630 0.174965 0.040 Uiso 1 1 calc R . . . .
C4_1 C 0.5114(8) 0.4702(8) 0.1787(7) 0.034(4) Uiso 1 1 d . U . . .
C5_1 C 0.5991(8) 0.4649(8) 0.1494(7) 0.031(4) Uiso 1 1 d . U . . .
C6_1 C 0.6247(8) 0.4339(7) 0.0909(7) 0.027(4) Uiso 1 1 d . U . . .
C7_1 C 0.7117(8) 0.4281(7) 0.0601(7) 0.030(4) Uiso 1 1 d . U . . .
C8_1 C 0.7719(8) 0.4533(7) 0.0897(7) 0.040(4) Uiso 1 1 d . U . . .
H8_1 H 0.831230 0.450300 0.069777 0.048 Uiso 1 1 calc R . . . .
C9_1 C 0.7440(8) 0.4825(7) 0.1480(7) 0.043(4) Uiso 1 1 d . U . . .
H9_1 H 0.785111 0.497632 0.168315 0.051 Uiso 1 1 calc R . . . .
C10_1 C 0.6577(8) 0.4901(8) 0.1771(7) 0.034(4) Uiso 1 1 d . U . . .
C11_1 C 0.6303(9) 0.5245(8) 0.2372(7) 0.045(4) Uiso 1 1 d . U . . .
O12_1 O 0.6842(5) 0.5396(5) 0.2656(4) 0.047(3) Uiso 1 1 d . U . . .
N13_1 N 0.5433(7) 0.5332(6) 0.2625(5) 0.037(3) Uiso 1 1 d . U . . .
C14_1 C 0.4826(9) 0.5053(8) 0.2389(7) 0.043(4) Uiso 1 1 d . U . . .
O15_1 O 0.4058(5) 0.5124(5) 0.2646(4) 0.041(3) Uiso 1 1 d . U . . .
C16_1 C 0.5155(8) 0.5657(8) 0.3257(7) 0.039(4) Uiso 1 1 d . U . . .
H16_1 H 0.451502 0.572745 0.333190 0.046 Uiso 1 1 calc R . . . .
C17_1 C 0.5465(8) 0.6515(8) 0.3059(7) 0.054(4) Uiso 1 1 d . U . . .
H17A_1 H 0.536798 0.686393 0.255738 0.064 Uiso 1 1 calc R . . . .
H17B_1 H 0.608948 0.646505 0.305549 0.064 Uiso 1 1 calc R . . . .
C18_1 C 0.5012(8) 0.6945(8) 0.3594(7) 0.061(5) Uiso 1 1 d . U . . .
H18A_1 H 0.522618 0.667470 0.406363 0.074 Uiso 1 1 calc R . . . .
H18B_1 H 0.439156 0.686273 0.369502 0.074 Uiso 1 1 calc R . . . .
C19_1 C 0.5139(9) 0.7884(9) 0.3315(8) 0.077(5) Uiso 1 1 d . U . . .
H19A_1 H 0.487298 0.815827 0.287163 0.093 Uiso 1 1 calc R . . . .
H19B_1 H 0.576109 0.796494 0.316209 0.093 Uiso 1 1 calc R . . . .
C20_1 C 0.4764(9) 0.8331(10) 0.3874(8) 0.086(6) Uiso 1 1 d . U . . .
H20A_1 H 0.505928 0.808882 0.430228 0.103 Uiso 1 1 calc R . . . .
H20B_1 H 0.488348 0.892994 0.364091 0.103 Uiso 1 1 calc R . . . .
C21_1 C 0.3854(9) 0.8267(10) 0.4131(9) 0.102(6) Uiso 1 1 d . U . . .
H21A_1 H 0.365872 0.856106 0.448120 0.153 Uiso 1 1 calc R . . . .
H21B_1 H 0.355380 0.851830 0.371259 0.153 Uiso 1 1 calc R . . . .
H21C_1 H 0.372978 0.767635 0.437462 0.153 Uiso 1 1 calc R . . . .
C22_1 C 0.5373(8) 0.5001(8) 0.3955(7) 0.051(4) Uiso 1 1 d . U . . .
H22A_1 H 0.522112 0.524294 0.435075 0.061 Uiso 1 1 calc R . . . .
H22B_1 H 0.600170 0.487744 0.388095 0.061 Uiso 1 1 calc R . . . .
C23_1 C 0.4941(7) 0.4172(8) 0.4225(7) 0.050(4) Uiso 1 1 d . U . . .
H23A_1 H 0.503886 0.395406 0.381514 0.061 Uiso 1 1 calc R . . . .
H23B_1 H 0.521585 0.376092 0.462483 0.061 Uiso 1 1 calc R . . . .
C24_1 C 0.3984(8) 0.4245(8) 0.4504(7) 0.059(5) Uiso 1 1 d . U . . .
H24A_1 H 0.388275 0.439124 0.495367 0.070 Uiso 1 1 calc R . . . .
H24B_1 H 0.371250 0.470089 0.412697 0.070 Uiso 1 1 calc R . . . .
C25_1 C 0.3578(8) 0.3444(9) 0.4673(8) 0.072(5) Uiso 1 1 d . U . . .
H25A_1 H 0.386964 0.297829 0.502686 0.087 Uiso 1 1 calc R . . . .
H25B_1 H 0.363755 0.331607 0.421716 0.087 Uiso 1 1 calc R . . . .
C26_1 C 0.2599(10) 0.3535(11) 0.5011(9) 0.125(7) Uiso 1 1 d . U . . .
H26A_1 H 0.233153 0.301313 0.512282 0.188 Uiso 1 1 calc R . . . .
H26B_1 H 0.254460 0.365648 0.546446 0.188 Uiso 1 1 calc R . . . .
H26C_1 H 0.231312 0.399336 0.465693 0.188 Uiso 1 1 calc R . . . .
C1_2 C 0.5865(7) 0.3738(7) 0.0067(6) 0.026(4) Uiso 1 1 d . U . . .
C2_2 C 0.5253(7) 0.3448(7) -0.0204(7) 0.027(4) Uiso 1 1 d . U . . .
C3_2 C 0.5523(8) 0.3263(7) -0.0857(6) 0.032(4) Uiso 1 1 d . U . . .
H3_2 H 0.511191 0.311907 -0.106494 0.039 Uiso 1 1 calc R . . . .
C4_2 C 0.6354(8) 0.3286(7) -0.1193(7) 0.028(4) Uiso 1 1 d . U . . .
C5_2 C 0.6989(7) 0.3521(7) -0.0930(6) 0.022(4) Uiso 1 1 d . U . . .
C6_2 C 0.6748(7) 0.3764(7) -0.0300(7) 0.028(4) Uiso 1 1 d . U . . .
C7_2 C 0.7377(8) 0.4033(7) -0.0043(7) 0.030(4) Uiso 1 1 d . U . . .
C8_2 C 0.8227(8) 0.4059(8) -0.0421(7) 0.050(4) Uiso 1 1 d . U . . .
H8_2 H 0.865105 0.424501 -0.025728 0.059 Uiso 1 1 calc R . . . .
C9_2 C 0.8454(8) 0.3816(8) -0.1034(7) 0.042(4) Uiso 1 1 d . U . . .
H9_2 H 0.903501 0.382122 -0.127633 0.050 Uiso 1 1 calc R . . . .
C10_2 C 0.7844(8) 0.3567(8) -0.1291(7) 0.034(4) Uiso 1 1 d . U . . .
C11_2 C 0.8079(9) 0.3335(8) -0.1951(7) 0.044(4) Uiso 1 1 d . U . . .
O12_2 O 0.8831(5) 0.3367(5) -0.2272(5) 0.048(3) Uiso 1 1 d . U . . .
N13_2 N 0.7465(6) 0.3117(6) -0.2232(5) 0.033(3) Uiso 1 1 d . U . . .
C14_2 C 0.6616(9) 0.3083(8) -0.1882(7) 0.040(4) Uiso 1 1 d . U . . .
O15_2 O 0.6089(5) 0.2844(5) -0.2106(4) 0.046(3) Uiso 1 1 d . U . . .
C16_2 C 0.7720(8) 0.2963(9) -0.2941(7) 0.048(4) Uiso 1 1 d D U . . .
H16_2 H 0.833837 0.308442 -0.311554 0.057 Uiso 0.790(11) 1 calc R . P A 1
H16B_2 H 0.715475 0.279106 -0.295672 0.057 Uiso 0.210(11) 1 calc R . P A 2
C17_2 C 0.7260(10) 0.3565(10) -0.3516(8) 0.037(6) Uiso 0.790(11) 1 d D U P A 1
H17A_2 H 0.723286 0.412277 -0.347388 0.045 Uiso 0.790(11) 1 calc R . P A 1
H17B_2 H 0.666348 0.339854 -0.340682 0.045 Uiso 0.790(11) 1 calc R . P A 1
C18_2 C 0.7629(12) 0.3647(12) -0.4300(8) 0.056(8) Uiso 0.790(11) 1 d D U P A 1
H18A_2 H 0.724304 0.403568 -0.462067 0.067 Uiso 0.790(11) 1 calc R . P A 1
H18B_2 H 0.764262 0.309471 -0.434989 0.067 Uiso 0.790(11) 1 calc R . P A 1
C19_2 C 0.8550(11) 0.3970(13) -0.4577(10) 0.071(7) Uiso 0.790(11) 1 d D U P A 1
H19A_2 H 0.856521 0.447543 -0.445572 0.085 Uiso 0.790(11) 1 calc R . P A 1
H19B_2 H 0.896033 0.353665 -0.432012 0.085 Uiso 0.790(11) 1 calc R . P A 1
C20_2 C 0.8830(12) 0.4182(13) -0.5416(10) 0.077(7) Uiso 0.790(11) 1 d D U P A 1
H20A_2 H 0.840749 0.459410 -0.567633 0.093 Uiso 0.790(11) 1 calc R . P A 1
H20B_2 H 0.885605 0.367108 -0.553828 0.093 Uiso 0.790(11) 1 calc R . P A 1
C21_2 C 0.9711(17) 0.4543(17) -0.5663(14) 0.174(12) Uiso 0.790(11) 1 d D U P A
1
H21A_2 H 0.988827 0.467781 -0.619548 0.261 Uiso 0.790(11) 1 calc R . P A 1
H21B_2 H 0.968112 0.505220 -0.554562 0.261 Uiso 0.790(11) 1 calc R . P A 1
H21C_2 H 1.012860 0.413140 -0.540791 0.261 Uiso 0.790(11) 1 calc R . P A 1
C22_2 C 0.7683(12) 0.2053(9) -0.2806(10) 0.055(6) Uiso 0.790(11) 1 d D U P A 1
H22A_2 H 0.777818 0.197535 -0.328725 0.066 Uiso 0.790(11) 1 calc R . P A 1
H22B_2 H 0.709983 0.188228 -0.254783 0.066 Uiso 0.790(11) 1 calc R . P A 1
C23_2 C 0.8336(10) 0.1469(11) -0.2353(12) 0.052(5) Uiso 0.790(11) 1 d D U P A 1
H23A_2 H 0.826662 0.156940 -0.188341 0.063 Uiso 0.790(11) 1 calc R . P A 1
H23B_2 H 0.820702 0.088264 -0.223325 0.063 Uiso 0.790(11) 1 calc R . P A 1
C24_2 C 0.9258(10) 0.1584(11) -0.2741(10) 0.058(7) Uiso 0.790(11) 1 d D U P A 1
H24A_2 H 0.928982 0.162198 -0.325539 0.070 Uiso 0.790(11) 1 calc R . P A 1
H24B_2 H 0.941899 0.212551 -0.275701 0.070 Uiso 0.790(11) 1 calc R . P A 1
C25_2 C 0.9890(10) 0.0941(12) -0.2425(10) 0.059(7) Uiso 0.790(11) 1 d D U P A 1
H25A_2 H 1.046193 0.107621 -0.273256 0.071 Uiso 0.790(11) 1 calc R . P A 1
H25B_2 H 0.975360 0.039851 -0.242653 0.071 Uiso 0.790(11) 1 calc R . P A 1
C26_2 C 0.9915(12) 0.0862(13) -0.1631(10) 0.092(8) Uiso 0.790(11) 1 d D U P A 1
H26A_2 H 1.034872 0.042295 -0.143736 0.138 Uiso 0.790(11) 1 calc R . P A 1
H26B_2 H 1.006058 0.139518 -0.162862 0.138 Uiso 0.790(11) 1 calc R . P A 1
H26C_2 H 0.935254 0.071775 -0.132272 0.138 Uiso 0.790(11) 1 calc R . P A 1
C17B_2 C 0.777(4) 0.3716(19) -0.3603(16) 0.044(10) Uiso 0.210(11) 1 d D U P A 2
H17C_2 H 0.823324 0.404660 -0.361056 0.053 Uiso 0.210(11) 1 calc R . P A 2
H17D_2 H 0.722462 0.406105 -0.357181 0.053 Uiso 0.210(11) 1 calc R . P A 2
C18B_2 C 0.793(6) 0.355(3) -0.4314(17) 0.054(11) Uiso 0.210(11) 1 d D U P A 2
H18C_2 H 0.756916 0.310663 -0.426197 0.064 Uiso 0.210(11) 1 calc R . P A 2
H18D_2 H 0.853868 0.335021 -0.441600 0.064 Uiso 0.210(11) 1 calc R . P A 2
C19B_2 C 0.774(4) 0.434(3) -0.498(2) 0.05(2) Uiso 0.210(11) 1 d D U P A 2
H19C_2 H 0.711689 0.445698 -0.493945 0.066 Uiso 0.210(11) 1 calc R . P A 2
H19D_2 H 0.798727 0.482679 -0.495458 0.066 Uiso 0.210(11) 1 calc R . P A 2
C20B_2 C 0.812(5) 0.424(4) -0.573(2) 0.13(3) Uiso 0.210(11) 1 d D U P A 2
H20C_2 H 0.769433 0.444663 -0.605582 0.153 Uiso 0.210(11) 1 calc R . P A 2
H20D_2 H 0.827639 0.364196 -0.565669 0.153 Uiso 0.210(11) 1 calc R . P A 2
C21B_2 C 0.892(7) 0.474(8) -0.607(6) 0.27(6) Uiso 0.210(11) 1 d D U P A 2
H21D_2 H 0.916777 0.468312 -0.654502 0.402 Uiso 0.210(11) 1 calc R . P A 2
H21E_2 H 0.876155 0.533156 -0.613855 0.402 Uiso 0.210(11) 1 calc R . P A 2
H21F_2 H 0.934169 0.452952 -0.574073 0.402 Uiso 0.210(11) 1 calc R . P A 2
C22B_2 C 0.823(4) 0.218(2) -0.294(3) 0.057(11) Uiso 0.210(11) 1 d D U P A 2
H22C_2 H 0.882276 0.233851 -0.318791 0.069 Uiso 0.210(11) 1 calc R . P A 2
H22D_2 H 0.800441 0.197099 -0.326474 0.069 Uiso 0.210(11) 1 calc R . P A 2
C23B_2 C 0.830(2) 0.145(3) -0.223(4) 0.051(9) Uiso 0.210(11) 1 d D U P A 2
H23C_2 H 0.789279 0.155746 -0.181743 0.061 Uiso 0.210(11) 1 calc R . P A 2
H23D_2 H 0.814225 0.093402 -0.227237 0.061 Uiso 0.210(11) 1 calc R . P A 2
C24B_2 C 0.920(2) 0.133(3) -0.208(3) 0.039(18) Uiso 0.210(11) 1 d D U P A 2
H24C_2 H 0.950171 0.182602 -0.241804 0.046 Uiso 0.210(11) 1 calc R . P A 2
H24D_2 H 0.915622 0.133014 -0.157385 0.046 Uiso 0.210(11) 1 calc R . P A 2
C25B_2 C 0.974(2) 0.061(3) -0.213(5) 0.058(11) Uiso 0.210(11) 1 d D U P A 2
H25C_2 H 0.959751 0.044593 -0.251224 0.070 Uiso 0.210(11) 1 calc R . P A 2
H25D_2 H 0.961804 0.014517 -0.165237 0.070 Uiso 0.210(11) 1 calc R . P A 2
C26B_2 C 1.070(2) 0.076(3) -0.230(3) 0.019(18) Uiso 0.210(11) 1 d D U P A 2
H26D_2 H 1.103688 0.025273 -0.232869 0.028 Uiso 0.210(11) 1 calc R . P A 2
H26E_2 H 1.082888 0.121832 -0.277696 0.028 Uiso 0.210(11) 1 calc R . P A 2
H26F_2 H 1.084943 0.091731 -0.191638 0.028 Uiso 0.210(11) 1 calc R . P A 2
C1_3 C 0.5756(7) 0.0946(7) 0.0338(7) 0.020(4) Uiso 1 1 d . U . . .
C2_3 C 0.5010(7) 0.1489(7) 0.0350(7) 0.022(4) Uiso 1 1 d . U . . .
C3_3 C 0.4670(7) 0.1645(7) 0.1014(7) 0.029(4) Uiso 1 1 d . U . . .
H3_3 H 0.414372 0.196881 0.105026 0.035 Uiso 1 1 calc R . . . .
C4_3 C 0.5078(8) 0.1342(8) 0.1592(7) 0.033(4) Uiso 1 1 d . U . . .
C5_3 C 0.5833(8) 0.0822(8) 0.1585(7) 0.032(4) Uiso 1 1 d . U . . .
C6_3 C 0.6195(7) 0.0636(7) 0.0944(7) 0.026(4) Uiso 1 1 d . U . . .
C7_3 C 0.6957(8) 0.0107(8) 0.0927(7) 0.035(4) Uiso 1 1 d . U . . .
C8_3 C 0.7332(8) -0.0167(8) 0.1542(7) 0.040(4) Uiso 1 1 d . U . . .
H8_3 H 0.786428 -0.048515 0.152328 0.048 Uiso 1 1 calc R . . . .
C9_3 C 0.6989(8) -0.0013(8) 0.2185(7) 0.043(4) Uiso 1 1 d . U . . .
H9_3 H 0.726131 -0.023791 0.260302 0.052 Uiso 1 1 calc R . . . .
C10_3 C 0.6229(8) 0.0485(8) 0.2196(8) 0.041(4) Uiso 1 1 d . U . . .
C11_3 C 0.5828(10) 0.0651(10) 0.2869(9) 0.068(5) Uiso 1 1 d . U . . .
O12_3 O 0.6112(6) 0.0291(7) 0.3453(6) 0.092(4) Uiso 1 1 d . U . . .
N13_3 N 0.5106(7) 0.1190(7) 0.2883(6) 0.051(3) Uiso 1 1 d . U . . .
C14_3 C 0.4716(9) 0.1549(9) 0.2268(8) 0.050(4) Uiso 1 1 d . U . . .
O15_3 O 0.4066(5) 0.1999(5) 0.2295(4) 0.049(3) Uiso 1 1 d . U . . .
C16_3 C 0.4685(9) 0.1358(9) 0.3575(8) 0.057(5) Uiso 1 1 d D U . . .
H16_3 H 0.434293 0.189813 0.338599 0.069 Uiso 0.583(17) 1 calc R . P B 1
H16B_3 H 0.514966 0.111305 0.387203 0.069 Uiso 0.417(17) 1 calc R . P B 2
C17_3 C 0.4023(9) 0.0768(9) 0.4015(8) 0.075(5) Uiso 1 1 d D U . . .
H17A_3 H 0.430415 0.019839 0.418282 0.091 Uiso 1 1 calc R . . . .
H17B_3 H 0.362796 0.077039 0.369313 0.091 Uiso 1 1 calc R . . . .
C18_3 C 0.3484(8) 0.0945(9) 0.4699(8) 0.074(5) Uiso 1 1 d D U . . .
H18A_3 H 0.321003 0.151874 0.454468 0.089 Uiso 1 1 calc R . . . .
H18B_3 H 0.386216 0.090533 0.504559 0.089 Uiso 1 1 calc R . . . .
C19_3 C 0.2778(8) 0.0298(9) 0.5090(8) 0.073(5) Uiso 1 1 d D U . . .
H19A_3 H 0.245604 0.027606 0.472510 0.087 Uiso 1 1 calc R . . . .
H19B_3 H 0.305117 -0.026476 0.531130 0.087 Uiso 1 1 calc R . . . .
C20_3 C 0.2159(10) 0.0552(11) 0.5693(9) 0.101(6) Uiso 1 1 d D U . . .
H20A_3 H 0.182478 0.107716 0.546746 0.121 Uiso 1 1 calc R . . . .
H20B_3 H 0.248548 0.064572 0.602340 0.121 Uiso 1 1 calc R . . . .
C21_3 C 0.1553(10) -0.0151(11) 0.6132(9) 0.122(7) Uiso 1 1 d D U . . .
H21A_3 H 0.115462 0.000400 0.651851 0.182 Uiso 1 1 calc R . . . .
H21B_3 H 0.122917 -0.023742 0.580198 0.182 Uiso 1 1 calc R . . . .
H21C_3 H 0.188785 -0.066754 0.635622 0.182 Uiso 1 1 calc R . . . .
C22_3 C 0.5274(13) 0.1565(14) 0.3925(11) 0.052(9) Uiso 0.583(17) 1 d D U P B 1
H22A_3 H 0.563467 0.105520 0.413928 0.062 Uiso 0.583(17) 1 calc R . P B 1
H22B_3 H 0.493966 0.173209 0.433712 0.062 Uiso 0.583(17) 1 calc R . P B 1
C23_3 C 0.5857(16) 0.2254(18) 0.3437(16) 0.056(7) Uiso 0.583(17) 1 d D U P B 1
H23A_3 H 0.616705 0.210688 0.300799 0.067 Uiso 0.583(17) 1 calc R . P B 1
H23B_3 H 0.550086 0.277700 0.325087 0.067 Uiso 0.583(17) 1 calc R . P B 1
C24_3 C 0.6496(16) 0.2409(16) 0.3814(13) 0.053(7) Uiso 0.583(17) 1 d D U P B 1
H24A_3 H 0.689321 0.190775 0.395770 0.063 Uiso 0.583(17) 1 calc R . P B 1
H24B_3 H 0.619484 0.251195 0.426686 0.063 Uiso 0.583(17) 1 calc R . P B 1
C25_3 C 0.700(3) 0.315(3) 0.332(3) 0.091(8) Uiso 0.583(17) 1 d D U P B 1
H25A_3 H 0.659753 0.364396 0.314620 0.110 Uiso 0.583(17) 1 calc R . P B 1
H25B_3 H 0.732632 0.303418 0.287763 0.110 Uiso 0.583(17) 1 calc R . P B 1
C26_3 C 0.7626(15) 0.337(2) 0.3694(15) 0.092(11) Uiso 0.583(17) 1 d D U P B 1
H26A_3 H 0.793512 0.385705 0.334749 0.138 Uiso 0.583(17) 1 calc R . P B 1
H26B_3 H 0.730760 0.350445 0.412212 0.138 Uiso 0.583(17) 1 calc R . P B 1
H26C_3 H 0.803671 0.289441 0.385343 0.138 Uiso 0.583(17) 1 calc R . P B 1
C22B_3 C 0.4758(17) 0.2228(14) 0.3433(18) 0.063(14) Uiso 0.417(17) 1 d D U P B
2
H22C_3 H 0.454208 0.231074 0.390954 0.075 Uiso 0.417(17) 1 calc R . P B 2
H22D_3 H 0.433919 0.253716 0.311069 0.075 Uiso 0.417(17) 1 calc R . P B 2
C23B_3 C 0.5557(19) 0.268(2) 0.3111(18) 0.057(9) Uiso 0.417(17) 1 d D U P B 2
H23C_3 H 0.540137 0.328171 0.300794 0.069 Uiso 0.417(17) 1 calc R . P B 2
H23D_3 H 0.578929 0.260584 0.263250 0.069 Uiso 0.417(17) 1 calc R . P B 2
C24B_3 C 0.625(2) 0.244(3) 0.355(2) 0.058(7) Uiso 0.417(17) 1 d D U P B 2
H24C_3 H 0.653988 0.190251 0.351178 0.069 Uiso 0.417(17) 1 calc R . P B 2
H24D_3 H 0.599076 0.232929 0.406922 0.069 Uiso 0.417(17) 1 calc R . P B 2
C25B_3 C 0.693(4) 0.305(4) 0.334(4) 0.092(9) Uiso 0.417(17) 1 d D U P B 2
H25C_3 H 0.667856 0.353672 0.347925 0.111 Uiso 0.417(17) 1 calc R . P B 2
H25D_3 H 0.711688 0.324956 0.279779 0.111 Uiso 0.417(17) 1 calc R . P B 2
C26B_3 C 0.772(2) 0.268(3) 0.370(3) 0.15(2) Uiso 0.417(17) 1 d D U P B 2
H26D_3 H 0.813538 0.310311 0.354839 0.220 Uiso 0.417(17) 1 calc R . P B 2
H26E_3 H 0.754171 0.248780 0.424074 0.220 Uiso 0.417(17) 1 calc R . P B 2
H26F_3 H 0.798033 0.220045 0.355880 0.220 Uiso 0.417(17) 1 calc R . P B 2
C1_4 C 0.6051(7) 0.0674(7) -0.0284(6) 0.023(4) Uiso 1 1 d . U . . .
C2_4 C 0.5547(7) 0.0871(7) -0.0824(6) 0.023(4) Uiso 1 1 d . U . . .
C3_4 C 0.5851(8) 0.0555(7) -0.1416(7) 0.035(4) Uiso 1 1 d . U . . .
H3_4 H 0.552195 0.068565 -0.179342 0.042 Uiso 1 1 calc R . . . .
C4_4 C 0.6594(8) 0.0077(8) -0.1451(7) 0.028(4) Uiso 1 1 d . U . . .
C5_4 C 0.7087(8) -0.0137(7) -0.0895(7) 0.027(4) Uiso 1 1 d . U . . .
C6_4 C 0.6814(7) 0.0143(7) -0.0287(7) 0.026(4) Uiso 1 1 d . U . . .
C7_4 C 0.7302(8) -0.0108(8) 0.0280(7) 0.034(4) Uiso 1 1 d . U . . .
C8_4 C 0.8066(8) -0.0595(7) 0.0201(7) 0.036(4) Uiso 1 1 d . U . . .
H8_4 H 0.840591 -0.076506 0.057484 0.043 Uiso 1 1 calc R . . . .
C9_4 C 0.8342(8) -0.0835(7) -0.0414(7) 0.036(4) Uiso 1 1 d . U . . .
H9_4 H 0.887468 -0.114605 -0.046242 0.043 Uiso 1 1 calc R . . . .
C10_4 C 0.7850(8) -0.0625(8) -0.0950(7) 0.032(4) Uiso 1 1 d . U . . .
C11_4 C 0.8131(8) -0.0876(8) -0.1598(7) 0.035(4) Uiso 1 1 d . U . . .
O12_4 O 0.8852(5) -0.1262(5) -0.1663(4) 0.046(3) Uiso 1 1 d . U . . .
N13_4 N 0.7622(6) -0.0699(6) -0.2109(6) 0.038(3) Uiso 1 1 d . U . . .
C14_4 C 0.6833(8) -0.0226(8) -0.2084(7) 0.031(4) Uiso 1 1 d . U . . .
O15_4 O 0.6419(5) -0.0058(5) -0.2562(5) 0.043(3) Uiso 1 1 d . U . . .
C16_4 C 0.7897(8) -0.1019(8) -0.2737(7) 0.040(4) Uiso 1 1 d . U . . .
H16_4 H 0.740215 -0.087324 -0.300370 0.048 Uiso 1 1 calc R . . . .
C17_4 C 0.8005(8) -0.1972(8) -0.2455(7) 0.043(4) Uiso 1 1 d . U . . .
H17A_4 H 0.853675 -0.215201 -0.224535 0.051 Uiso 1 1 calc R . . . .
H17B_4 H 0.751714 -0.219910 -0.205634 0.051 Uiso 1 1 calc R . . . .
C18_4 C 0.8048(8) -0.2324(8) -0.3056(7) 0.049(4) Uiso 1 1 d . U . . .
H18A_4 H 0.859152 -0.217635 -0.340885 0.059 Uiso 1 1 calc R . . . .
H18B_4 H 0.757097 -0.205876 -0.332530 0.059 Uiso 1 1 calc R . . . .
C19_4 C 0.7997(9) -0.3262(9) -0.2776(8) 0.078(5) Uiso 1 1 d . U . . .
H19A_4 H 0.840747 -0.352061 -0.243399 0.094 Uiso 1 1 calc R . . . .
H19B_4 H 0.741497 -0.340019 -0.249189 0.094 Uiso 1 1 calc R . . . .
C20_4 C 0.8188(10) -0.3644(10) -0.3369(9) 0.093(6) Uiso 1 1 d . U . . .
H20A_4 H 0.876600 -0.350083 -0.366075 0.111 Uiso 1 1 calc R . . . .
H20B_4 H 0.776822 -0.340203 -0.370400 0.111 Uiso 1 1 calc R . . . .
C21_4 C 0.8148(9) -0.4594(10) -0.3052(8) 0.094(6) Uiso 1 1 d . U . . .
H21A_4 H 0.827502 -0.481625 -0.345403 0.141 Uiso 1 1 calc R . . . .
H21B_4 H 0.857045 -0.483650 -0.272735 0.141 Uiso 1 1 calc R . . . .
H21C_4 H 0.757295 -0.473773 -0.277060 0.141 Uiso 1 1 calc R . . . .
C22_4 C 0.8632(8) -0.0575(8) -0.3288(7) 0.053(5) Uiso 1 1 d . U . . .
H22A_4 H 0.910274 -0.060978 -0.302492 0.064 Uiso 1 1 calc R . . . .
H22B_4 H 0.884160 -0.087855 -0.363572 0.064 Uiso 1 1 calc R . . . .
C23_4 C 0.8450(8) 0.0317(8) -0.3722(7) 0.058(5) Uiso 1 1 d . U . . .
H23A_4 H 0.830493 0.064072 -0.338597 0.070 Uiso 1 1 calc R . . . .
H23B_4 H 0.794632 0.036700 -0.395266 0.070 Uiso 1 1 calc R . . . .
C24_4 C 0.9202(8) 0.0687(9) -0.4314(7) 0.066(5) Uiso 1 1 d . U . . .
H24A_4 H 0.969044 0.067029 -0.407555 0.079 Uiso 1 1 calc R . . . .
H24B_4 H 0.937560 0.032969 -0.462007 0.079 Uiso 1 1 calc R . . . .
C25_4 C 0.9039(10) 0.1564(10) -0.4808(9) 0.096(6) Uiso 1 1 d . U . . .
H25A_4 H 0.892357 0.193335 -0.451164 0.115 Uiso 1 1 calc R . . . .
H25B_4 H 0.851784 0.159476 -0.501156 0.115 Uiso 1 1 calc R . . . .
C26_4 C 0.9783(9) 0.1894(10) -0.5448(8) 0.096(6) Uiso 1 1 d . U . . .
H26A_4 H 0.963260 0.246965 -0.574721 0.144 Uiso 1 1 calc R . . . .
H26B_4 H 1.029872 0.188008 -0.525150 0.144 Uiso 1 1 calc R . . . .
H26C_4 H 0.989251 0.154110 -0.575201 0.144 Uiso 1 1 calc R . . . .
C1_5 C 0.4360(8) 0.3439(8) 0.0168(7) 0.032(4) Uiso 1 1 d . U . . .
C2_5 C 0.4129(7) 0.3852(7) 0.0686(6) 0.026(4) Uiso 1 1 d . U . . .
C3_5 C 0.3239(7) 0.4030(7) 0.0923(6) 0.033(4) Uiso 1 1 d . U . . .
H3_5 H 0.306502 0.427679 0.129161 0.039 Uiso 1 1 calc R . . . .
C4_5 C 0.2644(8) 0.3846(8) 0.0622(7) 0.043(4) Uiso 1 1 d . U . . .
H4_5 H 0.206136 0.402737 0.074041 0.051 Uiso 1 1 calc R . . . .
C5_5 C 0.2864(8) 0.3389(8) 0.0135(7) 0.032(4) Uiso 1 1 d . U . . .
C6_5 C 0.2219(8) 0.3240(8) -0.0169(7) 0.037(4) Uiso 1 1 d . U . . .
C7_5 C 0.2389(8) 0.2792(8) -0.0642(7) 0.035(4) Uiso 1 1 d . U . . .
C8_5 C 0.3233(8) 0.2392(8) -0.0718(7) 0.033(4) Uiso 1 1 d . U . . .
C9_5 C 0.3431(8) 0.1952(8) -0.1216(7) 0.039(4) Uiso 1 1 d . U . . .
H9_5 H 0.301967 0.196167 -0.150022 0.047 Uiso 1 1 calc R . . . .
C10_5 C 0.4201(8) 0.1511(8) -0.1294(7) 0.041(4) Uiso 1 1 d . U . . .
H10_5 H 0.435773 0.128362 -0.167642 0.049 Uiso 1 1 calc R . . . .
C11_5 C 0.4766(7) 0.1398(7) -0.0797(7) 0.025(4) Uiso 1 1 d . U . . .
C12_5 C 0.4561(7) 0.1785(8) -0.0263(7) 0.028(4) Uiso 1 1 d . U . . .
C13_5 C 0.3846(7) 0.2419(8) -0.0323(6) 0.028(4) Uiso 1 1 d . U . . .
C14_5 C 0.3729(8) 0.3079(8) -0.0016(6) 0.028(4) Uiso 1 1 d . U . . .
O15_5 O 0.1412(5) 0.3629(5) -0.0035(4) 0.044(3) Uiso 1 1 d D U . . .
C16_5 C 0.0779(15) 0.3020(17) 0.0346(17) 0.028(8) Uiso 0.472(19) 1 d D U P C 1
H16A_5 H 0.103432 0.252006 0.069638 0.034 Uiso 0.472(19) 1 calc R . P C 1
H16B_5 H 0.057656 0.284552 -0.001042 0.034 Uiso 0.472(19) 1 calc R . P C 1
C17_5 C 0.0040(15) 0.340(2) 0.0754(14) 0.044(8) Uiso 0.472(19) 1 d D U P C 1
H17A_5 H -0.049741 0.316133 0.077680 0.053 Uiso 0.472(19) 1 calc R . P C 1
H17B_5 H -0.001628 0.401173 0.049075 0.053 Uiso 0.472(19) 1 calc R . P C 1
C18_5 C 0.0189(18) 0.322(2) 0.1541(17) 0.058(9) Uiso 0.472(19) 1 d D U P C 1
H18A_5 H 0.019446 0.261221 0.180191 0.069 Uiso 0.472(19) 1 calc R . P C 1
H18B_5 H 0.076847 0.339613 0.150090 0.069 Uiso 0.472(19) 1 calc R . P C 1
C19_5 C -0.0397(18) 0.3607(18) 0.1991(16) 0.052(9) Uiso 0.472(19) 1 d D U P C 1
H19A_5 H -0.034490 0.329190 0.251084 0.062 Uiso 0.472(19) 1 calc R . P C 1
H19B_5 H -0.098561 0.355582 0.193830 0.062 Uiso 0.472(19) 1 calc R . P C 1
C20_5 C -0.0278(19) 0.4548(15) 0.182(2) 0.064(12) Uiso 0.472(19) 1 d D U P C 1
H20A_5 H -0.070961 0.475413 0.216136 0.096 Uiso 0.472(19) 1 calc R . P C 1
H20B_5 H 0.029592 0.460841 0.188975 0.096 Uiso 0.472(19) 1 calc R . P C 1
H20C_5 H -0.034645 0.487301 0.131573 0.096 Uiso 0.472(19) 1 calc R . P C 1
C16B_5 C 0.0633(14) 0.3194(16) 0.0188(15) 0.036(8) Uiso 0.528(19) 1 d D U P C 2
H16C_5 H 0.073069 0.261626 0.052685 0.043 Uiso 0.528(19) 1 calc R . P C 2
H16D_5 H 0.044875 0.316722 -0.024721 0.043 Uiso 0.528(19) 1 calc R . P C 2
C17B_5 C -0.0044(13) 0.366(2) 0.0567(14) 0.044(8) Uiso 0.528(19) 1 d D U P C 2
H17C_5 H -0.058986 0.338764 0.070123 0.053 Uiso 0.528(19) 1 calc R . P C 2
H17D_5 H -0.013356 0.423825 0.022073 0.053 Uiso 0.528(19) 1 calc R . P C 2
C18B_5 C 0.0189(17) 0.371(2) 0.1275(15) 0.068(9) Uiso 0.528(19) 1 d D U P C 2
H18C_5 H 0.032378 0.313013 0.159781 0.082 Uiso 0.528(19) 1 calc R . P C 2
H18D_5 H 0.071936 0.401036 0.112856 0.082 Uiso 0.528(19) 1 calc R . P C 2
C19B_5 C -0.0439(17) 0.410(2) 0.1702(15) 0.052(8) Uiso 0.528(19) 1 d D U P C 2
H19C_5 H -0.096801 0.379364 0.184086 0.062 Uiso 0.528(19) 1 calc R . P C 2
H19D_5 H -0.057301 0.467181 0.137294 0.062 Uiso 0.528(19) 1 calc R . P C 2
C20B_5 C -0.0251(14) 0.4164(18) 0.2415(14) 0.052(10) Uiso 0.528(19) 1 d D U P C
2
H20D_5 H -0.074641 0.444593 0.263725 0.078 Uiso 0.528(19) 1 calc R . P C 2
H20E_5 H -0.014362 0.360228 0.276382 0.078 Uiso 0.528(19) 1 calc R . P C 2
H20F_5 H 0.025384 0.448589 0.229300 0.078 Uiso 0.528(19) 1 calc R . P C 2
O21_5 O 0.1808(5) 0.2674(5) -0.0999(4) 0.041(3) Uiso 1 1 d D U . . .
C22_5 C 0.152(4) 0.3415(14) -0.152(2) 0.051(7) Uiso 0.480(13) 1 d D U P D 1
H22A_5 H 0.201996 0.369800 -0.187589 0.062 Uiso 0.480(13) 1 calc R . P D 1
H22B_5 H 0.121064 0.379950 -0.127240 0.062 Uiso 0.480(13) 1 calc R . P D 1
C23_5 C 0.093(2) 0.322(3) -0.1937(18) 0.047(8) Uiso 0.480(13) 1 d D U P D 1
H23A_5 H 0.040020 0.299814 -0.159220 0.057 Uiso 0.480(13) 1 calc R . P D 1
H23B_5 H 0.076900 0.373698 -0.232485 0.057 Uiso 0.480(13) 1 calc R . P D 1
C24_5 C 0.134(2) 0.2600(17) -0.2275(15) 0.054(8) Uiso 0.480(13) 1 d D U P D 1
H24A_5 H 0.089758 0.241966 -0.246095 0.065 Uiso 0.480(13) 1 calc R . P D 1
H24B_5 H 0.154766 0.210250 -0.189261 0.065 Uiso 0.480(13) 1 calc R . P D 1
C25_5 C 0.2109(17) 0.2932(18) -0.2931(16) 0.060(9) Uiso 0.480(13) 1 d D U P D 1
H25A_5 H 0.256876 0.308202 -0.274731 0.072 Uiso 0.480(13) 1 calc R . P D 1
H25B_5 H 0.191105 0.343982 -0.331214 0.072 Uiso 0.480(13) 1 calc R . P D 1
C26_5 C 0.2467(18) 0.2243(19) -0.3275(16) 0.087(13) Uiso 0.480(13) 1 d D U P D
1
H26A_5 H 0.294444 0.245364 -0.368017 0.131 Uiso 0.480(13) 1 calc R . P D 1
H26B_5 H 0.266851 0.174393 -0.289824 0.131 Uiso 0.480(13) 1 calc R . P D 1
H26C_5 H 0.201212 0.210100 -0.346192 0.131 Uiso 0.480(13) 1 calc R . P D 1
C22B_5 C 0.163(6) 0.332(2) -0.165(3) 0.052(9) Uiso 0.262(14) 1 d D U P D 2
H22C_5 H 0.215129 0.361966 -0.191845 0.062 Uiso 0.262(14) 1 calc R . P D 2
H22D_5 H 0.118130 0.372287 -0.151861 0.062 Uiso 0.262(14) 1 calc R . P D 2
C23B_5 C 0.132(5) 0.295(3) -0.213(2) 0.053(8) Uiso 0.262(14) 1 d D U P D 2
H23C_5 H 0.178035 0.256113 -0.226926 0.063 Uiso 0.262(14) 1 calc R . P D 2
H23D_5 H 0.081876 0.262390 -0.184510 0.063 Uiso 0.262(14) 1 calc R . P D 2
C24B_5 C 0.108(3) 0.358(3) -0.2805(19) 0.046(19) Uiso 0.262(14) 1 d D U P D 2
H24C_5 H 0.157370 0.392202 -0.308851 0.055 Uiso 0.262(14) 1 calc R . P D 2
H24D_5 H 0.059931 0.395059 -0.267464 0.055 Uiso 0.262(14) 1 calc R . P D 2
C25B_5 C 0.081(5) 0.314(3) -0.330(3) 0.081(19) Uiso 0.262(14) 1 d D U P D 2
H25C_5 H 0.131084 0.280201 -0.346185 0.097 Uiso 0.262(14) 1 calc R . P D 2
H25D_5 H 0.035630 0.275260 -0.299796 0.097 Uiso 0.262(14) 1 calc R . P D 2
C26B_5 C 0.048(3) 0.379(3) -0.399(2) 0.08(2) Uiso 0.262(14) 1 d D U P D 2
H26D_5 H 0.031469 0.350099 -0.427929 0.123 Uiso 0.262(14) 1 calc R . P D 2
H26E_5 H -0.002663 0.411979 -0.383009 0.123 Uiso 0.262(14) 1 calc R . P D 2
H26F_5 H 0.092744 0.416918 -0.429375 0.123 Uiso 0.262(14) 1 calc R . P D 2
C22C_5 C 0.150(8) 0.341(2) -0.152(4) 0.051(8) Uiso 0.258(17) 1 d D U P D 3
H22E_5 H 0.197803 0.377085 -0.179618 0.062 Uiso 0.258(17) 1 calc R . P D 3
H22F_5 H 0.107158 0.372191 -0.125357 0.062 Uiso 0.258(17) 1 calc R . P D 3
C23C_5 C 0.109(5) 0.320(6) -0.204(3) 0.050(9) Uiso 0.258(17) 1 d D U P D 3
H23E_5 H 0.063322 0.280574 -0.175919 0.060 Uiso 0.258(17) 1 calc R . P D 3
H23F_5 H 0.081151 0.371486 -0.235976 0.060 Uiso 0.258(17) 1 calc R . P D 3
C24C_5 C 0.171(3) 0.282(4) -0.251(3) 0.055(9) Uiso 0.258(17) 1 d D U P D 3
H24E_5 H 0.201397 0.232562 -0.219588 0.066 Uiso 0.258(17) 1 calc R . P D 3
H24F_5 H 0.214430 0.322779 -0.281999 0.066 Uiso 0.258(17) 1 calc R . P D 3
C25C_5 C 0.128(3) 0.254(3) -0.303(2) 0.05(2) Uiso 0.258(17) 1 d D U P D 3
H25E_5 H 0.172798 0.225943 -0.330761 0.063 Uiso 0.258(17) 1 calc R . P D 3
H25F_5 H 0.085017 0.213760 -0.272482 0.063 Uiso 0.258(17) 1 calc R . P D 3
C26C_5 C 0.085(5) 0.330(4) -0.359(4) 0.10(2) Uiso 0.258(17) 1 d D U P D 3
H26G_5 H 0.059198 0.309681 -0.389499 0.157 Uiso 0.258(17) 1 calc R . P D 3
H26H_5 H 0.039786 0.357408 -0.331695 0.157 Uiso 0.258(17) 1 calc R . P D 3
H26I_5 H 0.127566 0.369591 -0.389973 0.157 Uiso 0.258(17) 1 calc R . P D 3
C1_6 C 0.8995(12) 0.1485(12) 0.0055(10) 0.088(6) Uiso 1 1 d . U . . .
F2_6 F 0.8445(5) 0.1589(5) -0.0399(5) 0.084(3) Uiso 1 1 d . U . . .
F3_6 F 0.9630(5) 0.1999(5) -0.0393(4) 0.081(3) Uiso 1 1 d . U . . .
F4_6 F 0.9390(5) 0.0712(6) 0.0135(5) 0.089(3) Uiso 1 1 d . U . . .
C5_6 C 0.8663(9) 0.1616(9) 0.0724(8) 0.054(5) Uiso 1 1 d . U . . .
C6_6 C 0.9169(9) 0.1414(8) 0.1254(8) 0.061(5) Uiso 1 1 d . U . . .
H6_6 H 0.973883 0.118686 0.116212 0.073 Uiso 1 1 calc R . . . .
C7_6 C 0.8870(10) 0.1534(9) 0.1902(9) 0.079(5) Uiso 1 1 d . U . . .
H7_6 H 0.921953 0.136714 0.226818 0.094 Uiso 1 1 calc R . . . .
C8_6 C 0.8047(9) 0.1904(9) 0.2031(8) 0.064(5) Uiso 1 1 d . U . . .
H8_6 H 0.782990 0.200875 0.247650 0.077 Uiso 1 1 calc R . . . .
C9_6 C 0.7566(9) 0.2109(9) 0.1492(8) 0.063(5) Uiso 1 1 d . U . . .
H9_6 H 0.700367 0.235481 0.157975 0.076 Uiso 1 1 calc R . . . .
C10_6 C 0.7836(9) 0.1987(9) 0.0843(8) 0.067(5) Uiso 1 1 d . U . . .
H10_6 H 0.747893 0.214535 0.048272 0.080 Uiso 1 1 calc R . . . .
loop_
_atom_type_symbol
_atom_type_description
_atom_type_scat_dispersion_real
_atom_type_scat_dispersion_imag
_atom_type_scat_source
C C 0.0181 0.0091 'International Tables Vol C Tables 4.2.6.8 and 6.1.1.4'
H H 0.0000 0.0000 'International Tables Vol C Tables 4.2.6.8 and 6.1.1.4'
F F 0.0727 0.0534 'International Tables Vol C Tables 4.2.6.8 and 6.1.1.4'
N N 0.0311 0.0180 'International Tables Vol C Tables 4.2.6.8 and 6.1.1.4'
O O 0.0492 0.0322 'International Tables Vol C Tables 4.2.6.8 and 6.1.1.4'
loop_
_exptl_crystal_face_index_h
_exptl_crystal_face_index_k
_exptl_crystal_face_index_l
_exptl_crystal_face_perp_dist
-7 -9 -4 0.0616
-10 -1 -1 0.0095
10 1 1 0.0095
4 -1 11 0.0133
10 2 -8 0.0054
-4 1 -11 0.0114
1 11 6 0.0753
loop_
_geom_angle_atom_site_label_1
_geom_angle_atom_site_label_2
_geom_angle_atom_site_label_3
_geom_angle
C2_1 C1_1 C6_1 120.6(12)
C2_1 C1_1 C1_2 119.5(12)
C1_2 C1_1 C6_1 119.5(11)
C1_1 C2_1 C3_1 118.2(12)
C1_1 C2_1 C2_5 119.7(12)
C2_5 C2_1 C3_1 122.0(12)
C2_1 C3_1 H3_1 119.4
C4_1 C3_1 C2_1 121.1(12)
C4_1 C3_1 H3_1 119.4
C3_1 C4_1 C5_1 122.2(13)
C3_1 C4_1 C14_1 118.6(12)
C5_1 C4_1 C14_1 119.3(13)
C4_1 C5_1 C6_1 118.3(12)
C10_1 C5_1 C4_1 120.2(13)
C10_1 C5_1 C6_1 121.5(12)
C5_1 C6_1 C1_1 119.3(12)
C7_1 C6_1 C1_1 120.8(12)
C7_1 C6_1 C5_1 119.8(12)
C6_1 C7_1 C8_1 118.3(12)
C6_1 C7_1 C7_2 120.1(12)
C8_1 C7_1 C7_2 121.4(12)
C7_1 C8_1 H8_1 120.0
C9_1 C8_1 C7_1 120.0(12)
C9_1 C8_1 H8_1 120.0
C8_1 C9_1 H9_1 119.2
C10_1 C9_1 C8_1 121.6(13)
C10_1 C9_1 H9_1 119.2
C5_1 C10_1 C9_1 118.7(13)
C5_1 C10_1 C11_1 121.2(13)
C9_1 C10_1 C11_1 120.1(13)
O12_1 C11_1 C10_1 119.9(13)
O12_1 C11_1 N13_1 122.4(13)
N13_1 C11_1 C10_1 117.6(13)
C11_1 N13_1 C16_1 117.4(11)
C14_1 N13_1 C11_1 123.2(12)
C14_1 N13_1 C16_1 118.9(11)
N13_1 C14_1 C4_1 118.3(12)
O15_1 C14_1 C4_1 120.8(13)
O15_1 C14_1 N13_1 120.8(13)
N13_1 C16_1 H16_1 106.2
N13_1 C16_1 C17_1 111.4(10)
N13_1 C16_1 C22_1 109.9(10)
C17_1 C16_1 H16_1 106.2
C17_1 C16_1 C22_1 116.4(11)
C22_1 C16_1 H16_1 106.2
C16_1 C17_1 H17A_1 109.2
C16_1 C17_1 H17B_1 109.2
C16_1 C17_1 C18_1 112.2(10)
H17A_1 C17_1 H17B_1 107.9
C18_1 C17_1 H17A_1 109.2
C18_1 C17_1 H17B_1 109.2
C17_1 C18_1 H18A_1 108.8
C17_1 C18_1 H18B_1 108.8
C17_1 C18_1 C19_1 113.7(11)
H18A_1 C18_1 H18B_1 107.7
C19_1 C18_1 H18A_1 108.8
C19_1 C18_1 H18B_1 108.8
C18_1 C19_1 H19A_1 108.4
C18_1 C19_1 H19B_1 108.4
C18_1 C19_1 C20_1 115.4(12)
H19A_1 C19_1 H19B_1 107.5
C20_1 C19_1 H19A_1 108.4
C20_1 C19_1 H19B_1 108.4
C19_1 C20_1 H20A_1 108.8
C19_1 C20_1 H20B_1 108.8
H20A_1 C20_1 H20B_1 107.7
C21_1 C20_1 C19_1 113.6(14)
C21_1 C20_1 H20A_1 108.8
C21_1 C20_1 H20B_1 108.8
C20_1 C21_1 H21A_1 109.5
C20_1 C21_1 H21B_1 109.5
C20_1 C21_1 H21C_1 109.5
H21A_1 C21_1 H21B_1 109.5
H21A_1 C21_1 H21C_1 109.5
H21B_1 C21_1 H21C_1 109.5
C16_1 C22_1 H22A_1 108.1
C16_1 C22_1 H22B_1 108.1
C16_1 C22_1 C23_1 116.6(11)
H22A_1 C22_1 H22B_1 107.3
C23_1 C22_1 H22A_1 108.1
C23_1 C22_1 H22B_1 108.1
C22_1 C23_1 H23A_1 108.8
C22_1 C23_1 H23B_1 108.8
H23A_1 C23_1 H23B_1 107.7
C24_1 C23_1 C22_1 113.8(11)
C24_1 C23_1 H23A_1 108.8
C24_1 C23_1 H23B_1 108.8
C23_1 C24_1 H24A_1 109.4
C23_1 C24_1 H24B_1 109.4
H24A_1 C24_1 H24B_1 108.0
C25_1 C24_1 C23_1 111.4(11)
C25_1 C24_1 H24A_1 109.4
C25_1 C24_1 H24B_1 109.4
C24_1 C25_1 H25A_1 109.8
C24_1 C25_1 H25B_1 109.8
C24_1 C25_1 C26_1 109.2(12)
H25A_1 C25_1 H25B_1 108.3
C26_1 C25_1 H25A_1 109.8
C26_1 C25_1 H25B_1 109.8
C25_1 C26_1 H26A_1 109.5
C25_1 C26_1 H26B_1 109.5
C25_1 C26_1 H26C_1 109.5
H26A_1 C26_1 H26B_1 109.5
H26A_1 C26_1 H26C_1 109.5
H26B_1 C26_1 H26C_1 109.5
C1_1 C1_2 C2_2 121.5(11)
C1_1 C1_2 C6_2 119.4(11)
C2_2 C1_2 C6_2 119.0(11)
C1_2 C2_2 C1_5 118.1(11)
C3_2 C2_2 C1_2 118.7(11)
C3_2 C2_2 C1_5 122.9(12)
C2_2 C3_2 H3_2 119.2
C4_2 C3_2 C2_2 121.5(12)
C4_2 C3_2 H3_2 119.2
C3_2 C4_2 C5_2 122.2(12)
C3_2 C4_2 C14_2 120.0(12)
C5_2 C4_2 C14_2 117.8(12)
C4_2 C5_2 C6_2 119.0(11)
C10_2 C5_2 C4_2 122.0(12)
C10_2 C5_2 C6_2 118.9(12)
C5_2 C6_2 C1_2 119.4(11)
C5_2 C6_2 C7_2 119.7(11)
C7_2 C6_2 C1_2 120.8(12)
C6_2 C7_2 C7_1 118.8(11)
C8_2 C7_2 C7_1 122.3(12)
C8_2 C7_2 C6_2 119.0(12)
C7_2 C8_2 H8_2 119.6
C9_2 C8_2 C7_2 120.8(13)
C9_2 C8_2 H8_2 119.6
C8_2 C9_2 H9_2 119.8
C10_2 C9_2 C8_2 120.3(13)
C10_2 C9_2 H9_2 119.8
C5_2 C10_2 C11_2 118.4(12)
C9_2 C10_2 C5_2 121.3(13)
C9_2 C10_2 C11_2 120.3(12)
O12_2 C11_2 C10_2 119.1(13)
O12_2 C11_2 N13_2 120.1(13)
N13_2 C11_2 C10_2 120.8(12)
C11_2 N13_2 C14_2 120.8(12)
C11_2 N13_2 C16_2 118.9(11)
C14_2 N13_2 C16_2 120.1(11)
N13_2 C14_2 C4_2 120.1(13)
O15_2 C14_2 C4_2 119.3(12)
O15_2 C14_2 N13_2 120.5(13)
N13_2 C16_2 H16_2 105.9
N13_2 C16_2 H16B_2 97.7
N13_2 C16_2 C17_2 111.7(11)
N13_2 C16_2 C22_2 109.8(12)
C17_2 C16_2 H16_2 105.9
C17_2 C16_2 C22_2 116.9(13)
C22_2 C16_2 H16_2 105.9
C17B_2 C16_2 N13_2 115.2(19)
C17B_2 C16_2 H16B_2 97.7
C17B_2 C16_2 C22B_2 121(3)
C22B_2 C16_2 N13_2 118(2)
C22B_2 C16_2 H16B_2 97.7
C16_2 C17_2 H17A_2 108.1
C16_2 C17_2 H17B_2 108.1
C16_2 C17_2 C18_2 116.9(13)
H17A_2 C17_2 H17B_2 107.3
C18_2 C17_2 H17A_2 108.1
C18_2 C17_2 H17B_2 108.1
C17_2 C18_2 H18A_2 108.6
C17_2 C18_2 H18B_2 108.6
C17_2 C18_2 C19_2 114.5(15)
H18A_2 C18_2 H18B_2 107.6
C19_2 C18_2 H18A_2 108.6
C19_2 C18_2 H18B_2 108.6
C18_2 C19_2 H19A_2 109.3
C18_2 C19_2 H19B_2 109.3
H19A_2 C19_2 H19B_2 107.9
C20_2 C19_2 C18_2 111.8(15)
C20_2 C19_2 H19A_2 109.3
C20_2 C19_2 H19B_2 109.3
C19_2 C20_2 H20A_2 109.8
C19_2 C20_2 H20B_2 109.8
C19_2 C20_2 C21_2 109.5(17)
H20A_2 C20_2 H20B_2 108.2
C21_2 C20_2 H20A_2 109.8
C21_2 C20_2 H20B_2 109.8
C20_2 C21_2 H21A_2 109.5
C20_2 C21_2 H21B_2 109.5
C20_2 C21_2 H21C_2 109.5
H21A_2 C21_2 H21B_2 109.5
H21A_2 C21_2 H21C_2 109.5
H21B_2 C21_2 H21C_2 109.5
C16_2 C22_2 H22A_2 108.5
C16_2 C22_2 H22B_2 108.5
C16_2 C22_2 C23_2 115.0(14)
H22A_2 C22_2 H22B_2 107.5
C23_2 C22_2 H22A_2 108.5
C23_2 C22_2 H22B_2 108.5
C22_2 C23_2 H23A_2 108.8
C22_2 C23_2 H23B_2 108.8
H23A_2 C23_2 H23B_2 107.7
C24_2 C23_2 C22_2 113.7(15)
C24_2 C23_2 H23A_2 108.8
C24_2 C23_2 H23B_2 108.8
C23_2 C24_2 H24A_2 108.1
C23_2 C24_2 H24B_2 108.1
H24A_2 C24_2 H24B_2 107.3
C25_2 C24_2 C23_2 116.7(14)
C25_2 C24_2 H24A_2 108.1
C25_2 C24_2 H24B_2 108.1
C24_2 C25_2 H25A_2 109.2
C24_2 C25_2 H25B_2 109.2
C24_2 C25_2 C26_2 111.9(15)
H25A_2 C25_2 H25B_2 107.9
C26_2 C25_2 H25A_2 109.2
C26_2 C25_2 H25B_2 109.2
C25_2 C26_2 H26A_2 109.5
C25_2 C26_2 H26B_2 109.5
C25_2 C26_2 H26C_2 109.5
H26A_2 C26_2 H26B_2 109.5
H26A_2 C26_2 H26C_2 109.5
H26B_2 C26_2 H26C_2 109.5
C16_2 C17B_2 H17C_2 108.6
C16_2 C17B_2 H17D_2 108.6
C16_2 C17B_2 C18B_2 115(3)
H17C_2 C17B_2 H17D_2 107.5
C18B_2 C17B_2 H17C_2 108.6
C18B_2 C17B_2 H17D_2 108.6
C17B_2 C18B_2 H18C_2 109.0
C17B_2 C18B_2 H18D_2 109.0
C17B_2 C18B_2 C19B_2 113(3)
H18C_2 C18B_2 H18D_2 107.8
C19B_2 C18B_2 H18C_2 109.0
C19B_2 C18B_2 H18D_2 109.0
C18B_2 C19B_2 H19C_2 109.0
C18B_2 C19B_2 H19D_2 109.0
H19C_2 C19B_2 H19D_2 107.8
C20B_2 C19B_2 C18B_2 113(3)
C20B_2 C19B_2 H19C_2 109.0
C20B_2 C19B_2 H19D_2 109.0
C19B_2 C20B_2 H20C_2 110.0
C19B_2 C20B_2 H20D_2 110.0
C19B_2 C20B_2 C21B_2 108(3)
H20C_2 C20B_2 H20D_2 108.4
C21B_2 C20B_2 H20C_2 110.0
C21B_2 C20B_2 H20D_2 110.0
C20B_2 C21B_2 H21D_2 109.5
C20B_2 C21B_2 H21E_2 109.5
C20B_2 C21B_2 H21F_2 109.5
H21D_2 C21B_2 H21E_2 109.5
H21D_2 C21B_2 H21F_2 109.5
H21E_2 C21B_2 H21F_2 109.5
C16_2 C22B_2 H22C_2 107.0
C16_2 C22B_2 H22D_2 107.0
C16_2 C22B_2 C23B_2 121(3)
H22C_2 C22B_2 H22D_2 106.7
C23B_2 C22B_2 H22C_2 107.0
C23B_2 C22B_2 H22D_2 107.0
C22B_2 C23B_2 H23C_2 109.6
C22B_2 C23B_2 H23D_2 109.6
H23C_2 C23B_2 H23D_2 108.1
C24B_2 C23B_2 C22B_2 110(3)
C24B_2 C23B_2 H23C_2 109.6
C24B_2 C23B_2 H23D_2 109.6
C23B_2 C24B_2 H24C_2 107.1
C23B_2 C24B_2 H24D_2 107.1
H24C_2 C24B_2 H24D_2 106.8
C25B_2 C24B_2 C23B_2 121(3)
C25B_2 C24B_2 H24C_2 107.1
C25B_2 C24B_2 H24D_2 107.1
C24B_2 C25B_2 H25C_2 108.9
C24B_2 C25B_2 H25D_2 108.9
C24B_2 C25B_2 C26B_2 113(3)
H25C_2 C25B_2 H25D_2 107.7
C26B_2 C25B_2 H25C_2 108.9
C26B_2 C25B_2 H25D_2 108.9
C25B_2 C26B_2 H26D_2 109.5
C25B_2 C26B_2 H26E_2 109.5
C25B_2 C26B_2 H26F_2 109.5
H26D_2 C26B_2 H26E_2 109.5
H26D_2 C26B_2 H26F_2 109.5
H26E_2 C26B_2 H26F_2 109.5
C2_3 C1_3 C6_3 120.8(11)
C2_3 C1_3 C1_4 119.5(12)
C6_3 C1_3 C1_4 119.7(11)
C1_3 C2_3 C3_3 117.7(12)
C1_3 C2_3 C12_5 120.2(11)
C3_3 C2_3 C12_5 121.7(11)
C2_3 C3_3 H3_3 119.3
C4_3 C3_3 C2_3 121.3(12)
C4_3 C3_3 H3_3 119.3
C3_3 C4_3 C5_3 121.9(13)
C3_3 C4_3 C14_3 119.5(13)
C5_3 C4_3 C14_3 118.5(13)
C4_3 C5_3 C6_3 119.2(13)
C10_3 C5_3 C4_3 121.4(13)
C10_3 C5_3 C6_3 119.3(13)
C1_3 C6_3 C7_3 121.1(12)
C5_3 C6_3 C1_3 118.7(12)
C5_3 C6_3 C7_3 120.1(13)
C6_3 C7_3 C7_4 119.7(13)
C8_3 C7_3 C6_3 116.8(13)
C8_3 C7_3 C7_4 123.5(13)
C7_3 C8_3 H8_3 117.7
C7_3 C8_3 C9_3 124.7(13)
C9_3 C8_3 H8_3 117.7
C8_3 C9_3 H9_3 121.4
C8_3 C9_3 C10_3 117.3(13)
C10_3 C9_3 H9_3 121.4
C5_3 C10_3 C9_3 121.6(14)
C5_3 C10_3 C11_3 118.9(14)
C9_3 C10_3 C11_3 119.5(14)
O12_3 C11_3 C10_3 120.9(16)
O12_3 C11_3 N13_3 118.1(16)
N13_3 C11_3 C10_3 120.9(16)
C11_3 N13_3 C14_3 120.5(14)
C11_3 N13_3 C16_3 121.2(13)
C14_3 N13_3 C16_3 118.1(12)
N13_3 C14_3 C4_3 119.4(13)
O15_3 C14_3 C4_3 120.5(14)
O15_3 C14_3 N13_3 120.0(14)
N13_3 C16_3 H16_3 103.0
N13_3 C16_3 H16B_3 99.2
C17_3 C16_3 N13_3 111.5(12)
C17_3 C16_3 H16_3 103.0
C17_3 C16_3 H16B_3 99.2
C22_3 C16_3 N13_3 113.5(14)
C22_3 C16_3 H16_3 103.0
C22_3 C16_3 C17_3 120.2(14)
C22B_3 C16_3 N13_3 107.1(17)
C22B_3 C16_3 H16B_3 99.2
C22B_3 C16_3 C17_3 133.5(16)
C16_3 C17_3 H17A_3 108.4
C16_3 C17_3 H17B_3 108.4
C16_3 C17_3 C18_3 115.6(12)
H17A_3 C17_3 H17B_3 107.4
C18_3 C17_3 H17A_3 108.4
C18_3 C17_3 H17B_3 108.4
C17_3 C18_3 H18A_3 109.7
C17_3 C18_3 H18B_3 109.7
C17_3 C18_3 C19_3 110.0(12)
H18A_3 C18_3 H18B_3 108.2
C19_3 C18_3 H18A_3 109.7
C19_3 C18_3 H18B_3 109.7
C18_3 C19_3 H19A_3 109.6
C18_3 C19_3 H19B_3 109.6
H19A_3 C19_3 H19B_3 108.2
C20_3 C19_3 C18_3 110.1(12)
C20_3 C19_3 H19A_3 109.6
C20_3 C19_3 H19B_3 109.6
C19_3 C20_3 H20A_3 109.9
C19_3 C20_3 H20B_3 109.9
C19_3 C20_3 C21_3 108.7(13)
H20A_3 C20_3 H20B_3 108.3
C21_3 C20_3 H20A_3 109.9
C21_3 C20_3 H20B_3 109.9
C20_3 C21_3 H21A_3 109.5
C20_3 C21_3 H21B_3 109.5
C20_3 C21_3 H21C_3 109.5
H21A_3 C21_3 H21B_3 109.5
H21A_3 C21_3 H21C_3 109.5
H21B_3 C21_3 H21C_3 109.5
C16_3 C22_3 H22A_3 108.3
C16_3 C22_3 H22B_3 108.3
C16_3 C22_3 C23_3 115.9(17)
H22A_3 C22_3 H22B_3 107.4
C23_3 C22_3 H22A_3 108.3
C23_3 C22_3 H22B_3 108.3
C22_3 C23_3 H23A_3 108.8
C22_3 C23_3 H23B_3 108.8
H23A_3 C23_3 H23B_3 107.7
C24_3 C23_3 C22_3 113.9(19)
C24_3 C23_3 H23A_3 108.8
C24_3 C23_3 H23B_3 108.8
C23_3 C24_3 H24A_3 109.4
C23_3 C24_3 H24B_3 109.4
C23_3 C24_3 C25_3 111.0(19)
H24A_3 C24_3 H24B_3 108.0
C25_3 C24_3 H24A_3 109.4
C25_3 C24_3 H24B_3 109.4
C24_3 C25_3 H25A_3 109.0
C24_3 C25_3 H25B_3 109.0
C24_3 C25_3 C26_3 113(2)
H25A_3 C25_3 H25B_3 107.8
C26_3 C25_3 H25A_3 109.0
C26_3 C25_3 H25B_3 109.0
C25_3 C26_3 H26A_3 109.5
C25_3 C26_3 H26B_3 109.5
C25_3 C26_3 H26C_3 109.5
H26A_3 C26_3 H26B_3 109.5
H26A_3 C26_3 H26C_3 109.5
H26B_3 C26_3 H26C_3 109.5
C16_3 C22B_3 H22C_3 105.9
C16_3 C22B_3 H22D_3 105.9
C16_3 C22B_3 C23B_3 126(2)
H22C_3 C22B_3 H22D_3 106.2
C23B_3 C22B_3 H22C_3 105.9
C23B_3 C22B_3 H22D_3 105.9
C22B_3 C23B_3 H23C_3 107.9
C22B_3 C23B_3 H23D_3 107.9
C22B_3 C23B_3 C24B_3 118(3)
H23C_3 C23B_3 H23D_3 107.2
C24B_3 C23B_3 H23C_3 107.9
C24B_3 C23B_3 H23D_3 107.9
C23B_3 C24B_3 H24C_3 108.0
C23B_3 C24B_3 H24D_3 108.0
C23B_3 C24B_3 C25B_3 117(3)
H24C_3 C24B_3 H24D_3 107.3
C25B_3 C24B_3 H24C_3 108.0
C25B_3 C24B_3 H24D_3 108.0
C24B_3 C25B_3 H25C_3 108.9
C24B_3 C25B_3 H25D_3 108.9
C24B_3 C25B_3 C26B_3 113(3)
H25C_3 C25B_3 H25D_3 107.7
C26B_3 C25B_3 H25C_3 108.9
C26B_3 C25B_3 H25D_3 108.9
C25B_3 C26B_3 H26D_3 109.5
C25B_3 C26B_3 H26E_3 109.5
C25B_3 C26B_3 H26F_3 109.5
H26D_3 C26B_3 H26E_3 109.5
H26D_3 C26B_3 H26F_3 109.5
H26E_3 C26B_3 H26F_3 109.5
C2_4 C1_4 C1_3 119.6(11)
C2_4 C1_4 C6_4 122.1(12)
C6_4 C1_4 C1_3 118.0(12)
C1_4 C2_4 C3_4 117.5(11)
C1_4 C2_4 C11_5 120.7(12)
C3_4 C2_4 C11_5 121.7(12)
C2_4 C3_4 H3_4 119.1
C4_4 C3_4 C2_4 121.8(12)
C4_4 C3_4 H3_4 119.1
C3_4 C4_4 C5_4 120.3(12)
C3_4 C4_4 C14_4 116.8(12)
C5_4 C4_4 C14_4 122.8(12)
C4_4 C5_4 C6_4 120.7(12)
C10_4 C5_4 C4_4 118.9(12)
C10_4 C5_4 C6_4 120.4(12)
C5_4 C6_4 C1_4 117.4(12)
C7_4 C6_4 C1_4 122.9(12)
C7_4 C6_4 C5_4 119.6(12)
C6_4 C7_4 C7_3 118.1(12)
C8_4 C7_4 C7_3 123.8(13)
C8_4 C7_4 C6_4 118.0(12)
C7_4 C8_4 H8_4 119.2
C9_4 C8_4 C7_4 121.5(13)
C9_4 C8_4 H8_4 119.2
C8_4 C9_4 H9_4 119.7
C10_4 C9_4 C8_4 120.6(13)
C10_4 C9_4 H9_4 119.7
C5_4 C10_4 C11_4 119.2(13)
C9_4 C10_4 C5_4 119.7(13)
C9_4 C10_4 C11_4 121.1(12)
O12_4 C11_4 C10_4 118.1(13)
O12_4 C11_4 N13_4 121.2(13)
N13_4 C11_4 C10_4 120.7(12)
C11_4 N13_4 C14_4 123.4(12)
C11_4 N13_4 C16_4 119.5(11)
C14_4 N13_4 C16_4 117.1(11)
N13_4 C14_4 C4_4 114.7(12)
O15_4 C14_4 C4_4 124.0(12)
O15_4 C14_4 N13_4 121.2(13)
N13_4 C16_4 H16_4 105.5
N13_4 C16_4 C17_4 110.8(10)
N13_4 C16_4 C22_4 112.8(10)
C17_4 C16_4 H16_4 105.5
C22_4 C16_4 H16_4 105.5
C22_4 C16_4 C17_4 115.8(10)
C16_4 C17_4 H17A_4 109.2
C16_4 C17_4 H17B_4 109.2
H17A_4 C17_4 H17B_4 107.9
C18_4 C17_4 C16_4 112.1(10)
C18_4 C17_4 H17A_4 109.2
C18_4 C17_4 H17B_4 109.2
C17_4 C18_4 H18A_4 108.8
C17_4 C18_4 H18B_4 108.8
C17_4 C18_4 C19_4 113.6(11)
H18A_4 C18_4 H18B_4 107.7
C19_4 C18_4 H18A_4 108.8
C19_4 C18_4 H18B_4 108.8
C18_4 C19_4 H19A_4 108.6
C18_4 C19_4 H19B_4 108.6
H19A_4 C19_4 H19B_4 107.6
C20_4 C19_4 C18_4 114.5(12)
C20_4 C19_4 H19A_4 108.6
C20_4 C19_4 H19B_4 108.6
C19_4 C20_4 H20A_4 109.2
C19_4 C20_4 H20B_4 109.2
C19_4 C20_4 C21_4 112.1(13)
H20A_4 C20_4 H20B_4 107.9
C21_4 C20_4 H20A_4 109.2
C21_4 C20_4 H20B_4 109.2
C20_4 C21_4 H21A_4 109.5
C20_4 C21_4 H21B_4 109.5
C20_4 C21_4 H21C_4 109.5
H21A_4 C21_4 H21B_4 109.5
H21A_4 C21_4 H21C_4 109.5
H21B_4 C21_4 H21C_4 109.5
C16_4 C22_4 H22A_4 108.2
C16_4 C22_4 H22B_4 108.2
H22A_4 C22_4 H22B_4 107.4
C23_4 C22_4 C16_4 116.3(11)
C23_4 C22_4 H22A_4 108.2
C23_4 C22_4 H22B_4 108.2
C22_4 C23_4 H23A_4 109.1
C22_4 C23_4 H23B_4 109.1
C22_4 C23_4 C24_4 112.4(11)
H23A_4 C23_4 H23B_4 107.9
C24_4 C23_4 H23A_4 109.1
C24_4 C23_4 H23B_4 109.1
C23_4 C24_4 H24A_4 108.5
C23_4 C24_4 H24B_4 108.5
H24A_4 C24_4 H24B_4 107.5
C25_4 C24_4 C23_4 115.1(12)
C25_4 C24_4 H24A_4 108.5
C25_4 C24_4 H24B_4 108.5
C24_4 C25_4 H25A_4 108.8
C24_4 C25_4 H25B_4 108.8
C24_4 C25_4 C26_4 113.9(13)
H25A_4 C25_4 H25B_4 107.7
C26_4 C25_4 H25A_4 108.8
C26_4 C25_4 H25B_4 108.8
C25_4 C26_4 H26A_4 109.5
C25_4 C26_4 H26B_4 109.5
C25_4 C26_4 H26C_4 109.5
H26A_4 C26_4 H26B_4 109.5
H26A_4 C26_4 H26C_4 109.5
H26B_4 C26_4 H26C_4 109.5
C2_5 C1_5 C2_2 117.4(11)
C2_5 C1_5 C14_5 120.9(12)
C14_5 C1_5 C2_2 121.6(12)
C2_1 C2_5 C3_5 119.1(12)
C1_5 C2_5 C2_1 122.5(12)
C1_5 C2_5 C3_5 118.3(12)
C2_5 C3_5 H3_5 120.0
C4_5 C3_5 C2_5 119.9(12)
C4_5 C3_5 H3_5 120.0
C3_5 C4_5 H4_5 119.0
C3_5 C4_5 C5_5 122.0(13)
C5_5 C4_5 H4_5 119.0
C4_5 C5_5 C14_5 119.3(12)
C6_5 C5_5 C4_5 118.8(13)
C6_5 C5_5 C14_5 121.8(13)
C7_5 C6_5 C5_5 121.8(13)
C7_5 C6_5 O15_5 120.8(12)
O15_5 C6_5 C5_5 117.2(12)
C6_5 C7_5 C8_5 116.0(13)
O21_5 C7_5 C6_5 125.0(12)
O21_5 C7_5 C8_5 118.9(12)
C9_5 C8_5 C7_5 117.1(12)
C13_5 C8_5 C7_5 122.8(12)
C13_5 C8_5 C9_5 120.1(12)
C8_5 C9_5 H9_5 119.4
C10_5 C9_5 C8_5 121.3(13)
C10_5 C9_5 H9_5 119.4
C9_5 C10_5 H10_5 120.4
C9_5 C10_5 C11_5 119.2(13)
C11_5 C10_5 H10_5 120.4
C10_5 C11_5 C2_4 120.4(12)
C12_5 C11_5 C2_4 119.2(12)
C12_5 C11_5 C10_5 120.4(12)
C2_3 C12_5 C13_5 122.9(11)
C11_5 C12_5 C2_3 118.9(12)
C11_5 C12_5 C13_5 117.9(12)
C8_5 C13_5 C12_5 117.2(12)
C8_5 C13_5 C14_5 117.5(12)
C14_5 C13_5 C12_5 125.3(12)
C1_5 C14_5 C5_5 116.3(12)
C1_5 C14_5 C13_5 128.6(12)
C5_5 C14_5 C13_5 115.0(11)
C6_5 O15_5 C16_5 110.8(14)
C6_5 O15_5 C16B_5 122.7(13)
O15_5 C16_5 H16A_5 109.9
O15_5 C16_5 H16B_5 109.9
O15_5 C16_5 C17_5 109.0(18)
H16A_5 C16_5 H16B_5 108.3
C17_5 C16_5 H16A_5 109.9
C17_5 C16_5 H16B_5 109.9
C16_5 C17_5 H17A_5 109.7
C16_5 C17_5 H17B_5 109.7
C16_5 C17_5 C18_5 109.8(19)
H17A_5 C17_5 H17B_5 108.2
C18_5 C17_5 H17A_5 109.7
C18_5 C17_5 H17B_5 109.7
C17_5 C18_5 H18A_5 107.7
C17_5 C18_5 H18B_5 107.7
H18A_5 C18_5 H18B_5 107.1
C19_5 C18_5 C17_5 118(2)
C19_5 C18_5 H18A_5 107.7
C19_5 C18_5 H18B_5 107.7
C18_5 C19_5 H19A_5 108.4
C18_5 C19_5 H19B_5 108.4
C18_5 C19_5 C20_5 116(2)
H19A_5 C19_5 H19B_5 107.4
C20_5 C19_5 H19A_5 108.4
C20_5 C19_5 H19B_5 108.4
C19_5 C20_5 H20A_5 109.5
C19_5 C20_5 H20B_5 109.5
C19_5 C20_5 H20C_5 109.5
H20A_5 C20_5 H20B_5 109.5
H20A_5 C20_5 H20C_5 109.5
H20B_5 C20_5 H20C_5 109.5
O15_5 C16B_5 H16C_5 110.1
O15_5 C16B_5 H16D_5 110.1
O15_5 C16B_5 C17B_5 108.1(16)
H16C_5 C16B_5 H16D_5 108.4
C17B_5 C16B_5 H16C_5 110.1
C17B_5 C16B_5 H16D_5 110.1
C16B_5 C17B_5 H17C_5 109.0
C16B_5 C17B_5 H17D_5 109.0
C16B_5 C17B_5 C18B_5 113.1(18)
H17C_5 C17B_5 H17D_5 107.8
C18B_5 C17B_5 H17C_5 109.0
C18B_5 C17B_5 H17D_5 109.0
C17B_5 C18B_5 H18C_5 108.0
C17B_5 C18B_5 H18D_5 108.0
H18C_5 C18B_5 H18D_5 107.2
C19B_5 C18B_5 C17B_5 117.3(19)
C19B_5 C18B_5 H18C_5 108.0
C19B_5 C18B_5 H18D_5 108.0
C18B_5 C19B_5 H19C_5 107.3
C18B_5 C19B_5 H19D_5 107.3
C18B_5 C19B_5 C20B_5 120.1(19)
H19C_5 C19B_5 H19D_5 106.9
C20B_5 C19B_5 H19C_5 107.3
C20B_5 C19B_5 H19D_5 107.3
C19B_5 C20B_5 H20D_5 109.5
C19B_5 C20B_5 H20E_5 109.5
C19B_5 C20B_5 H20F_5 109.5
H20D_5 C20B_5 H20E_5 109.5
H20D_5 C20B_5 H20F_5 109.5
H20E_5 C20B_5 H20F_5 109.5
C7_5 O21_5 C22_5 113.9(19)
C7_5 O21_5 C22B_5 119(2)
C7_5 O21_5 C22C_5 115(3)
O21_5 C22_5 H22A_5 109.6
O21_5 C22_5 H22B_5 109.6
O21_5 C22_5 C23_5 110.4(19)
H22A_5 C22_5 H22B_5 108.1
C23_5 C22_5 H22A_5 109.6
C23_5 C22_5 H22B_5 109.6
C22_5 C23_5 H23A_5 109.2
C22_5 C23_5 H23B_5 109.2
H23A_5 C23_5 H23B_5 107.9
C24_5 C23_5 C22_5 112(2)
C24_5 C23_5 H23A_5 109.2
C24_5 C23_5 H23B_5 109.2
C23_5 C24_5 H24A_5 108.7
C23_5 C24_5 H24B_5 108.7
C23_5 C24_5 C25_5 114(3)
H24A_5 C24_5 H24B_5 107.6
C25_5 C24_5 H24A_5 108.7
C25_5 C24_5 H24B_5 108.7
C24_5 C25_5 H25A_5 109.7
C24_5 C25_5 H25B_5 109.7
C24_5 C25_5 C26_5 110(2)
H25A_5 C25_5 H25B_5 108.2
C26_5 C25_5 H25A_5 109.7
C26_5 C25_5 H25B_5 109.7
C25_5 C26_5 H26A_5 109.5
C25_5 C26_5 H26B_5 109.5
C25_5 C26_5 H26C_5 109.5
H26A_5 C26_5 H26B_5 109.5
H26A_5 C26_5 H26C_5 109.5
H26B_5 C26_5 H26C_5 109.5
O21_5 C22B_5 H22C_5 109.7
O21_5 C22B_5 H22D_5 109.7
O21_5 C22B_5 C23B_5 110(2)
H22C_5 C22B_5 H22D_5 108.2
C23B_5 C22B_5 H22C_5 109.7
C23B_5 C22B_5 H22D_5 109.7
C22B_5 C23B_5 H23C_5 108.8
C22B_5 C23B_5 H23D_5 108.8
H23C_5 C23B_5 H23D_5 107.7
C24B_5 C23B_5 C22B_5 114(3)
C24B_5 C23B_5 H23C_5 108.8
C24B_5 C23B_5 H23D_5 108.8
C23B_5 C24B_5 H24C_5 109.5
C23B_5 C24B_5 H24D_5 109.5
C23B_5 C24B_5 C25B_5 111(3)
H24C_5 C24B_5 H24D_5 108.1
C25B_5 C24B_5 H24C_5 109.5
C25B_5 C24B_5 H24D_5 109.5
C24B_5 C25B_5 H25C_5 109.3
C24B_5 C25B_5 H25D_5 109.3
H25C_5 C25B_5 H25D_5 107.9
C26B_5 C25B_5 C24B_5 112(3)
C26B_5 C25B_5 H25C_5 109.3
C26B_5 C25B_5 H25D_5 109.3
C25B_5 C26B_5 H26D_5 109.5
C25B_5 C26B_5 H26E_5 109.5
C25B_5 C26B_5 H26F_5 109.5
H26D_5 C26B_5 H26E_5 109.5
H26D_5 C26B_5 H26F_5 109.5
H26E_5 C26B_5 H26F_5 109.5
O21_5 C22C_5 H22E_5 109.5
O21_5 C22C_5 H22F_5 109.5
O21_5 C22C_5 C23C_5 111(2)
H22E_5 C22C_5 H22F_5 108.1
C23C_5 C22C_5 H22E_5 109.5
C23C_5 C22C_5 H22F_5 109.5
C22C_5 C23C_5 H23E_5 109.2
C22C_5 C23C_5 H23F_5 109.2
H23E_5 C23C_5 H23F_5 107.9
C24C_5 C23C_5 C22C_5 112(3)
C24C_5 C23C_5 H23E_5 109.2
C24C_5 C23C_5 H23F_5 109.2
C23C_5 C24C_5 H24E_5 109.0
C23C_5 C24C_5 H24F_5 109.0
C23C_5 C24C_5 C25C_5 113(3)
H24E_5 C24C_5 H24F_5 107.8
C25C_5 C24C_5 H24E_5 109.0
C25C_5 C24C_5 H24F_5 109.0
C24C_5 C25C_5 H25E_5 109.1
C24C_5 C25C_5 H25F_5 109.1
H25E_5 C25C_5 H25F_5 107.9
C26C_5 C25C_5 C24C_5 112(3)
C26C_5 C25C_5 H25E_5 109.1
C26C_5 C25C_5 H25F_5 109.1
C25C_5 C26C_5 H26G_5 109.5
C25C_5 C26C_5 H26H_5 109.5
C25C_5 C26C_5 H26I_5 109.5
H26G_5 C26C_5 H26H_5 109.5
H26G_5 C26C_5 H26I_5 109.5
H26H_5 C26C_5 H26I_5 109.5
F2_6 C1_6 F3_6 102.4(14)
F2_6 C1_6 F4_6 104.7(15)
F2_6 C1_6 C5_6 117.3(16)
F3_6 C1_6 C5_6 114.6(15)
F4_6 C1_6 F3_6 101.9(14)
F4_6 C1_6 C5_6 114.1(16)
C1_6 C5_6 C10_6 120.5(17)
C6_6 C5_6 C1_6 119.9(16)
C6_6 C5_6 C10_6 119.6(15)
C5_6 C6_6 H6_6 119.3
C7_6 C6_6 C5_6 121.4(15)
C7_6 C6_6 H6_6 119.3
C6_6 C7_6 H7_6 120.0
C6_6 C7_6 C8_6 119.9(16)
C8_6 C7_6 H7_6 120.0
C7_6 C8_6 H8_6 121.3
C9_6 C8_6 C7_6 117.4(15)
C9_6 C8_6 H8_6 121.3
C8_6 C9_6 H9_6 117.7
C10_6 C9_6 C8_6 124.5(16)
C10_6 C9_6 H9_6 117.7
C5_6 C10_6 H10_6 121.4
C9_6 C10_6 C5_6 117.2(16)
C9_6 C10_6 H10_6 121.4
loop_
_geom_bond_atom_site_label_1
_geom_bond_atom_site_label_2
_geom_bond_distance
C1_1 C2_1 1.390(13)
C1_1 C6_1 1.437(14)
C1_1 C1_2 1.427(15)
C2_1 C3_1 1.424(15)
C2_1 C2_5 1.421(14)
C3_1 H3_1 0.9500
C3_1 C4_1 1.356(14)
C4_1 C5_1 1.405(14)
C4_1 C14_1 1.493(16)
C5_1 C6_1 1.414(15)
C5_1 C10_1 1.371(14)
C6_1 C7_1 1.401(13)
C7_1 C8_1 1.417(14)
C7_1 C7_2 1.455(15)
C8_1 H8_1 0.9500
C8_1 C9_1 1.391(15)
C9_1 H9_1 0.9500
C9_1 C10_1 1.386(14)
C10_1 C11_1 1.480(16)
C11_1 O12_1 1.228(13)
C11_1 N13_1 1.383(13)
N13_1 C14_1 1.372(14)
N13_1 C16_1 1.515(13)
C14_1 O15_1 1.234(12)
C16_1 H16_1 1.0000
C16_1 C17_1 1.510(15)
C16_1 C22_1 1.508(15)
C17_1 H17A_1 0.9900
C17_1 H17B_1 0.9900
C17_1 C18_1 1.516(15)
C18_1 H18A_1 0.9900
C18_1 H18B_1 0.9900
C18_1 C19_1 1.533(17)
C19_1 H19A_1 0.9900
C19_1 H19B_1 0.9900
C19_1 C20_1 1.552(17)
C20_1 H20A_1 0.9900
C20_1 H20B_1 0.9900
C20_1 C21_1 1.442(16)
C21_1 H21A_1 0.9800
C21_1 H21B_1 0.9800
C21_1 H21C_1 0.9800
C22_1 H22A_1 0.9900
C22_1 H22B_1 0.9900
C22_1 C23_1 1.535(15)
C23_1 H23A_1 0.9900
C23_1 H23B_1 0.9900
C23_1 C24_1 1.518(14)
C24_1 H24A_1 0.9900
C24_1 H24B_1 0.9900
C24_1 C25_1 1.501(16)
C25_1 H25A_1 0.9900
C25_1 H25B_1 0.9900
C25_1 C26_1 1.578(17)
C26_1 H26A_1 0.9800
C26_1 H26B_1 0.9800
C26_1 H26C_1 0.9800
C1_2 C2_2 1.434(14)
C1_2 C6_2 1.443(13)
C2_2 C3_2 1.412(14)
C2_2 C1_5 1.462(14)
C3_2 H3_2 0.9500
C3_2 C4_2 1.352(13)
C4_2 C5_2 1.403(14)
C4_2 C14_2 1.494(15)
C5_2 C6_2 1.421(14)
C5_2 C10_2 1.400(13)
C6_2 C7_2 1.420(14)
C7_2 C8_2 1.403(13)
C8_2 H8_2 0.9500
C8_2 C9_2 1.389(15)
C9_2 H9_2 0.9500
C9_2 C10_2 1.375(14)
C10_2 C11_2 1.468(16)
C11_2 O12_2 1.233(12)
C11_2 N13_2 1.381(14)
N13_2 C14_2 1.385(13)
N13_2 C16_2 1.490(14)
C14_2 O15_2 1.214(13)
C16_2 H16_2 1.0000
C16_2 H16B_2 1.0000
C16_2 C17_2 1.485(15)
C16_2 C22_2 1.499(17)
C16_2 C17B_2 1.47(2)
C16_2 C22B_2 1.48(2)
C17_2 H17A_2 0.9900
C17_2 H17B_2 0.9900
C17_2 C18_2 1.502(16)
C18_2 H18A_2 0.9900
C18_2 H18B_2 0.9900
C18_2 C19_2 1.56(2)
C19_2 H19A_2 0.9900
C19_2 H19B_2 0.9900
C19_2 C20_2 1.54(2)
C20_2 H20A_2 0.9900
C20_2 H20B_2 0.9900
C20_2 C21_2 1.53(3)
C21_2 H21A_2 0.9800
C21_2 H21B_2 0.9800
C21_2 H21C_2 0.9800
C22_2 H22A_2 0.9900
C22_2 H22B_2 0.9900
C22_2 C23_2 1.539(17)
C23_2 H23A_2 0.9900
C23_2 H23B_2 0.9900
C23_2 C24_2 1.513(18)
C24_2 H24A_2 0.9900
C24_2 H24B_2 0.9900
C24_2 C25_2 1.449(18)
C25_2 H25A_2 0.9900
C25_2 H25B_2 0.9900
C25_2 C26_2 1.54(2)
C26_2 H26A_2 0.9800
C26_2 H26B_2 0.9800
C26_2 H26C_2 0.9800
C17B_2 H17C_2 0.9900
C17B_2 H17D_2 0.9900
C17B_2 C18B_2 1.50(2)
C18B_2 H18C_2 0.9900
C18B_2 H18D_2 0.9900
C18B_2 C19B_2 1.55(3)
C19B_2 H19C_2 0.9900
C19B_2 H19D_2 0.9900
C19B_2 C20B_2 1.54(3)
C20B_2 H20C_2 0.9900
C20B_2 H20D_2 0.9900
C20B_2 C21B_2 1.53(3)
C21B_2 H21D_2 0.9800
C21B_2 H21E_2 0.9800
C21B_2 H21F_2 0.9800
C22B_2 H22C_2 0.9900
C22B_2 H22D_2 0.9900
C22B_2 C23B_2 1.53(2)
C23B_2 H23C_2 0.9900
C23B_2 H23D_2 0.9900
C23B_2 C24B_2 1.51(3)
C24B_2 H24C_2 0.9900
C24B_2 H24D_2 0.9900
C24B_2 C25B_2 1.42(3)
C25B_2 H25C_2 0.9900
C25B_2 H25D_2 0.9900
C25B_2 C26B_2 1.54(3)
C26B_2 H26D_2 0.9800
C26B_2 H26E_2 0.9800
C26B_2 H26F_2 0.9800
C1_3 C2_3 1.414(13)
C1_3 C6_3 1.421(14)
C1_3 C1_4 1.443(14)
C2_3 C3_3 1.420(14)
C2_3 C12_5 1.443(14)
C3_3 H3_3 0.9500
C3_3 C4_3 1.345(14)
C4_3 C5_3 1.403(14)
C4_3 C14_3 1.493(16)
C5_3 C6_3 1.411(15)
C5_3 C10_3 1.387(15)
C6_3 C7_3 1.422(14)
C7_3 C8_3 1.374(14)
C7_3 C7_4 1.443(15)
C8_3 H8_3 0.9500
C8_3 C9_3 1.384(15)
C9_3 H9_3 0.9500
C9_3 C10_3 1.390(15)
C10_3 C11_3 1.465(17)
C11_3 O12_3 1.249(15)
C11_3 N13_3 1.382(16)
N13_3 C14_3 1.390(14)
N13_3 C16_3 1.505(15)
C14_3 O15_3 1.213(13)
C16_3 H16_3 1.0000
C16_3 H16B_3 1.0000
C16_3 C17_3 1.473(16)
C16_3 C22_3 1.434(18)
C16_3 C22B_3 1.44(2)
C17_3 H17A_3 0.9900
C17_3 H17B_3 0.9900
C17_3 C18_3 1.552(16)
C18_3 H18A_3 0.9900
C18_3 H18B_3 0.9900
C18_3 C19_3 1.566(16)
C19_3 H19A_3 0.9900
C19_3 H19B_3 0.9900
C19_3 C20_3 1.536(17)
C20_3 H20A_3 0.9900
C20_3 H20B_3 0.9900
C20_3 C21_3 1.532(18)
C21_3 H21A_3 0.9800
C21_3 H21B_3 0.9800
C21_3 H21C_3 0.9800
C22_3 H22A_3 0.9900
C22_3 H22B_3 0.9900
C22_3 C23_3 1.51(2)
C23_3 H23A_3 0.9900
C23_3 H23B_3 0.9900
C23_3 C24_3 1.49(2)
C24_3 H24A_3 0.9900
C24_3 H24B_3 0.9900
C24_3 C25_3 1.51(2)
C25_3 H25A_3 0.9900
C25_3 H25B_3 0.9900
C25_3 C26_3 1.53(3)
C26_3 H26A_3 0.9800
C26_3 H26B_3 0.9800
C26_3 H26C_3 0.9800
C22B_3 H22C_3 0.9900
C22B_3 H22D_3 0.9900
C22B_3 C23B_3 1.48(2)
C23B_3 H23C_3 0.9900
C23B_3 H23D_3 0.9900
C23B_3 C24B_3 1.48(3)
C24B_3 H24C_3 0.9900
C24B_3 H24D_3 0.9900
C24B_3 C25B_3 1.50(2)
C25B_3 H25C_3 0.9900
C25B_3 H25D_3 0.9900
C25B_3 C26B_3 1.54(3)
C26B_3 H26D_3 0.9800
C26B_3 H26E_3 0.9800
C26B_3 H26F_3 0.9800
C1_4 C2_4 1.395(13)
C1_4 C6_4 1.424(14)
C2_4 C3_4 1.438(14)
C2_4 C11_5 1.445(14)
C3_4 H3_4 0.9500
C3_4 C4_4 1.356(14)
C4_4 C5_4 1.407(14)
C4_4 C14_4 1.490(15)
C5_4 C6_4 1.423(14)
C5_4 C10_4 1.393(14)
C6_4 C7_4 1.412(14)
C7_4 C8_4 1.400(14)
C8_4 H8_4 0.9500
C8_4 C9_4 1.396(14)
C9_4 H9_4 0.9500
C9_4 C10_4 1.373(14)
C10_4 C11_4 1.467(15)
C11_4 O12_4 1.258(12)
C11_4 N13_4 1.360(13)
N13_4 C14_4 1.408(13)
N13_4 C16_4 1.503(14)
C14_4 O15_4 1.200(12)
C16_4 H16_4 1.0000
C16_4 C17_4 1.525(15)
C16_4 C22_4 1.498(14)
C17_4 H17A_4 0.9900
C17_4 H17B_4 0.9900
C17_4 C18_4 1.512(15)
C18_4 H18A_4 0.9900
C18_4 H18B_4 0.9900
C18_4 C19_4 1.511(16)
C19_4 H19A_4 0.9900
C19_4 H19B_4 0.9900
C19_4 C20_4 1.508(17)
C20_4 H20A_4 0.9900
C20_4 H20B_4 0.9900
C20_4 C21_4 1.528(18)
C21_4 H21A_4 0.9800
C21_4 H21B_4 0.9800
C21_4 H21C_4 0.9800
C22_4 H22A_4 0.9900
C22_4 H22B_4 0.9900
C22_4 C23_4 1.484(15)
C23_4 H23A_4 0.9900
C23_4 H23B_4 0.9900
C23_4 C24_4 1.514(15)
C24_4 H24A_4 0.9900
C24_4 H24B_4 0.9900
C24_4 C25_4 1.493(17)
C25_4 H25A_4 0.9900
C25_4 H25B_4 0.9900
C25_4 C26_4 1.536(17)
C26_4 H26A_4 0.9800
C26_4 H26B_4 0.9800
C26_4 H26C_4 0.9800
C1_5 C2_5 1.415(14)
C1_5 C14_5 1.427(14)
C2_5 C3_5 1.430(13)
C3_5 H3_5 0.9500
C3_5 C4_5 1.354(14)
C4_5 H4_5 0.9500
C4_5 C5_5 1.419(15)
C5_5 C6_5 1.397(14)
C5_5 C14_5 1.425(14)
C6_5 C7_5 1.385(15)
C6_5 O15_5 1.392(12)
C7_5 C8_5 1.436(14)
C7_5 O21_5 1.360(13)
C8_5 C9_5 1.415(15)
C8_5 C13_5 1.396(14)
C9_5 H9_5 0.9500
C9_5 C10_5 1.368(14)
C10_5 H10_5 0.9500
C10_5 C11_5 1.424(14)
C11_5 C12_5 1.410(14)
C12_5 C13_5 1.464(14)
C13_5 C14_5 1.450(15)
O15_5 C16_5 1.442(16)
O15_5 C16B_5 1.444(15)
C16_5 H16A_5 0.9900
C16_5 H16B_5 0.9900
C16_5 C17_5 1.499(18)
C17_5 H17A_5 0.9900
C17_5 H17B_5 0.9900
C17_5 C18_5 1.54(2)
C18_5 H18A_5 0.9900
C18_5 H18B_5 0.9900
C18_5 C19_5 1.42(2)
C19_5 H19A_5 0.9900
C19_5 H19B_5 0.9900
C19_5 C20_5 1.56(2)
C20_5 H20A_5 0.9800
C20_5 H20B_5 0.9800
C20_5 H20C_5 0.9800
C16B_5 H16C_5 0.9900
C16B_5 H16D_5 0.9900
C16B_5 C17B_5 1.500(18)
C17B_5 H17C_5 0.9900
C17B_5 H17D_5 0.9900
C17B_5 C18B_5 1.56(2)
C18B_5 H18C_5 0.9900
C18B_5 H18D_5 0.9900
C18B_5 C19B_5 1.43(2)
C19B_5 H19C_5 0.9900
C19B_5 H19D_5 0.9900
C19B_5 C20B_5 1.56(2)
C20B_5 H20D_5 0.9800
C20B_5 H20E_5 0.9800
C20B_5 H20F_5 0.9800
O21_5 C22_5 1.414(16)
O21_5 C22B_5 1.414(19)
O21_5 C22C_5 1.414(19)
C22_5 H22A_5 0.9900
C22_5 H22B_5 0.9900
C22_5 C23_5 1.52(2)
C23_5 H23A_5 0.9900
C23_5 H23B_5 0.9900
C23_5 C24_5 1.47(3)
C24_5 H24A_5 0.9900
C24_5 H24B_5 0.9900
C24_5 C25_5 1.58(3)
C25_5 H25A_5 0.9900
C25_5 H25B_5 0.9900
C25_5 C26_5 1.56(3)
C26_5 H26A_5 0.9800
C26_5 H26B_5 0.9800
C26_5 H26C_5 0.9800
C22B_5 H22C_5 0.9900
C22B_5 H22D_5 0.9900
C22B_5 C23B_5 1.52(2)
C23B_5 H23C_5 0.9900
C23B_5 H23D_5 0.9900
C23B_5 C24B_5 1.46(3)
C24B_5 H24C_5 0.9900
C24B_5 H24D_5 0.9900
C24B_5 C25B_5 1.59(3)
C25B_5 H25C_5 0.9900
C25B_5 H25D_5 0.9900
C25B_5 C26B_5 1.57(4)
C26B_5 H26D_5 0.9800
C26B_5 H26E_5 0.9800
C26B_5 H26F_5 0.9800
C22C_5 H22E_5 0.9900
C22C_5 H22F_5 0.9900
C22C_5 C23C_5 1.52(2)
C23C_5 H23E_5 0.9900
C23C_5 H23F_5 0.9900
C23C_5 C24C_5 1.47(3)
C24C_5 H24E_5 0.9900
C24C_5 H24F_5 0.9900
C24C_5 C25C_5 1.59(3)
C25C_5 H25E_5 0.9900
C25C_5 H25F_5 0.9900
C25C_5 C26C_5 1.56(4)
C26C_5 H26G_5 0.9800
C26C_5 H26H_5 0.9800
C26C_5 H26I_5 0.9800
C1_6 F2_6 1.342(17)
C1_6 F3_6 1.374(16)
C1_6 F4_6 1.362(17)
C1_6 C5_6 1.408(19)
C5_6 C6_6 1.382(16)
C5_6 C10_6 1.401(16)
C6_6 H6_6 0.9500
C6_6 C7_6 1.352(17)
C7_6 H7_6 0.9500
C7_6 C8_6 1.399(16)
C8_6 H8_6 0.9500
C8_6 C9_6 1.366(16)
C9_6 H9_6 0.9500
C9_6 C10_6 1.353(16)
C10_6 H10_6 0.9500
loop_
_geom_torsion_atom_site_label_1
_geom_torsion_atom_site_label_2
_geom_torsion_atom_site_label_3
_geom_torsion_atom_site_label_4
_geom_torsion
C1_1 C2_1 C3_1 C4_1 2.5(18)
C1_1 C2_1 C2_5 C1_5 4.0(18)
C1_1 C2_1 C2_5 C3_5 -173.0(10)
C1_1 C6_1 C7_1 C8_1 -175.8(11)
C1_1 C6_1 C7_1 C7_2 9.1(17)
C1_1 C1_2 C2_2 C3_2 171.7(11)
C1_1 C1_2 C2_2 C1_5 -2.3(17)
C1_1 C1_2 C6_2 C5_2 -175.4(10)
C1_1 C1_2 C6_2 C7_2 4.2(17)
C2_1 C1_1 C6_1 C5_1 6.1(17)
C2_1 C1_1 C6_1 C7_1 -177.5(11)
C2_1 C1_1 C1_2 C2_2 -5.8(18)
C2_1 C1_1 C1_2 C6_2 170.9(10)
C2_1 C3_1 C4_1 C5_1 -0.4(19)
C2_1 C3_1 C4_1 C14_1 178.9(10)
C2_1 C2_5 C3_5 C4_5 173.5(11)
C3_1 C2_1 C2_5 C1_5 -172.6(11)
C3_1 C2_1 C2_5 C3_5 10.5(17)
C3_1 C4_1 C5_1 C6_1 1.2(19)
C3_1 C4_1 C5_1 C10_1 -179.4(12)
C3_1 C4_1 C14_1 N13_1 -177.7(11)
C3_1 C4_1 C14_1 O15_1 -0.9(19)
C4_1 C5_1 C6_1 C1_1 -3.9(17)
C4_1 C5_1 C6_1 C7_1 179.7(10)
C4_1 C5_1 C10_1 C9_1 178.7(11)
C4_1 C5_1 C10_1 C11_1 -0.9(18)
C5_1 C4_1 C14_1 N13_1 1.6(18)
C5_1 C4_1 C14_1 O15_1 178.4(11)
C5_1 C6_1 C7_1 C8_1 0.6(17)
C5_1 C6_1 C7_1 C7_2 -174.5(11)
C5_1 C10_1 C11_1 O12_1 173.5(12)
C5_1 C10_1 C11_1 N13_1 -2.4(18)
C6_1 C1_1 C2_1 C3_1 -5.3(17)
C6_1 C1_1 C2_1 C2_5 178.0(11)
C6_1 C1_1 C1_2 C2_2 -178.8(11)
C6_1 C1_1 C1_2 C6_2 -2.1(17)
C6_1 C5_1 C10_1 C9_1 -1.8(19)
C6_1 C5_1 C10_1 C11_1 178.5(11)
C6_1 C7_1 C8_1 C9_1 0.3(18)
C6_1 C7_1 C7_2 C6_2 -6.9(17)
C6_1 C7_1 C7_2 C8_2 172.5(11)
C7_1 C8_1 C9_1 C10_1 -1.9(19)
C7_1 C7_2 C8_2 C9_2 179.9(11)
C8_1 C7_1 C7_2 C6_2 178.2(11)
C8_1 C7_1 C7_2 C8_2 -2.5(18)
C8_1 C9_1 C10_1 C5_1 2.7(19)
C8_1 C9_1 C10_1 C11_1 -177.6(11)
C9_1 C10_1 C11_1 O12_1 -6.2(19)
C9_1 C10_1 C11_1 N13_1 177.9(10)
C10_1 C5_1 C6_1 C1_1 176.6(11)
C10_1 C5_1 C6_1 C7_1 0.2(18)
C10_1 C11_1 N13_1 C14_1 5.6(18)
C10_1 C11_1 N13_1 C16_1 178.0(10)
C11_1 N13_1 C14_1 C4_1 -5.2(18)
C11_1 N13_1 C14_1 O15_1 177.9(11)
C11_1 N13_1 C16_1 C17_1 59.8(14)
C11_1 N13_1 C16_1 C22_1 -70.7(13)
O12_1 C11_1 N13_1 C14_1 -170.2(12)
O12_1 C11_1 N13_1 C16_1 2.3(18)
N13_1 C16_1 C17_1 C18_1 165.2(11)
N13_1 C16_1 C22_1 C23_1 -61.7(14)
C14_1 C4_1 C5_1 C6_1 -178.1(11)
C14_1 C4_1 C5_1 C10_1 1.3(18)
C14_1 N13_1 C16_1 C17_1 -127.4(11)
C14_1 N13_1 C16_1 C22_1 102.0(12)
C16_1 N13_1 C14_1 C4_1 -177.5(10)
C16_1 N13_1 C14_1 O15_1 5.6(17)
C16_1 C17_1 C18_1 C19_1 -165.6(11)
C16_1 C22_1 C23_1 C24_1 -69.3(15)
C17_1 C16_1 C22_1 C23_1 170.5(10)
C17_1 C18_1 C19_1 C20_1 -174.1(12)
C18_1 C19_1 C20_1 C21_1 -58.9(19)
C22_1 C16_1 C17_1 C18_1 -67.8(15)
C22_1 C23_1 C24_1 C25_1 173.1(11)
C23_1 C24_1 C25_1 C26_1 176.1(12)
C1_2 C1_1 C2_1 C3_1 -178.2(10)
C1_2 C1_1 C2_1 C2_5 5.1(17)
C1_2 C1_1 C6_1 C5_1 179.0(11)
C1_2 C1_1 C6_1 C7_1 -4.6(17)
C1_2 C2_2 C3_2 C4_2 5.6(18)
C1_2 C2_2 C1_5 C2_5 10.8(16)
C1_2 C2_2 C1_5 C14_5 -173.2(11)
C1_2 C6_2 C7_2 C7_1 0.2(17)
C1_2 C6_2 C7_2 C8_2 -179.2(11)
C2_2 C1_2 C6_2 C5_2 1.4(17)
C2_2 C1_2 C6_2 C7_2 -179.0(11)
C2_2 C3_2 C4_2 C5_2 -2.2(19)
C2_2 C3_2 C4_2 C14_2 179.8(11)
C2_2 C1_5 C2_5 C2_1 -12.0(17)
C2_2 C1_5 C2_5 C3_5 165.0(10)
C2_2 C1_5 C14_5 C5_5 -154.9(11)
C2_2 C1_5 C14_5 C13_5 26.7(19)
C3_2 C2_2 C1_5 C2_5 -162.9(11)
C3_2 C2_2 C1_5 C14_5 13.1(18)
C3_2 C4_2 C5_2 C6_2 -1.6(18)
C3_2 C4_2 C5_2 C10_2 -178.1(11)
C3_2 C4_2 C14_2 N13_2 179.1(11)
C3_2 C4_2 C14_2 O15_2 -5.0(18)
C4_2 C5_2 C6_2 C1_2 2.0(17)
C4_2 C5_2 C6_2 C7_2 -177.7(11)
C4_2 C5_2 C10_2 C9_2 178.6(11)
C4_2 C5_2 C10_2 C11_2 -2.0(18)
C5_2 C4_2 C14_2 N13_2 1.1(17)
C5_2 C4_2 C14_2 O15_2 177.0(11)
C5_2 C6_2 C7_2 C7_1 179.8(10)
C5_2 C6_2 C7_2 C8_2 0.5(17)
C5_2 C10_2 C11_2 O12_2 -179.5(11)
C5_2 C10_2 C11_2 N13_2 3.3(18)
C6_2 C1_2 C2_2 C3_2 -5.1(17)
C6_2 C1_2 C2_2 C1_5 -179.0(10)
C6_2 C5_2 C10_2 C9_2 2.2(18)
C6_2 C5_2 C10_2 C11_2 -178.5(10)
C6_2 C7_2 C8_2 C9_2 -0.8(18)
C7_2 C7_1 C8_1 C9_1 175.3(11)
C7_2 C8_2 C9_2 C10_2 1.8(19)
C8_2 C9_2 C10_2 C5_2 -2.5(19)
C8_2 C9_2 C10_2 C11_2 178.1(11)
C9_2 C10_2 C11_2 O12_2 -0.1(19)
C9_2 C10_2 C11_2 N13_2 -177.3(11)
C10_2 C5_2 C6_2 C1_2 178.5(10)
C10_2 C5_2 C6_2 C7_2 -1.1(17)
C10_2 C11_2 N13_2 C14_2 -2.4(18)
C10_2 C11_2 N13_2 C16_2 174.4(11)
C11_2 N13_2 C14_2 C4_2 0.2(17)
C11_2 N13_2 C14_2 O15_2 -175.7(12)
C11_2 N13_2 C16_2 C17_2 -117.8(13)
C11_2 N13_2 C16_2 C22_2 110.8(13)
C11_2 N13_2 C16_2 C17B_2 -81(3)
C11_2 N13_2 C16_2 C22B_2 73(4)
O12_2 C11_2 N13_2 C14_2 -179.6(11)
O12_2 C11_2 N13_2 C16_2 -2.9(18)
N13_2 C16_2 C17_2 C18_2 162.7(13)
N13_2 C16_2 C22_2 C23_2 -65.7(19)
N13_2 C16_2 C17B_2 C18B_2 -174(5)
N13_2 C16_2 C22B_2 C23B_2 16(7)
C14_2 C4_2 C5_2 C6_2 176.4(10)
C14_2 C4_2 C5_2 C10_2 -0.1(18)
C14_2 N13_2 C16_2 C17_2 58.9(15)
C14_2 N13_2 C16_2 C22_2 -72.4(15)
C14_2 N13_2 C16_2 C17B_2 95(3)
C14_2 N13_2 C16_2 C22B_2 -110(3)
C16_2 N13_2 C14_2 C4_2 -176.5(11)
C16_2 N13_2 C14_2 O15_2 7.6(18)
C16_2 C17_2 C18_2 C19_2 -62(2)
C16_2 C22_2 C23_2 C24_2 -67(2)
C16_2 C17B_2 C18B_2 C19B_2 165(5)
C16_2 C22B_2 C23B_2 C24B_2 -112(5)
C17_2 C16_2 C22_2 C23_2 165.7(14)
C17_2 C18_2 C19_2 C20_2 -170.4(16)
C18_2 C19_2 C20_2 C21_2 176.6(18)
C22_2 C16_2 C17_2 C18_2 -70(2)
C22_2 C23_2 C24_2 C25_2 -166.8(17)
C23_2 C24_2 C25_2 C26_2 -60(2)
C17B_2 C16_2 C22B_2 C23B_2 169(5)
C17B_2 C18B_2 C19B_2 C20B_2 165(6)
C18B_2 C19B_2 C20B_2 C21B_2 -104(9)
C22B_2 C16_2 C17B_2 C18B_2 32(8)
C22B_2 C23B_2 C24B_2 C25B_2 -111(7)
C23B_2 C24B_2 C25B_2 C26B_2 154(5)
C1_3 C2_3 C3_3 C4_3 5.3(16)
C1_3 C2_3 C12_5 C11_5 12.8(16)
C1_3 C2_3 C12_5 C13_5 -172.9(10)
C1_3 C6_3 C7_3 C8_3 -179.4(11)
C1_3 C6_3 C7_3 C7_4 1.2(17)
C1_3 C1_4 C2_4 C3_4 -177.4(10)
C1_3 C1_4 C2_4 C11_5 4.9(16)
C1_3 C1_4 C6_4 C5_4 178.5(10)
C1_3 C1_4 C6_4 C7_4 -1.7(16)
C2_3 C1_3 C6_3 C5_3 5.5(16)
C2_3 C1_3 C6_3 C7_3 -178.4(10)
C2_3 C1_3 C1_4 C2_4 -7.3(16)
C2_3 C1_3 C1_4 C6_4 178.5(10)
C2_3 C3_3 C4_3 C5_3 -3.5(18)
C2_3 C3_3 C4_3 C14_3 177.5(10)
C2_3 C12_5 C13_5 C8_5 -151.8(11)
C2_3 C12_5 C13_5 C14_5 29.2(18)
C3_3 C2_3 C12_5 C11_5 -159.4(10)
C3_3 C2_3 C12_5 C13_5 14.9(17)
C3_3 C4_3 C5_3 C6_3 2.5(18)
C3_3 C4_3 C5_3 C10_3 -177.3(12)
C3_3 C4_3 C14_3 N13_3 175.6(11)
C3_3 C4_3 C14_3 O15_3 -1.2(19)
C4_3 C5_3 C6_3 C1_3 -3.4(17)
C4_3 C5_3 C6_3 C7_3 -179.7(10)
C4_3 C5_3 C10_3 C9_3 -178.3(11)
C4_3 C5_3 C10_3 C11_3 2.5(19)
C5_3 C4_3 C14_3 N13_3 -3.4(18)
C5_3 C4_3 C14_3 O15_3 179.8(11)
C5_3 C6_3 C7_3 C8_3 -3.3(17)
C5_3 C6_3 C7_3 C7_4 177.3(10)
C5_3 C10_3 C11_3 O12_3 172.5(13)
C5_3 C10_3 C11_3 N13_3 -5(2)
C6_3 C1_3 C2_3 C3_3 -6.3(16)
C6_3 C1_3 C2_3 C12_5 -178.7(10)
C6_3 C1_3 C1_4 C2_4 170.0(10)
C6_3 C1_3 C1_4 C6_4 -4.2(15)
C6_3 C5_3 C10_3 C9_3 1.9(18)
C6_3 C5_3 C10_3 C11_3 -177.3(11)
C6_3 C7_3 C8_3 C9_3 4.8(18)
C6_3 C7_3 C7_4 C6_4 -6.8(17)
C6_3 C7_3 C7_4 C8_4 177.1(10)
C7_3 C8_3 C9_3 C10_3 -2.9(19)
C7_3 C7_4 C8_4 C9_4 175.4(11)
C8_3 C7_3 C7_4 C6_4 173.8(11)
C8_3 C7_3 C7_4 C8_4 -2.2(19)
C8_3 C9_3 C10_3 C5_3 -0.6(18)
C8_3 C9_3 C10_3 C11_3 178.5(11)
C9_3 C10_3 C11_3 O12_3 -7(2)
C9_3 C10_3 C11_3 N13_3 175.4(11)
C10_3 C5_3 C6_3 C1_3 176.4(11)
C10_3 C5_3 C6_3 C7_3 0.2(17)
C10_3 C11_3 N13_3 C14_3 4(2)
C10_3 C11_3 N13_3 C16_3 179.5(11)
C11_3 N13_3 C14_3 C4_3 0.6(18)
C11_3 N13_3 C14_3 O15_3 177.5(12)
C11_3 N13_3 C16_3 C17_3 -90.2(15)
C11_3 N13_3 C16_3 C22_3 49.4(19)
C11_3 N13_3 C16_3 C22B_3 116.2(17)
O12_3 C11_3 N13_3 C14_3 -174.2(12)
O12_3 C11_3 N13_3 C16_3 1(2)
N13_3 C16_3 C17_3 C18_3 -173.8(12)
N13_3 C16_3 C22_3 C23_3 51(2)
N13_3 C16_3 C22B_3 C23B_3 -50(3)
C14_3 C4_3 C5_3 C6_3 -178.5(10)
C14_3 C4_3 C5_3 C10_3 1.7(18)
C14_3 N13_3 C16_3 C17_3 85.5(14)
C14_3 N13_3 C16_3 C22_3 -134.8(15)
C14_3 N13_3 C16_3 C22B_3 -68.0(18)
C16_3 N13_3 C14_3 C4_3 -175.2(11)
C16_3 N13_3 C14_3 O15_3 1.6(18)
C16_3 C17_3 C18_3 C19_3 177.2(11)
C16_3 C22_3 C23_3 C24_3 -176(2)
C16_3 C22B_3 C23B_3 C24B_3 -66(4)
C17_3 C16_3 C22_3 C23_3 -172.9(18)
C17_3 C16_3 C22B_3 C23B_3 165(2)
C17_3 C18_3 C19_3 C20_3 -171.4(13)
C18_3 C19_3 C20_3 C21_3 -172.5(12)
C22_3 C16_3 C17_3 C18_3 50(2)
C22_3 C23_3 C24_3 C25_3 -175(4)
C23_3 C24_3 C25_3 C26_3 176(4)
C22B_3 C16_3 C17_3 C18_3 -30(3)
C22B_3 C23B_3 C24B_3 C25B_3 -162(6)
C23B_3 C24B_3 C25B_3 C26B_3 -168(5)
C1_4 C1_3 C2_3 C3_3 171.0(10)
C1_4 C1_3 C2_3 C12_5 -1.5(16)
C1_4 C1_3 C6_3 C5_3 -171.8(10)
C1_4 C1_3 C6_3 C7_3 4.4(16)
C1_4 C2_4 C3_4 C4_4 0.6(17)
C1_4 C2_4 C11_5 C10_5 -172.1(10)
C1_4 C2_4 C11_5 C12_5 6.5(16)
C1_4 C6_4 C7_4 C7_3 7.1(17)
C1_4 C6_4 C7_4 C8_4 -176.6(10)
C2_4 C1_4 C6_4 C5_4 4.5(16)
C2_4 C1_4 C6_4 C7_4 -175.6(11)
C2_4 C3_4 C4_4 C5_4 1.0(17)
C2_4 C3_4 C4_4 C14_4 178.9(10)
C2_4 C11_5 C12_5 C2_3 -15.2(16)
C2_4 C11_5 C12_5 C13_5 170.2(10)
C3_4 C2_4 C11_5 C10_5 10.2(16)
C3_4 C2_4 C11_5 C12_5 -171.2(10)
C3_4 C4_4 C5_4 C6_4 0.1(17)
C3_4 C4_4 C5_4 C10_4 -179.6(11)
C3_4 C4_4 C14_4 N13_4 178.2(10)
C3_4 C4_4 C14_4 O15_4 1.5(17)
C4_4 C5_4 C6_4 C1_4 -2.8(16)
C4_4 C5_4 C6_4 C7_4 177.4(10)
C4_4 C5_4 C10_4 C9_4 179.6(10)
C4_4 C5_4 C10_4 C11_4 2.1(16)
C5_4 C4_4 C14_4 N13_4 -4.0(16)
C5_4 C4_4 C14_4 O15_4 179.3(11)
C5_4 C6_4 C7_4 C7_3 -173.0(10)
C5_4 C6_4 C7_4 C8_4 3.2(16)
C5_4 C10_4 C11_4 O12_4 174.8(10)
C5_4 C10_4 C11_4 N13_4 -5.7(17)
C6_4 C1_4 C2_4 C3_4 -3.5(16)
C6_4 C1_4 C2_4 C11_5 178.7(10)
C6_4 C5_4 C10_4 C9_4 -0.1(17)
C6_4 C5_4 C10_4 C11_4 -177.6(10)
C6_4 C7_4 C8_4 C9_4 -0.6(17)
C7_4 C7_3 C8_3 C9_3 -175.9(11)
C7_4 C8_4 C9_4 C10_4 -2.5(18)
C8_4 C9_4 C10_4 C5_4 2.8(17)
C8_4 C9_4 C10_4 C11_4 -179.8(10)
C9_4 C10_4 C11_4 O12_4 -2.6(17)
C9_4 C10_4 C11_4 N13_4 176.9(11)
C10_4 C5_4 C6_4 C1_4 176.9(10)
C10_4 C5_4 C6_4 C7_4 -3.0(17)
C10_4 C11_4 N13_4 C14_4 4.3(17)
C10_4 C11_4 N13_4 C16_4 -175.5(10)
C11_4 N13_4 C14_4 C4_4 0.4(16)
C11_4 N13_4 C14_4 O15_4 177.1(11)
C11_4 N13_4 C16_4 C17_4 60.0(14)
C11_4 N13_4 C16_4 C22_4 -71.7(14)
O12_4 C11_4 N13_4 C14_4 -176.1(10)
O12_4 C11_4 N13_4 C16_4 4.0(17)
N13_4 C16_4 C17_4 C18_4 164.8(10)
N13_4 C16_4 C22_4 C23_4 -67.6(15)
C14_4 C4_4 C5_4 C6_4 -177.6(10)
C14_4 C4_4 C5_4 C10_4 2.7(17)
C14_4 N13_4 C16_4 C17_4 -119.9(11)
C14_4 N13_4 C16_4 C22_4 108.5(12)
C16_4 N13_4 C14_4 C4_4 -179.8(9)
C16_4 N13_4 C14_4 O15_4 -3.0(16)
C16_4 C17_4 C18_4 C19_4 -169.8(11)
C16_4 C22_4 C23_4 C24_4 -174.2(11)
C17_4 C16_4 C22_4 C23_4 163.3(12)
C17_4 C18_4 C19_4 C20_4 -170.2(12)
C18_4 C19_4 C20_4 C21_4 178.6(12)
C22_4 C16_4 C17_4 C18_4 -65.2(15)
C22_4 C23_4 C24_4 C25_4 175.5(13)
C23_4 C24_4 C25_4 C26_4 -174.5(13)
C1_5 C2_2 C3_2 C4_2 179.2(11)
C1_5 C2_5 C3_5 C4_5 -3.6(17)
C2_5 C2_1 C3_1 C4_1 179.1(11)
C2_5 C1_5 C14_5 C5_5 20.9(17)
C2_5 C1_5 C14_5 C13_5 -157.5(12)
C2_5 C3_5 C4_5 C5_5 7.5(18)
C3_5 C4_5 C5_5 C6_5 -178.5(11)
C3_5 C4_5 C5_5 C14_5 3.1(18)
C4_5 C5_5 C6_5 C7_5 -179.4(11)
C4_5 C5_5 C6_5 O15_5 6.9(17)
C4_5 C5_5 C14_5 C1_5 -16.9(17)
C4_5 C5_5 C14_5 C13_5 161.7(11)
C5_5 C6_5 C7_5 C8_5 8.5(18)
C5_5 C6_5 C7_5 O21_5 -175.0(11)
C5_5 C6_5 O15_5 C16_5 -120.1(17)
C5_5 C6_5 O15_5 C16B_5 -134.1(17)
C6_5 C5_5 C14_5 C1_5 164.7(11)
C6_5 C5_5 C14_5 C13_5 -16.6(17)
C6_5 C7_5 C8_5 C9_5 -178.2(11)
C6_5 C7_5 C8_5 C13_5 2.4(17)
C6_5 C7_5 O21_5 C22_5 66(3)
C6_5 C7_5 O21_5 C22B_5 81(5)
C6_5 C7_5 O21_5 C22C_5 64(5)
C6_5 O15_5 C16_5 C17_5 156.2(17)
C6_5 O15_5 C16B_5 C17B_5 157.5(16)
C7_5 C6_5 O15_5 C16_5 66.1(18)
C7_5 C6_5 O15_5 C16B_5 52(2)
C7_5 C8_5 C9_5 C10_5 -176.2(10)
C7_5 C8_5 C13_5 C12_5 160.7(11)
C7_5 C8_5 C13_5 C14_5 -20.2(17)
C7_5 O21_5 C22_5 C23_5 176(2)
C7_5 O21_5 C22B_5 C23B_5 154(5)
C7_5 O21_5 C22C_5 C23C_5 162(4)
C8_5 C7_5 O21_5 C22_5 -118(3)
C8_5 C7_5 O21_5 C22B_5 -103(4)
C8_5 C7_5 O21_5 C22C_5 -119(5)
C8_5 C9_5 C10_5 C11_5 8.8(17)
C8_5 C13_5 C14_5 C1_5 -155.2(12)
C8_5 C13_5 C14_5 C5_5 26.4(16)
C9_5 C8_5 C13_5 C12_5 -18.7(17)
C9_5 C8_5 C13_5 C14_5 160.3(11)
C9_5 C10_5 C11_5 C2_4 174.1(10)
C9_5 C10_5 C11_5 C12_5 -4.4(17)
C10_5 C11_5 C12_5 C2_3 163.4(10)
C10_5 C11_5 C12_5 C13_5 -11.2(16)
C11_5 C2_4 C3_4 C4_4 178.4(10)
C11_5 C12_5 C13_5 C8_5 22.5(16)
C11_5 C12_5 C13_5 C14_5 -156.5(11)
C12_5 C2_3 C3_3 C4_3 177.6(11)
C12_5 C13_5 C14_5 C1_5 24(2)
C12_5 C13_5 C14_5 C5_5 -154.7(11)
C13_5 C8_5 C9_5 C10_5 3.2(18)
C14_5 C1_5 C2_5 C2_1 172.0(11)
C14_5 C1_5 C2_5 C3_5 -11.0(17)
C14_5 C5_5 C6_5 C7_5 -1.0(19)
C14_5 C5_5 C6_5 O15_5 -174.7(10)
O15_5 C6_5 C7_5 C8_5 -177.9(10)
O15_5 C6_5 C7_5 O21_5 -1.5(19)
O15_5 C16_5 C17_5 C18_5 -91(3)
O15_5 C16B_5 C17B_5 C18B_5 -62(3)
C16_5 C17_5 C18_5 C19_5 174(2)
C17_5 C18_5 C19_5 C20_5 -78(4)
C16B_5 C17B_5 C18B_5 C19B_5 -176(3)
C17B_5 C18B_5 C19B_5 C20B_5 180(3)
O21_5 C7_5 C8_5 C9_5 5.2(16)
O21_5 C7_5 C8_5 C13_5 -174.3(10)
O21_5 C22_5 C23_5 C24_5 -55(4)
O21_5 C22B_5 C23B_5 C24B_5 177(5)
O21_5 C22C_5 C23C_5 C24C_5 -66(7)
C22_5 C23_5 C24_5 C25_5 -68(4)
C23_5 C24_5 C25_5 C26_5 -177(3)
C22B_5 C23B_5 C24B_5 C25B_5 177(7)
C23B_5 C24B_5 C25B_5 C26B_5 175(5)
C22C_5 C23C_5 C24C_5 C25C_5 176(4)
C23C_5 C24C_5 C25C_5 C26C_5 63(7)
C1_6 C5_6 C6_6 C7_6 179.9(15)
C1_6 C5_6 C10_6 C9_6 -178.7(14)
F2_6 C1_6 C5_6 C6_6 171.6(13)
F2_6 C1_6 C5_6 C10_6 -11(2)
F3_6 C1_6 C5_6 C6_6 -68(2)
F3_6 C1_6 C5_6 C10_6 108.7(17)
F4_6 C1_6 C5_6 C6_6 49(2)
F4_6 C1_6 C5_6 C10_6 -134.4(15)
C5_6 C6_6 C7_6 C8_6 -3(2)
C6_6 C5_6 C10_6 C9_6 -2(2)
C6_6 C7_6 C8_6 C9_6 2(2)
C7_6 C8_6 C9_6 C10_6 -1(2)
C8_6 C9_6 C10_6 C5_6 1(2)
C10_6 C5_6 C6_6 C7_6 3(2)
loop_
_refln_index_h
_refln_index_k
_refln_index_l
_refln_F_squared_meas
_refln_F_squared_sigma
0 0 -2 21.5 6.03
0 0 2 19.09 4.69
0 0 3 378.46 22.84
0 0 -3 378.98 27.69
0 0 4 422.79 25.56
0 0 4 375.72 26.97
0 0 -4 349.65 30.14
0 0 5 163.9 20.03
0 0 5 173.02 18.42
0 0 -5 171.67 25.04
0 0 6 -1.82 5.18
0 0 -6 -8.15 6.7
0 0 6 10.84 7.46
0 0 7 -10.87 10.94
0 0 7 -6.31 9.51
0 0 -7 -17.68 13.95
0 0 8 29.84 13.35
0 0 8 39.47 11.11
0 0 -8 28.36 14.73
0 0 9 129.5 24.93
0 0 9 104.87 20.73
0 0 -9 117.66 31.88
0 0 10 -16.33 10.81
0 0 10 -2.17 8.13
0 0 -10 10.31 12.83
0 0 11 44.85 18.14
0 0 -11 40.08 18.78
0 0 12 75.03 23.53
0 0 -12 92.63 33.14
0 0 13 25.95 17.61
0 0 -13 63.3 28.09
0 0 -14 4.25 19.41
0 1 -14 2.01 13.54
0 1 -13 -14.25 11.93
0 -1 13 -7.95 13.63
0 1 -12 210.5 49.13
0 -1 12 219.91 41.96
0 -1 11 397.27 53.12
0 1 -11 373.34 59.2
0 -1 10 140.79 27.73
0 1 -10 146.11 35.48
0 -1 10 167.31 32.68
0 -1 9 8.78 4.87
0 -1 9 7.47 8.35
0 1 -9 8.02 13.02
0 -1 8 18.57 13.64
0 1 -8 33.71 16.29
0 -1 8 0.46 6.03
0 1 -7 10.54 7.35
0 -1 7 -1.66 5.41
0 -1 7 11.1 9.1
0 -1 6 3.42 6.26
0 1 -6 1.7 9.95
0 -1 5 3.14 5.9
0 1 -5 -1.22 7.04
0 1 -4 117.17 19.15
0 -1 4 111.57 15.98
0 1 -3 3.34 4.42
0 -1 3 18.5 7.33
0 1 -2 66.47 9.7
0 1 -2 78.08 13.62
0 -1 2 79.54 6.96
0 1 -1 4.16 3.74
0 -1 1 -0.35 2.26
0 1 -1 0.58 2.34
0 1 2 18.7 4.9
0 1 2 19.62 4.17
0 -1 -2 19.61 6.42
0 -1 -3 59.02 11.62
0 1 3 56.96 7.78
0 1 3 49.83 9
0 1 4 10.41 3.98
0 1 4 5.86 4.62
0 1 5 596.94 31.21
0 1 5 603.07 37.63
0 -1 -5 581.96 46.37
0 1 6 122.69 19.77
0 -1 -6 181.18 29.39
0 1 6 143.52 17.64
0 1 7 122.4 21.7
0 -1 -7 123.64 25.35
0 1 7 125.32 18.1
0 1 8 105.68 20.12
0 1 8 102.12 17.48
0 -1 -8 103.25 26.45
0 1 9 20.48 10.34
0 1 9 11.97 6.55
0 -1 -9 8.24 7.46
0 1 10 186.1 26.84
0 1 10 168.41 31.54
0 -1 -10 175.49 39.11
0 -1 -11 -3.63 12.07
0 1 11 16.19 8.35
0 -1 -12 10.95 13.49
0 1 12 41.65 18.01
0 -1 -13 0.31 13.72
0 1 13 22.53 9.99
0 1 14 -0.78 11.99
0 -1 -14 15.6 19.1
0 -1 -15 38.76 27.63
0 -2 13 1.43 12.08
0 2 -13 1.59 18.15
0 2 -12 259.28 54.31
0 -2 12 308.6 51.79
0 -2 11 167.4 35.66
0 2 -11 176.55 39.71
0 -2 10 19.37 7.56
0 -2 10 1.63 15.88
0 2 -10 14.59 10.22
0 2 -9 121.16 32.44
0 -2 9 120.23 28.39
0 -2 9 105.8 23.5
0 -2 8 3.97 10.11
0 -2 8 -4.14 9.28
0 2 -8 17.92 10.85
0 2 -7 82.4 20.35
0 -2 7 96.83 21.17
0 2 -6 35.6 16.33
0 -2 6 43.65 15.21
0 2 -5 69.33 15.93
0 -2 5 70.82 13.74
0 -2 4 165.12 21.62
0 2 -4 143.62 20.74
0 2 -3 3161.65 107.29
0 -2 3 3310.75 59.76
0 2 -3 3189.19 82.16
0 -2 2 26.01 6.06
0 2 -2 30.66 8.32
0 2 -2 25.08 10.99
0 2 -1 1053.06 45.89
0 -2 1 1100.39 37.75
0 -2 0 328.05 22.96
0 2 0 286.5 13.1
0 2 0 300.72 20.07
0 2 1 1821.23 41.96
0 -2 -1 1850.48 44.07
0 2 1 1865.51 49.06
0 -2 -1 1786.15 53.35
0 2 2 48.83 7.93
0 -2 -2 36.26 8.43
0 2 2 43.91 9.15
0 2 3 5.93 5.04
0 2 3 14.49 6.09
0 -2 -3 -4.76 6.04
0 -2 -4 21.44 13.98
0 2 4 13.31 5.73
0 2 4 14.81 5.38
0 2 5 340.52 29.84
0 -2 -5 328.64 34
0 2 5 314.74 24.11
0 2 6 318.49 31.66
0 2 6 319.22 26.65
0 -2 -6 298.49 35.06
0 -2 -7 353.09 42.29
0 2 7 307.76 33.48
0 2 7 323.64 27.7
0 2 8 220.83 25.1
0 2 8 237.49 31.68
0 -2 -8 224.6 36.56
0 2 9 231.27 27.93
0 2 9 220.65 34.26
0 -2 -9 233.42 40.63
0 -2 -10 429.31 61
0 2 10 450.64 50.52
0 2 11 56.48 19.54
0 -2 -11 45.9 16.14
0 -2 -12 60.86 27.33
0 2 12 68.43 25.13
0 -2 -13 7.26 10.65
0 2 13 3.35 12.64
0 2 14 0.52 12.72
0 -2 -14 12.61 11.11
0 -2 -15 -1.82 11.53
0 -3 12 8.65 17.1
0 -3 11 23.06 15.12
0 3 -11 37.02 19.71
0 -3 10 -3.46 9.77
0 3 -10 22.71 12.46
0 3 -9 13.65 16.48
0 -3 9 27.67 11.32
0 -3 9 17.71 9.72
0 3 -8 18.1 10.82
0 -3 8 -11.89 6.45
0 3 -7 25.25 15.74
0 -3 7 9.4 14.29
0 -3 6 382.78 40.03
0 3 -6 350.68 41.13
0 3 -5 192.11 27.61
0 -3 5 189.79 25.81
0 3 -4 271.43 30.32
0 -3 4 275.81 30.35
0 -3 4 287.05 22.72
0 3 -3 1658.96 86.05
0 3 -3 1786.42 64.42
0 -3 3 1790.56 53.35
0 3 -2 3234.39 106.6
0 -3 2 3392.69 77.07
0 3 -2 3419.67 75.41
0 -3 1 3020.68 76.92
0 3 -1 3122.45 89.35
0 -3 0 1029.24 48.58
0 3 0 865.39 28.11
0 3 0 957.63 44.27
0 3 1 506.55 24.17
0 -3 -1 552.71 38.17
0 3 1 516.79 32.05
0 -3 -2 42.32 14.98
0 3 2 31.77 10.92
0 -3 -2 29.59 10.96
0 3 3 11.07 6.2
0 -3 -3 11.52 7.61
0 3 4 76.7 13.88
0 3 4 102.52 17.92
0 -3 -4 73.09 16.24
0 3 5 14.56 7.19
0 3 5 4.57 6.42
0 -3 -6 394.19 41.5
0 3 6 452.74 40.21
0 3 6 425.08 32.61
0 3 7 609.95 40.33
0 -3 -7 594.12 54.55
0 3 7 614.28 49.04
0 3 8 82.48 16.67
0 3 8 123.48 23.65
0 -3 -8 103.1 26.45
0 3 9 2289.82 88.1
0 3 9 2479.09 112.02
0 -3 -9 2444.71 130.46
0 3 10 1154.54 81.96
0 -3 -10 1084.57 92.43
0 3 11 9.6 7
0 -3 -11 19.19 18.06
0 3 12 11.22 7.78
0 -3 -12 -14.71 16.12
0 -3 -13 6.62 12.06
0 3 13 22.8 19.69
0 -3 -14 143.6 46.62
0 3 14 154.59 39.84
0 -3 -15 12.79 19.94
0 -4 12 -8.5 16.59
0 -4 11 0.48 10.1
0 4 -11 5.09 7.99
0 -4 10 -2.76 7.99
0 -4 9 58.42 20.39
0 -4 9 36.4 17.7
0 4 -9 20.5 18.69
0 -4 8 220.28 37.68
0 4 -8 215.41 39.3
0 -4 7 -8.34 8.71
0 4 -7 5.73 6.16
0 -4 6 135.3 26.91
0 4 -6 124.22 26.18
0 -4 5 -1.39 3.96
0 -4 5 -7.8 6.62
0 4 -5 0.6 5.96
0 -4 4 453.27 31.8
0 4 -4 521.05 56.05
0 4 -4 472.07 39.9
0 4 -4 482.36 48.09
0 4 -3 401.34 40.2
0 -4 3 383.24 28.98
0 4 -3 364.04 31.74
0 4 -3 320.38 40.73
0 4 -2 6480.2 165.21
0 4 -2 6473.77 150.02
0 4 -2 6585.5 112.44
0 -4 2 6467.83 125.46
0 -4 1 3514.23 98.35
0 4 -1 3270.9 104.53
0 -4 0 1333.84 62.14
0 4 0 1308.43 38.93
0 4 0 1372.19 61.81
0 4 1 7.24 3.74
0 -4 -1 6.84 8.81
0 4 1 12.8 9.04
0 4 1 30.32 9.68
0 4 2 223.56 21.28
0 4 2 248.8 25.43
0 4 2 211.27 23.36
0 -4 -2 233.23 27.36
0 4 3 378.61 31.74
0 -4 -3 403.96 37.64
0 4 3 423.07 34.74
0 -4 -3 380.59 31.87
0 4 4 2188.77 78.29
0 -4 -4 1985.57 80.19
0 -4 -4 2286.5 91.34
0 -4 -5 31.77 9.92
0 4 5 32.44 10.74
0 -4 -5 34.74 14.13
0 4 5 26.76 9.86
0 4 6 79.56 17.89
0 -4 -6 70.23 16.87
0 4 6 91.86 19
0 -4 -7 303.45 39.76
0 4 7 332.52 39.99
0 -4 -7 296.79 37.2
0 4 7 310.01 33.12
0 -4 -8 338.56 45.94
0 -4 -8 346.1 41.18
0 4 8 347.28 40.34
0 4 8 306.42 32.19
0 4 9 638.02 59.31
0 -4 -9 631.54 66.69
0 4 9 590.19 47.01
0 -4 -9 569.51 54.41
0 4 10 18.18 10.91
0 -4 -10 18.68 11.58
0 4 11 315.43 48.28
0 -4 -11 310.93 55.47
0 4 12 24.95 15.01
0 -4 -12 -1.68 8.45
0 4 13 108.17 34.22
0 -4 -13 111.45 34.01
0 -4 -14 120.11 44.94
0 4 14 121.33 37.19
0 -4 -15 31.59 27.36
0 4 15 -12.72 17.86
0 -5 11 -15.05 21.46
0 -5 10 16.21 10.14
0 5 -10 -3.75 16.59
0 5 -9 7.2 9.44
0 -5 9 -21.7 14.97
0 5 -8 48.61 23.55
0 -5 8 92.13 28.14
0 5 -7 168.22 38.49
0 -5 7 146.73 29.51
0 5 -6 107.43 26.43
0 5 -6 143.62 31.13
0 -5 6 135.7 27.75
0 5 -5 360.98 38.56
0 5 -5 408.17 50.73
0 -5 5 428.09 46.13
0 5 -4 90.42 28.18
0 5 -4 105.13 19.64
0 -5 4 138.65 20.29
0 5 -4 147.45 29.54
0 -5 3 402.14 36.11
0 5 -3 364.32 47.85
0 5 -3 501.5 64.51
0 5 -3 396.05 34.48
0 5 -2 1499.93 57.53
0 -5 2 1534.63 69.23
0 5 -2 1501.85 79.89
0 5 -2 1386.16 85.62
0 5 -1 502.07 46.92
0 5 -1 494.7 44.87
0 -5 1 485.72 42.45
0 5 0 22.75 8.84
0 5 0 42.66 13.69
0 -5 0 44.32 15.68
0 5 0 48.95 8.75
0 -5 -1 282.09 35.75
0 5 1 282.78 31.28
0 5 1 298.75 20.87
0 5 1 303.24 31.77
0 5 2 1258.55 63.89
0 5 2 1232.97 62.26
0 -5 -2 1390.08 72.98
0 5 3 18.47 10.64
0 -5 -3 17.58 9.51
0 5 3 28.47 12.34
0 -5 -3 13.92 12
0 5 3 16.88 6.97
0 5 4 15.98 9.62
0 -5 -4 19.57 14.47
0 -5 -4 27.1 13.61
0 5 4 13.79 7.02
0 5 5 7.75 8.23
0 -5 -5 2.63 7.8
0 -5 -5 0.11 9.4
0 -5 -6 125.91 24.86
0 -5 -6 107.1 21.81
0 5 6 124.14 22.54
0 -5 -7 254.74 38.28
0 5 7 266.71 32.95
0 5 7 266.41 36.55
0 -5 -7 339.34 43.41
0 5 8 98.68 24.03
0 -5 -8 74.75 19.39
0 -5 -8 69.34 22.46
0 5 8 69 16.1
0 -5 -9 1037.62 80.11
0 5 9 1064.46 66.37
0 5 9 970.5 74.49
0 -5 -9 1152.54 92.54
0 -5 -10 157.68 30.67
0 5 10 238.28 39.4
0 -5 -10 202.41 40.79
0 -5 -11 167.01 41.43
0 5 11 164.43 37.3
0 -5 -11 121.05 30.01
0 5 12 36.12 23.45
0 -5 -12 22.56 17.6
0 5 13 -2.22 12.89
0 -5 -13 5.77 11.73
0 -5 -14 112.97 41.39
0 5 14 95.9 30.02
0 -5 -15 13.39 23.54
0 5 15 0.73 13.08
0 -6 10 -27.3 17.51
0 6 -10 26 25.54
0 -6 9 48.5 21.59
0 6 -9 12.65 13.33
0 -6 8 47.6 22.84
0 6 -8 283.13 58.77
0 -6 7 142.58 30.09
0 6 -7 194.11 41.84
0 6 -6 174.58 37.08
0 -6 6 128.84 28.83
0 -6 5 876.09 71.42
0 6 -5 907.46 81.07
0 6 -4 142.61 36.1
0 6 -4 213.45 36.45
0 -6 3 725.09 51.15
0 6 -3 711.59 46.34
0 6 -3 632.56 69.87
0 6 -3 697.41 62.91
0 6 -2 348.62 28.8
0 6 -2 352.32 48.94
0 -6 2 356.19 36.22
0 6 -2 384.39 44.59
0 -6 1 296.32 38.38
0 6 -1 273.12 35.97
0 6 -1 264.51 38.48
0 6 0 1565.99 84.69
0 6 0 1648.41 83.66
0 -6 0 1638.77 86.74
0 6 1 16.2 10.68
0 6 1 12.16 7.22
0 6 1 5.27 10.59
0 -6 -1 -3.97 13.91
0 6 2 259.81 22.84
0 6 2 282.4 33.11
0 -6 -2 300.03 39.35
0 6 2 286.32 33.58
0 -6 -3 567.94 53.62
0 6 3 510.32 36.27
0 6 3 569.16 48.34
0 6 3 515.31 45.09
0 6 4 41.47 15.25
0 6 4 52.88 14.72
0 6 4 53.13 16.39
0 -6 -4 42.9 18.24
0 -6 -4 69.98 19.51
0 -6 -5 -11.45 11.72
0 -6 -5 -9.29 10.29
0 6 5 -16.03 11.85
0 6 5 0.33 8.19
0 -6 -6 91.23 27.23
0 -6 -6 124.32 24.32
0 6 6 103.33 24.92
0 -6 -7 953.03 75.58
0 -6 -7 902.05 74.29
0 6 7 890.63 61.99
0 6 8 6072.63 167.21
0 -6 -8 5912.93 199.9
0 -6 -8 6190.38 199.34
0 -6 -9 388.39 55.25
0 -6 -9 384.15 52.8
0 6 9 377.64 50.96
0 6 9 383.1 42.29
0 6 10 89.99 25.53
0 -6 -10 77.8 31.41
0 -6 -10 54.57 19.56
0 6 11 -1.25 12.42
0 -6 -11 20.59 22.27
0 -6 -11 -0.21 12.6
0 -6 -12 45.06 27.09
0 6 12 32.24 22.09
0 -6 -13 24.08 14.45
0 6 13 11.89 13.85
0 6 14 76.48 28.86
0 -6 -14 51.65 28.24
0 -6 -15 4.96 12.7
0 6 15 5.86 10.28
0 -7 9 69.22 30.38
0 7 -9 59.77 28.22
0 -7 8 170.06 42.2
0 7 -8 209.62 49.92
0 7 -7 124.8 34.23
0 -7 7 100.42 28.72
0 7 -6 68.51 28.45
0 -7 6 53.36 18.82
0 7 -5 90.92 27.06
0 -7 5 83.54 24.04
0 7 -4 72.11 23.13
0 7 -4 42.91 17.39
0 7 -3 62.62 21.97
0 7 -3 61.73 24.76
0 -7 3 67.57 18.46
0 7 -2 30.39 18.12
0 -7 2 37.5 16.46
0 7 -2 19.34 11.07
0 7 -1 134.53 32.24
0 7 -1 178.42 31.49
0 -7 1 169.51 28.55
0 7 0 386.53 47.96
0 7 0 360.83 43.55
0 -7 0 508.03 58.88
0 -7 -1 136.17 28.37
0 7 1 129.43 25.13
0 7 1 61.65 5.75
0 7 1 124.44 24.96
0 7 2 32.72 8.73
0 7 2 46 14.82
0 7 2 43.45 15.19
0 -7 -2 32.76 20.94
0 7 3 251.26 25.85
0 7 3 275.53 36.44
0 7 3 278.65 36.41
0 7 4 42.23 15.34
0 7 4 45.55 17.22
0 7 4 31.31 10.78
0 -7 -4 9.12 13.39
0 -7 -5 7.94 10.66
0 7 5 29.09 13.83
0 7 5 11.49 12.03
0 -7 -5 25.33 11.64
0 7 6 147.97 29.7
0 -7 -6 88.83 30.01
0 7 6 102.82 21.34
0 -7 -6 116.78 25.59
0 7 7 168.91 32.35
0 -7 -7 189.11 33.91
0 7 7 183.36 30.98
0 -7 -7 147.49 31.46
0 -7 -8 253.09 44.99
0 -7 -8 238.04 42.57
0 -7 -9 15.05 8.66
0 -7 -9 64.33 25.91
0 -7 -10 9.28 12.77
0 -7 -10 16.4 15.16
0 -7 -11 43.81 21.96
0 -7 -11 21.55 15.74
0 -7 -12 22.57 22.39
0 -7 -12 4.19 17.84
0 -7 -13 -12.91 19.9
0 -7 -14 69.2 32.52
0 -7 -15 12.54 13.36
0 -8 8 34.7 18.58
0 -8 7 179.02 39.71
0 8 -7 103.86 37.59
0 8 -6 -5.08 14.73
0 -8 6 -16.59 15.61
0 -8 5 25.61 19.26
0 8 -5 -1.32 9.56
0 8 -4 -2.93 13.93
0 8 -4 7.06 10.18
0 8 -3 28.47 18.21
0 8 -3 13.85 13.87
0 -8 2 -10.41 8.37
0 8 -2 -7.76 14.71
0 8 -2 -5.86 9.19
0 8 -1 6.25 11.4
0 8 -1 5.24 12.5
0 -8 1 -12.91 11.21
0 8 0 186.7 35.02
0 8 0 169.54 33.71
0 -8 0 208.3 35.33
0 8 1 -8.82 11.05
0 8 1 -6.75 11.78
0 -8 -1 -4.37 13.97
0 -8 -2 6.63 8.86
0 8 2 12.9 11.54
0 8 2 -8.42 16.58
0 8 3 11.69 6.82
0 8 3 4.38 11.51
0 -8 -3 5.35 16.32
0 8 3 6.87 6.8
0 8 4 272.59 29.65
0 8 4 273.04 38.07
0 8 4 266.72 40.14
0 -8 -4 329.77 47.9
0 8 5 187.28 28.44
0 8 5 201.07 33.83
0 -8 -5 192.85 40.2
0 8 5 211.52 35.35
0 8 6 0.7 6.07
0 -8 -6 1.69 8.96
0 8 6 -0.71 7.86
0 8 7 464.38 52.39
0 8 7 465.77 57.01
0 -8 -7 485.06 56.06
0 -8 -7 507.49 64.75
0 -8 -8 984.73 86.2
0 8 8 922.07 78.59
0 8 8 886.46 80.23
0 -8 -8 1005.43 92.01
0 -8 -9 -21.28 24.62
0 -8 -9 -22.8 19.1
0 8 9 -6.32 15.06
0 8 9 -1.05 15
0 -8 -10 134.48 37.07
0 8 10 92.59 26.42
0 -8 -10 75 29.94
0 -8 -11 334.18 61.31
0 -8 -11 225.23 49.58
0 -8 -12 44.04 30.78
0 -8 -12 11.11 14.65
0 -8 -13 5.75 14.79
0 -8 -14 19.09 31.07
0 -8 -15 27.99 22
0 -9 7 97.67 33.07
0 -9 6 151.3 38.69
0 9 -6 136.03 35.45
0 9 -5 356.56 59.81
0 -9 5 291.13 51.96
0 9 -4 21.22 9.26
0 9 -4 25.17 18.53
0 9 -3 8.41 17.66
0 9 -3 40.06 11.82
0 9 -2 259.7 44.48
0 9 -2 219.46 49.18
0 -9 1 -2.12 9.69
0 9 -1 8.13 10.75
0 9 -1 26.87 24.08
0 9 0 9.49 8.18
0 9 0 17.26 14.06
0 -9 0 0.66 11.97
0 9 1 12.75 12.01
0 9 1 9.81 8.6
0 -9 -1 -11.9 11.29
0 9 2 95.13 23.65
0 9 2 67.69 20.17
0 -9 -2 101.36 30.67
0 9 3 0.27 7.68
0 9 3 2.42 10.28
0 9 4 46.02 18.63
0 9 4 41.79 20.3
0 -9 -4 20.6 13.42
0 9 5 292.38 43.43
0 9 5 251.39 43.22
0 -9 -5 261.68 53.31
0 9 6 50.96 23.51
0 -9 -6 14.04 9.85
0 9 6 30.82 13.12
0 9 7 59.01 22.04
0 9 7 56.06 20.46
0 -9 -7 67.09 24.21
0 9 8 4.17 12.55
0 -9 -8 3.5 10.73
0 9 8 -2.15 9.88
0 9 9 27.51 14.26
0 -9 -9 -0.31 11.19
0 9 9 55.79 26.59
0 -9 -9 62.36 23.53
0 -9 -10 72.72 28.29
0 9 10 51.77 20.44
0 9 10 49.99 22.92
0 -9 -10 124 37.48
0 9 11 0.04 7.73
0 -9 -11 8.5 22.5
0 -9 -11 -13.87 21.08
0 -9 -12 14.18 15.07
0 9 12 28.23 15.91
0 9 12 -24.66 17.95
0 -9 -12 22.84 19.65
0 -9 -13 89.99 31.27
0 9 13 50.7 28.04
0 9 13 26.88 25.2
0 -9 -13 20.46 17.93
0 9 14 21.66 12.41
0 9 14 12.14 14.52
0 -9 -14 7.64 14.5
0 -10 6 105.26 37.45
0 10 -5 43.75 20.43
0 -10 5 74.08 26.36
0 10 -4 25.29 18.18
0 10 -3 1.42 15.9
0 10 -3 24.29 9.38
0 10 -2 119.85 34.91
0 10 -2 123.06 40.96
0 10 -1 28.08 21.62
0 -10 1 35 26.47
0 10 -1 11.61 7.84
0 10 0 10.23 12.46
0 -10 0 33.07 9.35
0 10 0 19.02 13.67
0 10 1 41.17 26.54
0 10 1 28.73 15.33
0 -10 -1 53.46 23.93
0 10 2 -11.26 16.14
0 10 2 6.65 8.56
0 -10 -2 7.06 15.55
0 10 3 23.83 20.91
0 -10 -3 36.61 19.15
0 10 3 20.57 8.26
0 10 4 38.57 20.8
0 10 4 61.04 26.53
0 -10 -4 38.73 18.55
0 10 5 118.48 31.08
0 10 5 80.74 29.12
0 -10 -5 103.02 33.27
0 -10 -6 -1.48 12.34
0 10 6 2.3 10.07
0 -10 -7 66.23 26.03
0 10 7 88.25 29.61
0 10 8 14.1 12.65
0 -10 -8 16.21 17.92
0 10 9 161.78 41.72
0 -10 -9 219.57 54.54
0 10 9 179.39 34.97
0 10 10 18.07 18.41
0 10 10 38.02 23.49
0 10 11 16.72 17.66
0 -10 -11 32.68 26.88
0 -10 -11 8.1 14.66
0 10 11 33.41 16.51
0 -10 -12 137.68 34.67
0 10 12 134.76 40.48
0 -10 -12 47.9 38.69
0 10 12 115.6 35.2
0 -10 -13 23.85 22.85
0 10 13 -3.01 15.76
0 10 13 9.5 12.75
0 10 14 12.71 8.26
0 -10 -14 -12.51 35.73
0 -11 4 2.32 18.04
0 11 -3 0.82 11.81
0 11 -3 -9.96 16.37
0 11 -2 28.48 20.22
0 11 -2 31.92 23.13
0 11 -1 11.01 9.96
0 11 -1 41.47 29.69
0 11 0 0.05 15.85
0 -11 0 4.93 9.71
0 11 0 11.67 11.03
0 11 1 -0.09 13.41
0 11 1 26.11 10.19
0 -11 -1 25.56 20.28
0 11 2 11.76 9.2
0 -11 -2 41.1 27.48
0 11 2 -4.2 16.82
0 -11 -3 22.27 14.35
0 11 3 9.15 11.72
0 11 3 17.67 17.23
0 -11 -4 97.02 37.03
0 11 4 66.14 23.86
0 11 4 59.32 24.46
0 11 5 1.11 8.76
0 11 5 -6.91 10.77
0 11 6 7.37 11.31
0 -11 -6 161.68 54.31
0 11 7 43.14 21.13
0 -11 -7 -1.51 10.56
0 -11 -8 82.31 85.07
0 11 8 20.16 15.09
0 -11 -9 4.55 18.66
0 11 9 -17.39 17.57
0 11 10 -11.22 14.29
0 -11 -10 21.53 31.7
0 -11 -11 14.52 21.03
0 11 11 11.24 14.84
0 11 12 29.33 9.86
0 -11 -12 -2.74 12.32
0 11 13 85.47 28.91
0 -11 -13 -9.71 9.95
0 12 -2 46.14 21.96
0 12 -1 41.99 27.53
0 12 -1 56.93 29.77
0 12 0 173.01 50.52
0 12 0 198.9 45.45
0 -12 -1 46.66 25.91
0 12 1 100.75 29.48
0 12 1 71.1 32.12
0 12 2 182.54 46.81
0 -12 -2 191.61 43.64
0 12 2 256.23 50.18
0 12 3 30.76 13.86
0 12 3 73.44 31.3
0 -12 -3 27.54 19.36
0 12 4 47.16 17.34
0 12 4 68.53 28.23
0 -12 -4 65.23 30.08
0 12 5 39.11 7.67
0 12 5 57.29 23.14
0 -12 -5 25.1 17.09
0 -12 -6 63.66 31.33
0 12 6 99.72 32.51
0 12 7 -8.55 14.73
0 -12 -7 31.78 32.95
0 -12 -8 8.02 25.34
0 12 8 35.85 20
0 12 9 25.27 17.2
0 -12 -9 16.78 20.5
0 12 10 43.48 21.8
0 -12 -10 13.19 28.78
0 -12 -11 33.6 28.24
0 12 11 -6.26 19.82
0 12 12 -28.57 33.82
0 13 1 75.67 38.75
0 13 2 25.34 20.7
0 -13 -2 8.05 19.84
0 13 2 6.28 12.49
0 -13 -3 -23.71 27.02
0 13 3 -36.81 21.59
0 13 3 2.87 26.54
0 13 4 -50.22 32.07
0 -13 -4 -24.61 18.64
0 13 4 -26.24 20.53
0 -13 -5 -0.19 15.92
0 13 5 11.32 10.55
0 13 6 41.81 17.57
0 -13 -6 36.34 25.9
0 -13 -7 18.14 21.12
0 13 7 12.21 14.96
0 -13 -8 -6.96 23.2
0 13 8 -27.79 14.71
0 -13 -9 -9.64 20.58
0 13 9 -16.56 19.69
-1 13 9 33.86 22.39
1 -13 -8 65.96 40.61
-1 13 8 89.01 37.55
1 -13 -7 216.4 66.66
-1 13 7 255.72 58.85
1 -13 -6 21.46 21.27
-1 13 6 -21.15 17.25
1 -13 -5 62.03 24.54
-1 13 5 27.21 24.93
-1 13 4 77.48 36
1 -13 -4 98.09 40.55
-1 13 3 55.93 24.22
-1 13 3 16.49 11.32
1 -13 -3 17.93 13.96
-1 13 2 10.36 14.89
-1 13 2 10.82 23.92
1 -13 -2 26.41 15.66
-1 13 1 -0.74 23.4
1 -12 -11 0.32 17.87
-1 12 11 2.84 9.63
1 -12 -10 45.59 28.71
-1 12 10 37.27 26.55
1 -12 -9 38.21 31.97
-1 12 9 85.19 29.91
-1 12 8 19.94 10.53
1 -12 -8 16.42 28.89
-1 12 7 12.51 9.98
1 -12 -7 8.99 20.79
1 -12 -6 35.48 16.87
-1 12 6 58.6 28.78
-1 12 5 124.29 38.51
1 -12 -5 108.63 32.16
1 -12 -4 219.88 52.42
-1 12 4 136.78 41.05
-1 12 4 198.74 40.16
-1 12 3 119.68 38.72
1 -12 -3 152.51 40.78
-1 12 3 177.72 40.73
-1 12 2 27.88 11.93
1 -12 -2 52.26 23.57
-1 12 2 40.34 13.93
-1 12 1 5.46 20.44
-1 12 1 0.25 14.71
1 -12 -1 4.75 10.55
-1 12 0 -26.04 17.87
-1 12 0 -2.65 17.43
-1 12 -1 -0.97 15.47
-1 12 -1 40.22 23.28
-1 12 -2 144.79 49.74
-1 11 12 34.18 21.61
1 -11 -12 12.86 23.5
1 -11 -11 -1.6 10.32
-1 11 11 10.81 15.86
-1 11 10 -5.95 10.64
1 -11 -10 -25.07 19.82
1 -11 -9 -33.88 21.87
-1 11 9 -7.34 16.02
1 -11 -8 -7.76 20.66
-1 11 8 42.82 24.5
-1 11 7 24.35 15.3
1 -11 -7 12.64 14.62
-1 11 6 175.43 39.15
1 -11 -6 170.25 39.52
1 -11 -5 194.24 43.85
-1 11 5 207.13 43.52
1 -11 -4 27.63 8.9
-1 11 4 32.47 18.97
-1 11 4 3.43 10.92
-1 11 3 96.12 30.18
-1 11 3 67.79 25.59
1 -11 -3 22.94 9.37
-1 11 2 11.09 15.26
-1 11 2 -6.72 12.32
-1 11 1 17.02 9.48
1 -11 -1 14.73 9.6
-1 11 0 23.72 20.44
-1 11 0 28.96 24.08
1 -11 0 46.56 20.19
-1 11 -1 10.35 15.19
-1 11 -1 21.72 13.43
-1 11 -2 17.87 11.17
-1 11 -2 3.73 19.41
-1 11 -3 -1.58 9.9
-1 11 -3 34.77 19.08
-1 10 13 7.11 12.37
1 -10 -13 25.41 36.48
-1 10 13 57.73 27.18
-1 10 12 2.44 17.69
-1 10 12 10.73 16.73
1 -10 -12 4.13 12.54
-1 10 11 5.65 7.06
-1 10 11 -13.56 17.02
1 -10 -11 -23.41 18.41
1 -10 -10 85.89 36.15
-1 10 10 50.14 24.17
1 -10 -9 0.06 22.29
-1 10 9 -3.08 14.42
-1 10 8 -11.3 15.06
1 -10 -8 -17.53 15.78
1 -10 -7 161.1 40.92
-1 10 7 144.1 36.22
1 -10 -6 532.18 71.56
-1 10 6 592.78 69.49
1 -10 -5 651.1 77.35
-1 10 5 564.21 63.77
-1 10 5 623.28 71.18
1 -10 -4 45.74 20.01
-1 10 4 68.44 24.74
-1 10 4 41.04 18.55
1 -10 -3 115.65 31.78
-1 10 3 129.59 30.52
-1 10 3 86.02 28.12
-1 10 2 25.93 18.5
1 -10 -2 -9.36 15.59
-1 10 2 3.42 8.42
1 -10 -1 70.64 28.1
-1 10 1 95.91 24.3
-1 10 1 78.75 28.21
-1 10 0 35.52 22.26
-1 10 0 32.1 16.13
1 -10 0 -2.63 9.05
-1 10 -1 12.51 10.39
-1 10 -1 17.02 12.71
1 -10 1 19.56 14.14
-1 10 -2 57.75 22.93
-1 10 -2 56.4 26.72
-1 10 -3 40.43 21.48
-1 10 -3 23.45 16.86
-1 10 -4 -11.59 14.47
-1 10 -4 22.04 9.01
-1 10 -5 54.52 29.62
1 -10 5 115.95 33.53
1 -10 6 -7.2 16.65
1 -9 -14 25.6 32.47
-1 9 14 47.02 28.68
1 -9 -13 38.21 33.07
-1 9 13 18.06 15.84
-1 9 12 28.95 19.04
1 -9 -12 28.25 22.56
-1 9 12 -0.78 10.83
1 -9 -12 26 21.1
1 -9 -11 11 17.33
-1 9 11 -9.98 8.37
-1 9 11 2.93 10.08
1 -9 -11 -9.15 25.4
1 -9 -10 54.32 16.23
-1 9 10 33.21 14.4
1 -9 -10 -1.46 18.14
-1 9 10 34 22.79
-1 9 9 17.3 12.57
-1 9 9 -6.52 13.54
-1 9 8 75.32 22.98
1 -9 -8 86.17 24
-1 9 8 110.09 29.92
-1 9 7 6.02 8.37
-1 9 7 9.43 8.56
1 -9 -7 1.84 8.05
-1 9 6 98.7 29.41
1 -9 -6 88.38 26.79
1 -9 -5 69.14 16.97
-1 9 5 109.4 31.18
-1 9 4 -1.23 7.36
-1 9 4 6.39 6.45
1 -9 -4 5.41 9.5
-1 9 3 268.08 44.78
1 -9 -3 283.31 45.53
-1 9 3 243.08 38.77
1 -9 -2 133.97 32.66
-1 9 2 186.22 34.05
-1 9 2 192.92 40.9
1 -9 -1 54.37 22.77
-1 9 1 26.99 13.01
-1 9 1 53.91 24.25
1 -9 0 -7.96 12.69
-1 9 0 0.68 10.25
-1 9 0 -3.07 11.05
-1 9 -1 -9 12.85
1 -9 1 0.58 10.93
-1 9 -1 4.36 16.49
-1 9 -2 15.04 9.2
-1 9 -2 3.86 11.14
-1 9 -3 1.74 11.98
-1 9 -3 6.59 11.45
-1 9 -4 140.64 41.76
-1 9 -4 169.32 38.3
1 -9 5 113.71 34.29
-1 9 -5 133.44 36.87
1 -9 6 17.68 12.96
-1 9 -6 31.32 14.53
1 -9 7 27.93 15.38
1 -8 -14 7.54 28.1
1 -8 -13 12.36 13.98
1 -8 -12 174.15 40.79
1 -8 -12 309.39 63.03
1 -8 -11 116.11 38.58
1 -8 -11 74.89 32.83
1 -8 -10 4.08 12.1
1 -8 -10 -6.01 15.55
-1 8 10 -6.32 11.56
1 -8 -9 55.65 24.71
-1 8 9 39.86 21.3
1 -8 -9 69.11 26.91
1 -8 -8 124.46 36.21
1 -8 -8 84.82 21.37
-1 8 8 86.23 26.86
-1 8 7 102.46 25.62
1 -8 -7 154 38.03
-1 8 7 108.6 27.06
1 -8 -6 465.51 58.76
-1 8 6 409.84 48.52
-1 8 6 522.9 60.55
1 -8 -5 -8.44 9.94
-1 8 5 -3.4 12.4
-1 8 5 -4.76 6.17
-1 8 4 19.73 11.54
1 -8 -4 26.01 18.32
-1 8 4 17.08 10.05
-1 8 3 197.38 31.82
1 -8 -3 175.35 36.43
-1 8 3 181.98 34.4
-1 8 2 -11.3 10.71
1 -8 -2 11.96 15.13
-1 8 2 8.12 9.55
-1 8 1 117.9 25.2
1 -8 -1 104.91 24.26
-1 8 1 90.7 27.83
-1 8 0 303.09 42.62
-1 8 0 286.21 45.4
1 -8 0 336.81 47.13
-1 8 -1 12.06 7.26
1 -8 1 21.97 13.85
-1 8 -1 10.95 11.84
-1 8 -2 9.79 9.56
-1 8 -2 1.37 8.39
1 -8 2 -21.95 14.55
-1 8 -3 813.44 78.1
1 -8 3 782.7 66.3
-1 8 -3 836.34 92.17
-1 8 -4 2257.97 134.31
-1 8 -4 2301.03 160.18
-1 8 -5 439.95 74.18
-1 8 -5 483.12 65.43
-1 8 -6 2.41 7.89
1 -8 6 -14.91 13.36
1 -8 7 27.5 8.35
-1 8 -7 23.75 11.63
-1 8 -8 10.94 13.28
1 -8 8 8.41 12.9
1 -7 -14 24.04 33
1 -7 -13 -21.38 24.8
1 -7 -12 41.46 25.26
1 -7 -11 12.3 20.03
1 -7 -11 -20.49 13.17
1 -7 -10 42.11 15.55
1 -7 -10 16.99 14.81
-1 7 10 30.66 13.27
1 -7 -9 -7.64 14.39
-1 7 9 31.78 18.38
1 -7 -9 0.93 10.75
1 -7 -8 801.17 78.57
1 -7 -8 844.25 81.11
-1 7 8 781.35 67.54
-1 7 7 1541.77 99.53
1 -7 -7 1749.63 112.96
1 -7 -7 1696.44 109.67
1 -7 -6 526.74 62.55
1 -7 -6 604.73 59.56
-1 7 6 620.74 60.87
1 -7 -5 136.59 43.66
-1 7 5 108.77 28.45
-1 7 5 91.05 20.27
-1 7 4 1.65 6.98
-1 7 4 9.88 9.57
1 -7 -4 3.88 10.62
-1 7 3 100.15 25
-1 7 3 76.2 19.51
-1 7 3 60.73 10.17
1 -7 -3 57.17 22.32
-1 7 2 113.73 23.25
-1 7 2 120 25.47
1 -7 -2 124.57 25.67
1 -7 -1 584.97 57.4
-1 7 1 619.62 58.18
-1 7 1 593.88 52.76
-1 7 0 370.58 47.97
1 -7 0 443.9 55.75
-1 7 0 314.1 40
-1 7 -1 100.58 27.21
1 -7 1 93.85 22.3
-1 7 -1 95.99 23.47
-1 7 -2 -9.78 6.26
-1 7 -2 0.33 11.37
1 -7 2 -1.43 7.53
1 -7 3 430.47 44.99
-1 7 -3 397.72 59.79
-1 7 -3 399.28 51.42
-1 7 -4 1236.07 111.17
-1 7 -4 1188.71 91.13
-1 7 -5 272.4 45.8
-1 7 -5 188.96 45.84
-1 7 -6 -25.3 18.04
1 -7 6 3.72 13.93
1 -7 7 2.78 13.4
-1 7 -7 13.52 12.35
1 -7 8 30.86 15.63
-1 7 -8 17.98 11.94
1 -7 9 6.73 10.85
-1 7 -9 1.58 10.54
1 -6 -15 21.54 28.44
-1 6 15 34.98 20.27
1 -6 -14 28.81 12.62
-1 6 14 65.83 30.21
-1 6 13 30.41 18.57
1 -6 -13 26.7 16.34
1 -6 -12 44.27 23.81
-1 6 12 78.19 27.36
1 -6 -11 218.52 41.15
-1 6 11 311.78 50.51
1 -6 -11 302.71 55.43
1 -6 -10 40.66 25.99
-1 6 10 6.59 13.72
-1 6 10 27.63 13.46
1 -6 -10 9.98 7.9
-1 6 9 -24.15 17.15
1 -6 -9 -4.58 15.53
1 -6 -9 21.38 20.25
-1 6 9 0.95 9.79
1 -6 -8 1762.4 108.61
-1 6 8 1740.33 95.12
1 -6 -8 1863.6 118.34
-1 6 8 1670.34 103.44
1 -6 -7 2880.4 135.96
1 -6 -7 3027.29 138.77
-1 6 7 2886.95 120.16
1 -6 -6 297.04 40.26
1 -6 -6 297.71 42.26
-1 6 6 262.94 35.04
-1 6 6 252.61 35.66
-1 6 5 402.67 43.04
1 -6 -5 406.38 44.65
-1 6 5 373.08 44.4
1 -6 -5 541.82 57.48
-1 6 4 91.79 21.68
1 -6 -4 80.75 22.54
-1 6 4 68.45 16.6
-1 6 3 183.11 25.32
1 -6 -3 189.9 32.71
-1 6 3 207.93 23.66
-1 6 3 203.93 30.13
-1 6 2 5.61 4
-1 6 2 25.81 12.45
1 -6 -2 21.24 16.85
-1 6 2 13 9.2
1 -6 -1 136.95 33.51
-1 6 1 220.77 30.46
-1 6 1 155.21 13.12
-1 6 1 208.74 30.87
1 -6 0 93.67 21.72
-1 6 0 102.17 22.2
-1 6 0 103.3 21.74
-1 6 -1 149.55 27.97
-1 6 -1 149.11 26.57
1 -6 1 127.94 23.48
-1 6 -2 28.55 16.62
-1 6 -2 21.36 10.91
1 -6 2 20.17 6.77
-1 6 -3 50.17 13.48
1 -6 3 47.88 13.91
-1 6 -3 58.68 19.8
-1 6 -3 48 20.06
-1 6 -4 51.47 21.27
1 -6 4 58.1 16.08
-1 6 -4 53.31 15.59
-1 6 -4 69.32 22.28
-1 6 -5 506.76 69.24
-1 6 -5 584.66 63.09
-1 6 -5 537.84 52.43
-1 6 -6 16.87 12.01
1 -6 6 -0.98 10.87
1 -6 7 -2.59 8.35
-1 6 -7 26.2 18.74
1 -6 8 30.28 14.77
-1 6 -8 37.33 20.02
1 -6 9 20.31 22.53
-1 6 -9 8.93 8.75
-1 6 -10 5.09 13.44
1 -5 -15 14.91 13.58
-1 5 15 2.55 24.05
-1 5 14 34.93 27.51
1 -5 -14 15.21 11.15
-1 5 13 19.36 11.47
1 -5 -13 39.15 20.59
1 -5 -12 69.66 26.77
-1 5 12 48.84 17.72
1 -5 -11 81.5 28.19
-1 5 11 82.6 27.93
-1 5 10 6.73 7.98
1 -5 -10 15.18 8.34
-1 5 10 -7.03 7.91
1 -5 -10 8.11 8.72
1 -5 -9 136.13 32.1
-1 5 9 135.28 28.7
1 -5 -9 88.82 24.83
-1 5 9 116.1 25.12
1 -5 -8 14.69 15.09
-1 5 8 -6.41 8.75
1 -5 -8 8.81 9.29
-1 5 8 0.58 10.28
-1 5 7 323.78 38.33
1 -5 -7 272.19 41.93
-1 5 7 335.47 41.59
1 -5 -7 370.98 44.28
1 -5 -6 769.38 62.03
-1 5 6 775.11 56.54
1 -5 -6 771.97 63.21
-1 5 6 699.3 58.66
-1 5 5 208.86 28.95
1 -5 -5 185.49 30.94
1 -5 -5 175.6 27.19
-1 5 4 446.18 42.59
-1 5 4 483.85 42.26
1 -5 -4 451.86 41.19
1 -5 -4 465.68 46.13
-1 5 3 493.19 38.08
-1 5 3 486.29 43.61
1 -5 -3 514.33 49.43
-1 5 2 59.44 15.31
-1 5 2 49.37 12.24
-1 5 1 35.75 10.94
-1 5 1 42.95 16.79
-1 5 0 427.11 37.11
1 -5 0 393.15 38.56
-1 5 0 422.45 40.78
1 -5 1 64.84 13.59
-1 5 -1 85.71 21.19
-1 5 -1 69.73 17.12
-1 5 -2 225.51 35.54
1 -5 2 194.74 26.39
-1 5 -2 223.13 30.37
-1 5 -3 821.58 51.99
-1 5 -3 802.4 61.36
-1 5 -3 760.64 69.83
1 -5 3 818.59 53.59
1 -5 4 28.7 13.21
-1 5 -4 29.78 15.17
-1 5 -4 9.22 11.36
-1 5 -4 10.08 6.99
1 -5 5 19.63 9.29
-1 5 -5 26.08 13.89
-1 5 -5 26.87 12.51
-1 5 -5 6.73 7.61
1 -5 6 20.5 11.51
-1 5 -6 17.51 14.51
-1 5 -6 17.63 12.8
1 -5 7 6.66 11.13
-1 5 -7 0.83 6.69
-1 5 -7 2.41 8.68
-1 5 -8 8.94 14.15
1 -5 8 9.7 11.27
1 -5 9 -2.29 12.24
-1 5 -9 4.88 14.4
-1 5 -10 26.86 17.11
1 -5 10 22.34 18.31
-1 5 -11 27.4 22.39
-1 4 15 78.87 29.53
1 -4 -15 77.84 26.36
1 -4 -14 1.46 16.98
-1 4 14 -9.75 22.32
1 -4 -13 40.12 24.79
-1 4 13 13.32 16.28
-1 4 12 24.35 19
1 -4 -12 22.91 22.33
-1 4 11 144.19 33.97
1 -4 -11 116.46 33.48
-1 4 10 310.56 38.43
1 -4 -10 386.46 59.22
-1 4 10 323.54 46.36
-1 4 9 609.8 52.94
1 -4 -9 673.12 59.4
1 -4 -9 694.61 71.8
-1 4 9 722.01 66.25
-1 4 8 73.05 22.19
1 -4 -8 72.62 19.14
-1 4 8 55.75 17.37
1 -4 -8 56.15 22.61
-1 4 7 3.03 14.58
-1 4 7 9.27 7.26
1 -4 -7 -7.29 10.6
1 -4 -7 32.71 27.22
-1 4 6 271.29 33.38
1 -4 -6 239.75 34.48
1 -4 -6 258.96 37.28
-1 4 6 233.58 29.6
1 -4 -5 255.19 32.08
-1 4 5 230.18 28.67
-1 4 5 220.83 27.98
1 -4 -5 272.25 33.6
1 -4 -4 351.28 37.32
-1 4 4 332.14 34.59
-1 4 4 329.67 32.31
1 -4 -4 357.6 37.17
-1 4 3 1414.58 67.23
1 -4 -3 1359.14 70.74
-1 4 3 1342.84 57.23
1 -4 -3 1326.63 64.92
-1 4 3 1283.79 64.65
-1 4 2 1030.9 56.23
-1 4 2 996.36 48.16
1 -4 -2 1183.57 63.17
-1 4 2 1133.63 58.76
-1 4 1 146.46 20.04
-1 4 1 140.41 19.18
-1 4 1 128.54 11.99
1 -4 -1 125.47 18.91
-1 4 0 9.36 7.57
1 -4 0 17.25 9.95
-1 4 0 10.95 8.53
1 -4 1 1343.55 64.55
-1 4 -1 1328.84 68.85
-1 4 -1 1381.7 63.55
1 -4 2 8638.58 156.25
-1 4 -2 8452.74 167.4
-1 4 -2 8646.51 191.86
-1 4 -3 3716.36 138.68
-1 4 -3 3852.61 121.13
-1 4 -3 3757 105.37
1 -4 3 3687.25 100.69
-1 4 -4 306.15 32.82
1 -4 4 300.85 28.84
-1 4 -4 286.85 44
-1 4 -5 16.15 10.68
1 -4 5 8.4 6.99
-1 4 -5 14.92 8.69
1 -4 5 25.42 10.09
1 -4 6 253.16 33.93
-1 4 -6 269.21 38.4
-1 4 -7 69.04 20.05
1 -4 7 77.65 18.21
-1 4 -8 149.35 30.4
1 -4 8 143.87 30.62
1 -4 9 3.4 7.84
-1 4 -9 6.66 12.11
1 -4 10 72.26 23.47
-1 4 -10 62.71 21.16
1 -4 11 20.73 10.43
-1 3 15 74.84 31.31
1 -3 -15 39.62 21.38
-1 3 14 -1.79 12.32
1 -3 -14 12.11 18.09
1 -3 -13 76.76 32.35
-1 3 13 72.01 26.23
-1 3 12 43.55 20.94
1 -3 -12 41.87 19.06
-1 3 11 -4.85 16.26
1 -3 -11 -29.38 17.92
-1 3 10 16.54 7.5
-1 3 10 25.07 13.52
1 -3 -10 51.93 22.93
1 -3 -9 384.55 40.77
-1 3 9 479.22 45.12
-1 3 9 520.2 52.83
1 -3 -9 545.75 63.47
1 -3 -8 6.19 10.36
1 -3 -8 -1.34 6.92
-1 3 8 22.38 10.12
-1 3 8 16.24 14.62
-1 3 7 20.74 11.1
1 -3 -7 8.74 8.24
-1 3 7 3.81 6.99
1 -3 -7 15.98 15.32
-1 3 6 76.08 15.18
1 -3 -6 84.45 22.06
1 -3 -6 76.64 18.16
1 -3 -6 79.37 8.79
-1 3 6 77.47 17.49
-1 3 5 326.37 30.24
1 -3 -5 317.36 32.91
1 -3 -5 318.92 35.86
-1 3 5 353.33 35.83
1 -3 -4 1030.84 56.57
-1 3 4 1003.87 54.69
-1 3 4 981.79 50.85
1 -3 -4 955.44 56.51
1 -3 -3 533.08 40.26
-1 3 3 584.97 41.07
-1 3 3 550.49 38.24
1 -3 -3 547.5 39.3
-1 3 2 81 14.1
1 -3 -2 82.86 16.74
-1 3 2 69.15 14.04
-1 3 2 58.04 10.19
1 -3 -2 63.79 12.4
-1 3 1 6.93 6.88
1 -3 -1 5.31 6.13
-1 3 1 6.27 6.33
-1 3 1 4.25 7.17
1 -3 0 117.02 18.89
-1 3 0 154.33 19.27
-1 3 0 133.96 15.66
-1 3 -1 3996.12 96.13
-1 3 -1 4008.03 104.13
1 -3 1 3998.63 96.54
-1 3 -2 5623.61 138.9
1 -3 2 5875.98 113.19
1 -3 3 1876.51 63.92
-1 3 -3 2030.93 72.77
-1 3 -3 1898.51 90.09
1 -3 4 9.78 6.28
-1 3 -4 10.95 9.98
-1 3 -4 33.7 16.22
-1 3 -5 28.68 15.62
1 -3 5 18.52 8.21
1 -3 5 2.18 7.64
1 -3 6 16.36 10.51
-1 3 -6 26 16.33
1 -3 7 104.77 23.64
-1 3 -7 83.04 21.09
-1 3 -8 40.69 15.31
1 -3 8 70.91 19.7
-1 3 -9 41.33 20.27
1 -3 9 32.22 10.63
1 -3 10 -4.02 8.25
-1 3 -10 -10.2 15.55
-1 3 -11 53.51 25.58
1 -3 11 31.71 14.62
-1 3 -12 -10.54 21.21
-1 2 15 36.38 25.67
1 -2 -14 -6.8 19.24
-1 2 14 10.61 24.84
1 -2 -13 -0.85 10.09
-1 2 13 15.39 15.62
1 -2 -12 45.62 17.91
-1 2 12 68.17 24.96
-1 2 11 -10.37 14.46
1 -2 -11 15.19 10.73
-1 2 10 5.92 11.26
-1 2 10 24.48 13.04
1 -2 -10 8.97 14.99
-1 2 9 1000.17 73.66
-1 2 9 841.7 59.5
1 -2 -9 956.27 84.58
-1 2 8 23.94 11.85
1 -2 -8 30.62 22.62
-1 2 8 34.63 13.95
1 -2 -8 50.27 21.02
1 -2 -7 119.65 19.47
-1 2 7 84.56 16.42
1 -2 -7 104.99 26.4
-1 2 7 111.62 22.06
1 -2 -6 116.66 18.98
-1 2 6 120.64 21.24
-1 2 6 105.39 18.32
1 -2 -6 120.35 24.6
1 -2 -5 32.14 8.15
1 -2 -5 52.24 13.94
-1 2 5 63.16 13.52
-1 2 5 58.21 12.62
1 -2 -5 57.74 7.17
-1 2 4 53.02 12.37
1 -2 -4 55.48 13.33
1 -2 -4 38.47 11.15
-1 2 4 47.16 9.87
1 -2 -3 43.41 12.03
1 -2 -3 40.87 11.49
-1 2 3 46.06 12.04
-1 2 3 39.46 10.84
-1 2 2 104.44 14.5
1 -2 -2 130.16 17.74
1 -2 -2 115.37 16.5
-1 2 2 107.6 15.68
-1 2 1 39.24 9.11
-1 2 1 30.82 7.86
1 -2 -1 27.51 7.75
-1 2 1 27 6.22
-1 2 0 335.17 23.08
-1 2 0 313.2 19.1
1 -2 0 309.32 23.34
-1 2 -1 858.18 40.79
1 -2 1 826.12 36.64
1 -2 2 625 32.58
-1 2 -2 629.44 41.08
-1 2 -3 123.67 17.67
-1 2 -3 101.66 18.39
1 -2 3 110.31 13.74
1 -2 4 2092.06 69.09
-1 2 -4 2007.29 93.65
-1 2 -4 1974.11 77.4
1 -2 4 2124.33 65.18
-1 2 -5 156.09 26.63
1 -2 5 157.79 21.26
-1 2 -6 -4.83 13.3
1 -2 6 -7.04 5.77
-1 2 -7 95.11 23.42
1 -2 7 111.24 21.29
-1 2 -8 11.89 7.55
1 -2 8 -0.05 6.12
1 -2 9 146.53 28.63
1 -2 9 102.92 22.57
-1 2 -9 163.43 34.24
-1 2 -10 25.9 14.22
1 -2 10 23.97 10.73
-1 2 -11 42.27 25.89
1 -2 11 15.24 6.29
1 -2 12 88.33 28.04
-1 2 -12 106.23 40.38
-1 2 -13 42.76 29.81
-1 1 14 19.66 18.96
1 -1 -14 -26 32.54
1 -1 -13 92.72 34.39
-1 1 13 66.97 23.74
-1 1 12 104.44 34.44
1 -1 -12 93.96 32.41
1 -1 -11 -21.72 19.6
-1 1 11 -3.57 10.7
1 -1 -10 116.1 34.92
-1 1 10 133.6 31.63
-1 1 10 42.68 15.68
-1 1 9 -14.69 13.41
-1 1 9 -10.68 9.78
1 -1 -9 16.68 13.82
-1 1 8 106.43 22.22
1 -1 -8 100.59 28.76
-1 1 8 120.08 22.82
1 -1 -7 48.05 10.14
-1 1 7 39.7 12.42
1 -1 -7 56.23 17.1
-1 1 7 60 14.91
-1 1 6 79.03 16.27
1 -1 -6 80.71 19.67
1 -1 -6 64.53 10.8
-1 1 6 60.18 14.8
-1 1 5 -9.87 7.69
-1 1 5 -5.82 6.83
1 -1 -5 -0.91 6.63
1 -1 -5 -0.11 5.58
1 -1 -4 243.9 27.85
-1 1 4 273.74 24.91
1 -1 -4 298.91 23.06
1 -1 -4 254.88 13.96
-1 1 4 237.74 21.52
-1 1 3 138.31 16.75
1 -1 -3 120.85 18.13
1 -1 -3 134.71 10.41
-1 1 3 118.4 13.68
1 -1 -3 143.85 15.38
-1 1 2 15 6.84
-1 1 2 10.97 5.83
1 -1 -2 14.87 6.43
1 -1 -2 6.48 3.39
1 -1 -1 590.02 28.49
-1 1 1 580.88 24.94
1 -1 -1 579.15 25.85
-1 1 1 591.85 24.98
-1 1 0 17.14 5.15
-1 1 0 16.31 5.52
1 -1 0 14.76 4.32
-1 1 -1 94.51 11.3
1 -1 1 77.08 9.34
1 -1 2 157.47 14.8
-1 1 -2 175.25 19.19
1 -1 3 1127.61 41.01
1 -1 3 1109.16 38.78
-1 1 -3 1110.31 48.85
-1 1 -3 1071.21 54.86
-1 1 -4 1420.91 62.43
1 -1 4 1386.21 49.67
-1 1 -5 331.87 35.03
1 -1 5 317.63 28.3
1 -1 6 4.87 7.23
-1 1 -6 -6.41 10.12
-1 1 -7 369.92 43.65
1 -1 7 363.86 34.64
-1 1 -8 -1.84 8.66
1 -1 8 3.77 6.07
1 -1 8 -12.35 9.86
-1 1 -9 83.27 23.49
1 -1 9 62.81 16.96
1 -1 9 63.76 16.29
-1 1 -10 4.31 9.13
1 -1 10 52.16 20.21
-1 1 -11 121.51 33.14
1 -1 11 136.67 30.52
-1 1 -12 481.01 70.32
1 -1 12 485.35 60.22
-1 1 -13 18.62 24.31
-1 1 -14 23.5 23.5
-1 0 14 34.46 29.22
1 0 -14 -2.41 17.72
-1 0 13 38.38 22.11
1 0 -13 40.23 17.82
-1 0 12 22.32 15.2
1 0 -12 25.77 8.66
1 0 -11 20.57 15.93
-1 0 11 34.55 19.04
-1 0 10 15.9 16.28
1 0 -10 41.78 20
-1 0 10 17.5 8.27
1 0 -9 22.85 16.39
-1 0 9 21.58 11.36
-1 0 9 15.34 6.02
-1 0 8 181.29 29.74
-1 0 8 169.07 27.14
1 0 -8 189.38 33.95
1 0 -7 78.7 23.43
-1 0 7 95.3 21.53
-1 0 7 79.84 16.66
1 0 -6 48.19 7.67
-1 0 6 96.51 20.22
1 0 -6 76.88 20.71
-1 0 6 73.46 15.26
1 0 -5 1117.33 65.95
-1 0 5 1173.31 58.01
-1 0 5 1221.07 56.31
-1 0 4 350.66 29.15
1 0 -4 291.75 15.52
-1 0 4 390.42 28.15
1 0 -4 379.68 32.97
1 0 -4 327.57 13.3
1 0 -3 1588.17 41.51
-1 0 3 1669.99 53.76
-1 0 3 1696.26 52.12
1 0 -3 1651.23 58.87
1 0 -2 45.81 6.7
-1 0 2 44.7 7.76
-1 0 2 41.33 7.63
1 0 -2 41.95 8.46
1 0 -2 51.6 5.85
1 0 -1 123.16 12.56
-1 0 1 123.98 10.23
-1 0 1 124.77 9.53
1 0 -1 126.97 9.69
1 0 -1 123.32 7.34
-1 0 -1 902.04 20.71
1 0 1 937.85 26.94
-1 0 -2 254.86 18.92
1 0 2 320.9 13
-1 0 -3 16.04 5.04
1 0 3 13.76 4.96
1 0 4 570.46 17.81
1 0 4 513.37 27.41
-1 0 -4 572.1 39.57
-1 0 -5 181.94 26.29
1 0 5 183.18 20.32
-1 0 -6 135.53 24.6
1 0 6 126.41 15.26
1 0 6 124.56 18.11
-1 0 -7 21.96 12.69
1 0 7 16.92 9.64
1 0 7 33.65 10.57
-1 0 -8 5.58 11.05
1 0 8 3.3 9.49
1 0 8 19.87 7.22
1 0 9 10.6 11.41
1 0 9 17.16 8.27
-1 0 -9 31.7 17.82
1 0 10 68.84 19.44
-1 0 -10 86.28 26.51
-1 0 -11 103.42 31.18
1 0 11 92.2 25.21
-1 0 -12 69.41 27.71
1 0 12 111.41 28.89
-1 0 -13 1.88 9.93
-1 0 -14 7.52 16.23
-1 -1 14 -28.65 18.86
1 1 -13 21.79 20.87
-1 -1 13 9.93 18.2
1 1 -12 -18.58 14.71
-1 -1 12 -13.16 14.69
1 1 -11 -12.15 18.88
-1 -1 11 -12.94 12.98
-1 -1 10 91.3 27.8
-1 -1 10 70.21 20.62
1 1 -10 119.83 35.41
-1 -1 9 -11.3 11.11
1 1 -9 7.86 13.15
-1 -1 9 -10.8 9.79
1 1 -8 15.82 9.14
-1 -1 8 5.88 7.38
-1 -1 8 32.68 14.38
-1 -1 7 21.22 10.46
1 1 -7 18.21 10.55
-1 -1 7 4.71 7.9
-1 -1 6 43.22 15.24
1 1 -6 37.46 14.73
-1 -1 6 53.79 14.59
-1 -1 5 44.73 12.06
-1 -1 5 52.9 13.8
1 1 -5 30.18 11.35
-1 -1 4 33.53 8.55
1 1 -4 31.33 10.16
1 1 -3 21.89 8.89
1 1 -3 33.34 5.69
-1 -1 3 28.73 9.61
-1 -1 2 21.3 6.96
1 1 -2 26.01 5.88
1 1 -2 16.91 5.42
1 1 -2 7.52 4.56
1 1 -1 -4.79 2.76
1 1 -1 1.49 2.88
-1 -1 1 -6.5 4.69
1 1 0 416.15 20.25
1 1 0 418.65 16.17
1 1 1 36.95 6.11
-1 -1 -1 26.81 4.18
1 1 2 334.15 14.62
1 1 2 345.16 16.96
-1 -1 -2 293.17 18.81
1 1 3 0.21 1.92
-1 -1 -3 10.99 6.81
1 1 3 6.94 3.6
1 1 3 -1.2 3.81
1 1 3 8.2 3.26
1 1 4 5.17 3.47
1 1 4 8.49 4.68
-1 -1 -4 -2.2 9.4
1 1 4 6.39 2.32
1 1 4 7.11 4.4
1 1 5 765.34 20.14
1 1 5 740.22 26.32
-1 -1 -5 1080.92 59.05
1 1 5 961.28 31.37
1 1 5 1001.65 43.93
1 1 6 49.58 11.66
-1 -1 -6 51.08 15.7
1 1 6 34.64 8.91
-1 -1 -7 15.09 15.4
1 1 7 -12.59 9.25
1 1 7 4.17 4.4
1 1 8 175.5 24.19
1 1 8 143.77 17.89
-1 -1 -8 151.84 28.48
1 1 9 -6.45 10.19
1 1 9 0.73 4.3
-1 -1 -9 8.18 6.99
-1 -1 -10 126.06 32.32
1 1 10 119.66 26.34
-1 -1 -11 147.81 38.22
1 1 11 149.27 31.17
1 1 12 0.29 10.14
-1 -1 -12 32.24 16.86
-1 -1 -13 40.74 23.17
1 1 13 20.38 14.2
-1 -1 -14 3.67 10.06
-1 -1 -15 51.88 35.62
-1 -2 13 22.78 20.84
1 2 -12 -1.87 17.32
-1 -2 12 27.5 20.4
1 2 -11 7.41 9.43
-1 -2 11 26.16 22.11
1 2 -10 10.27 7.54
-1 -2 10 14.85 12.19
-1 -2 10 5.32 13.5
-1 -2 9 20.89 11.54
1 2 -9 -6.64 10.41
-1 -2 9 13.17 13.76
1 2 -8 13.94 18.04
-1 -2 8 1.8 5.47
-1 -2 8 -0.76 12.16
1 2 -7 1.47 8.58
-1 -2 7 7.5 8.92
-1 -2 7 -5.92 10.5
-1 -2 6 82.2 21.84
1 2 -6 81.21 20.62
1 2 -5 28.35 11.41
-1 -2 5 45 12.2
1 2 -4 104.16 18
-1 -2 4 99.72 17.64
-1 -2 3 4861.91 50.55
1 2 -3 5072.79 101.44
1 2 -2 1888.4 50.91
1 2 -2 1854.21 49.42
-1 -2 2 1830.95 36.96
1 2 -1 1184.92 39.55
-1 -2 1 1264.82 37
1 2 -1 1217.03 29.56
1 2 -1 1295.7 50.56
1 2 0 1137.74 37.42
1 2 1 167.83 12.12
1 2 1 161.1 14.8
-1 -2 -1 165.73 9.18
-1 -2 -2 47.81 8.11
1 2 2 44.35 7.8
1 2 3 128.26 13.41
1 2 3 143.59 12.3
1 2 3 167.33 17.96
-1 -2 -3 132.32 16.17
1 2 4 57.84 9.06
-1 -2 -4 64.59 13.72
1 2 4 61.22 12.6
1 2 4 52.36 8.24
-1 -2 -5 680.74 46.75
1 2 5 729.49 29.67
1 2 5 662.35 39.56
1 2 6 539.92 28.02
-1 -2 -6 497.61 44.66
1 2 6 526.74 38.25
1 2 7 1.52 3.78
1 2 7 -3.69 5.25
-1 -2 -7 -0.54 11.34
-1 -2 -8 85.91 23.22
1 2 8 89.03 18.02
1 2 8 85.93 14.01
1 2 9 130.01 24.52
-1 -2 -9 164.74 34.25
-1 -2 -10 165.01 37.3
1 2 10 210.36 32.36
-1 -2 -11 20.54 17.46
1 2 11 21.37 12.27
-1 -2 -12 -22.73 20.04
1 2 12 -20.87 12.49
-1 -2 -13 -2.6 10.94
1 2 13 2.57 7.47
-1 -2 -14 39.65 18.92
-1 -2 -15 28.95 15.5
-1 -3 13 -21.22 17.68
1 3 -12 1.68 17.65
-1 -3 12 38.32 20.23
-1 -3 11 5.03 10.78
-1 -3 10 -4.19 11.32
-1 -3 10 11.39 16.64
1 3 -10 3.22 11.88
1 3 -9 9.87 13.83
-1 -3 9 7.48 12.69
-1 -3 9 -10.5 10.99
-1 -3 8 -1.99 6.51
-1 -3 8 -0.83 6.6
1 3 -8 6.39 9.32
-1 -3 7 15.08 9.97
1 3 -7 0.19 6.51
-1 -3 6 196.81 31.81
1 3 -6 193.94 32.39
-1 -3 5 11.75 10.59
1 3 -5 5.32 6.04
-1 -3 4 64.6 7.91
1 3 -4 53.74 12.81
-1 -3 4 63.77 16.04
1 3 -3 25.86 6.57
-1 -3 3 20.86 5.42
1 3 -2 458.71 39.92
-1 -3 2 528.27 27.39
1 3 -2 482.6 26.05
-1 -3 1 746.21 36.11
1 3 -1 723.34 23.87
1 3 -1 690.75 42.87
1 3 0 544.03 32.94
-1 -3 0 499.47 32.82
1 3 0 544.52 28.82
1 3 1 14.4 5.99
1 3 1 18.93 6.28
1 3 2 935.13 42.24
1 3 2 1025.95 40.91
-1 -3 -2 921.23 33.46
-1 -3 -3 135.35 16.12
-1 -3 -4 863.62 46.96
1 3 4 1017.12 50.97
1 3 5 532.38 39.36
1 3 5 467.97 29.36
-1 -3 -5 425.41 36.82
-1 -3 -6 192.78 27.64
1 3 6 228.25 21.57
1 3 6 234.17 29.37
1 3 7 51.92 10.06
1 3 7 59.04 15.27
-1 -3 -7 85 23.3
-1 -3 -8 407.99 48.64
1 3 8 422.71 31.42
1 3 8 455.26 42.69
1 3 9 -8.36 11.32
-1 -3 -9 27.63 17.86
1 3 10 140.88 28.06
-1 -3 -10 124.84 29.75
-1 -3 -11 24.78 14.67
1 3 11 39.16 19.27
-1 -3 -12 -8.62 15.54
1 3 12 -8.65 12.12
-1 -3 -13 6.62 15.29
1 3 13 -6.01 9.9
-1 -3 -14 22.54 15.35
-1 -3 -15 0.97 10.3
-1 -4 12 23.49 17.24
-1 -4 11 -15.91 17.82
1 4 -11 -8.46 16.57
-1 -4 10 10.3 12.59
-1 -4 10 -0.51 11.74
1 4 -10 11.85 12.05
1 4 -9 15.13 10.9
-1 -4 9 30.5 17.6
-1 -4 9 29.44 14.34
1 4 -8 16.23 17.04
-1 -4 8 -1.33 11.72
1 4 -8 6.73 10
1 4 -7 2.58 8.68
1 4 -7 7.36 12.86
-1 -4 7 7.96 11.88
1 4 -6 37.46 15.88
-1 -4 6 46.68 17.36
1 4 -6 43.86 16.54
1 4 -5 382.01 38.77
-1 -4 5 372.21 41.73
1 4 -5 362.97 50.08
1 4 -4 142.4 20.78
1 4 -4 161.08 27.43
-1 -4 4 182.26 16.08
-1 -4 4 197.53 29.45
1 4 -3 10.71 6.35
1 4 -3 23.02 10.91
1 4 -3 18.53 13.73
-1 -4 3 11.65 4.32
1 4 -2 9.72 6.36
1 4 -2 17.68 6.76
-1 -4 1 2760.01 81.93
1 4 -1 2742.25 96.11
1 4 -1 2691.47 51.3
-1 -4 0 2282.29 78.75
1 4 0 2309.26 78.14
1 4 0 2286.07 64.89
1 4 1 650.65 34.55
-1 -4 -1 722.3 45.48
1 4 1 697.13 39.27
1 4 2 229.14 23
-1 -4 -2 192.84 17.67
1 4 2 202.13 21.11
1 4 3 1028.02 51.26
-1 -4 -3 943.42 44.06
1 4 3 1033.52 53
-1 -4 -4 1831.56 69.85
1 4 4 1859.38 79.01
-1 -4 -5 73.81 16.15
1 4 6 314.71 35.77
-1 -4 -6 279.54 33.56
1 4 6 322.45 29.79
1 4 7 78.66 15.35
-1 -4 -7 76.26 20.24
1 4 7 67.87 15.64
-1 -4 -8 231.18 35.79
1 4 8 280.19 34.99
1 4 8 230.46 24.82
1 4 9 395.92 45.48
-1 -4 -9 351.06 49.21
-1 -4 -10 113.15 30.67
1 4 10 111.73 25.83
-1 -4 -11 99.57 31.83
1 4 11 144.3 33.39
1 4 12 117.11 28.95
-1 -4 -12 103.46 31.93
1 4 13 118.24 32.37
-1 -4 -13 116.2 36.32
1 4 14 -21.31 18.27
-1 -4 -14 -12.22 17.36
-1 -4 -15 63.56 29.4
-1 -5 11 14.4 17.33
-1 -5 10 9.52 7.65
-1 -5 10 1.35 10.64
1 5 -10 4.6 17.91
1 5 -9 -13.19 17.5
-1 -5 9 0.28 11.35
-1 -5 9 2.98 8.88
-1 -5 8 91.77 26.66
1 5 -8 83.73 31.95
-1 -5 7 84.38 26.58
1 5 -7 59.63 24.47
-1 -5 6 209.04 36.76
1 5 -6 198.88 37.83
-1 -5 5 277.7 39.18
1 5 -5 313.9 45.57
1 5 -4 151.07 20.37
-1 -5 4 164.3 29.66
1 5 -4 170.98 31.41
1 5 -3 72.95 11.85
1 5 -3 96.91 22.76
1 5 -3 61.92 21.26
-1 -5 3 99.45 16.74
1 5 -2 19.08 10.4
-1 -5 2 10.92 6.86
1 5 -2 16.78 6.55
1 5 -2 4.23 7.44
1 5 -1 359.69 39.52
-1 -5 1 342.29 33.48
1 5 -1 338.09 19.48
1 5 -1 336.92 36.85
1 5 0 232.88 29.95
1 5 0 254.48 24.79
1 5 0 237.74 29.82
-1 -5 0 251.79 31.58
1 5 1 9.97 5.67
-1 -5 -1 17.14 8.61
1 5 1 8.06 7.53
1 5 2 429.1 34.56
1 5 2 400.34 29.79
-1 -5 -2 411.98 42.02
-1 -5 -3 262.7 31.5
-1 -5 -3 272.53 25.93
1 5 3 262.9 31.55
1 5 3 223.82 25.11
1 5 3 263.74 28.19
1 5 4 360.33 37.42
1 5 4 315.64 32.32
-1 -5 -4 300.25 29.4
-1 -5 -5 423.58 38.68
1 5 5 414.26 42.45
-1 -5 -6 218.64 30.7
-1 -5 -7 75.97 18.16
-1 -5 -8 -9.6 8.31
1 5 8 10.87 11.78
1 5 8 19.75 11.03
1 5 9 2177 109.19
-1 -5 -9 1938.49 116.33
-1 -5 -10 163.3 37.37
1 5 10 173.33 32.58
-1 -5 -11 318.6 54.63
-1 -5 -11 212.12 38.93
1 5 11 320.37 46.63
-1 -5 -12 31.39 9.2
1 5 12 46.09 21.35
-1 -5 -13 20.44 16.13
1 5 13 -5.2 12.09
1 5 14 -19.73 20.04
-1 -5 -14 4 21.39
-1 -5 -15 90.53 44.31
-1 -6 10 40.9 21.07
1 6 -9 -5.18 14.96
-1 -6 9 3.55 13.71
-1 -6 9 0.47 12.25
-1 -6 8 0.3 12.51
1 6 -8 4.99 12.81
-1 -6 7 21.28 20.05
1 6 -7 22.78 15.35
1 6 -6 -1.12 6.73
-1 -6 6 -2.54 8.56
-1 -6 5 8.14 8.08
1 6 -5 26.45 16.79
1 6 -4 -13.64 13.31
1 6 -3 19.79 10.16
-1 -6 3 14.69 9.47
1 6 -3 21.57 13.5
-1 -6 2 100.62 18.37
1 6 -2 95.24 25.89
1 6 -2 95.03 23.06
1 6 -1 29.16 14.89
-1 -6 1 39.39 10.82
1 6 -1 10.48 5.61
-1 -6 0 95.81 20.9
1 6 0 81.51 14.13
1 6 0 86.34 20.99
1 6 0 112.62 23.16
1 6 0 72.28 7.91
-1 -6 -1 12.53 13.15
1 6 1 11.42 9.38
1 6 1 -1.18 8.33
1 6 1 -1.64 9.4
1 6 2 214.55 30.62
1 6 2 231.1 29.04
1 6 2 180.48 21.6
-1 -6 -2 178.87 31.63
1 6 3 58.28 13.17
-1 -6 -3 74.13 20.04
1 6 3 83.18 19.12
1 6 3 86.83 19.26
1 6 4 402.57 37.91
1 6 4 424.08 41.46
1 6 4 401.42 41.74
-1 -6 -4 397.06 45.29
-1 -6 -4 401.73 35.88
-1 -6 -5 252.95 36.62
-1 -6 -5 240.19 29.48
1 6 5 197.05 29.93
1 6 5 241.28 32.44
-1 -6 -6 -0.59 9.38
1 6 6 46.88 18.11
-1 -6 -6 28.63 15.39
1 6 6 35.16 13.48
-1 -6 -7 0.33 13.32
-1 -6 -8 349.83 46
-1 -6 -9 259.42 44.45
-1 -6 -9 302.79 44.49
-1 -6 -10 122.63 32.51
-1 -6 -10 126.88 31.22
-1 -6 -11 60.89 27.42
-1 -6 -11 43.1 23.98
-1 -6 -12 33.82 11.3
1 6 12 13.95 12.23
1 6 13 33.82 15.12
-1 -6 -13 -1.35 26.88
-1 -6 -14 5.69 16.71
-1 -6 -15 -5.8 21.08
-1 -7 9 11.97 13.89
-1 -7 9 3.72 8.5
-1 -7 8 25.84 23.61
1 7 -8 19.95 13.96
1 7 -7 48.1 22.89
-1 -7 7 81.85 27.65
-1 -7 6 103.76 29.83
1 7 -6 60.77 24.22
1 7 -5 38.69 20.44
-1 -7 5 21.62 12.95
1 7 -4 53.2 22.53
1 7 -3 34.54 18.65
1 7 -3 20.97 12.89
1 7 -2 70.95 22.8
1 7 -2 96.88 31.62
-1 -7 2 90.23 19.46
-1 -7 1 13.87 7.2
1 7 -1 0.64 7.44
1 7 -1 12.58 9.94
1 7 0 12.09 13.11
1 7 0 18.33 11.03
-1 -7 -1 -6.21 7.05
1 7 1 -8.04 10.28
1 7 1 -11.14 10.18
1 7 1 9.03 10.22
1 7 2 -2.16 12.01
-1 -7 -2 -0.14 7.67
1 7 2 10.83 9.06
1 7 2 3.61 6.14
1 7 3 39.85 14.53
-1 -7 -3 56.63 25.55
1 7 3 31.91 11.31
1 7 3 47.01 15.24
1 7 4 42.55 12.64
1 7 4 60.84 17.29
-1 -7 -4 70.57 20.81
1 7 4 73.81 17.43
1 7 5 80.39 21.34
1 7 5 71.31 18.05
-1 -7 -5 57.78 23.53
-1 -7 -5 77.3 17.29
1 7 5 88.37 23.28
1 7 6 -6.23 10.23
-1 -7 -6 2.15 10.82
-1 -7 -7 163.81 34.32
1 7 7 133.91 28.96
1 7 7 157.77 28.96
-1 -7 -7 156.92 30.2
-1 -7 -8 807.18 78.62
-1 -7 -8 730.02 68.92
1 7 8 774.65 73.47
-1 -7 -9 226.51 43.27
1 7 9 255.18 46.44
-1 -7 -9 285.41 47.29
-1 -7 -10 47.3 24.65
-1 -7 -10 95.85 29.25
-1 -7 -11 -21.3 21.49
-1 -7 -11 5.81 8.46
-1 -7 -12 23.36 16.57
-1 -7 -12 26.32 21.34
-1 -7 -13 40.84 18.22
-1 -7 -14 39.53 27.85
-1 -7 -15 14.98 15.57
-1 -8 8 82.15 33.81
-1 -8 7 117.89 35.64
1 8 -7 110.32 34.76
-1 -8 6 14.85 10.72
1 8 -6 10.69 11.06
-1 -8 5 40.9 14.94
1 8 -5 26.49 17.65
1 8 -4 20.26 17.73
1 8 -3 24.83 22.15
1 8 -3 48.21 17.31
1 8 -2 7.31 12.29
1 8 -2 4.22 14.02
1 8 -1 217.79 42.84
-1 -8 1 251.93 38.13
1 8 -1 260.92 41.31
-1 -8 0 59.29 19.48
1 8 0 33.56 13
1 8 0 46.24 18.06
1 8 1 19.52 11.82
-1 -8 -1 35.34 16.69
1 8 1 40.11 18.44
-1 -8 -2 55.74 20.27
1 8 2 74.47 14.62
1 8 2 80.15 19.71
1 8 2 76.09 21.76
1 8 3 42.41 18.27
1 8 3 42.26 13.69
-1 -8 -3 45.91 17.21
1 8 3 32.12 15.53
1 8 4 330.29 35.44
1 8 4 341.79 41.61
1 8 4 360.77 44.99
-1 -8 -4 378.87 52.57
1 8 5 182.22 30.55
1 8 5 205.79 29.61
1 8 5 210.99 34.34
-1 -8 -5 146.16 37.63
-1 -8 -6 158.02 28.58
1 8 6 132.46 25.73
-1 -8 -6 126.23 33.74
1 8 6 165.67 30.76
-1 -8 -7 20.14 12.88
-1 -8 -7 19.29 11.44
1 8 7 6.9 13.89
1 8 7 44.77 18.56
1 8 8 8.81 14.65
-1 -8 -8 13.71 13.99
1 8 8 2.51 7.45
-1 -8 -8 -5.07 14.17
1 8 9 16.78 12.95
-1 -8 -9 18.47 17.97
-1 -8 -9 5.2 14.49
1 8 9 8.06 5.79
1 8 10 72.04 24.8
1 8 10 62.68 22.07
-1 -8 -10 77.34 28.21
-1 -8 -10 91.99 28.51
1 8 11 -20.4 16.8
-1 -8 -11 -18.29 20.42
-1 -8 -11 14.53 18.49
-1 -8 -12 -13.1 18.34
-1 -8 -12 12.25 20.69
-1 -8 -13 23.23 23.96
1 8 13 12.53 12.56
-1 -8 -13 -1.51 9.4
1 8 14 18.03 24.79
-1 -8 -14 46.32 39.25
-1 -8 -15 17.5 11.7
-1 -9 7 -21.88 18.12
-1 -9 6 161.19 41.61
1 9 -6 138.42 38.38
1 9 -5 212.19 47.2
-1 -9 5 213.93 44.76
-1 -9 4 85.78 29.81
1 9 -4 104.93 34.66
1 9 -3 144.35 35.26
1 9 -3 112.64 35.98
1 9 -2 0.92 10.26
1 9 -2 -22.65 17.13
1 9 -1 17.71 12.41
-1 -9 1 -5.23 6.44
1 9 -1 -1.9 8.59
-1 -9 0 60.32 18.05
1 9 0 71.8 26.1
1 9 0 45.25 18.84
1 9 1 32.08 12.09
-1 -9 -1 17.63 13.83
1 9 1 12.81 7.83
1 9 2 136.69 30.69
1 9 2 190.12 37.62
-1 -9 -2 164.61 38.25
-1 -9 -3 9.02 15.43
1 9 3 3.12 11.31
1 9 3 2.12 6.87
1 9 4 60.88 20.44
-1 -9 -4 43.15 22
1 9 4 57.74 13.19
1 9 4 66.26 23.26
1 9 5 68.29 21.52
1 9 5 36.66 13.51
-1 -9 -5 42.51 24.3
1 9 5 40.33 16.24
1 9 6 15.63 12.76
-1 -9 -6 -8.4 8.67
1 9 6 13.95 10.55
1 9 7 18.69 13.39
-1 -9 -7 -2.94 19.83
1 9 7 37.62 17.95
1 9 8 9.4 13.93
-1 -9 -8 7.57 12.04
1 9 8 2.12 8.68
-1 -9 -8 11.77 12.74
-1 -9 -9 8.36 11.2
-1 -9 -9 -4.61 12.73
1 9 9 30.41 24.77
1 9 9 37.45 16.48
1 9 10 17.21 10.44
-1 -9 -10 -1.01 10.53
1 9 10 -8.9 16.95
-1 -9 -10 -8.72 10.89
1 9 11 -4.35 10.97
1 9 11 -15.03 19.76
-1 -9 -11 -15.21 20.37
-1 -9 -12 5.62 8.94
1 9 12 23.45 20.96
1 9 12 24.02 11.78
-1 -9 -12 15.9 10.82
1 9 13 26.16 16.92
-1 -9 -13 36.1 29.91
1 9 13 20.76 23.98
-1 -9 -13 -10.59 13.67
1 9 14 -1.6 11.91
-1 -9 -14 7.67 19.05
1 9 14 -9.05 18.67
1 9 15 -39.4 28.81
-1 -9 -15 -5.84 21.42
1 10 -5 24.51 28.12
-1 -10 5 5.02 10.41
-1 -10 4 20.71 17.24
1 10 -4 -2.73 13.22
1 10 -3 3.83 8.16
1 10 -2 62.84 28.48
1 10 -2 69.49 26.48
1 10 -1 7.97 11.82
1 10 -1 0.93 13.7
-1 -10 0 2.4 9.33
1 10 0 10.35 12.48
1 10 0 29.91 17.53
-1 -10 -1 8.57 16.84
1 10 1 14.51 19.15
1 10 1 -7.18 7.77
-1 -10 -2 113.11 31.33
1 10 2 103.3 28.83
1 10 2 109.31 31.11
1 10 3 -2.42 10.19
1 10 3 18.32 14.61
-1 -10 -3 11.9 12.45
1 10 4 127.57 31
-1 -10 -4 167.73 38.61
1 10 4 161.48 33.73
-1 -10 -5 146.42 37.87
1 10 5 155.56 32.5
1 10 5 159.3 36.2
1 10 6 41.32 17.24
-1 -10 -6 19.46 17.12
1 10 7 8.13 8.05
-1 -10 -7 26.61 14.56
1 10 7 13.92 14.97
-1 -10 -8 15.75 17.75
1 10 8 23.28 15.96
1 10 8 14.16 17.88
1 10 9 42.65 28.14
-1 -10 -9 4.34 9.65
1 10 9 30.9 19.87
1 10 10 -9.17 8.21
1 10 10 15.01 17.76
-1 -10 -10 15.23 17.56
-1 -10 -11 20.51 18.9
1 10 11 20.56 18.4
-1 -10 -11 -2.62 16.24
1 10 11 23.98 17.6
1 10 12 11.13 15.27
1 10 12 -14.38 17.26
-1 -10 -12 35.34 35.85
-1 -10 -12 11.53 22.86
1 10 13 15.9 16.43
-1 -10 -13 9.79 16.27
-1 -10 -13 17.04 15.23
1 10 13 7.12 15.16
-1 -10 -14 25.84 28.75
-1 -10 -14 108.82 40.14
-1 -11 4 164.33 39.82
1 11 -3 -6.81 15.72
1 11 -2 24.73 22.96
1 11 -2 -4.44 23.29
1 11 -1 0.21 11.93
1 11 -1 8.4 10.77
1 11 0 7.91 19.5
1 11 0 4.19 8.61
1 11 1 -3.66 11.05
1 11 1 -18.57 14.66
-1 -11 -1 3.34 12.97
1 11 2 120.34 34.58
-1 -11 -2 140.91 51.84
1 11 2 92.24 32.15
1 11 3 54.21 25.08
1 11 3 52.85 14.29
-1 -11 -4 -14.95 9.86
1 11 4 -6.25 14.2
-1 -11 -5 14.63 17.53
1 11 5 11.68 13.03
1 11 5 -0.1 7.07
-1 -11 -6 41.43 24.99
1 11 6 35.7 13.8
-1 -11 -7 -45.27 29.86
1 11 7 9.33 13.05
-1 -11 -8 52.73 37.16
1 11 8 22.53 16.36
1 11 9 37.17 15.5
-1 -11 -9 -4.87 12.56
1 11 10 -14.77 18.01
-1 -11 -10 13.64 18.86
1 11 11 118.87 38.2
-1 -11 -11 83.02 45.43
1 11 11 154.7 38.61
-1 -11 -12 -2.61 11.72
1 11 12 2.77 13.71
1 11 13 9.21 12.63
-1 -11 -13 2.03 17.86
1 12 -1 -10.34 20.85
1 12 -1 2.76 13.66
1 12 0 44.84 31.3
1 12 0 79.89 29.19
1 12 1 10.24 10.84
1 12 1 -12.89 10.42
1 12 2 14.77 13.76
1 12 2 43.27 27.31
-1 -12 -2 4.45 12.39
-1 -12 -3 -26.94 26.73
1 12 3 -15.68 10.8
1 12 3 -2.27 8.33
-1 -12 -4 8.25 21.89
1 12 4 23.72 20.91
1 12 4 29.83 23.75
1 12 5 22.4 18.61
-1 -12 -5 15.82 9.79
1 12 5 1.9 12.62
-1 -12 -6 22.62 18.52
1 12 6 12.01 12.63
-1 -12 -7 75.75 34.53
1 12 7 92.68 31.03
-1 -12 -8 21.12 10.77
1 12 8 22.34 11.83
-1 -12 -9 -7.75 18.64
1 12 9 13.54 6.67
-1 -12 -10 6.36 19.51
-1 -12 -11 1.5 11.31
-1 -12 -12 61.91 51.45
1 13 2 12.19 13.52
-1 -13 -3 -1.24 13.91
1 13 3 23.74 8.65
-1 -13 -4 -17.45 28.15
1 13 4 7.6 12.2
1 13 5 6.22 14.42
-1 -13 -5 -11.33 23.69
-1 -13 -6 24.63 16.87
-1 -13 -7 -0.65 10.69
-1 -13 -8 20.08 23.86
-1 -13 -9 48.35 38.45
-1 -13 -10 18.99 29.27
-2 13 7 -25.58 25.03
2 -13 -7 15.16 16.99
-2 13 6 66.46 28.04
2 -13 -6 15.47 28.38
-2 13 5 -19.15 19.08
2 -13 -5 16.33 21.8
2 -13 -4 114 41.61
-2 13 4 121.37 41.91
-2 13 3 54.8 25.41
2 -13 -3 76.16 31.21
-2 13 2 21.99 17.17
2 -13 -2 -15.07 13.02
2 -13 -1 22.75 11.33
2 -12 -10 35.15 34.66
-2 12 10 105.46 38.37
2 -12 -9 2.2 20.58
-2 12 9 11.39 16.55
2 -12 -8 30.5 31.65
-2 12 8 48.01 22.45
2 -12 -7 27.44 32.49
-2 12 7 115.86 35.83
-2 12 6 13.15 18.96
2 -12 -6 26.09 28.12
2 -12 -5 39.59 23.51
-2 12 5 34.93 24.48
-2 12 4 15.2 21.27
2 -12 -4 3.4 25.79
-2 12 3 9.53 11.12
2 -12 -3 -1.06 17.17
-2 12 2 59.28 30.2
2 -12 -2 67.58 28.92
-2 12 1 9.2 22.59
2 -12 -1 -16.68 17.2
-2 12 0 38.9 27.12
-2 12 0 34.29 28.17
2 -12 0 42.86 27.59
-2 12 -1 -10.37 14.31
-2 12 -1 55.89 19.1
2 -11 -12 -19.15 18.38
2 -11 -11 26.42 35.24
-2 11 11 72.67 30.89
-2 11 10 -4.95 14.83
2 -11 -10 10.63 20.33
-2 11 9 10.08 18.13
2 -11 -9 11.2 23.59
-2 11 8 27.13 15.87
2 -11 -8 23.22 20.16
2 -11 -7 17.19 22.02
-2 11 7 15.48 8.49
-2 11 6 244.95 48.69
2 -11 -6 123.29 34.73
-2 11 5 174.29 43.59
2 -11 -5 215.62 48.67
-2 11 4 228.81 43.03
2 -11 -4 319.35 55.74
-2 11 4 237.75 50.16
-2 11 3 -0.98 10.75
-2 11 3 -15.3 21.29
-2 11 2 52.25 24.35
2 -11 -2 39.11 22.89
-2 11 2 85.33 26.35
2 -11 -1 41.98 21.1
-2 11 1 44.6 22.01
-2 11 1 44.79 15.62
-2 11 0 47.84 26.47
-2 11 0 42.24 17.18
2 -11 0 50.21 24.85
2 -11 1 -2.42 14.06
-2 11 -1 -10.16 14.9
-2 11 -2 -3.12 7.92
-2 11 -2 -2.56 22.44
-2 11 -3 -9.25 12.5
-2 11 -3 7.95 22.87
2 -10 -12 19.37 15.37
-2 10 12 68.2 30.64
-2 10 11 27.61 15.08
2 -10 -11 32.3 24.73
2 -10 -10 12.68 21.46
-2 10 10 -4.23 12.36
2 -10 -9 -15.04 14.57
-2 10 9 34.1 22.95
2 -10 -8 28.59 28.55
-2 10 8 15.64 17.05
2 -10 -7 21.08 14.4
-2 10 7 7.62 9.02
2 -10 -6 171.47 41.51
-2 10 6 199.03 42.66
2 -10 -5 174.33 39.92
-2 10 5 170.27 40.24
-2 10 4 0.83 8.4
2 -10 -4 2.15 19.73
-2 10 4 16.9 17.66
2 -10 -3 308.58 56.23
-2 10 3 240.99 40.51
-2 10 3 262.63 50.85
-2 10 2 86.5 24.68
-2 10 2 62.96 18.7
2 -10 -2 137.93 40.06
2 -10 -1 653.79 74.94
-2 10 1 589.81 78.08
-2 10 1 609.5 67.5
-2 10 0 202.79 49.15
2 -10 0 266.36 50.37
-2 10 0 227.56 43.68
-2 10 -1 9.27 12.03
-2 10 -1 5.46 10.45
2 -10 1 0.5 7.68
-2 10 -2 7.71 12.4
-2 10 -2 16.43 11.9
2 -10 2 19.51 18.02
-2 10 -3 115.47 34.47
-2 10 -3 90.07 30.14
-2 10 -4 144.38 51.79
-2 10 -4 154.87 42.07
2 -10 5 -4.28 9.77
-2 10 -5 8.96 8.79
-2 9 13 -18.52 27.81
2 -9 -13 21.45 14.38
-2 9 12 15.96 18.06
2 -9 -12 25.23 30.63
2 -9 -11 18.46 15.79
-2 9 11 56.73 27.34
2 -9 -10 -5.35 11.28
-2 9 10 -4.18 14.95
-2 9 9 -8.34 9.74
2 -9 -9 2.3 11.05
2 -9 -8 -3.71 10.2
-2 9 8 -1.03 16.14
-2 9 7 -7.48 12.85
2 -9 -7 -10.66 12.37
-2 9 6 291.05 47.35
2 -9 -6 260.4 45.61
-2 9 5 139.28 33.9
2 -9 -5 111.03 29.82
-2 9 4 22.49 14.24
2 -9 -4 -2.34 11.05
-2 9 4 -0.87 10.64
-2 9 3 72.44 24.68
2 -9 -3 61.32 23.07
-2 9 3 85.47 24.52
-2 9 2 12.95 7.8
2 -9 -2 12.36 7.66
-2 9 2 7.32 9.86
-2 9 1 131.84 34.31
2 -9 -1 122.34 34.07
-2 9 1 121.57 28.67
-2 9 0 161.21 38.42
2 -9 0 200.99 39.54
-2 9 0 124.93 31.87
-2 9 -1 -7.98 10.28
2 -9 1 3.79 9.75
-2 9 -2 100.78 26.74
-2 9 -2 78.78 29.12
2 -9 2 109.77 27.88
2 -9 3 165.12 33.9
-2 9 -3 158.29 37.48
-2 9 -3 154.89 42.23
-2 9 -4 27.48 16.71
-2 9 -4 15.22 13.69
-2 9 -5 51.15 30.82
-2 9 -5 61.82 25.85
-2 9 -6 121.93 39.29
2 -9 6 109.06 32.3
2 -8 -14 34.39 36.4
2 -8 -13 13.83 12.57
2 -8 -12 63.21 35.14
2 -8 -11 33.68 20.9
-2 8 11 33.49 16.21
-2 8 11 12.4 7.1
2 -8 -11 30.62 13.39
-2 8 10 22.8 14.08
2 -8 -10 18.81 14.74
2 -8 -10 2.58 7.99
-2 8 10 20.38 17.01
2 -8 -9 6.15 14.47
-2 8 9 13.16 16.27
-2 8 9 12.36 16.14
2 -8 -9 16.42 10.06
2 -8 -8 79.94 30.87
-2 8 8 66.09 22.15
-2 8 7 19.83 11.78
2 -8 -7 14.38 17.5
2 -8 -6 38.02 17.54
-2 8 6 38.67 8.72
-2 8 6 25.4 18.15
2 -8 -5 223.88 40.02
-2 8 5 201.48 39.73
-2 8 4 88.65 23.27
-2 8 4 99.76 26.75
2 -8 -4 89.92 25.56
-2 8 3 7.16 8.15
2 -8 -3 30.58 11.35
-2 8 3 42.98 20.2
-2 8 2 379.79 44.58
-2 8 2 344.37 47.7
2 -8 -2 377.89 52.61
-2 8 1 767.96 75.05
-2 8 1 771.29 63.93
2 -8 -1 753.42 71.45
-2 8 0 335.73 51.58
2 -8 0 353.15 48.74
-2 8 0 362.27 45.95
-2 8 -1 4.61 7.18
-2 8 -1 -9.83 15.71
2 -8 1 9.85 8.26
2 -8 2 304.22 44.05
-2 8 -2 309.21 45.6
-2 8 -2 320.72 54.96
-2 8 -3 27.74 18.11
2 -8 3 18.32 14.48
-2 8 -3 21.13 12.85
-2 8 -4 519.98 61.66
-2 8 -4 497.84 76.54
-2 8 -5 156 45.55
-2 8 -5 205.91 43.79
2 -8 6 105.69 29.12
-2 8 -6 141.53 41.74
-2 8 -7 75.75 28.75
2 -8 7 64.72 22.5
-2 8 -8 14.72 17.27
2 -7 -14 -44.36 40.68
2 -7 -13 20.58 18.77
2 -7 -12 30.26 21.17
-2 7 12 26.63 20.26
2 -7 -11 34.3 22.24
2 -7 -11 1.61 7.22
-2 7 11 20.54 11.63
2 -7 -10 52.87 22.09
-2 7 10 45.8 18.65
2 -7 -10 43.17 24.54
-2 7 9 109.35 29.56
2 -7 -9 123.4 31.83
2 -7 -9 121.92 36.66
-2 7 8 6.35 6.35
2 -7 -8 7.78 8.5
-2 7 8 32.28 12.91
2 -7 -8 24.23 12.77
2 -7 -7 -19.53 18.25
-2 7 7 19.31 15.96
2 -7 -7 18.91 24.82
-2 7 7 -5.18 10.72
-2 7 6 142.76 29.79
-2 7 6 154.16 28.25
-2 7 5 -3.92 10.78
2 -7 -5 4.38 10.84
-2 7 4 87.6 24.3
-2 7 4 101.03 17.93
-2 7 4 98.1 22.26
2 -7 -4 102.29 26.7
2 -7 -3 8.01 25.03
-2 7 3 -16.97 11.88
-2 7 3 6.74 9.94
-2 7 2 33.91 16.48
2 -7 -2 67.22 25.39
-2 7 2 29.63 14.16
-2 7 1 538.36 56.25
-2 7 1 515.69 49.33
2 -7 -1 604.09 56.39
2 -7 0 -5.78 8.03
-2 7 0 14.37 10.3
-2 7 0 25.27 14.58
2 -7 1 4.1 5.85
-2 7 -1 -14.33 12.82
-2 7 -1 14.93 15.07
2 -7 2 -3.6 10.72
-2 7 -2 -14.33 17.14
-2 7 -2 -2.14 14.17
-2 7 -3 384.75 43.19
-2 7 -3 383.11 60.86
-2 7 -3 413.51 51.57
2 -7 3 399.44 47.3
-2 7 -4 1464.65 100.68
-2 7 -4 1446.51 119.63
2 -7 4 1625.9 93.4
-2 7 -5 212.32 39.99
-2 7 -5 266.35 54.94
-2 7 -6 3.81 8.61
2 -7 6 7.53 11.2
-2 7 -7 18.7 14.79
2 -7 7 7.45 9.5
2 -7 8 21.41 17.67
-2 7 -8 7.61 15.19
-2 7 -9 48.73 27.37
-2 6 14 -4.06 9.65
2 -6 -14 18.29 24.42
-2 6 13 1.13 19.25
2 -6 -13 -0.46 18.41
2 -6 -12 77.58 33.68
-2 6 12 53.45 21.48
-2 6 11 134.11 32.78
-2 6 11 112.93 31.71
2 -6 -11 106.12 36.24
2 -6 -10 37.49 21.68
-2 6 10 34 19.06
2 -6 -10 21.6 7.88
-2 6 10 49.58 18.66
-2 6 9 0.71 8.42
-2 6 9 -7.16 10.56
2 -6 -9 14.38 15
2 -6 -9 8.91 13.37
2 -6 -8 163.33 37.23
-2 6 8 142.85 28.9
2 -6 -8 186.27 36.66
-2 6 8 159.59 31.32
-2 6 7 66.71 17.47
2 -6 -7 87.62 26.37
2 -6 -7 62.7 19.48
-2 6 7 96.15 27.15
2 -6 -6 5.42 17.19
-2 6 6 19.25 13.26
-2 6 6 33.11 13.48
-2 6 5 9.52 14.06
-2 6 5 7.76 12.14
2 -6 -5 -9.35 8.39
-2 6 4 4.12 7.85
-2 6 4 4.05 9.85
2 -6 -4 11.6 16.01
2 -6 -3 102.48 37.16
-2 6 3 162.05 25.96
-2 6 3 78.38 16.93
-2 6 3 95.5 20.78
-2 6 2 314.95 34.05
2 -6 -2 338.43 41.77
-2 6 2 335.36 40.51
-2 6 2 309.38 22.66
-2 6 1 -3.1 6.55
-2 6 1 -5.66 5.97
2 -6 -1 -1.81 11.28
-2 6 0 24.35 12.7
-2 6 0 23.77 8.9
-2 6 -1 -9.38 12.2
-2 6 -1 -0.77 8.94
2 -6 1 -1.94 7.23
2 -6 2 82.86 18.49
-2 6 -2 80.92 24.75
-2 6 -2 83.27 18.89
-2 6 -3 1036.88 88.88
-2 6 -3 1038.28 75.68
2 -6 3 1108.57 71.41
-2 6 -4 292.78 37.04
-2 6 -4 283.97 50.95
2 -6 4 295.01 37.02
-2 6 -4 322.64 44.99
-2 6 -5 -16.01 16.14
2 -6 5 -10.7 8.05
-2 6 -5 4.03 12.03
-2 6 -5 12.6 6.39
-2 6 -6 2.12 16.67
2 -6 6 12.02 13.39
-2 6 -6 -2.65 15.31
-2 6 -6 10.41 17.62
2 -6 7 2.8 7.67
-2 6 -7 -12.42 13.83
-2 6 -8 64.53 26.03
2 -6 8 76.56 26.37
-2 6 -9 35.86 23.84
-2 6 -10 9.37 13.92
-2 5 14 3.87 13.25
2 -5 -14 26.11 20.42
-2 5 13 47.92 18.89
2 -5 -13 154.03 54.11
2 -5 -12 81.77 39.87
-2 5 12 73.14 27.76
2 -5 -11 -0.02 10.45
-2 5 11 13.43 13.1
-2 5 11 13.62 14.8
2 -5 -10 179.8 44.53
-2 5 10 154.37 36.96
-2 5 10 170.81 32.33
2 -5 -9 359.93 56.37
-2 5 9 307.51 45.6
2 -5 -9 275.92 41.49
-2 5 9 257.18 38.69
-2 5 8 1388.04 93.79
2 -5 -8 1507.24 93.95
-2 5 8 1347.68 83.82
2 -5 -8 1508.34 106.96
2 -5 -7 237.45 39.12
2 -5 -7 243.9 41.89
-2 5 7 209.85 34.14
-2 5 7 210.69 29
2 -5 -6 32.23 15.43
-2 5 6 11.81 12.41
-2 5 6 26.98 11.06
2 -5 -6 32.24 13.26
-2 5 5 408.75 43.88
2 -5 -5 433.83 45.6
-2 5 5 388.48 41.89
2 -5 -5 400.92 46.17
2 -5 -4 187.53 31.02
-2 5 4 144.57 26.47
-2 5 4 163.89 27.22
2 -5 -3 32.28 16.59
-2 5 3 43.57 13.64
-2 5 3 22.58 7.02
-2 5 3 40.26 13.65
-2 5 2 11.12 7.5
-2 5 2 8.75 8.7
2 -5 -2 18.77 10.65
-2 5 1 11.62 3.09
-2 5 1 43.09 16.94
-2 5 1 36.19 11.7
2 -5 -1 8.25 9
-2 5 0 30.11 11.49
2 -5 0 12.19 6.87
-2 5 0 33.71 16.22
2 -5 1 24.12 12.94
-2 5 -1 20.56 8.57
-2 5 -1 9.23 11.87
2 -5 2 381.27 37.58
-2 5 -2 360.48 38.96
-2 5 -2 362.68 45.89
-2 5 -3 110.85 23.32
-2 5 -3 91.45 26.09
2 -5 3 100.44 20.01
-2 5 -4 32.36 15.49
-2 5 -4 15.85 8.8
2 -5 4 34.35 12.03
-2 5 -4 5.59 7.19
-2 5 -5 72.16 18.42
2 -5 5 74.14 18.99
-2 5 -5 94.29 32.13
-2 5 -5 86.65 20.86
2 -5 6 -11.54 12.62
-2 5 -6 4.01 10.01
-2 5 -6 -7.18 7.69
2 -5 7 36.1 15.5
-2 5 -7 45.12 19.14
-2 5 -7 1.47 10.48
-2 5 -8 35.16 16.49
2 -5 8 21.29 12.84
-2 5 -8 40.9 19.94
-2 5 -9 42.46 21.29
-2 5 -9 75.92 27.56
2 -5 9 52.76 20.33
-2 5 -10 12.56 9.95
-2 5 -11 113.05 41.83
2 -4 -14 -17.22 20.98
-2 4 14 48.44 23.15
2 -4 -13 224.2 52.79
-2 4 13 236.98 48.53
2 -4 -12 0.61 9.05
-2 4 12 2.55 14.88
-2 4 11 7.06 10.25
-2 4 11 -4.42 9.54
2 -4 -10 521.09 70.74
-2 4 10 485.74 52.82
-2 4 10 537.27 63.03
2 -4 -9 147.23 31.12
2 -4 -9 148.82 36.04
-2 4 9 147.34 27.28
-2 4 9 129.6 30.14
-2 4 8 378.53 45.97
2 -4 -8 397.95 43.12
2 -4 -8 451.24 58.79
-2 4 8 364.59 40.93
-2 4 7 86.02 20.34
2 -4 -7 93.1 19.55
-2 4 7 80.49 25.17
2 -4 -7 95.01 24.08
2 -4 -6 56.93 11.79
-2 4 6 43.43 16.97
-2 4 6 43.07 15.74
2 -4 -6 45.22 14.22
-2 4 5 160.7 25.93
2 -4 -5 179.76 30.5
2 -4 -5 163.42 26.71
-2 4 5 172.34 26.98
-2 4 4 5.94 13.64
-2 4 4 30.2 14.57
2 -4 -4 -0.31 10.47
2 -4 -4 7.03 8.37
-2 4 3 104.22 18.91
-2 4 3 124.93 21.04
-2 4 2 377.2 28.72
2 -4 -2 388.9 37.5
-2 4 2 398.76 38.41
-2 4 2 400.92 39.04
-2 4 1 161.87 19.67
2 -4 -1 192 28.69
-2 4 1 163.14 24.98
-2 4 1 211.4 27.97
2 -4 0 655.12 48.54
-2 4 0 582.46 45.3
-2 4 0 592.6 37.04
-2 4 -1 156.65 21.71
2 -4 1 148.67 23.13
-2 4 -1 147.52 25.68
2 -4 2 99.8 18.57
-2 4 -2 84.41 18.69
-2 4 -2 94.27 18.82
-2 4 -3 198.8 33.48
-2 4 -3 177.12 26.05
2 -4 3 186.37 25.87
-2 4 -4 212.67 37.54
-2 4 -4 240.07 31.55
2 -4 4 212.18 26.94
-2 4 -5 49.99 17.84
2 -4 5 21.76 8.3
-2 4 -5 37.12 15.45
2 -4 6 8.8 8.78
-2 4 -6 8.19 9.39
-2 4 -7 30.23 17.4
2 -4 7 1.66 5.84
2 -4 8 177.34 29.97
-2 4 -8 105.6 28.37
2 -4 9 133.91 28.55
-2 4 -9 118.23 29.55
-2 4 -10 5.72 11.64
-2 4 -11 -15.06 17.63
-2 3 14 -2.99 10.22
2 -3 -14 11.56 18.71
2 -3 -13 4.37 14.19
-2 3 13 17.34 9.65
-2 3 12 28.21 23.79
2 -3 -12 11.55 16.24
-2 3 11 45.26 18.3
2 -3 -11 97.55 31.28
-2 3 11 66.81 27.45
2 -3 -10 19.26 13.36
-2 3 10 28.98 16.13
-2 3 10 40.7 15.46
-2 3 9 1315.33 89.63
-2 3 9 1169.89 76.06
2 -3 -9 1436.1 107.8
-2 3 8 2210.92 109.67
-2 3 8 2166.89 98.38
2 -3 -8 2266.94 127.63
2 -3 -8 2180.66 92.88
-2 3 7 55.73 13.02
2 -3 -7 88.9 26.56
-2 3 7 59.61 18.6
2 -3 -7 52.94 16.21
-2 3 6 21.07 10.37
2 -3 -6 15.01 13.22
-2 3 6 22.72 11.8
2 -3 -6 26.26 7.12
2 -3 -6 9.16 10.07
-2 3 5 102.69 19.54
-2 3 5 101.92 20.47
2 -3 -5 119.82 16.12
2 -3 -5 109.28 19.67
2 -3 -5 136.32 27.7
-2 3 4 80.9 16.77
-2 3 4 77.03 17.97
2 -3 -4 92.29 22.28
2 -3 -4 99.01 20.96
-2 3 3 -11.45 8.2
2 -3 -3 -0.79 11.87
-2 3 3 12.7 6.74
-2 3 2 594.29 40.98
-2 3 2 598.55 42.23
-2 3 2 625.64 42.47
-2 3 2 537.92 28.92
2 -3 -2 617.49 42.25
-2 3 1 609.58 42.51
-2 3 1 535.75 27.57
-2 3 1 570.62 40.05
2 -3 -1 605.87 41.26
2 -3 0 5375.8 123.47
-2 3 0 5569.63 122.34
-2 3 0 5338.62 94.49
-2 3 0 5570.63 126.18
-2 3 -1 2218.67 80.86
2 -3 1 2173.56 76.47
-2 3 -1 2143.47 67.58
-2 3 -2 201.65 27.3
2 -3 2 182.35 23.36
2 -3 3 935.04 51.41
-2 3 -3 931.92 63.82
-2 3 -4 173.23 30.86
2 -3 4 169.39 24.13
-2 3 -4 179.18 26.66
-2 3 -5 50.74 19.09
2 -3 5 36.47 12.51
-2 3 -5 74.55 19.56
2 -3 5 65.94 13.98
2 -3 6 382.24 36.4
-2 3 -6 406.88 44.84
2 -3 7 455.37 43.16
-2 3 -7 481.44 52.51
-2 3 -8 465.83 57.92
2 -3 8 512.81 48.31
-2 3 -9 119.52 28.21
2 -3 9 119.64 26.05
-2 3 -10 -5.86 8.79
2 -3 10 18.16 14.29
-2 3 -11 8.04 10.8
-2 3 -12 64.28 32.14
-2 3 -13 12.9 16.45
2 -2 -14 -0.19 24.22
-2 2 14 -16.14 20.71
2 -2 -13 25.45 21.17
-2 2 13 11.56 18.59
2 -2 -12 50.79 27.13
-2 2 12 36.28 18.67
-2 2 11 8.7 12.3
2 -2 -11 -6.32 9.29
-2 2 11 16.36 14.06
-2 2 10 91.29 21.15
-2 2 10 159.3 35.02
2 -2 -10 118.12 33
-2 2 9 670.13 58.27
2 -2 -9 694.52 75.54
-2 2 9 705.34 65.4
-2 2 8 1197.25 72.79
2 -2 -8 1399.41 97.76
-2 2 8 1289.76 81.04
-2 2 7 68.14 18.17
2 -2 -7 83.21 14.45
2 -2 -7 56.83 23.2
-2 2 7 40.03 11.95
-2 2 6 59.39 14.63
2 -2 -6 58.62 14.07
-2 2 6 49.03 12.85
2 -2 -6 49.36 9.14
2 -2 -6 58.46 17.06
2 -2 -5 26.76 6.92
-2 2 5 54.65 15.25
-2 2 5 42.67 14.25
2 -2 -5 37.31 11.74
2 -2 -5 3.49 7.64
-2 2 4 841.71 49.83
2 -2 -4 887 58.1
2 -2 -4 869.83 38.52
2 -2 -4 971.93 50.21
-2 2 4 837.09 47.53
2 -2 -3 90.07 18.74
2 -2 -3 82.71 16.3
-2 2 3 77.53 14.85
-2 2 3 73.8 14.23
2 -2 -2 150.08 21.8
-2 2 2 170.36 20.54
-2 2 2 133.81 18.8
2 -2 -2 135.78 18.53
-2 2 1 19.83 9.8
-2 2 1 28.01 8.93
-2 2 1 15 4.16
-2 2 1 8 4.97
2 -2 -1 9.34 8.28
-2 2 0 243.37 23.19
-2 2 0 237.99 22.98
-2 2 0 230.91 15.26
2 -2 0 260.2 23.78
2 -2 1 3032.53 79.7
-2 2 -1 3074.74 82.6
-2 2 -2 4368.65 108.16
2 -2 2 4347.33 95.08
-2 2 -3 184.67 27.22
2 -2 3 177.98 21.44
-2 2 -4 311.66 32.47
-2 2 -4 258.89 36.42
2 -2 4 263.63 28.43
-2 2 -5 45.85 15.86
2 -2 5 57.48 12.32
-2 2 -5 48.05 17.65
-2 2 -6 379.75 42.71
2 -2 6 348.28 32.01
2 -2 7 292.43 32.63
-2 2 -7 325.01 43.98
2 -2 8 42.94 14.45
-2 2 -8 54.61 18.14
2 -2 9 36.66 12.17
-2 2 -9 31.5 17.92
-2 2 -10 -20.18 17.12
2 -2 10 10.09 8.4
-2 2 -11 20.67 21.15
-2 2 -12 10.3 14.81
-2 2 -13 20.99 20.15
-2 2 -14 -28.11 17.73
2 -1 -14 1.23 20.94
-2 1 14 8.08 11.93
-2 1 13 -31.76 28.07
2 -1 -13 5.57 14.34
2 -1 -12 13.63 16.24
-2 1 12 24.27 19.23
-2 1 11 7.08 5.32
2 -1 -11 5.25 14.2
-2 1 11 1.38 9.1
2 -1 -10 21.57 16.88
-2 1 10 16.02 7.51
-2 1 10 32.76 14.47
-2 1 9 41.8 18.64
-2 1 9 12.46 9.61
2 -1 -9 43.08 17.36
-2 1 8 86.04 20.42
2 -1 -8 70.96 23.9
-2 1 8 75.73 22.18
2 -1 -7 233.3 38.07
-2 1 7 230.34 32.86
-2 1 7 229.41 30.64
2 -1 -6 469.52 28.3
-2 1 6 413.14 39.83
2 -1 -6 356.8 24.65
-2 1 6 462.35 40.03
2 -1 -6 452.91 47.48
-2 1 5 341.64 33.31
2 -1 -5 337.97 39.84
2 -1 -5 339.46 22.92
-2 1 5 324.48 31.44
-2 1 4 114.66 17.94
2 -1 -4 140.74 23.16
2 -1 -4 129.91 14.84
2 -1 -4 131.83 15.08
-2 1 4 116.11 18.8
2 -1 -3 699.35 33.24
-2 1 3 607.21 37.35
2 -1 -3 677.44 32.05
-2 1 3 599.54 36.77
2 -1 -3 656.03 44.26
-2 1 2 640.84 33.64
2 -1 -2 651.27 33.53
-2 1 2 642.82 34.62
2 -1 -2 700.03 31.93
2 -1 -2 657.79 42.16
2 -1 -1 13.14 5.26
-2 1 1 4.03 4.96
-2 1 1 13.94 7.13
-2 1 0 88.03 12.07
-2 1 0 93.77 12.09
-2 1 0 97.09 11.19
2 -1 0 81.51 11.21
2 -1 1 85.47 7.83
-2 1 -1 72.74 10.35
2 -1 1 69.02 11.02
-2 1 -1 91.54 13.87
2 -1 2 -1.56 3.58
-2 1 -2 7.09 3.91
2 -1 2 -5.98 3.66
-2 1 -3 901.29 50.11
2 -1 3 975.82 45.06
-2 1 -4 1014.89 55.39
2 -1 4 959.12 37.73
-2 1 -4 934.74 59.05
-2 1 -5 44.21 16.12
2 -1 5 39.48 10.07
-2 1 -6 237.02 32.84
2 -1 6 219.86 24.59
-2 1 -7 5.87 11.13
2 -1 7 -3.32 7.24
-2 1 -8 47.95 18.61
2 -1 8 34.85 11.84
2 -1 9 0.13 6.27
-2 1 -9 -5.24 11.97
-2 1 -10 56.01 19.9
2 -1 10 62.29 21.51
-2 1 -11 46.39 21.34
2 -1 11 31.26 16.91
-2 1 -12 -11.59 16.26
-2 1 -13 -13.2 8.69
-2 1 -14 43.93 31.86
2 0 -14 47.83 20.22
-2 0 14 79.87 34.18
-2 0 13 9.8 25.23
2 0 -13 0.42 15.04
2 0 -12 -0.06 19.59
-2 0 12 -0.52 12.8
2 0 -11 39.52 24.59
-2 0 11 63.26 23.06
-2 0 11 38.5 18.46
2 0 -10 62.92 27.58
-2 0 10 39.05 13.77
-2 0 10 73.18 24.8
2 0 -9 32.84 16.34
-2 0 9 3.86 11.07
-2 0 9 4.94 11.03
-2 0 8 48.25 14.32
2 0 -8 57.72 20.65
-2 0 8 84.81 21.68
-2 0 7 479.37 48.26
-2 0 7 484.72 45.61
2 0 -7 517.68 56.61
-2 0 6 7.18 6.56
-2 0 6 19.97 12.71
2 0 -5 50.21 7.45
2 0 -5 44.33 15.86
2 0 -5 46.97 10.89
-2 0 5 68.28 17.8
-2 0 5 68.15 16.07
2 0 -4 438.49 22.83
2 0 -4 391.18 27.85
2 0 -4 456.88 38.06
-2 0 4 406.57 33.97
-2 0 4 402.66 33.57
2 0 -4 325.92 14.78
2 0 -3 48.86 14.05
-2 0 3 61.72 13.9
2 0 -3 61.01 11.31
-2 0 3 81.69 13.93
2 0 -3 54.43 6.56
2 0 -2 137.21 10.34
2 0 -2 155.43 18.52
2 0 -2 120.32 14.1
-2 0 2 132.08 15.45
-2 0 2 133.05 15.81
2 0 -1 54.76 7.75
2 0 -1 58.22 9.95
-2 0 1 56.72 9.67
-2 0 1 53.54 7.95
2 0 0 66.26 5.25
2 0 0 67.21 9.76
2 0 0 78.33 8.94
-2 0 0 75.62 9.58
-2 0 0 91.35 8.96
2 0 1 739.4 27.43
-2 0 -1 737.69 24.45
2 0 1 793.76 32.23
-2 0 -1 783.05 26.56
-2 0 -2 135.15 13.33
-2 0 -2 149.75 11.67
2 0 2 136.36 13.64
-2 0 -3 515.23 33.33
2 0 3 505 17.48
-2 0 -4 2041.19 74.88
2 0 4 1931.55 45.45
2 0 5 887.67 37.44
2 0 5 981.85 33.86
-2 0 -5 961.64 59.14
-2 0 -6 13 8.5
2 0 6 18.31 8.11
2 0 6 8.16 3.16
2 0 7 7.18 3.16
2 0 7 2.9 4.79
-2 0 -7 12.6 15.62
-2 0 -8 77.06 21.07
2 0 8 77.76 16.56
2 0 8 50.33 9.45
-2 0 -9 67.73 21.75
2 0 9 61.03 16.76
2 0 10 74.03 19.67
-2 0 -10 101.83 29.7
-2 0 -11 24.37 10.28
2 0 11 6.36 11.29
-2 0 -12 38.58 24.5
-2 0 -13 11.78 15.3
-2 0 -14 19.23 18.81
-2 -1 13 5.42 20.39
2 1 -13 -20.04 22.01
2 1 -12 14.2 21.54
-2 -1 12 6.08 11.38
2 1 -11 -5.61 10.92
-2 -1 11 -0.21 16.76
-2 -1 11 22.93 15.53
2 1 -10 -0.25 11.4
-2 -1 10 -1.38 10.39
-2 -1 10 16.42 7.72
2 1 -9 7.85 15.14
-2 -1 9 17.57 15.56
-2 -1 9 8.43 9.07
2 1 -8 12.39 14.41
-2 -1 8 15.25 17.49
-2 -1 8 -0.16 5.57
-2 -1 7 113.12 25.79
2 1 -7 100.21 27.65
-2 -1 7 133.03 25.71
2 1 -6 82.71 21.49
-2 -1 6 77.16 20.34
-2 -1 6 84.51 20.32
2 1 -5 41.11 16.83
2 1 -5 21.67 5.45
-2 -1 5 40.91 13.43
-2 -1 5 42.91 12.58
-2 -1 4 44.57 11.69
2 1 -4 40.23 6.72
-2 -1 4 37.36 12.69
2 1 -4 38.84 12
2 1 -4 40.68 9.63
2 1 -3 139.42 19.96
-2 -1 3 173.13 21.42
-2 -1 3 178.31 21.73
2 1 -3 194.12 16.83
2 1 -3 155.11 18.74
2 1 -2 2359.12 56.19
-2 -1 2 2428.51 68.4
2 1 -2 2309.05 66.19
-2 -1 2 2408.05 70.93
2 1 -2 2337.66 67.9
2 1 -1 254.34 18.04
-2 -1 1 257.06 20.02
2 1 -1 245.17 19.83
2 1 -1 238.32 17.51
2 1 -1 238.29 20.45
-2 -1 1 243.12 20.81
-2 -1 0 5.93 3.72
-2 -1 0 11.85 4.03
2 1 0 -3.14 3.9
2 1 0 5.1 4.45
-2 -1 -1 62.04 7.39
2 1 1 58.4 7.81
2 1 1 60.23 9.91
2 1 2 250.4 17.82
-2 -1 -2 232.23 10.2
2 1 3 203.83 16
2 1 3 172.76 12.36
-2 -1 -3 175.62 19
2 1 3 186.99 15.6
2 1 4 632.36 29.15
2 1 4 557.91 26.17
2 1 4 587.94 25.72
-2 -1 -4 581.33 39.66
-2 -1 -5 234.47 28.14
2 1 5 174.22 9.86
2 1 5 267.05 19.17
2 1 5 220.2 18.96
2 1 5 243.35 16.99
-2 -1 -6 29.01 11.42
2 1 6 16.88 7.91
2 1 6 12.78 2.97
2 1 6 30.44 6.58
-2 -1 -7 181.14 31.6
2 1 7 127.65 12.25
2 1 7 172.47 13.78
2 1 7 138.87 13.15
2 1 7 188.57 22.77
-2 -1 -8 118.7 25.96
2 1 8 87.83 16.9
-2 -1 -9 10.26 7.09
2 1 9 17.71 8.52
2 1 10 47.65 13.31
-2 -1 -10 59.48 22.76
-2 -1 -11 -6.75 13.18
2 1 11 -3.92 7.07
-2 -1 -12 343.15 59.63
-2 -1 -13 21.08 20
-2 -1 -14 -3.73 11.1
-2 -1 -15 -7.45 12.32
-2 -2 13 14.62 8.47
-2 -2 12 -6.87 16.39
2 2 -11 -10.35 22.11
-2 -2 11 -1.64 10.09
-2 -2 11 15.35 18.26
2 2 -10 25.56 22.52
-2 -2 10 48.56 19.59
-2 -2 10 31.23 18.81
-2 -2 9 12.75 12.58
2 2 -9 8.51 10.61
-2 -2 9 17.36 10.24
2 2 -8 63.08 21.35
-2 -2 8 58.43 21.05
-2 -2 8 46.16 17.59
-2 -2 7 1.56 8.12
2 2 -7 6.76 9.98
-2 -2 7 -7.63 10.65
-2 -2 6 0.1 6.83
2 2 -6 9.05 8.41
-2 -2 6 -3.86 12.68
2 2 -5 130.05 24.56
-2 -2 5 163.08 25.75
-2 -2 5 158.15 25.75
2 2 -4 40.01 14.48
2 2 -4 35.87 8.33
-2 -2 4 56.94 16.96
-2 -2 3 146.8 22.29
2 2 -3 131.51 20.05
2 2 -3 126.14 16.15
2 2 -2 1163.32 45.2
2 2 -2 1144.73 56.61
-2 -2 2 1232.25 53.96
2 2 -2 1257.68 55.39
2 2 -2 1345.42 47.55
2 2 -1 31.76 9.09
2 2 -1 36.97 7.41
2 2 -1 24.73 8.48
2 2 -1 32.69 8.77
2 2 0 147.04 16.33
2 2 0 146.44 18.04
2 2 1 36.31 5.22
2 2 1 24.48 7.2
-2 -2 -2 24.37 6.91
2 2 2 18.26 6.28
-2 -2 -3 580.61 33.67
2 2 3 595.78 29.44
2 2 3 590.96 31.89
-2 -2 -4 25.21 12.03
2 2 4 19.64 5.97
2 2 4 13 5.55
2 2 4 24.31 5.54
2 2 5 576.24 31.26
2 2 5 616.32 36.76
2 2 5 628.61 26.91
-2 -2 -5 537.33 42.11
-2 -2 -6 14.06 7.78
2 2 6 13.23 4.04
2 2 6 44.47 7.4
2 2 6 38.69 10.49
-2 -2 -7 83.03 21.27
2 2 7 25.13 4.24
2 2 7 94.57 17.61
2 2 7 59.17 14.94
2 2 7 53.98 8.25
2 2 8 808.9 52.5
-2 -2 -8 798.39 66.95
-2 -2 -9 201.8 36.91
2 2 9 143.12 24.15
2 2 10 104.49 21.29
-2 -2 -10 109.16 30.48
2 2 11 -7.59 8.39
-2 -2 -11 7.93 16.98
-2 -2 -12 1.09 14.05
2 2 12 15.5 8.7
-2 -2 -13 -26.58 24.48
-2 -2 -14 -2.77 20.48
-2 -2 -15 57.89 25.7
2 3 -12 4.12 13.71
-2 -3 12 -0.97 9.34
-2 -3 11 12.12 17.31
-2 -3 11 -9.48 16.09
2 3 -11 -4.96 13.99
-2 -3 10 60.08 25.49
-2 -3 10 48.82 20.41
2 3 -9 9.79 11.31
-2 -3 9 8.71 8.87
-2 -3 9 -4.67 8.27
2 3 -8 49.68 21.72
-2 -3 8 44.27 20.17
-2 -3 8 46.62 18.18
2 3 -7 21.4 16.59
-2 -3 7 10.78 8.68
-2 -3 7 23.73 15.9
-2 -3 6 27.49 12.52
2 3 -6 29.63 13.96
2 3 -5 154.22 24.69
-2 -3 5 193.71 30.82
2 3 -4 169.52 24.38
-2 -3 4 166.28 25.42
2 3 -4 163.07 27.75
2 3 -3 137.29 17.3
2 3 -3 150.05 24.28
-2 -3 3 149.86 23.93
-2 -3 3 79.2 7.39
2 3 -3 150.18 19.58
2 3 -2 1375.45 66.24
2 3 -2 1322.91 53.31
-2 -3 2 1336.28 42.08
2 3 -2 1394.97 46.44
2 3 -1 2054.78 65.96
2 3 -1 2044.63 73.63
2 3 0 4488.59 97.93
2 3 0 4481.32 92.18
2 3 0 4392.7 110.32
2 3 0 4389.57 96.01
2 3 1 395.53 22
2 3 1 399.18 31.65
-2 -3 -2 438.25 21.45
2 3 2 404.88 30.28
2 3 2 429.24 21.62
-2 -3 -3 454.63 28.24
2 3 3 464.01 31.03
-2 -3 -4 144 20.2
2 3 4 142 21.17
2 3 4 167.29 18.75
-2 -3 -5 6.95 6.93
2 3 5 2.76 4.9
2 3 5 2.96 6.9
2 3 6 473.4 37.8
2 3 6 403.62 34.05
-2 -3 -6 398.32 39.58
-2 -3 -7 16.17 16.56
2 3 7 13.7 9.31
-2 -3 -8 15.21 11.23
2 3 8 -4.47 9.5
-2 -3 -9 21.19 8.91
2 3 9 33.04 13.67
-2 -3 -10 31.71 15.98
2 3 10 42.46 15.94
-2 -3 -11 45.92 21.23
2 3 11 51.68 21.83
-2 -3 -12 70.04 25.47
2 3 12 70.39 22.59
-2 -3 -13 76.08 28.24
-2 -3 -14 13.61 26.07
-2 -3 -15 29.09 22.2
-2 -4 11 26.24 19.77
2 4 -11 16.85 16.61
2 4 -10 -1.53 17.67
-2 -4 10 -12.8 9.42
-2 -4 10 5.82 9.99
-2 -4 9 -14.66 14.72
-2 -4 9 5.45 14.63
2 4 -9 11.04 15.59
-2 -4 8 73.9 21.47
-2 -4 8 47.29 21.64
2 4 -8 72.99 28.43
-2 -4 7 103.2 25.54
-2 -4 7 140.39 32.65
2 4 -7 124.45 35.49
-2 -4 6 61.34 22.16
2 4 -6 46.39 16.36
2 4 -6 69.01 21.8
-2 -4 5 211.5 34.48
2 4 -5 179.86 28.41
2 4 -5 183.04 33.42
-2 -4 4 496.11 48.34
2 4 -4 507.58 52.57
2 4 -4 479.37 38.8
-2 -4 3 567.48 48.04
-2 -4 3 486.11 25.31
2 4 -3 549.24 51.15
2 4 -3 494.09 34.53
2 4 -2 -4.53 4.46
2 4 -2 4.75 7.71
-2 -4 2 5.76 4.96
-2 -4 1 4156.58 98.6
2 4 -1 4126.5 119.08
2 4 0 9999 163.36
2 4 0 9787.83 163.63
2 4 1 2641.11 72.03
2 4 1 2664.44 78.9
2 4 2 243.05 20.88
2 4 2 248.34 24.61
-2 -4 -2 195.79 14.52
-2 -4 -3 41.27 7.88
2 4 3 49.22 11.74
2 4 3 56.7 14.21
2 4 4 364.88 34.44
-2 -4 -4 388.78 29.96
2 4 4 365.85 38.14
2 4 5 473.3 37.92
-2 -4 -5 434.35 37.7
2 4 6 25.5 9.99
-2 -4 -6 18.18 10.09
2 4 6 -0.06 12.15
-2 -4 -7 208.94 32.71
2 4 7 205.36 27.69
-2 -4 -8 -0.26 9.81
2 4 8 4.61 7.96
-2 -4 -9 54.46 20.29
2 4 9 6.66 12.63
-2 -4 -10 7.24 15.03
2 4 10 7.98 8.53
-2 -4 -11 25.47 19.54
2 4 11 70.59 21.13
-2 -4 -12 79.45 28.31
2 4 12 64.75 19.14
-2 -4 -13 32.02 17.88
-2 -4 -14 -8.67 20.62
-2 -4 -15 71.26 40.16
-2 -5 11 56.88 30.37
2 5 -10 31.75 17.05
-2 -5 10 53.39 27.15
-2 -5 10 19.86 11.52
-2 -5 9 -6.5 8.58
-2 -5 9 0.37 8.88
2 5 -9 -3.47 14.2
-2 -5 8 30.05 15.36
-2 -5 8 12.56 6.27
-2 -5 7 94.36 26.58
2 5 -7 91.68 32.39
2 5 -6 3.76 11.34
-2 -5 6 -18.96 15.47
2 5 -5 60.91 22.79
-2 -5 5 62.14 21.55
2 5 -4 149.47 30.64
-2 -5 4 172.6 31.95
2 5 -3 112.32 25.2
2 5 -2 73.12 19.84
2 5 -2 82.25 20.48
-2 -5 2 68.28 13.98
2 5 -1 2344.82 99.33
2 5 -1 2229.93 97.8
-2 -5 1 2257.25 84.72
2 5 0 2325.76 94.78
2 5 0 2404.89 91.4
-2 -5 0 2522.65 90.95
2 5 0 2312.86 80.32
2 5 1 261.98 38.08
2 5 1 186.36 29.04
2 5 2 798.68 47.01
2 5 2 738.53 43.21
-2 -5 -3 -5.82 6
2 5 3 -1.87 5.95
2 5 4 220.45 35.82
-2 -5 -4 183.99 21.22
2 5 4 196.75 23.94
-2 -5 -5 85.17 18.27
2 5 5 85.17 22.45
2 5 5 90.94 17.03
-2 -5 -6 -16.36 6.22
2 5 6 15.85 13.57
-2 -5 -7 153.2 27.77
2 5 7 200.46 38.41
-2 -5 -8 2.23 12.03
-2 -5 -9 96.87 30.31
-2 -5 -10 15.06 15.47
2 5 10 -29.34 16.39
-2 -5 -11 17.15 14.32
2 5 11 23.91 15.16
-2 -5 -12 7.46 14.14
2 5 12 18.67 12.5
-2 -5 -13 27.39 21.97
-2 -5 -14 12.72 12.45
-2 -5 -15 -8.63 19.97
-2 -6 10 -4.72 11.47
-2 -6 10 -18.96 22.81
2 6 -9 42.16 28.41
-2 -6 9 23.49 14.69
-2 -6 9 9.84 16.98
-2 -6 8 180.44 41.55
2 6 -8 147.17 40.82
-2 -6 8 143.14 37.63
2 6 -7 118.05 37.54
-2 -6 7 125.88 34.15
2 6 -6 237.64 46.81
-2 -6 6 273.12 44.55
-2 -6 5 16.01 11.74
2 6 -5 7.73 8.94
2 6 -4 91.55 24.47
-2 -6 4 86.37 25.96
2 6 -3 19.8 9.81
2 6 -2 171.56 30.44
2 6 -2 129.54 30.82
-2 -6 2 157.21 31.72
2 6 -1 133.77 26.54
2 6 -1 130.02 26.05
-2 -6 1 109.05 22.66
-2 -6 0 -3.03 5.81
2 6 0 -23.57 14.01
2 6 0 -2.17 7.26
2 6 0 -5.22 9.7
2 6 1 429.15 34.73
2 6 1 412.23 44.68
2 6 1 400.05 38.73
-2 -6 -1 379.35 42.73
2 6 2 444.51 44.82
2 6 2 423.94 37.09
2 6 2 499.08 39.47
-2 -6 -2 382.08 45.27
2 6 3 64.9 18.18
2 6 3 30.14 11.08
2 6 3 36.15 15.94
-2 -6 -4 6.7 9.39
2 6 4 12.26 7.75
2 6 4 19.3 10.19
-2 -6 -5 18.72 11.17
2 6 5 11.85 14.15
2 6 5 1.65 5.36
-2 -6 -6 85.66 19.87
2 6 6 96.1 18.49
-2 -6 -7 56.11 17.04
2 6 7 68.35 15.18
2 6 8 16.04 12.87
-2 -6 -8 6.39 8.67
-2 -6 -9 477.33 58.81
2 6 9 546.1 65.65
-2 -6 -10 -12.21 14.4
2 6 10 30.68 25.25
-2 -6 -11 26.88 20.39
-2 -6 -12 196.96 47.84
-2 -6 -13 2.04 16.14
-2 -6 -13 5.4 7.03
-2 -6 -14 78.5 33.14
2 6 15 1.41 15.56
-2 -6 -15 64.18 37.85
-2 -7 9 39.23 24.4
-2 -7 9 15.56 11.77
2 7 -8 66.21 28.76
-2 -7 8 115.18 35.47
-2 -7 8 104.57 33.27
-2 -7 7 39.48 22.06
2 7 -7 21.68 21.12
-2 -7 6 52.1 19.15
2 7 -6 35.7 19.07
-2 -7 5 51.95 21.85
2 7 -5 41.4 18.36
-2 -7 4 34.49 13.88
2 7 -4 32.92 17.03
2 7 -3 45.5 16.84
2 7 -2 23.92 19.5
2 7 -2 -3.75 13.87
2 7 -1 516.72 55.55
-2 -7 1 505.08 47.19
2 7 -1 491.32 57.13
2 7 0 275.46 38.1
2 7 0 296.24 41.9
-2 -7 0 310.67 40.63
2 7 1 269.79 35.24
2 7 1 279.72 38.47
2 7 1 383.89 38.86
-2 -7 -1 296.23 39.58
2 7 2 256.57 28.82
2 7 2 255.74 33.11
2 7 2 252.51 36.64
-2 -7 -2 234.22 37.57
2 7 3 -4.75 11.22
-2 -7 -3 -7 8.99
2 7 3 7.65 10.25
2 7 3 -5.39 4.92
-2 -7 -4 44.94 18.89
2 7 4 46.32 12.44
2 7 4 25.2 10.79
2 7 4 50.95 13.94
2 7 5 -24.52 13.26
2 7 5 -0.16 11.54
2 7 5 1.07 5.06
-2 -7 -5 -3.33 6.29
-2 -7 -6 7.66 8.21
2 7 6 5.77 5.73
2 7 7 68.91 17.82
-2 -7 -7 75.85 20.73
2 7 7 42.82 14.9
-2 -7 -8 23.2 13.16
2 7 8 41.04 17.14
2 7 8 12.72 13.15
2 7 9 89.22 28.8
-2 -7 -9 80.19 24.58
-2 -7 -10 -3.56 11.28
2 7 10 -3.26 10.26
-2 -7 -11 17.43 9.89
-2 -7 -11 -16.65 15.69
2 7 11 -25.95 22.17
2 7 12 48.54 31.34
-2 -7 -12 33.57 17.71
-2 -7 -12 15.71 11.08
-2 -7 -13 4.49 15.5
2 7 13 24.25 19
-2 -7 -13 6.91 18.52
-2 -7 -14 18.69 12.97
2 7 14 57.12 25.13
-2 -7 -15 26.52 23.04
2 7 15 77.31 34.26
-2 -8 8 9.51 18.69
-2 -8 8 33.06 23.38
2 8 -7 40.89 22.7
-2 -8 7 36.43 19.02
2 8 -6 43.91 21.77
-2 -8 6 26.1 17.06
-2 -8 5 3.87 8.6
2 8 -5 16.54 15.68
-2 -8 4 15.5 20.14
2 8 -4 -3.88 12.41
2 8 -3 55.2 25.64
2 8 -2 5.71 8.14
2 8 -2 2.06 10.67
2 8 -1 322.26 46.98
2 8 -1 272.14 47.43
-2 -8 1 277.69 40.26
2 8 0 38.65 17.96
2 8 0 84.88 25.04
-2 -8 0 31.99 18.4
2 8 1 13.22 6.57
2 8 1 32.84 15.65
2 8 2 105.59 24.96
2 8 2 109.09 26.1
-2 -8 -2 98.33 23.26
2 8 2 95.4 21.63
2 8 3 63.59 17.03
-2 -8 -3 15.11 10.73
2 8 3 34.1 11.88
2 8 3 39.48 13.46
-2 -8 -4 54.78 21.7
2 8 4 41.63 14.53
2 8 4 22.93 10.73
2 8 4 32.06 13.32
2 8 5 111 27.45
-2 -8 -5 107.56 29.83
2 8 5 100.61 22.3
2 8 5 127.47 25.28
2 8 6 49.95 17.95
2 8 6 28.22 14.93
-2 -8 -6 49.94 15.08
-2 -8 -6 22.79 9.29
-2 -8 -7 77.69 21.82
2 8 7 114.85 26.88
2 8 7 91.07 23.14
-2 -8 -7 49.9 27.12
-2 -8 -8 55.15 23.07
2 8 8 15.92 7.41
-2 -8 -8 27.1 20.9
2 8 8 35.3 19.3
2 8 9 254.99 51.4
-2 -8 -9 262.99 45.21
-2 -8 -9 286.49 52.4
2 8 9 241.51 40.94
-2 -8 -10 -15.19 14.25
2 8 10 -10.75 17.22
2 8 10 -7.4 7.06
-2 -8 -11 32.79 18.48
2 8 11 48.7 26.4
-2 -8 -11 24.71 26.61
-2 -8 -12 15.84 13.02
2 8 12 14.03 11.92
-2 -8 -12 -15.66 12.35
-2 -8 -13 10.47 18.54
2 8 13 13.43 20.65
-2 -8 -13 37.68 27.27
2 8 14 127.59 45.29
-2 -8 -14 69.69 28.89
-2 -8 -15 -61.51 31.64
-2 -9 7 22.34 16.89
-2 -9 6 52.15 24.47
2 9 -6 61.98 30.47
2 9 -5 -1.41 18.88
-2 -9 5 20.84 16.94
-2 -9 4 -7.26 20
2 9 -4 16.37 25.01
2 9 -3 -7.84 15.92
2 9 -2 25.39 19.36
2 9 -2 59.36 26.06
2 9 -1 348.64 53.58
2 9 -1 277.29 51.05
2 9 0 20.66 14.8
2 9 0 18.86 6.47
-2 -9 0 21.14 13.39
2 9 1 50.91 22.61
2 9 1 44.19 17.03
-2 -9 -1 47.65 22.55
2 9 2 123.44 30.75
-2 -9 -2 128.16 35.79
2 9 2 81.63 22.2
2 9 2 74.47 19.55
2 9 3 3.97 6.46
2 9 3 17.08 11.15
2 9 3 7.38 12.45
-2 -9 -3 11.27 16.33
2 9 4 27.17 11.47
2 9 4 48.97 22.09
-2 -9 -4 51.81 23.41
2 9 4 38.83 16.1
2 9 5 18.84 10.36
-2 -9 -5 18.69 17.05
2 9 5 -7.38 9.81
2 9 5 -3.78 8.2
2 9 6 568.41 56.74
-2 -9 -6 658.94 76.56
2 9 6 567.96 55.13
2 9 7 303.65 43.21
2 9 7 311.07 45.49
-2 -9 -7 302.74 58.4
2 9 8 356.24 50.49
2 9 8 303.33 47.58
-2 -9 -8 327.36 55.98
-2 -9 -9 75.13 28.96
2 9 9 48.68 20.42
2 9 9 62.45 22.33
-2 -9 -9 34.05 23.86
-2 -9 -10 49.6 16.37
2 9 10 38.07 10.51
2 9 10 12.22 9.27
-2 -9 -10 27.22 21.41
-2 -9 -11 4.08 10
2 9 11 -4.9 7.86
-2 -9 -11 -7.89 16.67
2 9 12 -5.49 10.18
-2 -9 -12 25.77 23.75
2 9 12 -2.4 16.88
-2 -9 -12 5.94 20.09
-2 -9 -13 10.98 21.8
-2 -9 -13 5.3 21.07
2 9 13 -7.88 10.55
-2 -9 -14 7.55 13.4
-2 -9 -14 31.11 21.8
-2 -9 -15 53.26 29.27
-2 -10 5 16.88 10.99
2 10 -4 26.77 22.22
-2 -10 4 42.11 22.12
2 10 -3 45.22 25.61
2 10 -2 65.28 26.7
2 10 -1 69.37 27.05
2 10 -1 133.47 37.97
2 10 0 -15.27 18.07
2 10 0 8.33 6.9
2 10 1 -3.96 8.98
2 10 1 15.28 18.03
-2 -10 -1 -2.94 12.07
2 10 2 6.78 20.02
-2 -10 -2 -5.85 15.82
2 10 2 13.95 6.61
2 10 3 8.57 6.05
-2 -10 -3 5.62 19.12
2 10 3 2.95 10.2
2 10 4 199.32 37.35
2 10 4 215.75 41.94
-2 -10 -4 190.64 41.17
2 10 5 123.22 26.37
-2 -10 -5 152.77 39.21
2 10 5 160.67 37.63
2 10 5 164.31 34.49
-2 -10 -6 83.28 30.99
2 10 6 56.76 17.29
2 10 6 39.93 15.93
2 10 7 322.54 46.69
2 10 7 314.04 46.12
-2 -10 -7 312.85 61.8
2 10 8 183.59 38.25
-2 -10 -8 208.17 52.34
2 10 8 164.9 34.59
2 10 9 35.18 17.18
2 10 9 47.06 17
-2 -10 -9 13.7 17.89
-2 -10 -10 -21.6 31.85
2 10 10 -6.7 7.64
2 10 10 -11.53 20.05
2 10 11 12.38 8.94
-2 -10 -11 1.08 11.2
2 10 12 10.66 12.57
-2 -10 -12 -27.11 20.77
-2 -10 -13 -0.03 19.67
2 10 13 -5.68 12.58
-2 -10 -14 -9.82 15.32
2 11 -3 -6.72 15.1
-2 -11 3 -9.6 21.51
2 11 -2 19.96 7.83
2 11 -1 18.18 26.37
2 11 -1 39.59 25.33
2 11 0 49.68 28.05
2 11 0 103 34.91
2 11 1 -15.65 21.88
2 11 1 42.95 21.84
-2 -11 -2 3.23 8.16
2 11 2 -4.65 12.85
2 11 3 46.41 21.58
-2 -11 -3 41.04 23.3
2 11 3 55.88 21.02
2 11 4 -15.55 9.15
2 11 4 6.03 15.2
-2 -11 -5 18.87 15.61
2 11 5 13.69 15.85
2 11 5 20.47 13.02
-2 -11 -6 106.46 36.69
2 11 6 107.48 27.94
-2 -11 -7 43.2 25.79
2 11 7 35.67 19.05
-2 -11 -8 100.54 35.54
2 11 8 120.22 33.27
2 11 9 -2.86 11.94
-2 -11 -9 13.07 14.38
-2 -11 -10 19.67 26.31
2 11 10 36.56 17.81
-2 -11 -11 15.42 23.32
2 11 11 29.24 21.64
-2 -11 -12 5.72 20.67
2 11 12 20.21 10.08
2 11 13 90.64 34.26
-2 -11 -13 172.57 56.92
2 12 0 1.48 12.54
2 12 1 19.8 16.96
2 12 2 54.79 16.44
-2 -12 -2 57.89 28.82
2 12 3 34.17 24.24
-2 -12 -3 39.2 22.71
-2 -12 -4 -1.77 11.53
2 12 4 37.42 21.64
-2 -12 -5 18.79 13.21
2 12 5 -3.72 11.83
-2 -12 -6 47.61 24.75
-2 -12 -7 -8.86 13.31
-2 -12 -8 30.71 26.16
-2 -12 -9 -17.18 33.24
-2 -12 -10 2.47 11.9
-2 -12 -11 -4.13 13.63
-2 -12 -12 -11.26 23.09
-2 -13 -3 38.64 31.67
2 13 3 45.09 24.77
2 13 4 21.76 27.91
-2 -13 -4 35.71 28.93
2 13 5 -17.37 15.92
-2 -13 -5 -17.63 17.19
-2 -13 -6 10.28 14.04
-2 -13 -7 108.69 42.13
-2 -13 -8 142.25 46.58
-2 -13 -9 24.78 22.62
-2 -13 -10 12.45 28.32
3 -12 -9 9.04 15.36
-3 12 9 81.5 36.16
3 -12 -8 -6.51 11.26
-3 12 8 -16.96 8.52
3 -12 -7 1.26 14.06
-3 12 7 -8.93 8.08
3 -12 -6 -19.69 17.59
-3 12 6 10.02 18.66
3 -12 -5 17.85 12.76
-3 12 5 28.13 14.89
-3 12 4 20.93 18.27
3 -12 -4 32.17 19.54
-3 12 3 -2.52 19.16
3 -12 -3 -23.28 21.53
-3 12 2 33.71 20.43
3 -12 -2 72.75 27.08
-3 12 1 -28.17 23.05
3 -12 -1 25.21 18.81
-3 12 0 62.33 31.05
3 -12 0 49.39 29.47
3 -11 -11 -2.88 18.31
3 -11 -10 -14.08 8.77
-3 11 10 -7.05 9.15
-3 11 9 11.26 12.09
3 -11 -9 11.65 22.98
3 -11 -8 21.39 23.71
-3 11 8 0.67 13.79
3 -11 -7 -1.41 16.7
-3 11 7 16.17 16.9
-3 11 6 -2.38 9.68
3 -11 -6 2.95 13.67
3 -11 -5 120.49 40.54
-3 11 5 138.11 39.81
3 -11 -4 18.49 13.01
-3 11 4 31.37 19.04
-3 11 3 14.12 13.93
3 -11 -3 14.25 11.63
-3 11 2 0.5 12.77
3 -11 -2 1.38 15.04
-3 11 1 3.6 13.48
3 -11 -1 22.14 17.82
-3 11 0 254.31 58.77
3 -11 0 180.33 41.86
-3 11 -1 0.98 10.76
3 -11 1 36.22 26.12
-3 11 -2 59.05 21.93
-3 11 -3 6.46 17.46
-3 10 12 19.76 11.52
3 -10 -11 24.51 16.42
-3 10 11 -2.33 8.18
-3 10 10 15.78 10.96
3 -10 -10 -47.58 24.13
3 -10 -9 17.78 27.55
-3 10 9 24.38 10.6
-3 10 8 23.53 20.57
3 -10 -8 -9.23 12.11
3 -10 -7 307.51 81.7
-3 10 7 -23.71 20.11
3 -10 -6 -12.6 20.81
-3 10 6 -12.82 13.95
-3 10 5 119.91 33.19
3 -10 -5 73.13 28.22
3 -10 -4 94.66 36.22
-3 10 4 78.1 26.92
3 -10 -3 3.93 8.85
-3 10 3 -10.53 8.45
-3 10 2 101.34 31.35
3 -10 -2 38.62 22.21
3 -10 -1 276.9 49.9
-3 10 1 302.56 57.04
-3 10 0 577.29 80.72
-3 10 0 556.81 65.28
3 -10 0 565.54 72.32
-3 10 -1 145.17 42.75
-3 10 -1 147.88 33.35
3 -10 1 147.96 38.26
-3 10 -2 -8.04 18.08
-3 10 -2 16.71 10.61
3 -10 2 13.22 15.96
-3 10 -3 31.8 17.38
-3 10 -3 50.41 18.28
-3 10 -4 16.62 9.6
-3 10 -4 42.49 34.69
-3 10 -5 62.01 24.97
-3 10 -5 57.24 31
-3 9 12 4.58 15.39
-3 9 11 17.16 11.04
3 -9 -11 11.31 10.1
3 -9 -10 32.63 24.44
-3 9 10 66.82 34.25
3 -9 -9 38.41 24.58
-3 9 9 31.65 22.85
3 -9 -8 40.44 24.02
-3 9 8 15.67 14.82
3 -9 -7 188.83 48.58
-3 9 7 23.98 14.82
-3 9 6 161.14 37.38
3 -9 -6 170.9 41.33
-3 9 5 33.81 16.8
3 -9 -5 52.98 22.32
-3 9 4 -5.44 8.51
3 -9 -4 2.05 15.56
-3 9 3 18.04 16.16
3 -9 -3 6.62 10.33
-3 9 3 -4.52 9.77
-3 9 2 198.44 33.78
3 -9 -2 188.41 36.66
-3 9 2 228.64 44.78
-3 9 1 157.88 37.53
-3 9 1 160 32.35
3 -9 -1 153.1 36.31
-3 9 0 82.39 29.09
-3 9 0 100.6 24.59
3 -9 0 135.13 35.9
-3 9 -1 255.41 52.95
-3 9 -1 247.13 41.57
3 -9 1 303.37 49.67
-3 9 -2 133.77 38.64
-3 9 -2 129.29 32.23
3 -9 2 114.67 32.06
-3 9 -3 23.68 14.24
-3 9 -3 16.32 10.62
3 -9 3 39.59 16.86
-3 9 -4 132.39 46.79
-3 9 -4 145.83 38.55
-3 9 -5 44.68 32.44
-3 9 -5 35.65 18.71
-3 9 -6 195.53 45.87
-3 8 13 14.98 12.87
3 -8 -13 -20.3 26.18
3 -8 -12 -0.55 17.59
-3 8 12 13.58 19.96
-3 8 11 10.08 15.23
-3 8 11 -0.99 16.05
-3 8 10 71.18 28.02
-3 8 10 52.54 26.14
3 -8 -10 53.58 25.58
-3 8 9 9.37 12.72
-3 8 9 35.68 24.37
3 -8 -9 9.71 18.95
-3 8 8 37.98 24.48
-3 8 8 20.93 13.01
3 -8 -8 58.13 23.69
-3 8 7 31.93 18.47
-3 8 7 17.04 15.34
3 -8 -7 5.93 15.32
-3 8 6 45.85 18.46
3 -8 -6 37.59 22.51
3 -8 -5 -1 13.63
-3 8 5 47.77 22.38
-3 8 4 106.78 26.54
3 -8 -4 88.39 28.47
-3 8 3 39.9 19.02
-3 8 3 27.91 9.95
3 -8 -3 3.35 7.95
-3 8 2 -0.72 7.58
-3 8 2 -1.01 5.52
-3 8 1 -1.85 12.57
3 -8 -1 -7.69 9.06
-3 8 1 -15.26 16.86
3 -8 0 34.59 18.78
-3 8 0 20.23 12.24
-3 8 0 14.86 10.4
-3 8 -1 147.69 30.09
-3 8 -1 158.8 37.58
3 -8 1 165.61 33.16
3 -8 2 13.55 10.52
-3 8 -2 -18.7 16.85
-3 8 -2 -11.66 8.24
-3 8 -3 367.31 62.77
-3 8 -3 367.89 51.71
3 -8 3 376.11 51.2
-3 8 -4 172.84 47.2
-3 8 -4 200.1 39.23
3 -8 4 196.11 38.35
-3 8 -5 -2.42 16.03
-3 8 -5 195.66 49.61
-3 8 -6 13.53 13.52
-3 8 -6 36.93 30.28
3 -8 6 -3.06 10.42
-3 8 -7 -11.49 15.86
3 -7 -13 26.72 11.05
-3 7 13 -5.03 11.01
3 -7 -12 54.19 31.07
-3 7 12 70.71 29.82
3 -7 -11 33.34 28.2
-3 7 11 5.79 12.02
-3 7 11 56.45 24.08
-3 7 10 23.21 21.13
3 -7 -10 -1.47 11.3
3 -7 -10 20.58 25.81
3 -7 -9 52.26 21.27
3 -7 -9 33.95 16.75
-3 7 9 55.79 22.32
-3 7 9 83.34 29.55
-3 7 8 80.5 27.3
-3 7 8 71.6 20.43
3 -7 -8 68.42 28.15
-3 7 7 43.17 20.6
-3 7 7 22.7 14.65
3 -7 -7 28.44 12.52
-3 7 6 24.97 16.24
-3 7 6 -4.34 9.84
3 -7 -6 17.07 19.82
-3 7 5 0.14 7.79
-3 7 5 -3.14 12.33
3 -7 -5 5.29 12.61
-3 7 4 60.04 20.35
3 -7 -4 60.14 25.76
-3 7 3 -4.44 8.43
3 -7 -3 -17.78 12.66
-3 7 3 13.94 12.36
3 -7 -2 72.21 24.59
-3 7 2 72.29 18.37
-3 7 2 60.93 19.64
-3 7 1 43.03 10.07
3 -7 -1 58.21 20.64
-3 7 1 35.51 15.19
-3 7 0 15.03 8.47
3 -7 0 34.94 17.31
-3 7 0 25.32 19.66
-3 7 -1 -4.94 5.66
-3 7 -1 12.92 7.73
3 -7 1 -2.04 6.02
-3 7 -2 401.03 58.18
-3 7 -2 401.62 47.19
3 -7 2 430.57 50.86
-3 7 -3 19.24 9.84
3 -7 3 17.58 12.77
-3 7 -3 21.69 17.95
-3 7 -4 35.74 19.34
-3 7 -4 26 21.91
-3 7 -4 14.62 10.82
3 -7 4 4.33 9.27
-3 7 -5 14.95 14.25
3 -7 5 -14.37 12.42
-3 7 -5 21.2 10.91
-3 7 -5 -19.7 14.53
3 -7 6 42.41 25.6
-3 7 -6 22.55 15.98
-3 7 -6 16.94 12.85
-3 7 -7 31.54 18.5
-3 7 -8 1.19 11.51
-3 7 -9 63.79 26.99
-3 6 14 10.14 11.98
3 -6 -14 -35.62 37.35
3 -6 -13 20.13 18.64
-3 6 13 -22.52 23.97
3 -6 -12 2.36 13.87
-3 6 12 10.07 14.01
3 -6 -11 5.55 10.97
-3 6 11 30.59 17.94
-3 6 11 -20.06 21.87
3 -6 -10 21.45 17.13
-3 6 10 44.1 20.59
-3 6 10 45.97 20.97
-3 6 9 253.82 42.05
3 -6 -9 269.73 42.2
-3 6 9 262.2 48.84
3 -6 -9 256.13 51.94
3 -6 -8 33.22 19.1
3 -6 -8 44.92 24.72
-3 6 8 42.92 21.37
-3 6 8 18.68 15.71
-3 6 7 84.3 23.52
3 -6 -7 119.95 31.56
-3 6 7 99.56 28.12
-3 6 6 -0.58 7.75
3 -6 -6 5.92 20.11
-3 6 6 -12.12 9.03
-3 6 5 84.05 25.37
-3 6 5 63.15 18.54
3 -6 -5 45.23 16.58
-3 6 4 79.15 21.58
3 -6 -4 48.11 17.11
-3 6 3 39.28 9.87
-3 6 3 47.04 19.56
-3 6 3 46.48 18.24
3 -6 -3 21.4 11.96
-3 6 2 -4.32 9.16
-3 6 2 4.31 5.86
-3 6 1 23.45 12.73
-3 6 1 12.16 8.92
3 -6 -1 3.13 7
-3 6 0 131.55 20.97
3 -6 0 162.54 30.81
-3 6 0 132.1 25.47
-3 6 -1 -1.79 6.09
3 -6 1 7.98 10.78
-3 6 -1 -3.41 7.11
-3 6 -2 97.54 27.05
-3 6 -2 122.94 26.46
3 -6 2 128.51 25.6
-3 6 -3 32.71 21.72
-3 6 -3 1.81 6.52
3 -6 3 18.34 9.07
-3 6 -4 297.39 52.84
-3 6 -4 347.73 44.61
3 -6 4 338.26 42.72
-3 6 -4 325.52 40.74
-3 6 -5 631.02 65.05
-3 6 -5 507.75 76
3 -6 5 614.92 59.41
-3 6 -5 561.38 57.79
-3 6 -6 43.48 23.45
3 -6 6 56.78 20.57
-3 6 -6 65 21.56
-3 6 -6 41.74 13.6
-3 6 -7 81.06 26.47
-3 6 -7 59.13 22.92
3 -6 7 58.79 17.75
-3 6 -8 -2.19 11.18
-3 6 -9 26.29 23.72
-3 6 -10 6.21 10.61
3 -5 -14 -24.83 31.21
-3 5 14 -1.1 19.81
3 -5 -13 59.3 36.13
-3 5 13 13.51 21.68
3 -5 -12 186.01 50
-3 5 12 167.29 40.88
3 -5 -11 18.6 13.72
-3 5 11 0.52 9.23
-3 5 11 -7.72 19.63
-3 5 10 -2.63 12.79
-3 5 10 -2.09 14.42
3 -5 -10 -12.71 17.19
3 -5 -9 256.87 50.99
-3 5 9 245.77 38.93
-3 5 9 251.99 45.29
3 -5 -9 241.08 38.29
3 -5 -8 286.04 45.59
3 -5 -8 335.27 54.09
-3 5 8 304.02 42.01
-3 5 8 323.3 47.04
-3 5 7 6.11 11.88
3 -5 -7 19.57 12.33
3 -5 -7 12.96 13.46
-3 5 7 11.86 8.08
3 -5 -6 350.67 48.11
-3 5 6 342.22 45.09
3 -5 -6 347.8 44.52
-3 5 6 301.72 39.91
-3 5 5 37.13 13.24
-3 5 5 28.36 15.56
-3 5 5 16.36 9.74
3 -5 -5 -5.41 11.76
-3 5 4 17.51 13.64
3 -5 -4 29.56 21.29
-3 5 4 50.7 27.47
-3 5 3 124.69 25.44
-3 5 3 123.81 25.65
3 -5 -3 72.27 23.03
-3 5 2 195.75 22.54
-3 5 2 223.25 33.37
3 -5 -2 152.38 31.21
-3 5 2 217.82 31.94
-3 5 1 86.12 15.84
-3 5 1 138.49 26.3
3 -5 -1 134.26 25.94
3 -5 0 73.06 18.22
-3 5 0 61.24 13.58
-3 5 0 80.58 20.09
-3 5 -1 -0.63 10.82
-3 5 -1 7.41 8.04
3 -5 1 2.61 8.03
-3 5 -2 97.21 24.38
-3 5 -2 88.08 18.61
3 -5 2 84.67 20.08
-3 5 -3 90.15 26.08
3 -5 3 122.01 25.21
-3 5 -3 110.76 22.39
-3 5 -4 266.46 46.76
3 -5 4 282.35 38.45
-3 5 -4 294.78 38.87
-3 5 -5 188.74 30.43
-3 5 -5 144.88 27.83
-3 5 -5 125.03 35.53
3 -5 5 159.99 28.47
-3 5 -6 41.85 17.75
-3 5 -6 16.05 19.78
3 -5 6 34.09 17.22
-3 5 -6 32.62 13.85
3 -5 6 39.8 15.41
-3 5 -7 31.14 16.35
3 -5 7 52.3 15.28
-3 5 -7 34.84 16.69
-3 5 -8 20.7 12.65
-3 5 -8 31.28 20.24
-3 5 -9 117.33 37.14
-3 5 -9 139.91 35.82
-3 5 -10 35.7 11.86
-3 5 -11 -3.56 14.11
3 -4 -14 87.29 40.91
-3 4 14 93.02 35.72
3 -4 -13 20.56 21.88
-3 4 13 22.63 14.76
3 -4 -12 -7.18 11.09
-3 4 12 -24.29 16.08
-3 4 11 28.31 16.71
3 -4 -11 -0.41 17.28
-3 4 11 -3.27 11.77
3 -4 -10 26.56 20.57
-3 4 10 13.86 7.75
-3 4 10 22.49 20.67
-3 4 9 20.68 7.03
3 -4 -9 30.54 24.98
-3 4 9 10.87 10.01
-3 4 8 50.46 19.36
-3 4 8 43 17.15
3 -4 -8 80.21 24.71
3 -4 -8 41.6 21.79
-3 4 7 119.67 25.65
3 -4 -7 150.12 32.65
-3 4 7 168.84 33.22
3 -4 -7 141.45 25.42
-3 4 6 12.52 7.72
-3 4 6 0.15 10.4
3 -4 -6 -13.11 10.07
3 -4 -6 4.88 5.11
3 -4 -6 9.91 8.27
-3 4 5 212.8 31.29
3 -4 -5 236.47 37.45
-3 4 5 223.26 32.66
3 -4 -5 196.47 30.39
-3 4 4 52.37 16.13
-3 4 4 61.91 13.69
-3 4 3 22.76 16.45
-3 4 3 16.17 9.16
-3 4 3 32.15 14.46
3 -4 -3 -2.81 11
3 -4 -2 117.09 20.95
-3 4 2 166.3 25.89
-3 4 2 141.65 22.89
-3 4 2 123.52 15.52
-3 4 1 -14.71 11.21
-3 4 1 -3.88 5.91
-3 4 1 -2.5 7.57
3 -4 -1 2.3 16.44
3 -4 0 112.7 23.79
-3 4 0 119.66 16.98
-3 4 0 112.4 21.64
-3 4 -1 -4.8 6.36
3 -4 1 -0.82 5.59
-3 4 -1 4.19 9.79
-3 4 -2 351.05 40.42
-3 4 -2 341.86 33.72
3 -4 2 276.1 35.25
-3 4 -3 122.47 26.49
-3 4 -3 105.17 22.81
3 -4 3 112.56 21.36
-3 4 -4 1.84 7.13
3 -4 4 21.38 13.58
-3 4 -5 128.2 35.43
3 -4 5 122.38 24.5
-3 4 -5 158.97 28.72
-3 4 -6 107.78 23.72
-3 4 -6 60.98 26.57
3 -4 6 91.9 19.7
3 -4 7 7.46 5.44
-3 4 -7 38.67 16.24
-3 4 -8 170.66 35.82
3 -4 8 177.34 30.41
-3 4 -9 174.31 41.44
-3 4 -10 3.36 14.17
-3 4 -11 -19.66 20.83
3 -3 -14 21.95 23.93
-3 3 14 16.65 23.27
-3 3 13 31.09 20.67
3 -3 -13 57.33 15.1
3 -3 -12 100.19 35.92
-3 3 12 59.56 16.98
-3 3 11 1.41 12.14
-3 3 11 8.91 8.27
3 -3 -11 23.88 19.77
-3 3 10 -0.78 10.44
3 -3 -10 20.13 14.59
-3 3 10 -1.93 12.72
-3 3 9 56.69 19.72
-3 3 9 72.64 21.84
3 -3 -9 99.19 31.85
-3 3 8 212.21 34.85
3 -3 -8 219.06 41.78
-3 3 8 197.84 36.88
-3 3 7 545.8 55.47
-3 3 7 443.21 46.98
3 -3 -7 545.39 47.26
3 -3 -7 520.76 60.51
-3 3 6 91.04 22
3 -3 -6 83.38 14.42
3 -3 -6 147.47 31.28
-3 3 6 107.13 24.28
3 -3 -6 102.33 22.35
-3 3 5 235.61 31.87
3 -3 -5 255.02 25.43
3 -3 -5 252.58 37.72
-3 3 5 240.79 30.86
3 -3 -5 284.27 33.14
3 -3 -4 95.84 22.95
-3 3 4 64.91 16
-3 3 4 101.18 20.43
3 -3 -4 73.55 16.33
-3 3 3 9.97 9.54
-3 3 3 -0.05 8.43
3 -3 -2 80.84 18.3
-3 3 2 77.3 16.94
-3 3 2 79.22 17.33
-3 3 2 83.96 17.3
-3 3 1 -2.73 4.21
-3 3 1 11.77 11.27
-3 3 1 8.31 8.98
3 -3 -1 5.67 7.51
3 -3 0 36.77 14.29
-3 3 0 34.47 9.63
-3 3 0 29.41 9.32
-3 3 0 21.67 8.65
-3 3 -1 23.76 6.32
3 -3 1 26.06 10.67
-3 3 -1 37.27 12.56
-3 3 -2 4.22 7.25
3 -3 2 38.16 14.66
-3 3 -3 -7.96 10.85
3 -3 3 1.45 2.91
3 -3 3 16.77 11.12
3 -3 4 11.26 5.85
3 -3 4 6.58 6.51
-3 3 -5 8.45 9.52
3 -3 5 20.07 9.05
-3 3 -5 27.68 12.51
-3 3 -6 -11.32 17.16
3 -3 6 -0.62 5.95
-3 3 -6 -12.91 15.99
-3 3 -7 233.61 37.75
3 -3 7 271.36 30.97
3 -3 8 435.13 42.75
-3 3 -8 538.1 63.23
-3 3 -9 72.79 24.96
-3 3 -10 -4.58 15.02
-3 3 -11 24.43 20.88
-3 3 -12 34.64 15.69
-3 3 -13 -4.43 12.65
-3 2 14 -4.77 20.86
3 -2 -14 -13.15 21.92
-3 2 13 -27 25.25
3 -2 -13 -17.09 21.23
-3 2 12 31.62 20.59
3 -2 -12 12.19 21.08
-3 2 11 21 17.42
-3 2 11 19.21 16.76
3 -2 -11 49.03 28.49
-3 2 10 7.93 9.97
-3 2 10 14.83 13.63
3 -2 -10 8.92 15.23
-3 2 9 96.09 26.15
3 -2 -9 74.4 24.04
-3 2 9 122.52 32.03
-3 2 8 748.1 66.96
-3 2 8 709.14 61.04
3 -2 -8 817.19 80.12
-3 2 7 47.97 17.82
-3 2 7 43.76 15.73
3 -2 -7 27.91 15.68
3 -2 -7 35.39 8.69
-3 2 6 728.83 58.56
3 -2 -6 692.48 40.05
-3 2 6 709.73 54.65
3 -2 -6 742.7 46.43
3 -2 -6 785.7 66.68
-3 2 5 263.75 32.36
3 -2 -5 275.74 25.94
3 -2 -5 313.22 29.89
-3 2 5 238.11 30.16
3 -2 -5 328.86 42.06
3 -2 -4 153.27 19.23
-3 2 4 127.41 21.24
3 -2 -4 148.52 27.13
3 -2 -4 167.1 22.59
-3 2 4 141.6 23.37
-3 2 3 398.36 34.5
3 -2 -3 415.43 31
3 -2 -3 376.58 33.11
-3 2 3 387.09 34.09
3 -2 -3 429.92 42.23
-3 2 2 217.29 25.63
3 -2 -2 255.83 25.81
-3 2 2 234.22 24.25
-3 2 1 1820.76 70.78
-3 2 1 1801.04 66.78
3 -2 -1 1723.55 67.31
-3 2 1 1786.41 71.37
-3 2 0 211.48 23.88
-3 2 0 168.97 12.42
3 -2 0 213.07 23.24
-3 2 0 213.29 25.94
-3 2 -1 274.86 27.31
3 -2 1 309.6 28.02
-3 2 -1 333.91 32.6
3 -2 2 2211.41 45.18
-3 2 -2 2221.99 80.55
3 -2 2 2281.01 79.61
-3 2 -3 140.05 24.18
3 -2 3 155.92 14.58
3 -2 3 161.23 23.42
-3 2 -4 78.96 21.73
3 -2 4 73.62 13.29
3 -2 4 84.53 18.11
3 -2 5 69.78 13.32
-3 2 -5 59.41 15.44
-3 2 -5 101.7 22.62
-3 2 -6 6.75 11.63
3 -2 6 2.51 6.68
3 -2 7 703.04 45.46
-3 2 -7 730.42 65.87
-3 2 -8 171.55 35.49
3 -2 8 144.31 23.18
-3 2 -9 30.3 17.65
-3 2 -10 5.66 14.87
-3 2 -11 -4.43 11.36
-3 2 -12 -0.9 17.75
-3 2 -13 33.7 25.3
3 -1 -14 46.66 26.94
3 -1 -13 -0.55 23.14
-3 1 13 33.1 24.24
3 -1 -12 22.8 16.66
-3 1 12 18.76 16.9
3 -1 -11 99.17 34.49
-3 1 11 114.47 29.59
-3 1 11 126.04 35.18
-3 1 10 -16.34 12.79
3 -1 -10 -4.23 11.12
-3 1 10 -17.87 16.1
3 -1 -9 163.52 34.87
-3 1 9 188.97 37.64
-3 1 9 149.66 29.47
-3 1 8 524.3 54.26
-3 1 8 480.02 54.63
3 -1 -8 597.49 67.56
-3 1 7 63.37 16.74
3 -1 -7 95.31 24.85
-3 1 7 65.38 17.58
-3 1 6 98.05 19.82
3 -1 -6 109.88 25.13
-3 1 6 108.26 21.73
3 -1 -6 75.09 14.56
3 -1 -6 102.6 12.94
-3 1 5 2.54 8
-3 1 5 8.16 10.09
3 -1 -5 17.84 15.58
3 -1 -5 10.66 5.85
3 -1 -5 7.55 5.17
3 -1 -4 204.34 22.68
3 -1 -4 194.61 32.99
-3 1 4 180.93 27.04
-3 1 4 188.58 26.06
-3 1 3 68.09 14.13
3 -1 -3 99.29 16.96
3 -1 -3 70.69 17.84
-3 1 3 64.25 12.13
3 -1 -3 76.31 12.49
-3 1 2 419.39 31.39
3 -1 -2 434.14 28.39
3 -1 -2 446.6 31.61
-3 1 2 395.97 32.13
-3 1 1 -4.58 6.98
3 -1 -1 -3.51 7.59
3 -1 -1 -1.38 5.8
-3 1 1 0.25 6.15
-3 1 0 20.63 6.46
-3 1 0 16.73 6.66
-3 1 0 20.05 6.09
3 -1 0 25.55 8.41
-3 1 -1 210.37 20.62
3 -1 1 223.29 17.09
3 -1 1 227.26 22.01
-3 1 -1 212.24 22.69
3 -1 2 38.3 6.82
-3 1 -2 47.5 11.45
-3 1 -2 48.45 11.1
3 -1 2 46.82 11.99
3 -1 3 13.33 5.53
-3 1 -3 7.39 6.36
3 -1 3 4.95 5.77
-3 1 -4 77.48 17.74
3 -1 4 91.07 16.82
3 -1 4 92.75 10.84
3 -1 5 17.16 5.05
-3 1 -5 23.29 9.06
-3 1 -5 19.87 13.45
3 -1 6 4.37 8.15
-3 1 -6 5.85 6.59
-3 1 -7 28.32 14.66
3 -1 7 21.11 5.84
3 -1 7 20.48 6.84
-3 1 -8 57.7 23.65
3 -1 8 48.74 13.82
3 -1 9 319.07 34.53
-3 1 -9 313.54 48.97
-3 1 -10 4.67 9.63
-3 1 -11 -11.45 13.91
-3 1 -12 -0.36 15.79
-3 1 -13 -15.36 16.01
-3 1 -14 0.05 16.06
-3 0 13 -9.56 15.09
3 0 -13 -36.73 34.92
-3 0 12 23.37 15.86
3 0 -12 53.64 35.29
-3 0 11 15.39 9.48
3 0 -11 43.42 25.52
-3 0 11 72.81 26.92
-3 0 10 41.51 18.07
-3 0 10 17.55 15.24
3 0 -10 27.22 25.97
3 0 -9 122.36 39.24
-3 0 9 103.53 28.18
-3 0 9 101.21 27.21
-3 0 8 46.33 18.63
-3 0 8 32.55 13.58
3 0 -8 40.89 20.02
3 0 -7 15.8 11.44
-3 0 7 10.76 7.69
-3 0 7 21.72 9.16
-3 0 6 13.57 10.63
3 0 -6 -7.64 6.42
3 0 -6 24.11 14.13
3 0 -6 5.87 6.26
-3 0 6 8.62 7.95
3 0 -5 89.43 23.67
-3 0 5 115.59 20.94
-3 0 5 110.68 21.33
3 0 -5 119.93 13.71
3 0 -5 101.86 16.92
3 0 -4 -3.06 5.77
3 0 -4 11.84 10.58
-3 0 4 -3.93 6.29
3 0 -4 -2.88 2.46
-3 0 4 11.4 6.85
3 0 -3 176.17 16.01
-3 0 3 189.66 23
3 0 -3 179.74 22.05
3 0 -3 196.85 29.01
-3 0 3 192.68 24.93
-3 0 2 646.36 37.92
-3 0 2 619.1 39.17
3 0 -2 708.44 30.9
3 0 -2 706.82 40.32
3 0 -2 695.71 47.82
3 0 -1 7.89 5.41
3 0 -1 7.12 3.88
-3 0 1 -4.46 6.23
-3 0 1 0.23 4.01
3 0 -1 6.69 4.25
3 0 0 1984.63 58.26
-3 0 0 2037.81 49.03
3 0 0 2067.44 65.86
-3 0 0 1945.06 58.23
-3 0 -1 320.23 16.37
3 0 1 301.38 22.14
3 0 1 295.23 22.89
-3 0 -1 275.74 18.64
3 0 1 279.96 25.56
-3 0 -1 277.22 21.58
3 0 2 68.91 10.57
-3 0 -2 60.37 9.43
-3 0 -2 83.42 11.3
3 0 2 64.73 12.27
3 0 3 3418.5 82.53
-3 0 -3 3291.45 83.18
3 0 4 597.77 20.2
-3 0 -4 686.13 44.62
3 0 4 624.11 41.69
-3 0 -5 107.56 22.46
3 0 5 109.02 11.99
-3 0 -6 68.45 20.36
3 0 6 61.58 11.5
3 0 6 57.62 11.34
3 0 7 -0.05 4.12
-3 0 -7 -7.96 12.11
-3 0 -8 76.11 23.22
3 0 8 76.21 16.67
-3 0 -9 56.36 20.81
3 0 9 44.7 11.67
-3 0 -10 2.9 12.58
-3 0 -11 67.78 26.59
-3 0 -12 44.45 18.08
-3 0 -13 61.47 29.51
-3 0 -14 -4.41 23.39
-3 -1 13 19.41 23.74
3 1 -12 34.8 22.46
-3 -1 12 26.34 15.81
-3 -1 11 -3.96 6.45
-3 -1 11 13.32 16.16
3 1 -11 19.35 16.21
-3 -1 10 51.99 19.72
3 1 -10 79.97 28.54
-3 -1 10 93.12 27.28
-3 -1 9 56.37 19.78
-3 -1 9 98.34 26.26
3 1 -9 94.14 29.68
3 1 -8 19.33 7.7
-3 -1 8 27.88 14.63
-3 -1 8 9.6 6.67
3 1 -7 54.78 16.26
-3 -1 7 45.64 19.62
-3 -1 7 52.16 17.73
3 1 -6 37.24 18.4
-3 -1 6 21.1 12.25
-3 -1 6 28.32 13.83
3 1 -5 -5.3 5.28
3 1 -5 5.82 4.54
-3 -1 5 -4.41 8.07
-3 -1 5 -6.12 6.16
3 1 -5 -4.96 10.74
3 1 -4 13.49 8.79
3 1 -4 -3.9 8.52
3 1 -4 22.25 7.97
-3 -1 4 15.1 12.39
-3 -1 4 11.71 9.2
3 1 -3 93.49 17.4
3 1 -3 78.45 12.36
3 1 -3 93.94 18.76
-3 -1 3 94.73 15.99
-3 -1 3 91.39 18.26
3 1 -2 144.9 20.08
-3 -1 2 135.06 19.39
3 1 -2 189.09 19.27
3 1 -2 166.65 23.62
3 1 -2 181.42 19.41
-3 -1 2 155.09 21.89
-3 -1 1 5.7 6.61
3 1 -1 -0.38 9.7
3 1 -1 6.17 6.96
-3 -1 1 -2.04 11.98
3 1 -1 2.82 4.9
3 1 0 165.52 14.31
-3 -1 0 176.89 15.16
3 1 0 177.9 21.07
-3 -1 0 173.69 18.16
3 1 1 174.55 18.86
-3 -1 -1 178.72 12.53
3 1 1 165.2 14.55
-3 -1 -1 154.4 14.74
3 1 2 1015.15 45.35
-3 -1 -2 941.48 25.85
-3 -1 -2 1000.09 31.96
3 1 3 743.12 41.74
3 1 3 757.69 37.47
3 1 3 706.83 37.44
-3 -1 -3 811.33 25.25
3 1 4 906.75 42.32
3 1 4 912.38 42.52
3 1 4 934.79 52.24
-3 -1 -4 921.19 52.3
-3 -1 -5 185.28 26.57
3 1 5 170.26 15.04
3 1 5 156.9 18
3 1 5 153.32 18.13
3 1 5 183.94 25.11
3 1 6 15.53 6.87
-3 -1 -6 19.84 12.71
3 1 6 21.71 8.88
3 1 6 45.26 13.37
3 1 7 18.25 7.37
-3 -1 -7 5.38 7.72
3 1 7 12.88 4.58
3 1 7 9.52 5.79
-3 -1 -8 19.82 15.99
3 1 8 12.74 6.1
-3 -1 -9 29.6 13.9
3 1 9 38.44 11.34
-3 -1 -10 21.03 16.87
-3 -1 -11 -9.25 15.36
-3 -1 -12 86.87 31.53
-3 -1 -13 13.93 11.21
-3 -1 -14 -17.28 26.95
-3 -1 -15 34.86 31.41
3 2 -12 39.06 13.93
-3 -2 12 14.66 20.64
-3 -2 11 -15.26 18.41
3 2 -11 10.61 21.1
-3 -2 11 11.79 6.92
3 2 -10 -6.44 20.08
-3 -2 10 16.67 8.19
-3 -2 10 -0.44 8.32
-3 -2 9 65.67 25.14
3 2 -9 58.07 25.55
-3 -2 9 44.07 20.82
3 2 -8 37.22 18.75
-3 -2 8 25.28 14.82
-3 -2 8 45.41 18.96
-3 -2 7 -1.25 7.06
3 2 -7 0.69 12.06
-3 -2 7 6.79 7.87
3 2 -6 109.9 25.65
-3 -2 6 115.55 25.77
-3 -2 6 123.22 25.18
3 2 -5 -8.13 7.1
3 2 -5 -4.18 10.83
-3 -2 5 -0.7 6.28
-3 -2 5 2.25 6.73
3 2 -4 74.11 18.5
3 2 -4 93.63 16.29
-3 -2 4 82.6 18.31
-3 -2 4 90.04 19.56
3 2 -4 110.8 21.97
3 2 -4 69.18 16.26
3 2 -3 -10.95 7.95
3 2 -3 -2.06 4.58
-3 -2 3 4.26 11.82
-3 -2 3 8.08 7.67
3 2 -3 2.08 7.61
3 2 -3 18.27 10.56
3 2 -2 1830.02 64.25
-3 -2 2 1794.99 69.97
3 2 -2 1884.21 70.08
3 2 -2 1760.71 74.22
-3 -2 2 1725.28 73.27
3 2 -2 1909.34 68.05
-3 -2 1 154.68 17.56
3 2 -1 184.62 23.46
3 2 -1 171.85 20.62
3 2 -1 192.86 21.83
3 2 0 4740.24 93.97
3 2 0 4800.98 111.51
-3 -2 0 4719.52 91.87
3 2 1 2751.03 71.76
3 2 1 2891.09 83.23
3 2 2 490.66 31.88
-3 -2 -2 477.09 24.77
3 2 2 486.9 33.71
3 2 3 226.24 22.69
-3 -2 -3 227.37 12.81
-3 -2 -3 213.8 21.17
3 2 4 562.92 33.99
3 2 4 541.73 35.75
-3 -2 -4 535.01 39.42
-3 -2 -5 11.39 6.28
3 2 5 8.16 6.44
3 2 5 3.79 5.55
3 2 6 262.11 23.49
3 2 6 277.29 25.38
3 2 6 312.74 35.71
-3 -2 -6 247.57 32.33
3 2 6 255.37 21.91
-3 -2 -7 171 29.79
3 2 7 193.56 24.22
3 2 7 179.61 17.42
3 2 7 174.99 19.93
3 2 8 -1.27 5.89
3 2 8 -1.12 5.13
-3 -2 -9 48.73 22.98
3 2 9 36.75 12.73
-3 -2 -10 24.67 13.93
3 2 10 34.53 12.86
-3 -2 -11 14.51 8.68
-3 -2 -12 -13.33 12.78
-3 -2 -13 5.57 9.79
-3 -2 -14 92.63 36.64
-3 -2 -15 -16.76 17.74
-3 -3 12 34.8 21.09
-3 -3 11 -5.05 8.27
-3 -3 11 -1.52 6.92
-3 -3 10 40.34 24.04
3 3 -10 28.89 15.25
-3 -3 10 27 19.09
-3 -3 9 7.56 6.86
3 3 -9 5.68 9.46
-3 -3 8 -13.7 15.57
3 3 -8 4.26 9.22
-3 -3 8 17.92 9.59
3 3 -7 14.42 15.24
-3 -3 7 -7.12 9.82
3 3 -7 1.72 7.53
-3 -3 7 5.14 13.66
3 3 -6 10.09 12.43
3 3 -6 11.5 7.99
-3 -3 6 23.31 15.27
-3 -3 6 12.28 11.38
3 3 -5 217.1 31.33
-3 -3 5 171.92 28.41
3 3 -5 199.22 33.2
-3 -3 5 159.05 30.1
3 3 -4 310.66 39.05
-3 -3 4 302.49 35.87
3 3 -4 251.96 33.36
-3 -3 3 112.25 21.58
3 3 -3 102.34 22.42
3 3 -3 117.15 19.58
3 3 -2 182.65 26.11
3 3 -2 185.69 24.66
3 3 -2 167.54 22.33
3 3 -2 185.47 20.75
-3 -3 2 200.47 24.37
-3 -3 1 519.19 38.11
3 3 -1 503.01 43.74
3 3 -1 499.37 37.6
3 3 -1 546.22 40.44
3 3 0 4974.29 114.22
3 3 0 4972.46 125.41
3 3 0 4825.08 113.09
3 3 1 3449.51 93.06
3 3 1 3415.52 99.93
3 3 2 413.29 15.9
3 3 2 468.43 34.33
3 3 2 496.84 36.91
-3 -3 -2 442.21 24.55
3 3 3 1084.71 52.32
-3 -3 -3 940.06 43.44
3 3 4 434.74 34.45
3 3 4 461.98 32.01
-3 -3 -4 451.78 34.87
-3 -3 -5 62 15.71
3 3 5 63.69 14.16
3 3 5 90.52 15.89
-3 -3 -6 1.07 7.87
3 3 6 15.65 13.26
3 3 6 -1.78 8.62
3 3 6 -19.05 17.39
-3 -3 -7 116.75 24.97
3 3 7 120.03 25.14
3 3 7 113.95 18.95
3 3 7 96.37 13.41
3 3 7 124.98 17.59
-3 -3 -8 34.33 18.02
3 3 8 29.72 11.25
-3 -3 -9 24.22 14.99
3 3 9 40.73 14.07
-3 -3 -10 33.46 15.17
3 3 10 52.33 19.1
-3 -3 -11 82.69 26.7
-3 -3 -12 34.37 26.32
-3 -3 -13 14.53 21.38
-3 -3 -14 31.91 24.6
-3 -3 -15 -12.15 16.28
3 3 15 49.21 30.56
3 4 -11 8.94 12.72
-3 -4 11 0.76 10.44
-3 -4 11 5.83 15
-3 -4 10 2.33 16.31
3 4 -10 6.19 23.7
-3 -4 10 17.37 9.88
-3 -4 9 -2.9 17.2
3 4 -9 4.06 9.29
-3 -4 9 -7.97 11.49
-3 -4 8 6.06 7.4
-3 -4 8 21.46 16.93
3 4 -8 12.56 13.09
-3 -4 7 7.3 14.81
3 4 -7 7.41 12.16
-3 -4 7 23.75 12
-3 -4 6 1.19 11.67
3 4 -6 12.88 10.27
-3 -4 6 6.43 9.56
3 4 -5 128.07 29.62
-3 -4 5 145.66 28.53
3 4 -4 177.73 33.13
3 4 -4 119.72 21.9
-3 -4 4 151.48 28.88
3 4 -3 21.82 10.25
3 4 -3 41.1 12.46
-3 -4 2 691.08 51.24
3 4 -2 716.09 55.88
-3 -4 2 719.21 37.37
3 4 -2 703.7 47.5
3 4 -1 5595.93 142.59
3 4 -1 5353.81 129.72
3 4 0 5396.73 127.75
3 4 0 5242.57 128.96
3 4 0 5209.27 132.44
3 4 0 5090.87 142.34
3 4 1 689.33 47.61
3 4 1 681.91 35.74
3 4 1 676.1 50.39
3 4 1 696.14 45.06
3 4 2 497.64 38.01
3 4 2 509.31 25.51
3 4 2 474.49 40.35
3 4 2 435.25 39.04
-3 -4 -2 446.01 20.88
3 4 3 560.56 26.13
3 4 3 551.7 43.54
3 4 3 605.93 43.3
-3 -4 -3 529.08 29.75
-3 -4 -4 117.68 16.98
3 4 4 116.64 17.74
3 4 4 122.58 15.15
3 4 4 127.53 18.03
-3 -4 -5 3.81 7.02
3 4 5 12 10.33
3 4 5 -7.97 14.66
3 4 5 1.74 7.44
-3 -4 -6 -3.36 6.39
3 4 6 -16.45 14.36
3 4 6 2.46 8.32
3 4 6 -2.82 7.54
3 4 7 84.03 14.51
-3 -4 -7 51.36 16.89
3 4 7 66.11 16.96
-3 -4 -8 9.1 12.43
3 4 8 1.33 19.14
3 4 8 -3.12 6.05
3 4 9 -6.31 15.15
-3 -4 -9 6.62 12.69
-3 -4 -10 34.96 16.3
3 4 10 28.27 14.39
-3 -4 -11 -27.12 13.01
-3 -4 -12 13.96 14.8
-3 -4 -13 14.85 9.66
-3 -4 -14 141.46 42.55
3 4 14 112.46 44.16
-3 -4 -15 234.67 54.48
3 4 15 281.76 71.96
-3 -5 10 -1.4 14.77
3 5 -10 4.56 11.16
-3 -5 10 -17.81 21.89
-3 -5 9 4.24 11.95
-3 -5 9 33.96 17.59
3 5 -9 7.81 12.34
-3 -5 8 17.31 14.99
3 5 -8 15.1 19.01
-3 -5 8 23.64 14.16
-3 -5 7 76.76 24.98
-3 -5 7 71.87 25.33
3 5 -7 44.76 16.65
3 5 -6 8.17 7.46
-3 -5 6 1.15 7.8
-3 -5 5 101.55 28.33
3 5 -5 102.85 28.37
-3 -5 4 165.96 30.87
3 5 -4 187.17 33.92
-3 -5 3 57.07 19.29
3 5 -3 65.49 18.81
3 5 -2 40.19 8.37
3 5 -2 75.34 20.58
-3 -5 2 69.91 13.75
3 5 -1 629.21 48.58
3 5 -1 630.24 54.41
-3 -5 1 683.79 44.88
3 5 0 1600.04 81.5
3 5 0 1521.42 71.73
3 5 0 1711.76 74.84
3 5 0 1558.41 76.14
3 5 1 216.18 26.49
3 5 1 205.6 23.86
3 5 1 218.75 30.28
3 5 1 196.94 24.28
3 5 2 163.38 18.2
3 5 2 160.58 22.77
3 5 2 171.78 24.2
3 5 2 147.4 24.09
3 5 3 68.3 16.36
-3 -5 -3 43.24 7.87
3 5 3 72.46 19.83
3 5 3 58.08 15.62
3 5 3 52.9 11.88
3 5 4 17.89 10.06
3 5 4 11.38 7.87
-3 -5 -4 7.63 13.56
3 5 4 -6.77 7.68
3 5 4 17.21 6.7
3 5 5 -10.42 10.32
-3 -5 -5 9.16 8.5
3 5 5 2.28 4.49
3 5 5 19.52 26.18
3 5 6 19.09 11.37
-3 -5 -6 6.1 6.03
3 5 6 15.19 9.53
3 5 7 318.82 42.67
-3 -5 -7 181.84 30.65
3 5 7 292.58 48.15
-3 -5 -8 17.08 10.37
3 5 8 181.72 44.46
-3 -5 -9 -9 8.24
3 5 9 0.77 13.05
-3 -5 -10 23.8 15.12
3 5 10 70.45 28.78
-3 -5 -11 6.98 12.2
3 5 11 -14.3 19.33
-3 -5 -12 61.91 28.24
3 5 12 56.58 24.99
-3 -5 -13 0.15 20.54
3 5 13 9.14 26.56
-3 -5 -14 36.12 27.95
3 5 14 36.1 26.22
-3 -5 -15 131.27 45.48
3 5 15 113.72 45.04
-3 -6 10 -28.38 18.8
-3 -6 9 54.82 23.32
-3 -6 9 51.53 16.05
3 6 -9 63.1 31.16
3 6 -8 6.76 23.11
-3 -6 8 -16.72 15.71
-3 -6 8 3.56 13.77
-3 -6 7 50.96 24.5
3 6 -7 35.49 19.05
-3 -6 7 32.58 18.75
3 6 -6 58.45 24.43
-3 -6 6 31.7 16.6
3 6 -5 -0.37 8.63
-3 -6 5 30.36 17.82
3 6 -4 38.17 17.5
-3 -6 4 38.82 18.58
3 6 -3 366.47 49.7
-3 -6 3 374.93 47.29
3 6 -2 97.21 24.17
3 6 -1 156.62 28.66
3 6 -1 168.53 30.91
-3 -6 1 194.69 28.13
3 6 0 49.19 11.02
3 6 0 59.2 21.16
3 6 0 26.86 12.6
-3 -6 0 57.47 23.78
3 6 0 55.25 16.51
3 6 1 441.34 46.07
3 6 1 326.36 35.64
3 6 1 358.09 42.57
3 6 2 -6.78 6.93
3 6 2 -11.28 11.66
3 6 2 11.28 8.91
3 6 2 1.29 6.23
3 6 3 94.94 19.53
-3 -6 -3 52.93 9.38
3 6 3 97.13 19.24
3 6 3 82.74 18.59
3 6 3 118.23 19.11
-3 -6 -4 12.54 8.51
3 6 4 7.58 10.29
3 6 4 -9.91 8.39
3 6 4 9.81 9.46
3 6 4 5.21 7.9
3 6 5 498.82 48.74
3 6 5 493.65 39.82
3 6 5 564.87 54.11
-3 -6 -5 467.78 37.93
-3 -6 -6 143.21 23.7
3 6 6 172.56 28.68
3 6 6 169.19 24.74
3 6 6 162.92 26.28
-3 -6 -7 20.48 17.08
3 6 7 69.9 28.82
3 6 8 448.46 58.17
-3 -6 -8 340.25 44.58
-3 -6 -9 1.67 10.15
3 6 9 8.86 10.06
-3 -6 -10 2.93 8.11
3 6 10 -2.14 16.24
-3 -6 -11 81.44 26.62
3 6 11 98.38 33.03
3 6 12 1.12 14.23
-3 -6 -12 -16.67 24.23
-3 -6 -13 44.52 18.77
3 6 13 106.85 40
-3 -6 -14 51.86 29.42
3 6 14 72.93 41.28
-3 -6 -15 65.3 29.5
3 6 15 113.23 48.27
-3 -7 9 -26.46 26.29
-3 -7 8 85.08 31.87
3 7 -8 62.22 27.11
-3 -7 8 71.41 28.51
-3 -7 7 175.42 40.37
3 7 -7 192.82 46.99
-3 -7 7 194.19 40.91
-3 -7 6 120.11 33.17
3 7 -6 126.96 39.54
-3 -7 5 38.5 21.73
3 7 -5 37.92 22.5
-3 -7 4 22.75 11.49
3 7 -4 32.2 14.38
-3 -7 3 8.58 11.17
3 7 -3 3.9 8.64
3 7 -2 204.9 39.7
3 7 -1 82.02 23.36
3 7 -1 47.55 22.03
-3 -7 1 66.88 19.07
3 7 0 14.28 7.47
3 7 0 -12.9 14.73
-3 -7 0 -7.22 11.72
3 7 1 241.22 28.5
3 7 1 239.79 33.46
3 7 1 262.97 37.64
-3 -7 -1 201.61 35.32
3 7 2 48.16 14.76
3 7 2 53.6 15.42
-3 -7 -2 38.66 15.04
3 7 3 49.64 13.4
3 7 3 26.29 13.41
3 7 3 21.9 10.17
3 7 4 45.95 9.96
3 7 4 44.37 14.44
3 7 4 70.53 16.24
-3 -7 -5 42.85 12.19
3 7 5 52.16 15.95
3 7 5 35.43 10.17
-3 -7 -6 41.21 15.57
3 7 6 47.46 16.36
3 7 6 63.56 16.75
3 7 7 47.43 12.5
-3 -7 -7 64.77 19.48
3 7 7 69.71 19.71
-3 -7 -8 8.81 8.26
3 7 8 12.91 11.93
3 7 8 -0.31 7.23
-3 -7 -9 17.71 10.57
3 7 9 51.59 25.55
-3 -7 -10 18.95 18.68
3 7 10 15.17 20.01
-3 -7 -11 26.9 19.12
3 7 11 -6.53 11.22
-3 -7 -12 16.81 9
3 7 12 13.66 21.58
-3 -7 -13 -14.64 22.17
3 7 13 5.13 17.06
-3 -7 -14 -24.2 25.83
-3 -7 -14 -16.08 18.49
3 7 14 29.44 26.16
-3 -7 -15 12.4 20.62
3 7 15 88.05 37.6
-3 -8 7 135.15 39.23
3 8 -7 157.84 45.97
-3 -8 7 110.58 34.92
-3 -8 6 22.62 15.47
3 8 -6 30.06 25.98
3 8 -5 2.26 10.63
-3 -8 5 23.66 22.76
-3 -8 4 5.46 10.43
3 8 -4 42.57 46.65
-3 -8 3 330.02 53.28
3 8 -3 323.48 52.9
3 8 -2 23.33 12.72
3 8 -1 20.77 12.02
3 8 -1 21.73 14.34
3 8 0 118.56 30.46
-3 -8 0 88.62 25.2
3 8 0 65.91 22.16
3 8 1 74.68 22.45
3 8 1 108.46 30.46
3 8 1 77.08 17.31
-3 -8 -1 79.2 26.86
3 8 2 115.41 21.73
3 8 2 105.87 24.41
3 8 2 133.76 28.37
-3 -8 -2 114.48 28.07
3 8 3 357.52 40.93
3 8 3 371.8 40.84
3 8 3 367.55 48.73
-3 -8 -3 382.16 53.43
3 8 4 339.29 37.03
3 8 4 316.35 38.39
3 8 4 306.62 43.44
-3 -8 -4 342.34 48.51
3 8 5 42.01 12.31
3 8 5 44.3 19.75
3 8 5 41.42 11.27
3 8 6 -4.72 4.53
3 8 6 4.6 13.27
3 8 7 54.24 18.27
3 8 7 38.22 13.65
-3 -8 -8 1.99 11.23
3 8 8 -9.29 8.9
3 8 8 -1.78 5.81
-3 -8 -9 39.41 21.38
3 8 9 34.59 18.61
3 8 9 45.09 19.49
-3 -8 -10 73.5 27.42
3 8 10 54.18 19.43
3 8 10 84.15 30.74
-3 -8 -11 10.37 7.99
3 8 11 4.75 18.31
-3 -8 -12 26.83 26.13
3 8 12 -23.95 24.88
-3 -8 -13 10.03 18.84
3 8 13 3.28 11.94
-3 -8 -13 -10.99 10.12
-3 -8 -14 12.87 15.11
3 8 14 -13.92 11.34
-3 -8 -14 -11.53 12.41
-3 -8 -15 75.55 31.02
-3 -9 6 1.21 18.05
-3 -9 5 -31.89 12.26
3 9 -5 15.46 18.29
-3 -9 4 8.47 8.88
3 9 -4 24.31 19.25
-3 -9 3 44.64 19.38
3 9 -3 23.2 15.94
3 9 -2 461.02 65.49
3 9 -1 38.84 19.84
3 9 0 98.76 30.89
3 9 0 181.74 37.09
3 9 1 12.81 16.54
3 9 1 10.93 13.14
-3 -9 -1 -14.44 10.68
3 9 2 104.76 28.03
3 9 2 101.37 25.38
3 9 2 170.04 36.63
-3 -9 -2 104.71 31.71
3 9 3 25.52 11.5
3 9 3 20.2 14.66
3 9 3 26.47 17.84
-3 -9 -3 39.5 19.89
3 9 4 246.57 35.6
3 9 4 249.8 35.93
3 9 4 274.66 44.1
-3 -9 -4 216.64 47.62
3 9 5 28.38 10.58
-3 -9 -5 29.92 24.01
3 9 5 28.15 13.48
3 9 5 26.73 13.21
3 9 6 235.09 37.81
3 9 6 243.74 34.45
-3 -9 -6 154.61 42.66
3 9 7 -8.65 13.27
-3 -9 -7 11.12 20.9
3 9 7 4.88 7.75
3 9 8 272.97 45.28
-3 -9 -8 180.38 42.96
3 9 9 69.25 21.53
-3 -9 -9 94.16 31.11
3 9 10 6.79 8.36
-3 -9 -10 10.12 21.94
-3 -9 -11 59.33 24.77
3 9 11 26.25 13.74
-3 -9 -11 49.76 28.06
-3 -9 -12 4.74 17.26
-3 -9 -12 4.58 14.42
3 9 12 -14.33 11.87
3 9 13 -20.69 22.99
-3 -9 -13 5.76 17.26
3 9 14 89.19 36.66
-3 -9 -14 61.71 28.18
-3 -9 -14 1.84 9.71
-3 -9 -15 28.72 26.73
-3 -10 5 -7.71 13.05
3 10 -4 -35.5 23.69
-3 -10 4 6.9 21.29
3 10 -3 25.56 18.74
-3 -10 3 -22.72 23.16
3 10 -2 50.83 25.47
3 10 -1 265.91 51.19
3 10 0 9.83 10.05
3 10 0 7.78 7.87
3 10 1 33.55 17.78
3 10 1 31.8 16.54
-3 -10 -1 34.99 16.75
3 10 2 71.31 25.19
-3 -10 -2 62.98 27.6
3 10 2 59.61 23.56
-3 -10 -3 45.3 20.1
3 10 3 47.4 15.4
3 10 4 1.62 9.64
3 10 4 7.01 9.98
-3 -10 -4 -8.27 11.17
3 10 5 -9.07 13.9
3 10 5 11.63 11.43
-3 -10 -5 0.37 15.44
-3 -10 -6 -5.95 10.76
3 10 6 11.43 7.44
3 10 7 33.51 18.48
-3 -10 -7 14.08 15.25
3 10 8 719.13 74.63
-3 -10 -8 787.44 96.01
3 10 9 218.98 44.79
-3 -10 -9 316.95 59.61
3 10 10 30.29 19.07
-3 -10 -10 4.1 18.19
-3 -10 -11 2.33 11.51
3 10 11 42.51 28.87
3 10 12 -24.35 18.92
-3 -10 -12 2.52 12.44
3 10 13 4.59 11.99
-3 -10 -13 7.56 18.64
-3 -10 -14 3.85 36.55
-3 -11 3 -30.27 19.52
-3 -11 2 45.07 28.21
3 11 -2 -3.72 18.1
3 11 -1 65.1 28.29
3 11 0 -2.28 10.7
3 11 1 50.64 22.61
3 11 2 0.67 9.02
-3 -11 -2 62.59 42.5
-3 -11 -3 -17.71 22.67
3 11 3 9.47 12.61
-3 -11 -4 25.59 30.42
3 11 4 0.54 9.74
-3 -11 -5 9.62 13.29
3 11 5 3.25 10.89
-3 -11 -6 -7.06 10.57
3 11 7 57.77 26.01
-3 -11 -7 48.26 21.56
-3 -11 -8 226.63 55.93
3 11 8 274.74 46.45
3 11 9 69.21 23.79
-3 -11 -9 41.28 27.55
3 11 10 56.95 25.11
-3 -11 -10 28.29 36.36
3 11 11 1.03 11.14
-3 -11 -11 43.12 32.71
3 11 12 7.45 11.81
-3 -11 -12 -3.1 13.48
3 11 13 -57.03 27.61
-3 -11 -13 -52.36 29.83
3 12 0 1.08 17.24
3 12 1 47.65 26.37
3 12 2 17.8 19.49
3 12 3 12.2 13.4
-3 -12 -3 -4.97 11.28
3 12 4 25.9 7.85
-3 -12 -4 12.53 19.67
3 12 5 49.25 21.33
-3 -12 -5 50.87 29.91
-3 -12 -6 129.44 40.14
-3 -12 -7 13.64 30.52
-3 -12 -8 82.03 39.44
-3 -12 -9 55.86 38.15
-3 -12 -10 14.43 23.8
3 12 11 19.12 17.89
-3 -12 -11 -25.98 25.92
3 12 12 -14.05 29.93
-3 -12 -12 2.71 20
3 13 3 2.37 20.71
-3 -13 -4 8.67 11.27
3 13 4 17.26 16.04
3 13 5 18.25 21.66
-3 -13 -5 -17.17 21.29
-3 -13 -6 37.42 25.58
-3 -13 -7 62.27 23.36
-3 -13 -8 60.67 41.98
-3 -13 -9 34.36 32.6
-3 -13 -10 16.81 22.19
-4 12 7 7.84 17.71
4 -12 -7 -13.71 15.58
-4 12 6 7.54 10.29
4 -12 -6 -5.93 15.16
4 -12 -5 32.35 31.45
-4 12 5 133.04 39.53
-4 12 4 35.27 25.4
4 -12 -4 16.46 18.31
-4 12 3 9.09 21.8
4 -12 -3 32.53 23.19
-4 12 2 21.42 18.67
4 -12 -2 21.53 21.14
4 -12 -1 -1.3 11.1
-4 12 1 9.91 20.1
4 -12 0 -0.92 10.09
4 -11 -10 62.69 27.65
4 -11 -9 21.54 33.28
-4 11 9 143.09 46.04
-4 11 8 -19.6 22.35
4 -11 -8 3.32 22.83
-4 11 7 8.62 12.21
4 -11 -7 28.27 17.31
-4 11 6 41.38 28.06
4 -11 -6 5.04 16.08
4 -11 -5 5.5 16.8
-4 11 5 -4.15 10.9
4 -11 -4 -43.18 23.03
-4 11 4 0.83 12.33
-4 11 3 31.68 23.62
4 -11 -3 1.68 19.61
-4 11 2 21.88 22.99
4 -11 -2 23.37 18.06
-4 11 1 74.26 29.64
4 -11 -1 35.06 25.71
-4 11 0 130.74 46.17
4 -11 0 109.18 30.82
-4 11 -1 -9.58 11.8
4 -11 1 -7.28 18.86
-4 11 -2 -12.41 9.78
4 -11 2 -7.98 16.44
-4 10 11 15.62 14.69
4 -10 -10 25.1 23.49
-4 10 10 62.91 28.06
4 -10 -9 46.3 25.21
-4 10 9 38.54 19.51
-4 10 8 1.95 22.49
4 -10 -8 -28.53 24.44
-4 10 7 31.64 23.41
4 -10 -7 32.43 24.95
-4 10 6 164.25 42.59
4 -10 -6 124.9 44.66
4 -10 -5 47.06 22.84
-4 10 5 -11.03 16.03
4 -10 -4 15.47 13.45
-4 10 4 34.78 23.37
4 -10 -3 249.93 65.15
-4 10 3 83.74 31.23
-4 10 2 48.15 22.22
4 -10 -2 81.21 31.4
-4 10 1 25.98 14.02
4 -10 -1 76.75 30.89
-4 10 0 139.33 39.41
4 -10 0 142.83 36.64
-4 10 -1 20.16 21.73
4 -10 1 20.84 13.2
-4 10 -2 -0.96 15.94
4 -10 2 -18.98 16.71
-4 10 -3 1.83 19.49
4 -10 3 -3.83 7.46
-4 10 -4 37.19 31.35
-4 9 12 85.04 37.89
-4 9 11 40.07 32.7
-4 9 10 25.92 13.69
4 -9 -10 -10.07 12.58
-4 9 9 17.67 21.99
4 -9 -9 -3.3 8.93
-4 9 8 16.44 8.77
4 -9 -8 3.79 11.37
-4 9 7 -29.23 13.48
4 -9 -7 -9.95 17.53
4 -9 -6 974.66 150.09
-4 9 6 25.97 19.05
-4 9 5 6.03 11.05
4 -9 -5 15.69 19.16
4 -9 -4 -13.24 13.25
-4 9 4 14.66 16.24
4 -9 -3 79.6 25.94
-4 9 3 104.5 29.68
4 -9 -2 5.62 7.48
-4 9 2 3.86 10.96
-4 9 1 14.98 14.57
4 -9 -1 47.81 22.39
4 -9 0 93.53 28.56
-4 9 0 84.37 28.54
4 -9 1 21.25 14.96
-4 9 -1 48.13 24.55
-4 9 -2 35.6 18.86
4 -9 2 33.9 18.98
-4 9 -3 6.86 25
4 -9 3 1.22 12.35
-4 9 -4 208.87 49.86
-4 9 -4 169.43 39.18
4 -9 4 161.8 36.97
-4 9 -5 108.59 29.56
-4 9 -5 100.74 38.4
-4 9 -6 54.77 31.02
-4 9 -6 -5.56 21.82
-4 8 12 82.24 30.23
-4 8 11 197.68 48.82
-4 8 11 192.74 42.25
-4 8 10 46.29 22.65
4 -8 -10 23.43 16.23
-4 8 10 47.42 25
-4 8 9 18.22 20.16
-4 8 9 13.92 17.32
4 -8 -9 68.27 30.98
-4 8 8 96.98 31.57
-4 8 8 40.31 22.66
4 -8 -8 24.44 24.26
-4 8 7 21.19 16.78
-4 8 7 52.07 19.98
4 -8 -7 13.63 14.79
-4 8 6 7.63 9.9
4 -8 -6 -0.05 7.92
-4 8 6 3.76 7.17
-4 8 5 33.33 20.78
4 -8 -5 -9.25 15.27
-4 8 4 17.76 13
4 -8 -4 3.61 11.33
4 -8 -3 25.32 12.86
-4 8 3 -4.33 9.44
4 -8 -2 27.19 20.43
-4 8 2 15.44 14.19
4 -8 -1 1.55 11.53
-4 8 1 2.53 9.58
-4 8 0 -2.51 9.74
4 -8 0 7.16 13.69
-4 8 -1 93.53 33.22
4 -8 1 119.19 31.84
-4 8 -1 96.37 26.62
-4 8 -2 120.35 36.56
-4 8 -2 71.23 23.94
4 -8 2 103.19 27.6
-4 8 -3 29.57 22.18
-4 8 -3 10.49 13.52
4 -8 3 9.52 9.63
-4 8 -4 45.49 24.69
-4 8 -4 13.85 10.3
4 -8 4 28.07 17.18
-4 8 -5 33.38 17.92
-4 8 -5 28.55 19.34
-4 8 -6 8.64 14.29
-4 8 -6 10.83 9.63
-4 8 -7 19.37 12.22
-4 7 12 3.32 21.05
-4 7 12 42.8 26.89
-4 7 11 -0.16 13.4
-4 7 10 34.37 19.22
-4 7 10 21.02 11.7
-4 7 9 35.86 22.98
-4 7 9 40.82 19.11
4 -7 -9 10.53 12.91
-4 7 8 34.11 20.73
-4 7 8 22.11 16.02
4 -7 -8 69.77 22.06
-4 7 7 28.08 12.4
-4 7 7 51.92 22.33
4 -7 -7 29.47 10.47
-4 7 6 27.52 18.08
-4 7 6 -1.4 13.43
4 -7 -6 12.37 14.34
-4 7 5 38.47 20.95
-4 7 5 23.68 15.61
4 -7 -5 32.87 18.56
-4 7 4 87.26 26.46
4 -7 -4 73.26 23.95
-4 7 4 61.69 23.4
-4 7 3 5.91 8.43
4 -7 -3 0.88 9.93
4 -7 -2 19.54 11.88
-4 7 2 18.34 12.01
-4 7 1 63.57 21.12
4 -7 -1 62.78 20.24
-4 7 0 -12.31 9.75
4 -7 0 9.48 6.14
-4 7 0 12.72 12.14
-4 7 -1 61.34 22.57
4 -7 1 32.11 15.41
-4 7 -1 15.63 9.92
-4 7 -2 13.64 14.41
4 -7 2 -10 10.72
-4 7 -2 -0.22 5.35
-4 7 -3 88.15 29.46
-4 7 -3 97.34 26.51
4 -7 3 102.37 28.98
-4 7 -4 230.68 51.59
-4 7 -4 191.54 34.53
4 -7 4 209.57 38.84
-4 7 -5 10.48 17.66
-4 7 -5 4.17 13.95
-4 7 -5 20.27 20.37
4 -7 5 35.19 18.07
-4 7 -6 22.06 18.15
-4 7 -6 13.79 22.55
-4 7 -6 -12.07 11.44
-4 7 -7 10.39 11.94
-4 7 -8 36.88 22.5
-4 6 13 -17.17 17.18
4 -6 -13 35.92 16.72
-4 6 12 80.31 29.14
4 -6 -12 92.7 35.99
-4 6 12 144.9 44.36
-4 6 11 33.55 18.97
4 -6 -11 49.22 28.15
-4 6 11 52.53 27.3
4 -6 -10 21.19 13.92
-4 6 10 13.74 17.43
-4 6 10 36.09 25.43
4 -6 -9 -20.03 23.74
-4 6 9 -5.67 8.44
-4 6 9 7.29 15.98
4 -6 -9 -0.89 10.12
-4 6 8 67.94 24.91
-4 6 8 84.45 25.98
4 -6 -8 86.61 26.69
-4 6 7 21.41 15.95
-4 6 7 30.9 17.73
4 -6 -7 11.66 8.97
-4 6 7 6.01 8.15
-4 6 6 86.41 25.17
-4 6 6 44.21 19.78
4 -6 -6 79.98 22.39
-4 6 5 197.03 35.97
-4 6 5 177.31 35.92
4 -6 -5 152.77 31.04
-4 6 4 315.35 45.27
4 -6 -4 316.94 43.6
-4 6 4 305.7 45.08
-4 6 3 180.13 34.39
-4 6 3 205.78 37.83
4 -6 -3 172.47 33.5
-4 6 2 17.51 13.61
-4 6 2 6.8 7.16
4 -6 -2 -0.01 8.75
-4 6 1 97.03 28.32
-4 6 1 98.41 18.07
4 -6 -1 69 27.15
-4 6 0 40.13 13.09
4 -6 0 26.21 14.47
-4 6 0 30.43 15.79
-4 6 -1 111.64 29.02
4 -6 1 96.22 24.09
-4 6 -1 96.72 21.29
-4 6 -2 292.05 48.4
-4 6 -2 278.07 34.79
4 -6 2 299.88 42.26
4 -6 3 2.87 13.25
-4 6 -3 8.39 13.67
-4 6 -3 -7.63 12.17
-4 6 -4 204.8 47.09
-4 6 -4 174.61 32.79
4 -6 4 227.55 38.26
-4 6 -5 46.32 27.37
-4 6 -5 60.79 20.67
4 -6 5 69.27 21.78
-4 6 -5 45.21 19.33
-4 6 -6 31.3 19.21
-4 6 -6 12.37 16.66
-4 6 -6 27.01 14.33
4 -6 6 37.84 20.87
-4 6 -7 46.31 27.19
-4 6 -7 60.39 22.07
-4 6 -8 1.06 16.16
-4 6 -8 2.91 8.25
-4 6 -9 5.21 7.93
4 -5 -13 -17.73 21.45
-4 5 13 -2.21 20.47
-4 5 12 11.99 15.34
-4 5 12 36.41 21.88
4 -5 -12 23.15 26.4
4 -5 -11 15.57 20.1
-4 5 11 -8.06 17.42
-4 5 11 2.62 11.32
-4 5 10 0.76 14.9
4 -5 -10 11.46 14.41
-4 5 10 -13.01 25.98
-4 5 9 -6.62 14.03
4 -5 -9 0.08 20.74
-4 5 9 -26.31 18.78
4 -5 -8 -17.67 17.39
4 -5 -8 -6.33 10.83
-4 5 8 5.98 9.41
-4 5 8 -20.23 16.9
-4 5 7 16.89 9.83
-4 5 7 19 9.95
4 -5 -7 11.92 7.26
-4 5 6 166.5 30.45
-4 5 6 208.51 37.47
4 -5 -6 153.16 25.68
4 -5 -6 161.45 29.92
-4 5 5 108.93 26.29
-4 5 5 100.54 26.53
-4 5 5 77.82 21.97
4 -5 -5 69.54 23.38
4 -5 -4 360.19 46.44
-4 5 4 330.03 43.18
-4 5 4 319.02 44.08
-4 5 3 79.64 20.5
-4 5 3 93.15 25.26
4 -5 -3 110.21 24.65
-4 5 2 98.03 23.08
-4 5 2 91.59 22.44
4 -5 -2 50.66 18.12
-4 5 1 391.59 44.86
-4 5 1 347.72 28.54
4 -5 -1 315.2 42.36
-4 5 1 403.29 45.93
-4 5 0 61.62 13.65
4 -5 0 74.27 17.58
-4 5 0 37.23 12.77
-4 5 -1 32.55 9.84
4 -5 1 47.27 17.34
-4 5 -1 22.88 11.73
-4 5 -2 21.38 15.5
-4 5 -2 13.06 6.67
4 -5 2 25.22 12.97
-4 5 -3 1.58 9.64
-4 5 -3 12.11 9.97
4 -5 3 2.4 7.01
-4 5 -4 138 36.33
-4 5 -4 89.7 21.05
4 -5 4 180.87 32.37
-4 5 -5 19.4 16.53
4 -5 5 8.68 10.41
-4 5 -5 -1.04 11.26
-4 5 -5 26.32 14.31
-4 5 -6 40.75 20.77
-4 5 -6 20.7 14.17
-4 5 -6 27.19 17.16
4 -5 6 22.68 10.88
-4 5 -7 23.45 17.47
-4 5 -7 18.14 11.23
-4 5 -8 8.34 7.44
-4 5 -8 1.28 9.59
-4 5 -9 7.05 11.03
-4 5 -9 16.46 16.44
-4 5 -10 41.38 25.96
-4 5 -10 6.41 14.04
-4 4 13 225.8 55.68
4 -4 -13 183.13 51.94
-4 4 12 -28.27 16.64
4 -4 -12 26.46 23.16
-4 4 12 4.01 16.89
-4 4 11 62.19 22.32
4 -4 -11 32.47 24.45
-4 4 11 58.06 27.72
-4 4 10 -10.43 13.13
4 -4 -10 -5.31 18.78
-4 4 10 -10.29 18.91
-4 4 9 42.45 12.93
4 -4 -9 37.84 18.11
-4 4 9 42.69 21.89
-4 4 8 23.65 15.51
-4 4 8 -14.83 13.72
4 -4 -8 8.41 11.88
4 -4 -7 -12.68 18.97
-4 4 7 -4.21 8.68
-4 4 7 2.31 8.09
4 -4 -7 3.05 9.47
4 -4 -6 556.73 45.89
-4 4 6 601.41 60.73
4 -4 -6 556.75 52.56
-4 4 6 555.93 56.72
4 -4 -6 593.54 65.99
-4 4 5 26.61 15.92
-4 4 5 36.51 12.87
4 -4 -5 5.22 7.8
-4 4 4 4.07 6.13
-4 4 4 10.91 12.69
4 -4 -4 23.76 13.65
-4 4 4 28.41 12.31
-4 4 3 32.48 12.07
-4 4 3 21.59 14.27
-4 4 3 47.3 13.83
4 -4 -3 2.27 10.63
-4 4 2 70.47 17.2
4 -4 -2 84.61 21.1
-4 4 2 52.15 15.72
-4 4 1 223.83 32.69
-4 4 1 229.43 33.16
-4 4 1 194.54 17.65
4 -4 -1 208.63 29.78
-4 4 0 5.6 12.19
-4 4 0 0.9 4.58
-4 4 0 -0.43 7.85
4 -4 0 -20.92 10.98
-4 4 -1 40.87 11.89
4 -4 1 58.12 15.01
-4 4 -1 52.38 16.66
-4 4 -2 31.79 13.58
-4 4 -2 32.27 12.48
4 -4 2 49.92 16.31
-4 4 -3 1270.7 86.42
4 -4 3 1297.68 77.21
-4 4 -3 1272.56 66.66
-4 4 -4 -7.8 8.93
4 -4 4 14.73 11.41
-4 4 -5 57.05 21.15
4 -4 5 57.26 16.71
-4 4 -6 113.8 29.24
4 -4 6 89.73 16.74
-4 4 -6 100.58 32.34
-4 4 -7 56.71 23.67
-4 4 -8 25.18 16.84
-4 4 -9 -4.4 19.92
-4 4 -10 21.25 9.95
-4 4 -11 -20.08 13.45
-4 4 -12 12.72 23.12
4 -3 -13 34.81 29.75
-4 3 13 30.97 22.89
-4 3 12 24.62 25.08
4 -3 -12 -19.57 18.17
-4 3 12 -0.29 14.23
-4 3 11 33.99 8.15
-4 3 11 21.94 12.94
4 -3 -11 56.03 37.64
-4 3 10 20.14 17.29
-4 3 10 25.78 16.35
4 -3 -10 25.72 15.69
-4 3 9 3.03 7.13
4 -3 -9 26.73 21.87
-4 3 9 23.1 16.65
-4 3 8 8.71 9.72
4 -3 -8 14.6 16.19
-4 3 8 0.81 13.59
-4 3 7 52.68 18.58
4 -3 -7 106.46 29.5
-4 3 7 76.54 23.72
4 -3 -7 69.08 16.79
-4 3 6 174.42 30.76
4 -3 -6 201.72 38
4 -3 -6 165.86 24.55
-4 3 6 169.18 30.99
4 -3 -6 163.86 26
-4 3 5 191.22 32.21
4 -3 -5 250.6 38.44
4 -3 -5 227.74 29.21
-4 3 5 199.9 32.41
4 -3 -5 251.81 30.2
-4 3 4 40.05 13.46
-4 3 4 69.25 19.92
4 -3 -4 68.72 13.77
4 -3 -4 36.99 12.8
-4 3 3 214.07 31.72
-4 3 3 227.34 30.13
4 -3 -2 101.16 17.51
-4 3 2 84.99 19.18
-4 3 2 77.73 19.44
-4 3 2 86.08 17.91
-4 3 1 227.59 29.94
-4 3 1 249.58 31.94
4 -3 -1 238.59 31.37
-4 3 0 104.84 21.23
-4 3 0 83.14 10.94
-4 3 0 119.16 20.21
4 -3 0 110.49 19.7
-4 3 -1 154.69 23
-4 3 -1 137.65 15.91
4 -3 1 214.84 27.41
-4 3 -1 151.89 23.55
-4 3 -2 33.17 6.38
4 -3 2 25.85 8.91
-4 3 -3 1.37 7.51
4 -3 3 0.83 2.91
4 -3 3 9.78 9.87
-4 3 -4 144.18 30.06
4 -3 4 137.21 28.23
-4 3 -5 112.06 29.61
4 -3 5 94.16 22
4 -3 6 -0.27 7.85
-4 3 -6 -6.19 9.24
-4 3 -7 71.02 23.28
-4 3 -8 5.59 9.34
-4 3 -9 212.08 44.36
-4 3 -10 27.57 20.67
-4 3 -11 17.36 19.01
-4 3 -12 -20.53 15.09
-4 3 -13 51.17 32.95
4 -2 -13 0.66 15.85
-4 2 13 5.52 18.11
-4 2 12 -0.53 14.21
4 -2 -12 4.21 10.39
-4 2 12 22.44 21.3
-4 2 11 71.63 21.88
4 -2 -11 85.55 33.39
-4 2 11 98.89 32.19
-4 2 10 56.54 22.44
-4 2 10 26.73 13.92
4 -2 -10 46.86 26.16
-4 2 9 126.08 29.75
4 -2 -9 117.74 35.73
-4 2 9 110.23 31.16
-4 2 8 106.27 27.74
4 -2 -8 172.66 39.84
-4 2 8 138.09 32.67
-4 2 7 158.16 31.05
4 -2 -7 200.63 42.37
-4 2 7 107.61 25.88
4 -2 -6 226.98 27.49
-4 2 6 213.26 32.43
4 -2 -6 192.96 38.29
-4 2 6 217.39 34.72
4 -2 -6 227.32 25.86
-4 2 5 15.36 11.41
4 -2 -5 18.04 10.23
4 -2 -5 4.25 6.07
-4 2 5 -3.62 6.94
4 -2 -5 13.08 10.17
4 -2 -4 47.6 15.72
4 -2 -4 53.54 12.62
-4 2 4 13.9 10.54
4 -2 -4 56.25 12.35
-4 2 4 58.34 17.77
-4 2 3 413.68 39.29
4 -2 -3 394.2 36.91
4 -2 -3 412.68 35.85
-4 2 3 375.03 37.92
-4 2 2 13.59 8.61
4 -2 -2 18.58 8.89
-4 2 2 23.65 11.39
4 -2 -2 21.41 11.26
-4 2 1 204.14 27.83
-4 2 1 220.98 27.08
4 -2 -1 193.41 24.91
-4 2 1 232.61 26.3
4 -2 0 230.36 27.22
-4 2 0 262.56 30.08
-4 2 0 248.16 27.6
-4 2 -1 39.53 12.15
-4 2 -1 30.1 7.69
4 -2 1 47.43 15.47
-4 2 -2 257.01 28.69
4 -2 2 324.41 26.82
4 -2 2 270.77 30.78
-4 2 -2 234.68 30.68
-4 2 -3 188.02 28.23
4 -2 3 169.84 16.44
4 -2 3 180.53 28.77
4 -2 4 72.94 12.7
-4 2 -4 78.74 19.35
4 -2 4 103.03 20.28
4 -2 5 217.17 25.23
-4 2 -5 150.11 30.8
4 -2 5 147.01 16.02
-4 2 -6 -10.4 11.63
-4 2 -6 -11.34 15.62
-4 2 -7 19.95 15.99
4 -2 7 -7.39 7.73
-4 2 -8 67.78 21.75
-4 2 -9 13.74 11.15
-4 2 -10 128.54 36.98
-4 2 -11 -9.85 14.99
-4 2 -12 14.63 15.64
-4 2 -13 37.54 29.35
4 -1 -13 69.27 38.12
-4 1 13 53.21 22.71
-4 1 12 0.33 11.14
4 -1 -12 5.63 15.31
-4 1 12 -2.61 13.46
-4 1 11 4.49 14.43
4 -1 -11 13.47 22.11
-4 1 11 -16.61 21.04
4 -1 -10 7.73 11.28
-4 1 10 17.86 15.78
-4 1 10 11.72 17.3
-4 1 9 4.12 11.66
-4 1 9 23.5 17.66
4 -1 -9 28.88 19.77
-4 1 8 3.33 8.56
4 -1 -8 18.76 18.39
-4 1 8 -13.52 8.68
-4 1 7 106.29 24.3
4 -1 -7 175.59 36.44
-4 1 7 107.4 22.75
-4 1 6 117.19 25.43
4 -1 -6 125.73 29.76
4 -1 -6 111.7 22.2
-4 1 6 127.59 25.89
-4 1 5 -3.87 9.92
4 -1 -5 -19.95 15
-4 1 5 7.43 9.08
4 -1 -5 10.55 6.03
4 -1 -5 -1.97 3.7
-4 1 4 100.55 21.02
4 -1 -4 129.68 26.94
4 -1 -4 116.49 20.04
-4 1 4 125.9 23.33
4 -1 -4 114.32 16.82
-4 1 3 566.66 42.6
4 -1 -3 630.99 44.67
4 -1 -3 626.39 37.22
-4 1 3 554.68 44.38
4 -1 -2 411.56 35.75
4 -1 -2 388.44 30.24
-4 1 2 363.25 34.15
-4 1 2 384.18 32.41
-4 1 1 13.65 7.56
-4 1 1 21.57 9.17
4 -1 -1 21.03 10.45
4 -1 -1 24.67 8.72
4 -1 0 1719.88 66.81
4 -1 0 1733.97 72.73
-4 1 0 1687.98 68.9
-4 1 0 1683.72 63.98
-4 1 0 1708.02 59.87
-4 1 -1 5.17 10.22
4 -1 1 9.35 7.27
-4 1 -1 -3.46 4.15
4 -1 1 17.77 10.48
4 -1 2 1084.24 43.13
4 -1 2 1060.11 57.51
-4 1 -2 1157.29 56.83
-4 1 -2 1086.02 51.46
-4 1 -3 182.64 24.31
-4 1 -3 171.27 21.73
4 -1 3 186.29 19.02
4 -1 3 175.11 25.97
4 -1 4 3.46 2.54
-4 1 -4 7.3 8.73
4 -1 4 10.38 6.94
-4 1 -5 -7.32 12.62
4 -1 5 12.91 4.72
-4 1 -6 3.88 9.67
4 -1 6 1.23 4.39
-4 1 -7 251.39 39.01
4 -1 7 243.67 32.77
-4 1 -8 62.66 20.12
4 -1 8 72.44 21.13
-4 1 -9 22.41 16.53
4 -1 9 1.98 9.04
-4 1 -10 195.32 43.37
4 -1 10 197.61 37.21
-4 1 -11 286.6 55.17
-4 1 -12 79.28 29.56
-4 1 -13 11.17 14.51
-4 1 -14 -10.66 26
-4 0 12 28.43 20.18
4 0 -12 41.52 30.04
-4 0 12 74.01 33.35
-4 0 11 -4.27 7.52
4 0 -11 35.24 21.33
-4 0 11 33.13 20.8
-4 0 10 -13.62 17.86
4 0 -10 28.12 20.71
-4 0 10 21.48 13.68
-4 0 9 101.15 28.37
4 0 -9 73.26 26.09
-4 0 9 46.84 19.35
-4 0 8 5.47 9.11
-4 0 8 -3.02 13.15
4 0 -8 -0.85 13.96
4 0 -7 99.56 28.81
-4 0 7 84.94 21.91
-4 0 7 68.67 19.41
4 0 -6 -1.22 8.16
4 0 -6 8.94 12.37
4 0 -6 16.98 4.93
-4 0 6 7.32 10.37
-4 0 6 5.58 6.38
-4 0 5 200.25 29.23
4 0 -5 189.33 37.51
4 0 -5 203.41 28.01
-4 0 5 219.02 32.02
4 0 -5 169.24 22.71
4 0 -4 38.28 14.86
-4 0 4 50.46 14.69
4 0 -4 40.45 15.07
-4 0 4 33.2 12.2
4 0 -3 634.92 34.9
4 0 -3 636.51 45.92
4 0 -3 615.82 32.5
-4 0 3 607.03 47.3
-4 0 3 642.03 45.73
4 0 -2 -3.24 6.23
-4 0 2 7.55 5.74
4 0 -2 3.51 3.21
4 0 -2 -0.74 5.26
-4 0 2 -3.04 7.96
-4 0 1 652.03 37.69
4 0 -1 674.29 45.64
4 0 -1 531.44 21.06
4 0 -1 633.22 36.97
-4 0 1 624.6 42.11
-4 0 0 72.49 14.91
4 0 0 91.36 18.66
-4 0 0 85.48 12.19
-4 0 0 108.01 14.68
4 0 0 75.06 14.47
-4 0 -1 494.33 25.39
4 0 1 471.35 32.12
-4 0 -1 520.17 28.39
4 0 1 486.27 35.29
-4 0 -1 506.68 32.55
4 0 1 482.1 37.69
-4 0 -2 6.22 4.77
-4 0 -2 16.34 7.24
4 0 2 12.25 7.4
4 0 2 -6.24 8.12
-4 0 -3 -1.98 7.29
-4 0 -3 16.63 4.63
4 0 3 24.47 8.69
4 0 3 21.02 8.33
-4 0 -4 188.01 23.19
4 0 4 167.78 25.13
4 0 5 96.35 16.64
4 0 5 40.96 5.75
4 0 5 78.85 17.01
-4 0 -5 109.86 23.79
-4 0 -6 29.17 14.94
4 0 6 4.7 6.69
4 0 6 5.78 5.27
4 0 6 5.07 3.96
4 0 6 13.93 10.66
-4 0 -7 131.57 27.27
4 0 7 87.28 21.4
4 0 7 98.76 13.55
4 0 7 82.96 16.97
4 0 8 314.18 40.49
-4 0 -8 318.59 45.78
4 0 8 293.67 31.15
-4 0 -9 166.55 39.31
4 0 9 148.56 34
-4 0 -10 -3.9 14.94
4 0 10 21.48 16.76
-4 0 -11 36.57 16.24
4 0 11 -3.01 11.78
-4 0 -12 6.25 12.48
4 0 12 -15.38 10.69
-4 0 -13 -33.99 21.56
-4 0 -14 33.76 26.86
-4 -1 12 24.65 15.2
-4 -1 12 16.87 18.98
-4 -1 11 25.58 18.03
-4 -1 11 49.02 21.56
4 1 -11 29.33 18.66
4 1 -11 48.59 31.26
-4 -1 10 18.56 19.51
4 1 -10 17.18 19.25
-4 -1 10 25.48 16.88
4 1 -9 108.45 33.13
-4 -1 9 105.92 29.02
-4 -1 9 79.12 23.71
4 1 -8 152.49 40.2
-4 -1 8 91.43 24.73
-4 -1 8 122.54 29.41
4 1 -7 145.32 36.01
-4 -1 7 125.4 28.31
-4 -1 7 116.73 27.85
4 1 -6 49.55 18.1
-4 -1 6 63.46 23.57
4 1 -6 59.22 24.69
-4 -1 6 62.53 20.2
4 1 -5 25.76 14.54
4 1 -5 26.76 10.38
4 1 -5 15.04 9.09
-4 -1 5 19.43 11.38
-4 -1 5 12.17 6.02
4 1 -4 6.09 6.12
-4 -1 4 3.05 5.79
4 1 -4 -2.39 9.54
4 1 -4 7.83 7.01
4 1 -4 0.49 7.13
-4 -1 4 13.15 10.04
4 1 -3 87.57 19.54
4 1 -3 86.81 22.18
-4 -1 3 93.3 18.06
4 1 -3 87.27 15.01
4 1 -3 71.37 14.26
-4 -1 3 66.05 17.73
4 1 -2 23.01 7.92
-4 -1 2 40.39 11.35
4 1 -2 28.96 13.86
4 1 -2 26.67 13.15
-4 -1 2 36.13 12.08
-4 -1 1 475.72 32.93
4 1 -1 422.62 33.28
4 1 -1 438.1 26.22
4 1 -1 438.45 37.94
-4 -1 1 417.72 34.76
-4 -1 0 1.89 4.5
4 1 0 6.58 8.76
4 1 0 0.76 4.77
-4 -1 0 6.98 7.78
4 1 1 157.54 21.53
-4 -1 -1 168.28 14.32
-4 -1 -1 157.34 13.11
4 1 1 175.3 22.55
-4 -1 -1 166.26 18.03
-4 -1 -2 480.32 18.67
4 1 2 532.82 36.92
-4 -1 -2 514.24 21.19
4 1 2 474.35 36.66
-4 -1 -2 520.8 29.42
4 1 3 72.32 14.41
-4 -1 -3 58.68 10.39
4 1 3 69.04 14.9
-4 -1 -3 52 8.93
4 1 3 62.74 13.15
4 1 4 1238.56 59.01
4 1 4 1157.17 52.79
4 1 4 1206.31 57.37
4 1 5 371.35 35.32
4 1 5 365.11 30.28
4 1 5 327.27 29.57
-4 -1 -5 338.51 37.54
-4 -1 -6 20.6 12.19
4 1 6 44.68 13.18
4 1 6 46.31 17
4 1 6 48.74 11.46
4 1 6 16.17 4.1
-4 -1 -7 -13.48 9.73
4 1 7 14.27 7.82
4 1 7 27.3 16.32
4 1 7 36.44 14.92
-4 -1 -8 20.96 9.59
4 1 8 35.75 9.37
4 1 8 41.4 20.7
4 1 8 20.34 6.21
-4 -1 -9 75.97 26.4
4 1 9 105.82 26.85
-4 -1 -10 21.34 16.27
4 1 10 2.78 9.48
-4 -1 -11 27.48 24.02
4 1 11 30.14 22.92
-4 -1 -12 44.67 26.99
4 1 12 31.75 25.31
-4 -1 -13 70.17 27.4
4 1 13 52.63 29.02
-4 -1 -14 7.85 20.65
4 1 14 4.76 24.32
-4 -1 -15 -0.65 15.69
-4 -2 12 21.37 16.1
-4 -2 11 -7.73 12.24
4 2 -11 -9.74 13.2
-4 -2 11 2.42 16.59
-4 -2 10 147.72 40.19
4 2 -10 113.06 36.5
-4 -2 10 132.73 36.28
-4 -2 9 109.48 31.13
4 2 -9 63.25 25.01
4 2 -9 113.76 32.6
-4 -2 9 72.12 23.54
4 2 -8 11.76 13.35
-4 -2 8 15.53 10.9
4 2 -8 11.33 7.68
-4 -2 8 22.46 11.02
-4 -2 7 6.29 6.37
4 2 -7 -13.85 10.22
4 2 -7 12.68 10.48
-4 -2 7 12.27 12.44
4 2 -6 180.88 37.29
-4 -2 6 157.12 30.66
4 2 -6 137.34 29.56
-4 -2 6 171.16 33.06
4 2 -5 181.41 31.89
4 2 -5 149.43 19.69
-4 -2 5 186.17 31.81
4 2 -5 162.48 32.7
4 2 -5 164.23 29.56
-4 -2 5 178.52 30.22
4 2 -4 52.27 14.89
-4 -2 4 79.4 20.2
4 2 -4 60.83 16.81
4 2 -4 45.86 13.38
-4 -2 4 54.18 16.81
4 2 -4 35.11 12.32
4 2 -3 417.05 38.51
4 2 -3 408.08 42.32
4 2 -3 452.93 35.73
-4 -2 3 404.21 40.89
-4 -2 3 385.21 38.86
4 2 -3 422.22 41.92
-4 -2 2 96.31 18.66
4 2 -2 89.18 15.61
4 2 -2 77.79 17.67
4 2 -2 78.25 16.1
-4 -2 2 99.56 19.94
4 2 -1 1.45 9.26
-4 -2 1 14.9 8.35
4 2 -1 13.67 5.21
4 2 -1 23.44 8.39
-4 -2 1 33.46 13.41
4 2 0 -12.46 10.14
-4 -2 0 3.02 7.15
4 2 0 -2.65 5.81
4 2 0 -2.88 6.17
-4 -2 0 -5.22 4.91
-4 -2 -1 1232.02 44.84
4 2 1 1329.27 52.09
4 2 1 1328.5 64.03
-4 -2 -1 1169.83 50.77
4 2 2 2390.95 83.71
-4 -2 -2 2217.78 62.29
-4 -2 -2 2285.81 50.94
4 2 3 445.06 36.56
4 2 3 463.47 36.16
-4 -2 -3 414.64 23.19
4 2 4 146.8 20.6
4 2 4 147.14 20.5
4 2 4 143.41 21.43
-4 -2 -4 130.17 10.98
-4 -2 -4 115.09 21.03
4 2 5 239.43 28.34
4 2 5 242.73 26.55
4 2 5 217.34 23.83
-4 -2 -5 249.35 31.49
4 2 6 23.15 11.53
4 2 6 24.85 17.09
4 2 6 1.58 5.91
-4 -2 -7 76.71 20.59
4 2 7 57.3 13.12
4 2 7 64.23 14.52
4 2 7 87.38 25.9
-4 -2 -8 128.24 29.47
4 2 8 114.03 16.25
-4 -2 -9 196.13 37.71
4 2 9 192.34 37.68
-4 -2 -10 45.1 22.53
4 2 10 43.66 19.23
-4 -2 -11 71.55 25.41
4 2 11 59.11 22.95
-4 -2 -12 14.96 10.16
4 2 12 8.01 15.59
-4 -2 -13 37.81 23.32
4 2 13 20.45 18.91
-4 -2 -14 -5.9 20.94
4 2 14 3.99 18.35
-4 -2 -15 35.14 23.84
4 2 15 7.13 23.64
-4 -3 11 -26.67 14.2
4 3 -11 -19.55 23.47
-4 -3 11 -11.88 12.28
-4 -3 10 50.77 29.65
4 3 -10 -5.63 7.88
-4 -3 10 36.17 23.6
4 3 -9 4.08 14.14
-4 -3 9 14.3 13.83
-4 -3 9 -14.11 14.7
-4 -3 8 -6.75 12.1
4 3 -8 -2.57 13.84
-4 -3 8 14.74 12.97
-4 -3 7 43.63 19.18
4 3 -7 44.16 21.27
-4 -3 7 37.74 18.38
4 3 -6 59.82 21.45
-4 -3 6 34.11 18.51
4 3 -6 22.13 15.59
-4 -3 6 33.24 17.44
-4 -3 5 132.54 26.36
4 3 -5 168.63 32.29
4 3 -5 160.9 31.8
-4 -3 5 148.58 28.94
4 3 -4 219.73 30.62
-4 -3 4 133.82 25.35
4 3 -4 112.31 23.08
4 3 -4 147.88 27.5
-4 -3 4 134.71 27.02
4 3 -3 118.93 27.17
4 3 -3 172.84 27.32
4 3 -3 82.48 22.87
-4 -3 3 108.47 22.93
-4 -3 3 140.63 26.76
4 3 -2 264.19 30.25
4 3 -2 279.59 32.38
4 3 -2 291.31 36.76
-4 -3 2 284.71 33.78
-4 -3 2 300.85 33.02
-4 -3 1 73.68 16.88
4 3 -1 109.29 23.41
4 3 -1 59.75 13
4 3 -1 73.9 15.44
-4 -3 0 7.08 4.87
4 3 0 13.94 8.09
4 3 1 24.07 9.16
4 3 1 21.62 10.16
4 3 2 214.99 24.79
4 3 2 251.36 30
4 3 3 99.41 18.33
-4 -3 -3 101.43 14.37
-4 -3 -3 73.74 13.09
-4 -3 -4 34.98 10.39
4 3 4 48.02 13.28
4 3 4 37.51 13.44
-4 -3 -4 33.84 6.64
4 3 5 100.86 19.65
-4 -3 -5 78.81 19.49
4 3 5 97.65 20.22
4 3 5 99.6 18.01
-4 -3 -5 44.19 5.07
4 3 6 25.17 12.35
-4 -3 -6 33.47 11.68
4 3 6 38.58 14.29
4 3 6 29.39 10.79
4 3 7 300.78 27.89
4 3 7 341.95 35.93
-4 -3 -7 293.83 40.24
4 3 8 416.38 48.97
4 3 8 310.24 27.76
-4 -3 -8 300.65 43.93
4 3 9 97.01 19.32
-4 -3 -9 119.89 29.2
4 3 9 141.83 33.24
-4 -3 -10 -6.19 9.43
4 3 10 0.02 9.63
-4 -3 -11 11.46 14.13
4 3 11 -8.16 18.18
-4 -3 -12 -0.15 8.63
4 3 12 -16.38 18.89
-4 -3 -13 13.53 16.8
4 3 13 63.58 49.47
-4 -3 -14 13.67 20.43
4 3 14 6.25 20.34
-4 -3 -15 6.4 21.25
4 3 15 14.48 20.19
-4 -4 11 -10.23 19.18
-4 -4 10 63.11 32.49
4 4 -10 13.84 9.32
-4 -4 10 21.4 20.52
-4 -4 9 -5.83 9.92
4 4 -9 11.06 13.03
-4 -4 9 0.32 8.53
-4 -4 8 61.39 26.97
4 4 -8 67.75 30.82
-4 -4 8 58.7 21.34
-4 -4 7 7.5 11.25
4 4 -7 14.97 17.52
-4 -4 7 8.02 14.07
-4 -4 6 102.87 27.87
4 4 -6 72.33 22.02
-4 -4 6 102.15 27.32
-4 -4 5 50.3 19.75
-4 -4 5 54.01 20.14
4 4 -5 65.98 26.2
4 4 -4 -1.35 6.61
-4 -4 4 -2.47 5.92
4 4 -4 -8.67 12.69
-4 -4 4 -11.23 13.88
-4 -4 3 136.87 23.98
4 4 -3 155.34 29.44
-4 -4 2 385.11 40.45
4 4 -2 435.32 42.18
4 4 -2 404.26 42.5
4 4 -2 309 41.65
-4 -4 1 37.66 13.63
4 4 -1 23.1 13.19
4 4 -1 27.44 10.72
4 4 -1 25.62 13.55
4 4 0 170.14 24.95
4 4 0 190.99 25.77
4 4 0 187.46 27.95
4 4 0 158.92 27.21
4 4 1 232.39 28.12
4 4 1 223.18 32.4
4 4 1 216.17 27.39
4 4 1 274.48 33.68
4 4 2 235.48 29.31
4 4 2 216.37 27.98
4 4 2 266.89 31.35
4 4 2 232.16 28.72
-4 -4 -2 249.76 18.48
4 4 3 7.99 9.64
-4 -4 -3 11.39 7.14
4 4 3 -19.05 13.44
4 4 3 6.16 8.39
-4 -4 -4 1.47 5.07
4 4 4 3.46 10.17
4 4 4 5.84 2.76
4 4 4 15.86 9.98
-4 -4 -5 49.77 14.14
4 4 5 73.98 22.35
4 4 5 53.57 15.53
4 4 5 39.56 11.28
4 4 6 130.59 25.68
-4 -4 -6 114.96 22.02
4 4 6 98.95 18.6
4 4 6 97.37 17.08
-4 -4 -7 241.19 35.52
4 4 7 344.22 50.27
4 4 7 286.19 33.86
4 4 7 262.56 28.79
-4 -4 -8 -14.09 14.91
4 4 8 23.63 15.94
4 4 8 -1.28 6.23
-4 -4 -9 21.91 8.43
4 4 9 22.37 9.47
4 4 9 18.09 18.14
-4 -4 -10 -5.01 11.97
4 4 10 -8.62 10.82
-4 -4 -11 5.52 21.64
4 4 11 5.98 12.38
-4 -4 -12 2.14 14.38
4 4 12 10.06 14.2
-4 -4 -13 24.2 16.35
4 4 13 33.74 29.58
-4 -4 -14 -16.57 15.87
4 4 14 15.44 22.74
-4 -4 -15 50.12 12.97
4 4 15 72.06 33.82
-4 -5 10 -2.71 9.8
-4 -5 10 -2.2 19.48
-4 -5 9 6.65 10.32
4 5 -9 -7.9 24.15
-4 -5 9 -7.55 7.87
-4 -5 8 38.33 14.9
4 5 -8 46.66 21.46
-4 -5 8 22.56 17.22
-4 -5 7 29.95 15.18
4 5 -7 69.18 29.48
-4 -5 7 21.39 16.45
-4 -5 6 164.17 37.43
4 5 -6 160.04 37.66
-4 -5 6 187.01 39
-4 -5 5 129.15 30.38
4 5 -5 125.99 31.5
-4 -5 5 93.26 24.7
4 5 -4 50.47 18.96
-4 -5 4 44.22 17.52
4 5 -3 56.03 19.75
-4 -5 3 66.92 18.38
4 5 -3 16.15 6.97
-4 -5 2 802.34 60.77
4 5 -2 862.73 68.09
4 5 -2 750.16 56
4 5 -1 -11.79 15.9
4 5 -1 -8.89 9.05
4 5 0 11.38 13.08
4 5 0 -0.07 5.79
4 5 1 238.13 35.72
4 5 1 235.52 31.23
4 5 1 223.01 30.43
4 5 1 223.49 32.07
4 5 2 171.12 25.87
4 5 2 183.35 30.12
4 5 2 134.55 24.38
4 5 2 147.82 15.93
4 5 2 165.88 28.81
-4 -5 -3 6.29 4.29
4 5 3 11.32 4.53
4 5 3 16.02 7.5
4 5 3 -12.6 14.79
4 5 3 -10.49 12.09
4 5 3 -3.73 6.24
-4 -5 -4 -7.22 7.67
4 5 4 -4.21 7.25
4 5 4 0.95 8.81
4 5 4 26.93 16.93
4 5 4 9.81 10.57
4 5 4 6.07 3.18
4 5 5 239.82 32.08
4 5 5 214.42 19.01
4 5 5 251.45 31.36
4 5 5 233.8 29.92
-4 -5 -5 202.33 26.36
-4 -5 -6 -1.01 11.42
4 5 6 1.35 4.9
4 5 6 1.28 5.94
-4 -5 -7 -8.74 15.01
4 5 7 -3.33 11.53
4 5 7 5.1 6.68
4 5 7 -16.23 16.76
-4 -5 -8 230.53 35.74
4 5 8 231.77 40.39
4 5 8 197.6 29.64
-4 -5 -9 91.72 24.09
4 5 9 122.46 31.92
4 5 9 82.77 19.94
-4 -5 -10 128.55 31.93
4 5 10 178.94 41.11
-4 -5 -11 56.33 23.31
4 5 11 57.12 21.65
-4 -5 -12 35.89 19.61
4 5 12 73.23 30.19
-4 -5 -13 18.42 18.81
4 5 13 17.12 28.66
-4 -5 -14 101.85 35.85
4 5 14 79.38 38.29
-4 -5 -15 122.43 46.76
4 5 15 91.28 45.83
-4 -6 9 24.82 20.05
-4 -6 9 -35.6 20.37
4 6 -8 10.94 22.79
-4 -6 8 24.25 19.56
-4 -6 8 6.68 20.82
-4 -6 7 17.79 16.11
-4 -6 7 -19.15 14.74
4 6 -7 5.33 18.27
4 6 -6 -10.85 12.52
-4 -6 6 13.43 14.71
-4 -6 6 0.92 7.84
-4 -6 5 2.89 15.1
4 6 -5 28.9 18.32
-4 -6 4 93.53 25.43
4 6 -4 98.55 28.64
-4 -6 3 821.41 69
4 6 -3 922.77 80.07
-4 -6 2 882.35 68.07
4 6 -2 766.24 61.66
4 6 -2 810.65 72.45
4 6 -1 43.11 14.37
4 6 -1 42.69 17.88
-4 -6 1 35.5 11.7
4 6 0 47.91 35.9
4 6 0 26.88 15.36
4 6 1 176.27 25.02
4 6 1 154.31 26.68
4 6 1 191.44 33
4 6 2 39.8 10.47
4 6 2 44.11 10.4
4 6 2 50.84 20.08
4 6 2 55.73 15.39
4 6 3 -4.72 6.21
4 6 3 9.64 11.23
4 6 4 43.8 9.35
4 6 4 27.48 16.37
-4 -6 -4 35.35 10.04
4 6 4 49.3 15.07
4 6 4 33.08 10.82
-4 -6 -5 44.32 14.02
4 6 5 48.42 14.45
4 6 5 63.79 15.46
4 6 5 71.85 12.29
-4 -6 -6 25.51 8.69
4 6 6 43.4 18.91
4 6 6 32.13 11.21
-4 -6 -7 57.61 14.52
4 6 7 76.62 23.86
4 6 7 48.13 14.93
4 6 7 40.81 13.22
-4 -6 -8 271.97 39.15
4 6 8 305.24 47.01
4 6 8 301.63 38.74
-4 -6 -9 -27.31 13.94
4 6 9 8.15 11.51
-4 -6 -10 50.64 16.94
4 6 10 49.16 18.91
-4 -6 -11 16.48 13.31
4 6 11 22.24 16.36
-4 -6 -12 -0.05 10.84
4 6 12 20.62 22.31
-4 -6 -13 22.48 14.04
4 6 13 43.7 28.68
-4 -6 -14 143.24 45
4 6 14 170.1 49.4
-4 -6 -15 162.94 45.8
4 6 15 209.49 54.37
-4 -7 8 -15.76 14.02
-4 -7 8 -8.73 19.29
-4 -7 7 2.11 7.9
4 7 -7 2.27 19.09
-4 -7 7 22.65 19.85
-4 -7 6 23.05 21.81
4 7 -6 -2.75 15.76
-4 -7 6 -14.49 21.26
-4 -7 5 69.72 30.51
4 7 -5 75.99 29.04
-4 -7 4 17.97 11.07
4 7 -4 -3.81 17.25
-4 -7 3 144.64 31.72
4 7 -3 183.93 40.37
4 7 -2 344.82 51.17
-4 -7 2 345.93 47.11
4 7 -1 72.04 21.67
4 7 0 9.77 10.03
4 7 0 -5.74 7.52
-4 -7 0 -0.2 10.96
4 7 1 1.37 11.26
4 7 1 -7.98 12.89
4 7 1 -7.07 6.65
4 7 1 0.73 9.39
-4 -7 -1 -6.67 9.24
4 7 2 39.08 15.37
4 7 2 33.51 10.97
4 7 2 49.91 13.63
4 7 2 68.52 22.02
4 7 3 201.01 29.38
4 7 3 170.4 27.49
4 7 3 195.4 24.17
4 7 3 201.35 33.91
4 7 4 125.32 23.55
4 7 4 169.56 31.34
4 7 4 139.46 26.39
4 7 5 11.14 8.48
4 7 5 9.78 9.25
4 7 5 0.32 8.58
4 7 6 24.91 14.57
-4 -7 -6 4.47 6.3
4 7 6 16.52 9.56
4 7 7 363.21 48.42
4 7 7 332.79 44.66
-4 -7 -7 298.81 38.6
-4 -7 -8 11.03 10.92
4 7 8 3.96 9.99
-4 -7 -9 31.95 16.64
4 7 9 35.15 20.04
-4 -7 -10 -4.64 15.21
4 7 10 13.6 13.35
-4 -7 -11 -7.66 14.8
4 7 11 -9.35 22.55
-4 -7 -12 -21.95 17.94
4 7 12 408.24 69.23
-4 -7 -13 -7.56 14.01
4 7 13 -28.29 23.43
-4 -7 -14 -19 12.87
4 7 14 -12.21 18.06
-4 -7 -15 5.47 24.38
4 7 15 33.97 16.09
-4 -8 7 -13.55 15.89
-4 -8 7 -26.11 16.43
-4 -8 6 -6.3 8.48
4 8 -6 11.84 19.4
-4 -8 6 -17.63 10.49
-4 -8 5 36.04 18.11
4 8 -5 32.82 23.45
-4 -8 4 47.63 22.81
4 8 -4 30.31 15.99
-4 -8 3 -2.26 8.78
4 8 -3 0.5 9.49
-4 -8 2 45.23 21.3
4 8 -2 45.03 24.46
4 8 -1 25.07 12.57
4 8 0 20.78 15.4
4 8 1 8.55 14.9
4 8 1 -1.98 16.37
-4 -8 -1 9.21 10.42
4 8 2 145.42 31.6
-4 -8 -2 153.06 33.14
4 8 2 148.28 28.48
4 8 3 754.98 63.85
4 8 3 759.64 71.35
-4 -8 -3 694.37 71.13
4 8 4 139.36 29.54
4 8 4 109.19 27.73
4 8 5 179.52 31.69
4 8 5 167.99 33.75
4 8 6 55.65 21.84
4 8 7 0.38 9.5
4 8 8 -2.96 21.06
-4 -8 -9 20.7 18.4
4 8 9 4.5 10.08
4 8 10 0.41 11.88
-4 -8 -10 4.79 10.45
-4 -8 -11 -3.56 12.92
4 8 11 -5.73 9.94
-4 -8 -12 17.28 16.89
4 8 12 56.17 35.98
-4 -8 -13 72.99 30.31
4 8 13 75.6 31.53
-4 -8 -14 5.1 19.45
4 8 14 23.74 22.12
-4 -8 -15 -29.75 33.12
-4 -9 6 77.89 30.65
-4 -9 6 77.57 31.15
-4 -9 5 25.63 13.92
4 9 -5 46.06 25.76
-4 -9 4 12.98 11.29
4 9 -4 11.89 17.06
4 9 -3 40.59 26.21
-4 -9 3 46.24 16.99
-4 -9 2 32.65 13.12
4 9 -2 32.89 24.89
4 9 -1 143.41 36.53
4 9 0 96.27 30.73
4 9 1 43.13 21.55
-4 -9 -1 30.32 15.41
4 9 2 11.62 15.35
4 9 2 17.09 15.26
-4 -9 -2 -2.25 6.63
4 9 3 210.07 41.13
4 9 3 149.97 29.22
-4 -9 -3 133.12 37.85
4 9 4 118.2 28.71
4 9 4 113.29 29.81
-4 -9 -4 95.92 32.51
4 9 5 309.25 43.09
4 9 5 353.97 50.93
-4 -9 -5 331.89 53.7
4 9 6 4.87 8.59
4 9 7 4.21 11.86
4 9 8 117.83 33.09
4 9 9 84.33 22.55
4 9 10 43.35 24.59
4 9 11 15.69 17.52
4 9 12 22.59 14.98
4 9 13 28.68 13.27
-4 -9 -13 51.36 32.91
-4 -9 -14 9.61 10.44
-4 -9 -14 -5.6 12.92
-4 -9 -15 -9.49 23.38
-4 -9 -15 -78.11 34.77
-4 -10 4 -8.09 15.33
-4 -10 3 55.96 27.12
4 10 -3 60.61 23.36
-4 -10 2 -3.38 13.12
4 10 -2 31.75 18.25
4 10 -1 15.82 15.53
4 10 0 18 11.69
4 10 1 9.36 15.3
4 10 2 85.04 29.98
-4 -10 -2 47.18 21.14
4 10 3 2.45 12.18
4 10 3 16.21 13.91
-4 -10 -3 37.29 23.76
4 10 4 -5.13 7.13
4 10 4 0.97 12.46
-4 -10 -4 14.63 12.78
4 10 5 2.77 10.71
4 10 5 19.59 17.39
-4 -10 -5 3.97 14.67
4 10 6 75.07 23.81
-4 -10 -6 63.59 29.66
4 10 7 31.09 18.95
-4 -10 -7 29.06 29.03
-4 -10 -8 163.18 46.5
4 10 8 115.94 30.36
4 10 9 5.34 7.95
-4 -10 -9 10.99 15.9
4 10 10 14.69 20.4
-4 -10 -10 6.43 24.6
4 10 11 33.07 16.62
-4 -10 -11 45.03 26.15
4 10 12 11.62 9.97
-4 -10 -12 29.35 29.32
4 10 13 159.78 43.37
-4 -10 -13 55.06 36.54
-4 -10 -14 46.73 30.23
-4 -11 3 -0.1 20.79
-4 -11 2 26.85 21.59
4 11 -2 26.79 26.06
4 11 -1 -9.51 9.19
4 11 0 101.31 35
4 11 1 16.28 18.09
4 11 2 -8.7 14.6
4 11 3 47.16 20.43
-4 -11 -3 46.42 33.09
4 11 4 10.21 9.61
-4 -11 -4 -19.09 17.07
4 11 5 11.62 10.72
4 11 5 4.33 10.03
-4 -11 -5 17.11 15.41
4 11 6 65.9 20.81
-4 -11 -6 117.04 40.29
4 11 7 127.97 35.52
-4 -11 -7 98.15 37.9
-4 -11 -8 11.45 18.32
4 11 8 -38.23 23.73
4 11 9 -17.47 21.91
-4 -11 -9 29.05 18.76
4 11 10 13.68 15.5
-4 -11 -10 -2.32 23.32
4 11 11 61.56 29.22
-4 -11 -11 1.71 24.56
-4 -11 -12 9.18 26.07
4 11 12 45.87 28.59
-4 -11 -13 78.54 53.43
-4 -12 1 6.66 10.28
4 12 1 138.59 41.25
4 12 2 129.04 41.14
4 12 3 75.12 28.89
4 12 4 24.66 21.24
-4 -12 -4 8.61 20.49
4 12 5 210.88 48.68
-4 -12 -5 134.51 45.74
-4 -12 -6 16.06 28.86
-4 -12 -7 82.06 33.12
-4 -12 -8 96.98 40.79
-4 -12 -9 146.94 47.7
4 12 9 97.46 31.97
4 12 10 -11.04 25.05
-4 -12 -10 -19.38 17.76
4 12 11 -28 18.67
-4 -12 -11 23.23 23.81
-4 -12 -12 30.81 51.33
4 13 5 5.7 16.36
-4 -13 -5 8.72 26.27
-4 -13 -6 73.89 35.55
-4 -13 -7 60.33 31.23
-4 -13 -8 11.08 22.66
-4 -13 -9 -8.92 17.37
-4 -13 -10 -16.99 20.32
-5 11 8 117.75 40.96
5 -11 -8 46.05 37.21
-5 11 7 144.23 43.84
5 -11 -7 75.92 35.54
5 -11 -6 -2.37 11.72
-5 11 6 47.12 23.53
5 -11 -5 0.31 11.36
-5 11 5 2.22 16.77
5 -11 -4 27.37 18.23
-5 11 4 59.85 23.35
-5 11 3 -11.29 16.57
5 -11 -3 12.94 13.07
-5 11 2 -33.32 26.77
5 -11 -2 -4.03 13.84
-5 11 1 -11.29 22.11
5 -11 -1 -11.73 12.63
-5 11 0 47.93 30.1
5 -11 0 19.87 16.66
-5 11 -1 -17.69 33.12
5 -11 1 4.02 12.42
5 -11 2 -16.68 16.71
5 -10 -10 15.31 17.06
-5 10 9 105.28 36.51
5 -10 -9 35.19 32.16
-5 10 8 141.19 46.91
5 -10 -8 107.79 35.18
-5 10 7 47.22 20.7
5 -10 -7 40.87 24.06
-5 10 6 7.17 15.11
5 -10 -6 11.35 11.39
5 -10 -5 22.76 19.92
-5 10 5 28 20.29
5 -10 -4 102.01 41.27
-5 10 4 102.52 36.25
5 -10 -3 48.89 29.08
-5 10 3 26.09 12.73
-5 10 2 13.29 13.45
5 -10 -2 13.97 14.25
-5 10 1 28.26 24.46
5 -10 -1 12.79 16.28
-5 10 0 121.11 38.29
5 -10 0 115.09 36.54
-5 10 -1 -20.46 23.5
5 -10 1 -0.35 8.5
-5 10 -2 -0.17 21.98
5 -10 2 -7.12 15.86
-5 10 -3 23.6 13.22
5 -10 3 43.81 27
-5 10 -4 28.78 28.35
-5 9 11 -65.12 28.35
-5 9 10 0.88 16.79
-5 9 10 2.82 23.1
-5 9 9 43.2 21.19
5 -9 -9 9.8 11.49
-5 9 8 61.77 29.12
5 -9 -8 57.19 16.71
-5 9 7 12.03 8.69
5 -9 -7 19.22 14.69
-5 9 6 37.86 21.94
5 -9 -6 27.39 29.55
-5 9 5 64.67 26.27
5 -9 -5 8.66 11.43
-5 9 4 91.13 30.88
5 -9 -4 71.43 32.51
5 -9 -3 77.34 32.03
-5 9 3 45.71 21.84
5 -9 -2 147.77 38.57
-5 9 2 148.89 36.75
-5 9 1 6.45 15.46
5 -9 -1 1.04 14.17
-5 9 0 14.95 18.56
5 -9 0 -37.91 19.64
-5 9 -1 14.52 11.12
5 -9 1 14.6 10.5
-5 9 -2 -2.97 11.61
5 -9 2 3.68 12.67
-5 9 -3 -2.68 10.36
5 -9 3 15.54 16.68
-5 9 -4 46.77 31.15
5 -9 4 41.92 25.3
-5 9 -5 4.65 20
-5 9 -6 -25.56 29.28
-5 8 12 -26 31.43
-5 8 11 -1.66 25.11
-5 8 11 11.97 19.32
-5 8 10 166.55 43.7
-5 8 10 193.07 51.26
-5 8 9 60.6 25.92
-5 8 9 58.82 30.36
5 -8 -9 64.25 27.76
-5 8 8 51.98 28.67
-5 8 8 28.68 10.14
5 -8 -8 -1.12 10.06
-5 8 7 0.54 12.66
-5 8 7 28.58 18.93
5 -8 -7 27.88 25.12
-5 8 6 31.58 19.13
-5 8 6 28.01 18.19
5 -8 -6 18.33 14.63
-5 8 5 11.63 15.69
5 -8 -5 -13.49 18.25
-5 8 4 -9.4 11.86
5 -8 -4 -21.32 16.33
-5 8 3 207.83 42.98
5 -8 -3 134.73 33.44
5 -8 -2 162.76 38.3
-5 8 2 173.82 39.3
5 -8 -1 59.9 24.49
-5 8 1 51.7 23.96
-5 8 0 12.73 13.51
5 -8 0 -8.98 11.94
-5 8 -1 125.92 35.35
5 -8 1 87.62 26
-5 8 -2 102.51 34.04
5 -8 2 91.66 27.89
-5 8 -3 -30.6 17.82
5 -8 3 -6.98 10.67
-5 8 -4 108.51 36.95
5 -8 4 97.43 33.52
-5 8 -5 53.58 30.59
5 -8 5 23.78 17.35
-5 8 -6 0.54 12.11
-5 7 12 -14.55 26.99
-5 7 12 8.9 17.64
-5 7 11 45.29 26.02
-5 7 11 26.42 8.35
-5 7 10 55.77 27.92
-5 7 10 67.11 27.47
-5 7 9 21.27 12.6
-5 7 9 2.03 13.71
-5 7 8 -12.13 20.91
-5 7 8 20.6 13.98
5 -7 -8 2.94 14.58
-5 7 7 23.18 10.79
-5 7 7 24.5 22.87
5 -7 -7 6.07 11.48
-5 7 6 11.09 11.8
-5 7 6 8.04 12.88
5 -7 -6 37.61 23.1
-5 7 5 14.75 20.36
-5 7 5 7.44 11.06
5 -7 -5 13.45 11.58
-5 7 4 59.55 24.09
-5 7 4 58.25 22.62
5 -7 -4 54.39 20.54
-5 7 3 39.87 16.61
-5 7 3 52.53 25.19
5 -7 -3 17.14 10.87
-5 7 2 13.42 9.21
5 -7 -2 21.79 16.19
-5 7 1 404.14 55.97
5 -7 -1 473.33 58.2
-5 7 0 438.19 59.56
5 -7 0 476.58 60
-5 7 -1 125.42 35.04
5 -7 1 105.59 29.5
-5 7 -2 329.15 57.5
5 -7 2 335.8 49.56
-5 7 -3 -7.9 7.44
5 -7 3 3.7 14.09
-5 7 -4 0.53 15.8
5 -7 4 17.82 8.71
-5 7 -5 60.49 33.04
-5 7 -5 33.02 17.5
5 -7 5 68.12 23.61
-5 7 -5 64.77 28.57
-5 7 -6 37.73 19.63
-5 7 -6 36.94 22.75
5 -7 6 29.77 15.93
-5 7 -7 0.67 16.93
-5 7 -8 -12.76 8.87
-5 6 12 10.11 18.39
-5 6 12 -27.38 18.07
-5 6 11 5.93 19.2
-5 6 11 36.35 23.67
-5 6 10 18.56 20.09
-5 6 10 12.27 16.87
-5 6 9 5.18 10.31
-5 6 9 17.39 12.99
-5 6 8 28 16.94
-5 6 8 37.53 19.29
-5 6 8 32.06 20.48
5 -6 -8 18.97 9.92
-5 6 7 37.47 18.41
-5 6 7 8.59 14.14
-5 6 7 32.06 21.95
5 -6 -7 29.72 15.73
-5 6 6 106.26 26.55
-5 6 6 99.24 28.76
5 -6 -6 99.7 22.44
5 -6 -6 87.3 25.45
-5 6 5 166.28 35.72
-5 6 5 170.23 37.27
5 -6 -5 177.4 36.8
-5 6 4 2.48 11.33
-5 6 4 7 8.72
5 -6 -4 4.53 7.48
-5 6 3 1.61 8.66
-5 6 3 2.68 6.19
5 -6 -3 5.38 9.32
-5 6 2 288.94 44.74
5 -6 -2 262.53 44.98
-5 6 2 325.36 47.7
-5 6 1 2066.67 118.54
5 -6 -1 2061.74 117.08
-5 6 0 882.54 79.55
5 -6 0 815.41 73.96
-5 6 -1 8.46 9.38
5 -6 1 -16.16 13.4
-5 6 -2 -2.11 9.52
5 -6 2 2.98 8.57
-5 6 -3 15.29 10.36
-5 6 -3 7.09 10.31
5 -6 3 -7.82 12.29
-5 6 -4 45.22 25.76
-5 6 -4 29.71 16.1
5 -6 4 9.93 8.68
-5 6 -5 32.92 21.13
-5 6 -5 18.67 9.12
5 -6 5 37.91 21.52
-5 6 -6 -1.35 16.53
-5 6 -6 21.65 16.02
5 -6 6 -0.66 6.06
-5 6 -6 25.67 18.45
-5 6 -7 -9.4 18.05
-5 6 -7 2.63 20.65
-5 6 -7 29.55 17.1
-5 6 -8 22.76 17.11
-5 6 -8 -13.96 18.33
-5 6 -9 1.36 17.61
-5 6 -9 11.67 19.19
-5 5 12 -14.39 17.11
-5 5 12 14.8 23.81
-5 5 11 92.75 29.98
-5 5 11 73.16 30.58
-5 5 10 136.09 35.64
-5 5 10 163.8 44.03
-5 5 9 -15.26 11.91
-5 5 9 -3.32 10.79
-5 5 8 29.56 23.79
-5 5 8 -31.19 19.15
-5 5 7 21.24 13.06
-5 5 7 -12.65 14.91
5 -5 -7 12.57 11.95
-5 5 6 172.6 34.75
-5 5 6 157.96 37.91
-5 5 6 200.57 37.53
5 -5 -6 199.81 36.13
5 -5 -6 187.59 32.58
5 -5 -5 347.02 46.17
-5 5 5 272.78 45.55
-5 5 5 292.89 44.74
-5 5 5 306.34 47.01
5 -5 -5 327.93 40.56
-5 5 4 -4.94 12.29
-5 5 4 25.12 13.3
5 -5 -4 14.97 10.15
-5 5 3 64.23 19.69
-5 5 3 49.47 19.64
5 -5 -3 52.61 21.46
-5 5 2 188.04 32.48
-5 5 2 215.07 36.9
5 -5 -2 190.25 37.05
-5 5 1 1953.88 105.45
5 -5 -1 1930.66 104.64
-5 5 1 1978.1 112.19
-5 5 0 385.23 47.27
5 -5 0 402.46 48.39
5 -5 1 76.26 25.14
-5 5 -1 106.69 26.56
-5 5 -2 23.49 13.87
-5 5 -2 23.85 10.43
5 -5 2 19.4 13.89
-5 5 -3 105.7 30.72
-5 5 -3 69.04 16.39
5 -5 3 66.76 24.05
-5 5 -4 129.77 33.47
-5 5 -4 104.68 22.94
5 -5 4 123.66 31.6
-5 5 -5 26.1 19.38
-5 5 -5 10.28 11.16
5 -5 5 16.62 11.82
-5 5 -6 16.04 12.54
-5 5 -6 4.34 7.47
5 -5 6 -1.12 9.68
-5 5 -6 15.22 16.31
-5 5 -7 6.16 16.31
-5 5 -7 11.88 16.67
-5 5 -7 -2.27 14.6
-5 5 -8 -28.13 19.9
-5 5 -8 10.71 21.83
-5 5 -9 32.77 18.9
-5 5 -9 13.23 14.79
-5 5 -10 4.21 17.31
-5 5 -10 7.13 16.43
-5 5 -11 17.53 18.68
5 -4 -13 -12.63 14.03
5 -4 -12 26.12 20.55
-5 4 12 5.07 20.6
-5 4 12 19.02 10.12
5 -4 -11 124.44 39.47
-5 4 11 62.89 22.15
-5 4 11 94.86 32.68
-5 4 10 135.58 36.25
5 -4 -10 141.63 46.75
-5 4 10 127.45 39.4
5 -4 -9 -8.19 17.37
-5 4 9 -1.34 8.98
-5 4 8 17.19 17.55
-5 4 8 33.54 17.47
-5 4 7 58.29 17.98
-5 4 7 42.35 21.03
5 -4 -7 54.53 18.26
5 -4 -6 4.56 7.62
-5 4 6 34.81 21.86
-5 4 6 0.58 14.71
5 -4 -6 6.32 8.61
-5 4 5 120.79 26.56
-5 4 5 127.2 30.78
5 -4 -5 91.97 22.72
5 -4 -5 122.57 24
-5 4 4 8.11 13.31
-5 4 4 -5.17 12.71
-5 4 4 5.17 9.16
5 -4 -4 -4.33 11.95
5 -4 -4 10.91 8.31
5 -4 -3 28.41 17.21
-5 4 3 26.56 13.72
-5 4 3 6.19 7.01
-5 4 3 27.94 15.27
5 -4 -2 71 19.96
-5 4 2 101.14 25.85
-5 4 2 92.09 22.19
-5 4 1 13.24 10.29
-5 4 1 1.44 6.97
5 -4 -1 2.58 8.5
-5 4 0 42.25 11.27
-5 4 0 50.6 14.5
5 -4 0 75.02 21.06
-5 4 -1 94.61 24.39
-5 4 -1 70.48 12.17
5 -4 1 79.39 22.84
-5 4 -1 88.25 22.12
-5 4 -2 115.58 25.89
-5 4 -2 115.4 18.44
5 -4 2 115.37 23.95
-5 4 -3 84.33 20.99
-5 4 -3 76.86 16.94
5 -4 3 93.85 23.75
-5 4 -4 13.53 6.93
5 -4 4 13.73 6.55
-5 4 -5 114.88 33.91
5 -4 5 123.57 28.36
-5 4 -6 10.46 13.55
-5 4 -6 28.36 9.24
-5 4 -7 23 15.59
-5 4 -7 14.08 19.86
-5 4 -8 125.73 35.34
-5 4 -9 8.03 13.92
-5 4 -10 -18.5 24.2
-5 4 -11 -3.86 12.58
-5 4 -12 38.96 27.44
5 -3 -13 13.82 21.79
-5 3 12 53.12 25.5
5 -3 -12 119.86 45
-5 3 12 69.04 28.92
-5 3 11 25.71 16.17
5 -3 -11 19.37 22.96
-5 3 11 -7.96 14.6
5 -3 -10 87.51 29.65
-5 3 10 69.13 26.36
-5 3 10 69.35 28.53
-5 3 9 60.8 24.96
5 -3 -9 48.54 25.44
-5 3 9 81.04 31.98
-5 3 8 16.85 9.93
5 -3 -8 29.15 22.96
-5 3 8 40.45 18.6
-5 3 7 2.5 8.91
-5 3 7 7.62 12.82
-5 3 6 -10.58 12.11
5 -3 -6 24.39 10.59
-5 3 6 13.77 11.81
5 -3 -6 10.34 9.87
-5 3 5 331.12 43.46
5 -3 -5 312.63 36.81
5 -3 -5 301.86 36.48
-5 3 5 315.43 42.66
-5 3 4 619.79 58.16
5 -3 -4 555.51 49.67
5 -3 -4 575.91 51.11
-5 3 4 550.46 55.4
-5 3 3 29.12 12.59
-5 3 3 62.28 17.38
-5 3 3 54.34 18.16
5 -3 -3 79.9 20.96
5 -3 -3 62.73 17.3
-5 3 2 9.75 9
-5 3 2 12.88 8.88
-5 3 2 -2.25 14.34
5 -3 -2 35.35 15.08
-5 3 1 60.56 16.91
-5 3 1 98.75 21.12
5 -3 -1 72.28 15.69
-5 3 0 22.32 16.67
-5 3 0 18.54 10.78
5 -3 0 -0.11 6.62
-5 3 -1 90.55 20.7
-5 3 -1 46.83 9.8
5 -3 1 42 17.99
-5 3 -1 64.96 18.1
-5 3 -2 14.9 9.09
-5 3 -2 2.06 7.04
-5 3 -2 19.21 7.87
5 -3 2 23.82 14.54
-5 3 -3 189.91 31.92
5 -3 3 199.56 33.13
-5 3 -4 27.98 17.47
5 -3 4 18.37 11.98
-5 3 -5 17.59 12.99
5 -3 5 10.73 13.13
-5 3 -6 75.16 27.67
-5 3 -6 96.37 25.75
-5 3 -7 9.01 16.99
-5 3 -8 48.24 22.9
-5 3 -9 28.74 20.39
-5 3 -10 20.91 17.23
-5 3 -11 -5.79 16.7
-5 3 -12 -5.66 17.43
5 -2 -13 12.7 27.48
5 -2 -12 61.34 32.36
-5 2 12 14.44 12.57
-5 2 12 82.89 33.73
-5 2 11 6.38 10.67
-5 2 11 -6.56 18.77
5 -2 -11 -4.99 12.13
-5 2 10 13.91 20.17
5 -2 -10 9.77 11.95
-5 2 10 -4.77 12.51
-5 2 9 -7.55 12.66
5 -2 -9 -0.69 13.14
-5 2 9 18.53 14.93
-5 2 8 -7.32 13.23
5 -2 -8 -7.78 15.67
-5 2 8 9.23 10.79
-5 2 7 0.36 12.7
5 -2 -7 2.55 11.97
-5 2 7 9.09 7.65
-5 2 6 -6.87 13.67
-5 2 6 -6.36 8.38
5 -2 -6 -5.7 9.69
-5 2 5 9.13 10.67
5 -2 -5 -1.05 5.57
5 -2 -5 0.74 6.08
-5 2 5 -18.17 14.66
-5 2 4 159.31 28.2
5 -2 -4 149.97 26.46
-5 2 4 184.74 28.98
5 -2 -4 154.03 21.71
5 -2 -3 10.11 8.08
-5 2 3 18.98 11.34
-5 2 3 18.77 12.48
5 -2 -3 16.64 9.34
-5 2 2 4.34 11.67
-5 2 2 0.94 8
-5 2 2 16.46 13.38
5 -2 -2 -2.01 6.53
5 -2 -2 22.43 10.59
-5 2 1 18.83 7.66
-5 2 1 25.46 7.97
-5 2 1 61.73 16.42
5 -2 -1 39.89 14.35
5 -2 -1 24.64 11.6
-5 2 0 64.98 17.04
-5 2 0 71.97 15.76
5 -2 0 75.69 18.65
-5 2 -1 29.96 5.77
-5 2 -1 43.15 11.9
5 -2 1 59.75 16.32
5 -2 2 33.83 6.56
-5 2 -2 54 14.5
5 -2 2 48.12 17.37
-5 2 -2 49.36 14.86
-5 2 -3 132.54 24.81
5 -2 3 159.36 14.71
5 -2 3 105.06 26.8
-5 2 -4 -1.83 7.28
5 -2 4 27.9 11.23
5 -2 5 283.99 25.2
-5 2 -5 241.87 40.06
-5 2 -6 -21.3 17.56
-5 2 -6 -8.96 8.5
-5 2 -7 223.13 40.5
-5 2 -8 92.97 28.35
-5 2 -9 107.52 31.39
-5 2 -10 48.32 23.53
-5 2 -11 61.96 31.18
-5 2 -12 30.12 19.92
-5 2 -13 23.01 14.22
-5 1 12 9.51 14.79
5 -1 -12 12.92 21.47
-5 1 12 19.23 10.24
-5 1 11 29.05 21.87
5 -1 -11 11.56 16.24
-5 1 11 -6.85 15.82
-5 1 10 8.04 7.32
5 -1 -10 -7.54 8.81
-5 1 9 119.09 32.34
5 -1 -9 112.38 35.95
-5 1 9 128.03 33.66
-5 1 8 -8.16 8.16
5 -1 -8 7.47 14.85
-5 1 8 23.78 17.4
-5 1 7 194.28 36.15
5 -1 -7 273.08 47.32
-5 1 7 227.07 39.14
-5 1 6 46.31 17.73
5 -1 -6 37.32 14.18
5 -1 -6 24.71 14.99
-5 1 6 29.23 13.43
-5 1 5 -0.47 7.36
-5 1 5 3.43 12.39
5 -1 -5 11.12 8.43
5 -1 -5 0.05 5.38
-5 1 4 20.03 9.61
5 -1 -4 34.31 13.07
-5 1 4 26.72 10.21
5 -1 -4 16.53 10.15
-5 1 3 194.68 29.14
5 -1 -3 228.12 30.62
-5 1 3 239.51 30.18
5 -1 -3 233.32 25.98
-5 1 2 7.98 5.7
5 -1 -2 -6.1 8.54
-5 1 2 -1.64 11.51
5 -1 -2 -5.18 5.98
-5 1 1 217.69 27.45
-5 1 1 228.54 25.71
5 -1 -1 229.15 27.86
-5 1 1 192.81 24.94
5 -1 -1 246.13 30.12
-5 1 0 42.61 15.66
-5 1 0 74.08 15.72
-5 1 0 62.31 12.27
5 -1 0 56.88 16.41
5 -1 0 53.79 14.1
-5 1 -1 20.54 10.83
-5 1 -1 18.21 8.81
5 -1 1 19.63 15.73
5 -1 1 18.93 9.54
5 -1 2 185.34 20.02
-5 1 -2 215.12 26.13
-5 1 -2 179.6 22.92
5 -1 2 164.74 27.41
5 -1 2 172.96 25.61
-5 1 -3 26.64 11.25
-5 1 -3 15.87 10.16
5 -1 3 15.69 6.86
5 -1 3 10.26 9.78
-5 1 -4 5.09 7.12
5 -1 4 -2.27 5.1
5 -1 5 204.53 24
-5 1 -5 163.36 28.82
5 -1 6 80.39 19.63
-5 1 -6 7.51 8.8
-5 1 -7 32.49 10.82
5 -1 7 55.41 13.66
-5 1 -8 1.35 13.29
5 -1 8 26.31 13.75
-5 1 -9 414.08 59.59
-5 1 -10 63.84 27.01
-5 1 -11 264.31 54.2
-5 1 -12 30.49 27.65
-5 1 -13 50.27 33.78
-5 0 12 -26.05 11.34
-5 0 12 18.36 15.3
-5 0 11 -10.9 9.08
-5 0 11 -1.18 13.55
5 0 -11 13.96 18.39
-5 0 10 -1.22 13.66
-5 0 10 24.24 15.49
5 0 -10 22.89 20.3
-5 0 9 21.13 11.41
5 0 -9 90.96 35.55
-5 0 9 61.59 27.61
-5 0 8 154.45 38.16
5 0 -8 151.81 36.85
-5 0 8 151.55 34.48
-5 0 7 44.9 17.1
5 0 -7 75.62 26.67
-5 0 7 57.49 22.69
-5 0 6 24.57 12.26
-5 0 6 12.04 10.54
5 0 -6 18.99 11.17
5 0 -6 32.58 12.51
5 0 -6 35.55 18.52
-5 0 5 -8.02 12.05
5 0 -5 -1.13 6.59
5 0 -5 -0.99 12.62
5 0 -5 -9.7 10.42
-5 0 5 -3.9 9.3
5 0 -5 12.52 8.09
-5 0 4 27.85 9.14
5 0 -4 17.47 8.11
-5 0 4 47.64 17.72
5 0 -4 28.28 9.77
5 0 -4 25.1 13.27
-5 0 3 28.29 13.94
-5 0 3 32.94 11.6
5 0 -3 22.04 6.86
5 0 -3 27.16 10.03
-5 0 2 21.57 10.82
5 0 -2 18.64 8.14
5 0 -2 17.4 5.33
-5 0 2 14.2 8.54
5 0 -2 16.65 8.47
-5 0 1 12.65 8.73
5 0 -1 22.4 13.45
-5 0 1 2.34 6.09
5 0 -1 21.55 10.49
-5 0 0 280.42 26.05
5 0 0 289.61 34.03
5 0 0 259.85 27.79
-5 0 0 294.89 32.43
-5 0 0 266.86 26.09
5 0 1 168.38 25.73
5 0 1 231.95 31.79
-5 0 -1 176.28 18.46
-5 0 -1 218.12 27.61
-5 0 -1 174.22 18.42
-5 0 -2 221.98 21.14
-5 0 -2 242.93 26.04
5 0 2 182.19 22.28
5 0 2 182.81 26.73
-5 0 -3 1.68 6.35
5 0 3 0.77 5.45
5 0 3 15.16 10.63
-5 0 -4 -6.83 7.59
-5 0 -4 5.09 7.86
5 0 4 0.31 8.23
5 0 5 10.59 7.97
-5 0 -5 0.23 9.6
5 0 5 0.86 10.1
5 0 6 210.05 27.57
5 0 6 162.71 22.22
5 0 6 175.32 26.13
-5 0 -6 169.01 29.38
5 0 7 1114.58 68.89
5 0 7 1056.09 57.67
5 0 7 997.62 63.08
-5 0 -7 1021.76 78.08
5 0 8 535.42 51.87
5 0 8 458.32 37.95
5 0 8 426.53 39.91
-5 0 -8 436.33 55.51
-5 0 -9 97.77 30.22
5 0 9 104.33 25
-5 0 -10 -8.33 13.71
5 0 10 20.59 8.14
-5 0 -11 7.97 11.38
5 0 11 -7.91 13.47
-5 0 -12 42.82 15.21
-5 0 -13 20.96 21.98
-5 0 -14 -13.93 14.82
-5 -1 12 29.29 11.29
-5 -1 11 0.38 12.63
-5 -1 11 20.3 13.92
-5 -1 10 157.11 38.57
-5 -1 10 170.12 40.51
-5 -1 9 149.26 38.78
5 1 -9 198.69 52.44
-5 -1 9 195.08 42.54
5 1 -8 298.23 46.2
-5 -1 8 317.87 50.09
-5 -1 8 301.62 49.85
5 1 -8 351.09 61.62
5 1 -7 -7.93 7.97
-5 -1 7 -2.88 9.68
5 1 -7 -19.1 13.68
-5 -1 7 -5.5 9.89
5 1 -6 16.8 11.45
-5 -1 6 0.92 10.58
5 1 -6 14.05 13.57
5 1 -6 1.41 6.64
-5 -1 6 9.53 9.37
5 1 -5 112.85 24.17
5 1 -5 139.83 31.46
5 1 -5 84.31 16.23
-5 -1 5 149.15 29.34
5 1 -5 118.23 22.5
-5 -1 5 111.82 24.83
5 1 -4 -1.82 6.26
5 1 -4 11.03 8.27
-5 -1 4 4.96 9.34
5 1 -4 -2.29 6.13
-5 -1 4 -11.84 7.63
5 1 -3 39.06 8.96
5 1 -3 15.66 11.47
-5 -1 3 13.59 7.77
5 1 -3 12.22 6.6
-5 -1 3 35.65 14.97
-5 -1 2 571.53 43.93
5 1 -2 509.53 40.36
5 1 -2 579.24 34.13
5 1 -2 561.15 47.36
-5 -1 2 537.02 45.64
5 1 -1 32.27 13.37
-5 -1 1 34.37 9.23
5 1 -1 36.5 8.18
5 1 -1 35.68 11.66
-5 -1 1 46.15 16.18
5 1 0 61.87 15.15
5 1 0 62.19 16.41
5 1 0 62.84 15.77
-5 -1 0 67.43 12.86
5 1 0 61.22 9.52
-5 -1 0 59.19 14.32
-5 -1 -1 185.84 17.45
5 1 1 204.52 28.21
-5 -1 -1 189.39 16.62
-5 -1 -1 180.65 23.25
-5 -1 -2 222.58 15.9
5 1 2 238.57 28.37
-5 -1 -2 214.33 15.92
5 1 2 241.91 29.59
-5 -1 -2 245.63 24.24
-5 -1 -3 128.86 17.54
5 1 3 93.41 18.37
5 1 3 123.29 18.27
-5 -1 -3 111.2 12.91
5 1 3 100.1 19.45
5 1 4 16.13 8.4
-5 -1 -4 38.56 8.46
5 1 4 25.99 10.51
5 1 4 21.04 9.13
5 1 5 3.92 8.05
5 1 5 23.73 9.81
5 1 5 24.18 9.55
-5 -1 -6 3.38 7.61
5 1 6 -7.69 8.67
5 1 7 1297.92 78.82
5 1 7 1216.89 62.81
5 1 7 1097.47 61.18
-5 -1 -7 1058.99 77.21
5 1 8 1621.24 94.66
5 1 8 1571.21 72.32
5 1 8 1640.49 73.85
-5 -1 -8 1511.35 100.3
5 1 9 461.35 55.21
-5 -1 -9 416.27 56.59
-5 -1 -10 60.88 25.32
5 1 10 19.48 16.72
-5 -1 -11 34.35 16.25
5 1 11 66.78 26.23
-5 -1 -12 122.03 36.3
5 1 12 81.09 30.2
-5 -1 -13 17.59 12.59
5 1 13 -6.16 9.5
-5 -1 -14 -35.23 23.02
-5 -2 11 11.58 21
-5 -2 11 -5.85 18.6
-5 -2 10 133.41 36.68
-5 -2 10 112.85 33.48
-5 -2 9 545.29 70.63
5 2 -9 397.54 61.05
-5 -2 9 457.77 64.75
-5 -2 8 145.76 34.14
5 2 -8 169.75 37.58
-5 -2 8 138.4 33.39
5 2 -7 19.92 11.1
-5 -2 7 -4.35 10.72
5 2 -7 18.14 14.5
-5 -2 7 29.39 16.81
5 2 -6 -10.69 11.46
-5 -2 6 -10.79 11.09
5 2 -6 -0.87 8.2
-5 -2 6 10.93 11.04
5 2 -5 44.83 17.36
5 2 -5 38.66 13.85
-5 -2 5 55.8 18.78
5 2 -5 59.08 17.37
-5 -2 5 53.55 18.43
-5 -2 4 441.28 46.8
5 2 -4 456.03 39.41
5 2 -4 505.53 45.96
5 2 -4 418.63 48.36
-5 -2 4 452.18 49.35
5 2 -3 -3.34 10.46
-5 -2 3 27.89 13.13
5 2 -3 17.92 8.78
5 2 -3 33.36 15.65
-5 -2 3 15.01 12.89
5 2 -2 5.7 8.09
5 2 -2 -1.92 9.63
-5 -2 2 -8 10.22
5 2 -2 10.2 7.78
-5 -2 2 3.31 7.17
-5 -2 1 432.84 37.61
5 2 -1 434.09 41.18
5 2 -1 461.6 33.77
5 2 -1 428.3 43.32
-5 -2 1 434.09 40.57
5 2 0 45.39 10.47
-5 -2 0 34.62 8.58
5 2 0 43.43 14.03
5 2 0 48.87 8.98
5 2 0 18.21 11.01
-5 -2 0 57.62 14.65
5 2 1 317.51 31.43
5 2 1 394.43 36.74
-5 -2 -1 316.91 26.05
5 2 1 380.06 29.53
5 2 1 391.52 39.71
-5 -2 -1 306.97 29.35
5 2 2 355.79 34.32
-5 -2 -2 331.88 22.08
5 2 2 314.79 35.2
-5 -2 -2 328.85 27.66
-5 -2 -3 20.42 5.37
5 2 3 20.86 8.76
-5 -2 -3 22.67 5.18
5 2 3 28.61 10.32
5 2 3 40.12 14.59
-5 -2 -4 -4.65 3.19
5 2 4 13.62 8.37
5 2 4 -0.84 6.85
5 2 4 -13.11 10.3
5 2 5 101.98 17.93
-5 -2 -5 45.71 6.47
5 2 5 91.35 19.24
5 2 5 80.33 17.33
-5 -2 -5 103.59 24.95
5 2 6 311.51 34.98
5 2 6 279.95 30.42
-5 -2 -6 241.41 33.97
5 2 7 546.72 43.33
5 2 7 569.15 52.85
5 2 7 511.18 40.99
-5 -2 -7 451.05 51.55
5 2 8 320.59 33.18
5 2 8 338.59 43.6
5 2 8 323.07 33.19
-5 -2 -8 306.41 45.63
-5 -2 -9 11.78 10.77
5 2 9 30.88 13.79
-5 -2 -10 99.5 29.92
5 2 10 66.63 26.68
-5 -2 -11 -1.04 9.37
5 2 11 -27.15 14.51
-5 -2 -12 8.06 14.63
5 2 12 9.55 12.68
-5 -2 -13 15.3 16.65
5 2 13 -9.56 14.41
-5 -2 -14 -0.39 19.4
5 2 14 -3.02 12.09
-5 -2 -15 25.4 22.81
5 2 15 -54.99 38.32
-5 -3 11 6 8.87
-5 -3 10 -0.18 16.09
-5 -3 10 -13.67 14.18
-5 -3 9 128.32 36.69
5 3 -9 94.75 30.78
-5 -3 9 109.18 29.2
-5 -3 8 -16.48 15.86
5 3 -8 -1.3 11
-5 -3 8 9 12.4
-5 -3 7 80.89 26.33
5 3 -7 123.99 33.81
-5 -3 7 71.59 24.23
5 3 -6 142.71 33.69
-5 -3 6 133.83 32.86
-5 -3 6 158.79 35.76
-5 -3 5 110.23 25.92
5 3 -5 141.22 29.7
-5 -3 5 134.71 31.15
5 3 -4 -7.72 7.93
5 3 -4 -8.16 6.34
-5 -3 4 14.59 10
5 3 -4 5.4 8.39
-5 -3 4 18.82 14.62
5 3 -3 436.74 43.72
-5 -3 3 411.69 45.61
5 3 -3 383.2 45.67
-5 -3 3 380.31 44.99
5 3 -3 400.43 41.37
5 3 -2 23.38 13.15
-5 -3 2 37.88 16.09
5 3 -2 36.32 12.68
5 3 -2 49.13 14.81
-5 -3 2 43.18 16.87
5 3 -1 9.38 6.13
5 3 -1 15.73 10.31
-5 -3 1 -0.23 7.69
5 3 -1 15.61 9.03
-5 -3 1 12.28 7.32
-5 -3 0 19.59 9.46
5 3 0 22.76 9.67
5 3 0 11.42 8.08
5 3 0 24.56 9.55
5 3 0 26.32 14.44
-5 -3 0 21.77 9.92
5 3 1 124.08 24.57
5 3 1 118.02 20.59
-5 -3 -1 97.79 15.64
5 3 1 106.76 17.78
-5 -3 -1 90.53 16.58
5 3 1 108.27 21.29
5 3 2 23.08 12.92
5 3 2 41.9 13.19
-5 -3 -2 24.85 9.2
5 3 2 19.21 10.17
5 3 2 6.69 5.32
-5 -3 -2 9.32 6.01
5 3 3 70.23 14.53
-5 -3 -3 69.75 10.26
5 3 3 57.44 11.69
-5 -3 -3 63.31 10.62
5 3 3 64.03 17.18
5 3 4 174.44 26.47
5 3 4 152.2 24.01
-5 -3 -4 135.26 14.17
5 3 4 145.18 24.31
-5 -3 -4 150.46 24.02
-5 -3 -5 20.33 11.43
-5 -3 -5 28.28 6.53
5 3 5 57.96 17.56
5 3 5 36.92 13.59
5 3 5 31.02 10.98
5 3 6 644.94 50.4
5 3 6 631.81 46.81
-5 -3 -6 599.9 52.42
5 3 7 353.66 43.47
5 3 7 383.67 39.1
5 3 7 380.72 36.31
-5 -3 -7 315.61 41.43
-5 -3 -8 75.3 22.59
5 3 8 104.87 26.3
5 3 8 88.86 18.12
5 3 8 51.2 13.23
-5 -3 -9 65.4 23.12
5 3 9 58.9 26.32
5 3 9 82.83 21.1
-5 -3 -10 31.55 13.29
5 3 10 36.49 17.53
-5 -3 -11 77.27 28
5 3 11 47.69 22.12
-5 -3 -12 18.28 20.92
5 3 12 6.9 12.92
-5 -3 -13 10.61 11.91
5 3 13 24.88 16.75
-5 -3 -14 -30.77 26.15
5 3 14 21.31 23.44
-5 -3 -15 -13.25 23.08
5 3 15 35.47 32.96
-5 -4 10 10.3 10.45
-5 -4 10 53.4 26.42
-5 -4 9 12.24 14.03
5 4 -9 29.36 25.5
-5 -4 9 -2.57 13.26
-5 -4 8 -7.79 14.95
5 4 -8 -21.45 21.32
-5 -4 8 1.11 10.06
-5 -4 7 -15.99 14.79
5 4 -7 -1.09 13.87
-5 -4 7 -5.41 7.55
-5 -4 6 80.21 26.5
5 4 -6 60.54 19.79
-5 -4 6 103.84 26.77
5 4 -5 -2.53 12.02
-5 -4 5 -7.34 10.69
-5 -4 5 -9.01 13.04
5 4 -4 -14.34 11.22
-5 -4 4 -16.21 14.83
5 4 -4 26.11 14.28
-5 -4 4 15.48 13.48
-5 -4 3 297.18 38.8
5 4 -3 273.72 39.94
-5 -4 3 263.68 38.17
5 4 -3 233.63 31.92
5 4 -3 267.22 41.87
5 4 -2 39.82 13.8
5 4 -2 51.11 19.8
5 4 -2 85.4 21.72
-5 -4 2 50.31 18.67
-5 -4 2 59.75 18.94
-5 -4 1 9.62 6
5 4 -1 22.3 9.43
5 4 -1 27.97 15.49
5 4 -1 14.89 11.2
-5 -4 1 13.42 10.83
5 4 0 337.64 43.26
5 4 0 248.27 37.17
5 4 0 292.44 35.33
5 4 0 264.59 32.33
-5 -4 0 240.25 28.89
-5 -4 0 239.47 31.08
-5 -4 -1 -5.78 4.61
5 4 1 -9.53 10.57
5 4 1 -12.54 10.57
5 4 1 -2.28 7.25
5 4 1 -0.82 7.2
5 4 2 1.18 6.03
5 4 2 3.65 8.13
5 4 2 18.9 11.48
5 4 2 -2.63 9.67
-5 -4 -2 -5.05 6.78
5 4 3 17.35 9.3
5 4 3 27.81 12.5
5 4 3 13.23 10.63
-5 -4 -3 29.14 9.27
5 4 3 37.82 16.23
-5 -4 -3 21.87 7.77
-5 -4 -4 17.88 7.36
5 4 4 16.75 8.47
5 4 4 14.24 7.04
5 4 4 27.1 11.93
-5 -4 -4 23.85 7.34
-5 -4 -5 52.04 14.8
5 4 5 61.69 17.92
5 4 5 44.78 13.08
-5 -4 -5 78.49 11.79
-5 -4 -6 111.45 21.82
5 4 6 91.38 21.79
5 4 6 116.39 22.36
5 4 6 95.18 19.29
-5 -4 -7 13.07 8.03
5 4 7 50.33 22.72
5 4 7 31.41 13.81
-5 -4 -8 -4.99 11.12
5 4 8 12.44 10.61
5 4 8 -3.21 11.18
5 4 8 -2.39 7.58
-5 -4 -9 100.45 25.42
5 4 9 113.44 24.9
5 4 9 85.06 23.22
-5 -4 -10 43.82 22.16
5 4 10 62.4 28
-5 -4 -11 7.49 11.08
5 4 11 37.48 23.05
-5 -4 -12 -1.91 18.53
5 4 12 -3.97 8.91
-5 -4 -13 49.02 23.62
5 4 13 27.12 19.27
-5 -4 -14 3.12 13.86
5 4 14 17.59 14.86
-5 -4 -15 49.78 27.02
5 4 15 72.66 37.23
-5 -5 9 9.38 9.55
5 5 -9 20.11 25.25
-5 -5 9 -13.08 18.03
-5 -5 8 -40.15 22.85
5 5 -8 9.41 23.87
-5 -5 8 19.69 18.15
-5 -5 7 11.04 11.67
5 5 -7 29.45 20.62
-5 -5 7 13.49 11.68
-5 -5 6 90.43 30.52
5 5 -6 33.54 19.34
-5 -5 6 41.53 20.92
-5 -5 5 105.45 28.78
-5 -5 5 78.5 24.11
5 5 -5 100.35 30.16
-5 -5 4 21.68 14.61
5 5 -4 -1.09 9.5
-5 -5 4 30.48 13.17
5 5 -3 148.9 26.14
-5 -5 3 186.36 32.89
5 5 -3 175.29 33.68
-5 -5 3 170.73 31.34
-5 -5 2 95.14 22.68
5 5 -2 44.69 14.63
5 5 -2 44.69 18.06
5 5 -1 104.73 27.38
5 5 -1 127.68 22.99
-5 -5 1 103.86 23.48
5 5 -1 133.38 26.6
5 5 0 3.35 9.42
5 5 0 9.42 16.43
-5 -5 0 -3.68 10.75
5 5 0 30.08 13.24
5 5 0 4.17 7.61
5 5 1 22.24 11.95
5 5 1 7.25 8.34
5 5 1 7.21 11.21
5 5 1 16.56 8.21
5 5 2 -2.67 8.46
5 5 2 6.92 8.12
5 5 2 -2.55 8.36
-5 -5 -3 0.91 3.99
5 5 3 19.65 13.83
5 5 3 3.5 13.55
5 5 3 22.87 16.21
5 5 4 305.69 39.19
5 5 4 245.16 34.84
5 5 4 265.77 38.27
-5 -5 -4 234.22 24.92
5 5 5 290.93 37.01
5 5 5 299.32 34.06
5 5 5 305.93 38.54
-5 -5 -5 311.97 32.66
5 5 6 163.93 27.78
-5 -5 -6 125.02 24.41
5 5 6 182.88 37.04
5 5 6 182.59 34.26
-5 -5 -7 213.68 31.37
5 5 7 191.47 33.19
5 5 7 130.48 24.4
5 5 7 204.19 30.12
-5 -5 -8 222.03 36.67
5 5 8 246.6 40.16
5 5 8 186.79 30.19
5 5 8 226.78 32.32
-5 -5 -9 86.93 25.7
5 5 9 73.47 25.17
5 5 9 62.97 18.61
5 5 10 46.49 15.81
-5 -5 -10 49.08 15.15
5 5 10 63.79 22.62
-5 -5 -11 139.8 37.28
5 5 11 158.61 40.02
-5 -5 -12 14.65 15.51
5 5 12 23.16 18.45
-5 -5 -13 34.42 23.41
5 5 13 -10.3 10.44
-5 -5 -14 17.31 20.96
5 5 14 1.97 13.19
-5 -5 -15 -4.72 14.41
5 5 15 -34.3 36.15
-5 -6 8 32.63 22.2
5 6 -8 16.88 10.51
-5 -6 8 13.51 14.76
-5 -6 7 181.64 44.75
5 6 -7 171.29 46.1
-5 -6 7 154.74 39.47
-5 -6 6 65.34 25.11
5 6 -6 73.25 28.18
-5 -6 6 55.61 26.52
-5 -6 5 2.35 7.41
5 6 -5 -3.46 13.07
-5 -6 5 1.49 11.39
-5 -6 4 9.8 7.09
5 6 -4 8.75 13.3
-5 -6 4 22.21 17.86
5 6 -3 0.89 9.6
-5 -6 3 4.18 9.63
5 6 -3 -2.95 10.45
5 6 -2 18.67 11.87
-5 -6 2 28.77 14.84
5 6 -2 24.13 14.76
-5 -6 1 -7.82 8.64
5 6 -1 8.4 8.81
5 6 -1 3.62 7.14
5 6 0 747.74 61.71
5 6 0 835.03 68.28
5 6 1 427.33 45.9
5 6 1 374.59 40.55
5 6 1 455.92 49.93
5 6 2 20.56 14.69
5 6 2 62.67 20.8
5 6 2 69.22 21.72
5 6 2 66.23 22.33
5 6 3 220.79 36.1
5 6 3 313.76 40.82
5 6 3 161.33 28.51
5 6 3 284.15 45.28
5 6 4 133.64 33.42
5 6 4 79.06 22.65
5 6 4 87.75 24.91
-5 -6 -5 19.35 10.46
5 6 5 41.21 15.92
5 6 5 53.09 17.14
5 6 5 27.38 12.32
-5 -6 -6 53.86 13.21
5 6 6 16.97 11.54
5 6 6 50.93 13.21
5 6 6 42.18 17.16
5 6 7 -11.16 9.25
-5 -6 -7 -5.1 11.22
5 6 7 12.69 11.42
5 6 7 14.95 11.46
-5 -6 -8 43.27 16.97
5 6 8 37.15 16.13
5 6 9 23.47 15.21
-5 -6 -9 7.75 8.38
5 6 9 13.72 16.61
-5 -6 -10 153.8 33.01
5 6 10 197.12 42.18
5 6 10 145.02 28.64
-5 -6 -11 36.62 17.07
5 6 11 68.89 24.99
-5 -6 -12 14.08 15.05
5 6 12 44.08 29.14
-5 -6 -13 73.73 34.06
5 6 13 96.04 36.55
-5 -6 -14 10.38 19.47
5 6 14 34.16 30.28
-5 -6 -15 271.99 60.31
5 6 15 420.11 76.58
-5 -7 7 48.16 22.21
5 7 -7 14.36 14.1
-5 -7 7 57.82 28.39
-5 -7 6 171.12 41.82
5 7 -6 211.01 49.77
-5 -7 6 173.73 42.05
-5 -7 5 101.1 28.59
5 7 -5 89.92 33.33
-5 -7 5 61.83 24.97
-5 -7 4 31.95 13.12
5 7 -4 47.17 26.69
-5 -7 4 39.09 21.08
5 7 -3 61.4 23.38
-5 -7 3 47.65 21.42
-5 -7 2 258.11 41.16
5 7 -2 296.05 47.42
-5 -7 1 454.19 52.71
5 7 -1 381.03 49.29
5 7 -1 455.26 58.37
5 7 0 1940.08 108.75
5 7 0 2166.93 120.82
5 7 1 803.24 68.62
5 7 1 661.06 62.34
5 7 1 830.75 73.41
5 7 2 93.92 19.26
5 7 2 96.6 20.09
5 7 2 103.76 23.9
5 7 3 30.34 14.17
5 7 3 30.51 14
5 7 3 -0.67 7.39
5 7 4 7.71 10.62
5 7 4 3.16 7.2
5 7 4 7.5 10.66
5 7 5 15.22 11.7
5 7 5 -11.81 12.96
5 7 6 15.2 17.68
5 7 6 4.1 9.11
5 7 7 34.93 14.33
5 7 7 26 10.3
-5 -7 -8 215.77 32.77
5 7 8 235.87 43.72
5 7 8 202.27 36.33
5 7 9 53.17 20.5
-5 -7 -9 47.83 19.41
5 7 9 17.1 10.46
-5 -7 -10 31.31 21.93
5 7 10 53.76 23.72
-5 -7 -11 1.6 10.83
5 7 11 -4.35 12.38
-5 -7 -12 16.64 18.35
5 7 12 9.95 18.14
-5 -7 -13 11.4 8.6
5 7 13 -8.94 19.69
-5 -7 -14 -2.06 17.6
5 7 14 34.64 18.45
-5 -7 -15 23.88 11.09
-5 -8 6 -5.85 11.34
5 8 -6 35.65 24.99
-5 -8 6 32.09 21.51
-5 -8 5 34.33 21.08
5 8 -5 31.11 21.4
-5 -8 5 34.71 20.28
5 8 -4 22.38 23.58
-5 -8 4 35.15 16.99
-5 -8 3 9.09 11.94
5 8 -3 4 18.04
-5 -8 2 786.17 76.38
5 8 -2 889.28 88.9
-5 -8 1 2278.9 125.35
5 8 -1 2374.58 141.18
5 8 0 2000.94 126.69
5 8 1 0.25 10.81
-5 -8 -1 -11.39 6.18
5 8 1 12.06 14.91
5 8 2 9.47 14.69
5 8 2 31.56 10.52
5 8 2 12.88 9.8
5 8 3 498.38 55.62
5 8 3 482.36 57.37
5 8 3 473.25 58.81
5 8 4 -1.68 7.34
5 8 4 17.22 16.89
5 8 4 20.64 17.47
5 8 5 8.26 9.21
5 8 5 14.41 9.15
5 8 5 2.81 10.92
5 8 6 -10.05 10.47
5 8 6 -3.9 9.9
5 8 7 40.35 15.77
5 8 7 84.2 25.36
5 8 8 -12.43 10.36
5 8 9 10.37 19.38
5 8 10 129.16 36.45
-5 -8 -11 -6.49 12.52
5 8 11 41.74 34.3
-5 -8 -12 10.45 9.59
5 8 12 -3.77 12.96
5 8 13 99.48 41.36
-5 -8 -13 73.03 34.47
-5 -8 -14 -29.47 17.3
5 8 14 7.65 12.27
-5 -8 -15 578.55 90.15
-5 -9 5 72.75 29.14
-5 -9 5 27.26 18.39
-5 -9 4 123.81 36.07
5 9 -4 176.58 46.06
-5 -9 3 43.9 13.71
5 9 -3 -4.53 15.99
-5 -9 2 183.69 40.1
5 9 -2 156.61 41.33
-5 -9 1 653.47 71.52
5 9 -1 639.56 78.13
5 9 0 398.52 59.86
5 9 1 -4.57 7.75
5 9 2 26.53 15.44
5 9 2 38.54 20.33
-5 -9 -2 33.03 15.21
5 9 3 231.69 39.5
5 9 3 222.54 43.56
-5 -9 -3 171.49 42.95
5 9 4 431.98 55
5 9 4 553.93 68.65
5 9 5 38.57 21.38
5 9 5 47.71 24.83
5 9 6 26.89 24.1
5 9 7 23.35 19.45
5 9 8 90.63 27.9
5 9 9 -2.64 20.15
5 9 10 -3.39 18.51
5 9 11 -40.13 23.91
5 9 12 7.57 15.07
5 9 13 20.01 23.69
-5 -10 4 165.5 39.72
-5 -10 3 84.95 29.65
5 10 -3 71.05 32.51
-5 -10 2 146.13 38.27
5 10 -2 130.32 40.26
-5 -10 1 -10.01 18.89
5 10 -1 -23.7 19.17
5 10 0 39.66 24.63
5 10 1 34.75 17.9
5 10 2 35.75 21.31
5 10 3 92.3 30.51
5 10 3 126.41 35.6
-5 -10 -3 82.97 28.88
5 10 4 202.02 39.43
5 10 4 188.56 42.38
-5 -10 -4 167.06 46.07
5 10 5 3.87 10.29
5 10 5 11.91 18.46
-5 -10 -5 4.5 8.67
5 10 6 186.52 37.76
-5 -10 -6 129.91 38.27
5 10 7 50.89 20.08
5 10 8 35.26 20.17
5 10 9 68.01 22.37
5 10 10 114.46 32.7
5 10 11 13.26 10.26
5 10 12 1.47 12.38
5 10 13 6.46 12.89
-5 -10 -13 -17.8 31.13
-5 -10 -14 -30.79 21.91
-5 -11 2 21.35 16.53
-5 -11 1 50.73 26.97
5 11 -1 -6.31 24.63
5 11 0 175.9 48.59
5 11 1 96.04 35.79
5 11 2 86.22 33.33
5 11 3 280.36 55.25
5 11 4 11.34 8.98
5 11 4 23.01 19.61
-5 -11 -4 -2.34 8.07
5 11 5 63.73 21.06
5 11 5 84.6 28.49
-5 -11 -5 82.02 40.18
-5 -11 -6 -32.65 21.6
5 11 6 36.31 26.31
5 11 7 3.91 11.46
-5 -11 -7 1.77 18.73
5 11 8 45.51 25.18
-5 -11 -8 57.22 31.58
5 11 9 -12.69 17.17
-5 -11 -9 -10.97 17.67
5 11 10 73.5 27.27
-5 -11 -10 17.48 25.91
5 11 11 55.75 28.53
-5 -11 -11 3.49 13.66
5 11 12 3.22 16.07
-5 -11 -12 4.21 25.73
-5 -11 -13 5.99 24.76
-5 -12 0 18.14 22.99
5 12 2 15.77 19.52
5 12 3 38.94 30.78
5 12 4 24.01 21.29
-5 -12 -4 27.12 21.48
5 12 5 -28.33 17.54
-5 -12 -5 -21.13 23.64
-5 -12 -6 6.01 14.76
5 12 7 -9.94 9.29
-5 -12 -7 -21.83 16.09
5 12 8 -15.42 12.25
-5 -12 -8 -0.57 13.37
5 12 9 155.21 38.06
-5 -12 -9 53.6 40.37
5 12 10 31.83 15.54
-5 -12 -10 31.1 28.53
5 12 11 34.18 16.07
-5 -12 -11 13.63 30
-5 -13 -5 67 20.09
-5 -13 -6 0.13 17.63
-5 -13 -7 35.61 27.17
-5 -13 -8 125.92 45.79
-5 -13 -9 -1.2 12.35
6 -11 -5 -6.63 18.39
-6 11 5 6.85 15.41
6 -11 -4 -17.93 12.91
-6 11 4 11.12 9.39
-6 11 3 19.96 9.99
6 -11 -3 6.91 22.09
-6 11 2 15.26 16.15
6 -11 -2 10.44 22.16
-6 11 1 120.62 42.27
6 -11 -1 26.9 25.39
-6 10 8 83.58 30.3
6 -10 -8 22.02 24.05
-6 10 7 483.44 78.59
6 -10 -7 194.3 58.17
-6 10 6 96.65 37.05
6 -10 -6 50.06 34.15
6 -10 -5 8.5 17.8
-6 10 5 5.4 18.52
6 -10 -4 26.71 29.78
-6 10 4 29.52 14.88
6 -10 -3 5.51 11.53
-6 10 3 6.71 12.75
-6 10 2 13.25 18.4
6 -10 -2 26.28 17.08
-6 10 1 19.83 18.91
6 -10 -1 1.68 11.64
-6 10 0 -23.9 11.41
6 -10 0 -11.85 18.99
-6 10 -1 33.3 21.08
6 -10 1 63.79 31.7
-6 10 -2 -5.54 17.97
6 -10 2 31.48 21.53
6 -10 3 -14.55 20.28
-6 9 9 25.02 10.09
-6 9 9 30.69 20.68
-6 9 8 129.61 35.05
6 -9 -8 67.12 31.34
-6 9 7 14.22 20.5
6 -9 -7 18.75 18.18
-6 9 6 210.78 48.64
6 -9 -6 98.36 32.66
-6 9 5 17.69 22.98
6 -9 -5 -3.36 13.21
6 -9 -4 12.96 21.38
-6 9 4 59.86 23.05
6 -9 -3 17.65 18.07
-6 9 3 19.13 16.86
6 -9 -2 -3.13 10.8
-6 9 2 7.32 15.21
-6 9 1 -15.86 13.41
6 -9 -1 7.33 12.08
-6 9 0 -13.61 12.96
6 -9 0 -9.64 14.01
-6 9 -1 22.25 20.18
6 -9 1 0.56 7.4
-6 9 -2 11.39 22.79
6 -9 2 -14.55 11.02
-6 9 -3 -17.79 18.17
6 -9 3 -8.51 10.68
-6 9 -4 -2.58 10.09
6 -9 4 -6.03 9.89
-6 9 -5 73.91 36.26
-6 8 10 9.26 20.94
-6 8 10 5.51 14.12
-6 8 9 122.21 36.25
-6 8 9 110.86 36.77
-6 8 8 0.19 8.35
-6 8 8 17.02 26.49
6 -8 -8 11.06 9.48
-6 8 7 72.23 27.03
-6 8 7 49.87 22.41
6 -8 -7 9.73 16.4
-6 8 6 24.69 23.54
-6 8 6 46.81 25
6 -8 -6 8.1 12.42
-6 8 5 9.48 11.36
-6 8 5 22.19 20.74
-6 8 4 85.18 28.72
6 -8 -4 98.77 28.51
-6 8 3 32.86 20.08
6 -8 -3 9.54 14.26
6 -8 -2 22.59 19.19
-6 8 2 7.33 8.23
6 -8 -1 20.36 18.99
-6 8 1 38.58 25.12
-6 8 0 140.34 37.65
6 -8 0 142.49 35.88
-6 8 -1 125.63 35.76
6 -8 1 113.59 31.3
-6 8 -2 76.07 31.67
6 -8 2 116.24 34.22
-6 8 -3 -17.91 25.06
6 -8 3 -12.83 14.2
-6 8 -4 -12.22 15.27
6 -8 4 7.45 17.31
-6 8 -5 2.29 15.45
6 -8 5 19.4 14.91
-6 8 -5 17.37 10.11
-6 8 -6 -17.02 19.36
-6 7 11 8.46 17.79
-6 7 11 -1.64 12.2
-6 7 10 8.87 8.92
-6 7 10 15.56 11.54
-6 7 9 9.84 19.17
-6 7 9 19.76 12.1
-6 7 8 17.06 15.76
-6 7 8 -24.88 25.62
6 -7 -8 32.46 27.1
-6 7 7 -12.56 12.25
-6 7 7 10.15 13.51
-6 7 6 19.09 16.64
-6 7 6 10.44 9.49
6 -7 -6 19.46 12.08
6 -7 -6 13.05 12.74
-6 7 5 100.95 30.64
-6 7 5 94.64 32.29
6 -7 -5 71.29 27.95
-6 7 4 4.64 15.47
-6 7 4 22.7 22.34
6 -7 -4 1.71 10.2
-6 7 3 8.11 8.41
-6 7 3 19.01 8.33
6 -7 -3 23.12 19.42
-6 7 2 59.7 27.65
6 -7 -2 45.89 21.57
6 -7 -1 -5.16 14.61
-6 7 1 -3.79 8.45
6 -7 0 11.34 13.29
-6 7 0 -6.13 9.08
-6 7 -1 -7.74 9.74
6 -7 1 -9.65 13.17
-6 7 -2 10.37 18.88
6 -7 2 18.28 16.37
-6 7 -3 64.63 24.49
6 -7 3 74.83 27.35
-6 7 -4 11.17 15.91
6 -7 4 5.32 8.79
-6 7 -5 42.38 26.45
6 -7 5 43.57 24.71
-6 7 -5 72.03 27.03
-6 7 -6 106.26 34.96
-6 7 -6 103.65 42.32
-6 7 -7 -14.37 17.52
-6 7 -7 25.46 31.76
-6 6 11 50.99 23.16
-6 6 11 40.48 15.19
-6 6 11 3.29 19.35
-6 6 10 62.25 28.27
-6 6 10 40.53 14.87
-6 6 10 68.93 28.94
-6 6 9 36.27 17.71
-6 6 9 44.79 21.02
-6 6 9 88.3 32.25
-6 6 8 68.11 34.95
-6 6 8 32.41 18.54
-6 6 8 44.86 19.88
-6 6 7 1.14 8.13
-6 6 7 27.38 22.96
6 -6 -7 -5.83 14.13
-6 6 6 49.61 21.43
-6 6 6 66.6 28.98
6 -6 -6 44.12 18.56
6 -6 -6 47.3 17.22
-6 6 5 44.42 22.44
-6 6 5 50.85 16.63
6 -6 -5 69.59 21.79
6 -6 -5 64.15 19.13
-6 6 4 -12.05 14.04
-6 6 4 -0.96 12.38
6 -6 -4 6.87 14.53
-6 6 3 35.41 18.07
-6 6 3 83.16 28.79
6 -6 -3 108.56 30.65
-6 6 2 3.28 6.78
6 -6 -2 12.8 9.62
-6 6 1 160.25 35.26
6 -6 -1 130.17 31.72
6 -6 0 19.47 16.37
-6 6 0 33.67 17.21
-6 6 -1 60.92 20.65
6 -6 1 41.16 15.02
-6 6 -2 137.07 35.08
6 -6 2 131.06 33.36
-6 6 -3 157.35 40.1
6 -6 3 186.59 40.19
-6 6 -4 55.22 27.19
6 -6 4 79.55 28.82
-6 6 -5 82.05 37.05
6 -6 5 41.17 17.54
-6 6 -6 9.27 9.52
-6 6 -6 22.89 16.44
-6 6 -7 6.4 14.81
-6 6 -7 -5.91 24.59
-6 6 -8 20.1 16.48
-6 6 -9 0.02 11.04
-6 5 12 249.79 54.76
-6 5 11 240.1 53.52
-6 5 11 164.86 43.19
-6 5 10 40.82 18.89
-6 5 10 70.33 31.05
-6 5 9 160.4 41.94
-6 5 9 160.68 42.59
-6 5 8 56.22 24.4
-6 5 8 0.02 18.44
-6 5 7 72.8 23.88
-6 5 7 62 25.31
-6 5 7 88.07 29.79
6 -5 -7 45.45 16.23
6 -5 -6 39.62 14.67
-6 5 6 52.2 19.88
-6 5 6 41.99 20.92
-6 5 6 56.8 23.16
6 -5 -6 34.59 17.12
-6 5 5 128.48 30.59
-6 5 5 95.11 28.37
-6 5 5 82.5 23.24
6 -5 -5 107.4 24.87
6 -5 -5 135.64 28.92
-6 5 4 62.65 24.37
-6 5 4 40.61 18.89
6 -5 -4 27.48 15.27
6 -5 -4 55.53 17.22
-6 5 3 -19.18 18.07
-6 5 3 13.85 9.73
6 -5 -3 32.56 19.22
-6 5 2 74.58 26.22
-6 5 2 69.44 21.55
6 -5 -2 58.5 18.56
-6 5 1 211.2 37.93
-6 5 1 183.44 33.44
6 -5 -1 204.61 36.78
-6 5 0 14.81 12.91
6 -5 0 3.81 6.95
-6 5 0 18.63 12.3
6 -5 1 2.91 8.51
-6 5 -1 21.08 11.97
-6 5 -2 91.15 24.89
6 -5 2 95.4 27.64
-6 5 -3 -2.32 8.38
6 -5 3 -5.32 9.09
-6 5 -4 44.83 20.49
6 -5 4 77.26 27.31
-6 5 -5 -5.82 10.57
6 -5 5 -1.31 8.01
-6 5 -6 21.08 17.84
-6 5 -6 -10.28 11.04
-6 5 -7 66.12 25.98
-6 5 -7 57.31 24.07
-6 5 -7 57.08 22.99
-6 5 -8 16.33 19.58
-6 5 -8 9.79 8.42
-6 5 -9 5.66 10.23
-6 5 -9 -19.79 18.47
-6 5 -10 10.33 15.62
-6 5 -10 7.62 16.59
-6 4 12 295.37 57.15
-6 4 12 356.84 70.43
-6 4 11 344.76 62
-6 4 11 436.1 78.08
-6 4 10 22.15 18.02
-6 4 10 13.96 15.85
-6 4 9 12.84 23.89
-6 4 9 41.35 25.18
-6 4 8 97.94 29.77
-6 4 8 98.04 29.38
-6 4 7 0.72 10.6
-6 4 7 4.25 9.62
6 -4 -6 31.63 19.08
-6 4 6 17.49 16.72
-6 4 6 12.98 14.79
6 -4 -6 7.31 9.48
6 -4 -5 0.19 6.8
-6 4 5 8.67 11.92
-6 4 5 -6.83 8.33
-6 4 5 7.94 8.29
6 -4 -5 -0.69 8.67
-6 4 4 13.18 9.79
-6 4 4 11.33 12.45
-6 4 4 -3.33 10.95
6 -4 -4 51.3 15.86
6 -4 -4 37.61 15.63
-6 4 3 160.09 36.74
-6 4 3 116.85 29.57
-6 4 3 147.22 34.3
6 -4 -3 129.89 29.14
6 -4 -3 98.12 29.81
-6 4 2 16.53 11.38
-6 4 2 -5.67 11.32
6 -4 -2 9.95 6.6
-6 4 1 55.93 20.57
-6 4 1 56.32 17.62
6 -4 -1 46.38 17.26
-6 4 0 177.87 33.49
-6 4 0 173.89 31.19
6 -4 0 133.73 32.06
-6 4 -1 22.32 13.23
6 -4 1 1.09 6.58
-6 4 -1 27.28 10.47
-6 4 -2 60.35 17.42
6 -4 2 44.11 22.31
-6 4 -3 94.22 26.04
6 -4 3 110.52 29.16
-6 4 -4 8.46 9.28
6 -4 4 1.1 9.32
-6 4 -5 0.37 8.38
-6 4 -5 -5.11 7.15
6 -4 5 -0.99 8.07
-6 4 -6 178.41 43.37
-6 4 -7 59.75 24.74
-6 4 -7 43.17 19.36
-6 4 -8 7.63 13.11
-6 4 -9 -10.87 12.98
-6 4 -10 76.12 34.85
-6 4 -11 0.02 14.65
-6 3 12 147.28 43.11
-6 3 12 303.59 66.01
-6 3 11 29.91 11.5
-6 3 11 79.61 32.21
-6 3 10 -15.63 18.07
-6 3 10 6 11.79
-6 3 9 -24.3 16.46
-6 3 9 2.86 13.76
-6 3 8 -1.53 9.19
-6 3 8 12.08 9.13
-6 3 7 19.24 9.19
-6 3 7 51.02 20.95
-6 3 6 55.11 21.95
6 -3 -6 55.37 18.04
-6 3 6 28.46 16.52
-6 3 5 75.69 23.31
6 -3 -5 72.74 18.99
-6 3 5 82.26 27.33
6 -3 -5 52.93 14.9
-6 3 4 466.04 52.79
-6 3 4 464.7 54.23
6 -3 -4 392.67 47.07
6 -3 -4 387.79 42.97
-6 3 4 413.25 51.76
-6 3 3 303.42 42.16
-6 3 3 286.01 39.78
6 -3 -3 316.01 42.39
6 -3 -3 258.41 34.57
-6 3 3 289.48 43.99
-6 3 2 78.59 19.63
-6 3 2 53.88 14.59
-6 3 2 47.84 12.52
6 -3 -2 59.03 17.63
6 -3 -2 73.68 20.22
-6 3 1 32.03 18.52
-6 3 1 1.58 6.62
6 -3 -1 32.71 17.24
6 -3 -1 35.01 18.88
-6 3 0 165.92 31.11
-6 3 0 150.01 26.95
6 -3 0 142.7 27.65
-6 3 -1 221.98 33.38
-6 3 -1 163.43 26.79
-6 3 -2 52.58 16.48
-6 3 -2 79.1 22.12
6 -3 2 50.71 25.55
-6 3 -3 5.52 9.07
6 -3 3 -15.01 15.56
-6 3 -4 -9.92 11.22
6 -3 4 -0.72 8.13
-6 3 -5 4.22 10.61
-6 3 -6 41.42 25.67
-6 3 -7 19.62 16.19
-6 3 -7 8.6 15.66
-6 3 -8 12.3 10.34
-6 3 -9 39.92 14.94
-6 3 -10 18.82 19.42
-6 3 -11 -4.03 14.64
-6 3 -12 -9.01 23.51
-6 2 12 7.23 15.91
-6 2 11 -11.99 23.79
-6 2 11 14.77 18.73
-6 2 10 29.65 14.87
-6 2 10 15.56 13.63
-6 2 9 29.76 20.8
-6 2 9 50.26 22.58
-6 2 8 19.48 15.88
-6 2 8 15.87 18.63
-6 2 7 146.25 34.53
-6 2 7 130.72 35.79
-6 2 6 17.67 12.63
-6 2 6 -5.74 10.98
6 -2 -6 3.79 6.56
-6 2 5 137.22 29.69
6 -2 -5 150.44 29.38
-6 2 5 122.01 26.14
6 -2 -5 118.47 23
-6 2 4 12.18 12.8
6 -2 -4 28.38 12.6
-6 2 4 9.23 7.29
6 -2 -4 20.1 9.31
6 -2 -3 77.24 19.75
-6 2 3 67.41 18
-6 2 3 97.72 22.86
6 -2 -3 83.25 18.84
-6 2 2 699.17 55.62
-6 2 2 677.6 56.5
6 -2 -2 666.98 58.45
6 -2 -2 682.35 54.97
-6 2 2 656.43 58.46
-6 2 1 0.84 9.51
-6 2 1 0.36 6.08
-6 2 1 -4.02 6.6
6 -2 -1 21.84 11.19
6 -2 -1 19.17 8.27
-6 2 0 0.88 7.75
-6 2 0 17.39 11.87
6 -2 0 11.66 10.33
6 -2 0 12.92 8.43
-6 2 -1 2.42 8.66
6 -2 1 11.98 11.65
-6 2 -1 3.59 4.69
6 -2 1 12.3 9.66
-6 2 -2 152.93 26.92
6 -2 2 99.38 27.07
-6 2 -2 160.71 26
-6 2 -3 17.25 8.62
-6 2 -3 -3.36 11.72
6 -2 3 -20.28 8.71
6 -2 3 -6.34 12.38
-6 2 -4 151.98 29.78
6 -2 4 158.49 32.67
-6 2 -5 7.17 11.78
-6 2 -6 54.98 21.61
-6 2 -7 365.8 52.16
-6 2 -8 16.83 16.21
-6 2 -9 32.4 17.52
-6 2 -10 76.45 30.81
-6 2 -11 12.97 14.53
-6 2 -12 0.07 13.63
-6 2 -13 7.57 24.35
-6 1 12 -29.83 26.36
-6 1 11 7.66 21.11
-6 1 11 -16.03 20.52
-6 1 10 19.03 15.89
-6 1 10 12.01 19.86
-6 1 9 7.39 15.72
-6 1 9 6.67 10.17
-6 1 8 58.26 25.4
-6 1 8 81.26 30.12
-6 1 7 141.47 34.62
-6 1 7 96.59 28.52
-6 1 6 40.56 18.34
6 -1 -6 29.09 11.79
6 -1 -6 17.98 6.72
-6 1 6 42.55 16.15
-6 1 5 -12.25 13.52
-6 1 5 -6.49 9.27
6 -1 -5 -12.83 9.93
-6 1 4 135.87 28.21
6 -1 -4 141.54 26.66
-6 1 4 166.42 29.09
6 -1 -4 114.1 21
-6 1 3 368.6 42.2
6 -1 -3 371.36 43.28
6 -1 -3 311.5 32.88
-6 1 3 338.41 42.82
-6 1 2 1558.8 78.36
6 -1 -2 1582.12 87.79
6 -1 -2 1469.61 74.75
-6 1 2 1524.78 86.48
6 -1 -1 -18.49 12.98
-6 1 1 24.21 14.73
-6 1 1 3.95 9.28
-6 1 1 7.52 9.66
6 -1 -1 8.02 10.24
-6 1 0 164 26.95
-6 1 0 126.55 20.06
-6 1 0 131.53 21.99
6 -1 0 136.44 24.58
6 -1 0 117 28.3
-6 1 -1 46.84 13.17
-6 1 -1 69.78 15.16
6 -1 1 29.44 11.58
6 -1 1 50.52 16.28
6 -1 2 434.28 35.18
-6 1 -2 392.93 34.88
6 -1 2 401.47 45.21
6 -1 2 363.57 42.47
-6 1 -2 454.52 43.86
-6 1 -3 10.18 7.97
6 -1 3 -5.93 6.4
-6 1 -3 -8.58 5.66
6 -1 3 13.08 12.44
-6 1 -4 60.08 17.26
6 -1 4 69.55 12.25
6 -1 4 53.39 17.96
-6 1 -5 57.05 16.32
6 -1 5 85.56 23.39
6 -1 5 79.93 14.28
6 -1 6 450.24 37.67
-6 1 -6 352.57 46.9
6 -1 6 353.37 44.6
6 -1 7 1.38 8.57
6 -1 7 -7.57 8.34
-6 1 -7 13.75 11.5
6 -1 8 24.47 13.05
-6 1 -8 20.06 14.87
6 -1 8 0.8 6.07
-6 1 -9 158.1 38.77
-6 1 -10 78.46 27.35
-6 1 -11 -0.32 14.31
-6 1 -12 2.18 10.86
-6 1 -13 -29.75 16.74
-6 0 11 26.53 22.56
-6 0 11 29.81 18.53
-6 0 10 3.86 15.14
-6 0 10 22.41 17.08
-6 0 9 17.5 14.02
-6 0 9 -3.6 13.09
-6 0 8 153.55 34.98
-6 0 8 154.15 36.64
-6 0 7 -14.03 15.59
-6 0 7 -5.15 14.12
-6 0 6 230.14 40.26
-6 0 6 262.09 44.06
6 0 -6 227.81 35.39
-6 0 5 51.2 17.58
6 0 -5 22.43 10.56
6 0 -5 46.63 15.83
-6 0 5 69.07 19.25
-6 0 4 161.65 31.33
6 0 -4 162.84 25.74
-6 0 4 185.12 30.74
6 0 -4 155.45 27.04
-6 0 3 233.68 36.49
-6 0 3 209.81 31.19
6 0 -3 218.76 32.57
-6 0 2 327.83 35.16
6 0 -2 304.66 38.92
-6 0 2 311.59 39.08
-6 0 1 80.29 18.89
6 0 -1 87.65 23.33
-6 0 1 102.59 19.54
-6 0 1 85.71 17.09
-6 0 0 24.39 11.26
6 0 0 20.21 8.13
-6 0 0 26.23 6.68
-6 0 0 28.98 9.22
-6 0 -1 154.31 23.26
6 0 1 140.75 26.02
6 0 1 140.03 21.65
-6 0 -1 134.69 19.2
-6 0 -1 132.72 18.44
6 0 2 26.84 12.53
-6 0 -2 50.93 16.16
6 0 2 34.44 11.72
-6 0 -2 59 12.54
6 0 3 811.17 50.57
-6 0 -3 640.12 40.83
6 0 3 722.24 56.79
-6 0 -3 748.87 50.3
6 0 4 94.62 19.76
-6 0 -4 96.14 19.05
-6 0 -4 60.7 14.54
6 0 4 68.71 19.28
6 0 5 225.91 30.34
-6 0 -5 155.95 24.93
6 0 5 216.73 31.45
6 0 6 45.63 12.92
6 0 6 39.19 12.89
6 0 6 39.89 11.8
-6 0 -7 276.96 43.47
6 0 7 328.82 39.16
6 0 7 280.62 33.14
6 0 7 274.3 34.86
6 0 8 629.08 55.32
6 0 8 621.47 50.15
6 0 8 646.67 56.14
-6 0 -8 623.87 68.37
-6 0 -9 5.15 11.37
6 0 9 4.9 8.17
-6 0 -10 7.68 17.74
-6 0 -11 11.55 16.89
-6 0 -12 112.99 36.65
-6 0 -13 20.5 17.83
-6 0 -14 -22.78 21.02
-6 -1 11 9.32 14.89
-6 -1 11 -26.25 12.62
-6 -1 10 14.1 22.96
-6 -1 10 40.1 22.76
-6 -1 9 5.07 9.26
-6 -1 9 14.63 14.14
-6 -1 8 28.63 18.41
-6 -1 8 -17.96 12.21
-6 -1 7 108.85 29.95
-6 -1 7 66.27 21.01
6 1 -6 19.78 12.87
-6 -1 6 2.44 6.5
6 1 -5 152.18 26.01
-6 -1 5 178.65 32.88
6 1 -5 192.39 34.35
-6 -1 5 172.46 31.66
6 1 -4 134.2 27.89
6 1 -4 123.72 22.54
-6 -1 4 152.91 29.28
-6 -1 4 145.8 31.03
6 1 -3 60.8 16.69
6 1 -3 45.44 14.61
-6 -1 3 70.49 19.68
-6 -1 3 70.31 21.61
6 1 -2 65.03 18.12
-6 -1 2 54.29 15.37
6 1 -2 61.24 20.18
-6 -1 2 38.9 14.54
-6 -1 1 35.32 14.38
6 1 -1 23.97 17
6 1 -1 19.5 5.49
-6 -1 1 10.8 9.14
6 1 -1 15.27 10.74
-6 -1 0 25.64 14.14
6 1 0 10.46 9.6
-6 -1 0 13.45 6.14
-6 -1 0 8.86 3.69
6 1 0 3.74 7.25
-6 -1 -1 42.19 12.23
6 1 1 29.48 12.04
6 1 1 17.2 8.01
6 1 1 20.66 10.31
-6 -1 -1 19.08 8.49
-6 -1 -1 25.07 7.3
-6 -1 -2 12.5 5.12
-6 -1 -2 27.42 12.83
6 1 2 10.63 9.04
6 1 2 30.83 10.93
6 1 2 17.14 5.66
-6 -1 -2 21.51 6.8
-6 -1 -3 107.81 18.3
6 1 3 84.86 21.77
-6 -1 -3 82.52 11.75
6 1 3 94.81 17.98
6 1 3 94.68 17.69
6 1 4 69.86 15.86
-6 -1 -4 83.13 14.7
6 1 4 77.76 20.99
6 1 4 104.84 22.58
6 1 5 -7.48 11.83
6 1 5 1.5 6.77
6 1 5 -19.39 13.89
6 1 6 71.27 17.51
6 1 6 62.99 16.35
6 1 6 44.76 13.65
-6 -1 -6 53.26 17.45
-6 -1 -7 -5.79 9.84
6 1 7 -9.33 12.02
6 1 7 -7.91 12.11
6 1 7 21.36 12.36
-6 -1 -8 -22.34 16.03
6 1 8 -4.72 9.14
6 1 8 4.35 9.05
6 1 8 -12.38 8.59
-6 -1 -9 -5.52 8.76
6 1 9 -1.25 8.51
-6 -1 -10 25.33 20.04
6 1 10 -15.44 16.73
-6 -1 -11 16.25 17.33
6 1 11 -17.97 19.29
-6 -1 -12 46.48 26.47
6 1 12 -11.41 20.48
-6 -1 -13 -14.67 22.83
-6 -1 -14 32.44 23.37
-6 -2 10 93.09 30.76
-6 -2 10 109.58 39.36
-6 -2 9 220.01 47.72
-6 -2 9 302.55 54.59
-6 -2 8 34.85 25.07
-6 -2 8 25.87 13.49
-6 -2 7 68.82 24.62
-6 -2 7 111.31 32.6
6 2 -6 15.45 11.23
-6 -2 6 6.69 8.25
-6 -2 6 -7.42 17.85
-6 -2 5 173.92 33.98
6 2 -5 184.21 30.2
6 2 -5 187.06 34.37
-6 -2 5 178.06 34.85
6 2 -4 246.32 33.16
-6 -2 4 290.29 39.19
6 2 -4 274.69 33.22
6 2 -4 280.72 42.4
-6 -2 4 259.7 40.77
-6 -2 3 407.45 43.86
6 2 -3 426.08 42.11
6 2 -3 395.62 37.45
6 2 -3 372.06 46.06
-6 -2 3 362.02 46.22
6 2 -2 2.89 7.32
6 2 -2 15.96 13.19
-6 -2 2 29.61 9.84
6 2 -2 15.14 6.02
-6 -2 2 13.81 8.17
6 2 -1 191.94 32.55
6 2 -1 182.61 26.98
-6 -2 1 210.99 26.92
6 2 -1 210.08 22.73
-6 -2 1 201.91 30.15
6 2 0 91.21 22.84
-6 -2 0 56.06 14.57
6 2 0 75.67 14.6
6 2 0 49.04 15.17
-6 -2 0 74.24 19.51
6 2 1 33.64 11.13
-6 -2 -1 51.7 11.29
6 2 1 59.86 18.04
6 2 1 57.64 18.06
-6 -2 -1 69.31 16.82
-6 -2 -2 22.23 11.22
6 2 2 5.96 6.62
6 2 2 21.3 8.54
-6 -2 -2 10.63 5.38
6 2 2 13.69 9.9
-6 -2 -3 10.41 4.93
6 2 3 -9.03 10.83
6 2 3 8.02 9.75
-6 -2 -3 3.16 2.85
-6 -2 -4 62.19 12.83
6 2 4 127.75 28.98
6 2 4 101.54 22.17
6 2 4 46.33 15.71
6 2 5 -9.24 12.19
6 2 5 -26.69 15.37
6 2 5 18.35 11.76
6 2 6 60.36 19.47
6 2 6 40.87 16.27
-6 -2 -6 12.4 10.69
-6 -2 -7 255.25 39.49
6 2 7 309.78 35.65
6 2 7 310.49 41.56
6 2 7 271.97 33.85
6 2 8 467.1 52.6
6 2 8 368.31 39.18
6 2 8 418.38 42.02
-6 -2 -8 334.02 50.26
-6 -2 -9 15.49 17.85
6 2 9 12.63 9.12
6 2 9 0.1 7.95
-6 -2 -10 59.46 23.6
6 2 10 72.92 25.77
-6 -2 -11 41.33 20.66
6 2 11 89.88 30.79
-6 -2 -12 38.85 20.49
6 2 12 32.81 17.77
-6 -2 -13 -6.5 16.36
6 2 13 22.57 14.23
-6 -2 -14 -29.87 14.16
-6 -3 10 -24.67 18.16
-6 -3 10 -9.18 16.96
-6 -3 9 -21.56 19.12
-6 -3 9 -4.3 11.38
-6 -3 8 24.5 16.66
-6 -3 8 33.14 22.4
-6 -3 7 11.41 9.11
-6 -3 7 10.45 16.2
-6 -3 6 138.28 35.06
6 3 -6 101.77 26.12
-6 -3 6 118.74 30.79
-6 -3 5 582.86 63.59
6 3 -5 581.27 58.64
6 3 -5 526.74 62.55
-6 -3 5 518.24 61.66
-6 -3 4 726.35 66.15
6 3 -4 577.38 51.23
6 3 -4 755.22 62.99
6 3 -4 683.32 68.68
-6 -3 4 695.24 67.62
6 3 -3 8.4 8.77
6 3 -3 3.38 8.32
-6 -3 3 22.21 15.07
6 3 -3 27.88 11.49
-6 -3 3 15.1 8.48
6 3 -2 12.37 7.46
-6 -3 2 24.3 12.77
6 3 -2 18.59 11.91
-6 -3 2 16.11 11.88
6 3 -2 8.09 7.97
-6 -3 1 265.61 34.1
6 3 -1 287.47 37.14
6 3 -1 311.63 33.04
6 3 -1 269.24 39.47
-6 -3 1 265.61 35.74
6 3 0 24.63 16.05
-6 -3 0 21.39 8.22
6 3 0 16.82 10.32
6 3 0 19.53 11.3
-6 -3 0 27.65 13.64
6 3 1 142.59 33.18
6 3 1 121.54 24.46
-6 -3 -1 135.59 19.16
6 3 1 125.77 25
6 3 1 134.6 21.55
-6 -3 -1 152.31 24.87
6 3 2 315.98 37.11
-6 -3 -2 205.99 21.78
6 3 2 249.07 34.37
6 3 2 248.46 35.4
-6 -3 -2 229.16 27.03
6 3 3 102.68 22.96
-6 -3 -3 76.56 12.21
6 3 3 55.45 15.74
-6 -3 -3 82.73 14.74
-6 -3 -4 52.81 11.78
6 3 4 90.52 22.68
6 3 4 45.08 15
6 3 4 75.2 20.23
6 3 5 95.11 20.52
6 3 5 130.32 23.56
6 3 5 140.62 25.32
-6 -3 -5 59.79 18.92
6 3 6 1116.67 76.06
6 3 6 1050.76 68.2
6 3 6 1062.51 67.17
-6 -3 -6 984.19 70.65
6 3 7 484.12 51.29
6 3 7 538.72 48.8
6 3 7 476.88 44.98
-6 -3 -7 417.11 50.53
6 3 8 986.53 78.03
6 3 8 955.65 67.5
6 3 8 838.14 58.13
-6 -3 -8 904.69 78.19
-6 -3 -9 50.49 20.59
6 3 9 54.31 18.6
6 3 9 70.2 20.61
-6 -3 -10 -8.93 16.19
6 3 10 -1.43 9.1
-6 -3 -11 52.56 22.59
6 3 11 38 16.6
-6 -3 -12 194.42 46.55
6 3 12 127.12 30.12
-6 -3 -13 31.89 21.4
6 3 13 26.41 20.04
-6 -3 -14 -8.63 15.33
6 3 14 -13.9 21.72
-6 -3 -15 36.98 29.9
-6 -4 9 19.56 14.22
-6 -4 9 26.05 16.25
-6 -4 8 -10.11 10.98
-6 -4 8 22.08 15.22
-6 -4 7 62.19 28.93
6 4 -7 28.9 18.25
-6 -4 7 31.43 18.04
-6 -4 6 61.74 23.44
6 4 -6 50.82 20.23
-6 -4 6 36.45 9.95
-6 -4 5 255 42.63
6 4 -5 275.96 43.43
-6 -4 5 257.25 45.37
6 4 -4 48.85 18.02
-6 -4 4 62.31 23.45
6 4 -4 62.7 19.53
-6 -4 4 26.08 16.13
6 4 -3 74.17 24.77
6 4 -3 35.47 15.74
-6 -4 3 72.51 19.46
6 4 -3 67.22 21.4
-6 -4 3 62.83 23.19
6 4 -2 -5 11.76
-6 -4 2 10.23 8.45
6 4 -2 11.83 10.07
-6 -4 2 -0.98 9.23
6 4 -2 -11.78 12.39
6 4 -1 -4.96 12.46
-6 -4 1 -8.99 9.11
6 4 -1 -9.99 6.73
6 4 -1 -0.51 9.7
-6 -4 1 10.41 11.2
6 4 0 178.44 32.37
-6 -4 0 195.36 28.95
6 4 0 213.01 34.98
6 4 0 236.13 31.24
-6 -4 0 146.44 25.56
6 4 1 494.44 51.57
-6 -4 -1 411.87 37.73
6 4 1 454.27 46.73
6 4 1 481.4 42.9
6 4 1 458.6 51.24
-6 -4 -1 455.63 41.04
6 4 2 139.75 25.19
6 4 2 112.12 19.39
6 4 2 176.64 27.64
6 4 2 123.41 25.76
-6 -4 -2 127.47 18.89
-6 -4 -2 170.79 24.8
6 4 3 5.72 10.11
-6 -4 -3 0.79 6.3
6 4 3 -16.27 14.26
6 4 3 -4.8 9.03
-6 -4 -3 5.27 6.89
6 4 4 4.21 11.19
6 4 4 -6.45 10.87
-6 -4 -4 -1.53 4.6
6 4 4 -6.56 9.72
-6 -4 -4 -10.44 6.35
-6 -4 -4 -1.87 10.79
-6 -4 -5 2.37 6.53
6 4 5 4 8.99
6 4 5 70.4 28.69
6 4 5 90.41 35.33
-6 -4 -6 52.68 17.85
6 4 6 45.86 13.85
6 4 6 39.04 7.74
6 4 6 50.62 14.15
-6 -4 -7 40.4 12.39
6 4 7 46.57 16.71
6 4 7 40.26 14.06
6 4 7 17.27 7.8
-6 -4 -8 117.4 27.57
6 4 8 139.66 32.56
6 4 8 132.42 23.5
6 4 8 133.43 28.48
-6 -4 -9 -15.38 15.64
6 4 9 -3.03 10.14
6 4 9 -2.43 8.6
-6 -4 -10 18.86 9.74
6 4 10 14.32 12.87
6 4 10 23.5 12.9
-6 -4 -11 10.79 12.95
6 4 11 15.39 17.02
-6 -4 -12 33.93 22.68
6 4 12 4.78 19.96
-6 -4 -13 24.91 25.96
6 4 13 8.84 13.17
-6 -4 -14 -10.03 9.3
6 4 14 12.89 16.86
-6 -4 -15 27.14 27.78
-6 -5 8 108.34 36.55
-6 -5 8 74.44 32.19
-6 -5 7 -7.41 24.55
6 5 -7 -5.85 9.33
-6 -5 7 -10.2 12.9
-6 -5 6 -11.71 8.26
6 5 -6 -19.12 17.2
-6 -5 6 17.8 11.07
-6 -5 5 18.38 10.59
6 5 -5 30.05 18.53
-6 -5 5 -12.91 15.54
-6 -5 4 -8.2 10.74
6 5 -4 15.15 14.2
-6 -5 4 17.1 14.87
6 5 -3 46.55 15.54
-6 -5 3 57.32 19.33
6 5 -3 55.19 17.45
-6 -5 3 46.79 19.33
6 5 -2 14.47 9.01
-6 -5 2 22.4 9.32
6 5 -2 16.11 10.54
6 5 -2 17.39 11.92
-6 -5 2 23.96 14.4
-6 -5 1 65.64 19.7
6 5 -1 66.55 19.92
-6 -5 1 64.17 20.92
6 5 -1 62.47 21.47
-6 -5 0 314.92 37.15
6 5 0 328.36 42.79
6 5 0 367.95 44.22
6 5 0 325.8 47.1
-6 -5 0 285.23 40.24
6 5 1 224.95 34.85
6 5 1 265.38 36.88
-6 -5 -1 192.2 28.8
6 5 1 292.7 38.6
6 5 1 262.63 41.7
-6 -5 -1 245.89 33.03
6 5 2 165.16 32.88
-6 -5 -2 120.21 22.29
6 5 2 112.29 21.8
6 5 2 160.34 27.34
6 5 2 101.27 19.34
-6 -5 -2 144.5 24.57
6 5 3 10.31 12.32
6 5 3 9.21 9.47
6 5 3 0.22 12
6 5 3 0.37 5.55
-6 -5 -3 9.08 9.27
-6 -5 -4 -8.01 8.18
6 5 4 22.39 11.48
6 5 4 10.07 8.77
6 5 4 4.91 6.49
-6 -5 -4 16.36 9.71
-6 -5 -5 149.41 24.77
6 5 5 121.75 23.57
6 5 5 122.97 25.35
-6 -5 -5 92.87 15.67
6 5 5 152.55 28.88
6 5 6 931.52 73.38
6 5 6 915.96 69.08
6 5 6 938.94 68.33
-6 -5 -6 849.15 61.91
6 5 7 377.11 49.52
6 5 7 322.58 40.35
6 5 7 375.57 42.35
-6 -5 -7 326.46 40.22
-6 -5 -8 1.16 10.14
6 5 8 0.49 8.84
6 5 8 2.42 6.97
6 5 8 1.73 6.64
-6 -5 -9 10.41 8.03
6 5 9 38 18.93
6 5 9 20.87 12.83
-6 -5 -10 23.75 15.55
6 5 10 35.3 23.33
6 5 10 12.15 12.57
-6 -5 -11 -15.35 15.5
6 5 11 2.37 18.48
-6 -5 -12 -5.67 21.41
6 5 12 -23.53 27.58
-6 -5 -13 77.04 25.42
6 5 13 85.67 28.94
-6 -5 -14 51.88 17.3
6 5 14 45.28 26.88
-6 -5 -15 -9.1 14.81
-6 -6 7 21.22 11.81
6 6 -7 59.54 28.06
-6 -6 7 45.56 23.95
-6 -6 6 -12.07 9.31
-6 -6 6 4.43 11.61
6 6 -5 11.42 12.36
-6 -6 5 7.23 8.98
-6 -6 4 3.97 11.93
6 6 -4 19.42 9.44
-6 -6 4 13.98 15.41
6 6 -3 76.33 20.92
-6 -6 3 96.92 25.16
6 6 -3 157.52 36.69
-6 -6 3 127.99 32.27
6 6 -2 64.9 22.19
-6 -6 2 82.05 22.73
6 6 -2 64.91 22.77
-6 -6 2 101.29 27.45
-6 -6 1 217.4 36.3
6 6 -1 153.89 28.69
6 6 -1 207.17 38.52
-6 -6 1 163.89 33.39
6 6 0 200.21 35.85
6 6 0 209.36 42.52
-6 -6 0 155.21 29.44
6 6 0 241.92 40.11
-6 -6 -1 72.11 19.76
6 6 1 89.59 26.29
6 6 1 58.16 18.28
6 6 1 82.99 22.15
6 6 1 112.93 31
6 6 2 206.1 33.86
6 6 2 243.81 37.22
6 6 2 258.54 37.54
6 6 2 235.66 40.31
6 6 3 37.79 16.67
6 6 3 51.07 19.37
6 6 3 23.37 11.32
6 6 3 43.89 18.03
6 6 4 234.52 38.74
6 6 4 246.9 38.81
6 6 4 267.34 37.9
6 6 4 250.82 39.33
6 6 5 595.55 59.49
6 6 5 627 59.09
6 6 5 663.19 62.55
-6 -6 -5 451.37 38.17
6 6 6 968.1 78.82
6 6 6 1034.68 77.05
6 6 6 861.61 71.89
-6 -6 -6 891.37 58.58
-6 -6 -7 116.84 23.98
6 6 7 135.59 28.58
6 6 7 118.69 28.15
6 6 7 84.24 18.64
-6 -6 -8 243.48 36.69
6 6 8 288.35 46.5
6 6 8 243.75 37.42
6 6 8 261.55 37.52
-6 -6 -9 3.73 6.64
6 6 9 27.32 13.05
6 6 9 7.64 10.49
-6 -6 -10 35.35 22.32
6 6 10 73.52 31.4
6 6 10 21.85 14.64
-6 -6 -11 2.05 12.74
6 6 11 -5.4 17.48
-6 -6 -12 87.56 30.62
6 6 12 95.68 36.44
-6 -6 -13 -3.56 9.49
6 6 13 31.85 27.74
-6 -6 -14 69.14 31.03
6 6 14 58.51 29.63
-6 -6 -15 39.43 18.01
-6 -7 7 48.32 24.21
-6 -7 7 87.09 30.48
-6 -7 6 -5.91 10.84
6 7 -6 20.03 18.14
-6 -7 6 -13.45 10.14
-6 -7 5 84.68 32.06
6 7 -5 109.16 34.79
-6 -7 5 82.15 27.96
-6 -7 4 1.98 8.05
6 7 -4 -0.2 9.84
-6 -7 4 1.92 10.08
-6 -7 3 1.64 17.23
6 7 -3 1.59 11.19
-6 -7 3 -4.88 12.52
-6 -7 2 -6.5 10.6
6 7 -2 2.56 14
6 7 -2 -3.98 7.09
-6 -7 2 1.9 12.64
-6 -7 1 21.06 13.05
6 7 -1 18.34 9.7
6 7 -1 37.18 17.9
-6 -7 0 405.93 49.01
6 7 0 392 52.35
6 7 0 485.06 58.55
-6 -7 -1 1.49 5.91
6 7 1 -0.88 11.55
6 7 1 -17.96 15.25
6 7 1 2.84 6.64
6 7 2 68.82 23.36
6 7 2 94.57 23.1
6 7 2 79.55 25.59
6 7 3 48.21 22.26
6 7 3 31.92 16.41
6 7 3 38.97 19
6 7 4 11.35 7.58
6 7 4 8.39 12.58
6 7 4 7.68 9.28
6 7 5 569.23 61.81
6 7 5 520.85 56.12
6 7 6 437.29 56.27
6 7 6 451.55 54.34
6 7 7 -11.58 10.87
6 7 7 4.41 11.77
6 7 8 189.75 40.19
6 7 8 132.98 30.48
-6 -7 -9 30.12 12.88
6 7 9 29.25 17.4
6 7 9 27.27 22.09
-6 -7 -10 34.21 19.67
6 7 10 4.99 16.56
6 7 10 -5.93 10.61
-6 -7 -11 -4.69 13.02
6 7 11 41.62 26.57
-6 -7 -12 0.16 10.99
6 7 12 -6.63 14.65
-6 -7 -13 96.25 30.94
6 7 13 177.59 52.47
-6 -7 -14 6.13 10.77
6 7 14 -13.47 12.5
-6 -7 -15 2.47 16.52
-6 -8 5 7 17.27
6 8 -5 18.21 14.28
-6 -8 5 -11.13 19.99
-6 -8 4 -17.65 18.95
6 8 -4 4.92 19.03
-6 -8 4 -13.42 17.32
-6 -8 3 37.1 15.99
6 8 -3 56.06 24.68
-6 -8 3 30.01 20.31
-6 -8 2 6.43 14.67
6 8 -2 -4.29 11.52
-6 -8 1 64.7 22.05
6 8 -1 68.21 23.5
-6 -8 0 93.99 24.93
6 8 0 107.03 24.63
6 8 0 96.58 29.97
6 8 1 28.28 14.87
6 8 1 -21.8 19.78
6 8 2 563.19 63.05
6 8 2 532.65 63.63
6 8 2 575.77 67.37
6 8 3 69.57 24.14
6 8 3 75.32 25.44
6 8 3 57.06 21.29
6 8 4 157.05 30.13
6 8 4 155.83 32.15
6 8 4 161.95 35.06
6 8 5 44.04 21.07
6 8 5 27.37 17.72
6 8 6 14.77 15.65
6 8 6 5.25 7.36
6 8 7 -13.71 14.6
6 8 7 -25.56 16.5
6 8 8 -15.86 17.56
6 8 8 1.69 13.77
6 8 9 202.44 45.99
6 8 9 120.78 29.96
6 8 10 51.52 32.66
6 8 11 84.65 38.31
6 8 12 31.54 25.72
6 8 13 30.51 27.11
-6 -8 -14 38.69 27.35
6 8 14 16.35 19.14
-6 -8 -15 661.29 92.59
-6 -9 4 17.3 18.75
6 9 -4 16.94 18.76
-6 -9 4 -13.17 16.94
-6 -9 3 122.86 34.81
6 9 -3 126.83 36.65
-6 -9 3 114.23 37.48
-6 -9 2 82.89 26.59
6 9 -2 110.99 34.79
-6 -9 1 31.04 14.34
6 9 -1 45.95 20.43
-6 -9 0 118.31 29.36
6 9 0 164.21 40.72
6 9 1 229 46.72
6 9 2 -3.2 13.59
6 9 2 22.63 17.55
6 9 3 66.05 28.69
6 9 3 52.36 22.14
6 9 3 44.12 19.02
6 9 4 46.9 18.23
6 9 4 27.72 21.18
6 9 4 34.34 24.02
6 9 5 -10.15 16.06
6 9 5 3.35 15.95
6 9 5 9.76 12.26
6 9 6 116.58 30.46
6 9 6 69.24 23.19
6 9 7 12.35 15.92
6 9 7 19.54 14.56
6 9 8 5.01 16.64
6 9 9 207.39 57.08
6 9 10 66.52 37.02
6 9 11 9.15 18.42
6 9 12 35.26 19.72
6 9 13 152.87 50.35
-6 -10 3 177.45 44.24
-6 -10 3 160.27 41.3
-6 -10 2 8.29 10.61
6 10 -2 5.05 10.96
-6 -10 1 14.8 8.16
6 10 -1 14.78 11.48
-6 -10 0 -14.45 11.99
6 10 0 0.1 13.71
6 10 1 179.42 45.04
6 10 2 65.44 27.57
6 10 3 203.92 41.65
6 10 3 223.01 46.89
-6 -10 -3 142.2 38.3
6 10 4 539.78 67.42
6 10 4 612.12 78.99
-6 -10 -4 424.31 69.63
6 10 5 212.15 41.49
6 10 5 248.77 49.36
-6 -10 -5 136.93 43.39
6 10 6 12.1 18.29
6 10 7 -2.31 12.53
6 10 8 71 27.37
6 10 9 63.99 28.54
6 10 10 86.05 37.34
6 10 11 72.45 27.22
6 10 12 9.51 13.2
-6 -11 1 48.71 25.21
-6 -11 0 12.89 11.65
6 11 0 16.2 13.98
-6 -11 -1 -4.45 16.5
6 11 1 0.68 17.24
6 11 2 20.06 21.8
6 11 3 219.84 50.14
6 11 4 118.32 31.88
6 11 4 120.97 37.17
-6 -11 -4 70.45 27.04
6 11 5 -11.32 12.05
6 11 5 1.03 10.29
6 11 6 15.88 9.89
-6 -11 -6 4.93 13.33
6 11 7 -13.08 20.39
-6 -11 -7 3.55 16.17
6 11 8 9.21 15.4
-6 -11 -8 0.52 10.12
6 11 9 1.5 16.45
-6 -11 -9 -15.45 22.86
6 11 10 66.75 28.3
-6 -11 -10 88.7 37.9
6 11 11 14.48 14.92
-6 -11 -11 15.33 20.51
-6 -11 -12 5.98 30.28
-6 -12 -1 60.37 29.7
6 12 3 104.86 36.11
6 12 4 28.77 21.81
6 12 5 63.63 31.05
-6 -12 -5 58.68 34.43
6 12 6 44.1 26.16
-6 -12 -6 -59.57 29.27
6 12 7 5.64 12.33
-6 -12 -7 0.37 22.28
6 12 8 6.48 16.79
-6 -12 -8 49.06 31.06
6 12 9 67.25 29.68
-6 -12 -9 26.94 11.25
6 12 10 204.66 51.13
-6 -12 -10 52.63 39.77
-6 -12 -11 -29.16 23.9
-6 -13 -6 13.38 11.7
-6 -13 -7 11.27 12.03
-6 -13 -8 11.9 23.64
7 -10 -6 139.23 50.04
7 -10 -5 -20.93 17.48
-7 10 5 20.95 15.75
7 -10 -4 2.54 9.64
-7 10 4 3.51 15.13
7 -10 -3 10.14 14.8
-7 10 3 10.58 14.36
-7 10 2 6.23 10.75
7 -10 -2 -18.69 24.29
-7 10 1 40.11 31.13
7 -10 -1 8.76 17.75
-7 10 0 47.98 26.7
7 -10 0 8.41 10.36
-7 10 -1 -13.78 13.26
-7 9 8 84.67 31.19
7 -9 -8 51.09 24.8
-7 9 7 4.87 17.64
7 -9 -7 -16.57 10.79
-7 9 6 4.23 12.06
7 -9 -6 22.88 24.71
-7 9 5 -4.47 12.88
7 -9 -5 13.53 17.86
7 -9 -4 2.32 16.09
-7 9 4 13.52 19.74
7 -9 -3 2.73 12.64
-7 9 3 -18.01 20.87
7 -9 -2 8.44 15.52
-7 9 2 32.85 19.99
-7 9 1 22.42 13.83
7 -9 -1 -3.35 16.25
-7 9 0 30.29 21.12
7 -9 0 3.92 14.03
-7 9 -1 119.36 42.72
7 -9 1 77.94 33.78
-7 9 -2 -22.59 21.27
7 -9 2 24.86 19.6
-7 9 -3 52.9 34.92
7 -9 3 -1.94 12.22
-7 9 -4 -24.38 22.72
7 -9 4 -13.61 19.11
-7 8 9 2604.7 189.73
-7 8 9 2196.82 164.87
-7 8 8 49.15 32.32
-7 8 8 71.04 35.56
-7 8 7 -5.81 14
-7 8 7 18.6 13.87
7 -8 -7 -8.7 15.79
-7 8 6 11.26 20.9
-7 8 6 28.49 8.15
7 -8 -6 18.73 12.79
-7 8 5 9.39 10.54
7 -8 -5 53.11 20.19
-7 8 5 36.46 22.77
7 -8 -5 13.46 17.13
-7 8 4 19.13 12.61
7 -8 -4 -11.19 18.28
-7 8 3 0.83 16.67
7 -8 -3 -11.64 13.76
7 -8 -2 37.1 25.95
-7 8 2 47.9 19.32
7 -8 -1 13.8 16.68
-7 8 1 110.44 33.21
-7 8 0 89.52 28.15
7 -8 0 108.16 34.82
-7 8 -1 118.1 38.78
7 -8 1 120.52 38.15
-7 8 -2 232.6 51.66
7 -8 2 186.62 49.89
-7 8 -3 45.96 29.54
7 -8 3 38.78 21.8
-7 8 -4 98.06 40.49
7 -8 4 28.13 16.36
-7 8 -5 6.95 12.15
7 -8 5 45.4 23.81
-7 8 -5 25.07 17.49
-7 8 -6 124.09 50.54
-7 7 10 49.56 27.39
-7 7 10 14.06 13.45
-7 7 9 7.63 16.91
-7 7 9 -16.78 11.8
-7 7 8 -25.96 24.23
-7 7 8 -9.08 17.15
-7 7 7 -4.32 20.21
-7 7 7 -20.22 11.46
7 -7 -7 4.27 16.15
-7 7 6 -19.12 16.77
7 -7 -6 -4.65 9.29
-7 7 5 59.42 27.74
-7 7 5 23.73 15.7
7 -7 -5 22.46 9.27
7 -7 -5 53.58 24.52
-7 7 4 2.98 16.25
7 -7 -4 41.46 20.62
-7 7 4 -5.97 12.24
7 -7 -4 0.19 11.79
-7 7 3 70.82 30.07
-7 7 3 44.22 22.13
7 -7 -3 -0.6 16.19
-7 7 2 -0.48 13.59
7 -7 -2 6.75 14.63
7 -7 -1 8.2 10.81
-7 7 1 18.17 18.82
-7 7 0 35.36 25.67
7 -7 0 -1.77 13.1
-7 7 -1 -2.24 10.83
7 -7 1 20.05 16.14
-7 7 -2 130.86 37.28
7 -7 2 119.86 35.48
-7 7 -3 107.1 37.95
7 -7 3 116.31 32.16
-7 7 -4 -6.63 16.37
7 -7 4 -1.7 7.09
-7 7 -5 19.5 28.58
7 -7 5 36.57 23.15
-7 7 -6 237.74 53.73
-7 7 -6 206.86 58.89
-7 7 -7 -12.03 17.93
-7 7 -7 -23.97 20.26
-7 6 10 80.79 31.97
-7 6 10 98.26 33.12
-7 6 10 71.64 31.02
-7 6 9 104.69 32.57
-7 6 9 143.24 42.63
-7 6 9 116.33 44.52
-7 6 8 120.8 33.56
-7 6 8 123.9 39.58
-7 6 7 28.07 26.49
-7 6 7 52.5 27.25
7 -6 -6 201.16 40.16
-7 6 6 227.7 47.33
-7 6 6 185.32 48.41
7 -6 -6 170.89 41.99
-7 6 5 73.11 27.52
-7 6 5 54.58 21.79
7 -6 -5 -5.31 15.13
7 -6 -5 21.32 12.72
-7 6 4 126.18 33.87
-7 6 4 108.39 34.95
7 -6 -4 60.72 21.41
7 -6 -4 49.52 24.69
-7 6 3 -1.28 10.5
-7 6 3 11.7 13.06
7 -6 -3 11.9 11.34
-7 6 2 111.03 32.69
-7 6 2 106.31 29.41
7 -6 -2 71.05 31.57
-7 6 1 18.67 9.32
7 -6 -1 12.41 10.44
7 -6 0 41.52 19.84
-7 6 0 53.27 20.41
-7 6 -1 -3.99 11.2
7 -6 1 14.01 23
-7 6 -2 19.12 13.19
7 -6 2 24.77 18.87
-7 6 -3 34.09 18.72
7 -6 3 42.72 18.37
-7 6 -4 1.54 14.87
7 -6 4 28.82 21.67
-7 6 -5 46.61 22.23
7 -6 5 36.86 22.63
-7 6 -6 -11.96 13.61
-7 6 -6 -3.74 14.14
-7 6 -7 17.25 20.11
-7 6 -7 -3.28 14.96
-7 6 -8 34.17 22.63
-7 5 11 310.64 63.49
-7 5 10 70.51 33.76
-7 5 10 50.89 27.02
-7 5 10 52.65 32.33
-7 5 9 7.73 14.19
-7 5 9 -16.78 9.04
-7 5 9 -16.38 15.39
-7 5 8 4.48 13.45
-7 5 8 16.65 16.03
-7 5 7 52.71 30.58
-7 5 7 29.54 22.43
-7 5 7 19.67 9.81
7 -5 -6 39.17 14.16
-7 5 6 66.73 29.21
-7 5 6 78.95 30.45
-7 5 6 51.11 19.28
7 -5 -6 68.91 24.44
7 -5 -5 -11.09 13.21
-7 5 5 -0.07 10.74
-7 5 5 5.43 6.46
7 -5 -5 -3.66 8.53
-7 5 4 68.59 20.95
-7 5 4 100.38 29.06
7 -5 -4 75.83 25.33
7 -5 -4 80.13 24.53
-7 5 3 16.28 10.32
-7 5 3 15.05 13.26
7 -5 -3 22.98 15.21
7 -5 -3 12.7 6.97
-7 5 2 113.18 33.73
7 -5 -2 136.96 35.86
-7 5 2 122.3 32.48
7 -5 -2 120.77 30.56
-7 5 1 641.14 68.73
7 -5 -1 633.96 69.2
-7 5 1 685.97 75.79
-7 5 0 735.98 72.33
7 -5 0 658.37 72.15
-7 5 0 727.33 74.73
7 -5 1 86.9 26.68
-7 5 -1 71.07 25.3
-7 5 -2 -3.79 9.43
7 -5 2 30.09 18.4
-7 5 -3 -10.49 11.21
7 -5 3 13.72 7.18
-7 5 -4 32.94 21.97
7 -5 4 -12.74 11.48
-7 5 -5 10 17.31
7 -5 5 6.89 9.41
-7 5 -6 -5.17 15.14
-7 5 -7 3.77 12.82
-7 5 -7 1.05 14
-7 5 -8 7.73 15.82
-7 5 -9 14.44 18.17
-7 5 -10 26.99 29.57
-7 4 11 243.87 54.28
-7 4 11 346.42 72.56
-7 4 10 87.72 30.36
-7 4 10 38.3 17.16
-7 4 9 54.4 22.78
-7 4 9 30.42 25.06
-7 4 8 -8.18 9.13
-7 4 8 -3.61 12.59
-7 4 7 35.48 20.72
-7 4 7 43.53 24.87
-7 4 7 65.15 21.28
-7 4 6 -1.74 8.55
7 -4 -6 13.99 13.28
-7 4 6 4.84 8.97
-7 4 6 -5.28 7.88
7 -4 -5 -5.75 12.65
-7 4 5 -10.52 14.49
-7 4 5 14.02 17.15
-7 4 5 8.3 15.37
7 -4 -5 -6.28 14.58
7 -4 -4 -4.18 13.62
-7 4 4 -8.25 12.24
-7 4 4 1.7 8.51
-7 4 4 -2.89 14.16
7 -4 -4 4.88 7.88
-7 4 3 130.87 29.78
-7 4 3 148.86 32.68
7 -4 -3 158.75 32.56
7 -4 -3 186.94 35.76
-7 4 2 189.43 40.64
-7 4 2 149.87 31.75
7 -4 -2 177.43 35.33
7 -4 -2 139.61 30.83
-7 4 1 543.33 58.29
7 -4 -1 596.76 68.01
7 -4 -1 564.73 60.44
-7 4 1 601.71 65.76
-7 4 0 228.45 40.42
-7 4 0 220.99 35.92
7 -4 0 229.7 40.32
-7 4 -1 194.35 34.52
7 -4 1 227.04 40.45
-7 4 -1 161.17 32.96
-7 4 -2 32.2 18.27
7 -4 2 21.32 16.2
-7 4 -3 4.25 16.5
7 -4 3 10.77 9.43
-7 4 -4 -4.05 18.14
7 -4 4 14.73 10.86
-7 4 -5 58.21 26.55
-7 4 -6 23.91 16.96
-7 4 -7 61.47 29.91
-7 4 -7 30.69 18.96
-7 4 -8 -16.34 10.09
-7 4 -9 -12.39 16.59
-7 4 -10 13.5 14.6
-7 3 11 57.55 26.13
-7 3 11 146.91 45.86
-7 3 10 61.85 35.4
-7 3 10 67.54 36.59
-7 3 9 30.67 23.85
-7 3 9 8.66 16.02
-7 3 8 43.9 21.86
-7 3 8 34.51 11.46
-7 3 7 13 13.79
-7 3 7 15.04 16.44
-7 3 6 9.77 15.15
7 -3 -6 18.94 11.87
-7 3 6 2.74 11.95
-7 3 5 56.21 22.55
7 -3 -5 62.34 21.11
-7 3 5 22.84 17.4
-7 3 5 87.13 31.43
7 -3 -5 8.92 7.71
-7 3 4 7.53 7.87
7 -3 -4 -1.85 8.63
-7 3 4 7.15 8.6
-7 3 4 -18.48 14.05
7 -3 -4 9.73 13.63
7 -3 -3 77.14 26.1
-7 3 3 50.55 17.27
-7 3 3 56.66 19.03
-7 3 3 79.36 22.36
7 -3 -3 61.31 20.28
-7 3 2 41.53 16.85
-7 3 2 41.24 14.99
-7 3 2 55.14 18.91
7 -3 -2 17.16 12.42
7 -3 -2 61.29 21.38
-7 3 1 460.92 50.37
7 -3 -1 461.28 54.35
7 -3 -1 451.47 54.1
-7 3 1 488.31 57.28
-7 3 0 373.2 43.64
7 -3 0 382.32 50.9
7 -3 0 378.47 48.74
-7 3 0 415.29 50.81
-7 3 -1 -1.23 7.13
7 -3 1 -9.66 11.31
7 -3 1 7.1 8.92
-7 3 -1 -3.62 6.58
-7 3 -2 -2.3 9.11
-7 3 -2 32.94 16.54
7 -3 2 14.7 10.68
-7 3 -3 71.8 21.25
7 -3 3 23.56 21.58
-7 3 -4 -5.94 12.28
7 -3 4 7.46 11.97
-7 3 -5 40.71 22.22
-7 3 -6 110.8 33.18
-7 3 -7 25.95 16.85
-7 3 -7 3.88 8.93
-7 3 -8 4.7 15.65
7 -3 8 21.48 17.57
-7 3 -9 12 15.54
-7 3 -10 204.62 49.34
-7 3 -11 8.44 16.37
-7 2 11 33.03 19.43
-7 2 11 36.9 21.21
-7 2 10 21.99 17.68
-7 2 10 20.44 11.01
-7 2 9 8.13 12.37
-7 2 9 16.01 13.17
-7 2 8 79.9 34.13
-7 2 8 57.14 19.33
-7 2 7 5.51 9.04
-7 2 7 35.32 19.89
-7 2 6 119.17 33.64
-7 2 6 106.77 29.9
7 -2 -6 88.3 24.1
-7 2 5 141.49 33.85
7 -2 -5 105.92 26.71
-7 2 5 127.8 32.24
-7 2 4 7.03 10.2
7 -2 -4 9.26 13.04
-7 2 4 21.12 11.46
7 -2 -4 -11.49 12.72
-7 2 3 163.25 33.55
7 -2 -3 132.79 29.21
-7 2 3 124.03 27.31
-7 2 3 150.45 30.56
7 -2 -3 132.74 27.53
-7 2 2 2225.88 106.48
7 -2 -2 2192.97 116.21
7 -2 -2 2012.12 102.02
-7 2 2 2061.81 115.04
-7 2 2 2090.88 103.04
-7 2 1 731.3 58.28
-7 2 1 750.73 60.41
7 -2 -1 746.5 69.02
7 -2 -1 696.22 63.41
-7 2 1 727.75 68.15
-7 2 0 189.36 32.19
-7 2 0 199.97 29.51
7 -2 0 145.96 28.7
7 -2 0 192.19 34.47
-7 2 -1 5.14 7.19
7 -2 1 2.3 11.98
-7 2 -1 8.37 7.72
7 -2 1 -9.08 13.23
-7 2 -2 4.87 11.24
7 -2 2 3.09 8.66
7 -2 2 2.87 8.72
-7 2 -2 18.45 7.39
-7 2 -3 29.23 14.43
-7 2 -3 25.66 9.37
7 -2 3 -6.37 14.89
7 -2 3 8.41 11.14
-7 2 -4 40.77 14.75
7 -2 4 37.24 10.83
-7 2 -5 16.68 10.65
7 -2 5 7.17 7.73
-7 2 -6 7.84 10.95
7 -2 6 35.01 19.14
7 -2 7 32.45 12.98
-7 2 -7 25.13 13.89
-7 2 -8 21.88 18.9
7 -2 8 -9.45 8.24
-7 2 -9 337.27 58.62
-7 2 -10 81.67 29.37
-7 2 -11 8.22 18.76
-7 2 -12 -0.41 17.39
-7 1 11 69.79 31.88
-7 1 10 26.79 16.95
-7 1 10 4.14 19.77
-7 1 9 133.82 38.73
-7 1 9 131.92 41.84
-7 1 8 -4.63 10.06
-7 1 8 33.43 20.16
-7 1 7 68.67 30.23
-7 1 7 74.14 24.38
-7 1 6 14.92 9.23
7 -1 -6 18.87 14.98
-7 1 6 15.18 9.51
-7 1 5 21.56 19.55
7 -1 -5 2.53 9.39
-7 1 5 -13.2 15.48
7 -1 -5 7.85 11.78
-7 1 4 484.17 54.19
7 -1 -4 486.45 53.81
-7 1 4 488.69 59.65
-7 1 3 534.09 54.83
7 -1 -3 517.51 57.31
-7 1 3 541.56 58.99
-7 1 2 267.3 40.4
7 -1 -2 269.55 40.32
-7 1 2 271.8 36.91
-7 1 2 252.59 34.59
7 -1 -2 204.45 30.07
-7 1 1 91.35 25.47
7 -1 -1 61.01 21.29
-7 1 1 70.69 19.06
-7 1 1 66.92 18.56
7 -1 -1 76.96 20.28
7 -1 0 48.79 15.63
-7 1 0 36.74 13.31
-7 1 0 65.33 16.64
-7 1 0 47.38 12.91
7 -1 0 48.08 17.06
-7 1 -1 341.1 34.25
7 -1 1 347.69 45.79
-7 1 -1 361.06 42.77
-7 1 -2 97.75 23.3
7 -1 2 89.76 25.77
-7 1 -2 86.44 17.15
7 -1 3 -3.2 9.16
-7 1 -3 14.97 8.67
-7 1 -3 33.28 16.75
7 -1 3 24.24 17.13
-7 1 -4 141.46 25.56
-7 1 -4 161.95 27.73
7 -1 4 179.81 33.56
7 -1 5 208.25 28.06
-7 1 -5 159.91 30.51
7 -1 5 169.57 31.98
-7 1 -6 -11.7 15.72
7 -1 6 -10.34 8.45
7 -1 7 5.35 10.45
7 -1 7 23.08 8.52
-7 1 -7 6.64 10.5
-7 1 -8 8.16 9.73
7 -1 8 17.62 8.17
-7 1 -9 -6.51 14.05
-7 1 -10 153.77 45.51
-7 1 -11 -1.89 17.72
-7 1 -12 0.05 24.49
-7 1 -13 -11.57 15.67
-7 0 10 14.65 21.66
-7 0 10 41.16 31.06
-7 0 9 -8.87 19.17
-7 0 9 23.37 20.54
-7 0 8 10.25 16.48
-7 0 8 -0.07 9.67
-7 0 7 42.45 31.89
-7 0 7 -8.61 11.35
-7 0 6 40.87 18.19
-7 0 6 75.39 27.34
7 0 -6 25.72 15.76
-7 0 5 97.21 31.25
7 0 -5 99.53 22.55
7 0 -5 84.36 20.11
-7 0 5 87.74 25.01
-7 0 4 217.89 40.08
7 0 -4 153.79 27.42
-7 0 4 206.33 34.49
7 0 -4 207.89 36.28
-7 0 3 310.6 40.47
7 0 -3 251 35.95
7 0 -3 342.65 45.42
-7 0 3 351.39 47.59
-7 0 2 1048.57 68.8
7 0 -2 1085.82 79.89
-7 0 2 1082.18 80.1
-7 0 1 262.24 38.14
-7 0 1 272.46 32.99
7 0 -1 247.17 38.94
-7 0 1 266.46 32.01
-7 0 0 37.19 11.93
7 0 0 65.02 21.93
-7 0 0 60.77 16.55
-7 0 0 43.76 13.31
-7 0 -1 168.64 29.31
7 0 1 175.28 33.09
-7 0 -1 217.79 24.84
-7 0 -1 191.32 22.9
7 0 2 11.51 10.75
-7 0 -2 30.68 19.24
-7 0 -2 15.66 5.75
7 0 3 201.17 34.38
-7 0 -3 185.45 27.55
7 0 3 157.51 23.36
-7 0 -3 163.18 22.97
7 0 4 141.27 27.4
7 0 4 175.81 27.2
-7 0 -4 147.86 23.84
7 0 5 105.87 25.77
7 0 5 108.38 21.32
7 0 5 103.26 22.34
7 0 6 11.03 13.13
7 0 6 12.13 7.64
7 0 6 3.07 6.08
7 0 7 297.54 36.36
7 0 7 325.61 39.36
7 0 7 295.95 41.79
-7 0 -7 307.22 47.1
-7 0 -8 -3.99 10.28
7 0 8 10.38 7.59
7 0 8 -13.71 10.94
7 0 8 4.26 11.29
-7 0 -9 267.26 49.66
-7 0 -10 184.76 45.95
-7 0 -11 26.43 12.35
-7 0 -12 -21.61 22.37
-7 0 -13 41.63 19.35
-7 -1 10 -1.01 10.86
-7 -1 10 -12.2 14.86
-7 -1 9 87.08 35.73
-7 -1 9 73.43 26.59
-7 -1 8 19.44 14.67
-7 -1 8 37.35 16.99
-7 -1 7 46.04 19.27
-7 -1 7 21.55 18.33
-7 -1 6 130.23 36.28
7 1 -6 141.57 31.92
-7 -1 6 175.06 37.38
-7 -1 5 248.65 45.95
7 1 -5 186.55 30.39
-7 -1 5 205.33 37.83
7 1 -5 203.02 36.85
-7 -1 4 -3.28 12.42
7 1 -4 -2.88 7.13
7 1 -4 -9.57 11.6
-7 -1 4 -8.4 7.57
-7 -1 3 123.27 28.56
7 1 -3 102.15 24.37
7 1 -3 117.92 23.62
-7 -1 3 139.63 29.36
-7 -1 2 2.53 8.53
7 1 -2 8.19 6.41
-7 -1 2 14.03 9.59
7 1 -2 23.13 12.91
-7 -1 1 65.53 15.85
7 1 -1 47.99 16.52
-7 -1 1 41.05 13.96
7 1 -1 70.83 22.39
-7 -1 0 191.18 30.98
7 1 0 181.69 29.45
7 1 0 214.98 36.85
-7 -1 0 185.99 22.88
-7 -1 -1 203.42 30.5
-7 -1 -1 215.54 25.1
7 1 1 171.22 31.07
7 1 1 198.33 30.57
7 1 2 246.66 37.85
7 1 2 197.22 29.33
-7 -1 -2 241.74 31.73
-7 -1 -3 12.95 10.95
7 1 3 -22.54 15.7
7 1 3 -6.28 8.59
-7 -1 -4 17.76 6.14
7 1 4 48.75 14.64
7 1 4 34.88 14.92
7 1 4 46.62 16.82
7 1 5 77.98 21.5
7 1 5 75.17 21.29
7 1 5 63.15 17.99
7 1 6 7.01 6.76
7 1 6 -2.77 6.68
7 1 7 397.92 45.46
7 1 7 423.34 45.7
7 1 7 430.76 47.81
-7 -1 -7 339.47 49.13
-7 -1 -8 312.24 47.95
7 1 8 290.42 39.26
7 1 8 320.09 39.68
7 1 8 316.31 41.94
-7 -1 -9 143.42 34.57
7 1 9 173.84 32.84
7 1 9 186.44 32.32
-7 -1 -10 9.14 9.84
7 1 10 -16.97 12.76
-7 -1 -11 11.75 12.59
-7 -1 -12 51.16 25.37
-7 -1 -13 -7.61 20.81
-7 -1 -14 26.49 25.67
-7 -2 9 82.35 27.48
-7 -2 9 30.3 22.34
-7 -2 8 44.68 27.33
-7 -2 8 58.6 24
-7 -2 7 -28.44 21.43
-7 -2 7 20.61 17.29
-7 -2 6 43.4 19.23
7 2 -6 23.11 15.67
-7 -2 6 23.49 17.24
-7 -2 5 20.57 15.23
7 2 -5 52.32 21.43
-7 -2 5 49.22 17.76
7 2 -4 172.54 30.58
-7 -2 4 214.87 35.51
7 2 -4 264.97 44.07
-7 -2 4 239.09 42.51
7 2 -3 75.26 21.11
-7 -2 3 72.66 17.48
7 2 -3 78.57 23.98
-7 -2 3 79.71 23.56
7 2 -2 171 33.48
7 2 -2 196.9 32.89
-7 -2 2 203.2 30.11
-7 -2 2 206.4 37.32
7 2 -1 138.55 31.42
7 2 -1 114.5 22.3
-7 -2 1 141.81 24.14
-7 -2 1 152.09 28.69
-7 -2 0 261.72 30.05
7 2 0 219.25 32.27
7 2 0 229.49 35.9
-7 -2 0 245.58 33.53
-7 -2 -1 23.34 10.98
7 2 1 18.34 11
-7 -2 -1 28.18 10.8
7 2 1 27.31 15.7
-7 -2 -2 59.52 17.03
7 2 2 63.59 18.99
7 2 2 60.26 18.53
-7 -2 -3 36.97 13.75
7 2 3 51.44 20.8
7 2 3 15.18 8.46
7 2 3 21.29 12.49
-7 -2 -4 5.2 8.35
7 2 4 -2.57 5.83
7 2 4 9.32 12.08
7 2 4 30.81 14.46
7 2 5 67.69 18.98
7 2 5 61.17 17.81
7 2 5 48.91 18.67
7 2 6 84.35 22.23
7 2 6 95.68 21.09
7 2 6 90.3 20.24
-7 -2 -6 58.91 21.3
7 2 7 364.91 45.09
7 2 7 287.92 37.13
7 2 7 324.56 41.26
-7 -2 -7 297.07 47.53
7 2 8 954.56 75.69
7 2 8 954.13 70.62
7 2 8 984.78 70.52
-7 -2 -8 896.12 82.93
-7 -2 -9 34.18 21.5
7 2 9 12.15 10.65
7 2 9 27.65 13.14
-7 -2 -10 -10.73 10.96
7 2 10 -7.06 6.76
-7 -2 -11 -17.51 13.67
7 2 11 19.44 12.35
-7 -2 -12 5.54 12.42
7 2 12 15.03 17.5
-7 -2 -13 15.28 13.68
-7 -2 -14 61.1 30.37
-7 -3 9 10.39 22.69
-7 -3 9 45.8 30.23
-7 -3 8 51.61 27.97
-7 -3 8 63 27.83
-7 -3 7 19.1 20.76
-7 -3 7 -13.51 13.41
-7 -3 6 21.08 17.01
-7 -3 6 9.84 13.81
7 3 -5 34.74 24.02
-7 -3 5 10.93 8.6
-7 -3 5 22.19 20.29
7 3 -4 15.38 13.09
-7 -3 4 12.27 6.79
7 3 -4 -5.36 13.18
-7 -3 4 11.99 10.07
7 3 -3 6.1 14.68
7 3 -3 23.55 10.09
-7 -3 3 30.9 16.33
-7 -3 3 15.79 14.03
7 3 -2 62.76 20.61
-7 -3 2 71.93 19.29
7 3 -2 58.66 20.04
-7 -3 2 52.44 19.65
7 3 -1 14.38 11.68
-7 -3 1 35.05 15.57
7 3 -1 52.91 19.38
7 3 -1 29.98 11.4
-7 -3 1 49.32 18.73
7 3 0 160.56 32.06
7 3 0 131.99 28.15
-7 -3 0 139.67 22.58
7 3 0 158.55 23.72
-7 -3 0 121.66 26.53
7 3 1 55.09 17.2
7 3 1 15.05 12.67
7 3 1 58.64 18.55
-7 -3 -1 68.24 15.77
-7 -3 -1 57.82 18.92
7 3 2 34.82 14.58
7 3 2 -3.99 13.08
7 3 2 16.42 9.44
-7 -3 -2 18.01 7.53
-7 -3 -2 29.61 11.12
-7 -3 -3 76.51 16.19
7 3 3 85.59 19.82
7 3 3 97.38 21.57
7 3 3 62.46 18.27
-7 -3 -4 22.61 6.72
7 3 4 36.48 13.86
7 3 4 40.84 15.18
7 3 4 30.7 13.46
7 3 5 22.25 14.16
7 3 5 23.02 12.99
7 3 5 22 11.8
-7 -3 -5 24.67 14.07
-7 -3 -6 119.57 28.45
7 3 6 158.42 30.08
7 3 6 163.85 29.27
7 3 6 159.61 28.65
7 3 7 754.44 65.76
7 3 7 638.98 59.68
7 3 7 677.1 58.63
-7 -3 -7 667.72 65.16
7 3 8 600.46 62.36
7 3 8 623.2 57.75
7 3 8 576.25 53.49
-7 -3 -8 618.84 67.99
-7 -3 -9 -11.01 14.95
7 3 9 -15.7 16.93
7 3 9 1.82 6.83
-7 -3 -10 316.01 52.85
7 3 10 368.24 53.4
-7 -3 -11 19.08 11.65
7 3 11 36.55 22.37
-7 -3 -12 -14.46 9.15
7 3 12 -22.21 18.96
-7 -3 -13 26.4 11.02
7 3 13 49.51 22.89
-7 -3 -14 48.45 31.39
7 3 14 44.7 27.43
-7 -4 8 204.24 46.42
-7 -4 8 188.36 44.89
-7 -4 7 206.06 48.85
-7 -4 7 182.72 43.12
-7 -4 6 -4.23 9.53
-7 -4 6 -3.98 8.5
-7 -4 5 324.57 52.01
-7 -4 5 317.95 54.2
7 4 -4 99.21 30.16
-7 -4 4 121.26 29.98
-7 -4 4 152.23 36.07
7 4 -3 24.84 17.55
7 4 -3 -7.67 6.12
-7 -4 3 -13.3 13.86
7 4 -3 1.33 5.82
-7 -4 3 -2.91 11.88
7 4 -2 35.35 13.07
-7 -4 2 51.68 16.65
7 4 -2 56.4 17.46
7 4 -2 43.86 19.87
-7 -4 2 50.41 20.18
7 4 -1 171.61 34.26
7 4 -1 206.02 35.51
-7 -4 1 202.78 32.95
7 4 -1 235.99 32.84
-7 -4 1 184.04 33.67
7 4 0 -2.47 10.28
-7 -4 0 -5.03 5.73
7 4 0 2.38 7.74
7 4 0 1.74 10.13
-7 -4 0 9.5 10.5
7 4 1 141.53 31.24
-7 -4 -1 99.75 18.69
7 4 1 120.3 25.82
7 4 1 118.44 24.22
7 4 1 91.17 24.68
-7 -4 -1 109.46 22.96
7 4 2 11.61 14.86
-7 -4 -2 1.04 4.45
7 4 2 -10.08 12.78
7 4 2 0.4 6.89
-7 -4 -2 -12.16 10.52
7 4 3 84.28 24.54
7 4 3 91.91 20.4
7 4 3 89.95 22.34
-7 -4 -3 51.52 12.76
7 4 4 64.94 21.42
7 4 4 80.97 19.82
7 4 4 69.3 18.78
-7 -4 -4 72.31 15.56
-7 -4 -4 63.95 16.59
-7 -4 -5 63.87 21.68
7 4 5 62.92 20.48
7 4 5 45.5 18.42
7 4 5 29.06 12.31
-7 -4 -6 3.78 7.17
7 4 6 33.53 17.15
7 4 6 31.86 15.75
7 4 6 8.31 11.64
-7 -4 -7 155.22 30.65
7 4 7 169.97 30.04
7 4 7 186.66 35.4
7 4 7 134.32 28.16
-7 -4 -8 170.59 33.41
7 4 8 175.18 30.29
7 4 8 171.37 34.35
7 4 8 162.53 31.03
-7 -4 -9 2.52 11.14
7 4 9 -13.34 15.89
7 4 9 -10.29 10.84
-7 -4 -10 9.08 7.69
7 4 10 14.29 11.41
7 4 10 25.98 10.16
-7 -4 -11 155.75 38.25
7 4 11 141.83 37.55
-7 -4 -12 33.99 18.03
7 4 12 -4.06 18.41
-7 -4 -13 20.3 17.63
7 4 13 24.48 23.93
-7 -4 -14 -22.1 30.69
7 4 14 2.62 10.14
-7 -5 8 13.08 17.52
-7 -5 7 29.86 15.9
-7 -5 7 -23.77 18.43
-7 -5 6 12.97 7.78
-7 -5 6 28.41 14.85
-7 -5 5 87.18 24.75
-7 -5 5 81.57 28.84
-7 -5 4 138.73 36.15
7 5 -4 169.33 35.07
-7 -5 4 89.74 25.76
7 5 -3 8.37 6.78
-7 -5 3 -15.47 14.16
7 5 -3 13.08 16.25
-7 -5 3 2.85 7.99
7 5 -2 75.6 22.87
-7 -5 2 94.42 25.27
7 5 -2 88.82 30.23
7 5 -2 122.28 25.17
-7 -5 2 109.38 30.48
7 5 -1 34.74 23.39
7 5 -1 18.91 12.27
-7 -5 1 40.37 17.14
7 5 -1 30.45 17.69
-7 -5 1 38 18.39
-7 -5 0 21.94 11.19
7 5 0 40.76 17.17
7 5 0 45.88 16.91
7 5 0 30.31 13.27
-7 -5 0 32.51 16.86
7 5 1 96.83 34.08
7 5 1 79.94 23.04
-7 -5 -1 46.1 14.27
7 5 1 51.71 19.01
7 5 1 70.83 20.81
-7 -5 -1 84.24 22.75
7 5 2 365.87 47.28
-7 -5 -2 340.11 36.21
7 5 2 340.14 44.95
7 5 2 391.64 44.66
7 5 2 392.27 52.46
-7 -5 -2 367.72 40.7
-7 -5 -3 31.26 10.26
7 5 3 37.48 12.28
7 5 3 46.95 18.5
-7 -5 -3 28.66 10.56
7 5 3 43.21 19.43
7 5 4 13.62 11.31
7 5 4 39.29 17.43
7 5 4 22.52 12.79
-7 -5 -4 17.71 9.87
-7 -5 -5 185.35 27.73
7 5 5 272.22 41.41
7 5 5 195.53 35.23
7 5 5 208.44 35.23
-7 -5 -6 46.77 14.19
7 5 6 76.43 20.19
7 5 6 75.42 17.62
7 5 6 49.44 19.98
-7 -5 -7 175 30.88
7 5 7 211.45 38.02
7 5 7 224.65 37.55
7 5 7 206.88 33.57
-7 -5 -8 132.56 28.12
7 5 8 87.29 26.68
7 5 8 93.18 23.46
7 5 8 96.74 24.11
-7 -5 -9 -14.49 14.31
7 5 9 12.94 8.68
7 5 9 14.34 9.76
-7 -5 -10 19.25 18.39
7 5 10 11.69 12.02
7 5 10 2.15 11.59
-7 -5 -11 -16.62 20.96
7 5 11 4.49 13.58
-7 -5 -12 77.7 29.07
7 5 12 53.58 18.81
-7 -5 -13 3 13.04
7 5 13 8.7 16.87
-7 -5 -14 23.42 18.77
7 5 14 26.88 20.97
-7 -5 -15 -8.12 14.36
-7 -6 7 -30.81 20.17
-7 -6 7 -2.74 11.81
-7 -6 6 11.16 21.91
-7 -6 6 34.36 25.6
-7 -6 5 17.41 7.46
-7 -6 5 -8.27 10.37
-7 -6 4 -11.59 12.71
-7 -6 4 9.91 9.45
7 6 -3 29.14 13.75
-7 -6 3 29.72 16.6
7 6 -3 49.94 20.67
-7 -6 3 15.77 7.63
7 6 -2 70.95 23.42
-7 -6 2 109.15 27.97
7 6 -2 100.83 28.39
-7 -6 2 68.96 25.57
7 6 -1 27.63 10.68
-7 -6 1 35.57 16.03
7 6 -1 41.79 16.66
-7 -6 1 29.42 16.15
-7 -6 0 42.11 15.82
7 6 0 48.71 15.74
7 6 0 41.71 16.1
-7 -6 0 54.36 23.82
7 6 0 51.89 23.27
7 6 1 12.09 12.16
-7 -6 -1 8.54 6.92
7 6 1 -4.94 8.91
7 6 1 12.44 6.01
7 6 1 23.89 13.92
-7 -6 -1 14.4 8.26
7 6 2 -5.13 13.84
7 6 2 -1.54 8.51
-7 -6 -2 4.87 7.29
7 6 2 -5.82 10.81
7 6 2 0.11 12.4
-7 -6 -2 -2.69 6.42
7 6 3 1.73 12.63
-7 -6 -3 11.83 8.3
7 6 3 -0.77 11.49
7 6 3 16.9 10.79
-7 -6 -3 -0.86 7.91
7 6 3 12.41 14.83
7 6 4 31.26 15.02
7 6 4 11.7 14.67
7 6 4 -0.72 17.12
-7 -6 -4 34.32 12.41
7 6 5 104.97 27.27
7 6 5 141.24 29.42
7 6 5 123.53 28.87
7 6 6 330.11 50.56
7 6 6 299.66 42.47
7 6 6 361.05 49.14
7 6 7 149.77 34.23
7 6 7 123.83 29.71
7 6 7 161.92 32.64
-7 -6 -8 27.03 12.02
7 6 8 9.38 13.66
7 6 8 13.32 15.38
7 6 8 12.29 11.59
-7 -6 -9 -4.58 10.42
7 6 9 5.84 8.61
7 6 9 4.44 7.53
-7 -6 -10 3.45 17.84
7 6 10 -5.46 19.58
7 6 10 -8.67 12.47
-7 -6 -11 -4.15 15.66
7 6 11 -30.64 29.11
-7 -6 -12 34.54 8.76
7 6 12 34.14 21.6
-7 -6 -13 24.54 18.54
7 6 13 30.22 20.92
-7 -6 -14 60.42 28.14
7 6 14 53.8 38.63
-7 -6 -15 17.06 27.9
-7 -7 6 47.79 27.62
-7 -7 6 28.93 24.28
-7 -7 5 2.13 12.88
-7 -7 5 34.53 19.12
-7 -7 4 72.38 27.58
7 7 -4 70.55 29.4
-7 -7 4 89.21 28.33
-7 -7 3 35.65 19.11
7 7 -3 4.36 8.24
-7 -7 3 28.89 18.82
-7 -7 2 38.58 24.63
7 7 -2 2.95 12.92
-7 -7 2 -3.31 16.38
7 7 -1 -10.78 10.59
-7 -7 1 7.33 12.85
7 7 -1 15.5 16.13
-7 -7 1 2.58 9.69
7 7 0 87.1 26.22
-7 -7 0 105.85 26.64
7 7 0 94.65 27.05
-7 -7 0 62.65 21.09
-7 -7 -1 93.22 24.64
7 7 1 94.11 22.78
7 7 1 119.08 33.11
-7 -7 -1 84.93 24.81
7 7 2 363.96 53.72
-7 -7 -2 266.03 37.74
7 7 2 293.67 45.84
7 7 2 402.32 54.73
-7 -7 -2 300.81 43.54
7 7 3 93.19 27.89
-7 -7 -3 103.58 23.82
7 7 3 102.88 28.35
7 7 3 101.58 31.91
7 7 3 115.03 28.32
-7 -7 -3 95.22 21.9
7 7 4 2.72 10.05
7 7 4 3.52 13.06
-7 -7 -4 1.97 5.09
7 7 4 7.39 9.71
7 7 5 178.31 35.31
7 7 5 162.03 37.29
7 7 5 148.45 33.67
7 7 6 23.76 13.52
7 7 6 36.62 15.04
7 7 6 41.35 20.82
7 7 7 37.44 17.57
7 7 7 37.22 14.36
7 7 7 37.98 12.42
7 7 8 32.99 16.88
7 7 8 43.69 23.8
7 7 8 38.39 16.93
7 7 9 137.43 32.83
7 7 9 91.58 23.28
7 7 10 8.44 15.19
7 7 10 156.3 45.84
-7 -7 -11 41.16 21.4
7 7 11 44.27 32.12
7 7 11 73.97 25.58
-7 -7 -12 33.91 27.67
7 7 12 42.28 19
-7 -7 -13 54.03 22.79
7 7 13 -8.86 16.25
-7 -7 -14 4.14 20.95
-7 -7 -15 -14 22.24
-7 -8 5 55.79 25.81
-7 -8 4 17.32 15.1
7 8 -4 7.82 15.28
-7 -8 4 9.04 19.91
-7 -8 3 -14.59 14.36
7 8 -3 -10.48 21.97
-7 -8 3 6.63 8.36
-7 -8 2 -28.13 14.95
7 8 -2 -19.33 16.1
-7 -8 2 -2.12 8.1
7 8 -1 97.12 40.51
-7 -8 1 70.47 23.3
7 8 -1 75.72 27.99
-7 -8 1 47.9 22.16
7 8 0 117.99 31.5
-7 -8 0 146.18 31.17
7 8 0 150.03 35.78
-7 -8 0 124.36 34.59
-7 -8 -1 -9.79 11.97
7 8 1 -12.56 17.41
7 8 1 10.27 16.31
-7 -8 -1 -4.28 12.32
7 8 2 296.26 48.72
-7 -8 -2 247.67 38.81
7 8 2 251.33 45.12
7 8 2 354.64 54.57
7 8 3 471.5 60.92
7 8 3 416.83 57.72
7 8 3 543.5 64.34
7 8 4 -3.6 12.39
7 8 4 -0.03 10.86
7 8 4 24.85 12.86
7 8 5 80.85 26.94
7 8 5 82.24 22.17
7 8 6 29.51 17.91
7 8 6 7.56 12.04
7 8 7 106.37 33.22
7 8 7 98.24 29.68
7 8 8 105.66 32.25
7 8 8 81.02 30.59
7 8 9 80.24 35.11
7 8 9 92.49 53.42
7 8 10 62.85 30.57
7 8 10 293.75 73.73
7 8 11 -24.1 26.67
7 8 12 32.25 11.59
7 8 13 -3.81 13.41
-7 -9 3 -16.51 17.62
7 9 -3 -43.27 28.7
-7 -9 3 27.68 17.68
-7 -9 2 167.45 38.76
7 9 -2 120.9 35.53
-7 -9 2 113.09 36.23
-7 -9 1 5.64 8.12
7 9 -1 8.62 13.01
-7 -9 1 18.08 22.42
-7 -9 0 8.09 6.74
7 9 0 -22.16 19.65
-7 -9 0 -3.58 12.87
-7 -9 -1 106.37 29.41
7 9 1 121.85 35.52
7 9 1 136.87 36.81
-7 -9 -2 10.39 5.88
7 9 2 -9.23 14.88
7 9 2 7.43 15.25
7 9 3 266.62 50.21
7 9 3 251.5 50.85
7 9 3 235.83 45.91
7 9 4 -3.36 11.96
7 9 4 13.63 35.53
7 9 4 4.76 10.16
7 9 5 43.85 17.13
7 9 5 136.96 46.82
7 9 6 11.62 15.98
7 9 6 28.48 30.66
7 9 7 -18.37 17
7 9 7 4.43 16.08
7 9 8 0.07 10.73
7 9 8 -12.15 19.48
7 9 9 12.78 14.24
7 9 9 14.27 9.04
7 9 10 -7.36 18.64
7 9 11 31.5 19.65
7 9 12 21.46 26.18
-7 -10 2 191.91 48.32
-7 -10 2 117.09 39.59
-7 -10 1 -21.48 16.12
7 10 -1 8.96 21.35
-7 -10 1 45.01 25.77
-7 -10 0 28.68 20.86
7 10 0 26.39 20.21
-7 -10 0 8.26 18.73
-7 -10 -1 19.85 10.66
7 10 1 42.87 19.66
-7 -10 -2 3.49 6.81
7 10 2 5.74 13.59
7 10 3 112.65 35.12
7 10 3 95.19 32.86
7 10 4 4.02 7.74
-7 -10 -4 6 12.53
7 10 4 17.01 11.74
7 10 5 -16.27 7.91
7 10 6 5.85 14.93
7 10 7 3.89 13.49
7 10 8 -1.89 12.06
7 10 9 25.26 22.9
7 10 10 -3.34 14
7 10 11 57.47 27.19
7 10 12 145.32 50.28
-7 -11 0 233.31 46.15
-7 -11 0 196.89 49.72
-7 -11 -1 178.03 42.54
7 11 1 248.68 56.86
-7 -11 -2 24.54 13.54
7 11 2 11.66 18.01
7 11 3 -15.14 26.92
7 11 4 -10.78 18.21
7 11 4 11.76 13.82
7 11 5 45.19 18.97
-7 -11 -5 28.5 21.43
7 11 6 15.21 25.59
-7 -11 -6 14.47 16.42
7 11 7 11.02 11.86
-7 -11 -7 -12.47 12.98
7 11 8 13.98 15.21
7 11 9 -13.69 11.57
7 11 10 24.68 24.32
-7 -12 -2 28.43 21.59
-7 -12 -3 -4.03 12.55
7 12 5 78.79 30.02
7 12 6 27.69 25.13
-7 -12 -6 3.14 24.91
7 12 7 10.97 19.8
-7 -12 -7 9.97 27.59
7 12 8 26.19 15.81
-7 -12 -8 9.99 16.77
-7 -12 -9 23.45 25.86
-8 9 5 5.49 8.59
8 -9 -5 2.65 16.11
8 -9 -4 -22.03 8.89
8 -9 -4 0.02 9.39
-8 9 4 -23.74 12.46
8 -9 -3 6.07 13.4
-8 9 3 14.69 19.92
8 -9 -2 8.33 23.87
-8 9 2 11.76 14.03
-8 9 1 19.55 24.13
8 -9 -1 62.32 37.02
-8 9 0 9.41 21.49
8 -9 0 3.45 19.16
-8 9 -1 407.94 76.33
8 -9 1 207.86 69.79
-8 9 -2 210.59 53.53
-8 8 7 32.9 13.38
-8 8 7 58.4 26.46
-8 8 6 37.6 14.72
-8 8 6 -11.56 22.43
8 -8 -6 0.98 15
-8 8 5 51.8 25.91
-8 8 5 9.09 13.08
8 -8 -5 10.64 16.1
8 -8 -5 18.69 8.62
8 -8 -4 21.2 21.34
-8 8 4 59.14 29.2
8 -8 -4 37.18 24.78
8 -8 -3 -12.01 17.75
8 -8 -3 8.93 14.59
-8 8 3 -5.93 14.19
8 -8 -2 18.07 13.84
-8 8 2 -7.83 9.22
-8 8 1 35.07 24.57
8 -8 -1 7.43 22.71
-8 8 0 -28.97 17.58
8 -8 0 0.42 9.74
-8 8 -1 11.25 14.72
8 -8 1 -26.06 19.03
-8 8 -2 66.81 31.11
8 -8 2 40.41 22.05
-8 8 -3 13.42 18.32
8 -8 3 25.21 21.65
-8 8 -4 -0.23 19.4
8 -8 4 -7.54 14.18
-8 7 8 96.24 26.27
-8 7 8 91.84 34.77
-8 7 7 -19.7 15.79
-8 7 7 17.17 27.69
-8 7 6 32.04 26.13
-8 7 6 26.4 16.16
8 -7 -6 22.65 15.88
-8 7 5 47.9 30.97
-8 7 5 55.26 32.47
8 -7 -5 15.42 20.29
8 -7 -5 26.69 10.44
-8 7 4 6.53 18.31
-8 7 4 -6.42 18.73
8 -7 -4 -1.34 12.36
8 -7 -4 9.22 16.22
-8 7 3 7.74 11.45
8 -7 -3 30.56 21.88
-8 7 3 0.5 18.75
8 -7 -3 0.41 17.75
8 -7 -2 -8.58 17.87
8 -7 -2 -6.22 15.24
-8 7 2 5.16 9.34
8 -7 -1 1.34 7.27
-8 7 1 3.33 8.23
-8 7 0 18.02 10.94
8 -7 0 1.85 15.16
-8 7 -1 125.12 41.58
8 -7 1 95.91 33.96
-8 7 -2 107.27 38.31
8 -7 2 55.18 28.82
-8 7 -3 7.54 8.98
8 -7 3 -14.23 19.4
-8 7 -4 3.95 16.98
8 -7 4 21.75 22.27
-8 7 -5 4.29 20.06
-8 7 -6 44.04 27.69
-8 7 -6 75.55 25.72
-8 6 9 378.34 69.47
-8 6 9 437.05 76.48
-8 6 8 15.42 11.69
-8 6 8 47.78 26.25
-8 6 7 36.97 32.09
-8 6 7 4.74 13.72
-8 6 6 59.37 24.58
-8 6 6 30.43 9.63
8 -6 -6 23.21 18.73
8 -6 -5 19.6 20.48
-8 6 5 5.77 12.12
-8 6 5 -4.7 9.45
8 -6 -5 15.18 15.23
-8 6 4 50.02 23.34
-8 6 4 47.32 24.44
8 -6 -4 65.74 25.97
8 -6 -4 36.06 14.46
-8 6 3 12.64 10.2
-8 6 3 41.53 20.59
8 -6 -3 19.11 19.24
-8 6 2 11.82 18.47
8 -6 -2 24.21 14.7
-8 6 2 31.7 16.86
8 -6 -2 9.01 14.44
-8 6 1 83.7 31.2
8 -6 -1 81.18 28.55
8 -6 -1 70.9 32.7
-8 6 1 81.55 26.01
8 -6 0 31.38 25.61
-8 6 0 79.31 26.26
-8 6 -1 48.59 25.19
8 -6 1 40.29 29.51
-8 6 -2 10.59 10.63
8 -6 2 -2.49 9.24
-8 6 -3 -12.62 17.93
8 -6 3 -9.26 8.83
-8 6 -4 19.91 16.63
8 -6 4 -14.55 19.3
-8 6 -5 2.96 18.66
-8 6 -6 3.36 14.65
-8 6 -6 34.13 16.77
-8 6 -7 -0.02 21.88
-8 6 -7 -4.16 15.31
-8 5 9 22.58 18.06
-8 5 9 4.67 13.03
-8 5 9 0.75 26.29
-8 5 8 23.6 13.57
-8 5 8 18.12 15.62
-8 5 8 -21.46 26.39
-8 5 7 224.07 52.44
-8 5 7 165.38 45.24
-8 5 7 172.85 43.5
-8 5 6 0.48 21.81
-8 5 6 3.16 6.87
8 -5 -5 60.93 23.2
-8 5 5 52.97 21.49
-8 5 5 46.39 21.84
8 -5 -5 32.48 13.73
8 -5 -4 25.59 18.17
-8 5 4 53.1 25.35
-8 5 4 33.62 20.62
8 -5 -4 41.64 26.11
-8 5 3 138.71 39.11
-8 5 3 105.44 29.37
8 -5 -3 78.53 31.08
8 -5 -3 133.77 35.02
-8 5 2 446.13 59.51
8 -5 -2 473.26 65.45
8 -5 -2 476.74 63.76
-8 5 2 457.4 64.6
-8 5 1 209.52 43.69
8 -5 -1 239.11 46.67
-8 5 1 202.77 40.49
8 -5 -1 167.45 44.26
-8 5 0 312.92 50.78
-8 5 0 291.05 47.29
8 -5 0 298.22 51.05
8 -5 0 268.17 51.96
-8 5 -1 60.89 24.51
8 -5 1 52.67 23.23
-8 5 -2 17.59 9.04
8 -5 2 12.37 8.63
-8 5 -3 19.41 11.16
8 -5 3 -3.8 16.07
-8 5 -4 3.7 14.82
8 -5 4 22.19 14.06
-8 5 -5 21.38 16.02
-8 5 -6 -25.94 16.88
-8 5 -7 108.69 40.22
-8 5 -7 110.39 42.21
-8 5 -8 58.96 22.5
8 -5 8 20.32 26.34
-8 5 -9 -34.85 30.66
-8 4 10 63.5 37.07
-8 4 10 164.94 49.12
-8 4 9 37.22 23.4
-8 4 9 46.64 26.19
-8 4 9 74.17 25.89
-8 4 8 87.53 31.7
-8 4 8 90.24 35.05
-8 4 8 83.35 36.2
-8 4 7 2.04 17.88
-8 4 7 -3.35 8.02
-8 4 7 22.32 20.74
-8 4 6 23.66 19.78
-8 4 6 26.7 18.92
-8 4 6 3.89 8.68
-8 4 5 24.86 12.56
8 -4 -5 19.85 15.53
-8 4 5 36.08 21.16
-8 4 5 22.73 15.91
8 -4 -5 49.04 21.81
8 -4 -4 61.19 23.11
-8 4 4 121.33 37.59
-8 4 4 86.22 27.34
-8 4 4 74.62 24.42
8 -4 -4 63.61 26.1
8 -4 -3 19.42 17.62
-8 4 3 -8.39 18.21
-8 4 3 9.57 10.71
8 -4 -3 -6.17 10.69
-8 4 2 57.46 24.39
-8 4 2 73.14 25.22
8 -4 -2 66.23 23.47
8 -4 -2 52.55 18.85
-8 4 1 304.5 50.3
-8 4 1 256.18 41.75
8 -4 -1 269.08 46.99
8 -4 -1 239.66 45.48
-8 4 0 25.56 15.22
8 -4 0 -1.82 8.55
-8 4 0 8.33 13.5
8 -4 0 19.92 14.26
-8 4 -1 17.88 10.54
8 -4 1 12.42 10.96
8 -4 1 21.18 17.57
-8 4 -1 16.25 13.72
-8 4 -2 2.2 8.53
8 -4 2 -3.2 16.34
8 -4 2 16.21 14.49
-8 4 -3 25.22 18.25
8 -4 3 81.11 26.32
8 -4 3 35.35 24.69
-8 4 -4 7 10.37
-8 4 -5 10.86 10.73
-8 4 -6 1.56 9.82
8 -4 6 0.82 9.7
-8 4 -7 8.51 16.95
8 -4 7 0.44 22.34
-8 4 -7 -7.04 14.81
-8 4 -8 30.09 15.99
8 -4 8 -0.81 12.74
-8 4 -9 -7.72 22.72
-8 4 -10 24.4 33.14
-8 3 10 38.91 23.21
-8 3 10 101.86 39.92
-8 3 9 -0.4 12.78
-8 3 9 -16.22 16.91
-8 3 8 -35.56 20.99
-8 3 8 0.33 22.17
-8 3 7 0.02 16.74
-8 3 7 -9.68 15.09
-8 3 7 -27.1 9.35
-8 3 6 25.94 17.42
-8 3 6 36.28 24.06
-8 3 6 28.4 16.96
-8 3 5 118.88 34.73
8 -3 -5 117.25 34.99
-8 3 5 126.86 34.65
-8 3 5 135.25 34.19
-8 3 4 92.82 28.75
8 -3 -4 76.52 26.37
-8 3 4 65.27 22.68
-8 3 4 93.62 27.69
8 -3 -4 47.6 18
8 -3 -3 84.31 25.8
-8 3 3 90.22 31.18
-8 3 3 46.19 15.45
-8 3 3 82.54 25.26
8 -3 -3 72.09 23.9
8 -3 -2 23.19 14.36
-8 3 2 -6.02 7.34
-8 3 2 4.12 9.81
8 -3 -2 11.12 6.58
-8 3 1 1277.32 87.9
8 -3 -1 1361.07 104.48
8 -3 -1 1272.45 93.94
-8 3 1 1369.91 103.22
-8 3 0 278.27 40.49
8 -3 0 344.7 51.87
8 -3 0 293.65 45.41
-8 3 0 364.53 50.84
-8 3 -1 98.82 28.76
8 -3 1 86.63 27
8 -3 1 108.57 31.48
-8 3 -1 95.48 24.49
-8 3 -2 48.16 19.24
-8 3 -2 51.14 19.76
8 -3 2 63.61 23.28
8 -3 2 42.32 20.48
-8 3 -3 10.43 11.22
8 -3 3 -11.26 11.07
8 -3 3 -3.21 11.49
-8 3 -4 7.92 9.38
8 -3 4 18.35 13.13
-8 3 -5 132.51 35.39
8 -3 5 217.42 44.85
-8 3 -6 28.21 22.91
8 -3 6 10.78 9.07
8 -3 7 -11.35 16.53
-8 3 -7 -3.06 9.24
-8 3 -8 105.52 36.46
8 -3 8 77.04 26.29
-8 3 -9 8.16 18.3
-8 3 -10 -18.55 12.66
-8 2 10 -42.31 16.01
-8 2 9 -5.53 11.99
-8 2 9 37.8 23.64
-8 2 8 31.75 25.39
-8 2 8 16.46 9.15
-8 2 7 34.58 19.8
-8 2 7 44.06 21.75
-8 2 6 101.31 33
-8 2 6 100.93 30.46
-8 2 5 75.31 25.43
-8 2 5 33.6 18.57
-8 2 5 52.82 24.29
8 -2 -5 24.21 7.02
-8 2 4 33.68 17.26
8 -2 -4 19.64 16.54
-8 2 4 15.27 14.23
-8 2 4 28.99 13.63
-8 2 3 10.68 10.98
8 -2 -3 17.19 13.63
-8 2 3 -13.79 13
-8 2 3 -2.95 7.7
8 -2 -3 -10.46 8.69
-8 2 2 435.76 50.24
-8 2 2 424.58 50.05
8 -2 -2 422.98 55.86
8 -2 -2 308.22 43.8
-8 2 2 506.21 63.27
-8 2 1 612.55 57.59
8 -2 -1 603.77 68.12
8 -2 -1 596.39 61.84
-8 2 1 650.68 68.77
8 -2 0 163.52 37.37
-8 2 0 170.14 36.14
-8 2 0 166.22 29.69
8 -2 0 121.05 29.71
-8 2 -1 2.85 11.21
-8 2 -1 0.71 6.1
8 -2 1 4.47 8.25
8 -2 1 4.04 12.63
-8 2 -2 18.65 11.5
8 -2 2 -10.65 12.71
-8 2 -3 17.8 11.46
-8 2 -3 2.27 11.1
8 -2 3 6.12 10.3
-8 2 -4 15.59 10.9
8 -2 4 19.72 15.26
8 -2 5 145.89 34.56
8 -2 6 47.44 23.3
8 -2 7 20.13 12.35
-8 2 -7 19.8 14.98
-8 2 -8 14.97 21
8 -2 8 -1.54 7.82
-8 2 -9 58.75 24.78
-8 2 -10 209.43 50.83
-8 2 -11 26.85 22.21
-8 1 9 99.76 38.76
-8 1 9 57.01 29.21
-8 1 8 29.05 19.01
-8 1 8 29.02 22.79
-8 1 7 -1.5 18.54
-8 1 7 25.14 18
-8 1 6 144.59 38.77
-8 1 6 151.22 36.27
-8 1 5 -1.6 11.39
8 -1 -5 -0.13 8.68
-8 1 5 11.03 12.42
8 -1 -5 8.8 13.29
-8 1 4 49.29 24.57
8 -1 -4 35.13 16.63
-8 1 4 29.21 22.51
8 -1 -4 46.97 20.26
-8 1 3 7.17 7.34
8 -1 -3 24.27 8.35
-8 1 3 4.58 8.81
-8 1 3 15.5 9.16
-8 1 2 217.96 41.96
8 -1 -2 214.68 41.81
-8 1 2 168.05 30.83
-8 1 2 192.52 33.28
8 -1 -1 281.82 46.04
-8 1 1 330.96 40.42
-8 1 1 303.48 37.69
-8 1 1 344.06 48
-8 1 0 203.76 37.45
8 -1 0 156.47 32.08
8 -1 1 -6.28 7.66
-8 1 -1 -18.32 10.23
8 -1 2 35.97 19.15
-8 1 -2 54.22 20.1
8 -1 3 11.89 13.02
-8 1 -3 -1.76 13
8 -1 4 55.55 14.16
8 -1 5 4.99 7.22
8 -1 6 27.75 16.19
8 -1 7 -16.83 12.72
8 -1 7 -1.72 12.75
-8 1 -7 8.36 10.63
-8 1 -8 5.37 14.74
8 -1 8 22.28 12.83
8 -1 8 8.42 7.72
-8 1 -9 268.75 51.38
-8 1 -10 294.14 59.54
-8 1 -11 -4.63 17.33
-8 1 -12 52.24 26
-8 0 9 -7.3 20.72
-8 0 9 -16.42 21.01
-8 0 8 -18.41 20.36
-8 0 8 18.56 19.09
-8 0 7 29.38 23.93
-8 0 7 38.28 19.47
-8 0 6 234.41 50.34
-8 0 6 263.56 48.72
-8 0 5 199.71 40.27
8 0 -5 222.71 41.29
8 0 -5 182.2 37.98
-8 0 5 209.7 42
8 0 -4 113.2 30.94
-8 0 4 49.45 24.81
8 0 -4 76.82 23.71
-8 0 4 55.58 19.69
-8 0 3 51.22 22.29
8 0 -3 58.7 22.89
-8 0 3 65.37 23.1
8 0 -3 72.88 26.52
-8 0 2 36.98 16.51
8 0 -2 52.56 20.42
-8 0 2 35.81 20.82
8 0 -2 21.61 12
-8 0 1 330.12 38.67
8 0 -1 282.37 43.32
8 0 -1 328.86 48.26
-8 0 1 307 45.38
-8 0 0 87.92 22.02
8 0 0 93.14 24.35
8 0 1 185.24 34.23
-8 0 -1 156.25 33.28
-8 0 -2 10.35 10.36
8 0 2 -3.72 14.05
8 0 3 189.83 37.59
-8 0 -3 175.74 30.01
8 0 3 141.82 27.64
8 0 4 80.37 22.03
8 0 4 107.66 26.13
8 0 4 66.75 23.94
8 0 5 10.34 10.94
8 0 5 9.6 13.82
8 0 5 4.21 6.72
8 0 6 77.9 23.21
8 0 6 62.62 19
8 0 6 59.88 18.06
8 0 7 51.77 18.5
8 0 7 44.47 21.04
-8 0 -7 46.57 21.62
-8 0 -8 -15.18 14.2
8 0 8 0.95 6.59
8 0 8 15.42 15.64
-8 0 -9 52.88 25.72
-8 0 -10 41.82 21.56
-8 0 -11 14.06 13.23
-8 0 -12 10.43 11.48
-8 -1 9 69.85 33.44
-8 -1 9 64.07 27.91
-8 -1 8 -11.41 8.65
-8 -1 8 -10.59 12.58
-8 -1 7 62.43 36.78
-8 -1 7 29.58 21.11
-8 -1 6 -15.2 12.3
-8 -1 6 -2.83 18.07
-8 -1 5 140.81 35.03
-8 -1 5 84.36 26.19
8 1 -5 99.28 31.6
-8 -1 4 -18.87 18.4
8 1 -4 -34.55 20.82
8 1 -4 20.29 15.29
-8 -1 4 18.39 15.33
-8 -1 3 774.3 70.47
8 1 -3 632.89 61.76
8 1 -3 709.44 73.01
-8 -1 3 753.1 76.17
-8 -1 2 13.12 13.83
8 1 -2 9.41 7.63
-8 -1 2 16.6 9.1
8 1 -2 16.38 13.1
-8 -1 1 117.51 27.79
8 1 -1 97.12 25.16
-8 -1 1 117.6 24.62
8 1 -1 96.31 26.74
-8 -1 0 11.82 14.25
8 1 0 -14.99 17.68
8 1 0 -7.41 15.95
-8 -1 -1 137.4 28.53
8 1 1 133.98 27.93
8 1 1 108.57 27.95
8 1 2 571.09 54.76
8 1 2 583.4 55.48
8 1 2 601.14 64.34
-8 -1 -2 674.83 58.02
-8 -1 -3 9.6 7.68
8 1 3 17.01 13.21
8 1 3 10.45 10.25
8 1 4 3.31 12.01
8 1 4 7.26 8.3
8 1 4 5.71 7.53
8 1 5 21.04 11.93
8 1 5 31.03 14.02
8 1 5 28.82 15.4
8 1 6 -0.97 8.59
8 1 6 8.63 7.29
8 1 6 3.26 10.44
8 1 7 42.02 13.79
8 1 7 57.3 20.35
8 1 7 59.21 19.42
-8 -1 -7 48.59 22.97
-8 -1 -8 186 42.17
8 1 8 188.99 33.46
8 1 8 184.06 34.19
8 1 8 187.12 33.38
-8 -1 -9 13.62 9.29
8 1 9 4.56 9.29
8 1 9 13.81 8.25
-8 -1 -10 60.49 24.34
-8 -1 -11 14.85 16.58
-8 -1 -12 25.79 27.7
-8 -1 -13 65.97 35.69
-8 -2 8 4.57 17.37
-8 -2 8 -11.66 13.33
-8 -2 7 25.25 18.48
-8 -2 7 -36.46 20.52
-8 -2 6 7.74 10.02
-8 -2 6 11.59 13.18
-8 -2 5 3.75 12.62
8 2 -5 12.01 12.15
-8 -2 5 6.39 11.08
8 2 -4 -6.87 10.1
-8 -2 4 8.9 12.75
8 2 -4 -15.14 7.59
-8 -2 3 87.35 24.89
8 2 -3 55.56 21.36
-8 -2 3 97.46 24.42
8 2 -3 91.4 27.86
-8 -2 2 36.49 15.82
8 2 -2 43.99 20.13
8 2 -2 45 15.6
-8 -2 2 69.08 21.53
-8 -2 1 145.82 33.44
8 2 -1 121.92 33.07
8 2 -1 122.56 28.61
-8 -2 1 138.38 25.37
-8 -2 0 11.31 7.11
8 2 0 5.56 9.84
-8 -2 0 18.01 9.86
8 2 0 10.46 9.1
-8 -2 -1 -9.72 8.06
8 2 1 -9.24 11.15
8 2 1 2.89 7.71
-8 -2 -2 92.72 22.83
8 2 2 114.98 27.16
8 2 2 73.7 17.08
8 2 2 88.75 24.26
-8 -2 -3 4.17 9.99
8 2 3 10.33 6.63
8 2 3 20.79 9.6
8 2 4 13.27 12.07
8 2 4 9.22 9.9
8 2 4 -2.28 15.61
8 2 5 -0.82 7.39
8 2 5 7.41 10.42
8 2 5 15.03 14.28
8 2 6 10.9 6.25
8 2 6 21.36 12.65
8 2 6 16.29 13.01
-8 -2 -6 3.9 6.88
-8 -2 -7 9.28 11.57
8 2 7 37.73 15.22
8 2 7 18.87 10.84
8 2 7 17.74 16.2
-8 -2 -8 -1.64 14.2
8 2 8 -17.02 11.23
8 2 8 -5 11.41
8 2 8 9.99 14.04
-8 -2 -9 37.19 21.3
8 2 9 59.79 26.12
8 2 9 50.04 20.01
-8 -2 -10 55.5 24.67
8 2 10 78.43 27.76
-8 -2 -11 -0.1 19.21
8 2 11 -13.76 7.63
-8 -2 -12 11.31 10.42
-8 -2 -13 39.5 22.89
-8 -3 8 12.47 11.21
-8 -3 8 -55.35 26.23
-8 -3 7 2.12 11.68
-8 -3 7 0.88 9.58
-8 -3 6 30.5 13.41
-8 -3 6 34.26 21.52
-8 -3 5 8.6 13.01
8 3 -5 27.85 26.06
-8 -3 5 -7.8 15.17
8 3 -4 3.38 16.36
-8 -3 4 34.34 19.87
8 3 -4 41.39 21.48
-8 -3 4 34.9 13.31
8 3 -3 18.92 11.11
8 3 -3 2.35 7.69
-8 -3 3 18.28 16.98
-8 -3 3 11.44 11.32
-8 -3 2 550.69 56.94
8 3 -2 502.2 56.31
8 3 -2 551.28 65.79
-8 -3 2 524.99 63.25
8 3 -1 12.62 9.35
8 3 -1 16.51 16.7
-8 -3 1 30.22 14.99
-8 -3 1 13.32 15.61
8 3 0 81.22 22.36
8 3 0 105.01 28.65
-8 -3 0 94.11 22.29
-8 -3 0 91.97 23.34
-8 -3 -1 -2.63 10.69
8 3 1 12.07 12.55
8 3 1 -3.41 7.48
-8 -3 -2 21.12 12.38
8 3 2 -0.35 9.11
8 3 2 13.22 11.75
-8 -3 -3 -5.43 10.4
8 3 3 11.57 17.68
8 3 3 -15.86 13.91
8 3 3 6.82 6.67
8 3 4 94.48 23.58
8 3 4 85.44 21.68
8 3 4 51.8 15.64
8 3 5 0.45 8.06
8 3 5 -19.41 16.15
8 3 5 19.31 15.52
8 3 6 61.36 20.61
8 3 6 59.04 19.51
8 3 6 41.86 14.75
-8 -3 -6 80.54 25.53
-8 -3 -7 -9.61 10.63
8 3 7 -3.84 11.2
8 3 7 4.16 8.1
8 3 7 -14.1 14.8
8 3 8 929.08 81.06
8 3 8 980.94 77.94
8 3 8 941.84 74.17
-8 -3 -8 983.86 88.76
-8 -3 -9 118.55 32.33
8 3 9 112.2 28.48
8 3 9 148.37 31.84
-8 -3 -10 39.49 24.96
8 3 10 95.67 29.22
-8 -3 -11 3.18 21.59
8 3 11 -16.3 20.5
-8 -3 -12 -6.18 22.31
8 3 12 -0.51 10.17
-8 -3 -13 68.72 31.01
8 3 13 78.09 29.4
-8 -3 -14 28.4 20.38
-8 -4 7 65.88 32.3
-8 -4 7 80.12 35.55
-8 -4 6 -21.08 18.28
-8 -4 6 2.66 18.55
-8 -4 5 3.19 11.59
-8 -4 5 0.72 11.68
-8 -4 4 9.94 14.74
8 4 -4 0.85 9.38
-8 -4 4 -6.44 14.48
8 4 -3 8.08 17.83
8 4 -3 -6.68 9.26
-8 -4 3 1.89 10.01
-8 -4 3 16.26 21.32
8 4 -2 150.07 31.93
-8 -4 2 207.62 35.82
8 4 -2 201.29 43.1
-8 -4 2 209.49 40.71
8 4 -1 68.77 26.56
8 4 -1 74.77 24.9
-8 -4 1 44.64 18.4
-8 -4 1 31.76 15.94
8 4 0 68.82 20.95
-8 -4 0 64.63 17.62
8 4 0 44.87 16.9
-8 -4 0 50.3 19.52
8 4 1 7.24 9.57
8 4 1 -6.51 6.94
-8 -4 -1 18.99 14.35
8 4 2 18.77 9.45
8 4 2 35.17 16.88
8 4 2 45.56 18.84
-8 -4 -2 24.53 13.54
8 4 3 -2.92 14.56
8 4 3 -3.15 15.22
8 4 3 -5.78 10.71
-8 -4 -3 2.29 5.85
8 4 4 49.49 19.5
8 4 4 29.33 12.71
8 4 5 189.45 36.18
8 4 5 201.73 37.07
8 4 5 181.8 33.86
-8 -4 -5 176.66 31.22
-8 -4 -6 74.76 22.08
8 4 6 90.76 23.97
8 4 6 66.81 18.84
8 4 6 82.2 22.95
-8 -4 -7 6.91 9.44
8 4 7 -10.06 18.06
8 4 7 24.64 16.7
8 4 7 19.23 14.63
-8 -4 -8 217.99 40.62
8 4 8 219.67 36.36
8 4 8 268.56 46.13
8 4 8 229.45 40.09
-8 -4 -9 304.54 48.11
8 4 9 366.51 53.65
8 4 9 293.02 44.26
-8 -4 -10 55.98 29.31
8 4 10 132.67 66.3
8 4 10 82.12 32.42
-8 -4 -11 0.61 8.58
8 4 11 -5.16 10.06
-8 -4 -12 -7.86 15.55
8 4 12 19.02 10.35
-8 -4 -13 -8.78 22.54
8 4 13 3.15 14.54
-8 -4 -14 52.8 32.48
8 4 14 8.36 10.13
-8 -5 7 63.27 30.5
-8 -5 6 2.84 18.81
-8 -5 6 37.75 28.15
-8 -5 5 -27.59 19.18
-8 -5 5 9.06 9.28
-8 -5 4 -15 8.94
-8 -5 4 4.55 9.52
8 5 -3 58.73 22.76
8 5 -3 79.64 30.35
-8 -5 3 67.42 27.51
-8 -5 3 87.94 28.38
8 5 -2 50.82 17.46
-8 -5 2 25.92 11.61
-8 -5 2 36.3 15.94
8 5 -2 30.77 21.31
8 5 -1 29.49 11
-8 -5 1 35.16 19.09
-8 -5 1 13.97 14.07
8 5 -1 -0.32 11.54
8 5 0 36.34 15.55
-8 -5 0 38.99 15.83
8 5 0 33 13.85
-8 -5 0 60.81 21.03
8 5 1 -25.2 20.74
8 5 1 8.51 10.07
-8 -5 -1 -4.72 11.01
8 5 1 6.69 8.96
-8 -5 -1 -1.26 8.7
8 5 2 7.95 11.43
8 5 2 52.12 22.46
8 5 2 35.19 17.03
-8 -5 -2 41.15 15.87
8 5 3 0.13 8.97
8 5 3 6.22 11.81
8 5 3 3.52 8.48
-8 -5 -3 8.15 6.28
8 5 4 4.35 14.03
8 5 4 33.68 15.24
8 5 4 16.6 16.8
8 5 5 13.92 11.77
8 5 5 30.69 14.65
8 5 5 30.47 16.21
-8 -5 -6 138.59 26.2
8 5 6 164.9 34.34
8 5 6 149.27 31.33
8 5 6 163.64 34.11
8 5 7 1168.34 96.2
8 5 7 1099.09 87.09
8 5 7 1176.94 87.61
-8 -5 -7 1081.24 81.16
8 5 8 674.27 72.79
8 5 8 525.54 59.48
8 5 8 669.85 64.8
-8 -5 -8 585.45 61.82
-8 -5 -9 27.77 21.52
8 5 9 -3.2 16.03
8 5 9 3.33 10.14
-8 -5 -10 55.72 24.73
8 5 10 126.97 37.56
8 5 10 65.11 22.28
-8 -5 -11 20.24 21.48
8 5 11 12.79 10.87
-8 -5 -12 3.77 13.99
8 5 12 -2.65 14.4
-8 -5 -13 -13.71 12.67
8 5 13 -15.23 14.62
-8 -5 -14 -49.93 26.55
-8 -6 6 46.46 27.17
-8 -6 6 59.28 29.01
-8 -6 5 6.82 23.31
-8 -6 5 2.94 13.78
-8 -6 4 5.18 13.64
-8 -6 4 -27.71 22.21
-8 -6 3 -12.01 19.26
-8 -6 3 -13.79 19.31
8 6 -2 -4.28 18.18
-8 -6 2 34.25 17.22
-8 -6 2 42.87 21.48
8 6 -1 11.18 10.37
8 6 -1 14.57 10.43
-8 -6 1 -2.36 9.8
-8 -6 1 1.45 10.85
8 6 0 -28.07 15.21
-8 -6 0 -5.16 9.24
8 6 0 14.02 15.33
-8 -6 0 4.15 8.82
8 6 1 47.84 21.22
8 6 1 59.81 21.12
-8 -6 -1 30.34 14.46
8 6 1 53.3 23.94
-8 -6 -1 43.01 16.8
8 6 2 21.77 11.08
8 6 2 38.39 19.24
8 6 2 16.65 14.6
8 6 2 39.23 22.67
-8 -6 -2 11.68 7.89
8 6 3 29.34 17.83
8 6 3 10.44 7.39
8 6 3 23.72 16.58
-8 -6 -3 23.29 13.34
8 6 4 329.1 51.65
8 6 4 254.52 42.3
8 6 4 298.91 49.83
8 6 5 72.2 24.01
8 6 5 81.82 25.32
8 6 5 80.01 24.88
8 6 6 102.75 28.91
8 6 6 108.7 28.62
8 6 6 112.09 30.07
8 6 7 2.24 13.73
8 6 7 17.41 14.11
8 6 7 -6.8 11.66
8 6 8 49.4 20.62
8 6 8 56.96 22.3
8 6 8 57.65 26.86
8 6 9 -22.08 20.05
8 6 9 2.43 29.31
-8 -6 -10 42.52 17.72
8 6 10 21.82 19.28
8 6 10 17.84 27.56
-8 -6 -11 1.74 11.79
8 6 11 -11.97 17.44
-8 -6 -12 -13.24 21.01
8 6 12 -8.86 17.07
-8 -6 -13 -0.58 9.62
8 6 13 -2.33 19.05
-8 -6 -14 46.16 27.73
-8 -7 5 12.94 13.81
-8 -7 5 31.8 21.34
-8 -7 4 21.58 19.47
-8 -7 4 -1.28 9.25
-8 -7 3 77.75 23.44
-8 -7 3 73.74 27.45
8 7 -2 -8.03 11.95
-8 -7 2 21.14 20.37
-8 -7 2 10.13 12.91
8 7 -1 12.85 33.87
-8 -7 1 3.62 10.27
8 7 -1 42.51 22.46
-8 -7 1 14.79 13.47
8 7 0 24.99 11.64
-8 -7 0 62.46 22.9
8 7 0 46.81 18.84
-8 -7 0 53.96 21.66
8 7 1 69.72 23.24
-8 -7 -1 51.8 19.96
8 7 1 100.97 26.2
-8 -7 -1 63.8 25
8 7 2 32.97 20.41
8 7 2 40.04 23.82
8 7 2 19.55 16
8 7 2 55.03 21.44
-8 -7 -2 38.13 15.67
8 7 3 198.85 41.83
8 7 3 188.67 40.07
8 7 3 140.96 32.66
8 7 3 240.13 40.88
-8 -7 -3 127.46 28.57
8 7 4 39.6 20.42
8 7 4 44.67 18.61
8 7 4 26.86 16.07
8 7 5 11.46 16.57
8 7 5 11.41 12.81
8 7 5 8.81 8.11
8 7 6 32.87 12.53
8 7 6 32.6 18.79
8 7 6 31.62 14.44
8 7 7 15.25 17.49
8 7 7 -13.46 11.93
8 7 7 0.14 9.68
8 7 8 32.87 14.93
8 7 8 -10.83 11.2
8 7 8 0.37 14.25
8 7 9 -25.96 26.02
8 7 9 -16.13 20.7
8 7 10 -12 24.43
8 7 10 -18.85 19
8 7 11 -5.42 13.57
8 7 11 -6.61 11.27
8 7 12 18.82 23.28
8 7 13 -18.02 20.36
-8 -8 4 22.34 10.87
-8 -8 3 -21.72 17.58
-8 -8 3 7.2 10.71
-8 -8 2 -5.21 14.99
-8 -8 2 40.91 25.34
8 8 -1 107.9 41.43
-8 -8 1 119.64 31.98
8 8 -1 143.74 37.43
-8 -8 1 93.59 32.42
8 8 0 8.11 16.19
-8 -8 0 13.08 11.31
8 8 0 34.11 11.92
-8 -8 0 43.14 23.1
8 8 1 71.17 31.99
-8 -8 -1 71.44 22.05
8 8 1 142.08 38.19
-8 -8 -1 61.81 21.77
8 8 2 56.4 18.13
-8 -8 -2 24.03 10.8
8 8 3 57.43 24.89
8 8 3 29.12 44.82
-8 -8 -3 33.21 13.75
8 8 4 9.33 10.99
8 8 4 89.95 29.2
8 8 5 102.58 31.52
8 8 5 418.25 64.21
8 8 6 27.53 9.79
8 8 6 77.06 24.04
8 8 7 51.64 30.78
8 8 7 -44.66 21.13
8 8 8 16.02 15.99
8 8 8 23.95 42.41
8 8 9 -8.72 12.34
8 8 9 -14.22 18
8 8 10 23.25 14.23
8 8 10 22.15 20.19
8 8 11 -34.38 26.61
8 8 11 16.5 21.15
8 8 12 -13.7 11.54
-8 -9 2 -10.81 12.88
-8 -9 2 -23.71 17.1
-8 -9 1 39.32 20.21
8 9 -1 46.1 22.05
-8 -9 1 66.92 31.37
8 9 0 13.07 10.34
-8 -9 0 65.93 23.5
8 9 0 100.71 32.83
-8 -9 0 51.22 23.05
8 9 1 164.46 43.23
-8 -9 -1 171.66 35.14
8 9 1 180.73 43.71
-8 -9 -1 91.28 32.34
8 9 2 75.35 20.69
8 9 2 93.4 26.11
-8 -9 -2 62.61 22.04
8 9 3 36.25 21.74
8 9 3 22.33 15.46
8 9 3 11.23 9.59
-8 -9 -3 19.09 15.72
8 9 4 60.22 22.45
8 9 4 67.85 23.52
8 9 5 20.42 9.36
8 9 5 -38.02 22.09
8 9 6 19.52 15.68
8 9 6 -32.04 27.49
8 9 7 41.23 24.3
8 9 7 2.4 12.8
8 9 8 38.63 22.64
8 9 8 4.7 17.14
8 9 9 0.5 13.59
8 9 9 -27.7 20.9
8 9 10 12.29 15.8
8 9 10 5.1 17.11
8 9 11 43.58 28.32
-8 -10 1 103.36 30.24
-8 -10 1 71.71 26.14
-8 -10 0 27.02 18.17
8 10 0 16.65 18.08
-8 -10 0 -15.12 9.34
-8 -10 -1 57.43 23.6
-8 -10 -1 19.46 22.47
8 10 2 43.82 19.43
-8 -10 -2 7.96 9.46
8 10 3 38.6 21.35
8 10 4 67.9 30.57
8 10 4 33.46 23.52
8 10 5 -52.51 30.78
8 10 5 16.33 24.41
8 10 6 7.02 16.19
8 10 6 22.77 15.61
8 10 7 -1.06 11.53
8 10 7 27.71 15.62
8 10 8 -8.83 13.28
8 10 8 11.55 18.67
8 10 9 -6.64 12.17
8 10 10 26.22 20.26
-8 -11 -1 10.33 16.21
-8 -11 -2 8.27 9.68
8 11 3 83.12 30.06
8 11 5 57.49 29.1
8 11 6 0.83 13.11
-8 -11 -6 -15.44 23.98
8 11 7 11.18 11.87
8 11 8 -16.07 11.46
-8 -12 -7 -24.17 23.24
-8 -12 -8 15.86 19.82
-9 8 5 -17.21 12.38
9 -8 -5 22.35 25.88
-9 8 4 11.41 21.46
9 -8 -4 0.12 8.82
9 -8 -4 -14.17 13.77
9 -8 -3 29.53 11.28
9 -8 -3 2.51 14.11
-9 8 3 55.36 26.93
9 -8 -2 -39.45 23.56
9 -8 -2 1.69 14.96
-9 8 2 31.08 23.68
-9 8 1 26.27 17.61
9 -8 -1 24.83 30.18
9 -8 -1 15.45 26.05
-9 8 0 0.76 11.77
9 -8 0 14.77 9.02
9 -8 0 1.43 17.34
-9 8 -1 122.23 40.84
9 -8 1 20.41 22.47
-9 8 -2 -12.97 19.89
-9 7 6 25.32 26.27
-9 7 6 -12.12 20.45
-9 7 5 46.58 26.56
-9 7 5 25.79 14.1
9 -7 -5 45.76 30.83
9 -7 -4 30.39 24.77
-9 7 4 40.4 34.66
-9 7 4 15.95 20.18
9 -7 -4 -9.02 9.01
-9 7 3 -6.54 12.17
-9 7 3 -16.53 11.49
9 -7 -3 25.59 26.05
9 -7 -3 2.58 14.9
9 -7 -2 -35.24 21.59
-9 7 2 -12.46 13.74
9 -7 -1 52.68 31
9 -7 -1 25.59 16.95
-9 7 1 81.27 32.2
-9 7 0 65.8 31.4
9 -7 0 75.89 28.79
9 -7 0 5.1 14.89
-9 7 -1 174.35 49.81
9 -7 1 162.89 41.45
9 -7 1 34.73 35.72
-9 7 -2 69.84 30.63
9 -7 2 120.06 37.3
9 -7 2 80.08 41.41
-9 7 -3 43.1 27.61
9 -7 3 -18.46 24.1
-9 7 -4 -24.5 31.19
-9 6 7 0.57 28.09
-9 6 7 6.24 10.3
-9 6 6 16.51 13.85
-9 6 6 51.27 24.14
9 -6 -5 42.53 26.4
-9 6 5 54.73 29.45
-9 6 5 5.1 7.43
9 -6 -5 -7.72 14.74
9 -6 -4 18.95 15.4
-9 6 4 15.85 22.68
-9 6 4 60.96 23.93
9 -6 -4 11.1 15.7
-9 6 3 27.68 22.11
-9 6 3 3.27 9.08
9 -6 -3 -3.64 11.25
9 -6 -3 -2.25 16.04
-9 6 2 10.82 13.2
-9 6 2 0.49 8.77
9 -6 -2 1.38 8.67
9 -6 -2 -13.06 15.6
-9 6 1 68.61 30.39
9 -6 -1 64.67 27.11
9 -6 -1 48.84 24.55
-9 6 1 82.73 29.67
-9 6 0 42.13 14.95
9 -6 0 77.97 31.24
9 -6 0 3.12 8.32
-9 6 -1 -6.36 7.84
9 -6 1 7.28 22.48
9 -6 1 5.1 7.53
-9 6 -2 43.05 26.29
9 -6 2 60.07 28.97
9 -6 2 5.37 20.53
-9 6 -3 31.31 24.93
9 -6 3 -30.71 24.44
9 -6 3 -1.15 9.38
-9 6 -4 -1.3 18.51
9 -6 4 13.73 21.97
9 -6 5 21.39 15.58
9 -6 6 58.74 24.54
-9 6 -6 1.54 10.87
-9 5 8 48.7 19.72
-9 5 7 4.58 16.38
-9 5 7 -17.37 18.87
-9 5 6 0.91 22
-9 5 6 -34.04 26.12
9 -5 -5 -20.07 18.16
-9 5 5 -2.36 19.34
-9 5 5 -12.3 17.58
9 -5 -4 -23.91 11.96
-9 5 4 28.47 22.72
-9 5 4 -11.48 12.09
9 -5 -4 4.47 18.59
9 -5 -3 42.51 19.9
-9 5 3 50.88 26.45
-9 5 3 12.44 12
9 -5 -3 25.25 27.28
-9 5 2 19.53 13.65
-9 5 2 1.1 14.4
9 -5 -2 -8.73 13.54
9 -5 -2 25.68 20.66
-9 5 1 -1.08 13.89
-9 5 1 14.9 13.33
9 -5 -1 -5.96 12.61
9 -5 -1 22.82 20.02
-9 5 0 52.84 22.54
9 -5 0 61.03 27.98
9 -5 0 44.59 25.43
-9 5 0 55.09 23.73
-9 5 -1 -7.3 11.58
9 -5 1 25.41 16.76
9 -5 1 -6.02 13.88
-9 5 -2 -8.32 11.3
9 -5 2 -0.15 13.45
9 -5 2 -0.12 12.61
-9 5 -3 -3.43 10.05
9 -5 3 -25.5 20.23
9 -5 3 -1.14 9.35
9 -5 4 -23.65 17.04
9 -5 5 -15.61 14.69
9 -5 6 10.16 10.28
9 -5 7 92.54 36.72
-9 5 -7 111.09 38.65
9 -5 8 26.96 23.95
-9 4 8 40.04 26.43
-9 4 8 70.18 38.72
-9 4 8 74.17 35.53
-9 4 7 33.04 25.32
-9 4 7 45.75 19.52
-9 4 7 60.41 32.2
-9 4 6 -8.39 17.03
-9 4 6 -17.7 18.08
-9 4 6 10.08 14.33
-9 4 5 43.67 24.43
9 -4 -5 18.68 19.23
-9 4 5 13.57 10.06
-9 4 5 -14.28 10.16
-9 4 4 97.13 31.63
9 -4 -4 53.12 20.22
-9 4 4 67.09 23.64
9 -4 -4 53.28 24.45
9 -4 -3 18.8 23.35
-9 4 3 14.46 21.16
-9 4 3 3.37 6.78
9 -4 -3 1.39 15.63
9 -4 -2 53.1 20.63
-9 4 2 56.44 27.37
-9 4 2 14.71 12.45
9 -4 -2 -15.93 13.51
9 -4 -1 6.61 18.71
-9 4 1 -31.99 19.35
-9 4 1 10.35 11.17
9 -4 -1 17.98 11.29
-9 4 0 16.42 20.58
9 -4 0 -2.71 9.66
-9 4 0 -10.27 9.48
9 -4 0 15.87 14.26
-9 4 -1 0.97 11.39
9 -4 1 26.41 19.28
9 -4 1 0.05 11.86
9 -4 2 7.95 11.58
9 -4 2 0.25 8.99
9 -4 3 40.93 23.25
9 -4 4 68.47 26.56
9 -4 5 2.45 12.64
9 -4 6 14.93 17.36
9 -4 7 64.1 29.18
-9 4 -7 45.45 23.37
-9 4 -8 28.37 28.11
9 -4 8 29.11 14.13
-9 3 8 20.65 17.01
-9 3 8 2.87 12.47
-9 3 7 -21.94 31.32
-9 3 7 9.81 17.18
-9 3 6 143.74 40.8
-9 3 6 119.07 39.91
-9 3 5 7.34 24.28
9 -3 -5 21.39 13.05
-9 3 5 12.43 14.62
-9 3 4 34.3 18.03
9 -3 -4 12.08 13.12
-9 3 4 20.11 10.4
-9 3 3 10.5 16.53
9 -3 -3 8.67 10.19
9 -3 -3 26.8 14.7
9 -3 -2 78.8 21.77
-9 3 2 47.03 17.91
9 -3 -2 40.44 13.75
9 -3 -1 225.45 46.73
-9 3 1 185.3 44.13
9 -3 -1 115.27 35.11
9 -3 0 87.14 28.72
-9 3 0 43.14 16.96
9 -3 0 49.38 19.6
9 -3 1 -7.09 12.68
-9 3 -1 68.94 28.82
-9 3 -2 26.23 14.59
9 -3 2 -9.32 12.39
9 -3 3 62.49 24.38
9 -3 4 81.58 23.12
9 -3 5 25.03 20.91
9 -3 6 10.5 16.46
9 -3 7 87.58 36.49
-9 3 -7 108.16 34.03
-9 3 -8 6.38 16.46
9 -3 8 44.03 16.09
-9 3 -9 28.56 26.55
-9 2 8 19.12 25.36
-9 2 8 -10.13 13.86
-9 2 7 25.29 25.65
-9 2 7 15.54 24.72
-9 2 6 -11.18 15.9
-9 2 6 9.38 11.53
-9 2 5 22.92 25.11
9 -2 -5 -24.5 18.67
-9 2 5 5.59 15.61
9 -2 -5 7.37 15.11
-9 2 4 61.9 29.75
9 -2 -4 26.32 21.61
-9 2 4 54.26 25.45
-9 2 3 51.23 22.95
9 -2 -3 19.88 7.83
-9 2 2 56.78 20.05
9 -2 -2 66.75 24.95
-9 2 1 80.58 30.24
9 -2 -1 45.84 23.44
9 -2 0 66.17 28.4
-9 2 0 48.7 22.42
9 -2 1 11.61 12.45
-9 2 -1 40.92 18.05
9 -2 2 7.75 16.79
-9 2 -2 27.8 18.53
9 -2 3 12.16 9.33
-9 2 -3 -10.99 8.08
9 -2 4 11.61 15.93
9 -2 5 -13.03 14.09
9 -2 6 -20.88 14.54
9 -2 7 18.54 16.29
9 -2 7 -0.71 13.18
-9 2 -7 0.2 16.22
-9 2 -8 0.48 9.94
9 -2 8 -10.16 20.22
-9 2 -9 0.25 11.91
-9 2 -10 32.81 22.32
-9 1 8 -19.93 15.46
-9 1 8 -16.38 15.33
-9 1 7 -7.72 13.8
-9 1 7 15.38 15.76
-9 1 6 63.42 26.68
-9 1 6 72.72 30.61
9 -1 -5 10.37 17.78
-9 1 5 28.07 19.07
9 -1 -5 30.24 12.98
-9 1 5 -20.21 22.2
-9 1 4 10.15 8.31
9 -1 -4 -4.55 12.12
-9 1 4 1.83 12.9
9 -1 -4 -12.62 7.72
-9 1 3 134.21 36.34
9 -1 -3 103.81 29.79
9 -1 -3 124.49 35.36
-9 1 2 6.49 12.2
9 -1 -2 -26.77 16.42
-9 1 1 91.88 28.59
9 -1 -1 79.87 27.41
-9 1 0 43.28 14.06
9 -1 0 71.62 26.69
-9 1 -1 54.8 21.23
9 -1 1 43.27 20.28
9 -1 2 23.88 17.11
-9 1 -2 7.63 7.93
9 -1 3 -12.55 11.84
-9 1 -3 5.04 9.18
9 -1 4 6.96 14.68
9 -1 5 12.75 17.67
9 -1 5 0.41 12.35
9 -1 6 85.99 32.39
9 -1 6 59.74 17.77
9 -1 7 -13.75 9.4
9 -1 7 -8.96 12.82
-9 1 -7 5.22 12.12
-9 1 -8 80.15 29.88
9 -1 8 81.92 26.9
9 -1 8 66.6 19.05
-9 1 -9 39.87 19.15
-9 1 -10 37.09 23.99
-9 1 -11 29.45 24.36
-9 0 8 94.19 36.65
-9 0 8 83.26 32.37
-9 0 7 33.53 22.51
-9 0 7 1.52 22.63
-9 0 6 18.65 18.41
-9 0 6 44.72 24.12
-9 0 5 77.86 30.51
9 0 -5 95.13 32.81
-9 0 5 112.81 35.39
9 0 -4 10.47 7.7
-9 0 4 2.01 16.38
9 0 -4 31.86 19.8
-9 0 4 2.46 11.07
-9 0 3 120.89 31.89
9 0 -3 95.2 25.88
-9 0 3 122.45 28.15
9 0 -3 110.25 32.5
-9 0 2 36.75 19.05
9 0 -2 32.39 19.16
9 0 -2 47.44 22.78
-9 0 1 -6.33 13.53
9 0 -1 16.77 12.28
9 0 -1 13.8 11.87
-9 0 0 33.33 14.94
9 0 0 53.79 22.64
9 0 0 56.06 22.21
-9 0 -1 26.47 17.49
9 0 1 -11.64 16.99
9 0 1 -34.05 18.19
-9 0 -2 105.72 27.92
9 0 2 95.45 28.16
9 0 2 70.64 23.55
-9 0 -3 151.06 29.6
9 0 3 162.55 39.28
9 0 3 127.33 29.8
9 0 4 8.05 12.82
9 0 4 1.57 9.76
9 0 4 29.49 17.09
9 0 5 55.77 22.03
9 0 5 58.11 21.74
9 0 6 100.41 29.3
9 0 6 51.7 18.8
9 0 7 22.12 9.72
9 0 7 22.05 14.28
-9 0 -7 8.71 9.44
-9 0 -8 9.88 10.24
9 0 8 16.37 10
9 0 8 19.11 16.68
-9 0 -9 167.67 42.68
-9 0 -10 9.88 12.27
-9 0 -11 10.48 20.47
-9 0 -12 32.91 28.54
-9 -1 8 50.64 27.66
-9 -1 8 60.41 20.29
-9 -1 7 -9.81 10.08
-9 -1 7 33.18 22.99
-9 -1 6 14.42 16.24
-9 -1 6 -9.81 8.89
-9 -1 5 8.12 14.2
-9 -1 5 15.34 15.4
9 1 -5 5.34 11.34
-9 -1 4 -10.56 14.06
9 1 -4 -2.45 9.38
9 1 -4 -27.68 19.41
-9 -1 4 -2.05 11.86
-9 -1 3 66.38 26.33
9 1 -3 51.13 23.22
9 1 -3 19.34 11.86
-9 -1 3 41.04 14.91
9 1 -2 41.13 20.98
-9 -1 2 79.76 26.68
9 1 -2 52.74 22.73
-9 -1 1 32.23 17.88
9 1 -1 36.72 20.25
9 1 -1 55.91 22.88
-9 -1 0 -13.59 7.53
9 1 0 -12.18 8.87
9 1 0 -0.47 10.42
-9 -1 -1 115.84 28.08
9 1 1 127.6 30.32
9 1 1 119.59 29.05
-9 -1 -2 54.66 20.78
9 1 2 53.48 24
9 1 2 38.31 17.53
-9 -1 -3 33.85 12.65
9 1 3 25.83 14.99
9 1 3 20.23 12.81
9 1 3 24.19 12.99
9 1 4 13.07 14.07
9 1 4 -9.14 15.93
9 1 4 6.11 9.63
9 1 5 15.34 15.62
9 1 5 32.02 16.96
9 1 5 -10.38 11.73
9 1 6 251.87 39.86
9 1 6 269.84 44.92
9 1 6 257.42 42.5
9 1 7 6.56 8.32
9 1 7 14.51 11.39
9 1 7 -5.11 11.79
-9 -1 -7 -18.48 21.68
-9 -1 -8 -5.3 16.68
9 1 8 12.92 7.12
9 1 8 38.49 31.19
-9 -1 -9 25.14 13.06
9 1 9 -0.13 11.6
-9 -1 -10 -9.64 20.13
-9 -1 -11 12.75 26.99
-9 -1 -12 28.11 22.5
-9 -2 7 49.75 21.11
-9 -2 7 29.62 21.61
-9 -2 6 18.71 9.03
-9 -2 6 -0.61 13.39
-9 -2 5 109.2 35.41
9 2 -5 86.61 35.88
-9 -2 5 82.59 27.12
9 2 -4 -20.35 7.98
-9 -2 4 -21.01 20.75
9 2 -4 25.42 20.45
-9 -2 4 3.84 11.53
-9 -2 3 131.14 34.72
9 2 -3 120.6 30.98
-9 -2 3 95.92 25.74
9 2 -3 100.15 33.46
-9 -2 2 13.12 9.33
9 2 -2 -3.96 13.06
9 2 -2 1.5 11.98
-9 -2 2 5.54 10.4
-9 -2 1 -1.3 9.33
9 2 -1 -0.3 10.61
9 2 -1 4.77 6.54
9 2 0 103.03 30.43
-9 -2 0 107.95 27.95
9 2 0 85.38 25.78
-9 -2 -1 20.92 14.77
9 2 1 -12.39 8.07
9 2 1 11.75 11.17
-9 -2 -2 43.05 20.08
9 2 2 32.79 15.91
9 2 2 26.56 17.68
-9 -2 -3 113.02 25.87
9 2 3 111.12 25.65
9 2 3 77.72 22.34
9 2 3 116.28 28.15
9 2 4 3.85 11.09
9 2 4 2.94 8.87
9 2 4 15.7 16.24
9 2 5 42.57 20.14
9 2 5 27.32 12.28
9 2 5 27.05 14.62
9 2 6 34.37 13.36
9 2 6 28.98 17.49
9 2 6 18.9 13.89
9 2 7 4.28 7.7
9 2 7 6.87 9.9
9 2 7 4.57 7.39
-9 -2 -7 -4.74 13.21
-9 -2 -8 1.01 8.29
9 2 8 17.36 14.94
9 2 8 -4.11 9
9 2 8 -2.03 11.76
-9 -2 -9 26.53 22.65
9 2 9 50.62 20.29
9 2 9 36.45 19.2
9 2 9 60.09 20.04
-9 -2 -10 6.44 22.19
-9 -2 -11 15.33 12.57
-9 -2 -12 13.81 17.88
-9 -2 -13 -6.26 26.34
-9 -3 7 -11.29 12.56
-9 -3 7 -6.27 15.14
-9 -3 6 127.92 40.23
-9 -3 6 112.18 36.48
-9 -3 5 22.15 21.47
-9 -3 5 44.5 19
9 3 -5 32.9 10.02
-9 -3 4 -6.37 10
-9 -3 4 -12.9 14.62
9 3 -4 -0.08 8.74
-9 -3 3 73.22 28.16
9 3 -3 88.52 33.03
9 3 -3 54.89 20.54
-9 -3 3 68.42 22.46
-9 -3 2 86.02 27.95
9 3 -2 88.68 24.27
-9 -3 2 114.05 28.81
9 3 -2 102.24 31.91
-9 -3 1 23.64 13.32
9 3 -1 23.6 14.71
9 3 -1 15.11 10.34
-9 -3 0 18.48 11.6
9 3 0 0.16 15.84
9 3 0 10.3 12.2
-9 -3 -1 71.72 21.38
9 3 1 78.12 22.09
9 3 1 85.18 25.31
-9 -3 -2 -7.89 14
9 3 2 16.42 10.07
9 3 2 20.94 11.84
-9 -3 -3 34.78 14.63
9 3 3 67.96 25.45
9 3 3 69.66 21.56
9 3 3 37.35 15.04
9 3 4 36.56 18.14
9 3 4 17.82 14.62
9 3 4 20.77 11.39
9 3 5 1.83 15.02
9 3 5 3.6 14.29
9 3 5 6.98 13.4
9 3 6 -8.19 12.37
9 3 6 4.4 6.48
9 3 6 5.78 12.84
-9 -3 -6 28.36 20.19
-9 -3 -7 37.04 19.17
9 3 7 12.31 6.44
9 3 7 2.96 12.16
9 3 7 -1.83 13.51
-9 -3 -8 3.97 10.59
9 3 8 0.11 10.06
9 3 8 8 7.29
9 3 8 -4.46 11.12
-9 -3 -9 4.88 10.18
9 3 9 0.45 16.37
9 3 9 9.58 12.52
9 3 9 6.76 7.69
-9 -3 -10 7.28 17.38
9 3 10 7.68 15.42
-9 -3 -11 12.3 24.28
9 3 11 -16.68 14.36
-9 -3 -12 -2.31 19.56
-9 -3 -13 21.81 21.55
-9 -4 6 30.65 21.32
-9 -4 6 21.17 19.96
-9 -4 5 -27.56 22
-9 -4 5 -15.54 10.18
9 4 -4 -14.46 17.65
-9 -4 4 -11.72 8.67
-9 -4 4 12.27 19.26
9 4 -3 11.31 18.57
9 4 -3 -15.13 12.42
-9 -4 3 -22.97 16.62
-9 -4 3 -8.65 14.79
9 4 -2 -5.46 15.92
9 4 -2 30.95 21.7
-9 -4 2 38.93 20.78
-9 -4 2 44.99 20.25
9 4 -1 29.76 20.1
9 4 -1 28.78 19.78
-9 -4 1 12.32 13.92
9 4 0 78.85 22.09
9 4 0 72.97 23.88
-9 -4 0 91.63 27.6
-9 -4 -1 26.99 18.21
9 4 1 44.15 19.49
9 4 1 33.84 19.95
-9 -4 -2 0.33 8.89
9 4 2 -3.81 13.61
9 4 2 -4.02 11.26
9 4 3 157.94 34.92
9 4 3 165.51 38.57
9 4 3 139.17 32.13
9 4 4 -0.99 7.68
9 4 4 -6.79 9.32
9 4 4 0.66 12.18
9 4 5 -0.42 8.12
9 4 5 9.15 16.41
9 4 5 1.87 8.65
-9 -4 -5 -4.44 9.91
-9 -4 -6 -4.22 8.26
9 4 6 13.74 14.26
9 4 6 3.36 6.62
9 4 6 0.8 11.28
-9 -4 -7 19.99 8.43
9 4 7 21.83 18.54
9 4 7 1.57 11.27
9 4 7 18.42 12.18
-9 -4 -8 17.03 15.92
9 4 8 5.24 11.37
9 4 8 22.27 15.31
9 4 8 23.01 7.54
-9 -4 -9 16.89 20.73
9 4 9 -34.35 20.4
9 4 9 12.32 12.79
-9 -4 -10 196.78 45.9
9 4 10 186.87 42.32
9 4 10 156.13 34.96
-9 -4 -11 3.81 15.71
9 4 11 -6.51 18.66
-9 -4 -12 27.02 18.99
9 4 12 -2.39 9
-9 -4 -13 6.87 16.62
9 4 13 -4.84 19.6
-9 -5 6 -24.02 19.63
-9 -5 5 -25.89 12.86
-9 -5 5 -14.76 10.35
-9 -5 4 30.35 26.62
-9 -5 4 -0.42 15
9 5 -3 63.88 29.13
-9 -5 3 -1.6 7.21
-9 -5 3 53.3 24.19
9 5 -2 -9.4 10.02
-9 -5 2 10.8 15.42
9 5 -2 35.17 16.62
-9 -5 2 14.53 18.84
9 5 -1 -7.71 14.12
9 5 -1 28.97 18.81
-9 -5 1 -3.74 9.65
9 5 0 -1.68 12.18
9 5 0 -22.89 16.11
-9 -5 0 2.95 7.46
9 5 1 54.71 23.42
9 5 1 65.51 26.62
-9 -5 -1 64.58 21.72
9 5 2 19.9 14.85
9 5 2 18.05 9.12
-9 -5 -2 1.05 6.34
9 5 3 25.05 12
9 5 3 27.61 15.97
9 5 3 4.78 10.25
9 5 4 -26.51 18.5
9 5 4 1.7 12.28
9 5 4 15.13 14.11
9 5 5 20.75 12.94
9 5 5 34.21 12.67
9 5 5 16.62 7.9
9 5 6 16.24 15.97
9 5 6 7.53 7.59
9 5 6 14.92 15.61
9 5 7 27.72 17.71
9 5 7 7.12 9.39
9 5 7 18.82 12.96
-9 -5 -8 19.14 7.41
9 5 8 10.45 14.1
9 5 8 22.3 22.63
9 5 8 23.4 9.27
-9 -5 -9 61.74 28.39
9 5 9 63.86 39.29
9 5 9 51.36 28.49
-9 -5 -10 67.55 24.71
9 5 10 101.85 34.65
9 5 10 78.01 19.93
-9 -5 -11 21.16 23.15
9 5 11 20.64 18.72
-9 -5 -12 60.81 33.13
9 5 12 2.08 10.54
-9 -5 -13 13.32 13.32
9 5 13 10.3 15.13
-9 -6 5 27.95 17.31
-9 -6 4 7.25 13.95
-9 -6 4 31.68 21.05
-9 -6 3 -2.7 8.91
-9 -6 3 -0.99 13.35
9 6 -2 12.44 9.82
-9 -6 2 9.68 8.19
9 6 -1 -17.59 17.05
9 6 -1 21.89 8.35
-9 -6 1 7.55 15.87
9 6 0 15.06 13.32
9 6 0 12.67 14.4
-9 -6 0 36.96 14.11
9 6 1 7.72 9.62
9 6 1 -2.45 13.45
-9 -6 -1 4.45 6.67
9 6 2 19.37 9.13
-9 -6 -2 12.88 5.31
9 6 3 -33.6 26.43
9 6 3 -15.11 12.85
9 6 3 16.35 18.09
9 6 4 -14.06 18.11
9 6 4 1.85 9.86
9 6 4 -10.72 11.78
9 6 5 38.42 18.42
9 6 5 64.25 20.34
9 6 5 62.01 23.33
9 6 6 5.42 16.42
9 6 6 -12.82 16.64
9 6 6 -18.55 14.27
9 6 7 3.95 7.79
9 6 7 -8.76 7.7
9 6 7 -12.37 13.17
9 6 8 20.48 16.42
9 6 8 -7.79 9.33
9 6 8 -25.16 20.86
9 6 9 38.69 27.55
9 6 9 9.81 12.65
9 6 10 3.67 15.6
9 6 10 -8.36 15.03
9 6 11 1.19 20.55
9 6 12 -2.56 19.04
-9 -7 4 -20.5 22.38
-9 -7 3 0.02 11.86
-9 -7 3 13.05 13.04
-9 -7 2 -27.81 19.03
-9 -7 2 29.56 26.77
9 7 -1 22.4 19.43
-9 -7 1 11.73 10.67
9 7 0 11.76 13.21
-9 -7 0 -1.72 12.44
9 7 1 -33.89 24.38
9 7 1 13.48 9.58
-9 -7 -1 -11.03 11.35
9 7 2 26.6 32.06
9 7 2 -5.37 10.52
-9 -7 -2 7.12 7.82
9 7 3 1.77 14.04
9 7 3 5.71 21.48
9 7 3 24.9 17.6
9 7 4 65.02 25.88
9 7 4 80.29 24.41
9 7 4 123.54 38.64
9 7 5 370.92 59.37
9 7 5 337.83 56.83
9 7 5 305.31 49.11
9 7 6 141.52 36.68
9 7 6 157.89 40.03
9 7 6 112.22 30.22
9 7 7 104.47 25.09
9 7 7 164.62 42.99
9 7 7 136.16 35.39
9 7 8 15.12 19.29
9 7 8 5.54 12.29
9 7 8 -14.37 13.08
9 7 9 1.91 11.8
9 7 9 -1.67 9.6
9 7 10 -9.29 21.67
9 7 10 9.62 14.59
9 7 11 16.39 12.09
9 7 11 -3.78 15.66
9 7 12 3.19 15.98
-9 -8 3 -26.46 27.02
-9 -8 2 55.42 19.5
-9 -8 2 68.7 22.42
9 8 -1 7.33 12.56
-9 -8 1 -2.89 16.06
9 8 0 28.98 26.53
-9 -8 0 18.22 17.91
9 8 1 56.02 20.15
-9 -8 -1 28.77 14.71
9 8 2 -6.12 9.23
-9 -8 -2 2.5 8.84
9 8 3 4.59 11.2
9 8 4 37.96 22.27
9 8 4 -3.52 9.67
9 8 5 28.36 15.75
9 8 5 0.71 11.73
9 8 6 98.54 30.12
9 8 6 91.97 27.91
9 8 7 166.58 43.11
9 8 7 140.3 38.11
9 8 8 44.93 19.14
9 8 8 21.69 18.52
9 8 9 -2.35 11.57
9 8 9 -9.69 17.7
9 8 10 8.57 10.06
9 8 10 9.43 10.19
9 8 11 -23.7 25.77
9 8 11 -14.45 17.03
-9 -9 1 -14.05 10.01
9 9 0 21.18 25.25
-9 -9 0 20.98 18.56
9 9 1 -8.64 17.4
-9 -9 -1 0.02 11.09
9 9 2 55.59 25.14
9 9 2 12.44 13.63
-9 -9 -2 8.93 17.2
9 9 3 -13.07 11.04
9 9 4 27.29 26.66
9 9 4 -6.93 10.98
9 9 5 34.39 15.94
9 9 5 53.83 31.3
9 9 6 71.18 26.38
9 9 6 25.45 16.25
9 9 7 -0.65 13.76
9 9 7 6.58 19.31
9 9 8 21.76 20.05
9 9 8 0.58 11.13
9 9 9 15.74 10.41
9 9 9 62.78 28.73
9 9 10 35.74 29.12
9 9 10 57.02 23.17
9 9 11 46.82 19.37
-9 -10 -1 10.19 10.37
9 10 2 -2.87 23.18
9 10 3 52.91 34.21
9 10 4 1.25 15.07
9 10 5 24.47 15.71
9 10 5 47.69 25.13
9 10 6 -1.03 9.69
9 10 6 -60.96 27.57
9 10 7 -0.99 10.15
9 10 7 12.96 15.92
9 10 8 13.98 18.35
9 10 8 30.95 26.34
9 10 9 107.22 42.64
10 -7 -3 19.35 14.42
10 -7 -2 -3.2 12.43
10 -7 -2 -14.47 13.08
10 -7 -1 3.39 9.77
10 -7 -1 38.19 29.99
10 -7 0 13.92 20.5
10 -7 0 0.79 15.98
10 -6 -4 28.43 25.26
-10 6 4 10.52 13.34
10 -6 -4 -16.31 16.07
10 -6 -3 -27.47 13.43
-10 6 3 -7.47 22.61
10 -6 -3 -15.56 15.59
10 -6 -2 25.43 21.94
-10 6 2 9.02 21.75
10 -6 -2 18.62 10.62
10 -6 -1 -2.01 21.91
10 -6 -1 11.89 16.38
10 -6 0 4.91 13.56
10 -6 0 14.08 19.13
10 -6 1 1.67 27.5
10 -6 1 -33.93 21.79
10 -6 2 36.01 26.67
10 -6 3 9.52 13.69
10 -6 4 27.6 13.19
-10 5 5 20.3 26.83
10 -5 -4 17.4 10.71
-10 5 4 70.07 32.06
10 -5 -3 -19.86 13.93
-10 5 3 -16.73 25.49
10 -5 -3 -0.02 10.7
10 -5 -2 98.59 35.41
-10 5 2 65.83 33.15
10 -5 -2 38.74 31.19
10 -5 -1 14.41 25.94
-10 5 1 22.46 9.35
10 -5 -1 -17.8 15.74
10 -5 0 12.68 22.08
-10 5 0 35.87 20.24
10 -5 0 3.28 11.89
10 -5 1 -15.93 15.24
10 -5 1 -0.14 13.2
10 -5 2 20.92 22.82
10 -5 3 14.11 21.53
10 -5 4 22.84 24.05
10 -5 5 34.04 14.47
10 -5 6 383.38 76.77
-10 4 6 66.89 33.57
-10 4 5 50.62 23.89
-10 4 4 28.07 23.55
10 -4 -4 29.71 20.71
-10 4 3 23.26 13.87
10 -4 -3 39.39 16.71
10 -4 -2 4.17 23.43
-10 4 2 -23.26 21.77
10 -4 -1 8.9 14.69
-10 4 1 -3.02 12.25
10 -4 0 15.39 19.92
-10 4 0 -6.5 12.04
10 -4 1 50.95 25.67
-10 4 -1 37.88 21.76
10 -4 2 11.43 9.33
10 -4 3 -0.76 10.74
10 -4 4 43.39 23.54
10 -4 5 163.61 44.51
10 -4 6 288.48 65.22
10 -4 7 483.65 80.57
-10 4 -7 469.14 79.49
10 -4 8 56.14 39.22
-10 3 6 8.18 22.08
-10 3 5 2.51 12.33
10 -3 -5 -3.99 19.82
10 -3 -5 3.66 12.66
-10 3 4 38.72 15.08
10 -3 -4 44.63 17.76
-10 3 3 -3.83 24.44
10 -3 -3 2.01 8.94
-10 3 2 66.04 32.85
10 -3 -2 64.67 30.57
10 -3 -1 98.61 33.76
-10 3 1 86.92 29.91
10 -3 0 -0.85 14.12
-10 3 0 -17.23 23.78
10 -3 1 -10.72 14.17
-10 3 -1 12.7 16.94
10 -3 2 24 22.41
-10 3 -2 -4.11 11.9
10 -3 3 77.19 29.41
10 -3 4 16.43 19.1
10 -3 5 10.33 12.84
10 -3 6 3.98 18.69
10 -3 7 31.53 26.8
10 -3 7 5.48 12.76
-10 3 -7 24.32 10.49
-10 3 -8 13.96 20.16
10 -3 8 26.18 23.22
-10 2 6 9.02 15.35
-10 2 5 26.44 20.17
10 -2 -5 -6 9.96
10 -2 -5 10.51 22.37
-10 2 4 0.57 17.97
10 -2 -4 24.44 9.83
10 -2 -4 38.37 23.21
-10 2 3 38.61 27.79
10 -2 -3 30.21 13.81
10 -2 -3 27.83 17.23
-10 2 2 -9.95 18.68
10 -2 -2 8.11 16.9
-10 2 1 36.67 21.74
10 -2 -1 58.27 31.51
-10 2 0 49.82 21.49
10 -2 0 8.48 11.05
10 -2 1 0.26 13.8
-10 2 -1 46.39 14.62
10 -2 2 5.24 12.03
-10 2 -2 -4.97 12.22
10 -2 3 92.1 34.23
10 -2 4 -5.82 12.3
10 -2 5 17.18 18.09
10 -2 6 69.73 21.93
10 -2 6 58.53 25.87
10 -2 7 13.71 10.23
10 -2 7 -10.84 17.9
-10 2 -7 -11.89 21.78
-10 2 -8 9.68 11.44
10 -2 8 7.87 20.2
-10 2 -9 5.03 15.81
-10 1 6 2.83 12.35
-10 1 5 -1.16 18.67
10 -1 -5 -13.64 12.76
-10 1 4 50.34 21.4
10 -1 -4 9.48 7.94
10 -1 -4 17.95 21.23
-10 1 3 101.45 32.11
10 -1 -3 94.04 25.83
10 -1 -3 75.14 27.56
-10 1 2 27.93 9.97
10 -1 -2 -9.02 15.66
10 -1 -2 14.18 15.03
-10 1 1 -11.98 17.65
10 -1 -1 -17.11 9.04
10 -1 -1 -10.53 14.08
-10 1 0 10.4 19.51
10 -1 0 -18.41 9.78
10 -1 0 -1.2 12.91
-10 1 -1 71.47 26.59
10 -1 1 61.46 27.96
10 -1 1 68.68 29.55
-10 1 -2 66.04 25.95
10 -1 2 22.16 23.03
10 -1 2 14.08 20.67
10 -1 3 32.66 18.93
10 -1 3 23.49 12.2
10 -1 4 15.84 16.01
10 -1 4 15.86 10.47
10 -1 5 76.75 31.27
10 -1 5 119.3 32.9
10 -1 6 33.62 25.18
10 -1 6 13.67 14.74
10 -1 7 -22.98 17.08
10 -1 7 18.58 25.85
-10 1 -7 3.48 10.05
-10 1 -8 44.18 22.18
10 -1 8 49.45 16.15
-10 1 -9 24.21 22.89
-10 1 -10 19.39 13.64
-10 0 7 -17.83 18.09
-10 0 6 12.4 11.62
-10 0 5 37.64 24.08
10 0 -5 34.42 21.34
-10 0 4 8.55 10.18
10 0 -4 11.59 13.37
10 0 -4 6.7 16.89
10 0 -3 22.68 25.73
-10 0 3 16.04 15.65
10 0 -3 5.22 17.45
-10 0 2 74.61 30.96
10 0 -2 38.16 23.37
10 0 -2 25.64 24.48
-10 0 1 -29.92 16.9
10 0 -1 -18.53 16.38
10 0 -1 0.38 8.56
-10 0 0 96.38 31.32
10 0 0 74.04 24.66
10 0 0 71.98 23.73
-10 0 -1 20.23 17.26
10 0 1 -13.12 18.75
10 0 1 16.72 21.34
-10 0 -2 179.1 36.71
10 0 2 201.64 45
10 0 2 175.36 41.7
10 0 3 -11.31 14.53
10 0 3 2.82 7.07
10 0 4 8.47 12.07
10 0 4 24.82 22.17
10 0 5 33.53 19.82
10 0 5 20.2 15.2
10 0 6 -8.16 10.97
10 0 6 20.63 19.55
10 0 7 7.24 9.67
10 0 7 3.02 14.06
-10 0 -7 19.33 14.08
-10 0 -8 17.86 19.59
10 0 8 2.54 11.69
10 0 8 -12.51 14.44
-10 0 -9 28.98 18.72
-10 0 -10 -9.2 24.44
-10 0 -11 -18.08 18.68
-10 -1 7 16.15 20.2
-10 -1 6 11.44 17.18
10 1 -5 19.36 20.38
-10 -1 5 29.04 17.1
-10 -1 4 -0.19 11.4
10 1 -4 16.92 15.61
10 1 -4 26.66 24.22
-10 -1 3 -14.85 17.91
10 1 -3 -3.03 15.45
10 1 -3 -4.2 10.48
10 1 -2 156.38 38.36
-10 -1 2 168.29 41.38
10 1 -2 141.27 33.72
10 1 -1 251.99 45.87
-10 -1 1 357.88 57.01
10 1 -1 320.86 58
-10 -1 0 128.6 31.52
10 1 0 113.64 29.16
10 1 0 133.53 36.08
-10 -1 -1 50.98 22.55
10 1 1 48.09 19.1
10 1 1 33.59 16.01
-10 -1 -2 3.1 8.28
10 1 2 10.32 8.1
10 1 2 26.61 17.11
10 1 3 4.47 11.9
10 1 3 13.54 8.98
10 1 4 26.73 9.8
10 1 4 42.32 20.99
10 1 5 69.15 27.23
10 1 5 60.12 25.46
10 1 5 40.43 22.66
10 1 6 1.6 12.31
10 1 6 9.31 11.31
10 1 7 23.41 15.64
10 1 7 37.69 19.28
-10 -1 -7 6.79 10.66
-10 -1 -8 27.56 16.06
10 1 8 18.52 20.23
10 1 8 22.16 18.26
-10 -1 -9 -11.87 14
10 1 9 -22.47 21.68
-10 -1 -10 30.05 23.59
-10 -1 -11 22.46 18.97
-10 -2 6 45.82 21.73
-10 -2 6 44.24 17.86
-10 -2 5 13.28 22.96
10 2 -5 46.36 29.75
-10 -2 4 -0.41 10.41
10 2 -4 -2.23 14.17
-10 -2 3 -0.19 12.59
10 2 -3 -4.19 11
10 2 -3 1.13 14.9
10 2 -2 352.92 61.13
10 2 -2 416.11 63.8
-10 -2 2 379.9 59.27
10 2 -1 371.6 55.36
10 2 -1 459.15 68.49
-10 -2 1 502.66 66.81
10 2 0 14.63 9.46
-10 -2 0 1.92 15.76
10 2 0 10.57 16.27
-10 -2 -1 8.74 19.39
10 2 1 -1.78 15.18
10 2 1 6.87 12.16
-10 -2 -2 12.59 17
10 2 2 29.25 19.32
10 2 2 29.94 21.7
10 2 3 15.83 16.37
10 2 3 67.9 25.4
10 2 4 8.98 10.74
10 2 4 -13.92 10.57
10 2 4 -10.48 11.5
10 2 5 -5.17 7.33
10 2 5 -1.03 7.77
10 2 5 10.98 9.27
10 2 6 93.43 27.38
10 2 6 113.36 33.44
10 2 7 4.76 10.17
10 2 7 4.19 7.57
-10 -2 -7 -1.39 10.28
-10 -2 -8 23.62 16.04
10 2 8 14.03 9.06
10 2 8 11.83 15.69
10 2 8 8.39 11.11
-10 -2 -9 58.52 23.15
10 2 9 34.71 23.34
-10 -2 -10 11.37 12.29
-10 -2 -11 -32 21.82
-10 -2 -12 -3.77 10.44
-10 -3 6 16.83 18.07
-10 -3 5 6.45 15.9
-10 -3 4 64.01 27.36
10 3 -4 89.93 33.65
-10 -3 3 24.47 18.93
10 3 -3 5.48 11.47
10 3 -3 40.79 24.09
-10 -3 2 32.47 16.3
10 3 -2 46.29 22.52
10 3 -2 55.75 22.19
-10 -3 1 69.31 24.18
10 3 -1 84.32 27.52
10 3 -1 85.22 27.5
-10 -3 0 45.93 21.32
10 3 0 50.38 20.15
10 3 0 40.54 20.23
10 3 1 23.11 13.9
10 3 1 13.35 10.5
-10 -3 -2 5.05 6.74
10 3 2 7.63 9.22
10 3 2 -11.04 21.79
10 3 3 65.17 26.85
10 3 3 105.31 27.9
10 3 4 -17.39 14
10 3 4 -30.79 23.55
10 3 4 -9.34 18.61
10 3 5 9.07 12.43
10 3 5 7.67 9.85
10 3 6 7.15 16.54
10 3 6 9.14 11.98
10 3 6 4.83 11.61
-10 -3 -6 12.83 18
-10 -3 -7 32.52 18.61
10 3 7 18.54 25.64
10 3 7 18.87 10.54
10 3 7 22.72 13.11
-10 -3 -8 -8.82 7.66
10 3 8 0.55 11.61
10 3 8 -1.76 7.26
10 3 8 -0.49 16.69
-10 -3 -9 29.5 21.34
10 3 9 20.96 10.41
10 3 9 23.89 21.92
-10 -3 -10 8.25 13.09
10 3 10 7.06 11.15
-10 -3 -11 36.1 29.04
-10 -3 -12 55.04 28.24
-10 -4 5 100.98 32.13
-10 -4 4 81.64 31.49
10 4 -4 37.63 30.35
-10 -4 3 -2.85 9.3
10 4 -3 16.75 18.03
-10 -4 2 -4.21 17.32
10 4 -2 -5.68 18.91
10 4 -2 11.94 8.09
-10 -4 1 -6.75 13.01
10 4 -1 -4.13 17.51
10 4 -1 -4.44 11.12
-10 -4 0 25 14.98
10 4 0 11.34 9.47
-10 -4 -1 2.42 9.77
10 4 1 -33.48 22.8
10 4 1 -23.82 18.39
-10 -4 -2 -9.07 11.63
10 4 2 12.07 16.8
10 4 2 -0.8 15.35
10 4 3 33.2 25.44
10 4 3 -1.72 8.06
10 4 4 125.88 43.01
10 4 4 0.25 15.8
10 4 4 80.94 28.5
10 4 5 92.27 30.23
10 4 5 63.81 20.94
10 4 5 73.63 29.7
10 4 6 13.07 8.23
10 4 6 -8.43 19.06
10 4 6 -33.5 25.79
-10 -4 -7 -13.23 15.68
10 4 7 -8.7 13.32
10 4 7 75.96 39.47
10 4 7 49.6 32.47
-10 -4 -8 8.37 11.56
10 4 8 3.36 7.94
10 4 8 18.41 10.13
10 4 8 -5.97 8.76
-10 -4 -9 -4.03 21.14
10 4 9 -12.88 17.96
10 4 9 9.71 15.08
-10 -4 -10 3.25 16.14
10 4 10 45.44 23.61
10 4 10 26.78 20.6
-10 -4 -11 -30.46 29.4
10 4 11 8.1 12.48
-10 -4 -12 16.96 17.28
10 4 12 6.04 19.81
-10 -5 4 8.9 14.74
-10 -5 3 -10.17 8.1
10 5 -3 -26.74 26.88
-10 -5 2 13.11 7.57
10 5 -2 10.68 19.18
10 5 -2 -11.72 18.52
-10 -5 1 36.42 16.59
10 5 -1 34.62 16.55
10 5 -1 26.4 27.13
-10 -5 0 -16.62 17.21
10 5 0 12.56 17.01
10 5 0 -11.81 18.13
-10 -5 -1 17.51 7.65
10 5 1 16.79 11.71
10 5 1 5 15.99
10 5 2 25.68 14.35
10 5 2 68.47 34.26
10 5 3 24.88 15.59
10 5 3 6.34 19.63
10 5 4 -26.82 25.68
10 5 4 0.02 16.43
10 5 4 10.28 15.61
10 5 5 -0.28 10.56
10 5 5 -28.65 22.73
10 5 5 -33.29 22.17
10 5 6 14.8 26.47
10 5 6 19.51 18.66
10 5 6 0.87 7.28
10 5 7 -15.89 9.79
10 5 7 -37.32 23.42
10 5 7 0.83 16.49
10 5 8 43.49 21.86
10 5 8 24.26 8.79
10 5 8 24.77 9.34
10 5 9 -1.23 14.8
10 5 9 7.01 15.3
10 5 10 13.27 12.6
10 5 10 4.11 12.8
-10 -5 -11 78.55 30.81
10 5 11 11.4 13.08
-10 -5 -12 -6.44 18.57
-10 -6 3 -10.17 17.58
-10 -6 2 23.44 16.92
10 6 -1 2.57 16.72
10 6 -1 0.61 18.44
-10 -6 1 6.16 8.08
10 6 0 50.83 19.92
10 6 0 25.9 28.92
-10 -6 0 23.22 18.14
10 6 1 -20.79 15.19
-10 -6 -1 -3 11.19
10 6 2 -14.87 17.03
10 6 2 6.22 17.15
10 6 3 1.04 12.93
10 6 3 16.98 14.63
10 6 4 45.04 19.24
10 6 4 48.8 15.32
10 6 5 20.43 15.53
10 6 5 -29.98 21.01
10 6 5 -20.54 15.62
10 6 6 26.18 18.79
10 6 6 0.92 18.1
10 6 6 -8.31 12.86
10 6 7 23.83 14.87
10 6 7 43.41 26.39
10 6 7 17.19 8.74
10 6 8 19.98 18.62
10 6 8 18.52 13.21
10 6 8 -0.16 12.58
10 6 9 32.23 20.19
10 6 9 8.73 9.84
10 6 10 17.53 23.17
10 6 10 0.02 13.24
10 6 11 -3.82 13.27
-10 -7 2 41.01 25.55
10 7 -1 28.23 18.49
-10 -7 1 13.63 11.22
10 7 0 39.07 25.94
-10 -7 0 13.87 13.83
10 7 1 14.56 20.32
10 7 1 7.07 9.89
-10 -7 -1 11.63 9.73
10 7 2 -8.29 14.15
10 7 2 10.18 11.39
10 7 3 63.34 28.94
10 7 3 -4.33 17.62
10 7 4 26.3 23.55
10 7 4 -20.27 20.26
10 7 4 0.7 10.68
10 7 5 -6.07 11.26
10 7 5 3.23 13.71
10 7 5 26.98 17.17
10 7 6 19.17 16.25
10 7 6 6.44 12.2
10 7 6 4.09 14
10 7 7 56.31 26.86
10 7 7 69.61 29.87
10 7 7 82.68 27.38
10 7 8 75.46 27.32
10 7 8 81.81 30.21
10 7 8 87.02 26.64
10 7 9 -16.35 20.8
10 7 9 10.53 14.2
10 7 10 104.79 33.54
10 7 10 40.93 20.7
10 7 11 1.49 19.13
-10 -8 1 12.57 11.9
10 8 0 26.23 15.07
-10 -8 0 25.31 18.3
10 8 1 52.62 30.52
-10 -8 -1 23.6 10.12
10 8 2 17.21 19.54
10 8 3 51.41 27.15
10 8 4 44.53 17.44
10 8 4 65.04 25.78
10 8 5 163.38 42.86
10 8 5 80.98 30.74
10 8 5 86.85 27.75
10 8 6 -18.41 20.35
10 8 6 17.18 11.29
10 8 6 -19.42 18.3
10 8 7 30.74 23.08
10 8 7 57.73 28.5
10 8 7 8.46 15.46
10 8 8 98.3 32.92
10 8 8 83.38 27.95
10 8 9 75.31 35.4
10 8 9 21.71 14.8
10 8 10 207.5 55.56
10 9 3 70.67 29.59
10 9 4 19.35 24.73
10 9 5 10.78 13.23
10 9 5 -28.12 24.56
10 9 6 93.52 26.26
10 9 6 42.91 21.32
10 9 7 426.67 68.39
10 9 7 356.41 61.5
10 9 8 206.37 50.95
11 -5 -3 109.47 43.37
11 -5 -2 -14.9 10.42
-11 5 2 -13.94 29.22
11 -5 -1 34.58 24.91
-11 5 1 46.44 28.84
11 -5 0 -19.6 21.92
11 -5 1 9.84 21.53
11 -5 2 -2.96 22.68
-11 4 4 -0.03 14.97
11 -4 -4 -28 25.45
-11 4 3 4.04 13.09
11 -4 -3 32.76 21.65
-11 4 2 14.8 18.29
11 -4 -2 52.75 23.3
11 -4 -1 -15.03 12.63
-11 4 1 6.14 27.91
11 -4 0 21.77 10.62
-11 4 0 8.3 16.44
11 -4 1 22.12 30.31
11 -4 2 81.04 37.83
11 -4 3 30.32 22.94
11 -4 4 138.69 51.31
11 -4 5 -23.45 20.38
-11 3 4 7.71 14.73
11 -3 -4 -15.29 16.76
11 -3 -4 -7.13 21.37
-11 3 3 -3.97 14
11 -3 -3 2.06 24.6
11 -3 -3 1.63 18.46
-11 3 2 8.71 15.6
11 -3 -2 25.6 21.62
-11 3 1 22.14 21.8
11 -3 -1 6.71 17.48
11 -3 0 22.66 14.94
-11 3 0 26.42 21.44
11 -3 1 1.17 24.83
11 -3 2 2.56 10.19
11 -3 3 -2.87 20.69
11 -3 4 14.37 18.86
11 -3 5 155.81 48.25
11 -3 5 84.25 31.83
11 -3 6 45.91 30.47
11 -3 6 9.14 20.04
11 -3 7 30.86 28.69
-11 2 5 43.28 16.94
-11 2 4 43.96 28.74
11 -2 -4 44.13 19.95
11 -2 -4 52.21 27.77
-11 2 3 -18.4 16.56
11 -2 -3 16.87 19.98
11 -2 -3 15.3 24.83
-11 2 2 12.47 15.36
11 -2 -2 12.26 14.07
11 -2 -2 17.7 22.18
-11 2 1 -29.42 19.62
11 -2 -1 27.58 20.48
11 -2 -1 28.25 21.35
-11 2 0 9.19 9.36
11 -2 0 7.22 9.62
11 -2 0 27.74 13.62
11 -2 1 27.3 27.51
11 -2 1 5.54 10.66
11 -2 2 3.57 19.91
11 -2 2 10.27 10.51
11 -2 3 2.06 15.01
11 -2 3 13.83 15.38
11 -2 4 -16.41 14.93
11 -2 4 22.01 22.28
11 -2 5 70.81 27.11
11 -2 5 74.86 34.33
11 -2 6 60.5 35.68
11 -2 6 13.99 21.96
11 -2 7 105.02 38.97
11 -2 7 64.99 27.96
-11 2 -7 110.35 38.22
11 -2 8 57.83 28.72
-11 1 5 36.99 25.84
11 -1 -4 20.37 16.71
-11 1 4 -6.23 14.94
11 -1 -4 -6.58 15.45
-11 1 3 35.64 21.57
11 -1 -3 -6.56 8.06
11 -1 -3 32.72 23.72
-11 1 2 9.83 24.51
11 -1 -2 8.09 19.36
11 -1 -2 8.98 24.5
-11 1 1 -28.49 9.9
11 -1 -1 -18.97 12.6
11 -1 -1 -5.56 19.48
-11 1 0 26.89 10.38
11 -1 0 17.8 19.57
11 -1 0 -18.64 22.17
-11 1 -1 1.04 17.1
11 -1 1 16.43 8.45
11 -1 1 -19.88 10.76
11 -1 2 -26.07 29.98
11 -1 2 0.04 11.89
11 -1 3 -6.14 9.63
11 -1 3 -14.41 12.28
11 -1 4 34.58 16.74
11 -1 4 16.94 18.45
11 -1 5 -11.51 10.26
11 -1 5 -4.69 11.72
11 -1 6 -5.64 24.33
11 -1 6 17.13 12.6
11 -1 7 77.68 32.68
11 -1 7 23.07 22.66
-11 1 -7 50.63 21.88
-11 1 -8 -16.73 18.62
11 -1 8 4.29 15.77
-11 0 5 119.1 42.5
-11 0 4 44.75 28.74
11 0 -4 7.6 21.12
11 0 -3 -3.68 12.14
-11 0 3 15.75 13.77
11 0 -3 4.95 9.73
-11 0 2 27.47 22.29
11 0 -2 67.99 30.33
11 0 -2 31.46 18.94
-11 0 1 -37.41 25.37
11 0 -1 -18.52 20.36
11 0 -1 7.65 12.26
-11 0 0 29.16 9.49
11 0 0 41.3 21.72
11 0 0 31.44 14.62
-11 0 -1 13.12 14.05
11 0 1 -18.73 17.15
11 0 1 18.15 19.15
11 0 2 -6.52 16.53
11 0 2 24.26 22.9
11 0 3 2.79 16.17
11 0 3 0.52 10.89
11 0 4 -10.69 16.54
11 0 4 -1.62 15.03
11 0 5 13.14 11.14
11 0 5 23.36 15.83
11 0 6 19.24 9.98
11 0 6 15.42 9.68
11 0 7 11.41 18.22
11 0 7 -18.06 16.67
-11 0 -7 8.89 13.96
-11 0 -8 2.05 10.18
11 0 8 -3.65 13.66
11 0 8 -20 10.27
-11 0 -9 21.08 24.94
-11 -1 4 83.08 35.01
11 1 -4 44.59 29.69
-11 -1 3 33.67 24.67
11 1 -3 19.78 18.9
11 1 -3 23.36 25.38
-11 -1 2 46.64 27.83
11 1 -2 -7.85 19.17
11 1 -2 27.57 12.16
11 1 -1 30.2 24.93
-11 -1 1 41.83 15.12
11 1 -1 14.82 13.37
-11 -1 0 -11.16 13.3
11 1 0 34.48 22.99
11 1 0 6.79 13.06
-11 -1 -1 15.75 15.68
11 1 1 21.48 21.18
11 1 1 4.43 9
11 1 2 -0.79 12.59
11 1 2 56.37 25.45
11 1 3 61.28 28.14
11 1 3 110.57 35.14
11 1 4 28.67 18.75
11 1 4 -29.77 9.39
11 1 5 0.64 11.11
11 1 5 7.96 9.02
11 1 6 24.99 20.64
11 1 6 -5.5 15.31
11 1 7 17.25 10.48
11 1 7 17.25 12.13
-11 -1 -7 25.33 19.39
-11 -1 -8 34.45 17.36
11 1 8 42.7 26.17
11 1 8 23.84 11.77
-11 -1 -9 -3.5 16.8
11 1 9 -22.37 21.75
-11 -1 -10 30 22.19
-11 -2 4 11.72 14.6
11 2 -4 -13.75 18.61
-11 -2 3 -6.21 11.51
11 2 -3 -5.06 12.03
11 2 -3 -2.61 15.87
-11 -2 2 24.55 21.03
11 2 -2 -12.21 17.13
11 2 -2 -28.75 27.88
-11 -2 1 91.47 34.65
11 2 -1 89.23 35.65
11 2 -1 91.68 33.3
-11 -2 0 15.61 13.69
11 2 0 46.76 23.66
11 2 0 56.88 23.18
11 2 1 26.76 21.81
-11 -2 -1 10.64 11.34
11 2 1 37.36 20.46
11 2 2 14.6 14.06
11 2 2 3.44 8.66
11 2 3 7.22 18.52
11 2 3 22.63 18.79
11 2 4 -5.55 15.55
11 2 4 19.4 23.55
11 2 5 2.99 11.12
11 2 5 30.62 20.54
11 2 6 -4.61 14.61
11 2 6 25.32 15.44
11 2 6 16.56 13.21
-11 -2 -6 12.12 9.66
11 2 7 0.81 11.44
11 2 7 16.6 18.48
-11 -2 -7 11.86 16.69
-11 -2 -8 -6.59 19.18
11 2 8 5.73 9.62
11 2 8 -6.06 11.48
-11 -2 -9 1.41 9.43
11 2 9 -3.84 10.89
-11 -2 -10 7.91 16.13
11 3 -4 3.4 18.2
-11 -3 4 0.23 11.85
-11 -3 3 30.57 30.63
11 3 -3 2.87 14.74
11 3 -2 -11.57 17.48
-11 -3 2 2.93 20.73
11 3 -2 -1.35 11.12
-11 -3 1 83.69 32.37
11 3 -1 58.14 20.47
11 3 -1 87.45 30.29
-11 -3 0 -1.89 11.92
11 3 0 -2.46 7.98
11 3 0 -0.09 18.27
11 3 1 40.51 10.29
11 3 1 85.54 28.71
11 3 2 54.29 25.07
11 3 2 62.58 26.59
11 3 3 44.3 22.35
11 3 3 12.36 12.79
11 3 4 15.79 15.29
11 3 4 4.93 14.42
11 3 5 21.86 13.44
11 3 5 22.15 15.52
11 3 5 32.65 22.69
11 3 6 -13.6 8.66
11 3 6 6.89 13.63
11 3 6 -2.8 15.32
-11 -3 -6 5.15 11.52
-11 -3 -7 20.88 16.03
11 3 7 -12.32 24.03
11 3 7 -28.11 21.59
11 3 7 -11 19.13
-11 -3 -8 -1.59 10.12
11 3 8 -22.54 15.9
11 3 8 -6.82 11.4
11 3 8 4.47 13.37
-11 -3 -9 54.78 26.79
11 3 9 25.43 15.05
-11 -3 -10 25.29 17.05
-11 -3 -11 -10.05 17.35
-11 -4 3 28.79 15.28
11 4 -3 0.45 9.84
-11 -4 2 24.94 17.09
11 4 -2 4.56 16.22
11 4 -2 6.92 10.29
-11 -4 1 4.88 10.98
11 4 -1 25.6 14.32
11 4 -1 -1.03 15.98
11 4 0 -13.62 22.93
-11 -4 0 -2.33 17.37
11 4 0 12.24 9.92
11 4 1 56.64 25.62
11 4 1 29 19.55
11 4 2 -12.64 16.15
11 4 2 8.62 19.62
11 4 3 17.26 15.56
11 4 3 20.65 18.26
11 4 4 19.76 14.35
11 4 4 55.7 26.86
11 4 5 70.76 28.37
11 4 5 66.93 28.35
11 4 5 71.79 26.58
11 4 6 30.77 22.74
11 4 6 14.95 16.47
11 4 6 25.14 16.02
11 4 7 14.62 22.74
11 4 7 -4.79 11.17
11 4 7 -5.5 11.37
11 4 8 0.34 14.51
11 4 8 25.52 18.98
11 4 8 4.23 12.68
11 4 9 49.1 25.37
11 4 9 -1.57 11.91
-11 -4 -10 -17.03 10.83
11 4 10 0.25 13.22
11 4 10 18.62 19.37
-11 -4 -11 19.62 17.05
-11 -5 2 52.62 30.49
11 5 -2 62.55 33.4
-11 -5 1 3.1 17.03
11 5 -1 1.94 20.48
11 5 -1 23.52 18.66
-11 -5 0 32 22.18
11 5 0 64.75 25.11
11 5 0 -2.69 12.19
11 5 1 55.75 30.19
11 5 1 24.55 21.06
11 5 2 10.33 15.67
11 5 2 1.62 12.43
11 5 3 3.01 19.53
11 5 3 2.6 15.52
11 5 4 -13.67 12.9
11 5 4 1.84 8.96
11 5 5 11.66 16.65
11 5 5 23.9 18.24
11 5 6 1.05 15.63
11 5 6 13.02 16.21
11 5 6 32.76 19.7
11 5 7 26.18 24.36
11 5 7 -5.4 10.38
11 5 8 1.68 8.06
11 5 8 -24.2 24.47
11 5 8 -7.66 12.07
11 5 9 17.22 20.32
11 5 9 -31.05 20.72
11 5 10 52.99 26.94
11 5 10 -2.38 14.61
-11 -6 1 -26.71 19.67
11 6 -1 18.37 17.54
-11 -6 0 39.38 23.42
11 6 0 58.03 26.74
11 6 0 2.13 10.47
11 6 1 24.99 24.89
11 6 1 27.41 20.77
11 6 2 63.17 25.1
11 6 2 65.55 31.12
11 6 3 68.61 33.08
11 6 3 102.23 35.35
11 6 4 29.27 18.1
11 6 4 -5.83 11.9
11 6 5 -17.16 23.54
11 6 5 11.84 10.02
11 6 5 14.94 16.01
11 6 6 -8.14 26.38
11 6 6 21.09 19.85
11 6 6 -6.51 12.83
11 6 7 -30.21 22.82
11 6 7 -2.02 18.62
11 6 7 3.66 13.08
11 6 8 15.1 20.01
11 6 8 -27.86 24.01
11 6 8 -7.43 14.54
11 6 9 20.4 17.96
11 6 9 68.67 29.56
11 6 10 -37.45 25.66
11 7 1 235.33 57.15
11 7 2 91.23 37.63
11 7 2 39.79 20.73
11 7 3 -7.79 12.21
11 7 3 -26.62 17.54
11 7 4 28.49 28
11 7 4 25.65 19.8
11 7 5 -19.04 23.81
11 7 5 -17.36 15.27
11 7 5 13.88 16.04
11 7 6 72.8 29.21
11 7 6 30.51 17.4
11 7 6 40.43 20.53
11 7 7 76.89 34.73
11 7 7 96.14 28.85
11 7 7 56.28 23.94
11 7 8 52.09 24.14
11 7 8 28.13 11.22
11 8 5 29.29 11.81
11 8 6 -37.64 25.56
11 8 7 -12.36 27.31
11 8 8 53.03 20.18
-12 3 1 20.26 17.13
12 -3 1 7.57 15.44
12 -3 2 20.56 17.03
-12 2 2 -22 23.7
-12 2 1 75.98 30.81
12 -2 -1 57.05 25.69
12 -2 0 11.18 17.4
12 -2 1 12.35 19.46
12 -2 2 -13.11 25.76
12 -2 3 56.57 30.88
12 -2 4 4.5 11.83
12 -2 5 69.96 35.06
-12 1 2 6.17 10.26
12 -1 -2 2.16 21.49
-12 1 1 -13.12 19.39
12 -1 -1 -22.9 29.58
12 -1 0 19.38 15.28
12 -1 0 9.25 19.59
12 -1 1 38.05 18.53
12 -1 1 48.05 30.24
12 -1 2 -10.98 10.63
12 -1 2 33 11.57
12 -1 3 8.15 14.87
12 -1 3 6.08 13.03
12 -1 4 -8.27 25.86
12 -1 4 -25.34 18.31
12 -1 5 51.32 33.27
12 -1 6 203.85 56.48
12 0 -2 18.77 18.2
-12 0 2 -23.13 9.88
12 0 -1 27.18 30.04
-12 0 1 -9.06 25.06
12 0 -1 -16.64 17.38
12 0 0 -16.88 15.94
12 0 0 4.01 9.09
12 0 1 -9.39 18.13
12 0 1 0.02 20.7
12 0 2 22.2 17.7
12 0 2 10.07 19.15
12 0 3 30.32 24.58
12 0 3 -15.83 15.77
12 0 4 -1.47 20.22
12 0 4 2.48 13.89
12 0 5 105.59 36.16
12 0 5 99.61 41.64
12 0 6 107.41 38.27
12 0 6 105.93 35.42
12 0 7 -1.01 27.81
-12 0 -7 9.3 10.48
12 0 8 -17.21 15.56
-12 -1 2 -26.07 19.01
12 1 -2 0.99 10.89
-12 -1 1 -2.79 21.42
12 1 -1 -21.22 16
12 1 -1 -51.92 25.34
12 1 0 37.2 22.99
12 1 0 -2.45 10.52
12 1 1 -1.08 22.33
12 1 1 38.78 25.89
12 1 2 42.34 28.59
12 1 2 -2.63 17.27
12 1 3 -35.23 26.99
12 1 3 34.66 20.77
12 1 4 20.83 18.64
12 1 4 53.86 31
12 1 5 5.02 12.78
12 1 5 -14.98 16.99
12 1 6 6.87 14.63
12 1 6 21.23 20.55
12 1 7 -1.8 13.63
-12 -1 -7 22.95 16.65
-12 -1 -8 -16.68 25.04
12 1 8 -22.4 26.52
-12 -2 2 -15.81 21.77
12 2 -2 10.16 10.53
-12 -2 1 25.36 23.12
12 2 -1 25.4 18.56
12 2 -1 73.99 38.46
12 2 0 -8.96 10.03
12 2 0 18.68 23.65
12 2 1 -2.94 13.6
12 2 1 17.87 12.06
12 2 2 8.86 9.92
12 2 2 -13.85 22.76
12 2 3 9.81 19.94
12 2 3 17.3 24.48
12 2 4 32.43 19.58
12 2 4 12.82 20.71
12 2 5 -3.85 16.97
12 2 5 21.45 16.43
12 2 6 18.68 15.36
12 2 6 -6.77 14.52
-12 -2 -6 16.76 13.08
-12 -2 -7 8.8 15.25
12 2 7 6.82 15.2
12 2 7 8.33 24.5
-12 -2 -8 -6.15 21.86
12 2 8 52.84 27.45
-12 -2 -9 -30.42 22.66
-12 -3 1 -15.29 16.49
12 3 -1 -51.44 27.23
12 3 0 20.57 8.94
12 3 0 15.85 10.66
12 3 1 78.38 33.58
12 3 1 56.95 25.68
12 3 2 0.19 13.6
12 3 2 -2.89 13.26
12 3 3 21.37 27.36
12 3 3 42.1 23.64
12 3 4 3.41 9.24
12 3 4 -14.36 14.51
12 3 5 26.33 14.27
12 3 5 -2.32 13.37
12 3 6 65.79 25.96
12 3 6 87.5 33.24
12 3 7 11.7 16.2
12 3 7 7.87 13.54
12 3 8 -22.86 21.04
-12 -4 1 2.5 18.51
12 4 0 77.02 27.67
12 4 1 6.56 12.37
12 4 1 -4.91 12.34
12 4 2 81.6 24.41
12 4 2 81.15 34.19
12 4 3 185.87 48.01
12 4 3 141.77 42.92
12 4 4 261.61 52.67
12 4 4 250.09 54.36
12 4 5 67.36 23.29
12 4 5 24.4 14.94
12 4 6 9.73 11.96
12 4 6 13.11 13.23
12 4 7 -2.16 9.9
12 4 7 21.77 25.52
12 4 7 37.23 22.78
12 4 8 14.98 16.06
12 4 8 10.61 17.84
12 5 1 -9.64 21.43
12 5 2 122.4 35.31
12 5 3 384.62 70.29
12 5 4 -2.03 10.27
12 5 4 -2.45 15.34
12 5 5 -7.33 19.95
12 5 5 12.65 12.2
12 5 6 24.89 12.1
12 5 6 39.59 15.69
12 5 7 -3.75 9.44
12 5 8 3.31 10.92
12 6 3 119.3 42.63
12 6 4 -8.48 18.12
12 6 5 2.55 9.8
12 6 6 39.7 22.71
12 6 7 -10.89 10.64
12 6 8 -5.33 16.35
loop_
_exptl_oxdiff_crystal_face_indexfrac_h
_exptl_oxdiff_crystal_face_indexfrac_k
_exptl_oxdiff_crystal_face_indexfrac_l
_exptl_oxdiff_crystal_face_x
_exptl_oxdiff_crystal_face_y
_exptl_oxdiff_crystal_face_z
-7.0348 -9.1237 -3.9825 -0.0432 0.0270 -0.9987
-10.2507 -0.5014 -0.7161 -0.5467 -0.5767 -0.6071
10.2507 0.5014 0.7161 0.5467 0.5767 0.6071
3.8355 -1.0211 11.2323 0.9026 -0.4304 0.0088
9.6825 1.8898 -7.8804 -0.0569 1.0378 0.7774
-3.9969 0.9978 -11.0008 -0.8964 0.4067 -0.0224
1.0217 11.0164 6.0098 -0.2703 -0.5677 0.7685
