#------------------------------------------------------------------------------
#$Date: 2018-11-13 01:23:01 +0200 (Tue, 13 Nov 2018) $
#$Revision: 211905 $
#$URL: file:///home/coder/svn-repositories/cod/cif/1/55/02/1550223.cif $
#------------------------------------------------------------------------------
#
# This file is available in the Crystallography Open Database (COD),
# http://www.crystallography.net/
#
# All data on this site have been placed in the public domain by the
# contributors.
#
data_1550223
loop_
_publ_author_name
'Liu, Rai-Shung'
'Singh, RahulKumar Rajmani'
'Skaria, Manisha'
'Chen, Liang-Yu'
'Cheng, Mu-Jeng'
_publ_section_title
;
 Gold-catalyzed (4+3)-Annulations of 2-Alkenyl-1-Alkynylbenzenes with
 Anthranils with Alkyne-Dependent Chemoselectivity: Skeletal Rearrangement
 versus Non-Rearrangement
;
_journal_name_full               'Chemical Science'
_journal_paper_doi               10.1039/C8SC03619E
_journal_year                    2019
_chemical_formula_sum            'C27 H25 N2 O'
_chemical_formula_weight         393.49
_space_group_crystal_system      monoclinic
_space_group_IT_number           14
_space_group_name_Hall           '-P 2ybc'
_space_group_name_H-M_alt        'P 1 21/c 1'
_symmetry_space_group_name_Hall  '-P 2ybc'
_symmetry_space_group_name_H-M   'P 1 21/c 1'
_atom_sites_solution_hydrogens   geom
_audit_creation_method           SHELXL-2014/6
_audit_update_record
;
2018-07-05 deposited with the CCDC.
2018-11-12 downloaded from the CCDC.
;
_cell_angle_alpha                90
_cell_angle_beta                 94.091(2)
_cell_angle_gamma                90
_cell_formula_units_Z            4
_cell_length_a                   9.3848(5)
_cell_length_b                   17.3334(8)
_cell_length_c                   12.7967(6)
_cell_measurement_reflns_used    5520
_cell_measurement_temperature    100(2)
_cell_measurement_theta_max      25.2567
_cell_measurement_theta_min      2.1756
_cell_volume                     2076.34(18)
_computing_cell_refinement       'SAINT V8.34A (Bruker AXS Inc., 2013)'
_computing_data_collection       'Bruker APEX2'
_computing_data_reduction        'SAINT V8.34A (Bruker AXS Inc., 2013)'
_computing_molecular_graphics    'Bruker SHELXTL'
_computing_publication_material  'Bruker SHELXTL'
_computing_structure_refinement  'SHELXL-2014/6 (Sheldrick, 2014)'
_diffrn_ambient_temperature      100(2)
_diffrn_detector_area_resol_mean 8.3333
_diffrn_measured_fraction_theta_full 1.000
_diffrn_measured_fraction_theta_max 1.000
_diffrn_measurement_device_type  'Bruker APEX-II CCD'
_diffrn_measurement_method       '\f and \w scans'
_diffrn_radiation_type           MoK\a
_diffrn_radiation_wavelength     0.71073
_diffrn_reflns_av_R_equivalents  0.0652
_diffrn_reflns_av_unetI/netI     0.0390
_diffrn_reflns_Laue_measured_fraction_full 1.000
_diffrn_reflns_Laue_measured_fraction_max 1.000
_diffrn_reflns_limit_h_max       11
_diffrn_reflns_limit_h_min       -11
_diffrn_reflns_limit_k_max       21
_diffrn_reflns_limit_k_min       -21
_diffrn_reflns_limit_l_max       15
_diffrn_reflns_limit_l_min       -16
_diffrn_reflns_number            36450
_diffrn_reflns_point_group_measured_fraction_full 1.000
_diffrn_reflns_point_group_measured_fraction_max 1.000
_diffrn_reflns_theta_full        25.242
_diffrn_reflns_theta_max         26.417
_diffrn_reflns_theta_min         1.981
_exptl_absorpt_coefficient_mu    0.077
_exptl_absorpt_correction_T_max  0.9485
_exptl_absorpt_correction_T_min  0.9086
_exptl_absorpt_correction_type   multi-scan
_exptl_absorpt_process_details   'SADABS V2014/4 (Bruker AXS Inc.)'
_exptl_crystal_colour            colorless
_exptl_crystal_density_diffrn    1.259
_exptl_crystal_density_meas      ?
_exptl_crystal_density_method    'not measured'
_exptl_crystal_description       lump
_exptl_crystal_F_000             836
_exptl_crystal_size_max          0.18
_exptl_crystal_size_mid          0.15
_exptl_crystal_size_min          0.15
_refine_diff_density_max         0.738
_refine_diff_density_min         -0.684
_refine_diff_density_rms         0.050
_refine_ls_extinction_method     none
_refine_ls_goodness_of_fit_ref   1.020
_refine_ls_hydrogen_treatment    constr
_refine_ls_matrix_type           full
_refine_ls_number_parameters     274
_refine_ls_number_reflns         4257
_refine_ls_number_restraints     0
_refine_ls_restrained_S_all      1.020
_refine_ls_R_factor_all          0.0700
_refine_ls_R_factor_gt           0.0481
_refine_ls_shift/su_max          0.001
_refine_ls_shift/su_mean         0.000
_refine_ls_structure_factor_coef Fsqd
_refine_ls_weighting_details
'w=1/[\s^2^(Fo^2^)+(0.0559P)^2^+1.4719P] where P=(Fo^2^+2Fc^2^)/3'
_refine_ls_weighting_scheme      calc
_refine_ls_wR_factor_gt          0.1155
_refine_ls_wR_factor_ref         0.1274
_reflns_Friedel_coverage         0.000
_reflns_number_gt                3228
_reflns_number_total             4257
_reflns_threshold_expression     'I > 2\s(I)'
_cod_data_source_file            c8sc03619e2.cif
_cod_data_source_block           mo_180316lt_0m_sq
_cod_depositor_comments
;
The following automatic conversions were performed:

'_exptl_crystal_density_meas' value 'not measured' was changed to '?'
- the value is perceived as not measured.

Automatic conversion script
Id: cif_fix_values 4973 2017-02-22 13:04:09Z antanas 
;
_cod_database_code               1550223
_shelx_space_group_comment
;
The symmetry employed for this shelxl refinement is uniquely defined
by the following loop, which should always be used as a source of
symmetry information in preference to the above space-group names.
They are only intended as comments.
;
_shelxl_version_number           2014/6
_shelx_res_file
;
TITL mo_180316lt_0m in P2(1)/c
CELL 0.71073 9.3848 17.3334 12.7967 90.000 94.091 90.000
ZERR 4.00 0.0005 0.0008 0.0006 0.000 0.002 0.000
LATT 1
SYMM -x, y+1/2, -z+1/2
SFAC C  H  N  O
UNIT 108  100  8  4
L.S. 5 0    7
ACTA
BOND $H
FMAP 2
PLAN 5
TEMP -173.380
ABIN
WGHT    0.055900    1.471900
FVAR       0.61474
O1    4    0.328803    1.066943    0.561000    11.00000    0.01925    0.01977 =
         0.01548    0.00491    0.00062    0.00590
N1    3    0.147887    0.932404    0.584880    11.00000    0.01684    0.01986 =
         0.01235    0.00147    0.00124   -0.00021
AFIX  43
H12   2    0.162901    0.962687    0.531575    11.00000   -1.20000
AFIX   0
N2    3    0.646906    0.914711    0.667658    11.00000    0.02084    0.01460 =
         0.01335   -0.00058    0.00635    0.00093
AFIX  43
H11   2    0.686360    0.886813    0.620042    11.00000   -1.20000
AFIX   0
C1    1   -0.126619    0.751231    0.623228    11.00000    0.01411    0.02028 =
         0.02972   -0.00369    0.00366   -0.00051
AFIX  43
H1    2   -0.185436    0.707872    0.634669    11.00000   -1.20000
AFIX   0
C2    1   -0.032423    0.777349    0.703648    11.00000    0.01544    0.01907 =
         0.02197   -0.00167    0.00369    0.00203
AFIX  43
H4    2   -0.028102    0.752853    0.770209    11.00000   -1.20000
AFIX   0
C3    1    0.056399    0.840176    0.686003    11.00000    0.01368    0.01812 =
         0.01694   -0.00261    0.00367    0.00456
C4    1    0.168138    0.880583    0.745868    11.00000    0.01586    0.01587 =
         0.01514   -0.00073    0.00272    0.00167
C5    1    0.221440    0.934941    0.681704    11.00000    0.01616    0.01639 =
         0.01212   -0.00098    0.00264    0.00337
C6    1    0.346887    0.986036    0.712823    11.00000    0.01543    0.01493 =
         0.01165    0.00116    0.00270    0.00046
C7    1    0.422339    1.013494    0.615934    11.00000    0.01779    0.01360 =
         0.01161    0.00167    0.00124    0.00197
AFIX  13
H16   2    0.434683    0.967952    0.569466    11.00000   -1.20000
AFIX   0
C8    1    0.568091    1.046667    0.646376    11.00000    0.01974    0.01673 =
         0.00870    0.00117    0.00424   -0.00082
C9    1    0.677796    0.994425    0.675936    11.00000    0.02093    0.01599 =
         0.00961    0.00110    0.00460   -0.00081
C10   1    0.814985    1.021173    0.703931    11.00000    0.01628    0.02461 =
         0.01555   -0.00128    0.00298   -0.00015
AFIX  43
H15   2    0.889301    0.985656    0.723360    11.00000   -1.20000
AFIX   0
C11   1    0.843190    1.099563    0.703471    11.00000    0.02102    0.02751 =
         0.02005   -0.00452    0.00727   -0.00803
AFIX  43
H2    2    0.936446    1.117800    0.724078    11.00000   -1.20000
AFIX   0
C12   1   -0.136695    0.787615    0.525329    11.00000    0.01616    0.02809 =
         0.02252   -0.00911   -0.00064    0.00187
AFIX  43
H3    2   -0.203694    0.769236    0.471929    11.00000   -1.20000
AFIX   0
C13   1   -0.050884    0.849766    0.505085    11.00000    0.01563    0.02674 =
         0.01626   -0.00240    0.00075    0.00374
AFIX  43
H25   2   -0.058263    0.874710    0.438816    11.00000   -1.20000
AFIX   0
C14   1    0.046796    0.874688    0.584934    11.00000    0.01367    0.01848 =
         0.01788   -0.00276    0.00315    0.00346
C15   1    0.230860    0.871612    0.852972    11.00000    0.02031    0.01452 =
         0.01464   -0.00087    0.00342   -0.00021
C16   1    0.367421    0.903380    0.876335    11.00000    0.01858    0.01231 =
         0.01277    0.00120    0.00262    0.00115
C17   1    0.450304    0.938806    0.789375    11.00000    0.01499    0.01513 =
         0.01278    0.00101    0.00180   -0.00028
AFIX  13
H20   2    0.517168    0.977246    0.824547    11.00000   -1.20000
AFIX   0
C18   1    0.547049    0.876989    0.739574    11.00000    0.01748    0.01528 =
         0.01590    0.00332    0.00501    0.00167
C19   1    0.641310    0.838149    0.827087    11.00000    0.02266    0.02758 =
         0.02049    0.00847    0.00562    0.00918
AFIX 137
H6    2    0.706725    0.801934    0.796323    11.00000   -1.50000
H5    2    0.580915    0.810157    0.873680    11.00000   -1.50000
H7    2    0.696569    0.877520    0.867220    11.00000   -1.50000
AFIX   0
C20   1    0.466734    0.814467    0.675082    11.00000    0.02251    0.01488 =
         0.02702   -0.00254    0.00819    0.00072
AFIX 137
H9    2    0.409453    0.838414    0.616796    11.00000   -1.50000
H8    2    0.403808    0.786310    0.719659    11.00000   -1.50000
H10   2    0.535433    0.778578    0.647430    11.00000   -1.50000
AFIX   0
C21   1    0.736203    1.151398    0.673148    11.00000    0.02849    0.01834 =
         0.01852   -0.00204    0.00901   -0.00796
AFIX  43
H14   2    0.756583    1.205049    0.671428    11.00000   -1.20000
AFIX   0
C22   1    0.598832    1.125119    0.645170    11.00000    0.02654    0.01568 =
         0.01509    0.00139    0.00636    0.00079
AFIX  43
H13   2    0.525425    1.161013    0.625081    11.00000   -1.20000
AFIX   0
C23   1    0.293797    1.057040    0.772563    11.00000    0.01983    0.01798 =
         0.01426   -0.00022    0.00316    0.00173
AFIX 137
H18   2    0.223836    1.085591    0.727068    11.00000   -1.50000
H19   2    0.374959    1.090683    0.793037    11.00000   -1.50000
H17   2    0.249023    1.039746    0.835361    11.00000   -1.50000
AFIX   0
C24   1    0.425122    0.902001    0.979661    11.00000    0.02072    0.01639 =
         0.01631    0.00063    0.00158   -0.00052
AFIX  43
H24   2    0.515372    0.925341    0.996768    11.00000   -1.20000
AFIX   0
C25   1    0.353207    0.867193    1.057906    11.00000    0.03141    0.02491 =
         0.01268    0.00286    0.00133   -0.00238
AFIX  43
H23   2    0.394293    0.866662    1.127934    11.00000   -1.20000
AFIX   0
C26   1    0.221660    0.833235    1.034061    11.00000    0.03289    0.02837 =
         0.01479    0.00351    0.00756   -0.00729
AFIX  43
H21   2    0.173708    0.807677    1.087071    11.00000   -1.20000
AFIX   0
C27   1    0.160116    0.836622    0.932674    11.00000    0.02390    0.02524 =
         0.01838   -0.00005    0.00532   -0.00699
AFIX  43
H22   2    0.068218    0.814772    0.917082    11.00000   -1.20000
AFIX   0
HKLF 4 1 1 0 0 0 1 0 0 0 1

REM  mo_180316lt_0m in P2(1)/c
REM R1 =  0.0481 for    3228 Fo > 4sig(Fo)  and  0.0700 for all    4257 data
REM    274 parameters refined using      0 restraints

END

WGHT      0.0559      1.4718

REM Highest difference peak  0.738,  deepest hole -0.684,  1-sigma level  0.050
Q1    1   0.7393  0.8866  0.6771  11.00000  0.05    0.74
Q2    1   0.3650  1.0790  0.4973  11.00000  0.05    0.73
Q3    1   0.1185  0.8479  0.7192  11.00000  0.05    0.23
Q4    1   0.4879  1.0369  0.6432  11.00000  0.05    0.22
Q5    1   0.4026  0.9606  0.7441  11.00000  0.05    0.22
;
_shelx_res_checksum              49592
_shelx_fab_file
;
    1    0    0     20.85      0.00
    2    0    0      8.12      0.00
    3    0    0      0.41      0.00
    4    0    0      0.07      0.00
    5    0    0      2.00      0.00
    6    0    0      2.52      0.00
    7    0    0      1.65      0.00
    8    0    0      0.49      0.00
    9    0    0     -0.10      0.00
   10    0    0     -0.02      0.00
   11    0    0      0.17      0.00
    1    1    0     -1.62      0.00
    2    1    0     -1.81      0.00
    3    1    0     -0.83      0.00
    4    1    0      0.05      0.00
    5    1    0      0.19      0.00
    6    1    0     -0.05      0.00
    7    1    0     -0.18      0.00
    8    1    0     -0.12      0.00
    9    1    0      0.00      0.00
   10    1    0      0.06      0.00
   11    1    0      0.06      0.00
    0    2    0     23.91      0.00
    1    2    0     18.20      0.00
    2    2    0      7.11      0.00
    3    2    0      0.43      0.00
    4    2    0      0.13      0.00
    5    2    0      1.81      0.00
    6    2    0      2.30      0.00
    7    2    0      1.58      0.00
    8    2    0      0.55      0.00
    9    2    0     -0.02      0.00
   10    2    0      0.04      0.00
   11    2    0      0.18      0.00
    1    3    0     -3.75      0.00
    2    3    0     -4.16      0.00
    3    3    0     -1.85      0.00
    4    3    0      0.17      0.00
    5    3    0      0.45      0.00
    6    3    0     -0.16      0.00
    7    3    0     -0.50      0.00
    8    3    0     -0.36      0.00
    9    3    0     -0.07      0.00
   10    3    0      0.09      0.00
   11    3    0      0.09      0.00
    0    4    0     16.43      0.00
    1    4    0     12.52      0.00
    2    4    0      4.96      0.00
    3    4    0      0.42      0.00
    4    4    0      0.16      0.00
    5    4    0      1.28      0.00
    6    4    0      1.77      0.00
    7    4    0      1.41      0.00
    8    4    0      0.64      0.00
    9    4    0      0.13      0.00
   10    4    0      0.13      0.00
   11    4    0      0.17      0.00
    1    5    0     -4.03      0.00
    2    5    0     -4.46      0.00
    3    5    0     -1.97      0.00
    4    5    0      0.21      0.00
    5    5    0      0.50      0.00
    6    5    0     -0.22      0.00
    7    5    0     -0.70      0.00
    8    5    0     -0.60      0.00
    9    5    0     -0.26      0.00
   10    5    0     -0.05      0.00
   11    5    0     -0.04      0.00
    0    6    0      9.80      0.00
    1    6    0      7.54      0.00
    2    6    0      3.16      0.00
    3    6    0      0.44      0.00
    4    6    0      0.10      0.00
    5    6    0      0.69      0.00
    6    6    0      1.19      0.00
    7    6    0      1.18      0.00
    8    6    0      0.66      0.00
    9    6    0      0.18      0.00
   10    6    0      0.11      0.00
   11    6    0      0.11      0.00
    1    7    0     -3.60      0.00
    2    7    0     -4.09      0.00
    3    7    0     -1.96      0.00
    4    7    0      0.06      0.00
    5    7    0      0.48      0.00
    6    7    0     -0.14      0.00
    7    7    0     -0.71      0.00
    8    7    0     -0.77      0.00
    9    7    0     -0.50      0.00
   10    7    0     -0.28      0.00
   11    7    0     -0.19      0.00
    0    8    0      5.40      0.00
    1    8    0      4.34      0.00
    2    8    0      2.25      0.00
    3    8    0      0.80      0.00
    4    8    0      0.28      0.00
    5    8    0      0.36      0.00
    6    8    0      0.76      0.00
    7    8    0      0.95      0.00
    8    8    0      0.59      0.00
    9    8    0      0.14      0.00
   10    8    0      0.03      0.00
    1    9    0     -3.19      0.00
    2    9    0     -3.80      0.00
    3    9    0     -2.07      0.00
    4    9    0     -0.14      0.00
    5    9    0      0.55      0.00
    6    9    0      0.15      0.00
    7    9    0     -0.50      0.00
    8    9    0     -0.80      0.00
    9    9    0     -0.67      0.00
   10    9    0     -0.40      0.00
    0   10    0      2.34      0.00
    1   10    0      2.17      0.00
    2   10    0      1.84      0.00
    3   10    0      1.39      0.00
    4   10    0      0.76      0.00
    5   10    0      0.33      0.00
    6   10    0      0.47      0.00
    7   10    0      0.69      0.00
    8   10    0      0.44      0.00
    9   10    0      0.06      0.00
   10   10    0     -0.01      0.00
    1   11    0     -2.54      0.00
    2   11    0     -3.16      0.00
    3   11    0     -1.88      0.00
    4   11    0     -0.23      0.00
    5   11    0      0.59      0.00
    6   11    0      0.43      0.00
    7   11    0     -0.18      0.00
    8   11    0     -0.63      0.00
    9   11    0     -0.62      0.00
   10   11    0     -0.32      0.00
    0   12    0      0.42      0.00
    1   12    0      0.79      0.00
    2   12    0      1.51      0.00
    3   12    0      1.71      0.00
    4   12    0      1.04      0.00
    5   12    0      0.29      0.00
    6   12    0      0.21      0.00
    7   12    0      0.38      0.00
    8   12    0      0.22      0.00
    9   12    0     -0.02      0.00
    1   13    0     -1.79      0.00
    2   13    0     -2.28      0.00
    3   13    0     -1.46      0.00
    4   13    0     -0.29      0.00
    5   13    0      0.41      0.00
    6   13    0      0.44      0.00
    7   13    0      0.03      0.00
    8   13    0     -0.36      0.00
    9   13    0     -0.40      0.00
    0   14    0     -0.41      0.00
    1   14    0      0.12      0.00
    2   14    0      1.15      0.00
    3   14    0      1.53      0.00
    4   14    0      0.86      0.00
    5   14    0      0.08      0.00
    6   14    0     -0.01      0.00
    7   14    0      0.18      0.00
    8   14    0      0.09      0.00
    1   15    0     -1.30      0.00
    2   15    0     -1.70      0.00
    3   15    0     -1.21      0.00
    4   15    0     -0.45      0.00
    5   15    0      0.09      0.00
    6   15    0      0.25      0.00
    7   15    0      0.10      0.00
    8   15    0     -0.14      0.00
    0   16    0     -0.88      0.00
    1   16    0     -0.33      0.00
    2   16    0      0.73      0.00
    3   16    0      1.15      0.00
    4   16    0      0.54      0.00
    5   16    0     -0.13      0.00
    6   16    0     -0.08      0.00
    7   16    0      0.20      0.00
    1   17    0     -0.90      0.00
    2   17    0     -1.20      0.00
    3   17    0     -0.96      0.00
    4   17    0     -0.55      0.00
    5   17    0     -0.14      0.00
    6   17    0      0.14      0.00
    7   17    0      0.15      0.00
    0   18    0     -1.16      0.00
    1   18    0     -0.66      0.00
    2   18    0      0.35      0.00
    3   18    0      0.81      0.00
    4   18    0      0.38      0.00
    5   18    0     -0.12      0.00
    6   18    0      0.01      0.00
    1   19    0     -0.36      0.00
    2   19    0     -0.47      0.00
    3   19    0     -0.47      0.00
    4   19    0     -0.43      0.00
    5   19    0     -0.20      0.00
    0   20    0     -0.85      0.00
    1   20    0     -0.52      0.00
    2   20    0      0.15      0.00
    3   20    0      0.51      0.00
    4   20    0      0.27      0.00
    1   21    0      0.00      0.00
    2   21    0      0.07      0.00
  -11    1    1      0.01      0.00
  -10    1    1     -0.11      0.00
   -9    1    1     -0.04      0.00
   -8    1    1      0.71      0.00
   -7    1    1      1.83      0.00
   -6    1    1      2.42      0.00
   -5    1    1      1.56      0.00
   -4    1    1     -0.29      0.00
   -3    1    1      0.76      0.00
   -2    1    1      8.90      0.00
   -1    1    1     20.51      0.00
    0    1    1     24.83      0.00
    1    1    1     17.19      0.00
    2    1    1      5.52      0.00
    3    1    1     -0.37      0.00
    4    1    1      0.19      0.00
    5    1    1      2.05      0.00
    6    1    1      2.32      0.00
    7    1    1      1.36      0.00
    8    1    1      0.31      0.00
    9    1    1     -0.10      0.00
   10    1    1      0.14      0.00
   11    1    1      0.36      0.00
  -11    2    1      0.00      0.00
  -10    2    1     -0.02      0.00
   -9    2    1      0.06      0.00
   -8    2    1      0.25      0.00
   -7    2    1      0.33      0.00
   -6    2    1      0.06      0.00
   -5    2    1     -0.31      0.00
   -4    2    1      0.13      0.00
   -3    2    1      1.87      0.00
   -2    2    1      3.55      0.00
   -1    2    1      2.96      0.00
    0    2    1     -0.01      0.00
    1    2    1     -2.64      0.00
    2    2    1     -2.69      0.00
    3    2    1     -0.95      0.00
    4    2    1      0.34      0.00
    5    2    1      0.35      0.00
    6    2    1     -0.15      0.00
    7    2    1     -0.37      0.00
    8    2    1     -0.24      0.00
    9    2    1      0.01      0.00
   10    2    1      0.17      0.00
   11    2    1      0.19      0.00
  -11    3    1      0.09      0.00
  -10    3    1     -0.05      0.00
   -9    3    1      0.00      0.00
   -8    3    1      0.70      0.00
   -7    3    1      1.64      0.00
   -6    3    1      2.04      0.00
   -5    3    1      1.32      0.00
   -4    3    1     -0.03      0.00
   -3    3    1      0.87      0.00
   -2    3    1      7.13      0.00
   -1    3    1     15.98      0.00
    0    3    1     19.16      0.00
    1    3    1     13.14      0.00
    2    3    1      4.15      0.00
    3    3    1     -0.29      0.00
    4    3    1      0.16      0.00
    5    3    1      1.62      0.00
    6    3    1      1.94      0.00
    7    3    1      1.30      0.00
    8    3    1      0.47      0.00
    9    3    1      0.10      0.00
   10    3    1      0.23      0.00
   11    3    1      0.28      0.00
  -11    4    1      0.00      0.00
  -10    4    1     -0.04      0.00
   -9    4    1      0.13      0.00
   -8    4    1      0.46      0.00
   -7    4    1      0.58      0.00
   -6    4    1      0.15      0.00
   -5    4    1     -0.41      0.00
   -4    4    1      0.19      0.00
   -3    4    1      2.58      0.00
   -2    4    1      4.85      0.00
   -1    4    1      3.88      0.00
    0    4    1     -0.33      0.00
    1    4    1     -3.93      0.00
    2    4    1     -3.83      0.00
    3    4    1     -1.29      0.00
    4    4    1      0.53      0.00
    5    4    1      0.50      0.00
    6    4    1     -0.27      0.00
    7    4    1     -0.65      0.00
    8    4    1     -0.51      0.00
    9    4    1     -0.17      0.00
   10    4    1      0.05      0.00
   11    4    1      0.09      0.00
  -11    5    1      0.09      0.00
  -10    5    1     -0.04      0.00
   -9    5    1      0.04      0.00
   -8    5    1      0.68      0.00
   -7    5    1      1.40      0.00
   -6    5    1      1.51      0.00
   -5    5    1      0.91      0.00
   -4    5    1      0.13      0.00
   -3    5    1      0.83      0.00
   -2    5    1      4.78      0.00
   -1    5    1     10.28      0.00
    0    5    1     12.21      0.00
    1    5    1      8.36      0.00
    2    5    1      2.69      0.00
    3    5    1     -0.15      0.00
    4    5    1      0.03      0.00
    5    5    1      0.96      0.00
    6    5    1      1.37      0.00
    7    5    1      1.14      0.00
    8    5    1      0.57      0.00
    9    5    1      0.24      0.00
   10    5    1      0.26      0.00
   11    5    1      0.18      0.00
  -11    6    1      0.01      0.00
  -10    6    1      0.01      0.00
   -9    6    1      0.26      0.00
   -8    6    1      0.64      0.00
   -7    6    1      0.70      0.00
   -6    6    1      0.18      0.00
   -5    6    1     -0.38      0.00
   -4    6    1      0.26      0.00
   -3    6    1      2.53      0.00
   -2    6    1      4.52      0.00
   -1    6    1      3.41      0.00
    0    6    1     -0.66      0.00
    1    6    1     -4.03      0.00
    2    6    1     -3.86      0.00
    3    6    1     -1.37      0.00
    4    6    1      0.44      0.00
    5    6    1      0.48      0.00
    6    6    1     -0.30      0.00
    7    6    1     -0.81      0.00
    8    6    1     -0.77      0.00
    9    6    1     -0.49      0.00
   10    6    1     -0.29      0.00
   11    6    1     -0.20      0.00
  -11    7    1      0.00      0.00
  -10    7    1     -0.09      0.00
   -9    7    1      0.05      0.00
   -8    7    1      0.67      0.00
   -7    7    1      1.17      0.00
   -6    7    1      1.04      0.00
   -5    7    1      0.57      0.00
   -4    7    1      0.30      0.00
   -3    7    1      0.86      0.00
   -2    7    1      3.01      0.00
   -1    7    1      5.96      0.00
    0    7    1      7.09      0.00
    1    7    1      5.09      0.00
    2    7    1      1.98      0.00
    3    7    1      0.20      0.00
    4    7    1     -0.03      0.00
    5    7    1      0.40      0.00
    6    7    1      0.87      0.00
    7    7    1      0.92      0.00
    8    7    1      0.54      0.00
    9    7    1      0.21      0.00
   10    7    1      0.18      0.00
   11    7    1      0.11      0.00
  -10    8    1      0.15      0.00
   -9    8    1      0.46      0.00
   -8    8    1      0.75      0.00
   -7    8    1      0.61      0.00
   -6    8    1      0.01      0.00
   -5    8    1     -0.37      0.00
   -4    8    1      0.42      0.00
   -3    8    1      2.51      0.00
   -2    8    1      4.12      0.00
   -1    8    1      3.01      0.00
    0    8    1     -0.63      0.00
    1    8    1     -3.70      0.00
    2    8    1     -3.74      0.00
    3    8    1     -1.60      0.00
    4    8    1      0.22      0.00
    5    8    1      0.52      0.00
    6    8    1     -0.14      0.00
    7    8    1     -0.77      0.00
    8    8    1     -0.93      0.00
    9    8    1     -0.74      0.00
   10    8    1     -0.52      0.00
  -10    9    1     -0.12      0.00
   -9    9    1      0.05      0.00
   -8    9    1      0.58      0.00
   -7    9    1      0.91      0.00
   -6    9    1      0.69      0.00
   -5    9    1      0.49      0.00
   -4    9    1      0.75      0.00
   -3    9    1      1.28      0.00
   -2    9    1      2.08      0.00
   -1    9    1      3.11      0.00
    0    9    1      3.59      0.00
    1    9    1      2.95      0.00
    2    9    1      1.77      0.00
    3    9    1      0.81      0.00
    4    9    1      0.25      0.00
    5    9    1      0.18      0.00
    6    9    1      0.53      0.00
    7    9    1      0.72      0.00
    8    9    1      0.43      0.00
    9    9    1      0.11      0.00
   10    9    1      0.07      0.00
  -10   10    1      0.26      0.00
   -9   10    1      0.59      0.00
   -8   10    1      0.69      0.00
   -7   10    1      0.33      0.00
   -6   10    1     -0.24      0.00
   -5   10    1     -0.37      0.00
   -4   10    1      0.56      0.00
   -3   10    1      2.40      0.00
   -2   10    1      3.67      0.00
   -1   10    1      2.67      0.00
    0   10    1     -0.39      0.00
    1   10    1     -3.09      0.00
    2   10    1     -3.38      0.00
    3   10    1     -1.66      0.00
    4   10    1      0.11      0.00
    5   10    1      0.67      0.00
    6   10    1      0.20      0.00
    7   10    1     -0.51      0.00
    8   10    1     -0.86      0.00
    9   10    1     -0.76      0.00
   10   10    1     -0.47      0.00
  -10   11    1     -0.06      0.00
   -9   11    1      0.01      0.00
   -8   11    1      0.36      0.00
   -7   11    1      0.54      0.00
   -6   11    1      0.36      0.00
   -5   11    1      0.48      0.00
   -4   11    1      1.19      0.00
   -3   11    1      1.72      0.00
   -2   11    1      1.59      0.00
   -1   11    1      1.23      0.00
    0   11    1      1.16      0.00
    1   11    1      1.39      0.00
    2   11    1      1.61      0.00
    3   11    1      1.38      0.00
    4   11    1      0.66      0.00
    5   11    1      0.16      0.00
    6   11    1      0.29      0.00
    7   11    1      0.49      0.00
    8   11    1      0.28      0.00
    9   11    1      0.01      0.00
   10   11    1      0.00      0.00
   -9   12    1      0.50      0.00
   -8   12    1      0.46      0.00
   -7   12    1      0.05      0.00
   -6   12    1     -0.34      0.00
   -5   12    1     -0.25      0.00
   -4   12    1      0.60      0.00
   -3   12    1      1.94      0.00
   -2   12    1      2.78      0.00
   -1   12    1      2.01      0.00
    0   12    1     -0.23      0.00
    1   12    1     -2.27      0.00
    2   12    1     -2.59      0.00
    3   12    1     -1.36      0.00
    4   12    1      0.09      0.00
    5   12    1      0.71      0.00
    6   12    1      0.43      0.00
    7   12    1     -0.21      0.00
    8   12    1     -0.61      0.00
    9   12    1     -0.55      0.00
   -9   13    1     -0.04      0.00
   -8   13    1      0.14      0.00
   -7   13    1      0.21      0.00
   -6   13    1      0.05      0.00
   -5   13    1      0.27      0.00
   -4   13    1      1.13      0.00
   -3   13    1      1.69      0.00
   -2   13    1      1.20      0.00
   -1   13    1      0.26      0.00
    0   13    1     -0.08      0.00
    1   13    1      0.51      0.00
    2   13    1      1.39      0.00
    3   13    1      1.53      0.00
    4   13    1      0.76      0.00
    5   13    1      0.05      0.00
    6   13    1      0.05      0.00
    7   13    1      0.24      0.00
    8   13    1      0.10      0.00
    9   13    1     -0.07      0.00
   -8   14    1      0.19      0.00
   -7   14    1     -0.08      0.00
   -6   14    1     -0.22      0.00
   -5   14    1      0.00      0.00
   -4   14    1      0.64      0.00
   -3   14    1      1.49      0.00
   -2   14    1      1.98      0.00
   -1   14    1      1.40      0.00
    0   14    1     -0.16      0.00
    1   14    1     -1.61      0.00
    2   14    1     -1.88      0.00
    3   14    1     -1.08      0.00
    4   14    1     -0.06      0.00
    5   14    1      0.46      0.00
    6   14    1      0.37      0.00
    7   14    1     -0.04      0.00
    8   14    1     -0.33      0.00
   -8   15    1      0.09      0.00
   -7   15    1      0.12      0.00
   -6   15    1     -0.13      0.00
   -5   15    1     -0.04      0.00
   -4   15    1      0.74      0.00
   -3   15    1      1.31      0.00
   -2   15    1      0.82      0.00
   -1   15    1     -0.20      0.00
    0   15    1     -0.62      0.00
    1   15    1      0.00      0.00
    2   15    1      1.00      0.00
    3   15    1      1.24      0.00
    4   15    1      0.50      0.00
    5   15    1     -0.19      0.00
    6   15    1     -0.14      0.00
    7   15    1      0.11      0.00
    8   15    1      0.03      0.00
   -7   16    1     -0.13      0.00
   -6   16    1     -0.09      0.00
   -5   16    1      0.23      0.00
   -4   16    1      0.72      0.00
   -3   16    1      1.27      0.00
   -2   16    1      1.55      0.00
   -1   16    1      1.06      0.00
    0   16    1     -0.11      0.00
    1   16    1     -1.17      0.00
    2   16    1     -1.40      0.00
    3   16    1     -0.91      0.00
    4   16    1     -0.28      0.00
    5   16    1      0.13      0.00
    6   16    1      0.23      0.00
    7   16    1      0.07      0.00
   -7   17    1      0.20      0.00
   -6   17    1     -0.12      0.00
   -5   17    1     -0.16      0.00
   -4   17    1      0.48      0.00
   -3   17    1      0.98      0.00
   -2   17    1      0.47      0.00
   -1   17    1     -0.58      0.00
    0   17    1     -1.06      0.00
    1   17    1     -0.49      0.00
    2   17    1      0.51      0.00
    3   17    1      0.84      0.00
    4   17    1      0.25      0.00
    5   17    1     -0.30      0.00
    6   17    1     -0.14      0.00
    7   17    1      0.16      0.00
   -6   18    1     -0.06      0.00
   -5   18    1      0.33      0.00
   -4   18    1      0.71      0.00
   -3   18    1      0.95      0.00
   -2   18    1      1.00      0.00
   -1   18    1      0.65      0.00
    0   18    1     -0.07      0.00
    1   18    1     -0.64      0.00
    2   18    1     -0.73      0.00
    3   18    1     -0.55      0.00
    4   18    1     -0.32      0.00
    5   18    1     -0.04      0.00
    6   18    1      0.19      0.00
   -5   19    1     -0.08      0.00
   -4   19    1      0.38      0.00
   -3   19    1      0.69      0.00
   -2   19    1      0.19      0.00
   -1   19    1     -0.71      0.00
    0   19    1     -1.10      0.00
    1   19    1     -0.64      0.00
    2   19    1      0.19      0.00
    3   19    1      0.53      0.00
    4   19    1      0.16      0.00
    5   19    1     -0.16      0.00
   -4   20    1      0.49      0.00
   -3   20    1      0.44      0.00
   -2   20    1      0.34      0.00
   -1   20    1      0.20      0.00
    0   20    1     -0.01      0.00
    1   20    1     -0.07      0.00
    2   20    1      0.02      0.00
    3   20    1     -0.02      0.00
    4   20    1     -0.17      0.00
   -2   21    1      0.05      0.00
   -1   21    1     -0.41      0.00
    0   21    1     -0.56      0.00
    1   21    1     -0.29      0.00
    2   21    1      0.14      0.00
  -11    0    2     -0.10      0.00
  -10    0    2     -0.19      0.00
   -9    0    2      0.00      0.00
   -8    0    2      0.87      0.00
   -7    0    2      1.91      0.00
   -6    0    2      2.18      0.00
   -5    0    2      0.94      0.00
   -4    0    2     -0.92      0.00
   -3    0    2      0.62      0.00
   -2    0    2      8.79      0.00
   -1    0    2     18.98      0.00
    0    0    2     21.27      0.00
    1    0    2     13.02      0.00
    2    0    2      2.75      0.00
    3    0    2     -1.31      0.00
    4    0    2      0.11      0.00
    5    0    2      2.02      0.00
    6    0    2      2.14      0.00
    7    0    2      1.13      0.00
    8    0    2      0.14      0.00
    9    0    2     -0.09      0.00
   10    0    2      0.28      0.00
   11    0    2      0.53      0.00
  -11    1    2      0.04      0.00
  -10    1    2      0.03      0.00
   -9    1    2      0.07      0.00
   -8    1    2      0.15      0.00
   -7    1    2      0.16      0.00
   -6    1    2      0.00      0.00
   -5    1    2     -0.15      0.00
   -4    1    2      0.16      0.00
   -3    1    2      1.10      0.00
   -2    1    2      1.90      0.00
   -1    1    2      1.49      0.00
    0    1    2     -0.01      0.00
    1    1    2     -1.19      0.00
    2    1    2     -1.10      0.00
    3    1    2     -0.27      0.00
    4    1    2      0.25      0.00
    5    1    2      0.17      0.00
    6    1    2     -0.09      0.00
    7    1    2     -0.18      0.00
    8    1    2     -0.10      0.00
    9    1    2      0.04      0.00
   10    1    2      0.14      0.00
   11    1    2      0.15      0.00
  -11    2    2     -0.02      0.00
  -10    2    2     -0.17      0.00
   -9    2    2     -0.03      0.00
   -8    2    2      0.80      0.00
   -7    2    2      1.79      0.00
   -6    2    2      2.01      0.00
   -5    2    2      0.91      0.00
   -4    2    2     -0.64      0.00
   -3    2    2      0.82      0.00
   -2    2    2      8.04      0.00
   -1    2    2     16.92      0.00
    0    2    2     18.75      0.00
    1    2    2     11.36      0.00
    2    2    2      2.32      0.00
    3    2    2     -1.18      0.00
    4    2    2      0.11      0.00
    5    2    2      1.81      0.00
    6    2    2      1.98      0.00
    7    2    2      1.13      0.00
    8    2    2      0.25      0.00
    9    2    2      0.02      0.00
   10    2    2      0.31      0.00
   11    2    2      0.44      0.00
  -11    3    2      0.04      0.00
  -10    3    2      0.01      0.00
   -9    3    2      0.14      0.00
   -8    3    2      0.40      0.00
   -7    3    2      0.46      0.00
   -6    3    2      0.07      0.00
   -5    3    2     -0.32      0.00
   -4    3    2      0.43      0.00
   -3    3    2      2.62      0.00
   -2    3    2      4.37      0.00
   -1    3    2      3.24      0.00
    0    3    2     -0.35      0.00
    1    3    2     -3.06      0.00
    2    3    2     -2.69      0.00
    3    3    2     -0.63      0.00
    4    3    2      0.61      0.00
    5    3    2      0.39      0.00
    6    3    2     -0.25      0.00
    7    3    2     -0.51      0.00
    8    3    2     -0.34      0.00
    9    3    2     -0.03      0.00
   10    3    2      0.20      0.00
   11    3    2      0.24      0.00
  -11    4    2      0.07      0.00
  -10    4    2     -0.16      0.00
   -9    4    2     -0.07      0.00
   -8    4    2      0.70      0.00
   -7    4    2      1.53      0.00
   -6    4    2      1.62      0.00
   -5    4    2      0.79      0.00
   -4    4    2     -0.16      0.00
   -3    4    2      1.04      0.00
   -2    4    2      6.14      0.00
   -1    4    2     12.23      0.00
    0    4    2     13.29      0.00
    1    4    2      7.92      0.00
    2    4    2      1.56      0.00
    3    4    2     -0.86      0.00
    4    4    2      0.03      0.00
    5    4    2      1.28      0.00
    6    4    2      1.56      0.00
    7    4    2      1.05      0.00
    8    4    2      0.40      0.00
    9    4    2      0.20      0.00
   10    4    2      0.33      0.00
   11    4    2      0.25      0.00
  -11    5    2     -0.04      0.00
  -10    5    2     -0.09      0.00
   -9    5    2      0.15      0.00
   -8    5    2      0.58      0.00
   -7    5    2      0.66      0.00
   -6    5    2      0.16      0.00
   -5    5    2     -0.27      0.00
   -4    5    2      0.62      0.00
   -3    5    2      3.02      0.00
   -2    5    2      4.71      0.00
   -1    5    2      3.12      0.00
    0    5    2     -1.03      0.00
    1    5    2     -3.92      0.00
    2    5    2     -3.26      0.00
    3    5    2     -0.79      0.00
    4    5    2      0.65      0.00
    5    5    2      0.41      0.00
    6    5    2     -0.39      0.00
    7    5    2     -0.78      0.00
    8    5    2     -0.65      0.00
    9    5    2     -0.34      0.00
   10    5    2     -0.11      0.00
   11    5    2     -0.03      0.00
  -11    6    2     -0.03      0.00
  -10    6    2     -0.24      0.00
   -9    6    2     -0.09      0.00
   -8    6    2      0.66      0.00
   -7    6    2      1.31      0.00
   -6    6    2      1.23      0.00
   -5    6    2      0.63      0.00
   -4    6    2      0.18      0.00
   -3    6    2      1.01      0.00
   -2    6    2      4.00      0.00
   -1    6    2      7.59      0.00
    0    6    2      8.26      0.00
    1    6    2      5.10      0.00
    2    6    2      1.23      0.00
    3    6    2     -0.43      0.00
    4    6    2     -0.11      0.00
    5    6    2      0.67      0.00
    6    6    2      1.05      0.00
    7    6    2      0.87      0.00
    8    6    2      0.42      0.00
    9    6    2      0.23      0.00
   10    6    2      0.27      0.00
   11    6    2      0.11      0.00
  -11    7    2     -0.09      0.00
  -10    7    2     -0.07      0.00
   -9    7    2      0.28      0.00
   -8    7    2      0.72      0.00
   -7    7    2      0.71      0.00
   -6    7    2      0.14      0.00
   -5    7    2     -0.20      0.00
   -4    7    2      0.77      0.00
   -3    7    2      2.98      0.00
   -2    7    2      4.33      0.00
   -1    7    2      2.63      0.00
    0    7    2     -1.31      0.00
    1    7    2     -4.01      0.00
    2    7    2     -3.43      0.00
    3    7    2     -1.07      0.00
    4    7    2      0.47      0.00
    5    7    2      0.38      0.00
    6    7    2     -0.42      0.00
    7    7    2     -0.95      0.00
    8    7    2     -0.94      0.00
    9    7    2     -0.68      0.00
   10    7    2     -0.48      0.00
  -10    8    2     -0.30      0.00
   -9    8    2     -0.06      0.00
   -8    8    2      0.64      0.00
   -7    8    2      1.09      0.00
   -6    8    2      0.91      0.00
   -5    8    2      0.60      0.00
   -4    8    2      0.62      0.00
   -3    8    2      1.13      0.00
   -2    8    2      2.45      0.00
   -1    8    2      4.14      0.00
    0    8    2      4.63      0.00
    1    8    2      3.26      0.00
    2    8    2      1.30      0.00
    3    8    2      0.15      0.00
    4    8    2     -0.08      0.00
    5    8    2      0.23      0.00
    6    8    2      0.64      0.00
    7    8    2      0.68      0.00
    8    8    2      0.36      0.00
    9    8    2      0.15      0.00
   10    8    2      0.15      0.00
  -10    9    2      0.10      0.00
   -9    9    2      0.50      0.00
   -8    9    2      0.78      0.00
   -7    9    2      0.57      0.00
   -6    9    2      0.00      0.00
   -5    9    2     -0.16      0.00
   -4    9    2      0.89      0.00
   -3    9    2      2.87      0.00
   -2    9    2      3.99      0.00
   -1    9    2      2.48      0.00
    0    9    2     -1.01      0.00
    1    9    2     -3.60      0.00
    2    9    2     -3.38      0.00
    3    9    2     -1.31      0.00
    4    9    2      0.34      0.00
    5    9    2      0.52      0.00
    6    9    2     -0.22      0.00
    7    9    2     -0.88      0.00
    8    9    2     -1.02      0.00
    9    9    2     -0.81      0.00
   10    9    2     -0.56      0.00
  -10   10    2     -0.20      0.00
   -9   10    2     -0.02      0.00
   -8   10    2      0.49      0.00
   -7   10    2      0.74      0.00
   -6   10    2      0.56      0.00
   -5   10    2      0.63      0.00
   -4   10    2      1.17      0.00
   -3   10    2      1.56      0.00
   -2   10    2      1.64      0.00
   -1   10    2      1.80      0.00
    0   10    2      1.97      0.00
    1   10    2      1.84      0.00
    2   10    2      1.41      0.00
    3   10    2      0.80      0.00
    4   10    2      0.22      0.00
    5   10    2      0.07      0.00
    6   10    2      0.37      0.00
    7   10    2      0.54      0.00
    8   10    2      0.30      0.00
    9   10    2      0.07      0.00
   10   10    2      0.05      0.00
  -10   11    2      0.22      0.00
   -9   11    2      0.58      0.00
   -8   11    2      0.65      0.00
   -7   11    2      0.31      0.00
   -6   11    2     -0.11      0.00
   -5   11    2     -0.04      0.00
   -4   11    2      0.92      0.00
   -3   11    2      2.44      0.00
   -2   11    2      3.25      0.00
   -1   11    2      2.08      0.00
    0   11    2     -0.64      0.00
    1   11    2     -2.83      0.00
    2   11    2     -2.84      0.00
    3   11    2     -1.18      0.00
    4   11    2      0.37      0.00
    5   11    2      0.72      0.00
    6   11    2      0.11      0.00
    7   11    2     -0.60      0.00
    8   11    2     -0.85      0.00
    9   11    2     -0.66      0.00
   -9   12    2     -0.02      0.00
   -8   12    2      0.23      0.00
   -7   12    2      0.31      0.00
   -6   12    2      0.17      0.00
   -5   12    2      0.48      0.00
   -4   12    2      1.31      0.00
   -3   12    2      1.71      0.00
   -2   12    2      1.19      0.00
   -1   12    2      0.47      0.00
    0   12    2      0.36      0.00
    1   12    2      0.88      0.00
    2   12    2      1.41      0.00
    3   12    2      1.25      0.00
    4   12    2      0.47      0.00
    5   12    2     -0.03      0.00
    6   12    2      0.12      0.00
    7   12    2      0.33      0.00
    8   12    2      0.18      0.00
    9   12    2     -0.01      0.00
   -9   13    2      0.40      0.00
   -8   13    2      0.35      0.00
   -7   13    2      0.09      0.00
   -6   13    2     -0.08      0.00
   -5   13    2      0.15      0.00
   -4   13    2      0.86      0.00
   -3   13    2      1.82      0.00
   -2   13    2      2.28      0.00
   -1   13    2      1.45      0.00
    0   13    2     -0.46      0.00
    1   13    2     -2.04      0.00
    2   13    2     -2.10      0.00
    3   13    2     -0.90      0.00
    4   13    2      0.32      0.00
    5   13    2      0.69      0.00
    6   13    2      0.28      0.00
    7   13    2     -0.31      0.00
    8   13    2     -0.55      0.00
    9   13    2     -0.37      0.00
   -8   14    2      0.07      0.00
   -7   14    2      0.05      0.00
   -6   14    2     -0.16      0.00
   -5   14    2      0.09      0.00
   -4   14    2      0.93      0.00
   -3   14    2      1.39      0.00
   -2   14    2      0.82      0.00
   -1   14    2     -0.10      0.00
    0   14    2     -0.33      0.00
    1   14    2      0.36      0.00
    2   14    2      1.21      0.00
    3   14    2      1.21      0.00
    4   14    2      0.35      0.00
    5   14    2     -0.28      0.00
    6   14    2     -0.17      0.00
    7   14    2      0.09      0.00
    8   14    2      0.02      0.00
   -8   15    2      0.08      0.00
   -7   15    2     -0.05      0.00
   -6   15    2     -0.01      0.00
   -5   15    2      0.29      0.00
   -4   15    2      0.81      0.00
   -3   15    2      1.44      0.00
   -2   15    2      1.72      0.00
   -1   15    2      1.07      0.00
    0   15    2     -0.33      0.00
    1   15    2     -1.48      0.00
    2   15    2     -1.57      0.00
    3   15    2     -0.78      0.00
    4   15    2      0.07      0.00
    5   15    2      0.41      0.00
    6   15    2      0.24      0.00
    7   15    2     -0.11      0.00
    8   15    2     -0.26      0.00
   -7   16    2      0.03      0.00
   -6   16    2     -0.29      0.00
   -5   16    2     -0.21      0.00
   -4   16    2      0.55      0.00
   -3   16    2      1.05      0.00
   -2   16    2      0.53      0.00
   -1   16    2     -0.45      0.00
    0   16    2     -0.81      0.00
    1   16    2     -0.18      0.00
    2   16    2      0.71      0.00
    3   16    2      0.80      0.00
    4   16    2      0.03      0.00
    5   16    2     -0.54      0.00
    6   16    2     -0.35      0.00
    7   16    2     -0.01      0.00
   -7   17    2     -0.13      0.00
   -6   17    2      0.00      0.00
   -5   17    2      0.37      0.00
   -4   17    2      0.83      0.00
   -3   17    2      1.25      0.00
   -2   17    2      1.35      0.00
   -1   17    2      0.80      0.00
    0   17    2     -0.22      0.00
    1   17    2     -0.99      0.00
    2   17    2     -1.05      0.00
    3   17    2     -0.62      0.00
    4   17    2     -0.16      0.00
    5   17    2      0.14      0.00
    6   17    2      0.20      0.00
    7   17    2      0.05      0.00
   -6   18    2     -0.23      0.00
   -5   18    2     -0.21      0.00
   -4   18    2      0.43      0.00
   -3   18    2      0.83      0.00
   -2   18    2      0.27      0.00
   -1   18    2     -0.74      0.00
    0   18    2     -1.17      0.00
    1   18    2     -0.65      0.00
    2   18    2      0.21      0.00
    3   18    2      0.41      0.00
    4   18    2     -0.14      0.00
    5   18    2     -0.51      0.00
    6   18    2     -0.25      0.00
   -5   19    2      0.40      0.00
   -4   19    2      0.75      0.00
   -3   19    2      0.87      0.00
   -2   19    2      0.76      0.00
   -1   19    2      0.36      0.00
    0   19    2     -0.15      0.00
    1   19    2     -0.39      0.00
    2   19    2     -0.30      0.00
    3   19    2     -0.20      0.00
    4   19    2     -0.16      0.00
    5   19    2      0.01      0.00
   -4   20    2      0.33      0.00
   -3   20    2      0.52      0.00
   -2   20    2      0.04      0.00
   -1   20    2     -0.67      0.00
    0   20    2     -0.92      0.00
    1   20    2     -0.55      0.00
    2   20    2      0.05      0.00
    3   20    2      0.21      0.00
    4   20    2     -0.10      0.00
   -2   21    2      0.23      0.00
   -1   21    2      0.07      0.00
    0   21    2     -0.04      0.00
    1   21    2      0.08      0.00
    2   21    2      0.26      0.00
  -11    1    3     -0.08      0.00
  -10    1    3     -0.24      0.00
   -9    1    3     -0.01      0.00
   -8    1    3      0.89      0.00
   -7    1    3      1.78      0.00
   -6    1    3      1.68      0.00
   -5    1    3      0.24      0.00
   -4    1    3     -1.32      0.00
   -3    1    3      0.44      0.00
   -2    1    3      7.47      0.00
   -1    1    3     15.02      0.00
    0    1    3     15.33      0.00
    1    1    3      7.82      0.00
    2    1    3      0.14      0.00
    3    1    3     -1.89      0.00
    4    1    3      0.05      0.00
    5    1    3      1.84      0.00
    6    1    3      1.93      0.00
    7    1    3      0.99      0.00
    8    1    3      0.13      0.00
    9    1    3      0.02      0.00
   10    1    3      0.40      0.00
   11    1    3      0.54      0.00
  -11    2    3      0.06      0.00
  -10    2    3      0.08      0.00
   -9    2    3      0.20      0.00
   -8    2    3      0.35      0.00
   -7    2    3      0.32      0.00
   -6    2    3     -0.01      0.00
   -5    2    3     -0.23      0.00
   -4    2    3      0.39      0.00
   -3    2    3      1.91      0.00
   -2    2    3      2.95      0.00
   -1    2    3      2.03      0.00
    0    2    3     -0.32      0.00
    1    2    3     -1.88      0.00
    2    2    3     -1.48      0.00
    3    2    3     -0.19      0.00
    4    2    3      0.45      0.00
    5    2    3      0.23      0.00
    6    2    3     -0.17      0.00
    7    2    3     -0.28      0.00
    8    2    3     -0.15      0.00
    9    2    3      0.06      0.00
   10    2    3      0.22      0.00
   11    2    3      0.26      0.00
  -11    3    3      0.05      0.00
  -10    3    3     -0.21      0.00
   -9    3    3     -0.07      0.00
   -8    3    3      0.76      0.00
   -7    3    3      1.57      0.00
   -6    3    3      1.46      0.00
   -5    3    3      0.30      0.00
   -4    3    3     -0.76      0.00
   -3    3    3      0.88      0.00
   -2    3    3      6.55      0.00
   -1    3    3     12.39      0.00
    0    3    3     12.34      0.00
    1    3    3      6.16      0.00
    2    3    3      0.05      0.00
    3    3    3     -1.51      0.00
    4    3    3      0.07      0.00
    5    3    3      1.55      0.00
    6    3    3      1.70      0.00
    7    3    3      0.96      0.00
    8    3    3      0.22      0.00
    9    3    3      0.11      0.00
   10    3    3      0.36      0.00
   11    3    3      0.33      0.00
  -11    4    3      0.00      0.00
  -10    4    3     -0.02      0.00
   -9    4    3      0.22      0.00
   -8    4    3      0.57      0.00
   -7    4    3      0.57      0.00
   -6    4    3      0.06      0.00
   -5    4    3     -0.23      0.00
   -4    4    3      0.78      0.00
   -3    4    3      2.97      0.00
   -2    4    3      4.22      0.00
   -1    4    3      2.52      0.00
    0    4    3     -1.07      0.00
    1    4    3     -3.22      0.00
    2    4    3     -2.38      0.00
    3    4    3     -0.32      0.00
    4    4    3      0.67      0.00
    5    4    3      0.31      0.00
    6    4    3     -0.35      0.00
    7    4    3     -0.58      0.00
    8    4    3     -0.42      0.00
    9    4    3     -0.12      0.00
   10    4    3      0.11      0.00
   11    4    3      0.19      0.00
  -11    5    3      0.01      0.00
  -10    5    3     -0.28      0.00
   -9    5    3     -0.13      0.00
   -8    5    3      0.67      0.00
   -7    5    3      1.35      0.00
   -6    5    3      1.19      0.00
   -5    5    3      0.39      0.00
   -4    5    3     -0.17      0.00
   -3    5    3      1.07      0.00
   -2    5    3      4.83      0.00
   -1    5    3      8.62      0.00
    0    5    3      8.48      0.00
    1    5    3      4.30      0.00
    2    5    3      0.17      0.00
    3    5    3     -0.97      0.00
    4    5    3      0.00      0.00
    5    5    3      1.05      0.00
    6    5    3      1.29      0.00
    7    5    3      0.82      0.00
    8    5    3      0.26      0.00
    9    5    3      0.17      0.00
   10    5    3      0.28      0.00
   11    5    3      0.11      0.00
  -11    6    3     -0.10      0.00
  -10    6    3     -0.13      0.00
   -9    6    3      0.23      0.00
   -8    6    3      0.71      0.00
   -7    6    3      0.70      0.00
   -6    6    3      0.13      0.00
   -5    6    3     -0.12      0.00
   -4    6    3      1.05      0.00
   -3    6    3      3.26      0.00
   -2    6    3      4.24      0.00
   -1    6    3      2.14      0.00
    0    6    3     -1.70      0.00
    1    6    3     -3.85      0.00
    2    6    3     -2.83      0.00
    3    6    3     -0.54      0.00
    4    6    3      0.63      0.00
    5    6    3      0.28      0.00
    6    6    3     -0.52      0.00
    7    6    3     -0.90      0.00
    8    6    3     -0.77      0.00
    9    6    3     -0.46      0.00
   10    6    3     -0.24      0.00
  -11    7    3     -0.19      0.00
  -10    7    3     -0.41      0.00
   -9    7    3     -0.14      0.00
   -8    7    3      0.66      0.00
   -7    7    3      1.18      0.00
   -6    7    3      0.97      0.00
   -5    7    3      0.50      0.00
   -4    7    3      0.34      0.00
   -3    7    3      1.05      0.00
   -2    7    3      3.01      0.00
   -1    7    3      5.12      0.00
    0    7    3      5.23      0.00
    1    7    3      3.00      0.00
    2    7    3      0.54      0.00
    3    7    3     -0.43      0.00
    4    7    3     -0.12      0.00
    5    7    3      0.51      0.00
    6    7    3      0.83      0.00
    7    7    3      0.62      0.00
    8    7    3      0.25      0.00
    9    7    3      0.16      0.00
   10    7    3      0.19      0.00
  -10    8    3     -0.03      0.00
   -9    8    3      0.41      0.00
   -8    8    3      0.83      0.00
   -7    8    3      0.70      0.00
   -6    8    3      0.10      0.00
   -5    8    3     -0.05      0.00
   -4    8    3      1.16      0.00
   -3    8    3      3.22      0.00
   -2    8    3      4.04      0.00
   -1    8    3      2.00      0.00
    0    8    3     -1.65      0.00
    1    8    3     -3.83      0.00
    2    8    3     -3.05      0.00
    3    8    3     -0.81      0.00
    4    8    3      0.54      0.00
    5    8    3      0.33      0.00
    6    8    3     -0.56      0.00
    7    8    3     -1.08      0.00
    8    8    3     -0.99      0.00
    9    8    3     -0.69      0.00
   10    8    3     -0.47      0.00
  -10    9    3     -0.38      0.00
   -9    9    3     -0.08      0.00
   -8    9    3      0.59      0.00
   -7    9    3      0.91      0.00
   -6    9    3      0.71      0.00
   -5    9    3      0.66      0.00
   -4    9    3      0.95      0.00
   -3    9    3      1.29      0.00
   -2    9    3      1.79      0.00
   -1    9    3      2.47      0.00
    0    9    3      2.66      0.00
    1    9    3      1.95      0.00
    2    9    3      0.91      0.00
    3    9    3      0.19      0.00
    4    9    3     -0.06      0.00
    5    9    3      0.14      0.00
    6    9    3      0.47      0.00
    7    9    3      0.52      0.00
    8    9    3      0.30      0.00
    9    9    3      0.15      0.00
   10    9    3      0.13      0.00
  -10   10    3      0.17      0.00
   -9   10    3      0.61      0.00
   -8   10    3      0.84      0.00
   -7   10    3      0.58      0.00
   -6   10    3      0.08      0.00
   -5   10    3      0.10      0.00
   -4   10    3      1.18      0.00
   -3   10    3      2.87      0.00
   -2   10    3      3.53      0.00
   -1   10    3      1.88      0.00
    0   10    3     -1.24      0.00
    1   10    3     -3.31      0.00
    2   10    3     -2.86      0.00
    3   10    3     -0.87      0.00
    4   10    3      0.57      0.00
    5   10    3      0.52      0.00
    6   10    3     -0.33      0.00
    7   10    3     -0.94      0.00
    8   10    3     -0.94      0.00
    9   10    3     -0.65      0.00
   10   10    3     -0.40      0.00
  -10   11    3     -0.17      0.00
   -9   11    3     -0.02      0.00
   -8   11    3      0.37      0.00
   -7   11    3      0.49      0.00
   -6   11    3      0.36      0.00
   -5   11    3      0.65      0.00
   -4   11    3      1.34      0.00
   -3   11    3      1.58      0.00
   -2   11    3      1.17      0.00
   -1   11    3      0.80      0.00
    0   11    3      0.85      0.00
    1   11    3      1.10      0.00
    2   11    3      1.18      0.00
    3   11    3      0.79      0.00
    4   11    3      0.17      0.00
    5   11    3     -0.05      0.00
    6   11    3      0.23      0.00
    7   11    3      0.45      0.00
    8   11    3      0.32      0.00
    9   11    3      0.13      0.00
   -9   12    3      0.56      0.00
   -8   12    3      0.63      0.00
   -7   12    3      0.37      0.00
   -6   12    3      0.13      0.00
   -5   12    3      0.30      0.00
   -4   12    3      1.10      0.00
   -3   12    3      2.20      0.00
   -2   12    3      2.58      0.00
   -1   12    3      1.37      0.00
    0   12    3     -0.92      0.00
    1   12    3     -2.54      0.00
    2   12    3     -2.26      0.00
    3   12    3     -0.68      0.00
    4   12    3      0.60      0.00
    5   12    3      0.67      0.00
    6   12    3     -0.03      0.00
    7   12    3     -0.61      0.00
    8   12    3     -0.69      0.00
    9   12    3     -0.44      0.00
   -9   13    3      0.00      0.00
   -8   13    3      0.14      0.00
   -7   13    3      0.13      0.00
   -6   13    3     -0.02      0.00
   -5   13    3      0.35      0.00
   -4   13    3      1.15      0.00
   -3   13    3      1.42      0.00
   -2   13    3      0.78      0.00
   -1   13    3      0.02      0.00
    0   13    3     -0.03      0.00
    1   13    3      0.64      0.00
    2   13    3      1.25      0.00
    3   13    3      1.04      0.00
    4   13    3      0.20      0.00
    5   13    3     -0.28      0.00
    6   13    3     -0.05      0.00
    7   13    3      0.24      0.00
    8   13    3      0.19      0.00
   -8   14    3      0.28      0.00
   -7   14    3      0.16      0.00
   -6   14    3      0.14      0.00
   -5   14    3      0.38      0.00
   -4   14    3      0.92      0.00
   -3   14    3      1.60      0.00
   -2   14    3      1.82      0.00
   -1   14    3      0.95      0.00
    0   14    3     -0.68      0.00
    1   14    3     -1.85      0.00
    2   14    3     -1.68      0.00
    3   14    3     -0.55      0.00
    4   14    3      0.43      0.00
    5   14    3      0.57      0.00
    6   14    3      0.12      0.00
    7   14    3     -0.33      0.00
    8   14    3     -0.41      0.00
   -8   15    3      0.05      0.00
   -7   15    3     -0.03      0.00
   -6   15    3     -0.28      0.00
   -5   15    3     -0.06      0.00
   -4   15    3      0.71      0.00
   -3   15    3      1.08      0.00
   -2   15    3      0.51      0.00
   -1   15    3     -0.33      0.00
    0   15    3     -0.49      0.00
    1   15    3      0.19      0.00
    2   15    3      0.93      0.00
    3   15    3      0.77      0.00
    4   15    3     -0.12      0.00
    5   15    3     -0.65      0.00
    6   15    3     -0.38      0.00
    7   15    3     -0.01      0.00
    8   15    3      0.00      0.00
   -7   16    3     -0.03      0.00
   -6   16    3      0.06      0.00
   -5   16    3      0.34      0.00
   -4   16    3      0.80      0.00
   -3   16    3      1.32      0.00
   -2   16    3      1.46      0.00
   -1   16    3      0.79      0.00
    0   16    3     -0.45      0.00
    1   16    3     -1.32      0.00
    2   16    3     -1.26      0.00
    3   16    3     -0.55      0.00
    4   16    3      0.11      0.00
    5   16    3      0.33      0.00
    6   16    3      0.15      0.00
    7   16    3     -0.11      0.00
   -7   17    3     -0.05      0.00
   -6   17    3     -0.36      0.00
   -5   17    3     -0.23      0.00
   -4   17    3      0.51      0.00
   -3   17    3      0.92      0.00
   -2   17    3      0.34      0.00
   -1   17    3     -0.63      0.00
    0   17    3     -0.99      0.00
    1   17    3     -0.43      0.00
    2   17    3      0.34      0.00
    3   17    3      0.31      0.00
    4   17    3     -0.43      0.00
    5   17    3     -0.83      0.00
    6   17    3     -0.50      0.00
   -6   18    3     -0.01      0.00
   -5   18    3      0.37      0.00
   -4   18    3      0.79      0.00
   -3   18    3      1.09      0.00
   -2   18    3      1.03      0.00
   -1   18    3      0.46      0.00
    0   18    3     -0.35      0.00
    1   18    3     -0.79      0.00
    2   18    3     -0.71      0.00
    3   18    3     -0.39      0.00
    4   18    3     -0.09      0.00
    5   18    3      0.13      0.00
   -5   19    3     -0.14      0.00
   -4   19    3      0.47      0.00
   -3   19    3      0.74      0.00
   -2   19    3      0.14      0.00
   -1   19    3     -0.77      0.00
    0   19    3     -1.13      0.00
    1   19    3     -0.69      0.00
    2   19    3     -0.04      0.00
    3   19    3      0.04      0.00
    4   19    3     -0.41      0.00
    5   19    3     -0.60      0.00
   -4   20    3      0.66      0.00
   -3   20    3      0.67      0.00
   -2   20    3      0.43      0.00
   -1   20    3      0.03      0.00
    0   20    3     -0.27      0.00
    1   20    3     -0.25      0.00
    2   20    3     -0.07      0.00
    3   20    3     -0.05      0.00
   -2   21    3     -0.05      0.00
   -1   21    3     -0.53      0.00
    0   21    3     -0.65      0.00
    1   21    3     -0.36      0.00
  -11    0    4     -0.07      0.00
  -10    0    4     -0.29      0.00
   -9    0    4     -0.02      0.00
   -8    0    4      0.89      0.00
   -7    0    4      1.59      0.00
   -6    0    4      1.19      0.00
   -5    0    4     -0.37      0.00
   -4    0    4     -1.64      0.00
   -3    0    4      0.27      0.00
   -2    0    4      6.27      0.00
   -1    0    4     11.78      0.00
    0    0    4     10.85      0.00
    1    0    4      4.25      0.00
    2    0    4     -1.38      0.00
    3    0    4     -2.08      0.00
    4    0    4      0.12      0.00
    5    0    4      1.80      0.00
    6    0    4      1.83      0.00
    7    0    4      0.90      0.00
    8    0    4      0.11      0.00
    9    0    4      0.10      0.00
   10    0    4      0.45      0.00
   11    0    4      0.52      0.00
  -11    1    4      0.01      0.00
  -10    1    4      0.07      0.00
   -9    1    4      0.16      0.00
   -8    1    4      0.23      0.00
   -7    1    4      0.17      0.00
   -6    1    4     -0.03      0.00
   -5    1    4     -0.12      0.00
   -4    1    4      0.21      0.00
   -3    1    4      0.88      0.00
   -2    1    4      1.26      0.00
   -1    1    4      0.77      0.00
    0    1    4     -0.24      0.00
    1    1    4     -0.83      0.00
    2    1    4     -0.58      0.00
    3    1    4     -0.03      0.00
    4    1    4      0.20      0.00
    5    1    4      0.08      0.00
    6    1    4     -0.06      0.00
    7    1    4     -0.08      0.00
    8    1    4     -0.01      0.00
    9    1    4      0.06      0.00
   10    1    4      0.13      0.00
   11    1    4      0.14      0.00
  -11    2    4      0.02      0.00
  -10    2    4     -0.23      0.00
   -9    2    4     -0.03      0.00
   -8    2    4      0.83      0.00
   -7    2    4      1.49      0.00
   -6    2    4      1.11      0.00
   -5    2    4     -0.29      0.00
   -4    2    4     -1.31      0.00
   -3    2    4      0.57      0.00
   -2    2    4      6.04      0.00
   -1    2    4     10.90      0.00
    0    2    4      9.88      0.00
    1    2    4      3.82      0.00
    2    2    4     -1.25      0.00
    3    2    4     -1.84      0.00
    4    2    4      0.17      0.00
    5    2    4      1.71      0.00
    6    2    4      1.76      0.00
    7    2    4      0.89      0.00
    8    2    4      0.12      0.00
    9    2    4      0.08      0.00
   10    2    4      0.38      0.00
   11    2    4      0.38      0.00
  -11    3    4      0.00      0.00
  -10    3    4      0.08      0.00
   -9    3    4      0.34      0.00
   -8    3    4      0.58      0.00
   -7    3    4      0.44      0.00
   -6    3    4     -0.05      0.00
   -5    3    4     -0.22      0.00
   -4    3    4      0.68      0.00
   -3    3    4      2.33      0.00
   -2    3    4      3.07      0.00
   -1    3    4      1.64      0.00
    0    3    4     -0.94      0.00
    1    3    4     -2.27      0.00
    2    3    4     -1.51      0.00
    3    3    4     -0.06      0.00
    4    3    4      0.52      0.00
    5    3    4      0.21      0.00
    6    3    4     -0.21      0.00
    7    3    4     -0.30      0.00
    8    3    4     -0.16      0.00
    9    3    4      0.05      0.00
   10    3    4      0.22      0.00
   11    3    4      0.27      0.00
  -11    4    4      0.09      0.00
  -10    4    4     -0.19      0.00
   -9    4    4     -0.03      0.00
   -8    4    4      0.74      0.00
   -7    4    4      1.30      0.00
   -6    4    4      0.95      0.00
   -5    4    4     -0.09      0.00
   -4    4    4     -0.65      0.00
   -3    4    4      0.98      0.00
   -2    4    4      5.13      0.00
   -1    4    4      8.62      0.00
    0    4    4      7.64      0.00
    1    4    4      2.97      0.00
    2    4    4     -0.85      0.00
    3    4    4     -1.31      0.00
    4    4    4      0.19      0.00
    5    4    4      1.42      0.00
    6    4    4      1.51      0.00
    7    4    4      0.79      0.00
    8    4    4      0.12      0.00
    9    4    4      0.06      0.00
   10    4    4      0.24      0.00
  -11    5    4     -0.05      0.00
  -10    5    4     -0.05      0.00
   -9    5    4      0.31      0.00
   -8    5    4      0.71      0.00
   -7    5    4      0.59      0.00
   -6    5    4     -0.02      0.00
   -5    5    4     -0.14      0.00
   -4    5    4      1.12      0.00
   -3    5    4      3.12      0.00
   -2    5    4      3.71      0.00
   -1    5    4      1.57      0.00
    0    5    4     -1.73      0.00
    1    5    4     -3.22      0.00
    2    5    4     -2.05      0.00
    3    5    4     -0.10      0.00
    4    5    4      0.68      0.00
    5    5    4      0.24      0.00
    6    5    4     -0.43      0.00
    7    5    4     -0.67      0.00
    8    5    4     -0.50      0.00
    9    5    4     -0.19      0.00
   10    5    4      0.03      0.00
  -11    6    4     -0.08      0.00
  -10    6    4     -0.31      0.00
   -9    6    4     -0.05      0.00
   -8    6    4      0.71      0.00
   -7    6    4      1.15      0.00
   -6    6    4      0.83      0.00
   -5    6    4      0.18      0.00
   -4    6    4     -0.04      0.00
   -3    6    4      1.02      0.00
   -2    6    4      3.57      0.00
   -1    6    4      5.78      0.00
    0    6    4      5.24      0.00
    1    6    4      2.28      0.00
    2    6    4     -0.30      0.00
    3    6    4     -0.81      0.00
    4    6    4      0.06      0.00
    5    6    4      0.92      0.00
    6    6    4      1.07      0.00
    7    6    4      0.58      0.00
    8    6    4      0.12      0.00
    9    6    4      0.10      0.00
   10    6    4      0.17      0.00
  -10    7    4     -0.05      0.00
   -9    7    4      0.36      0.00
   -8    7    4      0.78      0.00
   -7    7    4      0.63      0.00
   -6    7    4      0.00      0.00
   -5    7    4     -0.05      0.00
   -4    7    4      1.32      0.00
   -3    7    4      3.33      0.00
   -2    7    4      3.76      0.00
   -1    7    4      1.42      0.00
    0    7    4     -2.03      0.00
    1    7    4     -3.60      0.00
    2    7    4     -2.38      0.00
    3    7    4     -0.24      0.00
    4    7    4      0.73      0.00
    5    7    4      0.24      0.00
    6    7    4     -0.65      0.00
    7    7    4     -1.02      0.00
    8    7    4     -0.81      0.00
    9    7    4     -0.44      0.00
   10    7    4     -0.22      0.00
  -10    8    4     -0.42      0.00
   -9    8    4     -0.05      0.00
   -8    8    4      0.67      0.00
   -7    8    4      0.97      0.00
   -6    8    4      0.69      0.00
   -5    8    4      0.46      0.00
   -4    8    4      0.57      0.00
   -3    8    4      1.06      0.00
   -2    8    4      2.10      0.00
   -1    8    4      3.17      0.00
    0    8    4      3.07      0.00
    1    8    4      1.69      0.00
    2    8    4      0.25      0.00
    3    8    4     -0.31      0.00
    4    8    4     -0.08      0.00
    5    8    4      0.38      0.00
    6    8    4      0.61      0.00
    7    8    4      0.46      0.00
    8    8    4      0.24      0.00
    9    8    4      0.21      0.00
   10    8    4      0.17      0.00
  -10    9    4      0.11      0.00
   -9    9    4      0.55      0.00
   -8    9    4      0.85      0.00
   -7    9    4      0.61      0.00
   -6    9    4      0.05      0.00
   -5    9    4      0.08      0.00
   -4    9    4      1.33      0.00
   -3    9    4      3.10      0.00
   -2    9    4      3.49      0.00
   -1    9    4      1.41      0.00
    0    9    4     -1.80      0.00
    1    9    4     -3.47      0.00
    2    9    4     -2.49      0.00
    3    9    4     -0.37      0.00
    4    9    4      0.75      0.00
    5    9    4      0.32      0.00
    6    9    4     -0.66      0.00
    7    9    4     -1.08      0.00
    8    9    4     -0.85      0.00
    9    9    4     -0.50      0.00
   10    9    4     -0.30      0.00
  -10   10    4     -0.31      0.00
   -9   10    4     -0.02      0.00
   -8   10    4      0.52      0.00
   -7   10    4      0.66      0.00
   -6   10    4      0.47      0.00
   -5   10    4      0.65      0.00
   -4   10    4      1.13      0.00
   -3   10    4      1.32      0.00
   -2   10    4      1.24      0.00
   -1   10    4      1.28      0.00
    0   10    4      1.32      0.00
    1   10    4      1.12      0.00
    2   10    4      0.74      0.00
    3   10    4      0.29      0.00
    4   10    4     -0.03      0.00
    5   10    4      0.01      0.00
    6   10    4      0.31      0.00
    7   10    4      0.49      0.00
    8   10    4      0.43      0.00
    9   10    4      0.30      0.00
   -9   11    4      0.64      0.00
   -8   11    4      0.80      0.00
   -7   11    4      0.55      0.00
   -6   11    4      0.21      0.00
   -5   11    4      0.34      0.00
   -4   11    4      1.28      0.00
   -3   11    4      2.52      0.00
   -2   11    4      2.76      0.00
   -1   11    4      1.13      0.00
    0   11    4     -1.46      0.00
    1   11    4     -2.93      0.00
    2   11    4     -2.21      0.00
    3   11    4     -0.35      0.00
    4   11    4      0.76      0.00
    5   11    4      0.47      0.00
    6   11    4     -0.39      0.00
    7   11    4     -0.81      0.00
    8   11    4     -0.67      0.00
    9   11    4     -0.39      0.00
   -9   12    4      0.04      0.00
   -8   12    4      0.31      0.00
   -7   12    4      0.33      0.00
   -6   12    4      0.21      0.00
   -5   12    4      0.58      0.00
   -4   12    4      1.26      0.00
   -3   12    4      1.36      0.00
   -2   12    4      0.77      0.00
   -1   12    4      0.23      0.00
    0   12    4      0.29      0.00
    1   12    4      0.77      0.00
    2   12    4      1.10      0.00
    3   12    4      0.76      0.00
    4   12    4      0.06      0.00
    5   12    4     -0.21      0.00
    6   12    4      0.12      0.00
    7   12    4      0.47      0.00
    8   12    4      0.45      0.00
    9   12    4      0.25      0.00
   -9   13    4      0.48      0.00
   -8   13    4      0.55      0.00
   -7   13    4      0.41      0.00
   -6   13    4      0.31      0.00
   -5   13    4      0.50      0.00
   -4   13    4      1.11      0.00
   -3   13    4      1.85      0.00
   -2   13    4      1.93      0.00
   -1   13    4      0.75      0.00
    0   13    4     -1.12      0.00
    1   13    4     -2.22      0.00
    2   13    4     -1.69      0.00
    3   13    4     -0.26      0.00
    4   13    4      0.68      0.00
    5   13    4      0.55      0.00
    6   13    4     -0.09      0.00
    7   13    4     -0.47      0.00
    8   13    4     -0.44      0.00
   -8   14    4      0.16      0.00
   -7   14    4      0.11      0.00
   -6   14    4     -0.04      0.00
   -5   14    4      0.28      0.00
   -4   14    4      0.95      0.00
   -3   14    4      1.09      0.00
   -2   14    4      0.45      0.00
   -1   14    4     -0.24      0.00
    0   14    4     -0.21      0.00
    1   14    4      0.49      0.00
    2   14    4      1.07      0.00
    3   14    4      0.76      0.00
    4   14    4     -0.13      0.00
    5   14    4     -0.52      0.00
    6   14    4     -0.16      0.00
    7   14    4      0.24      0.00
    8   14    4      0.24      0.00
   -8   15    4      0.23      0.00
   -7   15    4      0.18      0.00
   -6   15    4      0.21      0.00
   -5   15    4      0.39      0.00
   -4   15    4      0.83      0.00
   -3   15    4      1.38      0.00
   -2   15    4      1.48      0.00
   -1   15    4      0.64      0.00
    0   15    4     -0.73      0.00
    1   15    4     -1.57      0.00
    2   15    4     -1.27      0.00
    3   15    4     -0.29      0.00
    4   15    4      0.44      0.00
    5   15    4      0.47      0.00
    6   15    4      0.08      0.00
    7   15    4     -0.23      0.00
   -7   16    4      0.00      0.00
   -6   16    4     -0.23      0.00
   -5   16    4     -0.01      0.00
   -4   16    4      0.68      0.00
   -3   16    4      0.94      0.00
   -2   16    4      0.32      0.00
   -1   16    4     -0.53      0.00
    0   16    4     -0.69      0.00
    1   16    4     -0.04      0.00
    2   16    4      0.59      0.00
    3   16    4      0.35      0.00
    4   16    4     -0.50      0.00
    5   16    4     -0.86      0.00
    6   16    4     -0.46      0.00
    7   16    4     -0.03      0.00
   -6   17    4      0.01      0.00
   -5   17    4      0.27      0.00
   -4   17    4      0.68      0.00
   -3   17    4      1.11      0.00
   -2   17    4      1.14      0.00
   -1   17    4      0.49      0.00
    0   17    4     -0.50      0.00
    1   17    4     -1.07      0.00
    2   17    4     -0.92      0.00
    3   17    4     -0.36      0.00
    4   17    4      0.12      0.00
    5   17    4      0.29      0.00
    6   17    4      0.15      0.00
   -6   18    4     -0.29      0.00
   -5   18    4     -0.06      0.00
   -4   18    4      0.65      0.00
   -3   18    4      0.93      0.00
   -2   18    4      0.26      0.00
   -1   18    4     -0.72      0.00
    0   18    4     -1.07      0.00
    1   18    4     -0.56      0.00
    2   18    4      0.08      0.00
    3   18    4     -0.01      0.00
    4   18    4     -0.62      0.00
    5   18    4     -0.83      0.00
   -5   19    4      0.30      0.00
   -4   19    4      0.66      0.00
   -3   19    4      0.80      0.00
   -2   19    4      0.59      0.00
   -1   19    4      0.06      0.00
    0   19    4     -0.46      0.00
    1   19    4     -0.60      0.00
    2   19    4     -0.45      0.00
    3   19    4     -0.26      0.00
    4   19    4     -0.07      0.00
   -3   20    4      0.66      0.00
   -2   20    4      0.09      0.00
   -1   20    4     -0.65      0.00
    0   20    4     -0.90      0.00
    1   20    4     -0.53      0.00
    2   20    4     -0.07      0.00
    3   20    4     -0.09      0.00
    0   21    4     -0.36      0.00
  -11    1    5     -0.01      0.00
  -10    1    5     -0.29      0.00
   -9    1    5     -0.03      0.00
   -8    1    5      0.82      0.00
   -7    1    5      1.31      0.00
   -6    1    5      0.69      0.00
   -5    1    5     -0.76      0.00
   -4    1    5     -1.52      0.00
   -3    1    5      0.50      0.00
   -2    1    5      5.28      0.00
   -1    1    5      8.83      0.00
    0    1    5      7.18      0.00
    1    1    5      1.90      0.00
    2    1    5     -1.87      0.00
    3    1    5     -1.76      0.00
    4    1    5      0.31      0.00
    5    1    5      1.74      0.00
    6    1    5      1.68      0.00
    7    1    5      0.74      0.00
    8    1    5      0.05      0.00
    9    1    5      0.10      0.00
   10    1    5      0.38      0.00
  -11    2    5     -0.05      0.00
  -10    2    5      0.10      0.00
   -9    2    5      0.35      0.00
   -8    2    5      0.47      0.00
   -7    2    5      0.26      0.00
   -6    2    5     -0.12      0.00
   -5    2    5     -0.17      0.00
   -4    2    5      0.48      0.00
   -3    2    5      1.47      0.00
   -2    2    5      1.76      0.00
   -1    2    5      0.78      0.00
    0    2    5     -0.72      0.00
    1    2    5     -1.37      0.00
    2    2    5     -0.82      0.00
    3    2    5      0.03      0.00
    4    2    5      0.31      0.00
    5    2    5      0.11      0.00
    6    2    5     -0.08      0.00
    7    2    5     -0.08      0.00
    8    2    5      0.02      0.00
    9    2    5      0.12      0.00
   10    2    5      0.18      0.00
  -11    3    5      0.12      0.00
  -10    3    5     -0.13      0.00
   -9    3    5      0.07      0.00
   -8    3    5      0.78      0.00
   -7    3    5      1.17      0.00
   -6    3    5      0.61      0.00
   -5    3    5     -0.56      0.00
   -4    3    5     -1.03      0.00
   -3    3    5      0.87      0.00
   -2    3    5      4.94      0.00
   -1    3    5      7.78      0.00
    0    3    5      6.20      0.00
    1    3    5      1.65      0.00
    2    3    5     -1.51      0.00
    3    3    5     -1.39      0.00
    4    3    5      0.37      0.00
    5    3    5      1.64      0.00
    6    3    5      1.61      0.00
    7    3    5      0.72      0.00
    8    3    5      0.01      0.00
    9    3    5     -0.01      0.00
   10    3    5      0.20      0.00
  -11    4    5     -0.06      0.00
  -10    4    5      0.07      0.00
   -9    4    5      0.44      0.00
   -8    4    5      0.69      0.00
   -7    4    5      0.41      0.00
   -6    4    5     -0.17      0.00
   -5    4    5     -0.16      0.00
   -4    4    5      1.03      0.00
   -3    4    5      2.60      0.00
   -2    4    5      2.83      0.00
   -1    4    5      0.97      0.00
    0    4    5     -1.50      0.00
    1    4    5     -2.39      0.00
    2    4    5     -1.31      0.00
    3    4    5      0.14      0.00
    4    4    5      0.61      0.00
    5    4    5      0.21      0.00
    6    4    5     -0.25      0.00
    7    4    5     -0.37      0.00
    8    4    5     -0.22      0.00
    9    4    5      0.01      0.00
   10    4    5      0.18      0.00
  -11    5    5      0.09      0.00
  -10    5    5     -0.07      0.00
   -9    5    5      0.16      0.00
   -8    5    5      0.77      0.00
   -7    5    5      1.03      0.00
   -6    5    5      0.56      0.00
   -5    5    5     -0.23      0.00
   -4    5    5     -0.41      0.00
   -3    5    5      1.03      0.00
   -2    5    5      3.93      0.00
   -1    5    5      5.91      0.00
    0    5    5      4.71      0.00
    1    5    5      1.39      0.00
    2    5    5     -0.97      0.00
    3    5    5     -0.96      0.00
    4    5    5      0.31      0.00
    5    5    5      1.30      0.00
    6    5    5      1.29      0.00
    7    5    5      0.57      0.00
    8    5    5      0.00      0.00
    9    5    5     -0.02      0.00
   10    5    5      0.07      0.00
  -10    6    5      0.01      0.00
   -9    6    5      0.37      0.00
   -8    6    5      0.70      0.00
   -7    6    5      0.43      0.00
   -6    6    5     -0.19      0.00
   -5    6    5     -0.09      0.00
   -4    6    5      1.37      0.00
   -3    6    5      3.14      0.00
   -2    6    5      3.21      0.00
   -1    6    5      0.87      0.00
    0    6    5     -2.02      0.00
    1    6    5     -2.96      0.00
    2    6    5     -1.58      0.00
    3    6    5      0.25      0.00
    4    6    5      0.85      0.00
    5    6    5      0.25      0.00
    6    6    5     -0.54      0.00
    7    6    5     -0.80      0.00
    8    6    5     -0.58      0.00
    9    6    5     -0.22      0.00
   10    6    5      0.03      0.00
  -10    7    5     -0.20      0.00
   -9    7    5      0.16      0.00
   -8    7    5      0.75      0.00
   -7    7    5      0.89      0.00
   -6    7    5      0.51      0.00
   -5    7    5      0.13      0.00
   -4    7    5      0.16      0.00
   -3    7    5      0.96      0.00
   -2    7    5      2.53      0.00
   -1    7    5      3.72      0.00
    0    7    5      3.13      0.00
    1    7    5      1.17      0.00
    2    7    5     -0.39      0.00
    3    7    5     -0.59      0.00
    4    7    5      0.09      0.00
    5    7    5      0.71      0.00
    6    7    5      0.77      0.00
    7    7    5      0.40      0.00
    8    7    5      0.14      0.00
    9    7    5      0.16      0.00
   10    7    5      0.12      0.00
  -10    8    5      0.07      0.00
   -9    8    5      0.41      0.00
   -8    8    5      0.67      0.00
   -7    8    5      0.41      0.00
   -6    8    5     -0.14      0.00
   -5    8    5     -0.01      0.00
   -4    8    5      1.39      0.00
   -3    8    5      3.09      0.00
   -2    8    5      3.16      0.00
   -1    8    5      0.86      0.00
    0    8    5     -2.09      0.00
    1    8    5     -3.15      0.00
    2    8    5     -1.79      0.00
    3    8    5      0.22      0.00
    4    8    5      0.95      0.00
    5    8    5      0.23      0.00
    6    8    5     -0.75      0.00
    7    8    5     -1.04      0.00
    8    8    5     -0.71      0.00
    9    8    5     -0.31      0.00
   10    8    5     -0.11      0.00
  -10    9    5     -0.29      0.00
   -9    9    5      0.10      0.00
   -8    9    5      0.64      0.00
   -7    9    5      0.68      0.00
   -6    9    5      0.40      0.00
   -5    9    5      0.42      0.00
   -4    9    5      0.73      0.00
   -3    9    5      1.05      0.00
   -2    9    5      1.45      0.00
   -1    9    5      1.84      0.00
    0    9    5      1.67      0.00
    1    9    5      0.93      0.00
    2    9    5      0.21      0.00
    3    9    5     -0.11      0.00
    4    9    5     -0.08      0.00
    5    9    5      0.14      0.00
    6    9    5      0.35      0.00
    7    9    5      0.42      0.00
    8    9    5      0.44      0.00
    9    9    5      0.39      0.00
   -9   10    5      0.54      0.00
   -8   10    5      0.70      0.00
   -7   10    5      0.45      0.00
   -6   10    5      0.07      0.00
   -5   10    5      0.24      0.00
   -4   10    5      1.35      0.00
   -3   10    5      2.67      0.00
   -2   10    5      2.70      0.00
   -1   10    5      0.74      0.00
    0   10    5     -1.88      0.00
    1   10    5     -2.98      0.00
    2   10    5     -1.82      0.00
    3   10    5      0.10      0.00
    4   10    5      0.89      0.00
    5   10    5      0.24      0.00
    6   10    5     -0.66      0.00
    7   10    5     -0.87      0.00
    8   10    5     -0.55      0.00
    9   10    5     -0.26      0.00
   -9   11    5      0.08      0.00
   -8   11    5      0.46      0.00
   -7   11    5      0.46      0.00
   -6   11    5      0.30      0.00
   -5   11    5      0.59      0.00
   -4   11    5      1.11      0.00
   -3   11    5      1.18      0.00
   -2   11    5      0.84      0.00
   -1   11    5      0.59      0.00
    0   11    5      0.61      0.00
    1   11    5      0.75      0.00
    2   11    5      0.76      0.00
    3   11    5      0.41      0.00
    4   11    5     -0.06      0.00
    5   11    5     -0.16      0.00
    6   11    5      0.19      0.00
    7   11    5      0.57      0.00
    8   11    5      0.65      0.00
    9   11    5      0.45      0.00
   -9   12    5      0.55      0.00
   -8   12    5      0.66      0.00
   -7   12    5      0.51      0.00
   -6   12    5      0.35      0.00
   -5   12    5      0.56      0.00
   -4   12    5      1.29      0.00
   -3   12    5      2.11      0.00
   -2   12    5      2.02      0.00
   -1   12    5      0.50      0.00
    0   12    5     -1.54      0.00
    1   12    5     -2.43      0.00
    2   12    5     -1.54      0.00
    3   12    5      0.05      0.00
    4   12    5      0.78      0.00
    5   12    5      0.36      0.00
    6   12    5     -0.31      0.00
    7   12    5     -0.50      0.00
    8   12    5     -0.33      0.00
   -8   13    5      0.33      0.00
   -7   13    5      0.33      0.00
   -6   13    5      0.24      0.00
   -5   13    5      0.57      0.00
   -4   13    5      1.08      0.00
   -3   13    5      1.05      0.00
   -2   13    5      0.43      0.00
   -1   13    5     -0.09      0.00
    0   13    5      0.02      0.00
    1   13    5      0.63      0.00
    2   13    5      1.03      0.00
    3   13    5      0.66      0.00
    4   13    5     -0.11      0.00
    5   13    5     -0.35      0.00
    6   13    5      0.10      0.00
    7   13    5      0.54      0.00
    8   13    5      0.54      0.00
   -8   14    5      0.47      0.00
   -7   14    5      0.43      0.00
   -6   14    5      0.41      0.00
   -5   14    5      0.57      0.00
   -4   14    5      1.03      0.00
   -3   14    5      1.58      0.00
   -2   14    5      1.53      0.00
   -1   14    5      0.45      0.00
    0   14    5     -1.04      0.00
    1   14    5     -1.74      0.00
    2   14    5     -1.14      0.00
    3   14    5      0.02      0.00
    4   14    5      0.66      0.00
    5   14    5      0.47      0.00
    6   14    5      0.00      0.00
    7   14    5     -0.23      0.00
   -7   15    5      0.24      0.00
   -6   15    5      0.12      0.00
   -5   15    5      0.38      0.00
   -4   15    5      0.89      0.00
   -3   15    5      0.89      0.00
   -2   15    5      0.21      0.00
   -1   15    5     -0.46      0.00
    0   15    5     -0.41      0.00
    1   15    5      0.31      0.00
    2   15    5      0.84      0.00
    3   15    5      0.47      0.00
    4   15    5     -0.36      0.00
    5   15    5     -0.61      0.00
    6   15    5     -0.15      0.00
    7   15    5      0.27      0.00
   -7   16    5      0.17      0.00
   -6   16    5      0.17      0.00
   -5   16    5      0.31      0.00
   -4   16    5      0.68      0.00
   -3   16    5      1.16      0.00
   -2   16    5      1.20      0.00
   -1   16    5      0.47      0.00
    0   16    5     -0.61      0.00
    1   16    5     -1.16      0.00
    2   16    5     -0.85      0.00
    3   16    5     -0.10      0.00
    4   16    5      0.42      0.00
    5   16    5      0.44      0.00
    6   16    5      0.15      0.00
   -6   17    5     -0.06      0.00
   -5   17    5      0.21      0.00
   -4   17    5      0.83      0.00
   -3   17    5      0.95      0.00
   -2   17    5      0.22      0.00
   -1   17    5     -0.65      0.00
    0   17    5     -0.81      0.00
    1   17    5     -0.19      0.00
    2   17    5      0.39      0.00
    3   17    5      0.14      0.00
    4   17    5     -0.56      0.00
    5   17    5     -0.76      0.00
    6   17    5     -0.34      0.00
   -5   18    5      0.18      0.00
   -4   18    5      0.54      0.00
   -3   18    5      0.81      0.00
   -2   18    5      0.72      0.00
   -1   18    5      0.17      0.00
    0   18    5     -0.47      0.00
    1   18    5     -0.76      0.00
    2   18    5     -0.60      0.00
    3   18    5     -0.24      0.00
    4   18    5      0.11      0.00
    5   18    5      0.27      0.00
   -4   19    5      0.77      0.00
   -3   19    5      0.89      0.00
   -2   19    5      0.20      0.00
   -1   19    5     -0.66      0.00
    0   19    5     -0.90      0.00
    1   19    5     -0.42      0.00
    2   19    5      0.09      0.00
    3   19    5     -0.01      0.00
    4   19    5     -0.45      0.00
   -2   20    5      0.17      0.00
   -1   20    5     -0.23      0.00
    0   20    5     -0.45      0.00
    1   20    5     -0.41      0.00
    2   20    5     -0.28      0.00
  -11    0    6     -0.05      0.00
  -10    0    6     -0.33      0.00
   -9    0    6     -0.02      0.00
   -8    0    6      0.78      0.00
   -7    0    6      1.10      0.00
   -6    0    6      0.31      0.00
   -5    0    6     -1.05      0.00
   -4    0    6     -1.44      0.00
   -3    0    6      0.68      0.00
   -2    0    6      4.67      0.00
   -1    0    6      7.02      0.00
    0    0    6      5.08      0.00
    1    0    6      0.73      0.00
    2    0    6     -1.94      0.00
    3    0    6     -1.47      0.00
    4    0    6      0.42      0.00
    5    0    6      1.61      0.00
    6    0    6      1.38      0.00
    7    0    6      0.41      0.00
    8    0    6     -0.15      0.00
    9    0    6      0.03      0.00
   10    0    6      0.32      0.00
  -11    1    6     -0.06      0.00
  -10    1    6      0.06      0.00
   -9    1    6      0.21      0.00
   -8    1    6      0.24      0.00
   -7    1    6      0.07      0.00
   -6    1    6     -0.12      0.00
   -5    1    6     -0.09      0.00
   -4    1    6      0.27      0.00
   -3    1    6      0.68      0.00
   -2    1    6      0.71      0.00
   -1    1    6      0.22      0.00
    0    1    6     -0.39      0.00
    1    1    6     -0.60      0.00
    2    1    6     -0.32      0.00
    3    1    6      0.04      0.00
    4    1    6      0.13      0.00
    5    1    6      0.03      0.00
    6    1    6     -0.04      0.00
    7    1    6      0.00      0.00
    8    1    6      0.06      0.00
    9    1    6      0.09      0.00
   10    1    6      0.09      0.00
  -11    2    6      0.05      0.00
  -10    2    6     -0.18      0.00
   -9    2    6      0.08      0.00
   -8    2    6      0.76      0.00
   -7    2    6      1.02      0.00
   -6    2    6      0.29      0.00
   -5    2    6     -0.93      0.00
   -4    2    6     -1.21      0.00
   -3    2    6      0.85      0.00
   -2    2    6      4.56      0.00
   -1    2    6      6.65      0.00
    0    2    6      4.75      0.00
    1    2    6      0.68      0.00
    2    2    6     -1.77      0.00
    3    2    6     -1.30      0.00
    4    2    6      0.47      0.00
    5    2    6      1.61      0.00
    6    2    6      1.42      0.00
    7    2    6      0.47      0.00
    8    2    6     -0.14      0.00
    9    2    6     -0.05      0.00
   10    2    6      0.19      0.00
  -11    3    6     -0.11      0.00
  -10    3    6      0.12      0.00
   -9    3    6      0.46      0.00
   -8    3    6      0.56      0.00
   -7    3    6      0.18      0.00
   -6    3    6     -0.30      0.00
   -5    3    6     -0.14      0.00
   -4    3    6      0.86      0.00
   -3    3    6      1.92      0.00
   -2    3    6      1.88      0.00
   -1    3    6      0.48      0.00
    0    3    6     -1.15      0.00
    1    3    6     -1.59      0.00
    2    3    6     -0.75      0.00
    3    3    6      0.22      0.00
    4    3    6      0.46      0.00
    5    3    6      0.12      0.00
    6    3    6     -0.16      0.00
    7    3    6     -0.16      0.00
    8    3    6     -0.02      0.00
    9    3    6      0.11      0.00
   10    3    6      0.18      0.00
  -10    4    6      0.08      0.00
   -9    4    6      0.29      0.00
   -8    4    6      0.76      0.00
   -7    4    6      0.86      0.00
   -6    4    6      0.26      0.00
   -5    4    6     -0.60      0.00
   -4    4    6     -0.68      0.00
   -3    4    6      1.04      0.00
   -2    4    6      4.00      0.00
   -1    4    6      5.57      0.00
    0    4    6      3.92      0.00
    1    4    6      0.60      0.00
    2    4    6     -1.36      0.00
    3    4    6     -0.97      0.00
    4    4    6      0.50      0.00
    5    4    6      1.49      0.00
    6    4    6      1.35      0.00
    7    4    6      0.50      0.00
    8    4    6     -0.11      0.00
    9    4    6     -0.13      0.00
   10    4    6     -0.01      0.00
  -10    5    6      0.08      0.00
   -9    5    6      0.42      0.00
   -8    5    6      0.59      0.00
   -7    5    6      0.20      0.00
   -6    5    6     -0.35      0.00
   -5    5    6     -0.07      0.00
   -4    5    6      1.34      0.00
   -3    5    6      2.74      0.00
   -2    5    6      2.52      0.00
   -1    5    6      0.45      0.00
    0    5    6     -1.75      0.00
    1    5    6     -2.19      0.00
    2    5    6     -0.89      0.00
    3    5    6      0.53      0.00
    4    5    6      0.83      0.00
    5    5    6      0.23      0.00
    6    5    6     -0.39      0.00
    7    5    6     -0.56      0.00
    8    5    6     -0.37      0.00
    9    5    6     -0.07      0.00
   10    5    6      0.15      0.00
  -10    6    6      0.13      0.00
   -9    6    6      0.41      0.00
   -8    6    6      0.76      0.00
   -7    6    6      0.72      0.00
   -6    6    6      0.26      0.00
   -5    6    6     -0.21      0.00
   -4    6    6     -0.15      0.00
   -3    6    6      0.97      0.00
   -2    6    6      2.90      0.00
   -1    6    6      3.97      0.00
    0    6    6      2.88      0.00
    1    6    6      0.58      0.00
    2    6    6     -0.86      0.00
    3    6    6     -0.67      0.00
    4    6    6      0.33      0.00
    5    6    6      1.04      0.00
    6    6    6      0.94      0.00
    7    6    6      0.39      0.00
    8    6    6      0.03      0.00
    9    6    6      0.03      0.00
   10    6    6      0.00      0.00
  -10    7    6      0.06      0.00
   -9    7    6      0.28      0.00
   -8    7    6      0.45      0.00
   -7    7    6      0.15      0.00
   -6    7    6     -0.32      0.00
   -5    7    6     -0.02      0.00
   -4    7    6      1.44      0.00
   -3    7    6      2.92      0.00
   -2    7    6      2.66      0.00
   -1    7    6      0.39      0.00
    0    7    6     -2.04      0.00
    1    7    6     -2.51      0.00
    2    7    6     -0.98      0.00
    3    7    6      0.72      0.00
    4    7    6      1.07      0.00
    5    7    6      0.22      0.00
    6    7    6     -0.69      0.00
    7    7    6     -0.92      0.00
    8    7    6     -0.60      0.00
    9    7    6     -0.20      0.00
  -10    8    6     -0.03      0.00
   -9    8    6      0.34      0.00
   -8    8    6      0.69      0.00
   -7    8    6      0.56      0.00
   -6    8    6      0.21      0.00
   -5    8    6      0.11      0.00
   -4    8    6      0.32      0.00
   -3    8    6      0.88      0.00
   -2    8    6      1.77      0.00
   -1    8    6      2.33      0.00
    0    8    6      1.81      0.00
    1    8    6      0.59      0.00
    2    8    6     -0.28      0.00
    3    8    6     -0.35      0.00
    4    8    6      0.03      0.00
    5    8    6      0.35      0.00
    6    8    6      0.40      0.00
    7    8    6      0.33      0.00
    8    8    6      0.34      0.00
    9    8    6      0.34      0.00
  -10    9    6      0.10      0.00
   -9    9    6      0.27      0.00
   -8    9    6      0.38      0.00
   -7    9    6      0.17      0.00
   -6    9    6     -0.15      0.00
   -5    9    6      0.12      0.00
   -4    9    6      1.35      0.00
   -3    9    6      2.63      0.00
   -2    9    6      2.42      0.00
   -1    9    6      0.33      0.00
    0    9    6     -2.03      0.00
    1    9    6     -2.61      0.00
    2    9    6     -1.15      0.00
    3    9    6      0.61      0.00
    4    9    6      1.00      0.00
    5    9    6      0.10      0.00
    6    9    6     -0.79      0.00
    7    9    6     -0.88      0.00
    8    9    6     -0.49      0.00
    9    9    6     -0.16      0.00
   -9   10    6      0.19      0.00
   -8   10    6      0.52      0.00
   -7   10    6      0.41      0.00
   -6   10    6      0.17      0.00
   -5   10    6      0.34      0.00
   -4   10    6      0.73      0.00
   -3   10    6      0.93      0.00
   -2   10    6      1.00      0.00
   -1   10    6      1.03      0.00
    0   10    6      0.88      0.00
    1   10    6      0.60      0.00
    2   10    6      0.34      0.00
    3   10    6      0.07      0.00
    4   10    6     -0.17      0.00
    5   10    6     -0.16      0.00
    6   10    6      0.13      0.00
    7   10    6      0.49      0.00
    8   10    6      0.67      0.00
    9   10    6      0.52      0.00
   -9   11    6      0.37      0.00
   -8   11    6      0.45      0.00
   -7   11    6      0.34      0.00
   -6   11    6      0.21      0.00
   -5   11    6      0.48      0.00
   -4   11    6      1.35      0.00
   -3   11    6      2.22      0.00
   -2   11    6      1.97      0.00
   -1   11    6      0.24      0.00
    0   11    6     -1.78      0.00
    1   11    6     -2.37      0.00
    2   11    6     -1.18      0.00
    3   11    6      0.36      0.00
    4   11    6      0.77      0.00
    5   11    6      0.09      0.00
    6   11    6     -0.53      0.00
    7   11    6     -0.50      0.00
    8   11    6     -0.22      0.00
   -9   12    6      0.13      0.00
   -8   12    6      0.41      0.00
   -7   12    6      0.38      0.00
   -6   12    6      0.27      0.00
   -5   12    6      0.54      0.00
   -4   12    6      0.94      0.00
   -3   12    6      0.90      0.00
   -2   12    6      0.49      0.00
   -1   12    6      0.17      0.00
    0   12    6      0.23      0.00
    1   12    6      0.59      0.00
    2   12    6      0.79      0.00
    3   12    6      0.41      0.00
    4   12    6     -0.20      0.00
    5   12    6     -0.33      0.00
    6   12    6      0.15      0.00
    7   12    6      0.66      0.00
    8   12    6      0.72      0.00
   -8   13    6      0.52      0.00
   -7   13    6      0.51      0.00
   -6   13    6      0.50      0.00
   -5   13    6      0.71      0.00
   -4   13    6      1.27      0.00
   -3   13    6      1.82      0.00
   -2   13    6      1.58      0.00
   -1   13    6      0.26      0.00
    0   13    6     -1.29      0.00
    1   13    6     -1.79      0.00
    2   13    6     -0.95      0.00
    3   13    6      0.23      0.00
    4   13    6      0.65      0.00
    5   13    6      0.29      0.00
    6   13    6     -0.10      0.00
    7   13    6     -0.15      0.00
   -8   14    6      0.39      0.00
   -7   14    6      0.43      0.00
   -6   14    6      0.38      0.00
   -5   14    6      0.62      0.00
   -4   14    6      0.95      0.00
   -3   14    6      0.78      0.00
   -2   14    6      0.13      0.00
   -1   14    6     -0.36      0.00
    0   14    6     -0.20      0.00
    1   14    6      0.47      0.00
    2   14    6      0.88      0.00
    3   14    6      0.48      0.00
    4   14    6     -0.26      0.00
    5   14    6     -0.39      0.00
    6   14    6      0.13      0.00
    7   14    6      0.55      0.00
   -7   15    6      0.43      0.00
   -6   15    6      0.43      0.00
   -5   15    6      0.54      0.00
   -4   15    6      0.91      0.00
   -3   15    6      1.36      0.00
   -2   15    6      1.28      0.00
   -1   15    6      0.39      0.00
    0   15    6     -0.73      0.00
    1   15    6     -1.17      0.00
    2   15    6     -0.66      0.00
    3   15    6      0.16      0.00
    4   15    6      0.58      0.00
    5   15    6      0.47      0.00
    6   15    6      0.17      0.00
   -6   16    6      0.29      0.00
   -5   16    6      0.53      0.00
   -4   16    6      0.92      0.00
   -3   16    6      0.80      0.00
   -2   16    6      0.06      0.00
   -1   16    6     -0.62      0.00
    0   16    6     -0.55      0.00
    1   16    6      0.18      0.00
    2   16    6      0.69      0.00
    3   16    6      0.34      0.00
    4   16    6     -0.35      0.00
    5   16    6     -0.48      0.00
    6   16    6     -0.05      0.00
   -6   17    6      0.11      0.00
   -5   17    6      0.23      0.00
   -4   17    6      0.53      0.00
   -3   17    6      0.88      0.00
   -2   17    6      0.86      0.00
   -1   17    6      0.30      0.00
    0   17    6     -0.41      0.00
    1   17    6     -0.73      0.00
    2   17    6     -0.50      0.00
    3   17    6     -0.02      0.00
    4   17    6      0.36      0.00
    5   17    6      0.42      0.00
   -5   18    6      0.36      0.00
   -4   18    6      0.87      0.00
   -3   18    6      0.87      0.00
   -2   18    6      0.14      0.00
   -1   18    6     -0.65      0.00
    0   18    6     -0.71      0.00
    1   18    6     -0.08      0.00
    2   18    6      0.43      0.00
    3   18    6      0.22      0.00
    4   18    6     -0.31      0.00
   -3   19    6      0.49      0.00
   -2   19    6      0.31      0.00
   -1   19    6     -0.05      0.00
    0   19    6     -0.35      0.00
    1   19    6     -0.43      0.00
    2   19    6     -0.34      0.00
    3   19    6     -0.17      0.00
   -1   20    6     -0.49      0.00
    0   20    6     -0.55      0.00
  -10    1    7     -0.26      0.00
   -9    1    7      0.06      0.00
   -8    1    7      0.74      0.00
   -7    1    7      0.90      0.00
   -6    1    7      0.06      0.00
   -5    1    7     -1.17      0.00
   -4    1    7     -1.27      0.00
   -3    1    7      0.85      0.00
   -2    1    7      4.11      0.00
   -1    1    7      5.51      0.00
    0    1    7      3.47      0.00
    1    1    7     -0.03      0.00
    2    1    7     -1.86      0.00
    3    1    7     -1.21      0.00
    4    1    7      0.44      0.00
    5    1    7      1.34      0.00
    6    1    7      0.92      0.00
    7    1    7     -0.03      0.00
    8    1    7     -0.42      0.00
    9    1    7     -0.13      0.00
   10    1    7      0.17      0.00
  -10    2    7      0.11      0.00
   -9    2    7      0.34      0.00
   -8    2    7      0.32      0.00
   -7    2    7     -0.05      0.00
   -6    2    7     -0.35      0.00
   -5    2    7     -0.11      0.00
   -4    2    7      0.61      0.00
   -3    2    7      1.21      0.00
   -2    2    7      1.06      0.00
   -1    2    7      0.15      0.00
    0    2    7     -0.77      0.00
    1    2    7     -0.93      0.00
    2    2    7     -0.35      0.00
    3    2    7      0.22      0.00
    4    2    7      0.27      0.00
    5    2    7     -0.02      0.00
    6    2    7     -0.19      0.00
    7    2    7     -0.12      0.00
    8    2    7      0.04      0.00
    9    2    7      0.12      0.00
   10    2    7      0.11      0.00
  -10    3    7      0.02      0.00
   -9    3    7      0.24      0.00
   -8    3    7      0.66      0.00
   -7    3    7      0.71      0.00
   -6    3    7      0.02      0.00
   -5    3    7     -0.91      0.00
   -4    3    7     -0.90      0.00
   -3    3    7      1.00      0.00
   -2    3    7      3.83      0.00
   -1    3    7      4.94      0.00
    0    3    7      3.04      0.00
    1    3    7     -0.03      0.00
    2    3    7     -1.58      0.00
    3    3    7     -0.96      0.00
    4    3    7      0.52      0.00
    5    3    7      1.36      0.00
    6    3    7      1.06      0.00
    7    3    7      0.20      0.00
    8    3    7     -0.29      0.00
    9    3    7     -0.19      0.00
   10    3    7     -0.01      0.00
  -10    4    7      0.12      0.00
   -9    4    7      0.41      0.00
   -8    4    7      0.42      0.00
   -7    4    7     -0.05      0.00
   -6    4    7     -0.47      0.00
   -5    4    7     -0.05      0.00
   -4    4    7      1.20      0.00
   -3    4    7      2.19      0.00
   -2    4    7      1.81      0.00
   -1    4    7      0.15      0.00
    0    4    7     -1.39      0.00
    1    4    7     -1.52      0.00
    2    4    7     -0.43      0.00
    3    4    7      0.58      0.00
    4    4    7      0.64      0.00
    5    4    7      0.08      0.00
    6    4    7     -0.37      0.00
    7    4    7     -0.42      0.00
    8    4    7     -0.21      0.00
    9    4    7      0.02      0.00
  -10    5    7      0.29      0.00
   -9    5    7      0.46      0.00
   -8    5    7      0.63      0.00
   -7    5    7      0.50      0.00
   -6    5    7      0.02      0.00
   -5    5    7     -0.51      0.00
   -4    5    7     -0.40      0.00
   -3    5    7      1.00      0.00
   -2    5    7      3.09      0.00
   -1    5    7      3.89      0.00
    0    5    7      2.39      0.00
    1    5    7      0.02      0.00
    2    5    7     -1.15      0.00
    3    5    7     -0.65      0.00
    4    5    7      0.50      0.00
    5    5    7      1.18      0.00
    6    5    7      0.98      0.00
    7    5    7      0.34      0.00
    8    5    7     -0.07      0.00
    9    5    7     -0.11      0.00
  -10    6    7      0.05      0.00
   -9    6    7      0.21      0.00
   -8    6    7      0.27      0.00
   -7    6    7     -0.05      0.00
   -6    6    7     -0.40      0.00
   -5    6    7      0.07      0.00
   -4    6    7      1.48      0.00
   -3    6    7      2.62      0.00
   -2    6    7      2.11      0.00
   -1    6    7      0.06      0.00
    0    6    7     -1.78      0.00
    1    6    7     -1.82      0.00
    2    6    7     -0.36      0.00
    3    6    7      0.95      0.00
    4    6    7      0.99      0.00
    5    6    7      0.14      0.00
    6    6    7     -0.61      0.00
    7    6    7     -0.78      0.00
    8    6    7     -0.52      0.00
    9    6    7     -0.15      0.00
  -10    7    7      0.28      0.00
   -9    7    7      0.53      0.00
   -8    7    7      0.60      0.00
   -7    7    7      0.35      0.00
   -6    7    7      0.01      0.00
   -5    7    7     -0.16      0.00
   -4    7    7      0.01      0.00
   -3    7    7      0.83      0.00
   -2    7    7      2.08      0.00
   -1    7    7      2.61      0.00
    0    7    7      1.69      0.00
    1    7    7      0.16      0.00
    2    7    7     -0.64      0.00
    3    7    7     -0.40      0.00
    4    7    7      0.24      0.00
    5    7    7      0.62      0.00
    6    7    7      0.54      0.00
    7    7    7      0.31      0.00
    8    7    7      0.23      0.00
    9    7    7      0.18      0.00
   -9    8    7      0.01      0.00
   -8    8    7      0.08      0.00
   -7    8    7     -0.05      0.00
   -6    8    7     -0.25      0.00
   -5    8    7      0.15      0.00
   -4    8    7      1.40      0.00
   -3    8    7      2.49      0.00
   -2    8    7      2.05      0.00
   -1    8    7      0.01      0.00
    0    8    7     -1.92      0.00
    1    8    7     -2.01      0.00
    2    8    7     -0.45      0.00
    3    8    7      1.00      0.00
    4    8    7      1.02      0.00
    5    8    7      0.01      0.00
    6    8    7     -0.81      0.00
    7    8    7     -0.87      0.00
    8    8    7     -0.52      0.00
    9    8    7     -0.16      0.00
   -9    9    7      0.35      0.00
   -8    9    7      0.49      0.00
   -7    9    7      0.24      0.00
   -6    9    7     -0.02      0.00
   -5    9    7      0.06      0.00
   -4    9    7      0.34      0.00
   -3    9    7      0.73      0.00
   -2    9    7      1.22      0.00
   -1    9    7      1.42      0.00
    0    9    7      1.00      0.00
    1    9    7      0.34      0.00
    2    9    7     -0.06      0.00
    3    9    7     -0.15      0.00
    4    9    7     -0.14      0.00
    5    9    7     -0.07      0.00
    6    9    7      0.10      0.00
    7    9    7      0.36      0.00
    8    9    7      0.54      0.00
   -9   10    7      0.03      0.00
   -8   10    7      0.09      0.00
   -7   10    7      0.08      0.00
   -6   10    7      0.04      0.00
   -5   10    7      0.38      0.00
   -4   10    7      1.31      0.00
   -3   10    7      2.17      0.00
   -2   10    7      1.79      0.00
   -1   10    7      0.00      0.00
    0   10    7     -1.80      0.00
    1   10    7     -2.02      0.00
    2   10    7     -0.66      0.00
    3   10    7      0.69      0.00
    4   10    7      0.73      0.00
    5   10    7     -0.13      0.00
    6   10    7     -0.70      0.00
    7   10    7     -0.57      0.00
    8   10    7     -0.23      0.00
   -9   11    7      0.15      0.00
   -8   11    7      0.35      0.00
   -7   11    7      0.21      0.00
   -6   11    7      0.06      0.00
   -5   11    7      0.27      0.00
   -4   11    7      0.59      0.00
   -3   11    7      0.69      0.00
   -2   11    7      0.61      0.00
   -1   11    7      0.48      0.00
    0   11    7      0.39      0.00
    1   11    7      0.43      0.00
    2   11    7      0.43      0.00
    3   11    7      0.09      0.00
    4   11    7     -0.38      0.00
    5   11    7     -0.45      0.00
    6   11    7      0.01      0.00
    7   11    7      0.54      0.00
    8   11    7      0.68      0.00
   -8   12    7      0.29      0.00
   -7   12    7      0.36      0.00
   -6   12    7      0.43      0.00
   -5   12    7      0.70      0.00
   -4   12    7      1.33      0.00
   -3   12    7      1.89      0.00
   -2   12    7      1.54      0.00
   -1   12    7      0.09      0.00
    0   12    7     -1.41      0.00
    1   12    7     -1.70      0.00
    2   12    7     -0.71      0.00
    3   12    7      0.34      0.00
    4   12    7      0.48      0.00
    5   12    7     -0.01      0.00
    6   12    7     -0.27      0.00
    7   12    7     -0.14      0.00
   -8   13    7      0.35      0.00
   -7   13    7      0.35      0.00
   -6   13    7      0.30      0.00
   -5   13    7      0.51      0.00
   -4   13    7      0.75      0.00
   -3   13    7      0.60      0.00
   -2   13    7      0.15      0.00
   -1   13    7     -0.19      0.00
    0   13    7     -0.07      0.00
    1   13    7      0.42      0.00
    2   13    7      0.68      0.00
    3   13    7      0.25      0.00
    4   13    7     -0.39      0.00
    5   13    7     -0.43      0.00
    6   13    7      0.13      0.00
    7   13    7      0.59      0.00
   -7   14    7      0.53      0.00
   -6   14    7      0.60      0.00
   -5   14    7      0.76      0.00
   -4   14    7      1.16      0.00
   -3   14    7      1.56      0.00
   -2   14    7      1.32      0.00
   -1   14    7      0.27      0.00
    0   14    7     -0.86      0.00
    1   14    7     -1.16      0.00
    2   14    7     -0.55      0.00
    3   14    7      0.21      0.00
    4   14    7      0.47      0.00
    5   14    7      0.30      0.00
    6   14    7      0.13      0.00
   -7   15    7      0.46      0.00
   -6   15    7      0.44      0.00
   -5   15    7      0.63      0.00
   -4   15    7      0.83      0.00
   -3   15    7      0.58      0.00
   -2   15    7     -0.08      0.00
   -1   15    7     -0.57      0.00
    0   15    7     -0.37      0.00
    1   15    7      0.34      0.00
    2   15    7      0.74      0.00
    3   15    7      0.35      0.00
    4   15    7     -0.27      0.00
    5   15    7     -0.31      0.00
    6   15    7      0.15      0.00
   -6   16    7      0.39      0.00
   -5   16    7      0.46      0.00
   -4   16    7      0.73      0.00
   -3   16    7      1.06      0.00
   -2   16    7      0.98      0.00
   -1   16    7      0.33      0.00
    0   16    7     -0.42      0.00
    1   16    7     -0.68      0.00
    2   16    7     -0.37      0.00
    3   16    7      0.13      0.00
    4   16    7      0.45      0.00
    5   16    7      0.45      0.00
   -5   17    7      0.52      0.00
   -4   17    7      0.83      0.00
   -3   17    7      0.66      0.00
   -2   17    7     -0.06      0.00
   -1   17    7     -0.64      0.00
    0   17    7     -0.48      0.00
    1   17    7      0.24      0.00
    2   17    7      0.70      0.00
    3   17    7      0.40      0.00
    4   17    7     -0.14      0.00
   -4   18    7      0.38      0.00
   -3   18    7      0.55      0.00
   -2   18    7      0.48      0.00
   -1   18    7      0.14      0.00
    0   18    7     -0.21      0.00
    1   18    7     -0.35      0.00
    2   18    7     -0.27      0.00
    3   18    7     -0.03      0.00
   -2   19    7      0.02      0.00
   -1   19    7     -0.51      0.00
    0   19    7     -0.41      0.00
    1   19    7      0.15      0.00
    2   19    7      0.53      0.00
  -10    0    8     -0.25      0.00
   -9    0    8      0.09      0.00
   -8    0    8      0.74      0.00
   -7    0    8      0.88      0.00
   -6    0    8     -0.02      0.00
   -5    0    8     -1.25      0.00
   -4    0    8     -1.27      0.00
   -3    0    8      0.79      0.00
   -2    0    8      3.54      0.00
   -1    0    8      4.31      0.00
    0    0    8      2.23      0.00
    1    0    8     -0.69      0.00
    2    0    8     -1.95      0.00
    3    0    8     -1.12      0.00
    4    0    8      0.37      0.00
    5    0    8      0.96      0.00
    6    0    8      0.32      0.00
    7    0    8     -0.58      0.00
    8    0    8     -0.72      0.00
    9    0    8     -0.24      0.00
  -10    1    8      0.07      0.00
   -9    1    8      0.16      0.00
   -8    1    8      0.10      0.00
   -7    1    8     -0.12      0.00
   -6    1    8     -0.24      0.00
   -5    1    8     -0.07      0.00
   -4    1    8      0.30      0.00
   -3    1    8      0.54      0.00
   -2    1    8      0.41      0.00
   -1    1    8     -0.01      0.00
    0    1    8     -0.39      0.00
    1    1    8     -0.40      0.00
    2    1    8     -0.10      0.00
    3    1    8      0.15      0.00
    4    1    8      0.11      0.00
    5    1    8     -0.09      0.00
    6    1    8     -0.20      0.00
    7    1    8     -0.12      0.00
    8    1    8      0.00      0.00
    9    1    8      0.05      0.00
  -10    2    8     -0.11      0.00
   -9    2    8      0.14      0.00
   -8    2    8      0.62      0.00
   -7    2    8      0.69      0.00
   -6    2    8     -0.07      0.00
   -5    2    8     -1.12      0.00
   -4    2    8     -1.08      0.00
   -3    2    8      0.87      0.00
   -2    2    8      3.43      0.00
   -1    2    8      4.10      0.00
    0    2    8      2.08      0.00
    1    2    8     -0.64      0.00
    2    2    8     -1.77      0.00
    3    2    8     -0.97      0.00
    4    2    8      0.41      0.00
    5    2    8      1.00      0.00
    6    2    8      0.47      0.00
    7    2    8     -0.34      0.00
    8    2    8     -0.56      0.00
    9    2    8     -0.24      0.00
  -10    3    8      0.12      0.00
   -9    3    8      0.32      0.00
   -8    3    8      0.21      0.00
   -7    3    8     -0.24      0.00
   -6    3    8     -0.52      0.00
   -5    3    8     -0.06      0.00
   -4    3    8      0.91      0.00
   -3    3    8      1.52      0.00
   -2    3    8      1.12      0.00
   -1    3    8     -0.07      0.00
    0    3    8     -1.05      0.00
    1    3    8     -1.01      0.00
    2    3    8     -0.17      0.00
    3    3    8      0.49      0.00
    4    3    8      0.37      0.00
    5    3    8     -0.16      0.00
    6    3    8     -0.48      0.00
    7    3    8     -0.39      0.00
    8    3    8     -0.14      0.00
    9    3    8      0.04      0.00
  -10    4    8      0.19      0.00
   -9    4    8      0.29      0.00
   -8    4    8      0.41      0.00
   -7    4    8      0.35      0.00
   -6    4    8     -0.13      0.00
   -5    4    8     -0.77      0.00
   -4    4    8     -0.65      0.00
   -3    4    8      0.93      0.00
   -2    4    8      3.01      0.00
   -1    4    8      3.49      0.00
    0    4    8      1.74      0.00
    1    4    8     -0.51      0.00
    2    4    8     -1.35      0.00
    3    4    8     -0.65      0.00
    4    4    8      0.49      0.00
    5    4    8      1.01      0.00
    6    4    8      0.69      0.00
    7    4    8      0.07      0.00
    8    4    8     -0.22      0.00
    9    4    8     -0.18      0.00
  -10    5    8      0.05      0.00
   -9    5    8      0.17      0.00
   -8    5    8      0.14      0.00
   -7    5    8     -0.21      0.00
   -6    5    8     -0.44      0.00
   -5    5    8      0.13      0.00
   -4    5    8      1.37      0.00
   -3    5    8      2.15      0.00
   -2    5    8      1.52      0.00
   -1    5    8     -0.18      0.00
    0    5    8     -1.49      0.00
    1    5    8     -1.30      0.00
    2    5    8     -0.03      0.00
    3    5    8      0.88      0.00
    4    5    8      0.70      0.00
    5    5    8     -0.09      0.00
    6    5    8     -0.63      0.00
    7    5    8     -0.68      0.00
    8    5    8     -0.42      0.00
    9    5    8     -0.12      0.00
  -10    6    8      0.39      0.00
   -9    6    8      0.46      0.00
   -8    6    8      0.35      0.00
   -7    6    8      0.12      0.00
   -6    6    8     -0.14      0.00
   -5    6    8     -0.39      0.00
   -4    6    8     -0.24      0.00
   -3    6    8      0.81      0.00
   -2    6    8      2.26      0.00
   -1    6    8      2.60      0.00
    0    6    8      1.34      0.00
    1    6    8     -0.28      0.00
    2    6    8     -0.87      0.00
    3    6    8     -0.37      0.00
    4    6    8      0.41      0.00
    5    6    8      0.77      0.00
    6    6    8      0.60      0.00
    7    6    8      0.29      0.00
    8    6    8      0.12      0.00
    9    6    8      0.03      0.00
   -9    7    8     -0.11      0.00
   -8    7    8     -0.06      0.00
   -7    7    8     -0.14      0.00
   -6    7    8     -0.22      0.00
   -5    7    8      0.28      0.00
   -4    7    8      1.45      0.00
   -3    7    8      2.27      0.00
   -2    7    8      1.63      0.00
   -1    7    8     -0.23      0.00
    0    7    8     -1.69      0.00
    1    7    8     -1.43      0.00
    2    7    8      0.06      0.00
    3    7    8      1.12      0.00
    4    7    8      0.87      0.00
    5    7    8     -0.10      0.00
    6    7    8     -0.76      0.00
    7    7    8     -0.81      0.00
    8    7    8     -0.54      0.00
    9    7    8     -0.19      0.00
   -9    8    8      0.43      0.00
   -8    8    8      0.33      0.00
   -7    8    8      0.04      0.00
   -6    8    8     -0.14      0.00
   -5    8    8     -0.14      0.00
   -4    8    8      0.04      0.00
   -3    8    8      0.62      0.00
   -2    8    8      1.42      0.00
   -1    8    8      1.62      0.00
    0    8    8      0.90      0.00
    1    8    8     -0.01      0.00
    2    8    8     -0.37      0.00
    3    8    8     -0.23      0.00
    4    8    8      0.03      0.00
    5    8    8      0.18      0.00
    6    8    8      0.23      0.00
    7    8    8      0.32      0.00
    8    8    8      0.38      0.00
   -9    9    8     -0.25      0.00
   -8    9    8     -0.16      0.00
   -7    9    8     -0.04      0.00
   -6    9    8      0.01      0.00
   -5    9    8      0.38      0.00
   -4    9    8      1.30      0.00
   -3    9    8      2.03      0.00
   -2    9    8      1.53      0.00
   -1    9    8     -0.18      0.00
    0    9    8     -1.65      0.00
    1    9    8     -1.52      0.00
    2    9    8     -0.11      0.00
    3    9    8      0.95      0.00
    4    9    8      0.69      0.00
    5    9    8     -0.24      0.00
    6    9    8     -0.76      0.00
    7    9    8     -0.64      0.00
    8    9    8     -0.34      0.00
   -9   10    8      0.21      0.00
   -8   10    8      0.23      0.00
   -7   10    8      0.00      0.00
   -6   10    8     -0.13      0.00
   -5   10    8      0.01      0.00
   -4   10    8      0.24      0.00
   -3   10    8      0.50      0.00
   -2   10    8      0.74      0.00
   -1   10    8      0.72      0.00
    0   10    8      0.43      0.00
    1   10    8      0.19      0.00
    2   10    8      0.06      0.00
    3   10    8     -0.17      0.00
    4   10    8     -0.44      0.00
    5   10    8     -0.43      0.00
    6   10    8     -0.06      0.00
    7   10    8      0.38      0.00
    8   10    8      0.51      0.00
   -8   11    8      0.00      0.00
   -7   11    8      0.19      0.00
   -6   11    8      0.32      0.00
   -5   11    8      0.58      0.00
   -4   11    8      1.22      0.00
   -3   11    8      1.78      0.00
   -2   11    8      1.39      0.00
   -1   11    8     -0.05      0.00
    0   11    8     -1.38      0.00
    1   11    8     -1.44      0.00
    2   11    8     -0.38      0.00
    3   11    8      0.48      0.00
    4   11    8      0.35      0.00
    5   11    8     -0.25      0.00
    6   11    8     -0.46      0.00
    7   11    8     -0.25      0.00
   -8   12    8      0.17      0.00
   -7   12    8      0.07      0.00
   -6   12    8      0.01      0.00
   -5   12    8      0.20      0.00
   -4   12    8      0.41      0.00
   -3   12    8      0.41      0.00
   -2   12    8      0.22      0.00
   -1   12    8     -0.01      0.00
    0   12    8     -0.02      0.00
    1   12    8      0.23      0.00
    2   12    8      0.33      0.00
    3   12    8     -0.10      0.00
    4   12    8     -0.63      0.00
    5   12    8     -0.61      0.00
    6   12    8     -0.04      0.00
    7   12    8      0.44      0.00
   -7   13    8      0.44      0.00
   -6   13    8      0.59      0.00
   -5   13    8      0.75      0.00
   -4   13    8      1.17      0.00
   -3   13    8      1.55      0.00
   -2   13    8      1.23      0.00
   -1   13    8      0.12      0.00
    0   13    8     -0.95      0.00
    1   13    8     -1.13      0.00
    2   13    8     -0.49      0.00
    3   13    8      0.13      0.00
    4   13    8      0.20      0.00
    5   13    8      0.01      0.00
    6   13    8     -0.02      0.00
   -7   14    8      0.26      0.00
   -6   14    8      0.25      0.00
   -5   14    8      0.42      0.00
   -4   14    8      0.56      0.00
   -3   14    8      0.35      0.00
   -2   14    8     -0.13      0.00
   -1   14    8     -0.47      0.00
    0   14    8     -0.30      0.00
    1   14    8      0.25      0.00
    2   14    8      0.50      0.00
    3   14    8      0.09      0.00
    4   14    8     -0.45      0.00
    5   14    8     -0.40      0.00
    6   14    8      0.09      0.00
   -6   15    8      0.56      0.00
   -5   15    8      0.65      0.00
   -4   15    8      0.89      0.00
   -3   15    8      1.16      0.00
   -2   15    8      0.98      0.00
   -1   15    8      0.24      0.00
    0   15    8     -0.52      0.00
    1   15    8     -0.72      0.00
    2   15    8     -0.39      0.00
    3   15    8      0.04      0.00
    4   15    8      0.27      0.00
    5   15    8      0.29      0.00
   -5   16    8      0.48      0.00
   -4   16    8      0.63      0.00
   -3   16    8      0.38      0.00
   -2   16    8     -0.22      0.00
   -1   16    8     -0.62      0.00
    0   16    8     -0.35      0.00
    1   16    8      0.33      0.00
    2   16    8      0.67      0.00
    3   16    8      0.33      0.00
    4   16    8     -0.14      0.00
   -4   17    8      0.49      0.00
   -3   17    8      0.66      0.00
   -2   17    8      0.57      0.00
   -1   17    8      0.19      0.00
    0   17    8     -0.20      0.00
    1   17    8     -0.35      0.00
    2   17    8     -0.25      0.00
    3   17    8      0.00      0.00
   -3   18    8      0.39      0.00
   -2   18    8     -0.15      0.00
   -1   18    8     -0.51      0.00
    0   18    8     -0.25      0.00
    1   18    8      0.37      0.00
    2   18    8      0.68      0.00
  -10    1    9     -0.17      0.00
   -9    1    9      0.10      0.00
   -8    1    9      0.66      0.00
   -7    1    9      0.82      0.00
   -6    1    9      0.02      0.00
   -5    1    9     -1.14      0.00
   -4    1    9     -1.12      0.00
   -3    1    9      0.73      0.00
   -2    1    9      2.90      0.00
   -1    1    9      3.12      0.00
    0    1    9      1.10      0.00
    1    1    9     -1.18      0.00
    2    1    9     -1.85      0.00
    3    1    9     -0.88      0.00
    4    1    9      0.37      0.00
    5    1    9      0.64      0.00
    6    1    9     -0.10      0.00
    7    1    9     -0.82      0.00
    8    1    9     -0.78      0.00
    9    1    9     -0.27      0.00
  -10    2    9      0.11      0.00
   -9    2    9      0.20      0.00
   -8    2    9      0.07      0.00
   -7    2    9     -0.27      0.00
   -6    2    9     -0.41      0.00
   -5    2    9     -0.07      0.00
   -4    2    9      0.53      0.00
   -3    2    9      0.83      0.00
   -2    2    9      0.52      0.00
   -1    2    9     -0.19      0.00
    0    2    9     -0.72      0.00
    1    2    9     -0.61      0.00
    2    2    9     -0.03      0.00
    3    2    9      0.35      0.00
    4    2    9      0.16      0.00
    5    2    9     -0.29      0.00
    6    2    9     -0.52      0.00
    7    2    9     -0.39      0.00
    8    2    9     -0.14      0.00
    9    2    9      0.00      0.00
  -10    3    9     -0.01      0.00
   -9    3    9      0.08      0.00
   -8    3    9      0.33      0.00
   -7    3    9      0.41      0.00
   -6    3    9     -0.11      0.00
   -5    3    9     -0.93      0.00
   -4    3    9     -0.84      0.00
   -3    3    9      0.81      0.00
   -2    3    9      2.72      0.00
   -1    3    9      2.85      0.00
    0    3    9      1.00      0.00
    1    3    9     -0.97      0.00
    2    3    9     -1.47      0.00
    3    3    9     -0.62      0.00
    4    3    9      0.39      0.00
    5    3    9      0.64      0.00
    6    3    9      0.15      0.00
    7    3    9     -0.38      0.00
    8    3    9     -0.43      0.00
    9    3    9     -0.20      0.00
   -9    4    9      0.14      0.00
   -8    4    9      0.05      0.00
   -7    4    9     -0.30      0.00
   -6    4    9     -0.45      0.00
   -5    4    9      0.09      0.00
   -4    4    9      1.04      0.00
   -3    4    9      1.51      0.00
   -2    4    9      0.91      0.00
   -1    4    9     -0.36      0.00
    0    4    9     -1.23      0.00
    1    4    9     -0.94      0.00
    2    4    9      0.07      0.00
    3    4    9      0.67      0.00
    4    4    9      0.35      0.00
    5    4    9     -0.36      0.00
    6    4    9     -0.72      0.00
    7    4    9     -0.63      0.00
    8    4    9     -0.34      0.00
   -9    5    9      0.17      0.00
   -8    5    9      0.07      0.00
   -7    5    9      0.02      0.00
   -6    5    9     -0.20      0.00
   -5    5    9     -0.60      0.00
   -4    5    9     -0.48      0.00
   -3    5    9      0.77      0.00
   -2    5    9      2.26      0.00
   -1    5    9      2.34      0.00
    0    5    9      0.85      0.00
    1    5    9     -0.68      0.00
    2    5    9     -1.00      0.00
    3    5    9     -0.33      0.00
    4    5    9      0.41      0.00
    5    5    9      0.63      0.00
    6    5    9      0.38      0.00
    7    5    9      0.09      0.00
    8    5    9     -0.02      0.00
   -9    6    9     -0.12      0.00
   -8    6    9     -0.09      0.00
   -7    6    9     -0.17      0.00
   -6    6    9     -0.20      0.00
   -5    6    9      0.33      0.00
   -4    6    9      1.32      0.00
   -3    6    9      1.85      0.00
   -2    6    9      1.13      0.00
   -1    6    9     -0.43      0.00
    0    6    9     -1.46      0.00
    1    6    9     -1.02      0.00
    2    6    9      0.26      0.00
    3    6    9      0.97      0.00
    4    6    9      0.54      0.00
    5    6    9     -0.29      0.00
    6    6    9     -0.72      0.00
    7    6    9     -0.69      0.00
    8    6    9     -0.47      0.00
   -9    7    9      0.29      0.00
   -8    7    9      0.06      0.00
   -7    7    9     -0.11      0.00
   -6    7    9     -0.17      0.00
   -5    7    9     -0.28      0.00
   -4    7    9     -0.18      0.00
   -3    7    9      0.58      0.00
   -2    7    9      1.56      0.00
   -1    7    9      1.63      0.00
    0    7    9      0.63      0.00
    1    7    9     -0.38      0.00
    2    7    9     -0.60      0.00
    3    7    9     -0.22      0.00
    4    7    9      0.21      0.00
    5    7    9      0.38      0.00
    6    7    9      0.34      0.00
    7    7    9      0.30      0.00
    8    7    9      0.24      0.00
   -9    8    9     -0.33      0.00
   -8    8    9     -0.19      0.00
   -7    8    9     -0.02      0.00
   -6    8    9      0.06      0.00
   -5    8    9      0.43      0.00
   -4    8    9      1.25      0.00
   -3    8    9      1.81      0.00
   -2    8    9      1.21      0.00
   -1    8    9     -0.35      0.00
    0    8    9     -1.47      0.00
    1    8    9     -1.06      0.00
    2    8    9      0.30      0.00
    3    8    9      1.06      0.00
    4    8    9      0.60      0.00
    5    8    9     -0.28      0.00
    6    8    9     -0.68      0.00
    7    8    9     -0.60      0.00
    8    8    9     -0.38      0.00
   -8    9    9      0.06      0.00
   -7    9    9     -0.13      0.00
   -6    9    9     -0.15      0.00
   -5    9    9     -0.10      0.00
   -4    9    9      0.02      0.00
   -3    9    9      0.40      0.00
   -2    9    9      0.86      0.00
   -1    9    9      0.83      0.00
    0    9    9      0.32      0.00
    1    9    9     -0.12      0.00
    2    9    9     -0.26      0.00
    3    9    9     -0.29      0.00
    4    9    9     -0.29      0.00
    5    9    9     -0.17      0.00
    6    9    9      0.09      0.00
    7    9    9      0.32      0.00
   -8   10    9     -0.13      0.00
   -7   10    9      0.16      0.00
   -6   10    9      0.28      0.00
   -5   10    9      0.47      0.00
   -4   10    9      1.06      0.00
   -3   10    9      1.58      0.00
   -2   10    9      1.17      0.00
   -1   10    9     -0.18      0.00
    0   10    9     -1.28      0.00
    1   10    9     -1.08      0.00
    2   10    9      0.03      0.00
    3   10    9      0.71      0.00
    4   10    9      0.37      0.00
    5   10    9     -0.30      0.00
    6   10    9     -0.52      0.00
    7   10    9     -0.34      0.00
   -8   11    9      0.00      0.00
   -7   11    9     -0.15      0.00
   -6   11    9     -0.16      0.00
   -5   11    9     -0.01      0.00
   -4   11    9      0.15      0.00
   -3   11    9      0.27      0.00
   -2   11    9      0.29      0.00
   -1   11    9      0.11      0.00
    0   11    9     -0.05      0.00
    1   11    9      0.00      0.00
    2   11    9     -0.02      0.00
    3   11    9     -0.38      0.00
    4   11    9     -0.74      0.00
    5   11    9     -0.61      0.00
    6   11    9     -0.10      0.00
    7   11    9      0.30      0.00
   -7   12    9      0.36      0.00
   -6   12    9      0.48      0.00
   -5   12    9      0.57      0.00
   -4   12    9      0.94      0.00
   -3   12    9      1.34      0.00
   -2   12    9      1.04      0.00
   -1   12    9     -0.01      0.00
    0   12    9     -0.96      0.00
    1   12    9     -1.00      0.00
    2   12    9     -0.34      0.00
    3   12    9      0.16      0.00
    4   12    9      0.08      0.00
    5   12    9     -0.18      0.00
    6   12    9     -0.18      0.00
   -7   13    9     -0.05      0.00
   -6   13    9     -0.06      0.00
   -5   13    9      0.11      0.00
   -4   13    9      0.25      0.00
   -3   13    9      0.18      0.00
   -2   13    9     -0.10      0.00
   -1   13    9     -0.38      0.00
    0   13    9     -0.33      0.00
    1   13    9      0.04      0.00
    2   13    9      0.15      0.00
    3   13    9     -0.28      0.00
    4   13    9     -0.72      0.00
    5   13    9     -0.58      0.00
    6   13    9     -0.07      0.00
   -6   14    9      0.54      0.00
   -5   14    9      0.58      0.00
   -4   14    9      0.80      0.00
   -3   14    9      1.05      0.00
   -2   14    9      0.83      0.00
   -1   14    9      0.09      0.00
    0   14    9     -0.61      0.00
    1   14    9     -0.77      0.00
    2   14    9     -0.47      0.00
    3   14    9     -0.14      0.00
    4   14    9      0.00      0.00
    5   14    9      0.05      0.00
   -5   15    9      0.23      0.00
   -4   15    9      0.34      0.00
   -3   15    9      0.16      0.00
   -2   15    9     -0.27      0.00
   -1   15    9     -0.57      0.00
    0   15    9     -0.36      0.00
    1   15    9      0.16      0.00
    2   15    9      0.37      0.00
    3   15    9      0.02      0.00
    4   15    9     -0.34      0.00
   -4   16    9      0.53      0.00
   -3   16    9      0.66      0.00
   -2   16    9      0.53      0.00
   -1   16    9      0.10      0.00
    0   16    9     -0.30      0.00
    1   16    9     -0.44      0.00
    2   16    9     -0.35      0.00
    3   16    9     -0.14      0.00
   -3   17    9      0.18      0.00
   -2   17    9     -0.25      0.00
   -1   17    9     -0.48      0.00
    0   17    9     -0.19      0.00
    1   17    9      0.34      0.00
    2   17    9      0.54      0.00
   -9    0   10      0.08      0.00
   -8    0   10      0.66      0.00
   -7    0   10      0.91      0.00
   -6    0   10      0.17      0.00
   -5    0   10     -0.96      0.00
   -4    0   10     -0.93      0.00
   -3    0   10      0.72      0.00
   -2    0   10      2.39      0.00
   -1    0   10      2.21      0.00
    0    0   10      0.34      0.00
    1    0   10     -1.40      0.00
    2    0   10     -1.63      0.00
    3    0   10     -0.58      0.00
    4    0   10      0.43      0.00
    5    0   10      0.43      0.00
    6    0   10     -0.36      0.00
    7    0   10     -0.91      0.00
    8    0   10     -0.72      0.00
   -9    1   10      0.09      0.00
   -8    1   10      0.02      0.00
   -7    1   10     -0.12      0.00
   -6    1   10     -0.17      0.00
   -5    1   10     -0.02      0.00
   -4    1   10      0.21      0.00
   -3    1   10      0.30      0.00
   -2    1   10      0.14      0.00
   -1    1   10     -0.16      0.00
    0    1   10     -0.37      0.00
    1    1   10     -0.28      0.00
    2    1   10      0.01      0.00
    3    1   10      0.19      0.00
    4    1   10      0.07      0.00
    5    1   10     -0.19      0.00
    6    1   10     -0.32      0.00
    7    1   10     -0.25      0.00
    8    1   10     -0.11      0.00
   -9    2   10      0.00      0.00
   -8    2   10      0.42      0.00
   -7    2   10      0.65      0.00
   -6    2   10      0.07      0.00
   -5    2   10     -0.89      0.00
   -4    2   10     -0.82      0.00
   -3    2   10      0.76      0.00
   -2    2   10      2.35      0.00
   -1    2   10      2.15      0.00
    0    2   10      0.36      0.00
    1    2   10     -1.24      0.00
    2    2   10     -1.40      0.00
    3    2   10     -0.46      0.00
    4    2   10      0.39      0.00
    5    2   10      0.36      0.00
    6    2   10     -0.28      0.00
    7    2   10     -0.70      0.00
    8    2   10     -0.54      0.00
   -9    3   10      0.12      0.00
   -8    3   10      0.03      0.00
   -7    3   10     -0.24      0.00
   -6    3   10     -0.33      0.00
   -5    3   10      0.06      0.00
   -4    3   10      0.65      0.00
   -3    3   10      0.86      0.00
   -2    3   10      0.41      0.00
   -1    3   10     -0.43      0.00
    0    3   10     -0.96      0.00
    1    3   10     -0.67      0.00
    2    3   10      0.09      0.00
    3    3   10      0.48      0.00
    4    3   10      0.14      0.00
    5    3   10     -0.45      0.00
    6    3   10     -0.71      0.00
    7    3   10     -0.57      0.00
    8    3   10     -0.29      0.00
   -9    4   10     -0.07      0.00
   -8    4   10      0.01      0.00
   -7    4   10      0.15      0.00
   -6    4   10     -0.10      0.00
   -5    4   10     -0.69      0.00
   -4    4   10     -0.58      0.00
   -3    4   10      0.76      0.00
   -2    4   10      2.13      0.00
   -1    4   10      1.93      0.00
    0    4   10      0.36      0.00
    1    4   10     -0.93      0.00
    2    4   10     -0.98      0.00
    3    4   10     -0.25      0.00
    4    4   10      0.33      0.00
    5    4   10      0.30      0.00
    6    4   10     -0.06      0.00
    7    4   10     -0.24      0.00
    8    4   10     -0.17      0.00
   -9    5   10     -0.06      0.00
   -8    5   10     -0.04      0.00
   -7    5   10     -0.15      0.00
   -6    5   10     -0.18      0.00
   -5    5   10      0.26      0.00
   -4    5   10      0.99      0.00
   -3    5   10      1.28      0.00
   -2    5   10      0.63      0.00
   -1    5   10     -0.57      0.00
    0    5   10     -1.25      0.00
    1    5   10     -0.77      0.00
    2    5   10      0.28      0.00
    3    5   10      0.71      0.00
    4    5   10      0.22      0.00
    5    5   10     -0.45      0.00
    6    5   10     -0.68      0.00
    7    5   10     -0.56      0.00
    8    5   10     -0.36      0.00
   -9    6   10      0.01      0.00
   -8    6   10     -0.16      0.00
   -7    6   10     -0.12      0.00
   -6    6   10     -0.13      0.00
   -5    6   10     -0.40      0.00
   -4    6   10     -0.34      0.00
   -3    6   10      0.61      0.00
   -2    6   10      1.63      0.00
   -1    6   10      1.49      0.00
    0    6   10      0.29      0.00
    1    6   10     -0.67      0.00
    2    6   10     -0.71      0.00
    3    6   10     -0.19      0.00
    4    6   10      0.24      0.00
    5    6   10      0.31      0.00
    6    6   10      0.19      0.00
    7    6   10      0.13      0.00
    8    6   10      0.11      0.00
   -8    7   10     -0.11      0.00
   -7    7   10      0.02      0.00
   -6    7   10      0.05      0.00
   -5    7   10      0.37      0.00
   -4    7   10      1.05      0.00
   -3    7   10      1.44      0.00
   -2    7   10      0.81      0.00
   -1    7   10     -0.52      0.00
    0    7   10     -1.31      0.00
    1    7   10     -0.74      0.00
    2    7   10      0.48      0.00
    3    7   10      0.96      0.00
    4    7   10      0.40      0.00
    5    7   10     -0.32      0.00
    6    7   10     -0.53      0.00
    7    7   10     -0.43      0.00
   -8    8   10     -0.12      0.00
   -7    8   10     -0.16      0.00
   -6    8   10     -0.08      0.00
   -5    8   10     -0.15      0.00
   -4    8   10     -0.12      0.00
   -3    8   10      0.39      0.00
   -2    8   10      0.98      0.00
   -1    8   10      0.85      0.00
    0    8   10      0.12      0.00
    1    8   10     -0.44      0.00
    2    8   10     -0.53      0.00
    3    8   10     -0.34      0.00
    4    8   10     -0.10      0.00
    5    8   10      0.11      0.00
    6    8   10      0.24      0.00
    7    8   10      0.28      0.00
   -8    9   10     -0.07      0.00
   -7    9   10      0.21      0.00
   -6    9   10      0.23      0.00
   -5    9   10      0.34      0.00
   -4    9   10      0.87      0.00
   -3    9   10      1.33      0.00
   -2    9   10      0.90      0.00
   -1    9   10     -0.33      0.00
    0    9   10     -1.19      0.00
    1    9   10     -0.75      0.00
    2    9   10      0.41      0.00
    3    9   10      0.94      0.00
    4    9   10      0.47      0.00
    5    9   10     -0.21      0.00
    6    9   10     -0.40      0.00
    7    9   10     -0.29      0.00
   -7   10   10     -0.19      0.00
   -6   10   10     -0.10      0.00
   -5   10   10     -0.02      0.00
   -4   10   10      0.04      0.00
   -3   10   10      0.24      0.00
   -2   10   10      0.37      0.00
   -1   10   10      0.17      0.00
    0   10   10     -0.13      0.00
    1   10   10     -0.24      0.00
    2   10   10     -0.31      0.00
    3   10   10     -0.52      0.00
    4   10   10     -0.59      0.00
    5   10   10     -0.34      0.00
    6   10   10      0.06      0.00
   -7   11   10      0.36      0.00
   -6   11   10      0.37      0.00
   -5   11   10      0.33      0.00
   -4   11   10      0.66      0.00
   -3   11   10      1.08      0.00
   -2   11   10      0.83      0.00
   -1   11   10     -0.14      0.00
    0   11   10     -0.94      0.00
    1   11   10     -0.79      0.00
    2   11   10      0.00      0.00
    3   11   10      0.45      0.00
    4   11   10      0.23      0.00
    5   11   10     -0.14      0.00
    6   11   10     -0.22      0.00
   -6   12   10     -0.17      0.00
   -5   12   10     -0.02      0.00
   -4   12   10      0.10      0.00
   -3   12   10      0.12      0.00
   -2   12   10     -0.06      0.00
   -1   12   10     -0.34      0.00
    0   12   10     -0.37      0.00
    1   12   10     -0.14      0.00
    2   12   10     -0.14      0.00
    3   12   10     -0.52      0.00
    4   12   10     -0.80      0.00
    5   12   10     -0.57      0.00
   -6   13   10      0.42      0.00
   -5   13   10      0.35      0.00
   -4   13   10      0.52      0.00
   -3   13   10      0.79      0.00
   -2   13   10      0.62      0.00
   -1   13   10     -0.04      0.00
    0   13   10     -0.65      0.00
    1   13   10     -0.73      0.00
    2   13   10     -0.40      0.00
    3   13   10     -0.11      0.00
    4   13   10     -0.06      0.00
    5   13   10     -0.07      0.00
   -5   14   10      0.00      0.00
   -4   14   10      0.12      0.00
   -3   14   10      0.04      0.00
   -2   14   10     -0.27      0.00
   -1   14   10     -0.54      0.00
    0   14   10     -0.43      0.00
    1   14   10     -0.07      0.00
    2   14   10      0.02      0.00
    3   14   10     -0.30      0.00
    4   14   10     -0.55      0.00
   -4   15   10      0.37      0.00
   -3   15   10      0.50      0.00
   -2   15   10      0.38      0.00
   -1   15   10     -0.01      0.00
    0   15   10     -0.38      0.00
    1   15   10     -0.52      0.00
    2   15   10     -0.46      0.00
    3   15   10     -0.29      0.00
   -3   16   10      0.05      0.00
   -2   16   10     -0.26      0.00
   -1   16   10     -0.45      0.00
    0   16   10     -0.25      0.00
    1   16   10      0.11      0.00
    2   16   10      0.21      0.00
   -9    1   11     -0.01      0.00
   -8    1   11      0.49      0.00
   -7    1   11      0.80      0.00
   -6    1   11      0.22      0.00
   -5    1   11     -0.70      0.00
   -4    1   11     -0.57      0.00
   -3    1   11      0.83      0.00
   -2    1   11      2.00      0.00
   -1    1   11      1.55      0.00
    0    1   11     -0.03      0.00
    1    1   11     -1.20      0.00
    2    1   11     -1.11      0.00
    3    1   11     -0.20      0.00
    4    1   11      0.46      0.00
    5    1   11      0.28      0.00
    6    1   11     -0.34      0.00
    7    1   11     -0.63      0.00
   -9    2   11      0.10      0.00
   -8    2   11      0.07      0.00
   -7    2   11     -0.07      0.00
   -6    2   11     -0.11      0.00
   -5    2   11      0.09      0.00
   -4    2   11      0.35      0.00
   -3    2   11      0.40      0.00
   -2    2   11      0.12      0.00
   -1    2   11     -0.34      0.00
    0    2   11     -0.63      0.00
    1    2   11     -0.43      0.00
    2    2   11      0.08      0.00
    3    2   11      0.35      0.00
    4    2   11      0.14      0.00
    5    2   11     -0.26      0.00
    6    2   11     -0.46      0.00
    7    2   11     -0.39      0.00
   -8    3   11      0.15      0.00
   -7    3   11      0.43      0.00
   -6    3   11      0.10      0.00
   -5    3   11     -0.59      0.00
   -4    3   11     -0.45      0.00
   -3    3   11      0.85      0.00
   -2    3   11      1.93      0.00
   -1    3   11      1.50      0.00
    0    3   11      0.03      0.00
    1    3   11     -0.96      0.00
    2    3   11     -0.81      0.00
    3    3   11     -0.09      0.00
    4    3   11      0.30      0.00
    5    3   11      0.06      0.00
    6    3   11     -0.35      0.00
    7    3   11     -0.43      0.00
   -8    4   11      0.05      0.00
   -7    4   11     -0.04      0.00
   -6    4   11     -0.07      0.00
   -5    4   11      0.22      0.00
   -4    4   11      0.64      0.00
   -3    4   11      0.75      0.00
   -2    4   11      0.26      0.00
   -1    4   11     -0.56      0.00
    0    4   11     -1.00      0.00
    1    4   11     -0.57      0.00
    2    4   11      0.24      0.00
    3    4   11      0.52      0.00
    4    4   11      0.10      0.00
    5    4   11     -0.40      0.00
    6    4   11     -0.55      0.00
    7    4   11     -0.43      0.00
   -8    5   11     -0.14      0.00
   -7    5   11      0.09      0.00
   -6    5   11      0.02      0.00
   -5    5   11     -0.41      0.00
   -4    5   11     -0.32      0.00
   -3    5   11      0.73      0.00
   -2    5   11      1.65      0.00
   -1    5   11      1.28      0.00
    0    5   11      0.03      0.00
    1    5   11     -0.78      0.00
    2    5   11     -0.66      0.00
    3    5   11     -0.12      0.00
    4    5   11      0.16      0.00
    5    5   11      0.03      0.00
    6    5   11     -0.16      0.00
    7    5   11     -0.13      0.00
   -8    6   11      0.00      0.00
   -7    6   11      0.05      0.00
   -6    6   11      0.03      0.00
   -5    6   11      0.25      0.00
   -4    6   11      0.74      0.00
   -3    6   11      0.97      0.00
   -2    6   11      0.43      0.00
   -1    6   11     -0.61      0.00
    0    6   11     -1.12      0.00
    1    6   11     -0.51      0.00
    2    6   11      0.49      0.00
    3    6   11      0.74      0.00
    4    6   11      0.18      0.00
    5    6   11     -0.33      0.00
    6    6   11     -0.36      0.00
    7    6   11     -0.24      0.00
   -8    7   11     -0.20      0.00
   -7    7   11     -0.05      0.00
   -6    7   11      0.04      0.00
   -5    7   11     -0.19      0.00
   -4    7   11     -0.18      0.00
   -3    7   11      0.49      0.00
   -2    7   11      1.12      0.00
   -1    7   11      0.84      0.00
    0    7   11     -0.06      0.00
    1    7   11     -0.68      0.00
    2    7   11     -0.69      0.00
    3    7   11     -0.36      0.00
    4    7   11     -0.03      0.00
    5    7   11      0.13      0.00
    6    7   11      0.14      0.00
    7    7   11      0.13      0.00
   -7    8   11      0.20      0.00
   -6    8   11      0.11      0.00
   -5    8   11      0.15      0.00
   -4    8   11      0.62      0.00
   -3    8   11      1.01      0.00
   -2    8   11      0.58      0.00
   -1    8   11     -0.50      0.00
    0    8   11     -1.12      0.00
    1    8   11     -0.50      0.00
    2    8   11      0.64      0.00
    3    8   11      1.01      0.00
    4    8   11      0.45      0.00
    5    8   11     -0.11      0.00
    6    8   11     -0.20      0.00
   -7    9   11     -0.12      0.00
   -6    9   11      0.04      0.00
   -5    9   11      0.00      0.00
   -4    9   11     -0.01      0.00
   -3    9   11      0.28      0.00
   -2    9   11      0.50      0.00
   -1    9   11      0.24      0.00
    0    9   11     -0.21      0.00
    1    9   11     -0.47      0.00
    2    9   11     -0.57      0.00
    3    9   11     -0.58      0.00
    4    9   11     -0.37      0.00
    5    9   11     -0.01      0.00
    6    9   11      0.22      0.00
   -7   10   11      0.35      0.00
   -6   10   11      0.21      0.00
   -5   10   11      0.08      0.00
   -4   10   11      0.41      0.00
   -3   10   11      0.84      0.00
   -2   10   11      0.60      0.00
   -1   10   11     -0.32      0.00
    0   10   11     -0.96      0.00
    1   10   11     -0.57      0.00
    2   10   11      0.40      0.00
    3   10   11      0.85      0.00
    4   10   11      0.51      0.00
    5   10   11      0.04      0.00
    6   10   11     -0.11      0.00
   -6   11   11     -0.07      0.00
   -5   11   11      0.04      0.00
   -4   11   11      0.09      0.00
   -3   11   11      0.14      0.00
   -2   11   11      0.00      0.00
   -1   11   11     -0.28      0.00
    0   11   11     -0.37      0.00
    1   11   11     -0.24      0.00
    2   11   11     -0.32      0.00
    3   11   11     -0.60      0.00
    4   11   11     -0.65      0.00
    5   11   11     -0.31      0.00
   -6   12   11      0.29      0.00
   -5   12   11      0.10      0.00
   -4   12   11      0.25      0.00
   -3   12   11      0.56      0.00
   -2   12   11      0.45      0.00
   -1   12   11     -0.15      0.00
    0   12   11     -0.67      0.00
    1   12   11     -0.60      0.00
    2   12   11     -0.10      0.00
    3   12   11      0.24      0.00
    4   12   11      0.19      0.00
   -5   13   11     -0.03      0.00
   -4   13   11      0.07      0.00
   -3   13   11      0.02      0.00
   -2   13   11     -0.25      0.00
   -1   13   11     -0.52      0.00
    0   13   11     -0.46      0.00
    1   13   11     -0.18      0.00
    2   13   11     -0.16      0.00
    3   13   11     -0.45      0.00
    4   13   11     -0.58      0.00
   -4   14   11      0.13      0.00
   -3   14   11      0.29      0.00
   -2   14   11      0.24      0.00
   -1   14   11     -0.07      0.00
    0   14   11     -0.39      0.00
    1   14   11     -0.49      0.00
    2   14   11     -0.38      0.00
    3   14   11     -0.22      0.00
   -3   15   11     -0.01      0.00
   -2   15   11     -0.25      0.00
   -1   15   11     -0.45      0.00
    0   15   11     -0.35      0.00
    1   15   11     -0.12      0.00
    2   15   11     -0.07      0.00
   -8    0   12      0.39      0.00
   -7    0   12      0.67      0.00
   -6    0   12      0.18      0.00
   -5    0   12     -0.51      0.00
   -4    0   12     -0.25      0.00
   -3    0   12      0.92      0.00
   -2    0   12      1.65      0.00
   -1    0   12      1.08      0.00
    0    0   12     -0.17      0.00
    1    0   12     -0.95      0.00
    2    0   12     -0.77      0.00
    3    0   12     -0.05      0.00
    4    0   12      0.41      0.00
    5    0   12      0.24      0.00
    6    0   12     -0.18      0.00
    7    0   12     -0.30      0.00
   -8    1   12      0.06      0.00
   -7    1   12      0.03      0.00
   -6    1   12      0.03      0.00
   -5    1   12      0.09      0.00
   -4    1   12      0.16      0.00
   -3    1   12      0.14      0.00
   -2    1   12      0.03      0.00
   -1    1   12     -0.17      0.00
    0    1   12     -0.30      0.00
    1    1   12     -0.21      0.00
    2    1   12      0.04      0.00
    3    1   12      0.20      0.00
    4    1   12      0.14      0.00
    5    1   12     -0.03      0.00
    6    1   12     -0.14      0.00
    7    1   12     -0.15      0.00
   -8    2   12      0.27      0.00
   -7    2   12      0.56      0.00
   -6    2   12      0.17      0.00
   -5    2   12     -0.44      0.00
   -4    2   12     -0.19      0.00
   -3    2   12      0.94      0.00
   -2    2   12      1.65      0.00
   -1    2   12      1.08      0.00
    0    2   12     -0.14      0.00
    1    2   12     -0.84      0.00
    2    2   12     -0.61      0.00
    3    2   12      0.01      0.00
    4    2   12      0.30      0.00
    5    2   12      0.05      0.00
    6    2   12     -0.30      0.00
    7    2   12     -0.31      0.00
   -8    3   12      0.13      0.00
   -7    3   12      0.09      0.00
   -6    3   12      0.09      0.00
   -5    3   12      0.24      0.00
   -4    3   12      0.41      0.00
   -3    3   12      0.40      0.00
   -2    3   12      0.09      0.00
   -1    3   12     -0.43      0.00
    0    3   12     -0.72      0.00
    1    3   12     -0.42      0.00
    2    3   12      0.18      0.00
    3    3   12      0.44      0.00
    4    3   12      0.20      0.00
    5    3   12     -0.14      0.00
    6    3   12     -0.28      0.00
   -8    4   12      0.06      0.00
   -7    4   12      0.35      0.00
   -6    4   12      0.18      0.00
   -5    4   12     -0.29      0.00
   -4    4   12     -0.11      0.00
   -3    4   12      0.89      0.00
   -2    4   12      1.56      0.00
   -1    4   12      1.02      0.00
    0    4   12     -0.11      0.00
    1    4   12     -0.71      0.00
    2    4   12     -0.49      0.00
    3    4   12     -0.01      0.00
    4    4   12      0.10      0.00
    5    4   12     -0.18      0.00
    6    4   12     -0.39      0.00
   -7    5   12      0.13      0.00
   -6    5   12      0.09      0.00
   -5    5   12      0.22      0.00
   -4    5   12      0.50      0.00
   -3    5   12      0.59      0.00
   -2    5   12      0.18      0.00
   -1    5   12     -0.56      0.00
    0    5   12     -0.89      0.00
    1    5   12     -0.35      0.00
    2    5   12      0.44      0.00
    3    5   12      0.57      0.00
    4    5   12      0.11      0.00
    5    5   12     -0.21      0.00
    6    5   12     -0.18      0.00
   -7    6   12      0.18      0.00
   -6    6   12      0.18      0.00
   -5    6   12     -0.15      0.00
   -4    6   12     -0.08      0.00
   -3    6   12      0.68      0.00
   -2    6   12      1.22      0.00
   -1    6   12      0.79      0.00
    0    6   12     -0.17      0.00
    1    6   12     -0.74      0.00
    2    6   12     -0.68      0.00
    3    6   12     -0.31      0.00
    4    6   12     -0.06      0.00
    5    6   12     -0.07      0.00
    6    6   12     -0.15      0.00
   -7    7   12      0.16      0.00
   -6    7   12      0.01      0.00
   -5    7   12      0.03      0.00
   -4    7   12      0.39      0.00
   -3    7   12      0.68      0.00
   -2    7   12      0.31      0.00
   -1    7   12     -0.59      0.00
    0    7   12     -0.99      0.00
    1    7   12     -0.29      0.00
    2    7   12      0.71      0.00
    3    7   12      0.89      0.00
    4    7   12      0.31      0.00
    5    7   12     -0.08      0.00
    6    7   12     -0.02      0.00
   -7    8   12      0.03      0.00
   -6    8   12      0.15      0.00
   -5    8   12     -0.01      0.00
   -4    8   12     -0.01      0.00
   -3    8   12      0.41      0.00
   -2    8   12      0.68      0.00
   -1    8   12      0.35      0.00
    0    8   12     -0.23      0.00
    1    8   12     -0.63      0.00
    2    8   12     -0.76      0.00
    3    8   12     -0.61      0.00
    4    8   12     -0.23      0.00
    5    8   12      0.09      0.00
   -6    9   12      0.00      0.00
   -5    9   12     -0.13      0.00
   -4    9   12      0.21      0.00
   -3    9   12      0.63      0.00
   -2    9   12      0.38      0.00
   -1    9   12     -0.50      0.00
    0    9   12     -1.00      0.00
    1    9   12     -0.38      0.00
    2    9   12      0.70      0.00
    3    9   12      1.08      0.00
    4    9   12      0.62      0.00
    5    9   12      0.14      0.00
   -6   10   12      0.06      0.00
   -5   10   12      0.08      0.00
   -4   10   12      0.10      0.00
   -3   10   12      0.20      0.00
   -2   10   12      0.13      0.00
   -1   10   12     -0.14      0.00
    0   10   12     -0.29      0.00
    1   10   12     -0.31      0.00
    2   10   12     -0.47      0.00
    3   10   12     -0.62      0.00
    4   10   12     -0.42      0.00
   -5   11   12     -0.11      0.00
   -4   11   12      0.07      0.00
   -3   11   12      0.42      0.00
   -2   11   12      0.32      0.00
   -1   11   12     -0.30      0.00
    0   11   12     -0.76      0.00
    1   11   12     -0.45      0.00
    2   11   12      0.31      0.00
    3   11   12      0.71      0.00
    4   11   12      0.52      0.00
   -4   12   12      0.11      0.00
   -3   12   12      0.05      0.00
   -2   12   12     -0.22      0.00
   -1   12   12     -0.46      0.00
    0   12   12     -0.36      0.00
    1   12   12     -0.12      0.00
    2   12   12     -0.19      0.00
    3   12   12     -0.44      0.00
   -3   13   12      0.17      0.00
   -2   13   12      0.17      0.00
   -1   13   12     -0.10      0.00
    0   13   12     -0.38      0.00
    1   13   12     -0.37      0.00
    2   13   12     -0.11      0.00
   -2   14   12     -0.26      0.00
   -1   14   12     -0.44      0.00
    0   14   12     -0.36      0.00
    1   14   12     -0.16      0.00
   -7    1   13      0.38      0.00
   -6    1   13      0.03      0.00
   -5    1   13     -0.35      0.00
   -4    1   13      0.02      0.00
   -3    1   13      0.89      0.00
   -2    1   13      1.24      0.00
   -1    1   13      0.66      0.00
    0    1   13     -0.25      0.00
    1    1   13     -0.74      0.00
    2    1   13     -0.58      0.00
    3    1   13     -0.11      0.00
    4    1   13      0.16      0.00
    5    1   13      0.08      0.00
    6    1   13     -0.07      0.00
   -7    2   13      0.11      0.00
   -6    2   13      0.14      0.00
   -5    2   13      0.21      0.00
   -4    2   13      0.24      0.00
   -3    2   13      0.20      0.00
   -2    2   13      0.02      0.00
   -1    2   13     -0.28      0.00
    0    2   13     -0.48      0.00
    1    2   13     -0.32      0.00
    2    2   13      0.08      0.00
    3    2   13      0.33      0.00
    4    2   13      0.28      0.00
    5    2   13      0.11      0.00
    6    2   13     -0.02      0.00
   -7    3   13      0.39      0.00
   -6    3   13      0.16      0.00
   -5    3   13     -0.18      0.00
   -4    3   13      0.11      0.00
   -3    3   13      0.92      0.00
   -2    3   13      1.26      0.00
   -1    3   13      0.67      0.00
    0    3   13     -0.23      0.00
    1    3   13     -0.64      0.00
    2    3   13     -0.41      0.00
    3    3   13     -0.01      0.00
    4    3   13      0.06      0.00
    5    3   13     -0.18      0.00
   -7    4   13      0.17      0.00
   -6    4   13      0.18      0.00
   -5    4   13      0.25      0.00
   -4    4   13      0.35      0.00
   -3    4   13      0.35      0.00
   -2    4   13      0.07      0.00
   -1    4   13     -0.44      0.00
    0    4   13     -0.68      0.00
    1    4   13     -0.29      0.00
    2    4   13      0.31      0.00
    3    4   13      0.46      0.00
    4    4   13      0.20      0.00
    5    4   13      0.02      0.00
   -6    5   13      0.27      0.00
   -5    5   13     -0.04      0.00
   -4    5   13      0.12      0.00
   -3    5   13      0.81      0.00
   -2    5   13      1.15      0.00
   -1    5   13      0.63      0.00
    0    5   13     -0.23      0.00
    1    5   13     -0.67      0.00
    2    5   13     -0.53      0.00
    3    5   13     -0.18      0.00
    4    5   13     -0.06      0.00
    5    5   13     -0.22      0.00
   -6    6   13      0.05      0.00
   -5    6   13      0.05      0.00
   -4    6   13      0.27      0.00
   -3    6   13      0.44      0.00
   -2    6   13      0.14      0.00
   -1    6   13     -0.53      0.00
    0    6   13     -0.78      0.00
    1    6   13     -0.14      0.00
    2    6   13      0.65      0.00
    3    6   13      0.67      0.00
    4    6   13      0.17      0.00
    5    6   13     -0.05      0.00
   -6    7   13      0.23      0.00
   -5    7   13      0.00      0.00
   -4    7   13      0.07      0.00
   -3    7   13      0.55      0.00
   -2    7   13      0.81      0.00
   -1    7   13      0.44      0.00
    0    7   13     -0.21      0.00
    1    7   13     -0.68      0.00
    2    7   13     -0.78      0.00
    3    7   13     -0.54      0.00
    4    7   13     -0.17      0.00
    5    7   13      0.00      0.00
   -5    8   13     -0.20      0.00
   -4    8   13      0.11      0.00
   -3    8   13      0.46      0.00
   -2    8   13      0.20      0.00
   -1    8   13     -0.59      0.00
    0    8   13     -0.93      0.00
    1    8   13     -0.20      0.00
    2    8   13      0.82      0.00
    3    8   13      1.01      0.00
    4    8   13      0.48      0.00
   -5    9   13      0.04      0.00
   -4    9   13      0.09      0.00
   -3    9   13      0.29      0.00
   -2    9   13      0.30      0.00
   -1    9   13      0.07      0.00
    0    9   13     -0.16      0.00
    1    9   13     -0.37      0.00
    2    9   13     -0.61      0.00
    3    9   13     -0.62      0.00
    4    9   13     -0.25      0.00
   -4   10   13      0.00      0.00
   -3   10   13      0.36      0.00
   -2   10   13      0.21      0.00
   -1   10   13     -0.47      0.00
    0   10   13     -0.85      0.00
    1   10   13     -0.32      0.00
    2   10   13      0.61      0.00
    3   10   13      0.97      0.00
   -4   11   13      0.13      0.00
   -3   11   13      0.09      0.00
   -2   11   13     -0.12      0.00
   -1   11   13     -0.29      0.00
    0   11   13     -0.16      0.00
    1   11   13     -0.02      0.00
    2   11   13     -0.20      0.00
   -2   12   13      0.14      0.00
   -1   12   13     -0.19      0.00
    0   12   13     -0.45      0.00
    1   12   13     -0.26      0.00
   -6    0   14     -0.15      0.00
   -5    0   14     -0.26      0.00
   -4    0   14      0.14      0.00
   -3    0   14      0.69      0.00
   -2    0   14      0.75      0.00
   -1    0   14      0.26      0.00
    0    0   14     -0.37      0.00
    1    0   14     -0.73      0.00
    2    0   14     -0.67      0.00
    3    0   14     -0.35      0.00
    4    0   14     -0.07      0.00
   -6    1   14      0.06      0.00
   -5    1   14      0.09      0.00
   -4    1   14      0.08      0.00
   -3    1   14      0.06      0.00
   -2    1   14     -0.01      0.00
   -1    1   14     -0.15      0.00
    0    1   14     -0.26      0.00
    1    1   14     -0.20      0.00
    2    1   14     -0.02      0.00
    3    1   14      0.13      0.00
    4    1   14      0.17      0.00
   -6    2   14     -0.02      0.00
   -5    2   14     -0.15      0.00
   -4    2   14      0.20      0.00
   -3    2   14      0.73      0.00
   -2    2   14      0.78      0.00
   -1    2   14      0.26      0.00
    0    2   14     -0.37      0.00
    1    2   14     -0.66      0.00
    2    2   14     -0.52      0.00
    3    2   14     -0.20      0.00
    4    2   14     -0.04      0.00
   -6    3   14      0.16      0.00
   -5    3   14      0.20      0.00
   -4    3   14      0.20      0.00
   -3    3   14      0.17      0.00
   -2    3   14     -0.01      0.00
   -1    3   14     -0.36      0.00
    0    3   14     -0.56      0.00
    1    3   14     -0.32      0.00
    2    3   14      0.10      0.00
    3    3   14      0.30      0.00
    4    3   14      0.26      0.00
   -5    4   14      0.03      0.00
   -4    4   14      0.26      0.00
   -3    4   14      0.73      0.00
   -2    4   14      0.82      0.00
   -1    4   14      0.31      0.00
    0    4   14     -0.34      0.00
    1    4   14     -0.61      0.00
    2    4   14     -0.42      0.00
    3    4   14     -0.10      0.00
    4    4   14     -0.02      0.00
   -5    5   14      0.13      0.00
   -4    5   14      0.21      0.00
   -3    5   14      0.27      0.00
   -2    5   14      0.04      0.00
   -1    5   14     -0.45      0.00
    0    5   14     -0.61      0.00
    1    5   14     -0.11      0.00
    2    5   14      0.45      0.00
    3    5   14      0.43      0.00
    4    5   14      0.11      0.00
   -5    6   14      0.06      0.00
   -4    6   14      0.18      0.00
   -3    6   14      0.59      0.00
   -2    6   14      0.74      0.00
   -1    6   14      0.36      0.00
    0    6   14     -0.22      0.00
    1    6   14     -0.62      0.00
    2    6   14     -0.63      0.00
    3    6   14     -0.33      0.00
   -4    7   14      0.11      0.00
   -3    7   14      0.34      0.00
   -2    7   14      0.11      0.00
   -1    7   14     -0.54      0.00
    0    7   14     -0.73      0.00
    1    7   14     -0.04      0.00
    2    7   14      0.75      0.00
    3    7   14      0.72      0.00
   -4    8   14      0.09      0.00
   -3    8   14      0.35      0.00
   -2    8   14      0.43      0.00
   -1    8   14      0.24      0.00
    0    8   14     -0.05      0.00
    1    8   14     -0.39      0.00
    2    8   14     -0.64      0.00
   -3    9   14      0.34      0.00
   -2    9   14      0.15      0.00
   -1    9   14     -0.53      0.00
    0    9   14     -0.82      0.00
    1    9   14     -0.17      0.00
    2    9   14      0.72      0.00
   -2   10   14      0.02      0.00
   -1   10   14     -0.05      0.00
    0   10   14      0.05      0.00
    1   10   14      0.02      0.00
   -4    1   15      0.23      0.00
   -3    1   15      0.47      0.00
   -2    1   15      0.34      0.00
   -1    1   15     -0.04      0.00
    0    1   15     -0.44      0.00
    1    1   15     -0.68      0.00
    2    1   15     -0.64      0.00
    3    1   15     -0.39      0.00
   -4    2   15      0.05      0.00
   -3    2   15      0.02      0.00
   -2    2   15     -0.08      0.00
   -1    2   15     -0.30      0.00
    0    2   15     -0.44      0.00
    1    2   15     -0.33      0.00
    2    2   15     -0.08      0.00
    3    2   15      0.10      0.00
   -4    3   15      0.27      0.00
   -3    3   15      0.48      0.00
   -2    3   15      0.37      0.00
   -1    3   15     -0.03      0.00
    0    3   15     -0.44      0.00
    1    3   15     -0.59      0.00
    2    3   15     -0.42      0.00
    3    3   15     -0.13      0.00
   -4    4   15      0.10      0.00
   -3    4   15      0.09      0.00
   -2    4   15     -0.07      0.00
   -1    4   15     -0.41      0.00
    0    4   15     -0.53      0.00
    1    4   15     -0.21      0.00
    2    4   15      0.16      0.00
   -3    5   15      0.44      0.00
   -2    5   15      0.42      0.00
   -1    5   15      0.11      0.00
    0    5   15     -0.30      0.00
    1    5   15     -0.53      0.00
    2    5   15     -0.42      0.00
   -3    6   15      0.21      0.00
   -2    6   15      0.02      0.00
   -1    6   15     -0.44      0.00
    0    6   15     -0.53      0.00
    1    6   15      0.02      0.00
   -2    7   15      0.37      0.00
   -1    7   15      0.23      0.00
    0    7   15     -0.04      0.00
   -1    0   16     -0.13      0.00
   -1    1   16     -0.16      0.00
   11    8    0      0.06      0.00
   11    9    0     -0.20      0.00
   10   12    0     -0.01      0.00
   10   13    0     -0.14      0.00
    9   14    0     -0.07      0.00
    9   15    0     -0.17      0.00
    8   16    0      0.12      0.00
    8   17    0     -0.02      0.00
    7   18    0      0.28      0.00
    6   19    0      0.12      0.00
    5   20    0      0.00      0.00
    3   21    0      0.00      0.00
    4   21    0     -0.20      0.00
  -11    8    1      0.04      0.00
   11    8    1     -0.35      0.00
  -11    9    1     -0.05      0.00
   11    9    1      0.09      0.00
  -11   10    1      0.04      0.00
  -10   12    1      0.23      0.00
   10   12    1     -0.22      0.00
  -10   13    1      0.00      0.00
   -9   14    1      0.27      0.00
    9   14    1     -0.26      0.00
   -9   15    1     -0.05      0.00
    9   15    1     -0.10      0.00
   -8   16    1      0.03      0.00
    8   16    1     -0.11      0.00
   -8   17    1      0.16      0.00
    8   17    1      0.08      0.00
   -7   18    1     -0.17      0.00
    7   18    1      0.16      0.00
   -6   19    1     -0.02      0.00
    6   19    1      0.03      0.00
   -5   20    1      0.30      0.00
    5   20    1     -0.10      0.00
   -4   21    1      0.23      0.00
   -3   21    1      0.36      0.00
    3   21    1      0.29      0.00
    4   21    1      0.09      0.00
   11    7    2     -0.34      0.00
  -11    8    2     -0.16      0.00
   11    8    2      0.08      0.00
  -11    9    2     -0.07      0.00
   11    9    2     -0.34      0.00
   10   11    2     -0.34      0.00
  -10   12    2     -0.04      0.00
   10   12    2      0.00      0.00
  -10   13    2      0.18      0.00
   -9   14    2     -0.04      0.00
    9   14    2     -0.09      0.00
   -9   15    2      0.16      0.00
   -8   16    2      0.08      0.00
    8   16    2     -0.04      0.00
   -8   17    2     -0.03      0.00
   -7   18    2      0.08      0.00
    7   18    2      0.06      0.00
   -6   19    2     -0.02      0.00
    6   19    2      0.19      0.00
   -5   20    2     -0.08      0.00
    5   20    2     -0.25      0.00
   -4   21    2      0.45      0.00
   -3   21    2      0.37      0.00
    3   21    2      0.18      0.00
    4   21    2     -0.05      0.00
   11    6    3     -0.13      0.00
   11    7    3      0.03      0.00
  -11    8    3     -0.13      0.00
   11    8    3     -0.31      0.00
  -11    9    3     -0.25      0.00
   10   11    3      0.07      0.00
  -10   12    3      0.22      0.00
    9   13    3      0.04      0.00
   -9   14    3      0.29      0.00
    9   14    3     -0.19      0.00
   -9   15    3     -0.03      0.00
   -8   16    3      0.03      0.00
    8   16    3     -0.17      0.00
    7   17    3     -0.10      0.00
   -7   18    3     -0.14      0.00
    6   18    3      0.19      0.00
   -6   19    3     -0.28      0.00
    6   19    3     -0.28      0.00
   -5   20    3      0.37      0.00
    4   20    3     -0.09      0.00
    5   20    3      0.03      0.00
   -4   21    3      0.31      0.00
   -3   21    3      0.37      0.00
    2   21    3     -0.01      0.00
    3   21    3     -0.02      0.00
   11    4    4      0.12      0.00
   11    5    4      0.11      0.00
   11    6    4     -0.03      0.00
  -11    7    4     -0.08      0.00
   11    7    4     -0.11      0.00
  -11    8    4     -0.28      0.00
  -11    9    4     -0.08      0.00
   10   10    4      0.16      0.00
  -10   11    4      0.23      0.00
   10   11    4     -0.20      0.00
  -10   12    4     -0.06      0.00
    9   13    4     -0.24      0.00
   -9   14    4      0.05      0.00
    8   15    4     -0.25      0.00
   -8   16    4      0.09      0.00
   -7   17    4     -0.05      0.00
    7   17    4     -0.07      0.00
   -7   18    4     -0.07      0.00
    6   18    4     -0.45      0.00
   -6   19    4     -0.05      0.00
    5   19    4      0.13      0.00
   -5   20    4      0.03      0.00
   -4   20    4      0.55      0.00
    4   20    4     -0.42      0.00
   -3   21    4      0.39      0.00
   -2   21    4      0.09      0.00
   -1   21    4     -0.24      0.00
    1   21    4     -0.20      0.00
    2   21    4     -0.02      0.00
    3   21    4     -0.04      0.00
   11    1    5      0.36      0.00
   11    2    5      0.19      0.00
   11    3    5      0.13      0.00
   11    4    5      0.22      0.00
   11    5    5     -0.07      0.00
  -11    6    5     -0.02      0.00
  -11    7    5     -0.13      0.00
  -11    8    5      0.00      0.00
   10    9    5      0.21      0.00
  -10   10    5      0.19      0.00
   10   10    5     -0.15      0.00
  -10   11    5     -0.16      0.00
    9   12    5     -0.19      0.00
   -9   13    5      0.11      0.00
    9   13    5      0.29      0.00
   -9   14    5      0.38      0.00
    8   14    5     -0.21      0.00
   -8   15    5      0.25      0.00
    8   15    5      0.24      0.00
   -8   16    5      0.20      0.00
    7   16    5     -0.11      0.00
   -7   17    5      0.09      0.00
   -6   18    5     -0.05      0.00
    6   18    5      0.17      0.00
   -5   19    5      0.16      0.00
    5   19    5     -0.54      0.00
   -4   20    5      0.50      0.00
   -3   20    5      0.47      0.00
    3   20    5     -0.19      0.00
    4   20    5     -0.05      0.00
   -3   21    5      0.50      0.00
   -2   21    5      0.04      0.00
   -1   21    5     -0.44      0.00
    0   21    5     -0.53      0.00
    1   21    5     -0.23      0.00
    2   21    5      0.05      0.00
   11    0    6      0.27      0.00
   11    1    6      0.07      0.00
   11    2    6      0.15      0.00
  -11    4    6      0.17      0.00
  -11    5    6     -0.03      0.00
  -11    6    6      0.09      0.00
  -11    7    6      0.05      0.00
   10    7    6      0.05      0.00
   10    8    6      0.15      0.00
   10    9    6     -0.03      0.00
  -10   10    6     -0.14      0.00
  -10   11    6      0.16      0.00
    9   11    6     -0.10      0.00
    9   12    6      0.42      0.00
   -9   13    6      0.41      0.00
    8   13    6     -0.09      0.00
    8   14    6      0.47      0.00
   -8   15    6      0.40      0.00
    7   15    6     -0.04      0.00
   -7   16    6      0.35      0.00
    7   16    6      0.25      0.00
   -7   17    6      0.12      0.00
    6   17    6      0.21      0.00
   -6   18    6      0.05      0.00
    5   18    6     -0.42      0.00
   -5   19    6      0.14      0.00
   -4   19    6      0.40      0.00
    4   19    6      0.08      0.00
   -4   20    6      0.66      0.00
   -3   20    6      0.66      0.00
   -2   20    6      0.10      0.00
    1   20    6     -0.12      0.00
    2   20    6      0.24      0.00
    3   20    6      0.15      0.00
   -1   21    6     -0.26      0.00
    0   21    6     -0.28      0.00
    1   21    6     -0.18      0.00
  -11    1    7     -0.05      0.00
  -11    2    7     -0.10      0.00
  -11    3    7      0.10      0.00
  -11    4    7     -0.07      0.00
   10    4    7      0.14      0.00
  -11    5    7      0.20      0.00
   10    5    7     -0.10      0.00
   10    6    7      0.11      0.00
   10    7    7      0.02      0.00
  -10    8    7     -0.01      0.00
  -10    9    7      0.06      0.00
    9    9    7      0.42      0.00
  -10   10    7      0.01      0.00
    9   10    7     -0.07      0.00
    9   11    7      0.40      0.00
   -9   12    7      0.19      0.00
    8   12    7     -0.02      0.00
    8   13    7      0.53      0.00
   -8   14    7      0.42      0.00
    7   14    7      0.06      0.00
    7   15    7      0.41      0.00
   -7   16    7      0.36      0.00
    6   16    7      0.25      0.00
   -6   17    7      0.29      0.00
    5   17    7     -0.23      0.00
   -5   18    7      0.17      0.00
    4   18    7      0.24      0.00
    5   18    7      0.34      0.00
   -4   19    7      0.67      0.00
   -3   19    7      0.60      0.00
    3   19    7      0.35      0.00
   -2   20    7      0.06      0.00
   -1   20    7     -0.08      0.00
    0   20    7     -0.12      0.00
    1   20    7     -0.12      0.00
    2   20    7     -0.14      0.00
  -11    0    8     -0.11      0.00
   10    0    8      0.12      0.00
  -11    1    8     -0.04      0.00
   10    1    8      0.03      0.00
  -11    2    8     -0.03      0.00
   10    2    8      0.03      0.00
  -11    3    8     -0.06      0.00
   10    3    8      0.06      0.00
   10    4    8     -0.10      0.00
  -10    7    8     -0.08      0.00
  -10    8    8      0.29      0.00
    9    8    8      0.24      0.00
  -10    9    8     -0.13      0.00
    9    9    8     -0.11      0.00
   -9   11    8     -0.12      0.00
    8   11    8     -0.07      0.00
    8   12    8      0.43      0.00
   -8   13    8      0.23      0.00
    7   13    8      0.06      0.00
   -8   14    8      0.26      0.00
    7   14    8      0.37      0.00
   -7   15    8      0.46      0.00
    6   15    8      0.22      0.00
   -6   16    8      0.33      0.00
    5   16    8     -0.16      0.00
   -6   17    8      0.26      0.00
   -5   17    8      0.33      0.00
    4   17    8      0.25      0.00
    5   17    8      0.33      0.00
   -4   18    8      0.55      0.00
    3   18    8      0.42      0.00
    4   18    8      0.05      0.00
   -3   19    8      0.25      0.00
   -2   19    8      0.17      0.00
   -1   19    8      0.06      0.00
    0   19    8     -0.01      0.00
    1   19    8     -0.07      0.00
    2   19    8     -0.12      0.00
  -10    4    9      0.06      0.00
    9    4    9     -0.10      0.00
  -10    5    9      0.23      0.00
    9    5    9     -0.06      0.00
  -10    6    9     -0.09      0.00
    9    6    9     -0.19      0.00
  -10    7    9      0.33      0.00
    9    7    9      0.09      0.00
   -9    9    9      0.21      0.00
    8    9    9      0.34      0.00
   -9   10    9     -0.31      0.00
    8   10    9     -0.18      0.00
   -8   12    9      0.05      0.00
    7   12    9     -0.06      0.00
   -8   13    9      0.04      0.00
    7   13    9      0.23      0.00
   -7   14    9      0.41      0.00
    6   14    9      0.09      0.00
   -6   15    9      0.11      0.00
    5   15    9     -0.27      0.00
   -6   16    9      0.37      0.00
   -5   16    9      0.41      0.00
    4   16    9      0.08      0.00
    5   16    9      0.19      0.00
   -5   17    9      0.24      0.00
   -4   17    9      0.36      0.00
    3   17    9      0.28      0.00
    4   17    9     -0.02      0.00
   -3   18    9      0.28      0.00
   -2   18    9      0.20      0.00
   -1   18    9      0.07      0.00
    0   18    9     -0.03      0.00
    1   18    9     -0.12      0.00
    2   18    9     -0.17      0.00
   -1   19    9     -0.28      0.00
    0   19    9     -0.03      0.00
  -10    0   10     -0.16      0.00
    9    0   10     -0.20      0.00
  -10    1   10      0.06      0.00
    9    1   10     -0.03      0.00
  -10    2   10     -0.12      0.00
    9    2   10     -0.16      0.00
  -10    3   10      0.07      0.00
    9    3   10     -0.11      0.00
  -10    4   10      0.01      0.00
    9    4   10     -0.07      0.00
   -9    7   10     -0.27      0.00
    8    7   10     -0.30      0.00
   -9    8   10      0.09      0.00
    8    8   10      0.20      0.00
   -9    9   10     -0.30      0.00
   -8   10   10     -0.12      0.00
    7   10   10      0.26      0.00
   -8   11   10      0.05      0.00
    7   11   10     -0.14      0.00
   -7   12   10     -0.22      0.00
    6   12   10     -0.09      0.00
   -7   13   10      0.37      0.00
    6   13   10     -0.03      0.00
   -6   14   10     -0.13      0.00
    5   14   10     -0.39      0.00
   -6   15   10      0.32      0.00
   -5   15   10      0.29      0.00
    4   15   10     -0.11      0.00
    5   15   10      0.02      0.00
   -5   16   10      0.07      0.00
   -4   16   10      0.16      0.00
    3   16   10      0.00      0.00
    4   16   10     -0.18      0.00
   -3   17   10      0.24      0.00
   -2   17   10      0.15      0.00
   -1   17   10     -0.01      0.00
    0   17   10     -0.13      0.00
    1   17   10     -0.22      0.00
    2   17   10     -0.27      0.00
   -1   18   10     -0.23      0.00
    0   18   10     -0.02      0.00
    8    1   11     -0.40      0.00
    8    2   11     -0.21      0.00
   -9    3   11     -0.13      0.00
    8    3   11     -0.21      0.00
   -9    4   11      0.01      0.00
    8    4   11     -0.28      0.00
   -9    5   11     -0.16      0.00
    8    5   11     -0.01      0.00
   -9    6   11     -0.14      0.00
    8    6   11     -0.19      0.00
   -8    8   11      0.04      0.00
    7    8   11     -0.11      0.00
   -8    9   11     -0.19      0.00
    7    9   11      0.23      0.00
   -8   10   11      0.14      0.00
   -7   11   11     -0.20      0.00
    6   11   11      0.06      0.00
   -7   12   11      0.39      0.00
    5   12   11      0.02      0.00
   -6   13   11     -0.15      0.00
    5   13   11     -0.35      0.00
   -5   14   11      0.09      0.00
    4   14   11     -0.10      0.00
   -4   15   11      0.04      0.00
    3   15   11     -0.23      0.00
   -3   16   11      0.11      0.00
   -2   16   11      0.07      0.00
   -1   16   11     -0.05      0.00
    0   16   11     -0.16      0.00
    1   16   11     -0.26      0.00
    2   16   11     -0.31      0.00
   -1   17   11     -0.20      0.00
    0   17   11     -0.10      0.00
   -9    0   12     -0.05      0.00
   -9    1   12      0.05      0.00
   -9    2   12     -0.09      0.00
    7    3   12     -0.27      0.00
    7    4   12     -0.26      0.00
   -8    5   12      0.11      0.00
    7    5   12     -0.10      0.00
   -8    6   12     -0.08      0.00
    7    6   12     -0.09      0.00
   -8    7   12      0.12      0.00
    7    7   12      0.06      0.00
    6    8   12      0.16      0.00
   -7    9   12      0.25      0.00
    6    9   12      0.04      0.00
   -7   10   12     -0.10      0.00
    5   10   12     -0.02      0.00
   -6   11   12      0.11      0.00
    5   11   12      0.19      0.00
   -6   12   12     -0.03      0.00
   -5   12   12      0.07      0.00
    4   12   12     -0.43      0.00
   -5   13   12     -0.06      0.00
   -4   13   12     -0.02      0.00
    3   13   12      0.11      0.00
    4   13   12      0.13      0.00
   -4   14   12      0.04      0.00
   -3   14   12     -0.02      0.00
    2   14   12     -0.16      0.00
    3   14   12     -0.27      0.00
   -3   15   12      0.00      0.00
   -2   15   12      0.03      0.00
   -1   15   12     -0.02      0.00
    0   15   12     -0.12      0.00
    1   15   12     -0.21      0.00
    2   15   12     -0.21      0.00
   -8    1   13      0.21      0.00
    7    1   13     -0.03      0.00
   -8    2   13      0.10      0.00
   -8    3   13      0.17      0.00
    6    3   13     -0.31      0.00
   -8    4   13      0.14      0.00
    6    4   13      0.02      0.00
   -7    5   13      0.36      0.00
    6    5   13     -0.33      0.00
   -7    6   13      0.16      0.00
    6    6   13      0.08      0.00
   -7    7   13      0.21      0.00
    6    7   13     -0.05      0.00
   -7    8   13      0.13      0.00
   -6    8   13     -0.11      0.00
    5    8   13      0.10      0.00
   -6    9   13      0.11      0.00
    5    9   13      0.10      0.00
   -6   10   13     -0.09      0.00
   -5   10   13     -0.25      0.00
    4   10   13      0.64      0.00
   -5   11   13      0.09      0.00
    3   11   13     -0.39      0.00
    4   11   13     -0.25      0.00
   -4   12   13     -0.05      0.00
   -3   12   13      0.16      0.00
    2   12   13      0.21      0.00
    3   12   13      0.47      0.00
   -3   13   13     -0.02      0.00
   -2   13   13     -0.25      0.00
   -1   13   13     -0.38      0.00
    0   13   13     -0.22      0.00
    1   13   13     -0.02      0.00
    2   13   13     -0.08      0.00
   -2   14   13      0.05      0.00
   -1   14   13      0.01      0.00
    0   14   13     -0.09      0.00
   -7    0   14      0.10      0.00
    5    0   14      0.02      0.00
   -7    1   14      0.04      0.00
    5    1   14      0.13      0.00
   -7    2   14      0.18      0.00
    5    2   14     -0.09      0.00
   -7    3   14      0.11      0.00
    5    3   14      0.20      0.00
   -7    4   14      0.30      0.00
   -6    4   14      0.19      0.00
    5    4   14     -0.20      0.00
   -6    5   14      0.12      0.00
    5    5   14      0.03      0.00
   -6    6   14      0.24      0.00
    4    6   14     -0.07      0.00
    5    6   14     -0.08      0.00
   -6    7   14     -0.05      0.00
   -5    7   14     -0.10      0.00
    4    7   14      0.21      0.00
   -5    8   14      0.00      0.00
    3    8   14     -0.52      0.00
    4    8   14     -0.13      0.00
   -5    9   14     -0.24      0.00
   -4    9   14      0.02      0.00
    3    9   14      0.90      0.00
   -4   10   14      0.08      0.00
   -3   10   14      0.13      0.00
    2   10   14     -0.25      0.00
    3   10   14     -0.36      0.00
   -3   11   14      0.21      0.00
   -2   11   14      0.13      0.00
   -1   11   14     -0.30      0.00
    0   11   14     -0.55      0.00
    1   11   14     -0.19      0.00
    2   11   14      0.43      0.00
   -2   12   14     -0.21      0.00
   -1   12   14     -0.24      0.00
    0   12   14      0.01      0.00
   -6    1   15     -0.16      0.00
   -5    1   15     -0.10      0.00
    4    1   15     -0.16      0.00
   -6    2   15      0.04      0.00
   -5    2   15      0.07      0.00
    4    2   15      0.17      0.00
   -5    3   15      0.03      0.00
    4    3   15     -0.02      0.00
   -5    4   15      0.10      0.00
    3    4   15      0.18      0.00
    4    4   15      0.06      0.00
   -5    5   15      0.08      0.00
   -4    5   15      0.22      0.00
    3    5   15     -0.11      0.00
   -5    6   15      0.03      0.00
   -4    6   15      0.10      0.00
    2    6   15      0.52      0.00
    3    6   15      0.37      0.00
   -4    7   15      0.09      0.00
   -3    7   15      0.31      0.00
    1    7   15     -0.36      0.00
    2    7   15     -0.52      0.00
    3    7   15     -0.31      0.00
   -4    8   15      0.07      0.00
   -3    8   15      0.30      0.00
   -2    8   15      0.11      0.00
   -1    8   15     -0.46      0.00
    0    8   15     -0.64      0.00
    1    8   15     -0.03      0.00
    2    8   15      0.64      0.00
   -3    9   15      0.14      0.00
   -2    9   15      0.13      0.00
   -1    9   15      0.13      0.00
    0    9   15      0.16      0.00
    1    9   15     -0.01      0.00
   -1   10   15     -0.34      0.00
   -4    0   16      0.25      0.00
   -3    0   16      0.27      0.00
   -2    0   16      0.09      0.00
    0    0   16     -0.35      0.00
    1    0   16     -0.51      0.00
    2    0   16     -0.50      0.00
   -4    1   16     -0.01      0.00
   -3    1   16     -0.02      0.00
   -2    1   16     -0.06      0.00
    0    1   16     -0.23      0.00
    1    1   16     -0.19      0.00
    2    1   16     -0.10      0.00
   -4    2   16      0.24      0.00
   -3    2   16      0.25      0.00
   -2    2   16      0.07      0.00
   -1    2   16     -0.17      0.00
    0    2   16     -0.38      0.00
    1    2   16     -0.48      0.00
    2    2   16     -0.37      0.00
   -4    3   16     -0.01      0.00
   -3    3   16     -0.03      0.00
   -2    3   16     -0.13      0.00
   -1    3   16     -0.35      0.00
    0    3   16     -0.45      0.00
    1    3   16     -0.29      0.00
    2    3   16     -0.08      0.00
   -3    4   16      0.20      0.00
   -2    4   16      0.08      0.00
   -1    4   16     -0.12      0.00
    0    4   16     -0.33      0.00
    1    4   16     -0.41      0.00
    2    4   16     -0.24      0.00
   -3    5   16      0.06      0.00
   -2    5   16     -0.07      0.00
   -1    5   16     -0.37      0.00
    0    5   16     -0.40      0.00
    1    5   16     -0.04      0.00
   -2    6   16      0.15      0.00
   -1    6   16      0.08      0.00
    0    6   16     -0.08      0.00
    0    0    0      0.00      0.00
# SQUEEZE RESULTS (Version =  30715)
# Note: Data are Listed for all Voids in the P1 Unit Cell
# i.e. Centre of Gravity, Solvent Accessible Volume,
# Recovered number of Electrons in the Void and
# Details about the Squeezed Material
loop_
  _platon_squeeze_void_nr
  _platon_squeeze_void_average_x
  _platon_squeeze_void_average_y
  _platon_squeeze_void_average_z
  _platon_squeeze_void_volume
  _platon_squeeze_void_count_electrons
  _platon_squeeze_void_content
   1  0.000  0.000  0.000        66        13 ' '
   2  0.000  0.500  0.500        66        13 ' '
_platon_squeeze_void_probe_radius                  1.20
_platon_squeeze_details
)
TITL mo_180316lt_0m in P2(1)/c
CELL    9.3848   17.3334   12.7967     90.00     94.09     90.00
SPGR P21/c
# Solvent Accessible Volume =     139.3
# Electrons Found in S.A.V. =      26.2
# Note: Atoms in Void as Cxxx and Qxxx all others
C101 0.869 0.510 0.492 !       2.68 eA-3
C102 1.000 1.000 0.000 !       2.61 eA-3
Q103 0.360 0.076 0.500 !       0.86 eA-3
Q104 0.262 0.107 0.330 !       0.77 eA-3
)
;
_shelx_fab_checksum              15832
loop_
_space_group_symop_operation_xyz
'x, y, z'
'-x, y+1/2, -z+1/2'
'-x, -y, -z'
'x, -y-1/2, z-1/2'
loop_
_atom_site_label
_atom_site_type_symbol
_atom_site_fract_x
_atom_site_fract_y
_atom_site_fract_z
_atom_site_U_iso_or_equiv
_atom_site_adp_type
_atom_site_occupancy
_atom_site_site_symmetry_order
_atom_site_calc_flag
_atom_site_refinement_flags_posn
_atom_site_refinement_flags_adp
O1 O 0.32880(13) 1.06694(7) 0.56100(10) 0.0182(3) Uani 1 1 d . .
N1 N 0.14789(16) 0.93240(9) 0.58488(11) 0.0163(3) Uani 1 1 d . .
H12 H 0.1629 0.9627 0.5316 0.020 Uiso 1 1 calc R U
N2 N 0.64691(16) 0.91471(9) 0.66766(11) 0.0160(3) Uani 1 1 d . .
H11 H 0.6864 0.8868 0.6200 0.019 Uiso 1 1 calc R U
C1 C -0.1266(2) 0.75123(11) 0.62323(15) 0.0213(4) Uani 1 1 d . .
H1 H -0.1854 0.7079 0.6347 0.026 Uiso 1 1 calc R U
C2 C -0.0324(2) 0.77735(11) 0.70365(15) 0.0187(4) Uani 1 1 d . .
H4 H -0.0281 0.7529 0.7702 0.022 Uiso 1 1 calc R U
C3 C 0.05640(19) 0.84018(11) 0.68600(14) 0.0161(4) Uani 1 1 d . .
C4 C 0.16814(19) 0.88058(10) 0.74587(14) 0.0155(4) Uani 1 1 d . .
C5 C 0.22144(19) 0.93494(10) 0.68170(13) 0.0148(4) Uani 1 1 d . .
C6 C 0.34689(19) 0.98604(10) 0.71282(13) 0.0139(4) Uani 1 1 d . .
C7 C 0.42234(19) 1.01349(10) 0.61593(13) 0.0143(4) Uani 1 1 d . .
H16 H 0.4347 0.9680 0.5695 0.017 Uiso 1 1 calc R U
C8 C 0.56809(19) 1.04667(10) 0.64638(13) 0.0149(4) Uani 1 1 d . .
C9 C 0.6778(2) 0.99442(10) 0.67594(13) 0.0153(4) Uani 1 1 d . .
C10 C 0.8150(2) 1.02117(11) 0.70393(14) 0.0187(4) Uani 1 1 d . .
H15 H 0.8893 0.9857 0.7234 0.022 Uiso 1 1 calc R U
C11 C 0.8432(2) 1.09956(12) 0.70347(15) 0.0226(4) Uani 1 1 d . .
H2 H 0.9364 1.1178 0.7241 0.027 Uiso 1 1 calc R U
C12 C -0.1367(2) 0.78761(12) 0.52533(15) 0.0224(4) Uani 1 1 d . .
H3 H -0.2037 0.7692 0.4719 0.027 Uiso 1 1 calc R U
C13 C -0.05088(19) 0.84977(11) 0.50508(15) 0.0196(4) Uani 1 1 d . .
H25 H -0.0583 0.8747 0.4388 0.023 Uiso 1 1 calc R U
C14 C 0.04680(19) 0.87469(11) 0.58493(14) 0.0166(4) Uani 1 1 d . .
C15 C 0.2309(2) 0.87161(10) 0.85297(14) 0.0164(4) Uani 1 1 d . .
C16 C 0.36742(19) 0.90338(10) 0.87633(13) 0.0145(4) Uani 1 1 d . .
C17 C 0.45030(19) 0.93881(10) 0.78938(13) 0.0143(4) Uani 1 1 d . .
H20 H 0.5172 0.9772 0.8245 0.017 Uiso 1 1 calc R U
C18 C 0.54705(19) 0.87699(10) 0.73957(14) 0.0160(4) Uani 1 1 d . .
C19 C 0.6413(2) 0.83815(12) 0.82709(15) 0.0234(4) Uani 1 1 d . .
H6 H 0.7067 0.8019 0.7963 0.035 Uiso 1 1 calc R U
H5 H 0.5809 0.8102 0.8737 0.035 Uiso 1 1 calc R U
H7 H 0.6966 0.8775 0.8672 0.035 Uiso 1 1 calc R U
C20 C 0.4667(2) 0.81447(11) 0.67508(15) 0.0212(4) Uani 1 1 d . .
H9 H 0.4095 0.8384 0.6168 0.032 Uiso 1 1 calc R U
H8 H 0.4038 0.7863 0.7197 0.032 Uiso 1 1 calc R U
H10 H 0.5354 0.7786 0.6474 0.032 Uiso 1 1 calc R U
C21 C 0.7362(2) 1.15140(11) 0.67315(15) 0.0214(4) Uani 1 1 d . .
H14 H 0.7566 1.2050 0.6714 0.026 Uiso 1 1 calc R U
C22 C 0.5988(2) 1.12512(11) 0.64517(14) 0.0189(4) Uani 1 1 d . .
H13 H 0.5254 1.1610 0.6251 0.023 Uiso 1 1 calc R U
C23 C 0.2938(2) 1.05704(11) 0.77256(14) 0.0173(4) Uani 1 1 d . .
H18 H 0.2238 1.0856 0.7271 0.026 Uiso 1 1 calc R U
H19 H 0.3750 1.0907 0.7930 0.026 Uiso 1 1 calc R U
H17 H 0.2490 1.0397 0.8354 0.026 Uiso 1 1 calc R U
C24 C 0.4251(2) 0.90200(11) 0.97966(14) 0.0178(4) Uani 1 1 d . .
H24 H 0.5154 0.9253 0.9968 0.021 Uiso 1 1 calc R U
C25 C 0.3532(2) 0.86719(12) 1.05791(15) 0.0230(4) Uani 1 1 d . .
H23 H 0.3943 0.8667 1.1279 0.028 Uiso 1 1 calc R U
C26 C 0.2217(2) 0.83324(12) 1.03406(15) 0.0251(5) Uani 1 1 d . .
H21 H 0.1737 0.8077 1.0871 0.030 Uiso 1 1 calc R U
C27 C 0.1601(2) 0.83662(12) 0.93267(15) 0.0223(4) Uani 1 1 d . .
H22 H 0.0682 0.8148 0.9171 0.027 Uiso 1 1 calc R U
loop_
_atom_site_aniso_label
_atom_site_aniso_U_11
_atom_site_aniso_U_22
_atom_site_aniso_U_33
_atom_site_aniso_U_23
_atom_site_aniso_U_13
_atom_site_aniso_U_12
O1 0.0193(7) 0.0198(7) 0.0155(6) 0.0049(5) 0.0006(5) 0.0059(5)
N1 0.0168(8) 0.0199(8) 0.0124(7) 0.0015(6) 0.0012(6) -0.0002(6)
N2 0.0208(8) 0.0146(8) 0.0134(8) -0.0006(6) 0.0063(6) 0.0009(6)
C1 0.0141(9) 0.0203(10) 0.0297(11) -0.0037(8) 0.0037(8) -0.0005(8)
C2 0.0154(9) 0.0191(10) 0.0220(10) -0.0017(8) 0.0037(8) 0.0020(8)
C3 0.0137(9) 0.0181(9) 0.0169(9) -0.0026(7) 0.0037(7) 0.0046(7)
C4 0.0159(9) 0.0159(9) 0.0151(9) -0.0007(7) 0.0027(7) 0.0017(7)
C5 0.0162(9) 0.0164(9) 0.0121(9) -0.0010(7) 0.0026(7) 0.0034(7)
C6 0.0154(9) 0.0149(9) 0.0116(9) 0.0012(7) 0.0027(7) 0.0005(7)
C7 0.0178(9) 0.0136(9) 0.0116(8) 0.0017(7) 0.0012(7) 0.0020(7)
C8 0.0197(10) 0.0167(9) 0.0087(8) 0.0012(7) 0.0042(7) -0.0008(7)
C9 0.0209(10) 0.0160(9) 0.0096(8) 0.0011(7) 0.0046(7) -0.0008(8)
C10 0.0163(9) 0.0246(10) 0.0155(9) -0.0013(8) 0.0030(7) -0.0001(8)
C11 0.0210(10) 0.0275(11) 0.0200(10) -0.0045(8) 0.0073(8) -0.0080(8)
C12 0.0162(10) 0.0281(11) 0.0225(10) -0.0091(8) -0.0006(8) 0.0019(8)
C13 0.0156(9) 0.0267(10) 0.0163(9) -0.0024(8) 0.0007(7) 0.0037(8)
C14 0.0137(9) 0.0185(9) 0.0179(9) -0.0028(7) 0.0032(7) 0.0035(7)
C15 0.0203(10) 0.0145(9) 0.0146(9) -0.0009(7) 0.0034(7) -0.0002(7)
C16 0.0186(9) 0.0123(9) 0.0128(9) 0.0012(7) 0.0026(7) 0.0012(7)
C17 0.0150(9) 0.0151(9) 0.0128(8) 0.0010(7) 0.0018(7) -0.0003(7)
C18 0.0175(9) 0.0153(9) 0.0159(9) 0.0033(7) 0.0050(7) 0.0017(7)
C19 0.0227(10) 0.0276(11) 0.0205(10) 0.0085(8) 0.0056(8) 0.0092(9)
C20 0.0225(10) 0.0149(9) 0.0270(10) -0.0025(8) 0.0082(8) 0.0007(8)
C21 0.0285(11) 0.0183(10) 0.0185(10) -0.0020(8) 0.0090(8) -0.0080(8)
C22 0.0265(10) 0.0157(9) 0.0151(9) 0.0014(7) 0.0064(8) 0.0008(8)
C23 0.0198(9) 0.0180(9) 0.0143(9) -0.0002(7) 0.0032(7) 0.0017(8)
C24 0.0207(10) 0.0164(9) 0.0163(9) 0.0006(7) 0.0016(7) -0.0005(8)
C25 0.0314(11) 0.0249(11) 0.0127(9) 0.0029(8) 0.0013(8) -0.0024(9)
C26 0.0329(12) 0.0284(11) 0.0148(10) 0.0035(8) 0.0076(8) -0.0073(9)
C27 0.0239(10) 0.0252(11) 0.0184(10) -0.0001(8) 0.0053(8) -0.0070(9)
loop_
_atom_type_symbol
_atom_type_description
_atom_type_scat_dispersion_real
_atom_type_scat_dispersion_imag
_atom_type_scat_source
C C 0.0033 0.0016 'International Tables Vol C Tables 4.2.6.8 and 6.1.1.4'
H H 0.0000 0.0000 'International Tables Vol C Tables 4.2.6.8 and 6.1.1.4'
N N 0.0061 0.0033 'International Tables Vol C Tables 4.2.6.8 and 6.1.1.4'
O O 0.0106 0.0060 'International Tables Vol C Tables 4.2.6.8 and 6.1.1.4'
loop_
_geom_angle_atom_site_label_1
_geom_angle_atom_site_label_2
_geom_angle_atom_site_label_3
_geom_angle
C5 N1 C14 108.90(15)
C5 N1 H12 125.6
C14 N1 H12 125.6
C9 N2 C18 120.71(14)
C9 N2 H11 119.6
C18 N2 H11 119.6
C2 C1 C12 121.12(18)
C2 C1 H1 119.4
C12 C1 H1 119.4
C1 C2 C3 119.39(18)
C1 C2 H4 120.3
C3 C2 H4 120.3
C2 C3 C14 118.31(17)
C2 C3 C4 135.57(17)
C14 C3 C4 106.05(16)
C5 C4 C3 107.47(16)
C5 C4 C15 119.76(17)
C3 C4 C15 132.73(17)
C4 C5 N1 109.71(16)
C4 C5 C6 124.03(16)
N1 C5 C6 126.19(15)
C5 C6 C7 111.32(14)
C5 C6 C23 108.97(14)
C7 C6 C23 109.44(14)
C5 C6 C17 107.29(14)
C7 C6 C17 111.40(14)
C23 C6 C17 108.32(14)
O1 C7 C8 113.22(14)
O1 C7 C6 107.11(14)
C8 C7 C6 111.64(14)
O1 C7 H16 108.2
C8 C7 H16 108.2
C6 C7 H16 108.2
C22 C8 C9 119.04(17)
C22 C8 C7 123.69(17)
C9 C8 C7 117.26(16)
C10 C9 C8 120.15(17)
C10 C9 N2 121.73(17)
C8 C9 N2 117.90(16)
C11 C10 C9 119.98(18)
C11 C10 H15 120.0
C9 C10 H15 120.0
C21 C11 C10 120.26(18)
C21 C11 H2 119.9
C10 C11 H2 119.9
C13 C12 C1 121.10(18)
C13 C12 H3 119.5
C1 C12 H3 119.5
C12 C13 C14 117.83(18)
C12 C13 H25 121.1
C14 C13 H25 121.1
N1 C14 C13 129.94(17)
N1 C14 C3 107.86(16)
C13 C14 C3 122.20(18)
C27 C15 C16 119.25(17)
C27 C15 C4 123.46(17)
C16 C15 C4 117.23(16)
C24 C16 C15 118.78(16)
C24 C16 C17 120.90(16)
C15 C16 C17 120.31(15)
C16 C17 C6 109.95(14)
C16 C17 C18 111.11(14)
C6 C17 C18 117.08(14)
C16 C17 H20 106.0
C6 C17 H20 106.0
C18 C17 H20 106.0
N2 C18 C20 106.37(14)
N2 C18 C19 106.55(15)
C20 C18 C19 108.66(16)
N2 C18 C17 110.76(14)
C20 C18 C17 115.23(15)
C19 C18 C17 108.89(15)
C18 C19 H6 109.5
C18 C19 H5 109.5
H6 C19 H5 109.5
C18 C19 H7 109.5
H6 C19 H7 109.5
H5 C19 H7 109.5
C18 C20 H9 109.5
C18 C20 H8 109.5
H9 C20 H8 109.5
C18 C20 H10 109.5
H9 C20 H10 109.5
H8 C20 H10 109.5
C11 C21 C22 120.08(18)
C11 C21 H14 120.0
C22 C21 H14 120.0
C21 C22 C8 120.47(18)
C21 C22 H13 119.8
C8 C22 H13 119.8
C6 C23 H18 109.5
C6 C23 H19 109.5
H18 C23 H19 109.5
C6 C23 H17 109.5
H18 C23 H17 109.5
H19 C23 H17 109.5
C25 C24 C16 121.15(18)
C25 C24 H24 119.4
C16 C24 H24 119.4
C26 C25 C24 119.97(18)
C26 C25 H23 120.0
C24 C25 H23 120.0
C25 C26 C27 119.71(18)
C25 C26 H21 120.1
C27 C26 H21 120.1
C26 C27 C15 121.04(19)
C26 C27 H22 119.5
C15 C27 H22 119.5
loop_
_geom_bond_atom_site_label_1
_geom_bond_atom_site_label_2
_geom_bond_distance
O1 C7 1.427(2)
N1 C5 1.375(2)
N1 C14 1.379(2)
N1 H12 0.8800
N2 C9 1.414(2)
N2 C18 1.509(2)
N2 H11 0.8800
C1 C2 1.384(3)
C1 C12 1.400(3)
C1 H1 0.9500
C2 C3 1.400(3)
C2 H4 0.9500
C3 C14 1.422(3)
C3 C4 1.436(3)
C4 C5 1.368(2)
C4 C15 1.461(3)
C5 C6 1.504(3)
C6 C7 1.546(2)
C6 C23 1.550(2)
C6 C17 1.561(2)
C7 C8 1.509(3)
C7 H16 1.0000
C8 C22 1.390(3)
C8 C9 1.403(3)
C9 C10 1.391(3)
C10 C11 1.384(3)
C10 H15 0.9500
C11 C21 1.382(3)
C11 H2 0.9500
C12 C13 1.381(3)
C12 H3 0.9500
C13 C14 1.392(3)
C13 H25 0.9500
C15 C27 1.395(3)
C15 C16 1.407(3)
C16 C24 1.393(3)
C16 C17 1.531(2)
C17 C18 1.569(2)
C17 H20 1.0000
C18 C20 1.528(3)
C18 C19 1.533(3)
C19 H6 0.9800
C19 H5 0.9800
C19 H7 0.9800
C20 H9 0.9800
C20 H8 0.9800
C20 H10 0.9800
C21 C22 1.390(3)
C21 H14 0.9500
C22 H13 0.9500
C23 H18 0.9800
C23 H19 0.9800
C23 H17 0.9800
C24 C25 1.385(3)
C24 H24 0.9500
C25 C26 1.382(3)
C25 H23 0.9500
C26 C27 1.383(3)
C26 H21 0.9500
C27 H22 0.9500
