#------------------------------------------------------------------------------
#$Date: 2019-11-08 02:01:31 +0200 (Fri, 08 Nov 2019) $
#$Revision: 224651 $
#$URL: file:///home/coder/svn-repositories/cod/cif/1/55/02/1550246.cif $
#------------------------------------------------------------------------------
#
# This file is available in the Crystallography Open Database (COD),
# http://www.crystallography.net/
#
# All data on this site have been placed in the public domain by the
# contributors.
#
data_1550246
loop_
_publ_author_name
'Karri, Ramesh'
'Chalana, Ashish'
'Das, Ranajit'
'Rai, Rakesh Kumar'
'Roy, Gouriprasanna'
_publ_section_title
;
 Cytoprotective effects of imidazole-based [S<sub>1</sub>] and
 [S<sub>2</sub>]-donor ligands against mercury toxicity: a bioinorganic
 approach.
;
_journal_issue                   1
_journal_name_full               'Metallomics : integrated biometal science'
_journal_page_first              213
_journal_page_last               225
_journal_paper_doi               10.1039/c8mt00237a
_journal_volume                  11
_journal_year                    2019
_chemical_formula_moiety         'C18 H24 Br4 Hg2 N8 S4'
_chemical_formula_sum            'C18 H24 Br4 Hg2 N8 S4'
_chemical_formula_weight         1201.47
_space_group_crystal_system      monoclinic
_space_group_IT_number           12
_space_group_name_Hall           '-C 2y'
_space_group_name_H-M_alt        'C 1 2/m 1'
_symmetry_space_group_name_Hall  '-C 2y'
_symmetry_space_group_name_H-M   'C 1 2/m 1'
_atom_sites_solution_hydrogens   geom
_audit_creation_method           SHELXL-2016/6
_audit_update_record
;
2018-07-23 deposited with the CCDC.
2018-11-12 downloaded from the CCDC.
;
_cell_angle_alpha                90
_cell_angle_beta                 125.868(2)
_cell_angle_gamma                90
_cell_formula_units_Z            2
_cell_length_a                   17.7977(16)
_cell_length_b                   12.2950(11)
_cell_length_c                   10.8212(10)
_cell_measurement_reflns_used    3921
_cell_measurement_temperature    298(2)
_cell_measurement_theta_max      23.71
_cell_measurement_theta_min      2.32
_cell_volume                     1918.9(3)
_computing_cell_refinement       'Bruker SAINT'
_computing_data_collection       'Bruker APEX2'
_computing_data_reduction        'Bruker SAINT'
_computing_molecular_graphics    'Bruker SHELXTL'
_computing_publication_material  'Bruker SHELXTL'
_computing_structure_refinement  'SHELXL-2014/7 (Sheldrick, 2014)'
_computing_structure_solution    'SHELXS-97 (Sheldrick 2008)'
_diffrn_ambient_temperature      298(2)
_diffrn_detector_area_resol_mean '\f and \w scans'
_diffrn_measured_fraction_theta_full 0.999
_diffrn_measured_fraction_theta_max 1.000
_diffrn_measurement_device_type  X-ray
_diffrn_measurement_method       'Bruker PHOTON100 CMOS'
_diffrn_radiation_type           MoK\a
_diffrn_radiation_wavelength     0.71073
_diffrn_reflns_av_R_equivalents  0.0682
_diffrn_reflns_av_unetI/netI     0.0376
_diffrn_reflns_Laue_measured_fraction_full 0.999
_diffrn_reflns_Laue_measured_fraction_max 1.000
_diffrn_reflns_limit_h_max       22
_diffrn_reflns_limit_h_min       -22
_diffrn_reflns_limit_k_max       15
_diffrn_reflns_limit_k_min       -15
_diffrn_reflns_limit_l_max       13
_diffrn_reflns_limit_l_min       -13
_diffrn_reflns_number            15576
_diffrn_reflns_point_group_measured_fraction_full 0.999
_diffrn_reflns_point_group_measured_fraction_max 1.000
_diffrn_reflns_theta_full        25.242
_diffrn_reflns_theta_max         26.367
_diffrn_reflns_theta_min         2.323
_exptl_absorpt_coefficient_mu    12.393
_exptl_absorpt_correction_T_max  0.155
_exptl_absorpt_correction_T_min  0.037
_exptl_absorpt_correction_type   multi-scan
_exptl_absorpt_process_details   SADABS
_exptl_crystal_colour            colourless
_exptl_crystal_density_diffrn    2.079
_exptl_crystal_description       Diamond
_exptl_crystal_F_000             1104.0
_exptl_crystal_size_max          0.232
_exptl_crystal_size_mid          0.123
_exptl_crystal_size_min          0.076
_refine_diff_density_max         1.227
_refine_diff_density_min         -0.507
_refine_diff_density_rms         0.125
_refine_ls_extinction_method     none
_refine_ls_goodness_of_fit_ref   0.757
_refine_ls_hydrogen_treatment    constr
_refine_ls_matrix_type           full
_refine_ls_number_parameters     88
_refine_ls_number_reflns         2065
_refine_ls_number_restraints     0
_refine_ls_restrained_S_all      0.757
_refine_ls_R_factor_all          0.0573
_refine_ls_R_factor_gt           0.0354
_refine_ls_shift/su_max          0.005
_refine_ls_shift/su_mean         0.001
_refine_ls_structure_factor_coef Fsqd
_refine_ls_weighting_details
'w=1/[\s^2^(Fo^2^)+(0.0918P)^2^+8.2803P] where P=(Fo^2^+2Fc^2^)/3'
_refine_ls_weighting_scheme      calc
_refine_ls_wR_factor_gt          0.0938
_refine_ls_wR_factor_ref         0.1099
_reflns_Friedel_coverage         0.000
_reflns_number_gt                1545
_reflns_number_total             2065
_reflns_threshold_expression     'I > 2\s(I)'
_cod_data_source_file            c8mt00237a4.cif
_cod_data_source_block           '[(L2)2Hg2Br4]'
_cod_depositor_comments
;
The following automatic conversions were performed:

'_exptl_absorpt_correction_type' value 'Multi-Scan' changed to
'multi-scan' according to
/home/data/users/saulius/crontab/automatic-downloads/rss-feeds/RSC/lib/dictionaries/cif_core.dic
dictionary named 'cif_core.dic' version 2.4.2 from 2011-04-26.

Automatic conversion script
Id: cif_fix_values 4973 2017-02-22 13:04:09Z antanas 

 Adding full bibliography for 1550243--1550249.cif.
;
_cod_database_code               1550246
_shelx_shelxl_version_number     2016/6
_shelx_space_group_comment
;
The symmetry employed for this shelxl refinement is uniquely defined
by the following loop, which should always be used as a source of
symmetry information in preference to the above space-group names.
They are only intended as comments.
;
_shelx_estimated_absorpt_t_min   0.070
_shelx_estimated_absorpt_t_max   0.257
_shelx_res_file
;
TITL bmm_me_HgBr2_a.res in C2/m
    shelx.res
    created by SHELXL-2016/6 at 01:54:54 on 12-Apr-2017
CELL  0.71073  17.7977  12.2950  10.8212   90.000  125.868   90.000
ZERR    4.000   0.0016   0.0011   0.0010    0.000    0.002    0.000
LATT 7
SYMM -X, Y, -Z
SFAC C  H  Br Hg N  S
UNIT 36  48  16  8  16  8
L.S. 5 0   15
ACTA
BOND $H
FMAP 2
PLAN 20
SIZE 0.076 0.123 0.232
ABIN
TEMP 24.700
WGHT    0.091800    8.280300
FVAR       0.19947
HG1   4    0.537349    0.500000    0.219249    10.50000    0.06809    0.05229 =
         0.05984    0.00000    0.03612    0.00000
BR1   3    0.658276    0.500000    0.532296    10.50000    0.04945    0.06226 =
         0.05282    0.00000    0.03065    0.00000
BR2   3    0.662100    0.500000    0.163234    10.50000    0.06317    0.07983 =
         0.05259    0.00000    0.03440    0.00000
S1    6    0.454430    0.322431    0.165344    11.00000    0.04908    0.05414 =
         0.05875    0.00032    0.02323    0.00064
N1    5    0.607970    0.193989    0.344477    11.00000    0.05349    0.05578 =
         0.05228   -0.00046    0.03265    0.00827
N2    5    0.551273    0.249576    0.462271    11.00000    0.06584    0.05062 =
         0.06735    0.00332    0.04494    0.00293
C4    1    0.539225    0.254450    0.326414    11.00000    0.05281    0.03978 =
         0.05455   -0.00025    0.03190   -0.00059
C5    1    0.500000    0.315702    0.500000    10.50000    0.07642    0.04523 =
         0.07973    0.00000    0.05997    0.00000
AFIX  23
H5A   2    0.542800    0.362105    0.585982    10.50000   -1.20000
H5B   2    0.457200    0.362105    0.414019    10.50000   -1.20000
AFIX   0
C3    1    0.628195    0.186864    0.562457    11.00000    0.07319    0.05649 =
         0.06196    0.01840    0.03715    0.01540
AFIX  43
H3    2    0.652153    0.171464    0.663392    11.00000   -1.20000
AFIX   0
C2    1    0.661394    0.152738    0.486489    11.00000    0.06316    0.06312 =
         0.06687    0.00934    0.03774    0.01174
AFIX  43
H2    2    0.712741    0.108021    0.524959    11.00000   -1.20000
AFIX   0
C1    1    0.620730    0.175857    0.223638    11.00000    0.08925    0.08539 =
         0.07092    0.00265    0.05623    0.02249
AFIX 137
H1A   2    0.577575    0.121758    0.154054    11.00000   -1.50000
H1B   2    0.682874    0.151326    0.268257    11.00000   -1.50000
H1C   2    0.610077    0.242640    0.169656    11.00000   -1.50000
AFIX   0
HKLF 4




REM  bmm_me_HgBr2_a.res in C2/m
REM R1 =  0.0354 for    1545 Fo > 4sig(Fo)  and  0.0573 for all    2065 data
REM     88 parameters refined using      0 restraints

END

WGHT      0.0494      0.0000

REM Highest difference peak  1.227,  deepest hole -0.507,  1-sigma level  0.125
Q1    1   0.5722  0.5000  0.3195  10.50000  0.05    1.23
Q2    1   0.5790  0.5483  0.2260  11.00000  0.05    1.04
Q3    1   0.4956  0.5000  0.1185  10.50000  0.05    1.02
Q4    1   0.6108  0.5000  0.4374  10.50000  0.05    0.85
Q5    1   0.4888  0.4578  0.2094  11.00000  0.05    0.75
Q6    1   0.6991  0.5000  0.6475  10.50000  0.05    0.63
Q7    1   0.6293  0.5000  0.5771  10.50000  0.05    0.53
Q8    1   0.7002  0.5377  0.5277  11.00000  0.05    0.50
Q9    1   0.7045  0.5000  0.2637  10.50000  0.05    0.43
Q10   1   0.6086  0.5000  0.0705  10.50000  0.05    0.41
Q11   1   0.6319  0.1635  0.2983  11.00000  0.05    0.40
Q12   1   0.7202  0.0000  0.5628  10.50000  0.05    0.40
Q13   1   0.5415  0.2796  0.5004  11.00000  0.05    0.39
Q14   1   0.6263  0.5487  0.1717  11.00000  0.05    0.37
Q15   1   0.6324  0.0000  0.8471  10.50000  0.05    0.37
Q16   1   0.5492  0.2686  0.4112  11.00000  0.05    0.36
Q17   1   0.4472  0.3934  0.2189  11.00000  0.05    0.36
Q18   1   0.6093  0.5461  0.1081  11.00000  0.05    0.35
Q19   1   0.6204  0.5464  0.5296  11.00000  0.05    0.35
Q20   1   0.6999  0.5428  0.1380  11.00000  0.05    0.35
;
_shelx_res_checksum              54093
_shelx_hkl_file
;
   2   0   0 4237.58  157.68
   2   0   0 4158.88  157.98
   2   0   0 4459.05  157.88
  -2   0   0 4631.94  157.98
  -2   0   0 4176.38  157.68
  -2   0   0 4154.48  157.98
   4   0   0   33.40    5.60
   4   0   0   40.10    6.20
  -4   0   0   29.10    5.70
  -4   0   0   34.10    5.60
  -4   0   0   35.70    5.80
   4   0   0   25.20    4.90
  -6   0   0 1474.15   59.99
  -6   0   0 1565.54   59.89
   6   0   0 1496.05   59.09
  -6   0   0 1492.55   59.59
   6   0   0 1520.85   59.99
   6   0   0 1582.24   59.89
  -8   0   0  407.56   21.40
  -8   0   0  384.26   21.80
   8   0   0  359.86   21.50
   8   0   0  348.27   22.00
   8   0   0  388.06   20.20
  -8   0   0  362.46   23.00
  10   0   0 1777.42   74.59
  10   0   0 1875.91   75.39
  10   0   0 1893.01   73.99
 -10   0   0 1821.42   75.69
 -10   0   0 2039.40   75.59
  12   0   0  130.89   15.20
 -12   0   0  128.69   18.10
  12   0   0  139.19   16.20
 -12   0   0  155.28   17.00
  12   0   0  130.39   13.70
 -14   0   0  221.18   25.50
 -14   0   0  215.78   22.40
  14   0   0  214.38   24.00
  14   0   0  217.58   24.90
  14   0   0  207.08   21.50
  14   0   0  201.98   25.20
 -16   0   0  140.19   21.90
  16   0   0  138.39   24.90
  16   0   0  156.18   21.80
 -16   0   0  150.08   23.70
  16   0   0  177.88   23.90
  18   0   0   40.20   31.40
  18   0   0   34.20   21.60
 -18   0   0   26.60   25.20
 -18   0   0   -3.20   27.40
   3  -1   0  275.47   14.40
  -3  -1   0  301.07   14.40
  -3  -1   0  299.47   14.20
   3  -1   0  328.47   13.80
  -3  -1   0  304.67   14.80
   3   1   0  300.67   14.70
   3   1   0  310.77   14.30
   3   1   0  316.07   14.60
  -3   1   0  346.37   14.80
  -3   1   0  300.57   14.30
  -5  -1   0 1336.37   52.89
  -5  -1   0 1340.97   53.49
   5  -1   0 1300.17   51.69
   5  -1   0 1345.17   52.59
  -5  -1   0 1345.57   52.99
   5   1   0 1345.07   52.79
   5   1   0 1338.27   53.29
   5   1   0 1339.17   52.69
  -5   1   0 1326.77   52.79
  -5   1   0 1305.67   52.09
  -5   1   0 1496.25   53.09
   7  -1   0  312.37   18.10
   7  -1   0  301.17   16.80
  -7  -1   0  307.07   19.60
  -7  -1   0  290.47   19.00
  -7  -1   0  345.37   18.60
   7   1   0  308.67   18.70
  -7   1   0  282.57   18.30
  -7   1   0  310.07   19.10
   7   1   0  312.77   18.80
  -7   1   0  338.87   18.60
   7   1   0  292.47   17.70
   9  -1   0 1546.25   64.09
   9  -1   0 1562.24   62.59
  -9  -1   0 1593.84   64.49
   9  -1   0 1590.84   64.19
  -9  -1   0 1579.14   65.29
   9   1   0 1672.03   64.99
  -9   1   0 1523.95   64.49
   9   1   0 1615.54   63.99
   9   1   0 1624.24   63.89
  -9   1   0 1651.53   64.49
 -11  -1   0  288.17   23.10
  11  -1   0  300.67   24.60
  11  -1   0  270.47   22.20
  11  -1   0  269.87   21.00
 -11  -1   0  272.07   23.90
 -11   1   0  237.58   23.50
 -11   1   0  272.77   23.00
  11   1   0  280.97   20.30
  11   1   0  259.97   22.30
  11   1   0  272.27   22.40
  13  -1   0   19.20   12.10
  13  -1   0   28.10   16.10
 -13  -1   0   21.90   14.50
 -13  -1   0    6.60   14.00
  13  -1   0   -0.70    9.70
  13   1   0   25.90   13.00
  13   1   0    8.80   11.70
 -13   1   0  -12.60   14.50
 -13   1   0   22.20   14.70
  13   1   0   -4.50   13.40
 -15  -1   0  210.48   21.80
 -15  -1   0  266.57   31.40
  15  -1   0  239.78   25.40
  15  -1   0  244.48   30.80
  15   1   0  197.48   26.50
  15   1   0  179.58   19.30
  15   1   0  169.98   21.00
 -15   1   0  196.58   22.50
 -15   1   0  216.38   25.60
  17  -1   0   39.80   18.90
  17  -1   0   31.20   23.20
 -17  -1   0   33.90   24.60
 -17  -1   0   55.69   21.30
  17   1   0   40.90   17.30
 -17   1   0    8.50   21.50
  17   1   0   44.20   27.10
  17   1   0   28.90   21.60
  17   1   0   32.60   19.40
 -17   1   0   55.29   25.80
   0  -2   0 4384.76  159.88
   0   2   0 4266.77  159.78
  -2  -2   0   30.80    4.90
   2  -2   0   36.00    4.70
  -2  -2   0   28.30    4.40
  -2  -2   0   28.90    4.30
   2   2   0   39.70    4.80
  -2   2   0   29.30    4.60
   2   2   0   27.50    4.50
   2   2   0   36.80    4.50
  -4  -2   0   41.40    6.60
  -4  -2   0   39.70    7.30
   4  -2   0   27.60    5.70
  -4  -2   0   40.80    6.20
   4   2   0   30.20    6.50
   4   2   0   37.00    6.50
   4   2   0   33.50    5.90
   6  -2   0 1503.15   60.89
  -6  -2   0 1626.74   60.69
  -6  -2   0 1529.15   60.49
  -6  -2   0 1532.85   61.39
   6  -2   0 1513.25   59.79
   6   2   0 1538.55   60.49
   6   2   0 1537.75   61.29
  -6   2   0 1575.34   60.49
   6   2   0 1528.75   60.29
  -6   2   0 1465.75   59.09
  -8  -2   0  125.79   14.30
  -8  -2   0  142.49   16.70
   8  -2   0  113.19   13.70
   8  -2   0  116.99   15.50
   8   2   0  109.29   14.20
   8   2   0  141.59   16.10
  -8   2   0  140.89   16.10
  -8   2   0  148.59   15.00
   8   2   0  120.99   14.50
  10  -2   0  592.74   29.80
 -10  -2   0  594.54   31.60
  10  -2   0  577.64   31.50
 -10  -2   0  608.24   30.90
  10   2   0  647.04   30.20
 -10   2   0  615.54   30.40
 -10   2   0  596.24   31.60
  10   2   0  562.74   30.90
  10   2   0  581.84   30.80
  12  -2   0   21.00   13.80
 -12  -2   0   31.00   13.60
 -12  -2   0   16.50   12.30
  12  -2   0   16.30   11.90
  12   2   0   44.40   12.80
  12   2   0    7.60   11.70
  12   2   0   11.20   12.80
 -12   2   0    5.30   13.80
 -12   2   0   24.00   15.00
  14  -2   0    7.60   13.10
 -14  -2   0   38.60   14.80
 -14  -2   0   67.09   18.70
  14  -2   0   20.30   18.00
 -14   2   0   44.50   15.60
 -14   2   0   22.00   18.40
  14   2   0   47.10   19.00
  14   2   0   36.80   13.60
  14   2   0   53.39   15.40
  16  -2   0  123.59   18.50
  16  -2   0  133.39   23.30
 -16  -2   0  113.59   21.70
 -16  -2   0  122.69   23.60
  16   2   0   94.09   20.80
  16   2   0   98.69   18.00
  16   2   0  135.79   20.10
 -16   2   0  123.59   20.80
 -16   2   0  155.28   23.00
  -1  -3   0 4862.01  186.38
   1  -3   0 5404.26  187.58
  -1  -3   0 5207.68  187.18
   1   3   0 4919.91  187.08
   1   3   0 4964.30  186.38
   1   3   0 5022.90  185.88
  -1   3   0 5071.69  187.38
  -3  -3   0 1549.14   58.79
   3  -3   0 1491.75   58.99
  -3  -3   0 1534.05   59.49
  -3  -3   0 1524.15   58.59
   3   3   0 1513.55   58.79
   3   3   0 1601.94   59.49
  -3   3   0 1401.36   58.79
   3   3   0 1598.64   58.89
   5  -3   0  248.88   15.60
  -5  -3   0  260.47   15.60
  -5  -3   0  269.57   17.70
  -5  -3   0  255.67   15.80
   5   3   0  249.28   16.20
  -5   3   0  251.17   17.00
   5   3   0  238.98   15.80
   5   3   0  253.67   15.40
  -7  -3   0  759.62   34.70
   7  -3   0  761.12   33.60
  -7  -3   0  717.43   32.90
   7  -3   0  715.03   31.50
   7   3   0  767.72   33.70
   7   3   0  729.33   32.60
   7   3   0  667.13   33.10
  -7   3   0  709.43   34.00
   9  -3   0  487.05   27.90
   9  -3   0  477.95   25.30
  -9  -3   0  549.25   27.30
  -9  -3   0  529.15   28.30
   9   3   0  500.75   27.40
  -9   3   0  479.15   27.90
   9   3   0  503.05   26.60
  -9   3   0  484.05   26.70
   9   3   0  506.85   27.60
 -11  -3   0   66.29   13.30
  11  -3   0   55.79   11.80
  11  -3   0   72.19   14.20
 -11  -3   0   41.30   16.20
 -11   3   0   53.39   14.10
 -11   3   0   63.79   14.80
  11   3   0   58.59   13.50
  11   3   0   37.80   13.30
  11   3   0   65.79   13.00
 -13  -3   0  -23.00   12.40
  13  -3   0  -11.00   14.10
 -13  -3   0   -4.10   14.00
  13  -3   0   -3.10   11.10
  13   3   0    1.90   14.30
  13   3   0   -5.80   12.30
 -13   3   0    0.80   16.20
  13   3   0  -20.00   23.40
  15  -3   0  227.28   24.90
 -15  -3   0  158.98   21.20
 -15  -3   0  203.68   24.20
  15  -3   0  182.58   22.70
  15   3   0  155.18   19.20
  15   3   0  178.78   22.30
  15   3   0  144.19   19.50
 -15   3   0  141.99   23.50
 -15   3   0  133.29   20.10
  17  -3   0   24.90   23.60
 -17  -3   0   25.90   24.20
 -17  -3   0   14.20   23.80
  17  -3   0    2.60   16.90
  17   3   0   12.90   17.30
  17   3   0   36.40   20.50
 -17   3   0   31.50   21.40
 -17   3   0   32.30   27.00
  17   3   0   27.60   21.30
   0  -4   0 9999.00  357.16
   0   4   0 9429.26  356.96
  -2  -4   0 1461.45   56.19
  -2  -4   0 1326.07   54.29
   2  -4   0 1510.75   56.79
  -2  -4   0 1350.66   55.49
  -2   4   0 1456.65   56.99
   2   4   0 1429.76   54.89
  -2   4   0 1498.05   56.09
   2   4   0 1392.46   55.49
   4  -4   0   60.29    8.50
  -4  -4   0   52.19    9.20
  -4  -4   0   56.29    7.70
   4   4   0   56.49    8.30
   4   4   0   49.40    8.80
   4   4   0   64.19    8.10
  -4   4   0   63.99    8.80
  -6  -4   0  856.31   36.10
   6  -4   0  920.71   37.00
  -6  -4   0  829.52   37.60
   6   4   0  815.52   36.50
  -6   4   0  786.32   37.20
   6   4   0  828.72   35.80
   6   4   0  772.72   36.30
  -8  -4   0  179.48   16.70
   8  -4   0  169.68   17.10
  -8  -4   0  182.08   19.30
   8   4   0  170.38   16.30
   8   4   0  202.58   18.70
   8   4   0  168.98   17.40
  10  -4   0  789.32   36.10
  10  -4   0  820.82   38.70
 -10  -4   0  793.02   39.90
 -10  -4   0  832.72   39.00
  10   4   0  791.92   38.60
  10   4   0  831.52   38.60
  10   4   0  820.92   39.20
 -10   4   0  820.52   38.50
  12  -4   0   48.50   14.50
 -12  -4   0    5.70   13.20
  12  -4   0   10.60   11.00
 -12  -4   0    5.30   14.40
 -12   4   0    6.40   17.20
  12   4   0    2.20   11.50
  12   4   0   32.90   22.60
  12   4   0    1.80   12.40
 -12   4   0   27.80   14.50
  14  -4   0   72.39   14.20
  14  -4   0   59.69   17.00
 -14  -4   0   82.49   18.80
 -14  -4   0  101.49   16.60
 -14   4   0   62.99   17.40
  14   4   0   69.79   14.80
 -14   4   0   46.40   21.90
  14   4   0   90.59   15.60
  14   4   0   52.89   17.40
  16  -4   0   89.39   22.10
 -16  -4   0  112.89   24.10
 -16  -4   0  106.69   21.50
  16  -4   0   83.09   17.00
 -16   4   0   75.79   21.50
  16   4   0  103.69   19.40
  16   4   0   82.49   19.40
 -16   4   0   89.19   27.80
  16   4   0  138.79   22.90
  -1  -5   0 3796.92  148.79
   1  -5   0 4204.78  150.78
  -1  -5   0 3829.92  148.69
  -1  -5   0 4184.38  150.48
  -1   5   0 4079.59  150.78
   1   5   0 3957.70  150.38
  -3  -5   0  221.38   15.80
  -3  -5   0  226.78   15.30
  -3  -5   0  223.88   13.10
   3   5   0  220.98   15.00
  -3   5   0  211.08   17.30
   3   5   0  258.07   14.60
  -3   5   0  234.98   16.80
   3   5   0  200.78   15.00
  -5  -5   0 1131.49   46.00
  -5  -5   0 1114.99   47.70
   5  -5   0 1160.38   47.30
   5   5   0 1139.09   47.20
  -5   5   0 1146.99   50.19
   5   5   0 1084.39   46.80
  -5   5   0 1080.69   47.10
   5   5   0 1201.38   46.60
  -7  -5   0   89.59   11.60
  -7  -5   0  111.49   14.00
   7  -5   0   84.89   11.60
   7   5   0   96.09   12.50
   7   5   0  101.09   12.00
   7   5   0   82.79   12.10
  -9  -5   0 1145.69   51.89
  -9  -5   0 1175.28   50.89
   9  -5   0 1183.18   51.29
   9   5   0 1203.98   50.69
   9   5   0 1186.78   51.79
  11  -5   0  228.28   23.70
 -11  -5   0  228.38   22.30
 -11  -5   0  224.48   24.40
  11   5   0  227.88   25.10
  11   5   0  226.78   21.70
  11   5   0  233.68   22.00
 -13  -5   0   13.30   13.50
  13  -5   0    3.00   15.80
 -13  -5   0  -21.40   15.30
  13   5   0   27.00   15.90
 -13   5   0   -0.80   15.60
  13   5   0    1.30   14.60
  13   5   0   42.30   13.30
 -15  -5   0  160.88   22.30
 -15  -5   0  136.59   22.50
  15  -5   0  103.59   21.30
  15  -5   0  169.28   17.70
 -15   5   0  172.18   21.40
  15   5   0  158.68   20.70
  15   5   0  176.78   23.20
  15   5   0  141.59   19.70
  17  -5   0   -4.00   23.50
 -17  -5   0   19.10   22.70
  17   5   0   31.10   21.30
  17   5   0  -20.00   23.30
 -17   5   0   17.90   20.70
   0  -6   0 7814.72  281.57
   0   6   0 7378.36  281.47
  -2  -6   0  648.24   29.80
  -2  -6   0  662.73   29.40
  -2  -6   0  708.33   30.80
   2  -6   0  694.83   31.40
  -2   6   0  732.13   32.40
  -2   6   0  659.23   32.20
   2   6   0  627.74   29.70
   2   6   0  653.43   28.80
  -4  -6   0   -0.50    7.40
  -4  -6   0    0.00    8.60
  -4  -6   0   -4.60    6.50
   4   6   0    6.40    9.50
  -4   6   0   -0.10   10.10
   4   6   0    0.10    7.70
   4   6   0    8.80    6.30
  -4   6   0    1.90   10.10
  -6  -6   0  662.03   33.60
  -6  -6   0  729.73   31.90
  -6   6   0  672.23   36.50
   6   6   0  667.03   32.90
   6   6   0  679.13   32.60
  -6   6   0  685.23   33.30
   6   6   0  702.03   32.10
   8  -6   0   91.69   13.60
  -8  -6   0   99.09   14.00
  -8  -6   0  111.49   12.80
   8   6   0   97.19   14.20
   8   6   0   90.29   12.80
   8   6   0   87.39   13.30
  10  -6   0  574.84   31.80
 -10  -6   0  612.84   34.20
 -10  -6   0  523.65   33.60
  10   6   0  551.04   31.10
  10   6   0  580.24   31.30
  10   6   0  491.45   31.90
  12  -6   0   19.70   15.40
 -12  -6   0   30.60   13.50
 -12  -6   0   14.30   15.40
  12   6   0   48.00   15.20
  12   6   0   31.50   13.50
  12   6   0   11.60   14.10
 -14  -6   0   82.19   17.90
  14  -6   0   61.09   18.50
 -14  -6   0   66.39   19.90
 -14   6   0   70.99   19.30
  14   6   0   75.09   17.00
  14   6   0   57.39   19.00
  14   6   0   40.50   17.10
  16  -6   0   15.70   21.90
 -16  -6   0   43.00   24.40
 -16  -6   0   72.19   21.60
 -16  -6   0   38.60   23.10
  16   6   0   33.20   20.30
  16   6   0   60.39   24.50
 -16   6   0   70.99   20.60
  -1  -7   0 2094.69   78.79
  -1  -7   0 1920.41   76.29
   1  -7   0 2060.19   78.89
   1   7   0 1917.71   78.79
  -1   7   0 1964.40   78.99
  -3  -7   0   12.80    7.70
  -3  -7   0    7.30    8.10
  -3  -7   0    5.80    7.60
   3   7   0   -4.30    8.10
   3   7   0   -5.10    6.80
  -3   7   0   -3.60   10.00
  -3   7   0    7.20   10.30
  -5  -7   0  183.48   17.70
  -5  -7   0  199.28   14.70
  -5  -7   0  200.38   18.00
  -5  -7   0  183.78   19.30
  -5   7   0  235.78   20.10
   5   7   0  169.98   17.00
   5   7   0  217.18   18.00
   5   7   0  205.78   16.60
  -5   7   0  212.68   22.30
  -7  -7   0  110.79   12.80
   7   7   0  117.59   14.30
   7   7   0  149.79   18.60
   7   7   0  118.29   13.70
  -7   7   0  103.29   14.60
   9  -7   0  342.77   25.30
  -9  -7   0  380.06   27.50
  -9  -7   0  382.76   24.80
   9   7   0  345.97   25.80
   9   7   0  346.17   26.10
  -9   7   0  350.96   31.80
   9   7   0  360.56   27.10
 -11  -7   0   91.19   16.20
 -11  -7   0  107.59   15.70
  11  -7   0  110.79   16.50
  11   7   0  103.59   15.40
  11   7   0   81.69   15.60
  11   7   0  114.09   17.60
  13  -7   0   39.90   17.00
 -13  -7   0   12.30   15.50
 -13  -7   0    6.60   17.90
  13   7   0   14.60   15.60
  13   7   0   -8.50   17.20
  13   7   0    4.90   15.10
  15  -7   0   77.29   22.30
 -15  -7   0   55.39   19.10
 -15  -7   0   52.69   22.80
 -15  -7   0   94.69   21.50
  15   7   0   73.09   20.80
  15   7   0   77.89   24.60
   0  -8   0 1772.52   70.69
   0   8   0 1720.23   71.19
  -2  -8   0  155.88   14.70
   2  -8   0  168.08   17.50
  -2  -8   0  153.78   15.80
  -2  -8   0  174.48   16.80
   2   8   0  171.48   14.50
  -2   8   0  177.68   17.60
  -4  -8   0   57.19   10.60
  -4  -8   0   42.10   10.30
  -4  -8   0   51.69   11.50
  -4   8   0   57.39   14.00
   4   8   0   47.70    9.70
  -4   8   0   55.39   13.80
   4   8   0   48.70   11.10
  -6  -8   0  375.16   21.80
  -6  -8   0  332.87   24.60
  -6  -8   0  359.16   25.10
  -6  -8   0  398.06   24.30
   6   8   0  365.26   25.00
  -6   8   0  370.66   25.50
   6   8   0  348.57   25.00
  -6   8   0  375.46   28.70
   6   8   0  350.76   23.30
  -8  -8   0  106.99   15.60
  -8  -8   0   88.79   14.20
  -8  -8   0  104.19   14.00
   8   8   0   95.59   14.30
   8   8   0   83.69   14.60
  -8   8   0   77.59   16.10
   8   8   0  113.89   15.00
  -8   8   0   77.39   18.00
 -10  -8   0  260.37   26.20
  10  -8   0  296.97   26.30
 -10  -8   0  239.28   24.10
  10   8   0  265.37   24.80
 -10   8   0  291.57   32.00
  10   8   0  244.08   24.10
  10   8   0  261.47   26.10
 -12  -8   0  -21.30   17.60
 -12  -8   0   -2.50   16.20
  12  -8   0  -30.40   18.10
  12   8   0   10.60   16.00
 -12   8   0  -11.90   21.90
  12   8   0    5.60   15.90
  12   8   0    0.10   14.80
  14  -8   0   13.10   20.90
 -14  -8   0    2.90   17.60
 -14  -8   0   21.20   20.90
 -14  -8   0   65.69   20.00
  14   8   0   40.00   21.50
  14   8   0   42.70   19.50
  -1  -9   0  727.93   35.20
   1  -9   0  730.83   35.30
   1   9   0  719.13   36.40
  -1   9   0  727.93   36.70
  -3  -9   0    1.80    9.50
  -3  -9   0    4.80    7.80
  -3  -9   0   28.50   10.80
  -3   9   0    4.20   15.30
  -3   9   0   11.40   12.50
   3   9   0    8.50    9.40
   3   9   0    2.10   10.10
  -5  -9   0   96.49   14.10
  -5  -9   0  103.49   13.80
   5   9   0  110.29   15.00
  -5   9   0  122.99   16.70
   5   9   0   75.59   13.30
  -5   9   0  105.59   16.70
  -7  -9   0   93.79   14.80
  -7  -9   0  105.19   14.70
  -7  -9   0   81.79   11.50
  -7  -9   0   87.99   14.80
  -7   9   0   93.69   15.80
   7   9   0   76.79   14.00
  -7   9   0   86.29   18.10
   7   9   0   85.59   14.60
  -9  -9   0  139.49   17.50
  -9  -9   0  163.08   18.30
  -9  -9   0  115.89   16.20
  -9  -9   0  131.59   17.50
   9   9   0  132.89   17.70
   9   9   0  185.48   22.50
  -9   9   0  138.69   22.30
  -9   9   0  157.38   19.20
   9   9   0  142.09   17.90
 -11  -9   0   37.30   14.20
 -11  -9   0   34.80   17.50
 -11  -9   0    8.70   16.40
  11   9   0   23.50   16.80
 -11   9   0   -3.90   23.20
  11   9   0   67.19   16.70
  11   9   0   -0.50   17.20
 -13  -9   0   10.00   18.60
 -13  -9   0  -13.70   18.70
 -13  -9   0  -24.30   16.60
  13  -9   0    7.20   19.40
  13   9   0    3.90   29.20
  13   9   0   -8.00   20.60
  13   9   0   -2.60   18.10
 -13   9   0   -0.70   23.40
   0  10   0 1059.59   48.50
  -2 -10   0  121.19   16.30
   2 -10   0  139.99   20.40
  -2 -10   0  128.09   13.00
  -2  10   0  125.49   17.40
  -2  10   0  144.79   18.50
   2  10   0  126.99   13.90
  -4 -10   0   -2.20    9.90
  -4 -10   0    1.30   11.20
  -4 -10   0   -4.50   11.30
  -4  10   0  -23.30   13.70
  -4  10   0   -3.60   14.90
   4  10   0  -10.50   11.20
   4  10   0    9.60   11.20
  -6 -10   0  140.29   17.00
  -6 -10   0  107.69   15.60
  -6 -10   0  136.89   15.80
   6  10   0  125.59   16.40
  -6  10   0  138.49   18.30
   6  10   0  178.78   21.90
  -6  10   0  159.48   21.60
  -8 -10   0   15.10   13.60
  -8 -10   0   25.30   12.10
  -8 -10   0   18.20   14.20
  -8 -10   0   25.60   13.10
  -8  10   0   12.80   16.40
   8  10   0    9.10   14.40
   8  10   0   28.90   13.50
  -8  10   0  -14.50   18.30
 -10 -10   0  105.99   18.40
 -10 -10   0  103.09   18.00
 -10 -10   0  102.19   16.30
 -10 -10   0  111.39   18.40
  10  10   0   90.99   16.40
  10  10   0  114.19   20.50
 -10  10   0   85.49   24.10
 -12 -10   0   -1.20   16.00
 -12 -10   0   -1.90   19.60
 -12 -10   0  -18.10   17.50
  12  10   0    5.60   20.60
 -12  10   0   -2.10   25.30
  12  10   0  -12.70   18.90
   1 -11   0  579.74   33.10
  -1 -11   0  589.84   32.60
  -1  11   0  593.04   35.10
  -3 -11   0   60.99   11.10
  -3 -11   0   46.10   12.70
  -3 -11   0   60.39   11.60
  -3  11   0   52.39   16.90
   3  11   0   48.70   12.10
  -3  11   0   46.10   17.00
  -5 -11   0  155.08   18.00
  -5 -11   0  126.99   16.10
  -5 -11   0  103.09   15.30
  -5  11   0  107.59   19.30
   5  11   0  111.79   15.20
   5  11   0  119.29   16.10
  -7 -11   0   -0.80   14.00
  -7 -11   0    1.00   13.70
  -7 -11   0   19.50   12.90
   7  11   0  -28.50   12.30
   7  11   0   -3.80   14.00
  -7  11   0    8.20   19.80
  -9 -11   0  143.09   19.50
  -9 -11   0  187.18   22.90
  -9 -11   0  179.78   20.90
   9  11   0  172.98   21.40
   9  11   0  171.78   19.80
  -9  11   0  197.08   27.00
 -11 -11   0   45.80   16.80
 -11 -11   0   52.99   19.90
 -11 -11   0   29.20   19.30
  11  11   0   47.80   20.20
  11  11   0   49.80   19.90
   0 -12   0  724.03   37.10
   0  12   0  722.43   40.10
   2 -12   0  154.38   18.40
  -2 -12   0  162.38   18.30
  -2  12   0  148.69   20.00
  -4 -12   0   23.20   13.00
  -4 -12   0   33.50   11.50
  -4 -12   0   15.50   13.10
  -4  12   0   37.90   21.90
   4  12   0   24.70   14.90
   4  12   0   22.90   13.80
  -4  12   0    7.80   18.70
  -6 -12   0   43.90   15.40
  -6 -12   0   70.39   16.30
  -6 -12   0   62.29   14.70
   6  12   0   23.80   17.00
   6  12   0   29.10   14.10
  -6  12   0   76.79   21.40
  -8 -12   0   25.30   17.00
  -8 -12   0   35.20   17.40
  -8 -12   0   15.80   15.60
   8  12   0   33.90   16.30
  -8  12   0   27.80   21.70
   8  12   0   44.70   18.50
 -10 -12   0   68.69   19.80
 -10 -12   0   91.89   21.20
  10  12   0   34.10   20.00
  10  12   0  154.98   33.90
  -1 -13   0  196.08   24.00
   1 -13   0  193.28   24.40
  -1  13   0  196.38   24.50
  -1  13   0  181.68   23.10
  -3 -13   0    8.90   14.70
  -3 -13   0   12.20   13.70
  -3 -13   0  -10.60   11.70
  -3  13   0  -13.10   18.60
   3  13   0   34.10   16.60
  -3  13   0   14.40   20.00
   3  13   0    9.60   14.70
  -5 -13   0   16.10   16.00
  -5 -13   0   -1.40   14.80
  -5 -13   0    8.60   12.70
   5  13   0   42.10   15.10
   5  13   0  -13.70   17.00
  -5  13   0   22.10   20.70
  -5  13   0   -2.80   19.60
  -7 -13   0  -11.20   17.10
  -7 -13   0   -2.60   16.80
  -7 -13   0   40.90   15.80
  -7  13   0    0.30   21.80
   7  13   0   13.70   18.60
   7  13   0    3.60   16.20
  -9 -13   0   45.40   22.10
  -9 -13   0  -12.30   18.00
   9  13   0   19.00   20.00
   0 -14   0   39.60   18.10
  -2 -14   0    8.70   17.10
   2 -14   0   19.20   17.50
  -2  14   0   24.60   21.40
  -2  14   0   13.40   19.50
   2  14   0   29.90   15.60
  -4 -14   0   -6.40   13.10
  -4 -14   0    3.20   16.80
  -4 -14   0   25.60   16.40
  -4  14   0   28.00   23.50
   4  14   0  -13.60   18.00
   4  14   0   37.80   15.80
  -6 -14   0   29.20   15.70
  -6 -14   0   51.99   20.90
   6  14   0   52.69   21.00
   6  14   0   54.19   18.70
   1 -15   0   17.90   20.50
  -1 -15   0   21.90   19.70
  -1  15   0   57.89   26.80
  -3 -15   0  -10.70   22.60
   3  15   0   40.20   21.00
   3  15   0   21.60   17.90
  -3  15   0    7.60   26.40
 -18   0   1    9.00   19.40
  18   0  -1   35.00   19.20
 -18   0   1    7.20   20.60
  18   0  -1   35.30   24.60
 -18   0   1   43.30   23.10
 -16   0   1   19.80   17.50
  16   0  -1    9.60   14.80
 -16   0   1    8.90   15.40
  16   0  -1   11.70   13.70
  16   0  -1   22.20   19.90
  14   0  -1    6.20   13.20
 -14   0   1   17.90   14.60
  14   0  -1  -10.40   16.40
 -14   0   1  -12.90   12.40
  14   0  -1   14.40   11.90
  12   0  -1    8.50   10.60
  12   0  -1    6.70   11.20
 -12   0   1    3.20   12.20
  12   0  -1    0.00    8.90
 -12   0   1    1.20   11.80
 -12   0   1   -5.70    9.70
  10   0  -1  268.27   19.20
  10   0  -1  280.57   19.00
  10   0  -1  245.48   16.60
 -10   0   1  257.97   19.20
 -10   0   1  279.67   18.40
 -10   0   1  252.77   20.30
   8   0  -1  701.33   30.90
   8   0  -1  657.73   29.80
  -8   0   1  664.13   30.70
  -8   0   1  727.03   30.60
  -8   0   1  703.93   31.80
   8   0  -1  706.93   31.10
  -6   0   1  166.28   12.10
   6   0  -1  155.38   10.80
   6   0  -1  167.88   12.10
  -6   0   1  174.08   11.10
  -6   0   1  143.49   12.30
   6   0  -1  168.48   11.70
   4   0  -1 2345.37   87.69
   4   0  -1 2384.26   87.79
  -4   0   1 2225.08   87.79
   4   0  -1 2348.27   88.29
  -4   0   1 2506.45   87.99
  -4   0   1 2335.97   88.29
   2   0  -1 2755.72   98.09
   2   0  -1 2680.83   98.29
  -2   0   1 2839.22   99.39
   2   0  -1 2902.31   97.89
  -2   0   1 2246.08   97.89
  -2   0   1 2742.63   97.69
  -2   0   1 2326.17   97.29
   0   0   1  217.78   13.40
   0   0  -1  235.58   12.10
   0   0  -1  216.98   14.50
   0   0   1  248.58   15.10
   2   0   1 1426.66   55.29
   2   0   1 1409.46   55.09
  -2   0  -1 1450.45   54.99
  -2   0  -1 1398.86   55.19
   4   0   1   10.20    5.70
   4   0   1    8.40    7.10
  -4   0  -1   20.50    6.70
  -4   0  -1   21.40    6.70
   4   0   1   20.40    5.80
  -6   0  -1 1068.19   46.10
   6   0   1 1095.39   45.90
   6   0   1 1085.89   46.00
   6   0   1 1094.99   44.40
  -6   0  -1 1102.39   46.00
   8   0   1  874.71   41.10
   8   0   1  950.70   41.20
  -8   0  -1  894.21   41.50
  -8   0  -1  934.61   41.10
   8   0   1  890.51   39.20
 -10   0  -1   80.29   14.40
  10   0   1   88.59   14.80
 -10   0  -1   78.99   14.60
  10   0   1   90.39   12.80
  10   0   1   64.19   14.00
 -12   0  -1  158.28   19.20
 -12   0  -1  155.48   19.50
  12   0   1  157.98   19.00
  12   0   1  175.78   20.40
  12   0   1  150.38   18.40
  14   0   1   53.99   19.60
 -14   0  -1   43.80   21.30
  14   0   1   46.30   15.30
  14   0   1   44.40   18.60
 -14   0  -1   68.59   18.40
  16   0   1  -12.10   15.70
 -16   0  -1   56.89   24.00
  16   0   1  -23.80   23.50
  16   0   1   24.20   24.70
  16   0   1   34.00   22.50
 -16   0  -1   14.10   22.70
 -17  -1   1  -12.40   17.10
  17  -1  -1   21.30   16.70
  17  -1  -1   27.60   21.50
 -17  -1   1   41.90   20.40
  17   1  -1    2.30   17.70
  17   1  -1  -23.50   21.60
  17   1  -1   27.70   18.80
 -17   1   1   28.30   17.20
 -17   1   1   48.40   18.30
  17   1  -1   52.59   14.90
  15  -1  -1    7.70   12.80
  15  -1  -1   -7.80   15.20
 -15  -1   1   -6.30   14.10
 -15  -1   1   12.80   13.50
  15   1  -1    2.20   14.90
  15   1  -1   10.80   13.50
 -15   1   1   10.60   15.70
 -15   1   1   -7.20   14.10
 -13  -1   1   26.30   12.10
 -13  -1   1   17.20   13.50
  13  -1  -1   16.10   11.00
 -13  -1   1   -7.60   12.50
  13   1  -1   21.70   10.70
  13   1  -1   18.00   10.50
  13   1  -1   19.40   14.30
 -13   1   1   28.70   13.40
 -13   1   1   22.00   12.00
 -11  -1   1   13.10    9.80
 -11  -1   1   11.60   11.70
 -11  -1   1   -3.40   10.60
  11  -1  -1    6.20   10.80
  11  -1  -1   12.00    9.00
 -11   1   1   10.90   10.30
  11   1  -1   -5.80    8.60
  11   1  -1    7.70    9.00
 -11   1   1   -7.50    8.70
 -11   1   1   16.00   11.70
  11   1  -1    6.20   10.10
   9  -1  -1  614.74   30.90
  -9  -1   1  622.14   30.80
   9  -1  -1  639.14   29.10
   9  -1  -1  635.64   27.40
  -9  -1   1  593.84   30.10
  -9  -1   1  642.34   29.30
   9   1  -1  633.94   30.40
  -9   1   1  656.73   28.80
  -9   1   1  627.54   30.00
   9   1  -1  610.14   29.60
   9   1  -1  638.74   28.60
  -9   1   1  586.14   28.70
  -7  -1   1 1528.95   61.59
  -7  -1   1 1628.54   61.09
   7  -1  -1 1500.85   62.09
  -7  -1   1 1503.95   60.89
   7  -1  -1 1495.25   60.39
  -7   1   1 1513.75   60.59
   7   1  -1 1594.64   61.59
   7   1  -1 1606.64   60.69
  -7   1   1 1677.33   60.49
   7   1  -1 1527.65   60.59
  -7   1   1 1474.55   59.89
   5  -1  -1  692.73   29.10
  -5  -1   1  724.33   30.00
  -5  -1   1  746.93   29.90
   5  -1  -1  729.13   30.60
  -5  -1   1  709.93   30.60
   5   1  -1  725.73   29.60
   5   1  -1  705.83   30.20
  -5   1   1  705.53   29.20
   5   1  -1  729.93   29.70
  -3  -1   1 2489.05   92.99
  -3  -1   1 2442.46   92.59
  -3  -1   1 2521.75   92.49
   3  -1  -1 2539.15   93.29
  -3  -1   1 2497.25   92.99
   3   1  -1 2510.75   92.59
  -3   1   1 2473.65   93.29
   3   1  -1 2497.95   92.59
   3   1  -1 2441.26   92.89
   1  -1  -1  897.91   39.60
   1  -1  -1  970.10   38.40
  -1  -1   1 1010.20   39.00
  -1  -1   1 1067.89   38.80
  -1  -1   1 1167.78   39.30
   1   1  -1 1070.89   39.00
   1   1  -1  944.51   38.70
   1   1  -1 1118.19   39.30
   1  -1   1  225.58   12.00
  -1  -1  -1  210.48   11.60
   1  -1   1  184.68   13.20
  -1  -1  -1  236.28   11.20
   1   1   1  230.08   11.50
  -1   1  -1  195.48   13.40
  -1   1  -1  222.78   11.90
   1   1   1  227.68   11.60
   3  -1   1  151.68   11.70
  -3  -1  -1  136.89   11.40
   3  -1   1  133.19   13.80
  -3  -1  -1  153.88   10.90
  -3   1  -1  130.79   13.00
   3   1   1  131.69   11.40
   3   1   1  136.79   10.80
  -3   1  -1  136.79   12.30
   5  -1   1  485.15   24.80
  -5  -1  -1  533.95   25.10
   5  -1   1  505.15   23.30
   5  -1   1  516.65   27.00
  -5  -1  -1  500.45   25.60
  -5   1  -1  497.55   26.00
   5   1   1  543.45   25.10
   5   1   1  536.55   24.70
  -5   1  -1  544.95   26.00
   5   1   1  517.25   25.00
   7  -1   1 1654.83   68.49
   7  -1   1 1686.63   65.99
  -7  -1  -1 1649.63   67.99
  -7  -1  -1 1795.42   68.29
   7  -1   1 1699.43   67.69
   7   1   1 1655.73   67.79
   7   1   1 1679.53   67.59
  -7   1  -1 1654.83   68.19
  -7   1  -1 1728.23   68.09
   7   1   1 1662.33   66.69
   9  -1   1  321.37   20.20
   9  -1   1  303.87   24.50
  -9  -1  -1  341.17   23.50
   9  -1   1  321.57   22.80
  -9  -1  -1  353.76   25.10
  -9   1  -1  327.77   25.20
  -9   1  -1  306.47   23.80
   9   1   1  345.97   20.90
   9   1   1  327.57   23.60
   9   1   1  345.07   23.70
  11  -1   1   40.60   16.30
  11  -1   1   26.70   10.90
  11  -1   1   27.70   12.60
 -11  -1  -1   43.10   15.60
 -11  -1  -1   33.10   13.60
  11   1   1   48.90   12.90
  11   1   1   24.00   11.80
  11   1   1   39.10   13.00
 -11   1  -1   39.40   16.40
 -11   1  -1   51.19   15.70
  13  -1   1   84.39   20.30
 -13  -1  -1   67.89   17.50
  13  -1   1  128.59   17.50
  13  -1   1   92.99   18.80
 -13  -1  -1  100.09   19.10
  13  -1   1   91.29   13.70
  13   1   1   81.69   16.40
 -13   1  -1   93.89   18.50
 -13   1  -1   83.79   19.60
  13   1   1   88.89   17.20
  13   1   1  126.19   19.50
 -15  -1  -1    5.10   20.20
  15  -1   1   22.50   23.00
  15  -1   1    6.10   20.70
 -15  -1  -1  -11.10   18.90
  15   1   1    4.20   20.30
 -15   1  -1  -14.10   22.90
  15   1   1   -8.10   15.10
  15   1   1  -14.30   19.10
 -15   1  -1  -28.50   20.40
 -18  -2   1   38.60   22.90
 -18  -2   1   15.80   21.70
  18  -2  -1   35.40   25.30
  18  -2  -1   68.69   18.50
 -18  -2   1    9.80   22.00
 -18   2   1   37.30   20.60
  18   2  -1   47.10   16.70
 -18   2   1   18.90   22.40
  18   2  -1   48.40   28.60
  18   2  -1   37.50   20.70
  18   2  -1   45.50   19.60
 -18   2   1   43.00   19.10
 -16  -2   1    9.10   16.50
  16  -2  -1   37.60   19.50
  16  -2  -1   30.80   14.00
 -16  -2   1   13.30   18.70
  16   2  -1   39.20   17.80
 -16   2   1   30.70   15.30
  16   2  -1   38.40   14.40
  16   2  -1   18.10   15.70
 -16   2   1   22.60   18.40
 -14  -2   1    1.10   12.40
 -14  -2   1   18.80   15.30
  14  -2  -1   13.10   11.10
  14  -2  -1    8.60   14.00
 -14   2   1    5.20   17.30
  14   2  -1   19.20   12.90
  14   2  -1    3.40   12.60
 -14   2   1    0.70   15.00
  14   2  -1    7.00   15.20
 -12  -2   1   26.40   12.40
  12  -2  -1   16.50   12.00
  12  -2  -1   19.30   10.10
 -12  -2   1   18.70   11.80
 -12  -2   1   27.30   12.90
 -12   2   1   20.80   11.10
  12   2  -1   21.80   11.70
 -12   2   1   19.80   10.40
  12   2  -1   19.90   10.60
 -12   2   1   15.90   12.70
  12   2  -1   16.60    9.80
 -10  -2   1  185.48   18.60
  10  -2  -1  185.48   19.10
 -10  -2   1  175.08   17.10
 -10  -2   1  191.48   19.00
  10  -2  -1  182.88   16.40
  10   2  -1  160.08   16.30
 -10   2   1  170.68   15.80
  10   2  -1  170.48   17.20
 -10   2   1  150.08   16.80
  10   2  -1  184.98   17.40
 -10   2   1  181.68   18.00
  -8  -2   1 1873.21   74.29
  -8  -2   1 1919.01   73.49
   8  -2  -1 1836.52   72.39
   8  -2  -1 1863.81   74.59
  -8  -2   1 1874.71   73.49
  -8   2   1 1826.42   72.49
   8   2  -1 1915.61   74.29
  -8   2   1 1971.60   72.49
   8   2  -1 1875.11   73.29
   8   2  -1 1895.31   73.19
  -8   2   1 1786.72   71.89
  -6  -2   1 1561.44   61.69
  -6  -2   1 1586.24   61.49
  -6  -2   1 1579.64   62.29
   6  -2  -1 1575.04   62.39
   6   2  -1 1541.05   62.09
   6   2  -1 1568.34   61.39
   6   2  -1 1603.04   61.39
  -4  -2   1 1507.85   54.89
  -4  -2   1 1447.46   55.59
  -4  -2   1 1450.75   54.99
  -4  -2   1 1377.16   55.49
   4  -2  -1 1398.26   55.59
  -4   2   1 1340.97   55.69
   4   2  -1 1412.06   54.79
   4   2  -1 1430.16   54.89
   4   2  -1 1434.96   55.39
  -2  -2   1 2688.33   94.79
  -2  -2   1 2627.64   95.29
  -2  -2   1 2698.83   95.19
  -2  -2   1 2455.15   94.69
   2  -2  -1 2509.05   95.09
   2   2  -1 2596.64   94.89
   2   2  -1 2515.55   95.29
  -2   2   1 2503.75   95.79
  -2   2   1 2281.07   94.79
   2   2  -1 2636.04   94.89
   0  -2   1  810.72   30.40
   0  -2   1  773.02   29.60
   0  -2  -1  749.23   29.60
   0   2  -1  715.03   29.10
   0   2  -1  722.53   29.70
   0   2  -1  793.52   30.60
   0   2   1  730.43   29.50
  -2  -2  -1  102.09    9.50
  -2  -2  -1  103.49    8.80
   2  -2   1  116.29   12.10
   2   2   1  109.39    9.60
  -2   2  -1  124.69   11.10
   2   2   1  113.09    9.20
   4  -2   1  202.58   13.80
  -4  -2  -1  243.68   14.60
  -4  -2  -1  210.38   15.50
   4  -2   1  223.18   15.50
  -4   2  -1  213.18   18.20
   4   2   1  241.38   14.50
   4   2   1  230.88   14.80
   4   2   1  236.88   14.90
  -4   2  -1  222.58   15.80
  -6  -2  -1 1942.81   73.99
   6  -2   1 1873.81   73.99
  -6  -2  -1 1830.72   74.69
  -6   2  -1 1880.81   75.29
   6   2   1 1853.61   74.09
   6   2   1 1927.21   73.59
   6   2   1 1849.02   74.59
  -6   2  -1 1903.11   74.89
  -8  -2  -1 1156.48   48.50
   8  -2   1 1081.69   48.20
   8  -2   1 1122.29   48.00
  -8  -2  -1 1096.69   49.20
  -8   2  -1 1131.29   48.90
  -8   2  -1 1106.39   49.40
   8   2   1 1087.99   48.30
   8   2   1 1128.99   49.40
   8   2   1 1153.48   47.40
 -10  -2  -1   40.60   12.70
  10  -2   1   41.50   14.00
 -10  -2  -1   41.10   13.40
  10  -2   1   37.50   12.40
 -10   2  -1   51.49   14.30
 -10   2  -1   23.00   13.10
  10   2   1   42.90   11.80
  10   2   1   19.10   12.10
 -12  -2  -1   15.80   15.30
  12  -2   1   30.40   14.50
 -12  -2  -1   40.10   16.00
  12   2   1   32.00   14.20
 -12   2  -1   43.70   17.60
  12   2   1   45.20   15.60
 -12   2  -1   41.20   16.20
  12   2   1   61.99   14.80
 -14  -2  -1  -13.80   17.30
  14  -2   1  -21.80   15.60
 -14  -2  -1  -37.00   18.00
  14  -2   1   -9.10   18.60
  14   2   1   -3.60   13.90
  14   2   1  -16.00   17.10
  14   2   1  -16.60   16.10
 -14   2  -1   -1.00   21.60
 -14   2  -1   12.90   17.70
 -16  -2  -1   24.40   23.40
 -16  -2  -1   18.10   22.60
  16  -2   1   45.10   23.60
 -16   2  -1   57.99   32.60
  16   2   1   77.89   23.60
  16   2   1   39.40   20.80
  16   2   1   92.99   18.80
 -16   2  -1   58.79   23.00
  17  -3  -1   67.39   20.40
 -17  -3   1  108.79   22.90
 -17  -3   1   39.20   20.20
  17  -3  -1   56.79   16.40
 -17  -3   1   65.99   20.50
 -17   3   1   72.09   23.30
  17   3  -1   66.99   19.90
  17   3  -1   75.89   20.30
  17   3  -1   60.29   17.60
 -17   3   1   91.49   19.30
  15  -3  -1   -2.30   17.10
 -15  -3   1   55.69   15.40
  15  -3  -1   25.40   12.40
 -15  -3   1   11.90   17.30
  15   3  -1   31.10   15.30
 -15   3   1   23.80   18.30
 -15   3   1    8.70   14.90
  15   3  -1   20.20   13.90
  15   3  -1   30.60   14.30
 -13  -3   1    2.40   12.10
  13  -3  -1   23.70   24.00
 -13  -3   1   -1.70   21.50
  13  -3  -1   -1.10   10.30
  13   3  -1   -1.60   12.60
  13   3  -1    4.20   14.00
 -13   3   1    1.40   11.80
  13   3  -1   -0.60   11.20
 -13   3   1   13.90   12.40
  11  -3  -1  122.99   12.70
  11  -3  -1  113.99   15.80
 -11  -3   1  104.49   23.00
 -11  -3   1   94.79   13.60
 -11  -3   1  102.79   16.10
  11   3  -1  105.69   14.50
 -11   3   1  119.19   13.80
  11   3  -1  162.78   17.00
  11   3  -1  115.39   14.80
 -11   3   1  116.79   13.90
 -11   3   1  133.29   15.90
  -9  -3   1 1319.57   52.09
   9  -3  -1 1253.67   53.09
   9  -3  -1 1246.48   50.19
  -9  -3   1 1238.38   53.29
  -9  -3   1 1240.38   51.99
   9   3  -1 1256.57   51.49
   9   3  -1 1197.88   51.79
   9   3  -1 1260.47   52.89
  -7  -3   1 1570.44   63.39
  -7  -3   1 1557.84   62.29
  -7  -3   1 1625.04   62.19
   7  -3  -1 1570.94   63.09
  -7   3   1 1460.35   63.19
   7   3  -1 1628.64   63.19
   7   3  -1 1572.24   62.29
   7   3  -1 1564.14   62.09
   5  -3  -1 2634.24  102.09
  -5  -3   1 2685.43  101.09
  -5  -3   1 2696.13  102.09
  -5  -3   1 2801.82  102.19
  -5  -3   1 2662.33  101.19
  -5   3   1 2502.85  101.89
   5   3  -1 2632.24  101.19
   5   3  -1 2759.42  101.99
   5   3  -1 2729.33  101.29
  -3  -3   1 8417.16  307.87
  -3  -3   1 8380.16  307.87
  -3  -3   1 8425.56  307.17
  -3  -3   1 8362.36  307.17
  -3  -3   1 8528.45  308.07
  -3   3   1 8085.89  308.07
  -3   3   1 7981.20  308.07
   3   3  -1 8724.23  307.47
   3   3  -1 8486.85  307.37
  -1  -3   1  693.13   26.20
   1  -3  -1  622.14   25.70
  -1  -3   1  607.44   25.30
   1   3  -1  635.04   26.20
  -1   3   1  571.84   25.40
   1   3  -1  579.84   24.60
   1   3  -1  603.94   25.40
  -1  -3  -1 2320.27   91.69
   1  -3   1 2561.24   91.39
  -1   3  -1 2636.44   93.49
   1   3   1 2440.06   91.79
   1   3   1 2246.28   91.19
   3  -3   1  654.33   32.20
  -3  -3  -1  672.43   31.20
  -3  -3  -1  738.13   30.40
   3   3   1  750.32   30.80
   3   3   1  742.23   30.90
   3   3   1  753.22   31.20
  -5  -3  -1  921.01   37.10
  -5  -3  -1  838.62   38.00
   5  -3   1  882.21   37.70
   5   3   1  878.51   36.90
  -5   3  -1  818.72   40.70
   5   3   1  857.51   37.20
   5   3   1  830.52   37.60
  -7  -3  -1 2112.99   79.39
   7  -3   1 2018.70   78.69
   7  -3   1 1994.60   78.69
  -7  -3  -1 1973.20   79.79
   7   3   1 2039.60   78.99
  -7   3  -1 1970.60   79.79
   7   3   1 2003.40   79.99
   7   3   1 1908.81   78.69
  -9  -3  -1  300.17   21.70
  -9  -3  -1  223.78   23.00
   9  -3   1  255.57   21.00
   9  -3   1  217.08   19.90
   9   3   1  293.27   22.80
   9   3   1  232.08   20.80
  -9   3  -1  200.68   25.90
   9   3   1  269.17   22.70
  -9   3  -1  221.18   22.30
  11  -3   1    5.40   13.80
 -11  -3  -1   10.60   12.40
  11  -3   1   12.30   10.90
 -11  -3  -1    6.60   13.30
 -11   3  -1   -5.10   13.80
  11   3   1   10.50   14.00
  11   3   1    7.40   11.80
 -11   3  -1   20.70   15.60
  11   3   1   17.20   14.00
 -13  -3  -1   -0.50   16.90
  13  -3   1   32.70   17.70
 -13  -3  -1   10.90   15.70
  13  -3   1   32.10   14.10
  13   3   1   11.60   14.70
  13   3   1   -2.70   14.30
 -13   3  -1   19.50   21.40
  13   3   1   13.50   16.90
 -13   3  -1    1.30   15.50
  15  -3   1   44.70   17.20
  15  -3   1   31.30   20.50
 -15  -3  -1   35.90   21.10
 -15  -3  -1   38.30   21.80
  15   3   1   49.90   20.40
  15   3   1   37.20   16.60
 -15   3  -1   18.30   20.90
  15   3   1   25.70   19.00
 -15   3  -1   31.70   24.30
  18  -4  -1   91.49   18.90
 -18  -4   1   66.19   24.80
 -18  -4   1   -7.10   22.80
  18  -4  -1   48.30   24.40
 -18  -4   1   65.49   28.10
 -18   4   1   86.99   20.40
 -18   4   1   36.50   19.70
  18   4  -1   12.30   23.50
  18   4  -1   44.30   22.90
  18   4  -1   35.10   19.80
 -18   4   1   59.99   34.10
 -16  -4   1    2.10   17.30
 -16  -4   1   49.10   18.60
  16  -4  -1  -21.30   17.70
  16  -4  -1   25.10   13.80
 -16  -4   1   59.29   17.70
 -16   4   1   32.80   16.10
  16   4  -1   41.30   15.10
  16   4  -1   44.10   18.30
  16   4  -1   41.00   17.50
 -16   4   1   23.60   22.60
  14  -4  -1   15.30   14.20
  14  -4  -1   -4.50   10.60
 -14  -4   1    2.50   13.00
 -14  -4   1   21.10   14.90
 -14   4   1   31.20   14.70
  14   4  -1   16.40   14.90
 -14   4   1    5.30   17.30
  14   4  -1    7.60   12.80
  14   4  -1   -1.20   13.90
  12  -4  -1   20.40   12.30
 -12  -4   1    7.70   11.70
 -12  -4   1   -3.80   10.70
  12  -4  -1    3.60    9.30
  12   4  -1   10.50   11.50
  12   4  -1   16.00   12.40
 -12   4   1   11.20   10.80
  10  -4  -1  290.97   22.50
 -10  -4   1  297.87   22.80
 -10  -4   1  325.77   22.70
 -10  -4   1  357.86   24.60
  10   4  -1  339.47   21.60
  10   4  -1  339.97   22.80
  10   4  -1  318.07   22.60
  -8  -4   1 1742.13   70.19
   8  -4  -1 1818.02   69.89
  -8  -4   1 1818.42   68.89
  -8  -4   1 1683.53   68.79
   8   4  -1 1744.23   69.69
   8   4  -1 1695.13   68.69
  -8   4   1 1712.63   69.99
   8   4  -1 1642.74   68.59
   6  -4  -1 1670.23   67.99
  -6  -4   1 1791.32   66.89
  -6  -4   1 1723.03   68.29
  -6  -4   1 1774.12   68.29
  -6  -4   1 1696.63   67.09
  -6   4   1 1556.84   67.89
   6   4  -1 1755.82   67.89
   6   4  -1 1684.73   67.19
   6   4  -1 1739.23   67.19
  -4  -4   1 1713.73   65.69
  -4  -4   1 1678.63   66.69
  -4  -4   1 1749.72   66.79
  -4  -4   1 1781.22   66.09
   4   4  -1 1696.43   66.09
  -4   4   1 1605.24   67.09
  -4   4   1 1623.44   67.39
   4   4  -1 1803.02   66.09
   2  -4  -1 1412.36   53.59
  -2  -4   1 1279.07   52.59
  -2  -4   1 1485.15   53.59
  -2   4   1 1346.47   53.39
   2   4  -1 1381.86   53.79
   2   4  -1 1330.07   52.39
   2   4  -1 1268.97   52.89
   2   4  -1 1346.57   52.19
   0  -4  -1   36.50    6.20
   0  -4   1   30.30    5.10
   0  -4  -1   29.30    5.90
   0  -4   1   30.60    6.00
   0   4   1   22.00    6.10
   0   4  -1   38.40    7.90
  -2  -4  -1  898.81   39.00
   2   4   1  935.11   39.00
   2   4   1  991.40   38.60
  -2   4  -1  985.10   41.80
  -4  -4  -1  486.35   24.80
  -4  -4  -1  501.45   23.50
   4   4   1  500.25   23.80
   4   4   1  467.65   24.00
   4   4   1  490.85   24.70
  -6  -4  -1 1295.07   55.79
   6  -4   1 1353.76   54.79
  -6  -4  -1 1376.26   55.49
   6  -4   1 1336.07   54.99
   6   4   1 1386.66   56.09
   6   4   1 1361.66   55.59
   6   4   1 1338.47   54.99
   8  -4   1  841.92   37.20
  -8  -4  -1  838.72   38.10
  -8  -4  -1  792.02   39.50
   8  -4   1  768.42   36.40
   8   4   1  797.82   37.60
   8   4   1  803.32   38.50
   8   4   1  846.22   38.10
  -8   4  -1  736.13   37.90
  10  -4   1   49.99   12.70
 -10  -4  -1   32.10   14.60
  10  -4   1   57.69   12.00
 -10  -4  -1   44.60   13.70
 -10   4  -1   34.40   17.30
  10   4   1   27.10   13.90
  10   4   1   30.10   12.40
  10   4   1   38.40   14.00
 -10   4  -1   47.70   15.20
 -12  -4  -1   27.50   14.10
 -12  -4  -1   21.20   16.50
  12  -4   1   26.40   13.20
  12  -4   1   38.60   16.50
 -12   4  -1    5.00   16.30
 -12   4  -1   14.70   19.70
  12   4   1   39.20   14.10
  12   4   1   37.00   16.90
  12   4   1    0.20   13.60
 -14  -4  -1    9.20   17.30
  14  -4   1   14.10   18.70
  14  -4   1    5.90   15.20
 -14  -4  -1   -4.70   19.90
  14   4   1  -14.50   16.60
 -14   4  -1   -5.50   18.20
 -14   4  -1   -6.30   23.60
  14   4   1    5.30   17.60
  14   4   1   11.90   16.90
 -16  -4  -1   57.59   23.30
 -16  -4  -1    0.20   24.50
  16  -4   1  -21.90   22.00
  16  -4   1   49.80   19.60
  16   4   1   69.89   24.20
 -16   4  -1   32.70   24.80
  16   4   1   46.30   21.30
 -16   4  -1   48.40   30.30
 -17  -5   1   -1.20   20.90
 -17  -5   1   29.40   20.20
  17  -5  -1   11.20   21.10
  17  -5  -1   41.10   15.40
 -17  -5   1   60.89   20.00
  17   5  -1  -29.30   20.50
 -17   5   1  -11.80   16.90
  17   5  -1   27.40   16.60
  17   5  -1  -15.20   18.50
  15  -5  -1   10.30   12.00
 -15  -5   1   -9.70   15.40
  15  -5  -1    5.50   17.60
 -15  -5   1   -2.40   17.70
 -15  -5   1  -14.50   15.70
  15   5  -1   36.00   15.10
 -15   5   1   23.80   16.10
  15   5  -1  -10.90   16.30
  15   5  -1   -3.80   15.00
 -13  -5   1   31.40   15.30
  13  -5  -1   47.70   18.30
 -13  -5   1    4.90   12.50
 -13  -5   1   17.80   15.00
  13   5  -1   -3.00   12.10
  13   5  -1   34.50   14.00
  13   5  -1   30.40   14.90
 -11  -5   1    4.50   11.30
 -11  -5   1   33.20   16.80
  11  -5  -1   -2.40   11.40
 -11  -5   1    9.70   12.20
  11   5  -1   14.40   12.20
  11   5  -1    6.80   11.10
  -9  -5   1  353.26   24.30
  -9  -5   1  392.16   22.50
  -9  -5   1  388.16   25.00
   9  -5  -1  396.96   24.60
   9   5  -1  355.96   22.60
   9   5  -1  375.86   24.60
   9   5  -1  337.47   23.50
  -7  -5   1  774.42   34.60
  -7  -5   1  751.52   35.80
  -7  -5   1  786.62   34.10
  -7  -5   1  758.02   35.40
   7  -5  -1  758.32   35.00
   7   5  -1  813.32   35.70
  -7   5   1  737.83   36.50
   7   5  -1  790.02   34.60
   7   5  -1  720.03   34.50
  -5  -5   1  368.56   21.40
  -5  -5   1  370.36   18.80
  -5  -5   1  390.16   20.90
  -5  -5   1  349.27   19.90
   5   5  -1  353.96   20.60
   5   5  -1  391.96   19.90
  -5   5   1  330.87   22.80
  -5   5   1  367.46   23.30
  -3  -5   1  950.90   37.80
   3  -5  -1  940.31   39.90
  -3  -5   1  887.61   38.90
  -3  -5   1  899.31   38.60
  -3  -5   1  982.30   39.20
  -3  -5   1  950.20   37.30
  -3   5   1  951.90   40.80
   3   5  -1  907.91   38.40
   3   5  -1  959.80   37.90
  -3   5   1  893.61   39.80
   1  -5  -1  618.64   27.40
  -1  -5   1  658.03   27.60
  -1  -5   1  577.44   25.90
   1   5  -1  571.44   26.20
  -1   5   1  586.94   27.80
   1   5  -1  599.74   28.00
   1  -5   1   19.20    6.50
  -1  -5  -1   10.90    6.30
  -1  -5  -1    5.80    6.50
   1   5   1   11.50    5.50
  -1   5  -1   17.40    8.60
   1   5   1   13.80    5.70
  -3  -5  -1   40.40    9.30
  -3  -5  -1   37.00    7.30
  -3   5  -1   23.30   11.40
   3   5   1   39.80    7.70
   3   5   1   33.00    7.30
   3   5   1   31.80    8.30
  -5  -5  -1  317.77   18.80
  -5  -5  -1  306.57   20.80
   5   5   1  317.17   21.00
   5   5   1  301.07   19.70
   5   5   1  323.17   19.30
  -7  -5  -1 1093.49   45.50
  -7  -5  -1 1030.50   46.70
   7   5   1 1011.70   46.00
   7   5   1 1044.70   46.30
   7   5   1 1047.20   45.60
  -9  -5  -1  179.88   21.90
  -9  -5  -1  223.18   22.60
   9  -5   1  153.28   17.80
   9  -5   1  190.78   21.10
  -9   5  -1  149.39   18.40
   9   5   1  195.58   20.90
   9   5   1  195.28   22.30
  11  -5   1   38.30   11.70
  11  -5   1   52.79   14.40
 -11  -5  -1   16.70   14.80
 -11  -5  -1   39.30   14.40
  11   5   1   24.50   15.50
  11   5   1    7.60   14.00
  11   5   1   40.20   15.10
 -11   5  -1   23.10   16.60
 -11   5  -1   33.60   18.30
  13  -5   1   82.19   15.40
 -13  -5  -1   53.49   17.90
  13  -5   1   95.49   21.00
 -13  -5  -1   75.59   19.40
  13   5   1  105.69   18.30
  13   5   1   89.59   19.10
  13   5   1  102.29   19.10
 -13   5  -1   72.69   18.60
 -13   5  -1   93.99   24.20
 -15  -5  -1  -31.50   21.70
 -15  -5  -1  -22.40   19.80
  15  -5   1  -31.60   19.50
  15  -5   1   11.10   17.70
  15   5   1   40.20   20.70
  15   5   1  -29.80   21.60
 -15   5  -1    3.30   20.50
 -15   5  -1   -5.90   25.00
  15   5   1   -2.90   23.30
 -16  -6   1   -4.00   17.80
 -16  -6   1   -7.90   20.00
 -16  -6   1   21.50   18.90
  16  -6  -1   -2.50   18.10
 -16   6   1  -14.20   15.90
  16   6  -1   34.20   17.70
  16   6  -1  -26.30   20.20
  16   6  -1   23.20   17.30
  14  -6  -1   34.00   16.80
 -14  -6   1  -27.40   16.10
 -14  -6   1    4.90   13.80
 -14  -6   1    3.10   15.50
  14   6  -1   -2.60   12.90
  14   6  -1  -18.80   14.90
  14   6  -1   16.90   15.60
  12  -6  -1   21.80   13.70
 -12  -6   1    2.10   13.50
 -12  -6   1   19.00   14.80
 -12  -6   1   35.40   13.40
  12   6  -1    9.70   13.00
  12   6  -1   27.60   13.90
  12   6  -1   24.70   13.60
 -10  -6   1   33.60   11.10
  10  -6  -1   16.30   11.20
 -10  -6   1   19.30   12.20
 -10  -6   1   27.20   12.00
  10   6  -1   16.50   12.30
  10   6  -1   40.40   12.50
  10   6  -1   35.20   13.40
  -8  -6   1  138.59   17.50
  -8  -6   1  124.09   15.30
  -8  -6   1  130.49   13.80
  -8  -6   1  146.89   15.70
   8  -6  -1  139.79   18.60
  -8   6   1  138.29   18.10
  -8   6   1  110.19   15.00
   8   6  -1  177.98   16.50
   8   6  -1  155.78   16.50
   8   6  -1  134.29   14.60
  -6  -6   1   43.70   10.60
  -6  -6   1   57.19    8.60
  -6  -6   1   42.30    9.90
  -6  -6   1   51.59    9.70
  -6   6   1   34.10   11.50
   6   6  -1   46.80   10.30
   6   6  -1   55.89    9.50
  -6   6   1   39.10   12.50
  -4  -6   1  757.42   32.60
  -4  -6   1  714.63   32.10
  -4  -6   1  682.53   32.70
  -4  -6   1  729.03   30.70
  -4  -6   1  737.53   31.90
  -4   6   1  631.74   33.90
   4   6  -1  796.32   31.70
  -4   6   1  716.03   34.50
   4   6  -1  716.83   32.40
  -2  -6   1 1475.55   57.79
  -2  -6   1 1562.54   59.09
   2  -6  -1 1548.15   59.39
  -2  -6   1 1341.87   57.59
   2   6  -1 1513.35   57.29
  -2   6   1 1461.45   59.49
   2   6  -1 1404.56   57.49
   2   6  -1 1450.45   59.69
   0  -6   1   16.40    6.60
   0  -6  -1   36.90    7.60
   0   6  -1   18.10    9.70
   0   6   1   24.30    9.30
  -2  -6  -1   11.70    8.80
  -2  -6  -1    0.70    6.60
  -2   6  -1    5.30    9.40
   2   6   1    0.90    7.90
   2   6   1   10.40    6.50
   2   6   1    6.00    6.80
  -4  -6  -1   43.20    8.20
  -4  -6  -1   41.00   10.30
   4   6   1   33.00   10.60
  -4   6  -1   30.20   11.10
   4   6   1   61.89    9.50
   4   6   1   41.30    9.90
  -6  -6  -1  427.06   25.80
  -6  -6  -1  432.36   23.50
   6   6   1  408.86   24.30
  -6   6  -1  395.56   29.80
   6   6   1  414.06   25.90
   6   6   1  410.86   24.90
  -8  -6  -1  428.06   28.20
  -8  -6  -1  443.36   27.20
   8   6   1  440.76   28.10
   8   6   1  465.75   28.70
   8   6   1  470.35   28.60
  10  -6   1   78.29   14.70
 -10  -6  -1   75.49   15.10
 -10  -6  -1   78.19   15.40
  10   6   1   67.29   15.90
  10   6   1   82.19   15.40
  10   6   1   62.69   15.00
  12  -6   1  115.19   21.20
 -12  -6  -1  103.59   20.10
 -12  -6  -1  146.69   19.40
  12  -6   1  135.39   15.70
  12   6   1  133.29   19.60
  12   6   1  163.98   19.80
  12   6   1  125.79   18.00
  14  -6   1   34.20   19.60
  14  -6   1   44.00   15.90
 -14  -6  -1   66.59   20.70
 -14  -6  -1   54.09   20.60
 -14   6  -1   15.40   20.70
  14   6   1   44.50   18.50
  14   6   1   -2.20   20.70
  14   6   1   32.60   19.90
 -15  -7   1   30.90   17.20
 -15  -7   1   38.70   18.80
 -15  -7   1   10.20   18.40
  15  -7  -1   43.70   19.80
  15   7  -1   -8.00   19.10
  15   7  -1   10.60   16.10
  15   7  -1   21.00   17.40
 -13  -7   1   13.50   15.90
 -13  -7   1  -15.40   14.40
 -13  -7   1    8.90   13.20
  13  -7  -1   19.20   16.30
  13   7  -1   -6.20   13.90
  13   7  -1  -24.30   15.10
  13   7  -1   10.00   15.30
 -11  -7   1   19.50   14.80
 -11  -7   1    7.60   11.90
 -11  -7   1   25.20   22.20
  11  -7  -1   16.60   14.10
  11   7  -1   18.20   13.90
  11   7  -1    7.90   11.90
  11   7  -1   39.20   15.60
  -9  -7   1  289.17   22.60
  -9  -7   1  284.97   21.40
  -9  -7   1  287.37   23.20
   9  -7  -1  244.68   22.40
   9   7  -1  282.57   23.10
   9   7  -1  239.38   22.00
  -9   7   1  243.38   25.00
   9   7  -1  273.37   26.20
  -9   7   1  267.77   27.70
  -7  -7   1  528.85   28.10
  -7  -7   1  517.55   28.90
  -7  -7   1  506.25   28.30
  -7  -7   1  526.45   26.00
  -7   7   1  478.95   31.40
  -7   7   1  486.95   29.50
   7   7  -1  503.25   28.20
   7   7  -1  528.55   27.30
  -5  -7   1  577.34   29.40
  -5  -7   1  561.04   28.30
  -5  -7   1  598.64   28.80
  -5  -7   1  602.04   26.30
  -5  -7   1  545.85   27.40
   5   7  -1  608.04   27.90
  -5   7   1  524.65   31.40
   5   7  -1  573.34   28.10
  -5   7   1  545.95   31.30
   3  -7  -1 1100.69   46.50
  -3  -7   1  969.10   44.70
  -3  -7   1 1127.89   45.70
  -3  -7   1 1058.39   44.60
   3   7  -1 1081.19   43.90
  -3   7   1 1162.58   48.00
  -3   7   1 1058.69   47.00
   3   7  -1 1048.00   44.60
   1  -7  -1  245.48   17.90
  -1  -7   1  260.47   15.90
  -1  -7   1  317.57   18.20
  -1  -7   1  208.28   17.60
   1   7  -1  262.47   19.60
  -1   7   1  294.77   20.40
  -1  -7  -1  123.39   14.50
  -1  -7  -1  137.09   15.30
   1  -7   1  139.19   14.40
  -1   7  -1  144.59   17.30
   1   7   1  127.99   12.90
  -3  -7  -1  102.09   12.40
  -3  -7  -1  102.09   12.00
  -3   7  -1   92.99   14.90
   3   7   1  113.69   13.10
   3   7   1  104.79   13.80
   3   7   1  116.49   11.60
  -5  -7  -1  190.08   19.90
  -5  -7  -1  205.68   16.60
   5   7   1  216.48   19.30
   5   7   1  208.18   18.10
  -5   7  -1  196.88   24.10
   5   7   1  210.18   19.80
  -7  -7  -1  584.04   31.80
  -7  -7  -1  615.24   30.00
  -7   7  -1  535.95   36.20
   7   7   1  579.94   31.70
   7   7   1  570.64   31.40
   7   7   1  569.34   34.80
  -9  -7  -1  132.99   16.30
  -9  -7  -1  146.59   18.50
   9   7   1  119.59   17.70
   9   7   1  162.18   17.90
   9   7   1  133.69   17.60
 -11  -7  -1   39.50   16.20
  11  -7   1   58.59   15.70
 -11  -7  -1   24.40   14.40
  11   7   1   13.70   15.10
  11   7   1   26.10   15.80
  11   7   1   33.10   15.60
 -13  -7  -1   12.80   19.00
 -13  -7  -1  -17.10   16.60
  13  -7   1   40.60   20.20
  13   7   1    6.90   17.00
  13   7   1   16.40   20.30
  13   7   1   13.10   19.00
 -15  -7  -1  -11.20   24.50
  15   7   1   13.40   26.20
 -15   7  -1   -0.80   22.20
  15   7   1    6.60   38.30
 -16  -8   1   15.30   22.00
 -16  -8   1    7.30   21.90
  16  -8  -1    2.00   22.20
  16   8  -1  -17.60   21.80
 -14  -8   1    5.20   17.80
 -14  -8   1   15.10   17.00
  14  -8  -1   -5.80   18.50
 -14  -8   1    2.10   16.00
  14   8  -1  -10.80   16.40
 -14   8   1  -23.00   21.30
  14   8  -1   24.60   17.60
  14   8  -1  -11.40   18.20
 -12  -8   1    5.00   14.80
  12  -8  -1  -11.50   16.50
 -12  -8   1   14.00   15.50
 -12  -8   1   -1.50   12.80
  12   8  -1   -7.20   14.00
 -12   8   1   -9.40   19.00
  12   8  -1  -30.10   14.50
  12   8  -1  -15.60   15.40
 -10  -8   1  258.87   22.10
 -10  -8   1  262.67   25.30
 -10  -8   1  245.08   25.40
  10   8  -1  219.38   23.40
 -10   8   1  269.17   28.20
  10   8  -1  257.97   25.40
 -10   8   1  249.68   31.10
  -8  -8   1  981.70   49.40
  -8  -8   1 1038.70   46.20
  -8  -8   1 1089.89   44.20
  -8  -8   1 1021.60   45.90
  -8   8   1 1029.10   47.60
   8   8  -1  984.70   45.00
  -8   8   1  960.50   48.70
   8   8  -1  992.80   46.30
  -6  -8   1  810.42   37.90
  -6  -8   1  868.71   39.00
  -6  -8   1  900.71   36.20
   6   8  -1  772.92   38.20
  -6   8   1  803.12   39.90
   6   8  -1  858.61   37.70
  -6   8   1  762.32   40.30
  -4  -8   1  621.94   30.50
  -4  -8   1  646.74   31.40
  -4  -8   1  601.54   31.20
  -4   8   1  644.54   34.60
   4   8  -1  642.84   30.60
   4   8  -1  678.53   30.20
  -4   8   1  640.04   33.40
   2  -8  -1  426.86   23.80
  -2  -8   1  404.86   22.80
  -2  -8   1  425.96   22.30
  -2  -8   1  424.36   24.00
  -2   8   1  434.36   25.80
   2   8  -1  396.36   25.90
   0  -8  -1    8.90    8.60
   0  -8   1    3.60    8.70
   0   8  -1   15.30   11.10
   0   8   1   13.00   10.70
  -2  -8  -1  273.17   20.10
  -2  -8  -1  269.37   19.50
  -2  -8  -1  278.97   18.60
  -2   8  -1  299.17   23.90
   2   8   1  264.57   19.10
   2   8   1  280.67   18.00
  -4  -8  -1  292.77   22.70
  -4  -8  -1  318.67   23.10
   4   8   1  322.57   22.80
   4   8   1  330.27   22.20
   4   8   1  317.07   21.10
  -6  -8  -1  753.12   34.00
  -6  -8  -1  725.83   36.40
  -6  -8  -1  699.73   50.09
   6   8   1  753.02   36.50
   6   8   1  682.33   36.20
  -6   8  -1  752.72   40.10
  -8  -8  -1  383.96   25.20
  -8  -8  -1  332.67   27.70
   8   8   1  378.56   26.90
  -8   8  -1  333.87   34.00
   8   8   1  337.77   26.90
   8   8   1  349.27   27.90
 -10  -8  -1   12.40   15.50
 -10  -8  -1   -7.00   13.60
  10  -8   1  -10.20   14.40
  10   8   1    1.50   15.10
  10   8   1  -21.40   14.20
 -10   8  -1  -14.70   18.70
  10   8   1   -8.10   14.80
 -12  -8  -1  -26.40   15.30
 -12  -8  -1   11.60   18.10
  12  -8   1    9.90   22.60
 -12   8  -1   -7.10   21.20
  12   8   1    5.00   16.40
  12   8   1  -11.20   17.70
  12   8   1   33.30   18.40
 -14  -8  -1   -6.90   20.60
  14  -8   1   31.90   20.50
  14   8   1    1.00   23.10
  14   8   1  -18.80   25.40
 -15  -9   1   -4.10   21.30
  15  -9  -1   39.20   21.30
 -15  -9   1   -5.90   20.00
  15   9  -1   10.20   20.70
 -13  -9   1    4.90   17.40
 -13  -9   1   23.60   17.30
 -13  -9   1   16.30   14.70
  13   9  -1    3.80   16.10
  13   9  -1    8.50   16.70
 -13   9   1   17.00   23.80
 -11  -9   1   23.30   15.30
 -11  -9   1   41.60   15.90
 -11  -9   1   14.70   14.10
 -11  -9   1   25.60   15.70
  11   9  -1    9.90   13.80
 -11   9   1   58.09   19.90
  11   9  -1   26.30   15.50
  -9  -9   1  387.46   26.70
  -9  -9   1  388.76   27.50
  -9  -9   1  350.36   26.50
  -9  -9   1  344.07   24.00
   9   9  -1  309.77   28.00
  -9   9   1  358.56   32.60
  -9   9   1  349.27   30.70
   9   9  -1  394.16   26.30
  -7  -9   1  395.66   26.60
  -7  -9   1  453.05   27.40
  -7  -9   1  448.76   26.50
  -7  -9   1  456.45   23.80
  -7   9   1  366.96   31.20
  -7   9   1  427.06   30.20
   7   9  -1  429.76   27.70
   7   9  -1  416.46   36.00
  -5  -9   1  429.16   26.90
  -5  -9   1  450.55   25.40
  -5  -9   1  405.46   27.00
  -5   9   1  451.75   29.90
  -5   9   1  409.06   29.20
   5   9  -1  465.25   25.30
   5   9  -1  429.36   26.40
   3  -9  -1  819.72   37.80
  -3  -9   1  725.73   35.60
  -3  -9   1  776.22   37.10
  -3  -9   1  787.62   35.20
  -3   9   1  793.72   39.90
   3   9  -1  768.92   35.60
  -3   9   1  752.62   38.10
   3   9  -1  831.42   35.20
  -1  -9   1   78.49   12.00
   1  -9  -1   92.99   13.10
  -1   9   1   92.19   13.80
   1   9  -1  103.39   23.50
   1  -9   1  163.08   17.90
  -1  -9  -1  170.08   17.00
  -1  -9  -1  155.18   18.00
  -1   9  -1  113.19   26.60
  -3  -9  -1   99.29   14.50
  -3  -9  -1  110.59   12.50
   3   9   1  121.29   12.80
   3   9   1  133.49   13.30
  -3   9  -1  135.59   18.00
  -5  -9  -1  258.87   23.90
  -5  -9  -1  278.37   22.70
   5   9   1  275.47   23.80
   5   9   1  305.37   23.00
  -5   9  -1  250.57   28.00
   5   9   1  230.38   28.70
  -7  -9  -1  523.35   31.40
  -7  -9  -1  470.65   27.60
  -7  -9  -1  437.56   30.10
   7   9   1  473.45   29.80
   7   9   1  466.65   30.90
  -7   9  -1  487.25   35.30
   7   9   1  502.65   30.90
  -9  -9  -1   68.89   13.60
  -9  -9  -1   36.30   16.40
   9   9   1   80.69   16.80
   9   9   1   65.19   17.00
  -9   9  -1   48.80   20.70
   9   9   1   52.59   16.10
 -11  -9  -1   -3.10   15.20
 -11  -9  -1   10.00   16.20
 -11   9  -1   -7.60   22.50
  11   9   1   24.90   18.90
  11   9   1   -6.20   18.10
  11   9   1   14.10   16.80
 -13  -9  -1   -8.60   22.20
 -13  -9  -1   22.30   20.60
  13  -9   1   42.90   21.50
  13   9   1   13.40   24.20
  13   9   1   20.30   21.70
 -14 -10   1    2.60   18.80
 -14 -10   1    5.60   22.90
 -14 -10   1  -27.70   19.20
  14  10  -1    0.70   20.70
 -12 -10   1  -11.30   16.40
 -12 -10   1   18.80   17.60
 -12 -10   1  -23.60   16.10
 -12 -10   1   -9.60   14.90
 -12  10   1  -10.50   21.50
  12  10  -1   17.40   15.90
  12  10  -1   14.40   17.10
 -10 -10   1   24.00   12.90
 -10 -10   1    2.30   13.30
 -10 -10   1   31.00   16.70
 -10  10   1   22.00   19.00
  10  10  -1   14.60   15.20
  10  10  -1   18.00   13.80
 -10  10   1   18.70   19.50
  -8 -10   1   65.89   14.40
  -8 -10   1   71.59   11.30
  -8 -10   1   93.39   13.80
  -8 -10   1   76.89   14.40
   8  10  -1   80.09   16.10
  -8  10   1  120.09   30.70
  -8  10   1   79.39   18.90
   8  10  -1   76.29   15.30
  -6 -10   1  112.09   14.50
  -6 -10   1  125.09   15.70
  -6 -10   1  122.49   14.10
   6  10  -1   91.19   14.90
  -6  10   1   93.19   17.20
  -6  10   1   94.29   18.00
  -4 -10   1  257.27   20.40
  -4 -10   1  259.77   21.90
  -4 -10   1  236.48   21.10
  -4  10   1  245.48   26.30
  -4  10   1  266.07   27.20
   4  10  -1  238.38   22.10
   4  10  -1  299.27   21.30
  -2 -10   1  282.67   22.50
  -2 -10   1  283.97   19.40
   2 -10  -1  290.27   24.50
  -2  10   1  260.47   25.00
   2  10  -1  300.97   24.90
   0 -10  -1    3.30   11.90
   0 -10   1   -4.60   11.10
   0  10  -1   -0.50   11.90
  -2 -10  -1    0.10    9.50
  -2 -10  -1   14.90   10.60
  -2 -10  -1   36.30   12.30
   2  10   1    1.30   10.20
  -2  10  -1   17.40   14.30
   2  10   1   16.90   11.10
  -4 -10  -1   28.10   11.80
  -4 -10  -1    9.30   11.70
  -4 -10  -1   25.30   10.90
   4  10   1   12.00   12.40
  -4  10  -1   15.50   15.60
  -6 -10  -1  161.08   17.00
  -6 -10  -1  131.79   16.90
  -6 -10  -1  200.28   22.50
   6  10   1  154.48   17.80
   6  10   1  169.08   17.20
   6  10   1  124.79   17.00
  -6  10  -1  144.49   21.40
  -8 -10  -1  204.58   24.70
  -8 -10  -1  134.39   17.20
  -8 -10  -1  145.79   18.90
  -8 -10  -1  174.28   20.20
   8  10   1  193.58   20.20
   8  10   1  159.78   19.40
  -8  10  -1  167.98   26.00
   8  10   1  174.28   20.60
 -10 -10  -1   17.20   16.80
 -10 -10  -1   21.10   18.20
 -10 -10  -1   32.50   18.20
 -10 -10  -1   22.60   15.80
 -10  10  -1    7.60   20.60
  10  10   1   29.80   18.60
  10  10   1   26.10   18.20
  10  10   1   37.30   19.30
 -12 -10  -1   55.19   21.70
 -12 -10  -1   21.70   19.00
  12  10   1   72.19   24.30
  12  10   1  -13.30   23.30
 -13 -11   1   -7.00   17.40
 -13 -11   1    5.10   18.90
 -13 -11   1  -12.80   21.00
  13  11  -1  -16.00   20.10
 -11 -11   1    3.70   14.00
 -11 -11   1   -2.30   16.70
 -11 -11   1   13.30   17.00
 -11 -11   1    0.40   16.10
  11  11  -1  -14.30   16.80
 -11  11   1  -13.40   22.80
 -11  11   1   -6.40   22.90
  11  11  -1  -22.10   15.90
  -9 -11   1   76.09   16.40
  -9 -11   1   58.89   16.50
  -9 -11   1   40.70   16.40
  -9 -11   1   59.99   15.50
   9  11  -1   82.49   18.20
  -9  11   1   36.50   20.70
   9  11  -1   58.49   15.00
  -9  11   1   35.50   21.80
  -7 -11   1   65.09   14.70
  -7 -11   1   53.89   13.30
  -7 -11   1   55.39   15.20
  -7  11   1   68.69   18.30
   7  11  -1   39.60   15.80
   7  11  -1   64.49   15.30
  -7  11   1   44.40   18.10
  -5 -11   1   54.39   12.30
  -5 -11   1   40.40   13.90
  -5 -11   1   44.70   12.60
   5  11  -1   42.00   14.70
  -5  11   1   57.69   17.30
   5  11  -1   46.60   13.70
  -3 -11   1  156.78   17.70
  -3 -11   1  192.68   20.40
  -3 -11   1  147.49   19.20
   3 -11  -1  190.88   22.30
   3  11  -1  138.09   16.10
  -3  11   1  146.69   29.90
  -3  11   1  132.99   19.50
  -1 -11   1   55.29   13.40
   1 -11  -1   61.29   13.00
   1  11  -1   85.39   15.90
  -1  11   1   79.39   15.50
  -1 -11  -1   -1.50   11.60
   1 -11   1    3.40   12.20
  -1  11  -1   -1.40   15.20
  -3 -11  -1    8.70    9.90
  -3 -11  -1    2.10   11.90
  -3 -11  -1   -2.60   10.70
   3  11   1   -9.60   11.90
  -3  11  -1  -16.20   15.10
  -5 -11  -1   34.70   12.80
  -5 -11  -1   55.59   15.40
  -5 -11  -1   50.19   14.30
   5  11   1   74.09   15.10
   5  11   1   46.80   14.30
  -5  11  -1   41.70   18.30
  -7 -11  -1  159.48   20.20
  -7 -11  -1  149.88   18.40
  -7 -11  -1  164.68   19.70
   7  11   1  157.18   18.70
  -7  11  -1  163.88   24.90
   7  11   1  176.98   20.60
  -9 -11  -1   50.29   14.30
  -9 -11  -1   28.90   17.10
  -9 -11  -1   39.50   18.30
  -9 -11  -1   44.50   18.40
   9  11   1   32.60   18.30
   9  11   1   46.30   18.40
  -9  11  -1   17.70   21.40
 -11 -11  -1   52.59   21.00
 -11 -11  -1   -0.40   21.00
 -11 -11  -1   -6.70   18.20
  11  11   1  -11.90   21.20
  11  11   1   54.19   24.10
 -12 -12   1   -3.10   16.60
 -12 -12   1    4.00   18.90
  12  12  -1    5.20   34.10
 -10 -12   1   24.70   17.80
 -10 -12   1   22.30   17.30
 -10  12   1   17.40   22.50
 -10  12   1   19.80   24.50
  10  12  -1   29.10   18.40
  10  12  -1    2.50   18.00
  -8 -12   1   93.99   16.70
  -8 -12   1   62.09   16.20
  -8 -12   1   74.19   17.40
  -8  12   1  115.79   23.10
   8  12  -1   72.69   18.80
   8  12  -1   79.99   16.50
  -8  12   1  100.19   21.70
  -6 -12   1   72.29   14.60
  -6 -12   1   52.19   14.30
  -6 -12   1   45.70   14.70
   6  12  -1   78.09   17.90
   6  12  -1   55.59   14.30
  -6  12   1   59.49   20.40
  -6  12   1   63.59   18.70
  -4 -12   1  101.89   15.10
  -4 -12   1  133.39   15.10
  -4 -12   1  113.79   16.10
   4  12  -1  104.39   16.70
  -4  12   1  101.39   19.60
  -4  12   1  115.09   20.00
   4  12  -1  119.09   15.40
  -2 -12   1  107.79   15.50
   2 -12  -1   72.99   15.40
   2  12  -1  113.59   14.00
  -2  12   1  125.79   18.10
   0 -12  -1  -16.90   11.80
   0 -12   1   17.80   13.30
   0  12  -1   20.10   16.40
  -2 -12  -1   -1.60   13.20
  -2 -12  -1    8.40   14.00
  -2 -12  -1   15.60   10.90
   2  12   1   -0.40   12.90
  -2  12  -1   15.00   17.20
  -4 -12  -1   54.59   14.00
  -4 -12  -1   13.70   12.70
  -4 -12  -1   19.20   14.10
   4  12   1    5.60   12.70
  -4  12  -1  -12.80   19.20
   4  12   1   12.60   14.70
  -6 -12  -1   92.39   18.30
  -6 -12  -1   75.89   17.70
  -6 -12  -1   96.19   16.30
   6  12   1   99.39   17.50
  -6  12  -1   95.49   22.30
   6  12   1   57.29   19.50
  -8 -12  -1   86.89   34.10
  -8 -12  -1   76.09   18.90
  -8 -12  -1   45.50   18.70
  -8  12  -1   52.59   26.90
   8  12   1   49.20   19.00
   8  12   1   41.90   19.50
 -10 -12  -1   52.89   21.20
 -10 -12  -1  -18.10   31.80
 -10 -12  -1   20.50   15.90
  10  12   1   12.50   23.40
  -9 -13   1   47.80   19.00
  -9 -13   1   62.79   17.80
  -9  13   1   45.60   24.70
   9  13  -1   54.59   19.40
   9  13  -1   54.49   19.50
  -7 -13   1   55.19   15.10
  -7 -13   1   62.19   18.00
  -7 -13   1   37.30   17.10
  -7  13   1   89.19   22.90
   7  13  -1   63.49   19.40
   7  13  -1   91.89   16.70
  -7  13   1   71.09   23.20
  -5 -13   1  109.49   17.30
  -5 -13   1  122.19   14.90
  -5 -13   1  121.49   17.50
   5  13  -1   90.79   16.50
  -5  13   1   83.89   22.50
  -5  13   1  113.29   21.10
   5  13  -1  114.89   18.50
  -3 -13   1  123.29   16.40
  -3 -13   1  112.89   14.10
  -3 -13   1  144.49   18.20
   3 -13  -1  109.79   17.80
   3  13  -1  148.89   16.90
   3  13  -1  128.19   18.70
  -3  13   1  153.38   23.60
  -3  13   1  105.19   21.00
  -1 -13   1    5.20   13.70
   1 -13  -1   21.20   14.00
  -1 -13  -1   14.10   13.90
   1 -13   1   -2.80   14.00
  -1  13  -1   25.90   18.00
  -3 -13  -1  -24.60   15.40
  -3 -13  -1    4.90   15.50
  -3 -13  -1   20.00   12.90
  -3  13  -1    3.40   19.50
   3  13   1   18.00   14.30
   3  13   1   23.60   16.00
  -5 -13  -1   42.80   16.90
  -5 -13  -1   54.99   18.00
  -5 -13  -1   32.40   14.40
   5  13   1   67.19   19.90
  -5  13  -1   15.20   20.40
   5  13   1   57.89   17.40
  -7 -13  -1   85.69   20.60
  -7 -13  -1   99.99   18.60
   7  13   1   89.29   19.40
   7  13   1  127.99   22.40
  -8 -14   1   16.00   18.40
   8  14  -1   64.99   21.30
   8  14  -1   34.50   19.80
  -8  14   1   54.69   27.80
  -6 -14   1   12.40   15.30
  -6 -14   1   39.70   18.00
  -6 -14   1   45.00   18.10
   6  14  -1   73.39   21.20
  -6  14   1   34.70   24.30
   6  14  -1   45.70   16.70
  -4 -14   1   58.59   17.70
  -4 -14   1   63.49   16.90
  -4 -14   1   44.90   14.20
   4  14  -1   78.39   17.50
  -4  14   1   67.49   21.10
   4  14  -1   50.49   19.00
  -4  14   1   72.69   24.90
  -2 -14   1   57.09   17.80
   2 -14  -1   60.39   18.80
  -2  14   1   45.70   20.50
  -2  14   1   13.20   24.10
   0 -14  -1  -34.00   16.20
   0 -14   1   -3.00   16.30
   0  14  -1  -16.70   18.50
   0  14  -1   13.80   21.40
  -2 -14  -1   25.00   18.40
  -2  14  -1   48.40   31.70
  -4 -14  -1   -5.10   18.70
  -4 -14  -1   24.30   14.30
  -4 -14  -1   33.10   17.10
   4  14   1   51.39   17.60
   4  14   1   27.20   20.10
  -6 -14  -1   88.19   22.90
  -6 -14  -1   51.89   17.50
   6  14   1   62.79   20.60
   6  14   1   79.59   22.70
  -3 -15   1   33.20   21.40
   3  15  -1   46.10   17.70
  -3  15   1    7.70   26.10
  -1 -15   1   -0.60   18.60
   1 -15  -1   42.80   21.70
  -1  15   1   13.40   25.60
  -1 -15  -1    0.70   20.30
 -18   0   2   29.40   25.30
 -18   0   2   -8.50   16.50
  18   0  -2    7.90   21.40
  18   0  -2   -7.70   20.80
 -18   0   2   14.20   17.50
 -16   0   2   33.80   14.80
 -16   0   2   29.50   13.80
 -16   0   2   32.50   14.90
  16   0  -2   22.50   16.00
 -16   0   2   38.40   16.70
  16   0  -2   16.60   13.20
 -14   0   2  701.43   51.39
 -14   0   2  943.71   42.80
 -14   0   2  913.01   42.20
  14   0  -2  840.72   40.20
  14   0  -2  924.61   44.80
 -14   0   2  855.11   41.10
  14   0  -2  925.31   41.30
  12   0  -2  586.14   29.30
  12   0  -2  574.34   33.10
 -12   0   2  607.24   31.70
 -12   0   2  637.04   31.10
  12   0  -2  603.94   28.40
 -12   0   2  587.74   30.20
  12   0  -2  586.34   30.20
 -12   0   2  631.04   29.90
  10   0  -2   62.19   10.40
 -10   0   2   57.39   10.90
 -10   0   2   59.89   10.10
  10   0  -2   78.59   12.10
 -10   0   2   66.39   10.00
  10   0  -2   72.19    9.10
 -10   0   2   67.99   11.20
  10   0  -2   63.79    9.90
   8   0  -2 1253.87   49.60
  -8   0   2 1261.67   50.89
  -8   0   2 1273.87   50.59
  -8   0   2 1211.98   50.29
   8   0  -2 1243.58   50.49
   8   0  -2 1273.77   51.89
   8   0  -2 1220.48   49.30
  -8   0   2 1284.57   49.99
  -6   0   2    2.50    5.60
  -6   0   2    9.70    6.00
   6   0  -2   10.70    5.80
  -6   0   2    8.50    4.60
  -6   0   2   10.40    5.00
   6   0  -2    4.80    4.70
   6   0  -2    8.20    5.30
   4   0  -2 5038.70  183.18
  -4   0   2 5080.19  183.78
  -4   0   2 4912.91  183.18
   4   0  -2 4771.52  183.08
   4   0  -2 5211.38  184.48
  -4   0   2 5019.00  184.48
  -4   0   2 4824.72  183.28
   4   0  -2 5005.20  183.78
   2   0  -2 2341.87   87.19
  -2   0   2 2314.97   87.29
   2   0  -2 2246.58   87.59
  -2   0   2 2409.16   87.69
  -2   0   2 2331.07   87.49
   2   0  -2 2406.86   87.59
   0   0   2 1297.47   54.19
   0   0   2 1301.77   53.29
   0   0  -2 1410.46   52.79
   0   0  -2 1310.57   53.89
   2   0   2 5370.36  206.78
  -2   0  -2 5620.54  207.58
   2   0   2 5788.82  207.68
  -2   0  -2 5416.96  206.48
   4   0   2   12.60    9.20
   4   0   2   26.40    8.90
  -4   0  -2   19.30    9.60
  -4   0  -2   31.40    9.70
   6   0   2  134.39   15.50
  -6   0  -2  125.39   14.90
   6   0   2  146.69   17.30
   6   0   2  130.29   13.40
  -6   0  -2  120.79   14.60
  -8   0  -2   30.20   12.30
  -8   0  -2   47.00   13.60
   8   0   2   36.80    9.90
   8   0   2   15.90   12.70
   8   0   2   21.70   12.60
 -10   0  -2  109.89   17.90
 -10   0  -2  112.59   17.80
  10   0   2  113.99   18.20
  10   0   2   93.39   20.00
  10   0   2  159.28   19.20
  12   0   2  227.18   24.40
 -12   0  -2  162.78   38.60
  12   0   2  231.68   23.90
 -12   0  -2  236.98   28.70
  12   0   2  249.48   29.90
 -14   0  -2  -18.70   19.90
  14   0   2    7.60   20.60
 -14   0  -2   38.80   23.20
  14   0   2  -20.00   23.00
  14   0   2  -14.90   15.00
  19  -1  -2    4.70   31.10
  19  -1  -2   27.80   24.60
 -19  -1   2  -13.70   21.80
 -19  -1   2   21.20   20.50
 -19  -1   2    1.90   19.20
  19   1  -2   37.50   19.50
  19   1  -2  -10.50   15.50
 -19   1   2   -6.10   19.20
 -19   1   2  -11.70   20.10
  19   1  -2   25.80   27.00
  19   1  -2   32.00   20.10
  17  -1  -2  -28.00   17.70
 -17  -1   2   30.90   15.20
  17  -1  -2    0.00   14.50
 -17  -1   2  -21.70   17.80
 -17  -1   2  -17.00   15.90
  17   1  -2   27.00   15.00
 -17   1   2    5.10   14.30
  17   1  -2  -22.20   19.30
  17   1  -2  -18.30   18.30
 -17   1   2  -15.90   14.70
 -17   1   2   21.20   17.20
  17   1  -2   30.90   13.30
  15  -1  -2  176.18   21.70
 -15  -1   2  155.58   17.80
  15  -1  -2  193.38   20.20
 -15  -1   2  156.78   18.10
 -15  -1   2  136.79   16.90
 -15  -1   2  144.99   17.90
 -15   1   2  156.78   17.30
 -15   1   2  171.38   19.10
 -15   1   2  191.08   22.20
 -15   1   2  139.49   17.00
  15   1  -2  160.98   16.20
  15   1  -2  179.18   21.90
  15   1  -2  165.48   19.40
  15   1  -2  181.28   21.50
  13  -1  -2  764.02   40.00
 -13  -1   2  800.12   38.50
 -13  -1   2  732.73   37.00
 -13  -1   2  769.22   39.10
  13  -1  -2  755.52   36.40
 -13   1   2  785.02   36.80
 -13   1   2  778.82   37.40
  13   1  -2  793.12   37.80
  13   1  -2  776.82   35.20
  13   1  -2  812.72   41.10
 -13   1   2  796.72   37.80
  13   1  -2  744.13   36.50
 -13   1   2  766.02   36.40
 -11  -1   2  135.49   14.00
  11  -1  -2  143.09   15.40
 -11  -1   2  155.68   18.10
 -11  -1   2  166.18   16.10
  11  -1  -2  136.19   15.10
 -11  -1   2  126.79   14.90
 -11   1   2  141.29   16.70
  11   1  -2  145.79   15.00
  11   1  -2  149.99   16.40
 -11   1   2  127.09   13.40
 -11   1   2  114.09   14.00
  11   1  -2  136.39   15.60
 -11   1   2  141.09   15.00
  -9  -1   2  681.03   31.90
   9  -1  -2  687.53   30.70
  -9  -1   2  702.93   32.60
  -9  -1   2  701.03   31.90
  -9  -1   2  706.83   30.90
   9  -1  -2  695.73   32.80
   9   1  -2  663.13   31.10
  -9   1   2  684.93   30.60
  -9   1   2  671.03   30.80
  -9   1   2  693.63   31.20
   9   1  -2  693.93   31.90
  -9   1   2  722.23   30.10
   9   1  -2  697.93   30.60
  -7  -1   2 1520.85   60.59
  -7  -1   2 1530.55   61.29
   7  -1  -2 1584.64   61.99
  -7  -1   2 1581.04   61.29
   7  -1  -2 1524.95   59.79
  -7  -1   2 1631.04   60.59
   7   1  -2 1560.04   60.19
  -7   1   2 1518.65   59.59
   7   1  -2 1574.54   60.99
   7   1  -2 1521.05   60.29
  -7   1   2 1509.65   59.99
  -7   1   2 1503.75   60.19
   5  -1  -2 1645.44   60.59
  -5  -1   2 1548.15   59.79
  -5  -1   2 1553.34   59.39
  -5  -1   2 1544.75   59.99
  -5  -1   2 1570.44   59.19
   5  -1  -2 1444.86   58.69
   5   1  -2 1557.14   59.19
  -5   1   2 1577.84   60.79
  -5   1   2 1518.05   58.79
   5   1  -2 1499.35   59.89
  -5   1   2 1516.75   58.69
   5   1  -2 1531.65   59.19
   3  -1  -2  773.12   31.40
  -3  -1   2  827.12   31.70
  -3  -1   2  800.72   32.30
   3  -1  -2  825.32   32.60
  -3  -1   2  822.02   32.10
   3   1  -2  787.82   31.80
   3   1  -2  804.02   32.50
   3   1  -2  825.12   31.80
  -3   1   2  800.32   31.40
  -3   1   2  784.92   33.00
   3   1  -2  803.62   31.70
  -1  -1   2  297.37   14.90
  -1  -1   2  332.67   14.90
   1  -1  -2  312.17   14.90
   1  -1  -2  263.77   17.10
   1   1  -2  324.77   14.60
   1   1  -2  316.87   15.30
  -1   1   2  295.87   15.70
   1   1  -2  325.27   14.10
  -1   1   2  289.87   16.80
   1  -1   2 5031.80  196.38
   1  -1   2 5005.60  194.88
  -1  -1  -2 5559.24  194.48
  -1  -1  -2 5371.16  195.28
  -1   1  -2 5229.68  194.88
   1   1   2 5535.65  195.48
   1   1   2 5143.49  194.18
  -1   1  -2 5000.20  195.68
  -3  -1  -2 2597.14   93.99
   3  -1   2 2399.76   95.19
  -3  -1  -2 2366.86   94.19
   3  -1   2 2263.37   94.99
  -3   1  -2 2500.35   95.79
   3   1   2 2592.04   94.79
  -3   1  -2 2377.06   94.29
   3   1   2 2386.76   93.69
  -5  -1  -2   13.10    8.40
  -5  -1  -2   17.60   10.00
   5  -1   2    3.00    8.60
   5  -1   2   10.90   12.60
   5  -1   2   15.80    7.40
  -5   1  -2    3.00    8.40
   5   1   2   13.80    8.50
  -5   1  -2    9.60   12.50
   5   1   2   12.00    9.80
   5   1   2   -5.70    8.30
   7  -1   2   85.09   12.10
   7  -1   2   79.79   15.90
  -7  -1  -2   79.79   13.80
  -7  -1  -2   89.39   14.60
   7  -1   2  105.09   14.10
   7   1   2   92.79   14.40
  -7   1  -2  100.69   14.70
  -7   1  -2   89.09   15.60
   7   1   2   70.19   12.20
   7   1   2  114.89   16.00
  -9  -1  -2    7.20   13.70
  -9  -1  -2    0.30   12.80
   9  -1   2    6.50   13.90
   9  -1   2   -5.30    9.80
   9  -1   2  -13.40   12.20
   9   1   2   -2.90   11.60
  -9   1  -2   18.90   13.10
   9   1   2   -3.10   11.30
   9   1   2   33.90   14.40
  -9   1  -2   -7.50   12.80
  11  -1   2  246.08   24.70
 -11  -1  -2  208.28   22.20
  11  -1   2  249.97   25.30
  11  -1   2  237.58   21.70
 -11  -1  -2  185.58   35.80
  11   1   2  221.78   22.60
 -11   1  -2  220.18   24.30
  11   1   2  210.88   25.90
  11   1   2  250.57   27.00
 -11   1  -2  227.48   23.00
 -13  -1  -2   71.39   23.10
  13  -1   2   34.00   14.70
  13  -1   2   79.09   20.60
  13  -1   2   52.79   21.70
 -13  -1  -2   24.80   18.90
  13   1   2   57.49   16.30
 -13   1  -2   47.70   18.30
  13   1   2   78.99   20.40
  13   1   2   63.79   20.70
  15  -1   2   -1.40   23.50
  15  -1   2  -47.70   21.60
 -15  -1  -2  -33.90   23.10
 -15  -1  -2    3.80   25.20
  15   1   2  -11.10   22.70
 -15   1  -2   13.90   24.50
  15   1   2  -46.20   17.30
  15   1   2   42.30   24.80
 -15   1  -2   -0.30   26.10
 -18  -2   2   34.90   17.90
 -18  -2   2    0.90   20.70
 -18  -2   2   25.60   18.50
  18  -2  -2   41.80   21.30
  18  -2  -2   -5.60   15.30
  18   2  -2  -27.30   17.50
 -18   2   2   22.50   20.10
  18   2  -2   -7.50   17.60
 -18   2   2    9.40   15.60
 -18   2   2   16.00   15.70
  18   2  -2   18.20   15.10
  18   2  -2   -3.70   23.00
  16  -2  -2   46.80   16.90
  16  -2  -2   27.60   13.30
 -16  -2   2   51.69   15.30
 -16  -2   2   40.70   17.80
 -16  -2   2   31.00   15.60
 -16  -2   2   53.49   14.50
  16   2  -2   33.20   19.40
  16   2  -2   40.70   15.90
 -16   2   2   22.60   13.60
  16   2  -2   24.10   13.00
 -16   2   2   47.60   14.90
 -16   2   2   24.90   13.10
 -16   2   2   18.10   15.90
 -14  -2   2  277.37   24.90
 -14  -2   2  332.67   25.20
  14  -2  -2  319.47   22.40
 -14  -2   2  309.07   26.80
  14  -2  -2  334.17   26.40
 -14  -2   2  270.37   23.40
  14   2  -2  312.37   24.60
 -14   2   2  275.57   23.10
 -14   2   2  280.47   24.70
  14   2  -2  265.07   22.20
 -14   2   2  254.77   23.30
  14   2  -2  294.77   22.90
 -14   2   2  294.07   22.90
 -12  -2   2  235.68   21.30
 -12  -2   2  243.58   21.00
  12  -2  -2  259.17   18.90
 -12  -2   2  254.47   21.50
 -12  -2   2  248.88   20.20
  12  -2  -2  258.47   22.00
 -12   2   2  273.27   21.40
  12   2  -2  264.17   20.60
 -12   2   2  249.58   18.90
 -12   2   2  235.88   18.60
  12   2  -2  239.48   19.40
  12   2  -2  288.87   21.40
 -12   2   2  235.78   19.00
  10  -2  -2  125.89   13.70
 -10  -2   2  145.19   16.10
 -10  -2   2  136.29   18.00
  10  -2  -2  153.08   17.20
 -10  -2   2  171.58   16.90
 -10  -2   2  156.68   14.70
  10   2  -2  171.58   16.30
 -10   2   2  154.18   13.90
  10   2  -2  149.88   15.70
 -10   2   2  132.99   14.60
 -10   2   2  126.99   14.90
  10   2  -2  160.28   14.60
  -8  -2   2 2586.14   97.99
  -8  -2   2 2556.74   97.79
   8  -2  -2 2453.25   96.39
  -8  -2   2 2664.73   98.79
  -8  -2   2 2582.74   98.89
   8  -2  -2 2608.54   99.29
   8   2  -2 2653.73   97.69
  -8   2   2 2384.46   96.39
   8   2  -2 2516.25   97.59
   8   2  -2 2587.44   98.59
  -6  -2   2  695.63   30.40
  -6  -2   2  700.33   29.70
   6  -2  -2  735.93   31.20
  -6  -2   2  673.33   30.20
  -6  -2   2  694.03   31.00
  -6   2   2  681.23   31.80
   6   2  -2  679.83   30.10
   6   2  -2  695.63   29.70
  -4  -2   2  767.22   31.40
   4  -2  -2  775.22   32.40
  -4  -2   2  750.42   31.80
  -4  -2   2  732.83   30.90
   4   2  -2  739.93   32.20
   4   2  -2  835.62   31.40
   4   2  -2  754.32   31.40
  -4   2   2  764.42   33.00
  -2  -2   2   66.39    6.40
  -2  -2   2   77.49    6.50
   2  -2  -2   67.79    7.90
  -2  -2   2   69.49    7.30
   2   2  -2   69.49    8.60
   2   2  -2   64.09    6.60
   2   2  -2   70.79    7.30
  -2   2   2   62.49    5.60
   0  -2   2 1167.98   48.30
   0  -2  -2 1270.97   48.40
   0  -2  -2 1263.77   49.90
   0  -2   2 1269.37   49.20
   0   2  -2 1276.97   49.60
   0   2  -2 1250.67   48.60
   0   2   2 1169.58   48.50
   0   2   2 1323.97   49.70
   0   2  -2 1257.17   49.70
   2  -2   2 6574.14  240.68
  -2  -2  -2 6447.25  241.08
  -2  -2  -2 6781.62  240.78
   2  -2   2 6422.46  243.28
  -2   2  -2 6008.20  241.78
  -2   2  -2 6694.93  241.48
   2   2   2 6439.96  240.48
   2   2   2 6673.73  241.48
   4  -2   2 1195.08   50.09
  -4  -2  -2 1209.58   48.20
  -4  -2  -2 1108.99   48.70
   4  -2   2 1056.49   49.70
   4   2   2 1128.69   48.10
  -4   2  -2 1166.68   48.80
  -4   2  -2 1175.78   51.89
   4   2   2 1220.18   49.00
  -6  -2  -2  281.97   20.40
  -6  -2  -2  256.17   21.60
   6  -2   2  280.77   21.10
   6  -2   2  213.38   23.30
   6  -2   2  256.27   17.00
  -6   2  -2  226.78   21.20
   6   2   2  259.27   19.10
   6   2   2  287.07   21.10
  -6   2  -2  254.97   25.30
   6   2   2  291.37   21.20
  -8  -2  -2  254.57   22.50
   8  -2   2  231.78   22.50
   8  -2   2  269.87   18.20
  -8  -2  -2  284.37   23.40
   8  -2   2  221.78   24.90
   8   2   2  212.28   22.70
  -8   2  -2  197.58   23.20
   8   2   2  270.37   22.80
   8   2   2  252.67   20.80
  -8   2  -2  219.88   26.60
  10  -2   2   34.80   14.10
  10  -2   2   23.30   10.60
 -10  -2  -2   -2.70   24.60
 -10  -2  -2   46.50   14.70
  10   2   2   19.30   14.40
  10   2   2   35.80   15.80
 -10   2  -2   24.70   17.20
  12  -2   2   99.19   19.60
  12  -2   2  109.09   18.20
 -12  -2  -2  107.29   20.00
 -12  -2  -2  101.19   21.80
 -12   2  -2   59.49   22.60
  12   2   2   69.69   16.70
  12   2   2  128.19   17.60
 -12   2  -2   82.79   19.20
  12   2   2  126.69   19.90
 -14  -2  -2    1.70   22.40
 -14  -2  -2   14.40   21.90
  14  -2   2   31.30   20.90
  14  -2   2   12.30   18.80
 -14   2  -2   27.70   21.50
  14   2   2   -3.70   19.90
  14   2   2   20.40   21.50
  14   2   2   30.70   17.80
 -19  -3   2    7.50   23.10
  19  -3  -2   -9.10   24.10
 -19  -3   2   14.40   22.10
  19  -3  -2   10.90   16.80
 -19  -3   2   56.29   22.00
  19   3  -2  -35.30   29.70
  19   3  -2    1.40   19.80
  19   3  -2  -25.50   19.20
 -19   3   2   15.40   18.60
  19   3  -2   -8.20   16.60
 -19   3   2    3.50   18.10
 -19   3   2    1.10   24.30
 -17  -3   2   62.59   16.50
  17  -3  -2   31.70   14.00
  17  -3  -2   41.70   18.40
 -17  -3   2   38.40   16.50
 -17  -3   2   62.29   19.10
 -17   3   2   13.00   14.10
  17   3  -2    4.20   17.20
 -17   3   2   29.80   18.80
  17   3  -2   13.90   13.90
 -17   3   2   36.40   16.20
  17   3  -2   46.00   15.60
  15  -3  -2   30.10   15.40
  15  -3  -2   38.20   12.90
 -15  -3   2   12.30   15.10
 -15  -3   2   24.40   13.10
 -15  -3   2   37.40   13.80
 -15  -3   2   40.20   14.00
 -15   3   2   11.30   21.40
 -15   3   2   15.60   15.00
 -15   3   2   18.00   12.50
  15   3  -2   32.90   14.00
 -15   3   2   21.90   13.10
  15   3  -2   15.90   12.50
 -13  -3   2  340.77   26.40
  13  -3  -2  344.07   26.20
 -13  -3   2  359.36   27.20
 -13  -3   2  355.46   25.30
 -13  -3   2  295.57   24.00
  13  -3  -2  357.46   21.60
  13   3  -2  359.86   25.30
  13   3  -2  325.57   23.30
  13   3  -2  298.87   23.70
 -13   3   2  299.07   22.60
 -13   3   2  343.87   22.40
 -13   3   2  341.67   21.70
 -13   3   2  333.07   24.50
 -11  -3   2   24.30   10.50
 -11  -3   2   21.80   11.20
 -11  -3   2   13.00    9.90
  11  -3  -2   11.10   10.50
 -11  -3   2   25.60   10.20
  11   3  -2   -1.30    9.80
  11   3  -2    2.90    8.30
  11   3  -2   27.10   10.80
  -9  -3   2  442.76   24.10
  -9  -3   2  399.76   23.30
  -9  -3   2  424.76   26.00
  -9  -3   2  458.45   22.70
   9  -3  -2  434.86   24.40
   9   3  -2  423.56   24.20
   9   3  -2  418.86   23.30
   9   3  -2  444.46   22.80
  -9   3   2  375.26   27.10
   7  -3  -2 2200.78   84.59
  -7  -3   2 2147.79   83.49
  -7  -3   2 2151.28   84.09
  -7  -3   2 2188.98   83.19
  -7  -3   2 2114.99   84.39
   7   3  -2 2155.48   83.19
  -7   3   2 2090.79   84.79
   7   3  -2 2214.78   83.39
   5  -3  -2   55.89    8.10
  -5  -3   2   51.49    7.00
  -5  -3   2   48.80    8.50
  -5  -3   2   59.49    7.80
  -5  -3   2   45.90    9.00
   5   3  -2   59.09    7.50
   5   3  -2   64.79    8.90
   5   3  -2   64.49    8.50
  -5   3   2   56.49    9.80
  -3  -3   2  262.87   14.00
   3  -3  -2  260.47   13.30
  -3  -3   2  240.58   13.10
  -3  -3   2  223.18   13.40
  -3   3   2  237.48   13.00
   3   3  -2  242.18   13.10
   3   3  -2  247.18   14.80
  -3   3   2  256.57   17.20
   3   3  -2  240.88   13.80
   3   3  -2  248.38   13.70
   1  -3  -2   10.60    5.60
  -1  -3   2   11.30    4.80
  -1  -3   2    6.80    5.10
  -1  -3   2   22.90    5.30
   1  -3  -2   18.60    4.50
   1   3  -2    8.10    5.50
   1   3  -2   14.60    4.50
   1   3  -2   10.30    6.20
  -1   3   2   13.60    4.60
  -1  -3  -2 3741.53  143.29
   1  -3   2 3957.00  143.69
  -1   3  -2 3878.21  142.49
   1   3   2 3598.94  142.49
   1   3   2 3829.12  143.29
  -1   3  -2 3930.91  144.59
  -1   3  -2 3867.01  143.59
  -3  -3  -2 3265.37  123.69
   3  -3   2 3057.09  125.39
  -3  -3  -2 3398.46  122.99
   3   3   2 3353.36  123.89
   3   3   2 3199.08  122.89
  -3   3  -2 3482.75  123.89
  -3   3  -2 3019.00  124.19
  -5  -3  -2  114.49   14.10
   5  -3   2  122.79   14.80
  -5  -3  -2  119.99   13.60
   5   3   2  103.49   13.40
   5   3   2  102.19   12.90
  -5   3  -2  127.49   18.40
   5   3   2  128.49   13.30
  -5   3  -2  134.99   16.20
   7  -3   2  427.86   24.00
  -7  -3  -2  424.46   27.50
   7  -3   2  433.96   26.50
  -7  -3  -2  450.15   26.40
  -7   3  -2  431.76   27.40
  -7   3  -2  384.06   31.80
   7   3   2  445.26   26.80
   7   3   2  389.16   26.60
   7   3   2  415.36   25.80
  -9  -3  -2  140.59   23.80
   9  -3   2  191.08   20.90
  -9  -3  -2  150.78   29.10
   9  -3   2  169.48   21.80
   9   3   2  188.78   22.80
   9   3   2  175.88   19.20
  -9   3  -2  156.48   19.40
   9   3   2  195.58   23.60
  -9   3  -2  164.48   21.80
  11  -3   2  107.19   18.90
  11  -3   2   74.99   15.30
 -11  -3  -2  102.89   18.50
 -11  -3  -2  120.29   19.40
 -11   3  -2   86.89   18.90
 -11   3  -2   96.89   22.00
  11   3   2  136.29   17.90
  11   3   2  116.69   17.50
  11   3   2  117.09   18.90
 -13  -3  -2   90.39   20.00
  13  -3   2   71.09   17.90
 -13  -3  -2   80.79   21.10
  13  -3   2   54.09   19.10
  13   3   2   55.39   19.10
  13   3   2   42.00   17.60
 -13   3  -2   18.50   20.20
 -13   3  -2   76.09   23.70
  13   3   2   52.29   19.70
 -15  -3  -2   18.00   24.10
  15  -3   2   52.29   27.60
 -15  -3  -2   -5.90   24.30
  15  -3   2   35.50   23.30
  15   3   2   37.60   21.40
 -15   3  -2   30.90   24.90
  15   3   2   -0.50   21.10
  15   3   2   -7.80   22.10
 -18  -4   2  -31.90   17.90
 -18  -4   2  -18.10   21.70
 -18  -4   2   -1.70   18.30
  18  -4  -2   12.60   14.40
  18  -4  -2   -8.80   19.50
 -18   4   2   25.50   16.00
  18   4  -2   -9.60   15.80
  18   4  -2    8.10   17.10
  18   4  -2   -4.20   18.80
 -18   4   2    8.90   21.70
 -16  -4   2   10.80   16.90
  16  -4  -2  -14.80   15.90
 -16  -4   2   -3.30   14.80
 -16  -4   2  -16.90   14.70
  16  -4  -2   -1.50   12.60
  16   4  -2    0.10   14.80
  16   4  -2   -2.90   15.80
  16   4  -2    6.80   13.00
 -16   4   2  -11.20   12.60
  14  -4  -2  440.06   28.80
 -14  -4   2  389.26   28.60
 -14  -4   2  370.46   29.00
 -14  -4   2  365.06   29.20
 -14  -4   2  418.76   26.90
  14   4  -2  344.17   25.70
  14   4  -2  377.06   42.60
 -14   4   2  339.47   24.40
  14   4  -2  329.07   26.90
  12  -4  -2  246.38   22.30
 -12  -4   2  220.18   20.90
 -12  -4   2  233.18   22.60
 -12  -4   2  226.28   22.60
 -12  -4   2  198.68   20.90
  12   4  -2  213.68   20.20
  12   4  -2  201.78   22.10
  12   4  -2  240.88   21.90
 -10  -4   2   46.10   10.30
 -10  -4   2   32.60   10.60
 -10  -4   2   30.40   11.50
  10  -4  -2   53.49   11.10
 -10  -4   2   28.00   12.00
  10   4  -2   52.99   10.70
  10   4  -2   19.20   11.20
  10   4  -2   47.50   11.10
  -8  -4   2 1260.47   51.29
  -8  -4   2 1275.37   50.79
   8  -4  -2 1209.48   52.19
  -8  -4   2 1276.77   52.19
  -8  -4   2 1214.38   52.49
  -8   4   2 1168.78   53.19
   8   4  -2 1252.27   51.09
   8   4  -2 1274.77   51.09
   6  -4  -2    9.20    8.40
  -6  -4   2   19.60    8.50
  -6  -4   2   35.40    6.40
  -6  -4   2    9.60    7.50
  -6  -4   2    4.70    8.70
  -6   4   2   20.90    9.60
   6   4  -2   17.30    7.90
  -6   4   2   11.60   10.20
   6   4  -2   20.00    6.90
  -4  -4   2 1860.91   71.49
  -4  -4   2 1892.11   70.99
  -4  -4   2 1930.91   71.89
  -4  -4   2 1938.91   72.29
   4   4  -2 1817.52   72.29
  -4   4   2 1730.33   71.59
   4   4  -2 1850.51   71.59
  -4   4   2 1755.02   73.49
   4   4  -2 1930.11   71.59
  -2  -4   2  167.38   12.00
  -2  -4   2  158.28   11.60
  -2  -4   2  203.38   12.20
   2  -4  -2  180.08   12.00
   2   4  -2  166.28   13.60
  -2   4   2  157.58   12.30
   2   4  -2  161.28   11.60
   2   4  -2  196.58   13.60
   0  -4   2 1144.69   44.90
   0  -4  -2 1045.50   44.00
   0  -4  -2 1109.09   44.00
   0  -4   2 1099.89   43.70
   0   4  -2 1186.58   46.10
   0   4   2 1048.60   43.40
   0   4   2 1050.99   43.20
   0   4  -2 1100.69   43.10
   0   4  -2 1071.19   44.20
   2  -4   2 2758.62  107.69
  -2  -4  -2 2807.02  106.89
  -2  -4  -2 2839.82  105.79
  -2   4  -2 2770.62  108.79
  -2   4  -2 2936.61  105.59
  -2   4  -2 2710.33  106.59
   2   4   2 2833.42  106.69
   2   4   2 2745.53  106.09
   4  -4   2  180.28   20.00
  -4  -4  -2  208.18   19.30
  -4  -4  -2  246.78   16.40
   4   4   2  230.08   18.20
  -4   4  -2  232.88   18.60
   4   4   2  208.68   17.10
  -4   4  -2  180.78   20.20
   4   4   2  252.07   17.80
   6  -4   2   58.19   12.70
  -6  -4  -2   52.49   11.00
  -6  -4  -2   53.69   13.90
   6   4   2   56.59   12.00
  -6   4  -2   42.20   16.00
   6   4   2   67.39   11.90
  -6   4  -2   49.30   13.00
   6   4   2   46.00   12.30
  -8  -4  -2  110.69   16.20
   8  -4   2  150.18   16.70
   8  -4   2  127.99   14.90
  -8   4  -2  143.89   20.30
  -8   4  -2  131.69   17.90
   8   4   2  135.99   17.40
   8   4   2  111.99   15.50
   8   4   2  131.29   15.90
 -10  -4  -2   51.49   15.00
 -10  -4  -2   24.00   15.80
  10  -4   2   37.30   13.70
  10  -4   2   41.80   13.90
  10   4   2   65.79   15.40
 -10   4  -2   32.80   20.30
 -10   4  -2   47.60   17.70
  10   4   2   47.60   15.30
  10   4   2   37.10   14.60
  12  -4   2   96.79   19.80
 -12  -4  -2   53.69   18.70
  12  -4   2  103.29   17.90
 -12  -4  -2  104.89   18.40
  12   4   2  130.09   19.50
  12   4   2  123.39   20.20
  12   4   2   68.69   17.50
 -12   4  -2   68.29   19.70
 -12   4  -2   98.59   23.80
  14  -4   2    5.20   21.90
 -14  -4  -2  -12.30   21.40
  14  -4   2  -25.60   18.00
 -14  -4  -2    0.20   21.20
  14   4   2   -2.40   21.40
  14   4   2  -11.10   17.70
 -14   4  -2   67.19   27.30
  14   4   2   28.80   19.70
 -14   4  -2    7.90   21.20
 -17  -5   2   14.30   19.20
 -17  -5   2    0.10   17.40
 -17  -5   2   19.60   17.90
  17  -5  -2  -13.80   13.10
  17  -5  -2   15.10   18.80
  17   5  -2    0.00   19.10
  17   5  -2  -10.70   16.80
 -17   5   2    2.70   14.70
  17   5  -2   -6.90   15.00
 -15  -5   2  115.29   18.10
 -15  -5   2   89.09   15.80
 -15  -5   2  116.89   17.70
  15  -5  -2  107.89   18.80
 -15  -5   2  113.79   19.40
  15   5  -2  121.29   18.70
  15   5  -2   93.99   15.60
  15   5  -2   85.59   16.80
 -13  -5   2  621.24   34.40
 -13  -5   2  633.44   33.30
 -13  -5   2  622.24   35.40
 -13  -5   2  656.93   35.50
  13   5  -2  648.54   35.10
  13   5  -2  614.84   33.60
  13   5  -2  611.84   33.10
 -11  -5   2  167.88   20.60
 -11  -5   2  149.59   19.40
 -11  -5   2  135.99   15.70
  11  -5  -2  188.58   20.60
 -11  -5   2  162.18   15.50
  11   5  -2  162.28   18.70
  11   5  -2  156.18   17.50
  11   5  -2  161.58   19.00
  -9  -5   2  438.76   24.90
   9  -5  -2  417.66   25.10
  -9  -5   2  402.06   23.40
  -9  -5   2  424.66   26.30
  -9  -5   2  399.76   24.60
   9   5  -2  439.86   23.80
  -9   5   2  393.26   26.00
   9   5  -2  411.96   24.40
   7  -5  -2  602.04   30.70
  -7  -5   2  661.53   30.50
  -7  -5   2  638.64   30.10
  -7  -5   2  679.83   29.20
  -7  -5   2  636.74   31.70
  -7   5   2  613.54   32.20
   7   5  -2  633.54   30.80
   7   5  -2  661.73   30.00
  -7   5   2  551.74   32.20
  -5  -5   2  693.13   29.30
  -5  -5   2  676.43   30.30
  -5  -5   2  696.53   30.50
  -5  -5   2  673.03   30.80
  -5  -5   2  678.13   31.60
   5   5  -2  694.13   30.10
  -5   5   2  651.13   31.20
  -5   5   2  625.04   33.30
   5   5  -2  691.03   31.00
  -3  -5   2 1034.10   41.00
   3  -5  -2 1008.70   41.00
  -3  -5   2  966.70   39.80
  -3  -5   2  953.80   40.60
   3   5  -2  961.80   40.30
   3   5  -2  984.10   39.90
  -3   5   2  947.81   40.90
   3   5  -2 1004.80   41.80
   3   5  -2  984.70   41.50
   1  -5  -2  192.98   14.40
  -1  -5   2  203.58   13.80
  -1  -5   2  228.48   14.80
   1   5  -2  218.48   13.30
   1   5  -2  224.58   16.90
   1   5  -2  206.38   15.60
  -1  -5  -2 2310.87   91.69
  -1  -5  -2 2390.66   91.29
   1  -5   2 2322.17   90.69
   1   5   2 2329.87   90.69
   1   5   2 2360.86   91.09
  -1   5  -2 2538.95   93.89
  -1   5  -2 2450.15   90.19
   3  -5   2 1444.16   62.49
  -3  -5  -2 1556.54   59.69
  -3  -5  -2 1554.44   61.29
   3   5   2 1506.05   60.79
  -3   5  -2 1470.95   63.49
   3   5   2 1455.35   60.29
   3   5   2 1569.94   60.39
  -3   5  -2 1475.15   60.39
  -5  -5  -2   -8.30    8.10
  -5  -5  -2   14.30   10.20
   5  -5   2   -4.20   10.90
   5   5   2    5.30    9.70
  -5   5  -2    6.00   12.00
   5   5   2   -7.30    8.90
   5   5   2   11.30   10.60
   7  -5   2   -9.70   11.00
  -7  -5  -2    3.00   11.40
   7   5   2   12.60   11.20
  -7   5  -2    9.50   11.30
  -7   5  -2   21.10   14.90
   7   5   2   -2.90   11.30
   7   5   2   16.40   12.30
   9  -5   2  -12.60   10.70
  -9  -5  -2   -5.10   12.40
   9  -5   2    5.50   12.90
  -9  -5  -2   21.20   13.90
  -9   5  -2   -8.60   16.60
   9   5   2  -12.30   12.60
  -9   5  -2   -5.30   15.70
   9   5   2   -1.10   13.80
   9   5   2   20.40   14.20
  11  -5   2  141.49   17.70
 -11  -5  -2  139.69   20.40
  11  -5   2  186.28   24.20
 -11  -5  -2  146.09   20.10
 -11   5  -2  160.28   23.80
 -11   5  -2   95.99   20.30
  11   5   2  140.99   19.60
  11   5   2  155.58   19.40
  11   5   2  150.88   20.30
  13  -5   2   11.70   18.80
 -13  -5  -2   -1.30   19.60
  13  -5   2   39.00   17.00
 -13  -5  -2   41.70   20.80
 -13   5  -2   -7.30   19.20
  13   5   2   29.70   19.10
 -13   5  -2   32.10   24.70
  13   5   2   63.39   21.20
  13   5   2   48.20   18.40
 -18  -6   2   -3.30   24.10
 -18  -6   2  -31.40   20.00
  18  -6  -2   -8.50   22.70
 -18  -6   2   20.50   23.10
 -18   6   2   -5.90   17.20
  18   6  -2   -2.30   19.70
  16  -6  -2    0.10   17.30
 -16  -6   2   13.50   16.70
 -16  -6   2    0.40   15.60
 -16  -6   2   20.00   19.20
  16   6  -2   14.40   15.00
  16   6  -2    2.40   17.00
  14  -6  -2  349.87   29.50
 -14  -6   2  323.37   29.90
 -14  -6   2  411.56   28.90
 -14  -6   2  328.27   26.70
 -14  -6   2  326.97   28.40
  14   6  -2  363.96   26.60
  14   6  -2  317.67   27.40
  12  -6  -2  335.67   27.00
 -12  -6   2  385.86   25.90
 -12  -6   2  364.56   24.60
 -12  -6   2  372.66   27.30
  12   6  -2  319.87   24.20
  12   6  -2  351.46   24.40
 -10  -6   2  176.38   18.90
 -10  -6   2  117.19   13.80
  10  -6  -2   97.19   14.40
 -10   6   2   93.09   17.20
  10   6  -2  106.59   14.00
  10   6  -2  112.09   14.10
  -8  -6   2 1159.58   47.40
  -8  -6   2 1161.68   49.00
   8  -6  -2 1036.80   48.30
  -8  -6   2 1146.79   48.10
  -8  -6   2 1168.48   46.60
  -8   6   2  974.20   48.90
   8   6  -2 1216.68   47.40
   8   6  -2 1107.69   47.40
  -8   6   2 1002.60   49.30
  -6  -6   2  143.99   12.90
  -6  -6   2  137.69   14.90
  -6  -6   2  125.29   14.10
  -6  -6   2  145.69   14.90
  -6  -6   2  149.19   16.10
  -6   6   2  144.09   16.30
   6   6  -2  168.68   14.90
   6   6  -2  143.79   14.00
  -6   6   2  120.99   14.10
   4  -6  -2 1158.78   46.90
  -4  -6   2 1155.08   46.40
  -4  -6   2 1016.70   46.30
  -4  -6   2 1075.49   45.20
  -4  -6   2 1132.29   46.20
  -4   6   2 1150.38   49.40
   4   6  -2 1083.59   46.80
  -4   6   2 1071.99   46.80
   4   6  -2 1130.09   46.10
   4   6  -2 1153.48   45.40
  -2  -6   2  421.36   21.60
  -2  -6   2  412.26   20.90
   2  -6  -2  417.86   21.60
   2   6  -2  414.26   23.90
   2   6  -2  411.76   22.20
   2   6  -2  420.66   20.50
  -2   6   2  380.66   22.40
   2   6  -2  403.86   21.60
   0  -6   2 1051.99   42.50
   0  -6   2  960.70   40.10
   0  -6  -2  954.80   40.50
   0  -6  -2  976.50   41.40
   0   6  -2  995.30   41.30
   0   6   2  984.80   39.90
   0   6  -2  941.61   43.40
  -2  -6  -2 2533.45   96.49
  -2  -6  -2 2543.95   95.79
   2   6   2 2449.45   95.09
   2   6   2 2526.55   95.59
  -2   6  -2 2363.16   98.09
  -4  -6  -2  203.38   20.30
  -4  -6  -2  207.08   16.10
   4   6   2  186.68   18.40
  -4   6  -2  190.08   20.20
   4   6   2  159.68   18.50
   4   6   2  210.78   17.40
  -6  -6  -2    6.70   10.60
  -6  -6  -2    9.70   12.90
   6  -6   2   -1.20   11.40
   6   6   2   16.00   11.40
   6   6   2   -7.30   18.20
   6   6   2    4.80   11.00
  -8  -6  -2   48.30   23.50
  -8  -6  -2   20.40   14.50
   8  -6   2    6.80   11.50
   8   6   2   19.50   13.40
   8   6   2    7.90   12.30
   8   6   2    6.40   12.90
 -10  -6  -2   53.99   14.80
  10  -6   2   34.20   13.90
 -10  -6  -2   36.40   16.30
  10   6   2   52.79   15.60
  10   6   2   26.30   15.90
 -10   6  -2   59.79   19.90
  10   6   2   49.70   15.00
 -10   6  -2   61.89   19.00
 -12  -6  -2  112.69   21.50
  12  -6   2  130.69   23.40
  12  -6   2  140.49   17.50
 -12  -6  -2  131.19   21.10
  12   6   2  117.29   19.90
  12   6   2   90.29   20.00
 -12   6  -2  120.49   24.10
  12   6   2  115.99   21.70
 -12   6  -2  106.69   20.30
 -14  -6  -2   41.30   25.20
  14  -6   2   20.40   21.00
  14  -6   2   15.30   18.60
 -14   6  -2   39.40   26.50
  14   6   2  -10.60   24.30
 -14   6  -2    6.90   21.90
  14   6   2   -4.10   25.00
 -17  -7   2   33.00   20.40
 -17  -7   2   -5.70   18.80
 -17  -7   2  -12.90   18.80
  17  -7  -2    4.40   20.20
  17   7  -2   32.90   18.80
  15  -7  -2   81.09   19.70
 -15  -7   2   67.29   19.70
 -15  -7   2   33.60   15.60
 -15  -7   2   50.19   17.40
  15   7  -2   72.69   16.80
  15   7  -2   62.69   17.10
 -13  -7   2  224.48   26.30
 -13  -7   2  212.28   23.40
 -13  -7   2  267.17   26.30
 -13  -7   2  236.88   24.80
  13  -7  -2  241.98   26.50
  13   7  -2  258.07   23.60
  13   7  -2  205.28   25.10
 -11  -7   2   29.40   13.70
 -11  -7   2   29.30   12.10
  11  -7  -2   27.20   14.60
 -11  -7   2   28.60   14.80
 -11  -7   2   38.20   12.80
 -11   7   2  -17.90   16.10
 -11   7   2   17.30   18.50
  11   7  -2   31.50   12.60
  11   7  -2   37.10   11.60
  -9  -7   2  259.47   20.70
  -9  -7   2  306.27   21.70
  -9  -7   2  350.66   22.40
  -9  -7   2  317.77   23.60
   9   7  -2  289.47   22.60
  -9   7   2  277.97   26.00
   9   7  -2  321.57   22.30
  -9   7   2  259.67   26.50
  -7  -7   2  672.53   32.00
  -7  -7   2  680.43   32.30
  -7  -7   2  635.94   33.30
  -7  -7   2  674.13   32.40
  -7  -7   2  672.93   30.40
   7   7  -2  669.63   31.70
  -7   7   2  597.94   35.30
  -7   7   2  615.04   34.40
   7   7  -2  669.13   32.70
  -5  -7   2  135.89   15.60
  -5  -7   2  200.98   15.90
  -5  -7   2  159.78   17.90
  -5  -7   2  155.18   15.80
  -5   7   2  166.98   17.60
   5   7  -2  162.88   16.90
   5   7  -2  167.18   15.50
  -5   7   2  136.59   17.80
  -3  -7   2  256.67   18.70
  -3  -7   2  276.37   17.60
   3  -7  -2  305.77   19.20
  -3  -7   2  272.27   18.30
   3   7  -2  274.97   20.50
   3   7  -2  269.57   18.50
   3   7  -2  274.77   17.00
   3   7  -2  287.67   19.80
  -3   7   2  256.77   20.40
  -1  -7   2  146.59   14.30
   1  -7  -2  113.29   14.50
  -1  -7   2  102.99   12.70
   1   7  -2  123.19   12.60
   1   7  -2  127.59   14.30
  -1  -7  -2 1406.36   58.29
  -1  -7  -2 1512.05   59.89
   1   7   2 1512.05   58.09
   1   7   2 1447.36   58.19
  -1   7  -2 1440.26   61.99
  -3  -7  -2  816.72   37.80
  -3  -7  -2  808.72   37.90
   3   7   2  798.42   36.70
   3   7   2  842.12   36.70
   3   7   2  807.12   37.50
  -3   7  -2  813.12   41.40
  -5  -7  -2   19.50    9.90
  -5  -7  -2   43.60   12.20
   5   7   2   19.30   11.50
   5   7   2   33.40   11.60
   5   7   2   20.30   11.60
  -5   7  -2   24.00   15.30
  -7  -7  -2   66.79   14.10
  -7  -7  -2   66.19   14.60
   7   7   2   83.99   14.60
  -7   7  -2   99.99   19.00
   7   7   2   78.09   15.20
   7   7   2   70.49   15.10
  -9  -7  -2  -10.30   14.90
  -9  -7  -2   36.40   14.30
   9   7   2   10.70   13.70
   9   7   2   -1.60   14.20
   9   7   2   29.10   14.20
 -11  -7  -2   89.59   20.10
 -11  -7  -2   93.99   18.10
  11  -7   2   90.79   16.70
  11   7   2   97.49   20.90
 -11   7  -2  111.39   21.60
  11   7   2  125.99   19.00
  11   7   2   52.39   19.10
 -13  -7  -2    3.90   21.50
  13  -7   2   18.40   21.00
 -13  -7  -2   27.00   37.80
  13  -7   2   22.30   15.40
 -13   7  -2   34.60   20.60
  13   7   2   41.90   23.70
  13   7   2   -4.30   23.70
 -16  -8   2   -1.90   19.30
 -16  -8   2   18.80   18.50
  16  -8  -2    1.50   20.90
 -16  -8   2   19.20   18.60
 -16   8   2    0.90   21.90
  16   8  -2   11.70   18.00
  14  -8  -2  118.39   19.90
 -14  -8   2  100.99   19.60
 -14  -8   2   88.89   15.90
 -14  -8   2   98.19   18.00
  14   8  -2   98.79   17.40
 -14   8   2   94.09   23.90
  14   8  -2   67.39   18.00
 -12  -8   2   91.89   16.00
 -12  -8   2   98.39   15.50
 -12  -8   2  114.39   16.40
  12  -8  -2   95.09   18.10
  12   8  -2   71.29   14.30
  12   8  -2   86.09   15.90
 -12   8   2   85.29   20.40
 -12   8   2   86.39   20.70
 -10  -8   2    3.10   11.60
 -10  -8   2   18.90   11.10
 -10  -8   2   18.20   11.70
 -10  -8   2   15.60   12.60
 -10  -8   2   32.70   13.00
  10   8  -2   24.30   13.20
 -10   8   2  -14.40   15.00
  10   8  -2   31.10   11.80
  -8  -8   2  382.66   25.70
  -8  -8   2  384.86   24.70
  -8  -8   2  381.96   24.70
  -8  -8   2  384.66   22.30
  -8  -8   2  373.86   25.70
   8   8  -2  388.46   25.00
   8   8  -2  367.16   25.20
  -8   8   2  347.27   28.30
  -6  -8   2   57.59   13.50
  -6  -8   2   44.10   10.60
  -6  -8   2   57.19   11.40
  -6  -8   2   61.29   10.00
  -6  -8   2   74.29    9.80
   6   8  -2   75.09   11.40
   6   8  -2   72.99   12.90
  -6   8   2   54.29   16.20
  -6   8   2   68.39   13.70
  -4  -8   2  252.97   18.50
  -4  -8   2  252.27   20.00
  -4  -8   2  233.18   19.00
   4  -8  -2  275.87   19.80
  -4   8   2  268.37   26.20
   4   8  -2  291.37   18.20
   4   8  -2  258.77   19.80
  -4   8   2  265.37   21.80
   2  -8  -2   44.00    9.70
  -2  -8   2   41.90    9.10
  -2  -8   2   23.10    9.20
   2   8  -2   20.30    9.00
   2   8  -2   36.10   13.40
   2   8  -2   30.60    7.70
  -2   8   2   32.50   11.20
   2   8  -2   26.40    9.70
   0  -8  -2  207.58   17.60
   0  -8   2  215.18   18.50
   0   8  -2  225.18   21.90
  -2  -8  -2 1201.48   50.89
  -2  -8  -2 1112.09   49.30
   2   8   2 1217.78   48.80
   2   8   2 1190.98   49.20
  -2   8  -2 1115.29   52.89
  -4  -8  -2  266.87   22.80
  -4  -8  -2  289.77   23.20
  -4   8  -2  293.47   27.40
   4   8   2  299.57   23.00
   4   8   2  317.67   23.40
   4   8   2  297.17   23.70
  -6  -8  -2   58.49   12.50
  -6  -8  -2   66.89   13.60
   6   8   2   62.79   14.70
   6   8   2   66.49   14.90
   6   8   2   45.00   14.20
  -6   8  -2   63.29   16.80
  -8  -8  -2  117.79   16.50
  -8  -8  -2   41.20   15.60
   8   8   2   53.69   15.30
  -8   8  -2   76.59   20.70
   8   8   2   88.99   15.60
   8   8   2   64.39   15.60
 -10  -8  -2    1.80   18.00
 -10  -8  -2   -9.60   14.60
 -10   8  -2    3.30   21.40
  10   8   2   18.90   17.40
  10   8   2   10.60   17.00
  10   8   2    6.80   17.40
 -12  -8  -2   45.80   33.80
 -12  -8  -2   -7.80   19.50
  12   8   2   24.00   22.60
  12   8   2   26.60   21.70
 -12   8  -2   68.39   20.50
 -15  -9   2   30.80   27.70
  15  -9  -2  -19.40   19.30
 -15  -9   2   -1.70   17.90
 -15  -9   2  -16.20   17.60
  15   9  -2    7.10   19.40
 -15   9   2  -13.40   22.30
 -13  -9   2  101.49   18.30
 -13  -9   2  106.29   19.10
 -13  -9   2  143.59   17.30
  13   9  -2  104.99   17.40
 -13   9   2  126.29   25.40
  13   9  -2  106.39   17.20
 -11  -9   2   33.60   13.70
 -11  -9   2   -1.00   13.60
 -11  -9   2    2.30   17.20
 -11  -9   2   19.70   12.00
  11   9  -2   26.10   15.60
 -11   9   2    1.60   17.50
 -11   9   2   -9.10   17.60
  11   9  -2   16.70   13.20
  -9  -9   2  124.29   15.90
  -9  -9   2  140.59   17.80
  -9  -9   2  130.19   14.40
  -9  -9   2  119.89   16.00
   9   9  -2  137.69   15.60
   9   9  -2  143.59   16.60
  -9   9   2  110.69   19.20
  -9   9   2   99.59   18.40
  -7  -9   2  352.36   21.90
  -7  -9   2  389.16   24.00
  -7  -9   2  385.36   24.90
  -7  -9   2  387.46   25.70
  -7  -9   2  384.66   25.80
   7   9  -2  409.96   26.20
  -7   9   2  324.47   27.80
   7   9  -2  413.46   25.90
  -7   9   2  373.66   28.80
  -5  -9   2   -1.30    9.60
  -5  -9   2   29.60   10.20
  -5  -9   2   12.50   11.80
   5   9  -2    8.60   12.20
  -5   9   2   23.80   13.60
   5   9  -2   26.70   10.50
  -5   9   2   21.70   15.40
  -3  -9   2   80.09   11.80
  -3  -9   2   74.99   12.70
  -3  -9   2   94.49   10.80
   3  -9  -2   71.99   12.50
  -3   9   2   81.59   13.30
   3   9  -2   99.29   12.10
   3   9  -2   83.09   15.60
   3   9  -2   96.39   11.80
   1  -9  -2   10.60   10.50
  -1  -9   2   32.30   10.20
   1   9  -2   35.20   13.40
  -1  -9  -2  651.03   31.50
  -1  -9  -2  681.43   33.40
  -1   9  -2  626.24   36.20
  -3  -9  -2  641.04   34.70
  -3  -9  -2  661.93   32.80
  -3   9  -2  624.24   37.60
   3   9   2  672.73   33.40
   3   9   2  661.03   32.90
   3   9   2  640.74   33.20
  -5  -9  -2   50.39   14.30
  -5  -9  -2   44.90   12.90
   5   9   2   36.80   14.00
   5   9   2   63.29   14.50
   5   9   2   37.10   14.30
  -5   9  -2   38.40   17.80
  -7  -9  -2   73.79   15.80
  -7  -9  -2   83.79   16.10
  -7  -9  -2   76.99   15.70
   7   9   2   78.99   15.60
  -7   9  -2   55.99   19.20
   7   9   2   83.79   16.70
   7   9   2   73.29   16.60
  -9  -9  -2   38.20   15.30
  -9  -9  -2   14.50   17.20
   9   9   2   53.29   17.40
   9   9   2   43.00   18.10
   9   9   2   54.79   18.20
  -9   9  -2   22.30   21.80
 -11  -9  -2   47.80   17.50
  11   9   2   -1.80   21.50
  11   9   2   -2.90   20.70
 -14 -10   2   78.99   18.70
 -14 -10   2  101.69   21.60
 -14 -10   2   51.89   19.50
 -14  10   2   84.19   24.80
  14  10  -2   71.29   19.20
 -12 -10   2   72.79   17.60
 -12 -10   2   80.89   17.80
 -12 -10   2   44.80   16.30
 -12 -10   2   65.39   14.60
  12  10  -2   64.19   16.50
 -12  10   2   52.69   23.00
 -12  10   2   85.59   22.80
  12  10  -2   74.99   18.20
 -10 -10   2   44.50   15.30
 -10 -10   2   29.30   15.10
 -10 -10   2   36.20   12.80
 -10 -10   2   51.29   14.00
  10  10  -2   56.89   16.60
 -10  10   2   27.50   18.20
 -10  10   2   13.10   20.10
  10  10  -2   82.39   14.90
  -8 -10   2  364.16   22.80
  -8 -10   2  372.46   25.00
  -8 -10   2  354.46   27.00
  -8 -10   2  361.56   25.80
   8  10  -2  398.86   26.80
   8  10  -2  384.36   27.70
  -8  10   2  313.17   30.20
  -8  10   2  313.77   31.10
  -6 -10   2   60.39   13.00
  -6 -10   2   73.69   13.30
  -6 -10   2   53.69   12.30
  -6  10   2   36.20   14.70
   6  10  -2   52.99   14.30
   6  10  -2   61.39   15.20
  -4 -10   2  151.58   18.70
   4 -10  -2  145.79   18.50
  -4 -10   2  145.19   19.00
  -4 -10   2  134.29   17.50
  -4  10   2  136.39   17.30
   4  10  -2  169.38   20.50
  -4  10   2  143.29   22.70
   4  10  -2  154.98   15.10
  -2 -10   2   53.49   12.20
  -2 -10   2   69.09   10.80
  -2 -10   2   51.39   10.10
   2 -10  -2   42.60   12.80
   2  10  -2   55.49   15.20
  -2  10   2   40.60   14.10
   0 -10   2  217.28   21.20
   0 -10  -2  215.28   26.90
   0  10  -2  277.37   25.60
  -2 -10  -2  587.64   32.30
  -2 -10  -2  584.74   30.40
   2  10   2  569.24   30.50
  -2  10  -2  555.84   34.90
   2  10   2  604.34   31.20
  -4 -10  -2   85.99   15.50
  -4 -10  -2   79.49   15.50
   4  10   2   63.39   15.00
   4  10   2   98.39   14.80
  -4  10  -2   97.89   20.80
   4  10   2  102.09   16.40
  -6 -10  -2   23.00   14.00
  -6 -10  -2   10.80   14.30
   6  10   2   26.20   14.70
  -6  10  -2   15.90   19.20
   6  10   2   34.90   16.30
   6  10   2   16.40   14.00
  -8 -10  -2   17.40   15.20
  -8 -10  -2   27.70   16.90
  -8 -10  -2   18.80   17.30
   8  10   2   58.09   18.90
  -8  10  -2   -3.30   20.50
   8  10   2    5.50   16.90
   8  10   2   26.70   17.70
 -10 -10  -2    3.20   15.60
  10  10   2   12.60   21.00
  10  10   2   16.20   20.40
  10  10   2   16.50   30.70
 -13 -11   2  138.29   20.80
 -13 -11   2  125.89   22.20
 -13 -11   2  143.99   18.50
  13  11  -2   93.99   21.00
 -13  11   2  114.19   29.20
 -13  11   2  148.49   28.00
 -11 -11   2   46.00   13.40
 -11 -11   2   41.40   16.70
 -11 -11   2   50.49   16.80
 -11 -11   2   83.39   18.90
  11  11  -2   24.90   17.30
 -11  11   2   57.89   23.30
 -11  11   2   23.40   21.00
  11  11  -2   30.60   16.80
  -9 -11   2   83.39   15.50
  -9 -11   2   43.20   16.40
  -9 -11   2   63.79   14.60
  -9 -11   2   51.59   13.50
  -9  11   2   73.49   20.20
   9  11  -2   46.30   16.80
   9  11  -2   68.69   15.20
  -9  11   2   47.10   19.50
  -7 -11   2  107.09   15.30
  -7 -11   2   80.29   14.20
  -7 -11   2   93.59   15.90
  -7  11   2   57.09   18.30
   7  11  -2   81.79   16.40
  -7  11   2  116.49   20.70
   7  11  -2  102.09   15.30
  -5 -11   2   53.69   12.80
  -5 -11   2   66.79   12.30
  -5 -11   2   80.79   15.10
   5  11  -2   57.39   14.00
  -5  11   2   51.99   18.10
   5  11  -2   29.50   16.90
  -5  11   2   67.59   17.40
  -3 -11   2  176.58   17.90
  -3 -11   2  191.68   21.30
  -3 -11   2  208.38   20.70
   3 -11  -2  201.68   22.90
  -3  11   2  203.78   24.50
   3  11  -2  216.88   20.40
   3  11  -2  179.18   17.70
  -1 -11   2   63.69   14.10
   1 -11  -2   75.29   14.10
   1  11  -2   62.59   16.60
  -1 -11  -2  279.07   21.00
  -1 -11  -2  317.57   25.80
   1  11   2  262.47   22.30
  -1  11  -2  313.37   28.50
  -3 -11  -2  214.48   23.20
  -3 -11  -2  243.88   23.20
  -3 -11  -2  237.58   22.00
   3  11   2  231.38   25.80
  -3  11  -2  186.18   22.50
   3  11   2  227.98   23.40
  -5 -11  -2    1.30   14.60
  -5 -11  -2   -5.00   13.50
  -5 -11  -2    7.20   14.70
   5  11   2   -4.20   14.60
   5  11   2  -17.30   15.70
  -5  11  -2  -32.60   18.40
   5  11   2  -17.70   13.80
  -7 -11  -2   25.40   16.50
  -7 -11  -2   14.40   18.40
   7  11   2    1.70   18.00
   7  11   2  -19.10   16.10
  -7  11  -2  -22.70   21.60
   7  11   2   -4.80   20.30
  -9 -11  -2   34.50   20.00
  -9 -11  -2   33.40   16.90
   9  11   2   25.70   20.90
   9  11   2   53.89   22.30
   9  11   2   -7.80   21.00
 -12 -12   2   67.29   20.40
 -12 -12   2   52.19   21.30
 -12 -12   2   97.29   16.90
  12  12  -2   75.69   22.00
 -12  12   2   63.29   27.80
 -10 -12   2   24.80   17.70
 -10 -12   2   19.70   16.50
 -10 -12   2   14.30   15.60
 -10  12   2   -2.90   21.70
 -10  12   2   19.40   23.90
  10  12  -2   35.90   17.80
  10  12  -2    7.50   18.30
  -8 -12   2   63.39   14.90
  -8 -12   2   40.30   16.30
  -8 -12   2   51.69   14.80
   8  12  -2   79.79   16.00
  -8  12   2   36.60   20.90
  -8  12   2   62.59   22.00
   8  12  -2   34.80   18.10
  -6 -12   2  -14.70   12.20
  -6 -12   2   -4.70   12.60
  -6 -12   2  -29.30   12.30
   6  12  -2   17.00   15.90
  -6  12   2    9.80   19.50
  -6  12   2   -7.50   17.90
   6  12  -2    0.70   13.60
  -4 -12   2  150.88   16.60
   4 -12  -2  120.19   16.40
  -4 -12   2  131.69   15.90
  -4 -12   2  166.78   18.70
   4  12  -2  124.59   17.20
  -4  12   2  137.29   23.20
  -4  12   2  130.69   19.10
   4  12  -2  140.19   16.50
  -2 -12   2   44.90   13.50
   2 -12  -2   70.89   15.20
  -2 -12   2   58.99   13.30
   2  12  -2   52.99   18.40
   0 -12   2   68.59   15.30
   0 -12  -2  112.89   16.20
   0  12  -2  113.49   20.50
  -2 -12  -2  212.28   23.90
  -2 -12  -2  247.58   25.20
  -2 -12  -2  235.98   21.00
   2  12   2  220.98   24.00
   2  12   2  241.78   26.30
  -2  12  -2  212.98   24.50
  -4 -12  -2   37.70   15.80
  -4 -12  -2   20.40   15.80
  -4 -12  -2   33.70   14.00
  -4  12  -2   21.60   19.50
   4  12   2   36.10   15.50
   4  12   2   34.10   17.80
  -6 -12  -2  -10.20   15.30
  -6 -12  -2   15.20   17.30
  -6 -12  -2  -21.70   16.90
   6  12   2  -17.90   16.90
   6  12   2   -2.00   19.00
  -6  12  -2   22.20   21.80
  -8 -12  -2   23.40   19.60
  -8 -12  -2   -9.90   20.60
   8  12   2   32.90   20.60
   8  12   2   22.70   23.00
   8  12   2   -3.10   22.60
 -11 -13   2  -18.20   18.70
  11  13  -2  -18.30   20.60
 -11  13   2   42.30   28.70
  -9 -13   2   21.40   29.00
  -9 -13   2   53.99   17.60
  -9  13   2   49.30   24.90
   9  13  -2   22.70   18.50
  -9  13   2   10.20   20.50
   9  13  -2   13.90   18.40
  -7 -13   2   66.59   17.20
  -7 -13   2   35.80   14.50
  -7 -13   2   25.40   16.40
   7  13  -2   58.69   19.00
  -7  13   2   57.19   23.40
  -7  13   2   60.89   20.90
   7  13  -2   48.70   16.80
  -5 -13   2   -3.40   11.50
  -5 -13   2   25.60   14.80
  -5 -13   2   21.60   15.50
   5  13  -2   17.80   17.00
  -5  13   2   21.90   21.70
   5  13  -2   27.90   14.90
  -5  13   2   -7.40   19.50
  -3 -13   2   16.70   11.20
  -3 -13   2   39.10   13.80
   3 -13  -2   52.19   15.90
  -3 -13   2   31.00   13.40
  -3  13   2   54.19   19.90
  -3  13   2   18.40   22.30
   3  13  -2   55.09   16.50
   3  13  -2   24.90   14.60
  -1 -13   2   37.00   14.50
   1 -13  -2   16.40   15.00
   1  13  -2   46.10   18.60
  -1 -13  -2  124.29   18.80
  -1  13  -2  165.98   23.50
  -3 -13  -2   74.49   17.60
  -3 -13  -2  114.19   18.00
  -3 -13  -2  115.19   15.20
   3  13   2   93.39   17.30
  -3  13  -2  116.59   21.60
   3  13   2  106.29   21.30
  -5 -13  -2    5.10   15.60
  -5 -13  -2  -16.70   15.10
  -5 -13  -2    0.90   19.40
   5  13   2    1.50   17.40
   5  13   2    2.00   21.10
  -7 -13  -2   32.80   22.40
  -7 -13  -2   -3.00   20.70
   7  13   2   -9.20   22.40
   7  13   2  -23.80   33.30
  -8 -14   2   56.99   17.30
  -8 -14   2   14.50   19.40
   8  14  -2   38.10   19.40
   8  14  -2   40.80   20.00
  -8  14   2   63.39   27.70
  -6 -14   2    9.60   14.80
  -6 -14   2   37.80   15.60
  -6 -14   2   26.40   17.10
  -6  14   2   21.80   21.10
  -6  14   2   35.70   26.50
   6  14  -2   47.40   21.40
   6  14  -2    5.30   16.40
  -4 -14   2    7.50   15.80
  -4 -14   2   -9.90   12.40
  -4 -14   2   -3.00   15.90
  -4  14   2   -4.40   19.60
   4  14  -2   -2.60   18.30
  -4  14   2   21.10   26.20
   4  14  -2   -7.00   16.00
  -2 -14   2   -7.60   15.60
   2 -14  -2   -0.60   17.70
   2  14  -2    3.50   14.80
   0 -14  -2    7.70   18.30
   0 -14   2   -0.60   15.40
  -2 -14  -2  130.89   21.40
   2  14   2  107.69   19.00
   2  14   2  160.58   21.40
  -4 -14  -2   81.09   17.70
  -4 -14  -2   51.49   22.00
   4  14   2   76.09   22.80
   4  14   2   56.39   19.30
   3 -15  -2   42.20   21.80
  -3  15   2  -21.30   27.80
   3  15  -2   -8.80   16.70
   3  15  -2    6.60   20.50
   1 -15  -2  -38.50   20.90
 -20   0   3   34.20   20.00
 -20   0   3  -17.80   19.60
  20   0  -3  -20.70   25.70
 -20   0   3    5.80   23.10
 -18   0   3   -5.60   17.70
 -18   0   3   10.00   17.10
  18   0  -3   -0.80   18.10
 -18   0   3   -4.80   13.80
 -18   0   3   -6.30   14.00
  16   0  -3  264.07   27.00
 -16   0   3  285.97   25.80
 -16   0   3  251.07   27.10
 -16   0   3  288.67   23.80
  16   0  -3  271.47   23.60
 -16   0   3  319.57   24.10
 -14   0   3   54.89   14.70
  14   0  -3   39.30   22.90
 -14   0   3   69.89   12.90
  14   0  -3   78.39   11.10
  14   0  -3   82.89   12.50
  14   0  -3   87.89   13.40
 -14   0   3   70.49   16.50
 -12   0   3    8.80    9.20
  12   0  -3   24.70   11.00
  12   0  -3   22.60    9.00
 -12   0   3   10.30   10.70
 -12   0   3   14.80    7.90
 -12   0   3   11.80   10.40
 -10   0   3  611.94   29.40
 -10   0   3  599.94   30.40
  10   0  -3  658.63   31.00
 -10   0   3  646.14   28.30
  10   0  -3  633.74   28.00
 -10   0   3  626.94   29.30
  10   0  -3  582.14   28.50
   8   0  -3  279.27   15.80
  -8   0   3  279.37   17.90
  -8   0   3  291.37   18.70
  -8   0   3  310.97   17.20
  -8   0   3  320.27   16.30
   8   0  -3  276.77   16.50
   8   0  -3  344.17   18.90
   6   0  -3 4338.17  162.08
  -6   0   3 4200.88  161.08
   6   0  -3 4491.65  162.88
   6   0  -3 4313.87  160.98
  -6   0   3 4477.95  161.98
  -6   0   3 4347.56  161.38
   6   0  -3 4323.67  160.98
  -6   0   3 4311.07  162.88
  -4   0   3  326.87   15.80
  -4   0   3  337.37   16.60
  -4   0   3  309.37   16.80
   4   0  -3  334.97   15.80
   4   0  -3  331.17   16.10
   4   0  -3  310.67   16.40
   4   0  -3  292.77   15.30
   2   0  -3 4834.92  173.08
  -2   0   3 4583.04  172.78
   2   0  -3 4567.04  173.18
  -2   0   3 4571.34  173.18
   0   0  -3 7380.26  270.47
   0   0   3 7506.95  272.97
   0   0   3 6946.50  271.27
   0   0  -3 7343.96  271.87
   2   0   3  110.99   14.90
  -2   0  -3   85.19   11.90
   2   0   3   87.79   14.50
  -2   0  -3   93.19   15.90
   4   0   3  200.58   23.20
  -4   0  -3  247.28   23.90
  -4   0  -3  244.18   20.00
   4   0   3  279.67   21.90
   6   0   3   72.19   14.40
  -6   0  -3   50.09   13.90
  -6   0  -3   57.59   14.80
   6   0   3   88.29   13.20
   6   0   3   76.69   15.40
   8   0   3  832.72   39.40
   8   0   3  849.52   42.70
  -8   0  -3  784.82   43.30
  -8   0  -3  813.62   44.20
 -10   0  -3  628.74   39.70
  10   0   3  663.43   40.50
  10   0   3  709.43   41.00
  10   0   3  718.23   37.40
 -10   0  -3  616.74   45.50
 -12   0  -3  -41.60   22.80
 -12   0  -3  -14.70   20.40
  12   0   3   18.30   21.70
  12   0   3  -13.00   18.80
  12   0   3    9.50   16.70
 -14   0  -3   26.40   27.40
  14   0   3   17.40   18.90
 -14   0  -3   -1.70   28.40
  14   0   3   23.50   26.30
  14   0   3  -18.90   24.10
 -19  -1   3   -7.90   17.30
 -19  -1   3   -4.80   17.70
  19  -1  -3   49.20   23.30
 -19  -1   3   28.20   16.30
 -19  -1   3  -11.40   18.90
  19   1  -3    2.20   22.40
  19   1  -3  -20.00   16.40
 -19   1   3    2.90   21.50
 -19   1   3  -15.00   15.60
  19   1  -3    2.60   14.50
 -19   1   3    7.80   15.70
 -19   1   3   -7.10   17.20
 -17  -1   3  147.69   18.90
 -17  -1   3  157.48   19.00
  17  -1  -3  190.18   21.20
  17  -1  -3  192.38   22.70
 -17  -1   3  139.39   18.90
 -17  -1   3  189.48   22.40
 -17   1   3  159.68   20.30
  17   1  -3  176.98   21.90
 -17   1   3  156.18   17.70
 -17   1   3  158.48   18.30
 -17   1   3  235.58   24.90
  17   1  -3  129.49   22.20
  17   1  -3  120.59   16.90
  15  -1  -3  311.17   22.80
 -15  -1   3  311.47   23.40
 -15  -1   3  351.46   25.40
  15  -1  -3  267.77   26.40
 -15  -1   3  342.27   24.80
 -15  -1   3  338.57   27.00
  15   1  -3  303.37   21.30
 -15   1   3  286.37   22.90
  15   1  -3  308.47   24.00
 -15   1   3  300.77   23.40
  15   1  -3  265.27   28.30
 -15   1   3  285.97   24.20
 -15   1   3  327.57   25.90
  15   1  -3  333.97   33.30
 -13  -1   3   22.80   10.40
 -13  -1   3   11.40   12.60
 -13  -1   3   23.30   11.20
 -13  -1   3   19.10   11.20
  13  -1  -3   25.30   12.30
 -13   1   3    6.60    9.10
 -13   1   3   20.70   10.50
  13   1  -3   32.70   12.80
 -13   1   3   15.30    9.50
 -13   1   3    2.90   10.20
  13   1  -3   29.20   11.10
  13   1  -3   12.70    8.60
 -11  -1   3   93.19   14.30
 -11  -1   3  104.09   12.20
  11  -1  -3   92.19   12.70
 -11  -1   3   89.79   13.30
 -11  -1   3   82.49   10.90
 -11   1   3   71.09   10.50
  11   1  -3   80.49   13.00
 -11   1   3   71.19   11.50
 -11   1   3   97.09   10.70
  11   1  -3  103.99   11.30
  11   1  -3  103.99   12.50
  -9  -1   3   71.29   11.50
  -9  -1   3   84.29   12.20
   9  -1  -3   64.69    9.40
  -9  -1   3   69.59    9.30
  -9  -1   3   86.39   10.00
  -9   1   3   87.99   10.60
  -9   1   3   72.39    8.70
  -9   1   3   66.39    9.70
   9   1  -3   68.99   10.10
   9   1  -3   71.69   11.00
  -9   1   3   78.19   10.50
   9   1  -3   87.59    9.70
   7  -1  -3 4116.09  147.69
  -7  -1   3 3869.11  145.89
  -7  -1   3 4050.39  145.89
  -7  -1   3 3864.21  146.39
  -7  -1   3 3937.71  146.69
   7  -1  -3 3683.73  145.49
  -7   1   3 3968.60  147.79
   7   1  -3 3807.72  145.59
   7   1  -3 3816.92  146.59
   7   1  -3 3973.60  147.09
  -7   1   3 3827.92  144.79
   7   1  -3 3945.61  145.59
  -7   1   3 3909.61  145.69
  -7   1   3 3911.31  145.49
  -7   1   3 3896.51  145.09
  -5  -1   3 3576.94  136.69
  -5  -1   3 3698.13  136.79
   5  -1  -3 3782.32  137.39
  -5  -1   3 3602.04  136.29
   5  -1  -3 3617.44  136.09
  -5  -1   3 3728.93  136.09
   5   1  -3 3571.24  136.09
   5   1  -3 3724.03  136.69
  -5   1   3 3519.95  135.19
   5   1  -3 3664.53  137.19
  -5   1   3 3637.34  135.69
   5   1  -3 3732.03  136.19
  -5   1   3 3774.72  135.99
  -5   1   3 3576.54  137.49
  -3  -1   3  181.58   11.80
  -3  -1   3  185.18   13.00
   3  -1  -3  187.08   13.60
   3  -1  -3  183.18   12.70
  -3   1   3  205.48   12.30
  -3   1   3  180.88   15.40
   3   1  -3  192.38   12.00
   3   1  -3  195.08   13.40
  -3   1   3  200.98   14.70
   1  -1  -3 4693.03  182.78
   1  -1  -3 4714.13  181.08
  -1  -1   3 4833.72  181.48
  -1  -1   3 5117.99  181.68
   1   1  -3 4910.31  182.18
  -1   1   3 4656.13  183.28
  -1   1   3 4822.52  182.38
   1   1  -3 5156.28  181.38
   1  -1   3  964.60   46.10
   1  -1   3 1091.19   48.40
  -1  -1  -3  996.70   44.20
  -1  -1  -3 1017.10   47.40
   1   1   3 1061.59   46.10
  -1   1  -3 1082.09   45.20
  -1   1  -3 1093.29   47.50
   1   1   3 1097.29   46.80
   3  -1   3  667.53   36.10
  -3  -1  -3  685.73   35.50
   3  -1   3  620.84   35.90
  -3  -1  -3  734.13   33.30
   3   1   3  676.93   35.00
  -3   1  -3  734.13   38.50
   3   1   3  737.83   35.30
  -3   1  -3  729.93   33.60
   5  -1   3   36.80   12.60
   5  -1   3   -1.60   13.20
  -5  -1  -3    6.80   10.80
  -5  -1  -3    6.80   12.60
   5   1   3    8.20   10.50
  -5   1  -3   13.40   10.80
   5   1   3   13.40   11.70
  -5   1  -3    3.90   14.30
   7  -1   3  154.18   20.60
  -7  -1  -3  149.29   19.00
   7  -1   3  144.49   18.30
  -7  -1  -3  146.09   17.90
   7  -1   3  155.18   17.40
   7   1   3  127.59   17.80
  -7   1  -3  136.69   18.00
  -7   1  -3  132.79   19.80
   7   1   3  140.69   18.30
   7   1   3  140.09   16.30
   9  -1   3  782.52   37.40
  -9  -1  -3  741.03   43.60
   9  -1   3  879.81   41.80
   9  -1   3  699.63   43.40
  -9  -1  -3  756.12   40.80
  -9   1  -3  652.03   40.40
   9   1   3  710.13   40.80
   9   1   3  905.01   43.40
  -9   1  -3  744.63   44.30
  11  -1   3   53.89   20.40
 -11  -1  -3   48.70   19.70
  11  -1   3   41.20   19.50
 -11  -1  -3   25.40   19.70
  11  -1   3   44.80   15.40
 -11   1  -3   40.80   31.50
  11   1   3   59.59   16.90
  11   1   3   65.99   18.60
  11   1   3   85.59   20.60
 -11   1  -3   -8.60   16.40
 -13  -1  -3   37.10   24.80
 -13  -1  -3    9.10   22.20
  13  -1   3   -4.30   16.30
  13  -1   3   12.00   25.20
  13  -1   3    6.80   22.30
 -13   1  -3   -7.30   24.90
  13   1   3   -9.00   22.30
 -13   1  -3    5.00   22.80
  13   1   3   15.90   25.00
  13   1   3   12.00   18.20
  20  -2  -3   10.10   26.20
 -20  -2   3   45.40   24.30
 -20  -2   3   -9.40   21.50
 -20  -2   3   27.90   22.10
  20   2  -3   36.30   16.90
 -20   2   3   -7.40   23.70
  20   2  -3    9.70   28.10
 -20   2   3   10.70   20.10
  20   2  -3  -10.50   18.80
 -20   2   3   -6.30   18.40
 -18  -2   3   23.40   15.90
  18  -2  -3   71.79   20.00
 -18  -2   3   13.60   17.50
 -18  -2   3   64.99   20.90
 -18  -2   3   22.30   15.00
  18   2  -3   53.79   16.70
 -18   2   3   25.10   18.10
  18   2  -3    7.70   13.30
 -18   2   3   36.80   16.70
 -18   2   3   33.90   14.70
  18   2  -3   23.70   20.20
 -18   2   3   54.39   15.70
 -16  -2   3  413.86   28.70
 -16  -2   3  447.76   27.60
  16  -2  -3  430.46   26.40
  16  -2  -3  407.66   30.70
 -16  -2   3  409.36   31.00
 -16  -2   3  414.06   27.80
 -16   2   3  385.46   27.50
 -16   2   3  394.76   28.10
  16   2  -3  353.16   31.30
  16   2  -3  360.46   26.40
  16   2  -3  373.76   26.70
 -16   2   3  410.26   29.10
 -16   2   3  418.26   27.20
 -14  -2   3   46.10   16.00
 -14  -2   3   34.30   12.50
  14  -2  -3   34.20   15.90
 -14  -2   3   26.40   11.90
 -14  -2   3   28.10   12.60
 -14   2   3   32.30   10.90
 -14   2   3   37.50   12.00
 -14   2   3   28.60   11.30
 -14   2   3   28.60   11.70
  14   2  -3   42.80   14.50
  14   2  -3   41.50   11.40
  14   2  -3   28.40   21.40
 -12  -2   3   60.59   11.40
 -12  -2   3   85.09   13.80
 -12  -2   3   84.59   13.60
 -12  -2   3  100.89   14.40
  12  -2  -3   65.39   13.60
 -12   2   3   80.79   12.20
  12   2  -3   66.19   10.80
 -12   2   3   78.19   10.00
 -12   2   3   67.29   11.00
 -12   2   3   67.49   10.70
  12   2  -3   64.99   12.00
 -10  -2   3  116.29   12.10
  10  -2  -3  117.79   14.10
 -10  -2   3  103.99   12.60
 -10  -2   3  125.69   13.20
 -10  -2   3  106.49   14.30
 -10   2   3   89.29   12.00
  10   2  -3  127.99   12.70
  10   2  -3  109.29   13.40
 -10   2   3  112.59   12.20
  -8  -2   3 1041.00   44.80
   8  -2  -3 1114.89   46.00
  -8  -2   3 1069.49   45.00
  -8  -2   3 1092.09   44.40
  -8  -2   3 1084.79   45.90
   8   2  -3 1075.99   43.90
   8   2  -3 1055.79   44.30
  -8   2   3 1074.49   46.80
  -6  -2   3 5592.04  204.18
   6  -2  -3 5647.93  204.78
  -6  -2   3 5455.75  203.18
  -6  -2   3 5366.56  203.38
   6   2  -3 5604.44  203.78
   6   2  -3 5380.26  203.28
  -6   2   3 5384.56  204.88
   6   2  -3 5573.84  203.28
   6   2  -3 5387.06  204.28
  -4  -2   3  215.08   11.60
  -4  -2   3  228.18   13.80
  -4  -2   3  211.18   14.00
  -4   2   3  218.98   16.40
   4   2  -3  243.98   13.30
   4   2  -3  224.38   15.10
   4   2  -3  231.48   13.50
  -4   2   3  238.58   12.80
   2  -2  -3  840.82   32.90
  -2  -2   3  820.32   33.70
   2  -2  -3  705.73   35.40
  -2  -2   3  770.32   33.40
  -2   2   3  814.22   34.90
   2   2  -3  882.21   33.00
   2   2  -3  800.82   34.50
  -2   2   3  757.72   35.80
   2   2  -3  810.12   33.20
   0  -2   3 2633.34  101.69
   0  -2   3 2595.64  100.29
   0  -2  -3 2679.73  102.59
   0  -2  -3 2656.83   99.99
   0   2   3 2754.12  102.19
   0   2   3 2532.35  100.39
   0   2  -3 2503.15  101.49
   0   2  -3 2686.83  100.49
   2  -2   3  388.26   26.50
  -2  -2  -3  361.26   24.60
  -2  -2  -3  400.06   21.90
   2  -2   3  361.26   25.30
  -2   2  -3  377.76   25.90
   2   2   3  405.76   24.00
  -2   2  -3  433.26   23.10
   2   2   3  367.96   23.20
   4  -2   3  711.03   38.00
   4  -2   3  664.03   37.10
  -4  -2  -3  699.53   36.30
  -4  -2  -3  770.72   35.40
  -4   2  -3  769.82   35.40
   4   2   3  764.22   35.90
  -4   2  -3  740.53   40.10
   4   2   3  700.23   35.00
   6  -2   3  -12.50   13.20
   6  -2   3   -0.40    8.50
  -6  -2  -3    3.50   12.80
  -6  -2  -3   -8.20   10.80
   6  -2   3   -4.00   11.90
   6   2   3    7.50   12.20
   6   2   3    3.00   11.40
  -6   2  -3    7.70   16.40
  -6   2  -3   -8.60   11.50
   6   2   3  -14.80   10.70
  -8  -2  -3  454.45   31.20
   8  -2   3  427.66   32.60
  -8  -2  -3  324.67   30.90
   8  -2   3  423.66   29.70
   8  -2   3  445.56   25.90
   8   2   3  449.95   29.40
   8   2   3  424.46   30.10
  -8   2  -3  435.96   34.20
  -8   2  -3  442.96   32.30
   8   2   3  487.25   31.30
  10  -2   3  195.08   21.70
  10  -2   3  184.38   17.80
  10  -2   3  195.08   24.00
 -10  -2  -3  154.88   20.60
 -10  -2  -3  194.28   23.30
  10   2   3  207.78   25.30
 -10   2  -3  187.58   25.10
  10   2   3  146.49   20.80
  10   2   3  211.88   23.80
 -10   2  -3  183.18   22.90
  12  -2   3   41.40   19.70
  12  -2   3  -15.90   19.10
 -12  -2  -3   20.30   21.80
  12  -2   3    6.80   18.60
 -12  -2  -3    9.50   20.30
  12  -2   3    2.30   21.10
  12   2   3  -15.60   16.10
  12   2   3   19.50   22.00
 -12   2  -3   -6.50   19.90
 -12   2  -3    4.30   40.40
  12   2   3  -27.00   19.60
 -14  -2  -3    7.10   26.50
  14  -2   3    4.80   25.20
 -14  -2  -3    2.00   26.70
  14  -2   3  -33.10   23.20
  14   2   3    9.70   24.40
 -14   2  -3   -5.60   29.30
 -14   2  -3   18.70   27.60
  14   2   3   38.30   20.90
  14   2   3   37.10   25.90
  19  -3  -3   10.30   21.60
 -19  -3   3   23.20   18.40
 -19  -3   3   -3.70   18.10
 -19  -3   3   -3.70   20.90
 -19   3   3    3.10   15.60
 -19   3   3   -5.60   20.30
  19   3  -3   11.90   18.40
  19   3  -3  -44.80   23.10
 -19   3   3    3.80   18.30
 -19   3   3   27.70   16.70
  19   3  -3   -0.90   15.00
 -17  -3   3  169.18   18.40
 -17  -3   3  142.69   20.70
 -17  -3   3  127.09   20.40
 -17  -3   3  113.99   18.40
  17  -3  -3  166.58   21.00
 -17   3   3  137.39   18.10
  17   3  -3  127.89   17.80
 -17   3   3  137.79   19.90
  17   3  -3  106.39   15.50
 -17   3   3  120.39   16.30
 -17   3   3  150.18   17.10
  17   3  -3  179.58   23.00
 -15  -3   3  232.08   24.00
 -15  -3   3  233.38   25.00
  15  -3  -3  223.78   25.60
 -15  -3   3  227.68   22.30
  15   3  -3  190.28   22.10
  15   3  -3  215.68   20.80
 -15   3   3  226.18   21.10
 -15   3   3  215.78   23.30
 -15   3   3  236.88   22.50
 -15   3   3  197.08   20.20
 -13  -3   3  104.19   16.00
  13  -3  -3  109.19   15.50
 -13  -3   3  110.49   14.60
 -13  -3   3  106.39   15.20
 -13  -3   3  101.39   14.50
  13   3  -3   99.89   13.30
 -13   3   3   76.89   11.10
 -11  -3   3    8.00    9.10
 -11  -3   3   -1.50   11.10
 -11  -3   3  -10.30    9.00
  11  -3  -3   18.80   11.10
 -11  -3   3    6.10   10.00
  11   3  -3    1.90    9.20
  11   3  -3   -0.40    8.50
  -9  -3   3    6.10    8.90
   9  -3  -3   11.00    9.30
  -9  -3   3   -1.30    7.20
  -9  -3   3    6.20   11.10
  -9  -3   3    1.50    6.90
   9   3  -3    2.10    8.40
   9   3  -3    4.70    7.30
  -9   3   3    3.60   10.20
  -7  -3   3 3681.73  137.29
  -7  -3   3 3590.44  136.49
  -7  -3   3 3640.04  137.59
   7  -3  -3 3743.63  137.99
  -7  -3   3 3552.84  136.09
  -7   3   3 3578.24  138.29
   7   3  -3 3726.83  136.39
   7   3  -3 3527.05  136.39
   7   3  -3 3603.54  137.59
  -5  -3   3 1749.72   65.69
  -5  -3   3 1654.93   66.09
  -5  -3   3 1737.53   65.49
  -5  -3   3 1707.43   66.69
  -5   3   3 1620.54   64.79
   5   3  -3 1752.72   66.09
   5   3  -3 1735.93   67.39
  -5   3   3 1707.33   68.49
   5   3  -3 1648.83   66.19
  -3  -3   3   28.40    6.90
  -3  -3   3   31.40    7.30
   3  -3  -3   13.40    8.30
  -3  -3   3   30.10    5.90
   3  -3  -3   13.80    4.90
   3   3  -3   19.20    7.80
   3   3  -3   35.20    7.10
   3   3  -3   22.90    6.40
  -1  -3   3 2311.47   86.99
   1  -3  -3 2224.78   85.59
   1  -3  -3 2331.37   88.89
  -1  -3   3 2111.69   86.09
   1   3  -3 2373.36   87.49
  -1   3   3 2385.86   87.79
   1   3  -3 2278.47   86.39
  -1   3   3 2230.38   86.39
   1   3  -3 2176.18   87.39
   1  -3   3   24.70    8.80
   1  -3   3   42.90   11.20
  -1  -3  -3   16.80    7.80
  -1  -3  -3   12.80    9.30
   1   3   3   15.10    9.20
   1   3   3   11.40    8.00
  -1   3  -3   20.30    9.90
  -1   3  -3   32.40    8.40
   3  -3   3 1852.21   76.29
   3  -3   3 1794.12   73.09
  -3  -3  -3 1729.93   73.79
  -3  -3  -3 1924.11   72.79
   3   3   3 1920.51   74.09
   3   3   3 1761.92   72.79
  -3   3  -3 1854.61   73.39
  -3   3  -3 1789.12   75.09
   5  -3   3   26.30   13.00
  -5  -3  -3    7.70   12.20
  -5  -3  -3    8.90   10.40
   5  -3   3  -23.60   10.80
  -5   3  -3    4.90   10.90
   5   3   3   -1.00   11.20
   5   3   3    5.50   10.60
  -5   3  -3   10.00   15.50
   7  -3   3   12.20   11.30
   7  -3   3    1.50   13.00
  -7  -3  -3   11.50   13.20
  -7  -3  -3   -1.50   13.50
  -7   3  -3   -9.20   16.20
   7   3   3    3.70   12.20
   7   3   3    9.20   13.00
  -7   3  -3   40.50   14.60
   7   3   3   -7.10   13.30
  -9  -3  -3  527.95   35.70
   9  -3   3  531.95   31.00
   9  -3   3  503.75   33.80
  -9  -3  -3  543.55   34.50
   9   3   3  578.64   33.30
  -9   3  -3  551.24   36.30
   9   3   3  538.25   33.60
   9   3   3  603.54   36.60
  -9   3  -3  529.35   39.40
  11  -3   3   44.30   31.80
 -11  -3  -3   -9.90   17.80
 -11  -3  -3   -3.20   17.50
  11  -3   3   -5.50   17.60
  11   3   3    4.60   16.10
 -11   3  -3   -6.90   17.70
  11   3   3  -19.80   17.40
  11   3   3   16.10   18.50
 -11   3  -3   -7.90   21.70
 -13  -3  -3   25.40   21.60
 -13  -3  -3   28.50   24.90
  13  -3   3   37.50   21.80
  13  -3   3   22.80   22.30
  13   3   3   62.19   24.80
  13   3   3    6.10   20.40
 -13   3  -3  -17.30   21.20
  13   3   3   25.60   20.00
 -18  -4   3  -33.80   20.40
 -18  -4   3   12.50   16.50
 -18  -4   3   14.10   17.80
  18  -4  -3    9.30   19.20
 -18  -4   3   16.80   17.00
  18   4  -3   29.10   16.70
 -18   4   3  -10.00   16.40
 -18   4   3   17.80   14.90
  18   4  -3    9.10   14.80
  18   4  -3    5.50   23.00
 -16  -4   3  171.28   21.10
 -16  -4   3  206.08   23.00
 -16  -4   3  181.28   21.10
 -16  -4   3  264.87   26.30
  16  -4  -3  200.08   25.70
  16   4  -3  191.08   22.40
 -16   4   3  215.08   24.90
  16   4  -3  206.88   23.80
 -14  -4   3   -8.40   11.20
 -14  -4   3   -5.50   12.30
 -14  -4   3   21.40   12.10
 -14  -4   3    8.40   12.10
  14  -4  -3   -6.70   12.70
  14   4  -3  -12.80   12.50
  14   4  -3   14.20   11.10
  12  -4  -3   53.29   12.30
 -12  -4   3   52.89   14.20
 -12  -4   3   57.29   11.90
 -12  -4   3   45.00   11.60
 -12  -4   3   44.60   12.10
  12   4  -3   53.09   11.00
  10  -4  -3  118.89   14.40
 -10  -4   3  153.58   15.30
 -10  -4   3  134.49   15.00
 -10  -4   3  123.59   15.20
 -10  -4   3  116.09   13.40
  10   4  -3  122.89   13.10
 -10   4   3  117.69   16.20
  10   4  -3  122.49   14.40
  -8  -4   3  538.45   24.50
   8  -4  -3  483.55   26.20
  -8  -4   3  492.95   25.40
  -8  -4   3  476.05   25.90
  -8  -4   3  499.55   27.40
   8   4  -3  499.95   24.90
   8   4  -3  472.25   25.80
  -8   4   3  479.55   28.70
  -6  -4   3 2917.61  111.99
  -6  -4   3 3042.60  111.69
  -6  -4   3 2967.60  111.89
  -6  -4   3 2995.10  112.79
   6   4  -3 2893.11  112.39
  -6   4   3 2806.32  111.59
   6   4  -3 2951.20  113.49
   6   4  -3 3046.60  112.19
  -6   4   3 2981.80  114.69
   4  -4  -3  125.79   11.20
  -4  -4   3  142.39   11.10
  -4  -4   3  146.19   13.20
  -4  -4   3  148.19   12.60
   4   4  -3  140.79   12.10
  -4   4   3  145.79   18.40
   4   4  -3  129.79   13.60
   4   4  -3  125.09   13.40
  -4   4   3  137.79   11.70
   4   4  -3  144.39   15.20
  -2  -4   3  784.12   33.00
  -2  -4   3  715.33   32.40
  -2  -4   3  800.72   32.80
   2  -4  -3  774.42   35.50
   2  -4  -3  713.53   31.70
   2   4  -3  758.92   34.00
   2   4  -3  787.92   34.00
   2   4  -3  767.12   32.30
  -2   4   3  789.22   32.20
   0  -4  -3 1963.20   75.99
   0  -4   3 1839.42   73.79
   0  -4   3 1891.91   74.89
   0   4  -3 1952.30   76.69
   0   4  -3 1962.60   74.39
   0   4   3 1887.81   74.49
   0   4   3 2011.10   75.29
   0   4  -3 1902.71   75.69
  -2  -4  -3  146.09   18.00
   2  -4   3  155.28   20.80
  -2  -4  -3  214.18   15.50
  -2   4  -3  196.08   20.50
  -2   4  -3  202.58   16.30
   2   4   3  202.38   16.50
   2   4   3  171.28   17.90
  -4  -4  -3  265.47   19.50
  -4  -4  -3  281.07   22.60
   4  -4   3  249.58   24.10
  -4   4  -3  229.58   24.30
  -4   4  -3  301.57   21.20
   4   4   3  244.48   21.00
   4   4   3  278.77   21.20
   6  -4   3   -9.70   12.90
  -6  -4  -3   -7.10   12.10
  -6  -4  -3    0.60   12.00
   6   4   3    1.30   22.40
  -6   4  -3   -9.90   11.20
   6   4   3  -16.00   11.50
   6   4   3    6.20   12.10
  -6   4  -3    0.10   14.10
  -8  -4  -3  433.96   30.10
  -8  -4  -3  476.45   31.90
   8  -4   3  399.06   30.50
   8   4   3  430.26   29.80
  -8   4  -3  511.65   32.70
   8   4   3  462.15   30.70
  -8   4  -3  393.96   34.30
   8   4   3  433.06   32.10
 -10  -4  -3  173.88   22.40
  10  -4   3  240.38   22.70
 -10  -4  -3  239.38   23.40
  10  -4   3  219.58   24.20
 -10   4  -3  243.98   29.50
  10   4   3  191.28   23.30
  10   4   3  181.98   21.60
  10   4   3  173.68   20.30
 -10   4  -3  229.68   26.60
  12  -4   3  -18.40   17.60
  12  -4   3    2.80   19.00
 -12  -4  -3   19.10   19.70
 -12  -4  -3    0.10   21.30
 -12   4  -3   25.20   23.50
  12   4   3   52.19   19.20
  12   4   3  -32.90   20.60
  12   4   3   25.20   20.50
 -12   4  -3    2.50   20.00
  14  -4   3  -34.00   22.90
 -14  -4  -3   52.19   27.20
  14   4   3   27.60   27.70
  14   4   3   -6.00   24.70
 -14   4  -3   12.80   28.10
 -19  -5   3  -28.50   19.70
 -19  -5   3    7.40   21.80
 -19  -5   3   12.70   19.90
  19  -5  -3   10.90   22.20
  19   5  -3   -8.00   18.70
 -19   5   3  -12.40   15.20
  17  -5  -3   88.79   19.90
 -17  -5   3  100.29   20.50
 -17  -5   3  113.09   17.30
 -17  -5   3  106.59   18.20
 -17  -5   3   70.69   18.20
  17   5  -3   92.09   16.30
  17   5  -3   97.29   18.00
 -15  -5   3  255.67   23.20
 -15  -5   3  246.38   27.10
  15  -5  -3  204.98   26.80
 -15  -5   3  188.08   23.60
 -15  -5   3  213.88   24.70
  15   5  -3  244.58   23.10
  15   5  -3  209.38   20.20
 -13  -5   3    8.60   11.70
 -13  -5   3   -9.00   12.90
 -13  -5   3   -7.20   11.80
 -13  -5   3   -0.20   11.00
  13   5  -3   -3.10   11.20
  13   5  -3    6.00   12.10
  11  -5  -3   56.09   13.70
 -11  -5   3   72.89   13.70
 -11  -5   3   76.39   12.60
 -11  -5   3   80.39   13.10
 -11   5   3   55.19   15.30
  11   5  -3   57.39   12.60
  -9  -5   3   72.99   13.20
  -9  -5   3   63.79    9.20
   9  -5  -3   51.49   11.30
  -9  -5   3   87.99   12.20
  -9  -5   3   82.89   11.90
  -9   5   3   64.99   14.30
   9   5  -3   68.29   11.00
   9   5  -3   71.79   12.30
  -7  -5   3 2511.55   92.49
  -7  -5   3 2453.15   93.09
  -7  -5   3 2392.06   92.09
  -7  -5   3 2475.55   91.69
  -7  -5   3 2362.16   93.49
  -7   5   3 2221.08   94.49
   7   5  -3 2365.26   92.59
   7   5  -3 2450.05   92.39
  -7   5   3 2277.57   92.39
   7   5  -3 2386.96   93.69
  -5  -5   3 1602.14   66.19
  -5  -5   3 1743.53   67.39
  -5  -5   3 1721.13   66.59
   5   5  -3 1736.63   68.49
  -5   5   3 1791.02   70.79
  -5   5   3 1624.74   66.39
   5   5  -3 1669.13   66.89
   5   5  -3 1699.93   66.49
  -3  -5   3  218.48   15.30
  -3  -5   3  203.58   15.40
   3  -5  -3  238.78   14.90
  -3  -5   3  236.48   15.00
   3   5  -3  220.08   17.90
  -3   5   3  169.98   15.00
   3   5  -3  211.98   14.50
   3   5  -3  231.08   16.50
   3   5  -3  223.18   17.20
   1  -5  -3 3072.29  117.39
  -1  -5   3 3137.29  117.09
   1  -5  -3 2973.50  116.99
  -1  -5   3 3157.98  117.89
   1   5  -3 3158.28  118.89
   1   5  -3 3195.08  116.69
   1   5  -3 3063.69  117.69
  -1   5   3 2997.90  116.29
  -1  -5  -3  923.31   40.40
  -1  -5  -3  910.71   38.60
   1  -5   3  915.61   39.80
   1   5   3  913.61   39.70
  -1   5  -3  937.11   40.60
  -1   5  -3  907.71   42.90
   1   5   3  888.11   39.50
  -1   5  -3  956.10   38.70
  -3  -5  -3  322.07   20.00
   3  -5   3  299.67   25.80
  -3  -5  -3  300.27   22.60
  -3   5  -3  297.67   23.80
  -3   5  -3  350.06   20.00
  -3   5  -3  264.47   25.00
   3   5   3  290.87   20.80
   3   5   3  296.77   21.50
  -5  -5  -3   33.50   11.80
  -5  -5  -3   38.90   13.20
   5  -5   3   37.00   14.30
   5   5   3    4.20   12.20
  -5   5  -3   34.60   13.10
   5   5   3   26.50   11.30
  -5   5  -3   16.60   15.70
   5   5   3   26.60   13.10
   7  -5   3  128.79   18.10
  -7  -5  -3  103.49   16.60
   7   5   3  126.89   17.80
  -7   5  -3  124.69   20.00
   7   5   3  101.79   17.10
  -7   5  -3  124.29   18.20
   7   5   3  132.69   17.50
  -9  -5  -3  499.35   35.50
   9  -5   3  494.75   32.20
  -9  -5  -3  512.85   33.70
   9   5   3  491.45   32.80
  -9   5  -3  569.24   35.80
   9   5   3  532.95   35.90
  -9   5  -3  496.45   36.50
   9   5   3  475.25   33.00
  11  -5   3   20.90   17.50
 -11  -5  -3   -0.50   19.90
 -11  -5  -3   -2.90   21.40
  11  -5   3   -0.80   17.20
  11   5   3   21.80   19.00
  11   5   3   37.90   20.30
 -11   5  -3   76.99   22.10
  11   5   3   46.90   18.90
 -11   5  -3   49.00   19.10
 -13  -5  -3  -24.60   24.70
 -13  -5  -3   55.79   23.60
  13  -5   3    5.30   21.00
  13  -5   3   13.60   19.80
  13   5   3  -13.20   23.50
 -13   5  -3    4.40   23.50
 -13   5  -3   34.30   22.50
  13   5   3  -35.60   25.40
 -18  -6   3   -7.30   17.90
  18  -6  -3  -20.90   19.80
 -18  -6   3    9.10   18.70
 -18  -6   3   20.00   20.30
  18   6  -3   30.10   17.50
  18   6  -3    5.80   21.20
  16  -6  -3  200.58   22.90
 -16  -6   3  227.98   21.80
 -16  -6   3  186.28   20.80
 -16  -6   3  216.38   27.20
 -16  -6   3  289.67   30.30
  16   6  -3  245.38   27.50
  16   6  -3  210.88   20.50
 -14  -6   3   68.59   14.30
 -14  -6   3   79.99   15.00
 -14  -6   3   87.79   16.10
 -14  -6   3   73.19   16.40
  14  -6  -3   67.19   16.20
  14   6  -3   55.39   14.50
  14   6  -3   73.29   14.00
 -12  -6   3    6.30    9.90
 -12  -6   3   10.80   11.70
 -12  -6   3    3.00   12.30
 -12  -6   3   17.20   11.80
  12  -6  -3  -16.60   12.80
  12   6  -3  -14.50   12.60
 -12   6   3    2.30   16.00
  12   6  -3  -15.40   10.90
 -10  -6   3  229.88   21.10
 -10  -6   3  198.88   20.00
  10  -6  -3  162.28   20.40
 -10  -6   3  253.57   22.30
 -10  -6   3  237.88   18.70
  10   6  -3  278.37   20.20
 -10   6   3  219.78   23.30
 -10   6   3  179.18   22.70
  -8  -6   3  281.27   22.80
  -8  -6   3  291.47   20.50
  -8  -6   3  296.77   20.20
  -8  -6   3  310.67   19.10
  -8  -6   3  270.17   18.50
   8   6  -3  291.47   19.70
  -8   6   3  252.77   22.00
  -8   6   3  266.07   25.10
   8   6  -3  298.37   21.60
  -6  -6   3 2540.25   97.29
  -6  -6   3 2467.75   98.49
  -6  -6   3 2652.03   98.39
  -6  -6   3 2598.04   98.19
   6   6  -3 2568.54   99.29
  -6   6   3 2402.16   97.79
  -6   6   3 2489.15  100.69
   6   6  -3 2643.14   97.69
   6   6  -3 2494.75   98.09
   4  -6  -3  446.56   24.00
  -4  -6   3  455.75   23.50
  -4  -6   3  461.45   23.70
  -4  -6   3  475.05   23.40
   4   6  -3  478.05   24.90
   4   6  -3  443.56   25.80
   4   6  -3  483.05   22.70
  -4   6   3  413.06   23.70
   4   6  -3  458.55   25.60
  -2  -6   3 1564.94   62.99
   2  -6  -3 1578.64   63.49
  -2  -6   3 1682.13   64.09
   2   6  -3 1578.34   64.49
   2   6  -3 1594.24   62.59
   2   6  -3 1574.24   65.19
   0  -6  -3 2587.14  101.09
   0  -6   3 2660.03  100.59
   0  -6  -3 2560.94  100.89
   0   6  -3 2753.32  100.19
   0   6  -3 2625.74  103.19
   0   6   3 2553.14  100.09
   0   6   3 2608.94  100.39
   0   6  -3 2696.43  101.29
   2  -6   3   71.89   12.40
  -2  -6  -3   58.89   12.00
  -2   6  -3   40.50   13.80
  -2   6  -3   64.89   12.20
   2   6   3   33.40   10.00
   2   6   3   57.69   11.50
  -4  -6  -3  162.28   17.80
   4  -6   3  179.98   19.90
  -4  -6  -3  147.99   20.60
  -4   6  -3  180.68   17.30
  -4   6  -3  176.98   21.70
   4   6   3  175.78   17.40
   4   6   3  165.98   20.30
  -4   6  -3  149.39   19.60
   4   6   3  149.69   19.60
  -6  -6  -3   19.10   13.70
  -6  -6  -3   19.00   12.40
   6  -6   3    9.70   13.30
   6   6   3    8.60   14.00
   6   6   3   -6.10   12.70
  -6   6  -3   -2.50   15.80
   6   6   3    7.00   12.70
  -6   6  -3    7.00   12.10
   8  -6   3  280.47   28.70
  -8  -6  -3  478.75   30.50
  -8  -6  -3  383.46   30.40
  -8   6  -3  497.65   32.30
   8   6   3  399.46   31.80
  -8   6  -3  309.17   34.00
   8   6   3  372.16   29.30
   8   6   3  447.26   30.10
 -10  -6  -3  413.36   32.00
  10  -6   3  245.08   28.60
 -10  -6  -3  331.97   34.40
  10   6   3  281.67   32.10
  10   6   3  356.16   33.60
  10   6   3  344.77   32.40
 -10   6  -3  409.06   31.50
 -10   6  -3  265.97   26.40
 -12  -6  -3    4.30   22.50
  12  -6   3  -17.60   17.50
 -12  -6  -3   -5.90   20.50
  12   6   3  -10.30   23.20
 -12   6  -3    6.30   23.90
  12   6   3    1.00   21.70
 -12   6  -3   20.90   20.10
  17  -7  -3  100.49   20.90
 -17  -7   3   61.99   18.70
 -17  -7   3   35.40   17.80
 -17  -7   3   63.29   20.10
  17   7  -3   87.59   19.30
  17   7  -3   46.20   19.80
 -15  -7   3   78.29   16.30
 -15  -7   3  112.89   18.60
 -15  -7   3   95.49   18.80
 -15  -7   3  105.09   17.60
  15  -7  -3  102.09   18.90
  15   7  -3   64.09   15.50
  15   7  -3  107.29   17.90
 -13  -7   3    6.20   14.10
  13  -7  -3   -2.00   14.80
 -13  -7   3  -11.40   12.60
 -13  -7   3   -4.00   12.60
 -13  -7   3   10.90   13.30
 -13   7   3   22.50   17.80
  13   7  -3  -16.30   11.10
  13   7  -3   39.20   13.10
 -13   7   3    0.30   18.60
  11  -7  -3   23.90   13.50
 -11  -7   3    0.10   11.90
 -11  -7   3   27.70   13.50
 -11  -7   3   24.70   11.40
 -11   7   3   28.10   15.10
  11   7  -3   24.90   11.90
  11   7  -3   20.80   12.80
 -11   7   3    7.10   14.10
  -9  -7   3    0.10    8.80
  -9  -7   3   -2.80    9.50
  -9  -7   3    3.10   10.00
  -9  -7   3    0.60   11.40
  -9  -7   3    6.80    9.20
  -9   7   3   23.00   14.60
  -9   7   3   -8.30   11.80
   9   7  -3    3.80   10.10
  -7  -7   3 1354.76   53.89
  -7  -7   3 1326.77   56.49
  -7  -7   3 1357.16   55.39
  -7  -7   3 1322.27   54.79
  -7  -7   3 1416.46   55.99
   7   7  -3 1314.27   55.79
   7   7  -3 1398.96   55.19
  -7   7   3 1266.17   58.99
  -7   7   3 1240.28   55.69
  -5  -7   3  819.02   36.90
   5  -7  -3  874.61   39.00
  -5  -7   3  851.31   38.00
  -5  -7   3  890.31   37.90
   5   7  -3  825.22   39.80
  -5   7   3  819.72   38.30
  -5   7   3  904.51   43.10
   5   7  -3  833.02   37.80
   5   7  -3  878.71   37.40
  -3  -7   3  163.98   14.90
  -3  -7   3  144.09   14.80
   3  -7  -3  154.98   16.00
   3   7  -3  173.88   18.20
   3   7  -3  174.68   14.50
   3   7  -3  150.18   18.20
   3   7  -3  156.08   16.00
  -3   7   3  153.28   16.80
   1  -7  -3 1139.59   48.70
  -1  -7   3 1153.18   49.00
  -1  -7   3 1153.98   47.40
   1   7  -3 1174.08   47.00
   1   7  -3 1154.58   49.20
   1   7  -3 1140.79   50.99
  -1  -7  -3  111.09   13.30
   1  -7   3  117.69   14.60
  -1  -7  -3  113.29   13.90
   1   7   3  130.59   15.50
  -1   7  -3  133.99   14.00
   1   7   3  116.19   14.00
  -1   7  -3  139.19   17.70
  -1   7  -3  145.89   17.50
  -3  -7  -3  251.57   18.80
   3  -7   3  215.48   24.10
  -3   7  -3  263.07   19.60
   3   7   3  268.37   22.30
  -3   7  -3  249.68   21.80
   3   7   3  259.67   21.50
   3   7   3  249.08   22.20
  -5  -7  -3   -7.30   13.10
  -5  -7  -3   19.80   11.60
  -5   7  -3   -2.50   12.50
  -5   7  -3   -9.40   15.60
   5   7   3   -6.00   11.90
   5   7   3   -5.10   11.90
   7  -7   3   34.20   15.10
  -7  -7  -3   91.79   16.60
  -7  -7  -3   71.59   15.00
   7   7   3   39.30   15.50
   7   7   3   66.39   16.40
  -7   7  -3   72.79   19.40
   7   7   3   72.99   16.80
   9  -7   3  318.77   28.30
  -9  -7  -3  329.07   29.60
  -9  -7  -3  345.37   33.10
  -9   7  -3  292.27   27.50
   9   7   3  358.16   31.80
   9   7   3  295.07   31.90
  -9   7  -3  375.76   30.40
   9   7   3  326.57   31.90
 -11  -7  -3   31.80   20.60
 -11  -7  -3   11.50   19.00
  11  -7   3   -9.70   15.00
 -11   7  -3   22.40   23.50
 -11   7  -3   50.99   19.10
  11   7   3   -4.40   21.60
  11   7   3   15.80   19.70
  11   7   3   -3.40   22.20
 -16  -8   3  111.69   20.50
  16  -8  -3   95.89   21.70
 -16  -8   3   79.79   19.90
 -16  -8   3   74.59   18.30
  16   8  -3  143.49   20.20
 -16   8   3  119.09   24.40
  16   8  -3   90.09   19.20
 -14  -8   3    5.00   14.20
 -14  -8   3  -38.40   13.30
 -14  -8   3   16.10   16.20
  14  -8  -3   -7.70   15.70
 -14  -8   3  -11.00   14.90
  14   8  -3    6.80   13.00
 -14   8   3  -22.10   19.20
  14   8  -3  -25.40   15.60
 -12  -8   3   58.89   13.10
 -12  -8   3   55.89   15.50
 -12  -8   3   70.69   15.50
 -12  -8   3   62.09   15.40
 -12  -8   3   89.79   15.10
 -12   8   3   57.29   18.80
  12   8  -3   61.39   14.10
  12   8  -3   66.19   14.50
 -12   8   3   50.09   18.30
 -10  -8   3   -0.10   10.90
 -10  -8   3   26.10   12.00
 -10  -8   3   10.10   11.10
 -10  -8   3    9.60   12.00
 -10  -8   3   21.80   11.80
 -10   8   3   11.00   15.70
  10   8  -3   17.50   12.20
 -10   8   3    6.20   14.50
  10   8  -3   16.80   13.30
  -8  -8   3  277.47   19.50
  -8  -8   3  296.27   23.60
  -8  -8   3  293.97   22.60
  -8  -8   3  292.37   22.10
  -8  -8   3  293.97   22.00
   8   8  -3  304.27   22.60
   8   8  -3  251.57   27.30
  -8   8   3  310.97   27.80
  -8   8   3  290.77   24.40
  -6  -8   3 1069.79   45.50
  -6  -8   3 1168.88   47.30
  -6  -8   3 1005.40   50.89
  -6  -8   3 1067.99   47.30
  -6   8   3 1050.79   48.20
   6   8  -3 1124.79   47.70
   6   8  -3 1156.98   46.80
  -6   8   3 1076.89   51.19
  -4  -8   3   33.60    9.90
  -4  -8   3   25.80    9.70
   4  -8  -3   23.60    8.90
  -4   8   3   18.50   11.60
   4   8  -3   32.90   11.80
   4   8  -3   16.90   10.60
   4   8  -3   29.80    8.80
   4   8  -3   23.80   11.30
  -2  -8   3  100.49   13.20
   2  -8  -3  107.09   12.90
  -2  -8   3  112.79   11.70
   2   8  -3  116.59   13.80
   2   8  -3  103.19   12.10
   2   8  -3  136.79   16.40
   2   8  -3   97.89   12.90
   0  -8  -3  458.85   26.60
   0  -8   3  493.95   25.20
   0  -8  -3  528.45   27.70
   0   8   3  486.05   25.40
   0   8  -3  522.55   25.30
   0   8  -3  493.65   27.40
   0   8  -3  476.55   31.10
   2  -8   3  110.69   13.70
  -2  -8  -3   75.69   13.40
  -2  -8  -3   90.09   13.50
   2   8   3   97.19   13.20
   2   8   3  106.49   14.00
   2   8   3   88.59   14.30
  -2   8  -3  118.29   18.30
  -4  -8  -3  177.38   17.80
  -4  -8  -3  151.98   19.00
  -4  -8  -3  193.18   22.50
   4   8   3  212.38   22.80
   4   8   3  174.98   23.20
  -4   8  -3  205.88   23.10
   4   8   3  186.18   21.70
  -6  -8  -3  -25.60   12.60
  -6  -8  -3   -2.20   13.70
   6   8   3   13.50   13.60
  -6   8  -3   35.10   18.60
   6   8   3    6.30   16.00
   6   8   3  -18.60   14.30
  -8  -8  -3  102.89   17.70
  -8  -8  -3  130.89   20.40
   8   8   3  133.19   19.20
  -8   8  -3   97.19   22.40
   8   8   3  139.29   19.40
  -8   8  -3  113.39   32.50
   8   8   3  123.09   19.70
 -10  -8  -3   36.30   18.30
 -10  -8  -3   52.89   19.20
  10  -8   3   50.69   16.90
  10   8   3   59.49   18.90
 -10   8  -3   65.29   23.40
  10   8   3   49.30   21.50
  10   8   3   78.19   21.70
 -10   8  -3   86.59   21.10
 -15  -9   3   73.39   17.60
 -15  -9   3   55.29   19.20
 -15  -9   3   73.59   18.50
  15   9  -3   64.79   18.80
  15   9  -3   66.59   18.90
 -15   9   3   28.10   23.20
 -13  -9   3   27.50   13.60
 -13  -9   3   -0.60   14.90
 -13  -9   3   22.90   14.70
 -13  -9   3   -7.10   15.10
 -13  -9   3   23.70   17.50
 -13   9   3   -1.40   19.00
  13   9  -3   29.00   15.00
 -13   9   3   -1.80   21.10
  13   9  -3   18.10   15.80
 -11  -9   3   -6.90   12.10
 -11  -9   3    6.20   13.10
 -11  -9   3   14.10   13.70
 -11  -9   3   13.80   14.70
 -11  -9   3   20.10   11.50
 -11   9   3    7.00   17.10
  11   9  -3   14.30   13.90
  11   9  -3   -9.30   12.60
 -11   9   3    6.40   18.40
  -9  -9   3   27.40   12.70
  -9  -9   3   23.80   11.00
  -9  -9   3   -2.70   11.20
  -9  -9   3    8.10   13.10
  -9  -9   3   29.50   11.80
  -9   9   3   20.90   14.90
   9   9  -3   13.80   11.60
  -9   9   3   24.40   17.20
   9   9  -3   24.90   15.40
  -7  -9   3  791.02   35.50
  -7  -9   3  811.12   36.80
  -7  -9   3  639.84   41.50
  -7  -9   3  772.72   37.60
   7   9  -3  729.13   37.10
   7   9  -3  836.52   37.20
  -7   9   3  636.84   45.90
  -5  -9   3  360.76   22.50
   5  -9  -3  339.07   24.10
  -5  -9   3  334.27   23.60
  -5  -9   3  321.37   25.00
   5   9  -3  369.36   23.10
  -5   9   3  348.77   24.90
  -5   9   3  315.07   31.50
   5   9  -3  355.26   24.20
   3  -9  -3   -7.50   10.60
  -3  -9   3    1.20   10.10
  -3  -9   3   18.70    9.00
   3   9  -3    9.40   10.00
   3   9  -3   15.20    9.70
   3   9  -3   19.50   12.30
   3   9  -3   13.40   13.40
  -3   9   3    9.40   11.50
  -1  -9   3  442.56   24.00
   1  -9  -3  434.86   26.60
  -1  -9   3  433.76   27.10
   1   9  -3  461.55   26.40
   1   9  -3  450.75   30.20
   1   9  -3  499.15   25.00
  -1  -9  -3   27.20   11.40
  -1  -9  -3   48.00   12.40
  -1   9  -3   23.60   14.30
   1   9   3    7.40   10.90
   1   9   3   36.10   12.10
   1   9   3   27.20   12.00
  -3  -9  -3  279.07   24.70
  -3  -9  -3  302.27   24.90
   3   9   3  377.56   26.70
  -3   9  -3  309.07   29.70
   3   9   3  322.17   25.50
   3   9   3  313.87   23.90
  -5  -9  -3    3.60   13.30
  -5  -9  -3  -29.60   13.50
  -5  -9  -3   35.50   11.60
   5   9   3   28.20   15.20
   5   9   3  -17.20   12.70
   5   9   3    6.00   15.10
  -5   9  -3   -4.10   17.40
  -7  -9  -3    2.50   18.30
  -7  -9  -3    3.40   13.90
   7   9   3   -5.30   16.50
   7   9   3   27.10   16.90
  -7   9  -3   -6.70   20.10
   7   9   3    7.80   16.10
  -9  -9  -3  110.29   19.80
  -9  -9  -3  108.39   18.70
   9   9   3  126.69   24.00
  -9   9  -3  133.09   24.90
   9   9   3   83.69   19.50
   9   9   3  118.99   23.50
 -11  -9  -3   23.30   22.40
 -11   9  -3  -16.80   22.20
 -14 -10   3   -4.30   14.70
 -14 -10   3   29.30   18.30
 -14 -10   3   10.30   17.50
 -14 -10   3  -34.80   16.10
 -14  10   3    5.20   22.30
  14  10  -3   15.30   18.40
  14  10  -3   -8.40   17.60
 -14  10   3   22.00   25.80
 -12 -10   3   -8.90   14.70
 -12 -10   3    4.80   15.40
 -12 -10   3   -2.10   15.40
 -12 -10   3  -20.10   15.40
 -12 -10   3    1.60   12.20
  12  10  -3   -7.20   15.20
 -12  10   3   24.40   21.60
 -12  10   3    3.70   19.00
  12  10  -3    8.50   16.70
 -10 -10   3   24.50   13.70
 -10 -10   3   24.80   12.10
 -10 -10   3   24.80   12.70
 -10 -10   3   17.80   14.50
 -10 -10   3   32.60   13.70
 -10  10   3   11.80   17.40
 -10  10   3   32.50   18.90
  10  10  -3   34.50   13.90
  10  10  -3   41.10   15.60
  -8 -10   3  175.38   20.60
  -8 -10   3  178.58   20.40
  -8 -10   3  151.38   17.50
   8  10  -3  163.18   17.90
  -8  10   3  174.88   22.50
   8  10  -3  140.49   17.70
  -8  10   3  215.58   25.70
  -6 -10   3  625.74   32.00
  -6 -10   3  603.64   30.40
  -6 -10   3  569.84   31.50
  -6  10   3  547.35   33.40
   6  10  -3  566.14   32.20
  -6  10   3  583.24   38.30
  -4 -10   3  112.99   15.60
  -4 -10   3  142.39   18.60
  -4 -10   3  158.08   18.10
   4 -10  -3  152.08   18.50
   4  10  -3  156.48   15.20
  -4  10   3  143.79   21.10
   4  10  -3  142.99   14.80
  -4  10   3  147.29   17.30
  -2 -10   3  293.47   22.80
   2 -10  -3  300.67   24.90
  -2 -10   3  294.97   20.30
   2  10  -3  291.57   22.40
   2  10  -3  311.17   26.80
   2  10  -3  290.77   21.80
   2  10  -3  281.57   23.80
   0  10  -3  319.87   28.20
  -2 -10  -3   38.60   13.20
  -2 -10  -3   21.50   12.30
   2  10   3   41.20   13.10
  -2  10  -3   19.00   17.20
   2  10   3   -7.40   18.80
   2  10   3   32.60   14.30
  -4 -10  -3   24.80   14.80
  -4 -10  -3   29.90   14.90
   4  10   3   26.20   14.60
   4  10   3   36.20   16.00
   4  10   3   37.50   14.80
  -4  10  -3   -5.40   18.60
  -6 -10  -3  -26.30   15.40
  -6 -10  -3  -16.00   16.00
   6  10   3   -6.00   16.90
   6  10   3   -8.20   16.50
  -6  10  -3    3.80   20.20
   6  10   3  -11.80   18.20
  -8 -10  -3   92.99   18.20
  -8 -10  -3  130.69   20.90
  -8 -10  -3  114.99   20.50
   8  10   3  143.69   23.20
   8  10   3   81.39   19.50
   8  10   3   94.69   22.20
  -8  10  -3   54.79   24.10
  10  10   3  171.18   45.50
 -13 -11   3   18.70   15.20
 -13 -11   3    3.70   17.10
 -13 -11   3   -7.90   17.30
  13  11  -3   61.69   29.20
 -13  11   3  -14.10   24.90
  13  11  -3    0.60   16.80
 -13  11   3  -19.60   21.40
 -11 -11   3  -12.60   15.80
 -11 -11   3   -4.70   14.90
 -11 -11   3   50.29   13.90
 -11 -11   3   22.50   16.70
 -11  11   3   -1.40   21.30
 -11  11   3   64.89   22.50
  11  11  -3   13.30   15.20
  11  11  -3    2.50   17.40
  -9 -11   3   -4.80   15.00
  -9 -11   3   48.90   13.00
  -9 -11   3   10.50   12.90
  -9  11   3   12.40   18.30
  -9  11   3   42.50   21.30
   9  11  -3   16.70   16.00
   9  11  -3    5.00   14.50
  -7 -11   3  291.97   24.40
  -7 -11   3  326.47   24.10
  -7 -11   3  280.37   26.20
   7  11  -3  335.67   25.10
  -7  11   3  282.07   29.00
  -7  11   3  315.07   33.80
   7  11  -3  258.77   27.10
  -5 -11   3  243.18   21.70
   5 -11  -3  233.18   24.40
  -5 -11   3  256.37   20.60
  -5 -11   3  246.38   24.20
  -5  11   3  241.98   26.70
   5  11  -3  260.67   24.10
   5  11  -3  243.68   23.30
  -5  11   3  251.27   32.10
  -3 -11   3  100.49   13.90
   3 -11  -3   66.59   15.30
  -3 -11   3   94.79   12.30
  -3 -11   3   85.19   13.80
   3  11  -3   89.29   14.10
   3  11  -3   93.39   17.70
   1 -11  -3  458.15   29.50
  -1 -11   3  428.66   27.90
   1  11  -3  448.26   32.50
   1  11  -3  470.95   26.80
  -1 -11  -3  117.19   16.10
  -1 -11  -3  197.18   24.00
   1  11   3  204.98   23.00
  -1  11  -3  132.69   20.90
  -3 -11  -3   41.40   14.50
  -3 -11  -3   27.50   14.40
   3  11   3   31.30   17.10
   3  11   3   11.20   14.20
  -3  11  -3   45.60   19.30
   3  11   3   27.70   15.00
  -5 -11  -3    8.00   16.40
  -5 -11  -3   -2.20   15.00
   5  11   3  -12.30   16.10
   5  11   3   -5.70   16.60
  -5  11  -3  -21.30   20.00
   5  11   3    9.90   16.80
  -7 -11  -3   23.70   20.00
  -7 -11  -3   49.99   21.50
   7  11   3   39.80   19.80
   7  11   3   41.90   20.90
   7  11   3   33.80   20.20
  -7  11  -3   80.59   37.20
  -9 -11  -3  109.69   25.50
  -9 -11  -3  113.69   20.80
   9  11   3  109.09   31.90
 -12 -12   3  -12.70   17.60
 -12 -12   3  -16.40   17.10
 -12  12   3   21.40   26.20
 -12  12   3  -53.09   20.50
  12  12  -3    6.60   18.90
 -10 -12   3   -6.20   16.20
 -10 -12   3   14.70   15.40
 -10 -12   3   37.40   16.10
  10  12  -3    6.20   16.40
 -10  12   3  -13.10   20.60
  10  12  -3   37.80   18.20
 -10  12   3   37.70   24.10
  -8 -12   3   47.50   14.80
  -8 -12   3   54.99   15.60
  -8 -12   3   33.40   16.60
   8  12  -3   42.10   14.70
  -8  12   3   60.69   22.30
  -8  12   3   38.20   19.20
   8  12  -3   32.80   17.80
  -6 -12   3  190.78   24.70
  -6 -12   3  178.08   22.00
  -6 -12   3  182.38   17.90
  -6  12   3  153.18   24.30
   6  12  -3  260.77   24.50
   6  12  -3  215.58   21.20
  -6  12   3  187.38   22.00
  -4 -12   3   18.00   13.00
  -4 -12   3   45.50   13.30
   4 -12  -3   32.30   14.60
  -4 -12   3   10.60   10.90
  -4  12   3   16.50   21.40
   4  12  -3   34.40   14.00
  -4  12   3   37.90   16.90
   4  12  -3   36.10   16.20
   2 -12  -3  124.99   18.30
  -2 -12   3  146.19   14.70
  -2 -12   3  151.18   16.70
  -2 -12   3  139.09   17.40
   2  12  -3  135.89   17.20
   2  12  -3  159.18   20.90
   0 -12  -3  247.08   25.10
   0  12  -3  228.48   23.80
  -2 -12  -3   13.80   16.30
  -2 -12  -3    1.20   12.50
  -2 -12  -3   22.80   16.50
  -2  12  -3   22.30   20.10
   2  12   3   -4.80   16.20
   2  12   3   -6.80   14.20
  -4 -12  -3   20.40   17.90
  -4 -12  -3   18.70   16.90
   4  12   3    5.10   20.30
   4  12   3   48.10   17.40
   4  12   3   31.30   17.00
  -4  12  -3   27.50   20.80
  -6 -12  -3   -1.30   19.90
   6  12   3   -6.40   19.60
   6  12   3   35.60   21.10
   6  12   3  -40.00   20.20
 -11 -13   3    3.00   19.20
 -11 -13   3  -30.70   17.50
  11  13  -3  -11.00   19.60
 -11  13   3   22.70   27.50
  -9 -13   3  -17.50   15.40
  -9 -13   3    6.30   17.50
   9  13  -3   43.20   20.40
  -9  13   3    0.30   25.90
  -9  13   3   -4.80   20.10
   9  13  -3   22.80   16.50
  -7 -13   3   88.69   15.80
  -7 -13   3  111.99   19.00
  -7 -13   3  141.69   18.10
  -7  13   3  130.29   26.70
   7  13  -3  120.29   21.20
  -7  13   3  117.79   22.30
   7  13  -3  135.09   17.90
  -5 -13   3   72.29   15.50
  -5 -13   3   78.89   17.00
  -5 -13   3   69.79   12.80
   5  13  -3   95.49   15.60
  -5  13   3   52.39   24.40
  -5  13   3   48.90   21.00
   5  13  -3   67.69   18.10
  -3 -13   3   30.10   14.60
  -3 -13   3   35.90   15.40
   3 -13  -3   11.50   16.60
  -3 -13   3   19.40   12.10
   3  13  -3    5.20   13.90
   3  13  -3   15.40   15.50
  -1 -13   3   26.70   15.10
   1 -13  -3   50.59   17.40
   1  13  -3   88.79   22.10
  -1 -13  -3    0.30   16.40
   1  13   3   37.00   18.40
  -1  13  -3   47.50   21.50
   1  13   3   -0.80   15.20
  -3 -13  -3   38.30   14.80
  -3 -13  -3   25.90   18.30
  -3 -13  -3   17.90   17.50
   3  13   3   10.40   20.80
   3  13   3    8.00   17.10
  -5 -13  -3   -4.50   17.00
  -5 -13  -3   33.40   20.30
   5  13   3   13.10   20.30
   5  13   3    1.70   21.80
  -8 -14   3   47.90   18.00
  -8 -14   3   -6.20   16.40
   8  14  -3   56.79   20.70
   8  14  -3  -29.40   19.40
  -8  14   3   51.39   26.30
  -6 -14   3  111.69   15.90
  -6 -14   3  118.39   20.20
  -6 -14   3   76.59   18.60
  -6  14   3  130.79   28.90
   6  14  -3  104.99   17.70
  -6  14   3   97.09   22.40
   6  14  -3  106.29   22.20
  -4 -14   3   19.20   16.30
  -4 -14   3   37.60   13.30
   4 -14  -3    5.10   18.80
  -4 -14   3   11.40   16.20
   4  14  -3   26.50   15.80
  -4  14   3   51.59   26.80
   4  14  -3    9.30   19.10
   2 -14  -3   57.29   19.30
  -2 -14   3   10.30   16.80
   2  14  -3   39.30   16.10
   0 -14  -3   32.90   20.60
  -2 -14  -3   22.50   21.10
  -2 -14  -3   33.40   18.20
   2  14   3   44.00   17.60
   2  14   3   18.70   21.00
 -20   0   4   -6.40   16.70
  20   0  -4   19.30   23.20
 -20   0   4   24.10   17.50
 -20   0   4   35.70   18.00
 -20   0   4   -3.40   24.80
 -18   0   4   -3.20   12.80
 -18   0   4  -30.40   14.50
 -18   0   4   45.40   14.30
  18   0  -4   17.60   16.60
 -18   0   4   29.00   17.10
  16   0  -4   27.60   14.80
 -16   0   4   25.70   12.70
 -16   0   4   19.80   14.10
 -16   0   4   38.30   14.90
 -16   0   4   31.20   12.80
 -14   0   4   67.79   12.70
 -14   0   4   54.59   12.40
 -14   0   4   69.49   14.10
 -14   0   4   31.90   12.50
  14   0  -4   78.79   16.00
  14   0  -4   46.20   11.10
 -12   0   4  237.48   16.80
 -12   0   4  224.58   20.50
 -12   0   4  208.68   17.90
  12   0  -4  231.98   20.30
  12   0  -4  224.98   17.50
 -12   0   4  237.78   20.80
 -10   0   4  455.55   21.60
 -10   0   4  414.76   22.70
  10   0  -4  434.56   22.40
  10   0  -4  466.65   24.90
  10   0  -4  426.46   23.90
 -10   0   4  441.66   23.90
  10   0  -4  450.95   21.60
 -10   0   4  413.56   24.70
   8   0  -4  614.44   27.90
   8   0  -4  616.84   29.40
   8   0  -4  609.94   27.10
  -8   0   4  616.04   28.90
  -8   0   4  629.84   30.90
  -8   0   4  644.74   27.40
  -8   0   4  649.74   28.40
   8   0  -4  645.84   29.70
   6   0  -4   25.60    8.50
  -6   0   4   31.00    6.10
  -6   0   4   23.80    9.50
   6   0  -4   32.30    6.90
   6   0  -4   28.60    6.90
  -6   0   4   27.10    7.00
   6   0  -4   28.40    6.60
  -6   0   4   37.10    8.60
  -4   0   4   53.89    9.70
   4   0  -4   62.99    8.40
   4   0  -4   51.19    9.20
  -4   0   4   64.19    9.80
  -4   0   4   64.99    8.30
  -2   0   4  170.58   20.80
   2   0  -4  157.88   19.00
   2   0  -4  190.28   15.50
  -2   0   4  152.78   16.10
   0   0  -4  959.30   42.00
   0   0  -4  985.50   45.90
   0   0   4  896.81   45.10
   0   0   4  986.50   46.40
   2   0   4  359.26   25.90
   2   0   4  328.37   27.80
  -2   0  -4  362.16   23.10
  -2   0  -4  365.46   29.70
   4   0   4  181.88   21.30
  -4   0  -4  189.88   21.10
  -4   0  -4  185.58   21.60
   4   0   4  182.08   23.90
   6   0   4  204.38   25.80
   6   0   4  193.48   26.50
  -6   0  -4  239.58   24.10
  -6   0  -4  217.28   25.10
   8   0   4   14.90   15.80
  -8   0  -4   36.10   16.00
  -8   0  -4   43.40   24.80
   8   0   4   22.70   18.00
   8   0   4    2.60   18.30
 -10   0  -4  -22.80   16.80
  10   0   4  -30.00   15.70
 -10   0  -4   39.20   22.80
  10   0   4  -26.10   19.40
  10   0   4   49.50   22.00
 -12   0  -4  -29.50   22.70
 -12   0  -4   14.60   25.80
  12   0   4    4.20   23.50
  12   0   4  -19.40   25.00
  12   0   4    4.60   17.40
 -21  -1   4   -1.60   21.50
 -21  -1   4   37.90   26.30
 -21   1   4   24.50   30.70
 -21   1   4    1.30   20.40
 -21   1   4   11.40   27.90
 -21   1   4   21.40   21.00
 -19  -1   4  -15.70   15.10
 -19  -1   4   19.10   20.10
 -19  -1   4  -15.50   15.40
  19  -1  -4   14.10   19.10
 -19  -1   4  -14.10   15.40
 -19   1   4    5.10   15.20
 -19   1   4   11.20   14.80
 -19   1   4    4.60   18.80
 -19   1   4   11.10   18.00
  19   1  -4    9.60   19.50
  19   1  -4  -25.30   14.10
 -17  -1   4   -0.60   14.50
 -17  -1   4    6.10   12.70
 -17  -1   4   10.00   15.00
 -17  -1   4   41.70   13.10
  17  -1  -4   24.40   14.90
  17   1  -4   32.00   16.30
 -17   1   4   12.80   12.20
  17   1  -4  -12.00   12.70
  17   1  -4   16.80   11.40
 -17   1   4   12.00   16.30
 -17   1   4    9.70   13.10
 -17   1   4   13.80   13.50
 -15  -1   4   15.20   13.40
 -15  -1   4   28.30   12.50
 -15  -1   4   25.50   12.50
 -15  -1   4   26.00   13.80
  15  -1  -4   22.80   12.80
  15   1  -4    8.20   11.70
  15   1  -4   12.90    9.60
 -15   1   4   18.20   11.20
  15   1  -4   44.80   14.00
 -15   1   4    6.10   12.10
 -15   1   4   34.80   12.00
 -15   1   4   14.90   12.70
 -13  -1   4  201.58   22.40
 -13  -1   4  179.78   20.40
 -13  -1   4  229.38   19.70
 -13  -1   4  176.48   17.90
  13  -1  -4  214.38   20.60
  13   1  -4  220.28   16.90
 -13   1   4  210.28   18.60
 -13   1   4  170.68   20.20
 -13   1   4  191.58   17.00
 -13   1   4  192.08   17.00
  13   1  -4  155.88   17.90
  13   1  -4  233.88   21.60
 -11  -1   4  631.64   31.10
 -11  -1   4  602.64   29.90
 -11  -1   4  627.34   32.20
  11  -1  -4  659.93   31.60
 -11  -1   4  638.24   29.30
 -11   1   4  647.64   28.30
 -11   1   4  616.34   30.30
 -11   1   4  652.13   29.30
 -11   1   4  628.64   30.70
  11   1  -4  600.04   31.50
  11   1  -4  621.54   28.80
  11   1  -4  605.74   29.50
  -9  -1   4  614.64   27.90
  -9  -1   4  606.14   30.80
   9  -1  -4  602.24   28.80
  -9  -1   4  620.74   28.90
   9  -1  -4  648.74   30.40
  -9  -1   4  633.64   30.50
   9   1  -4  655.93   29.70
   9   1  -4  626.24   30.60
  -9   1   4  611.04   28.80
  -9   1   4  617.54   28.00
   9   1  -4  625.34   27.80
   9   1  -4  576.04   28.30
  -9   1   4  645.94   29.30
  -9   1   4  624.94   27.40
  -9   1   4  625.74   32.40
  -7  -1   4  416.56   21.60
  -7  -1   4  459.35   23.20
  -7  -1   4  447.56   21.20
   7  -1  -4  476.45   23.40
   7  -1  -4  452.55   22.40
  -7   1   4  454.35   21.50
   7   1  -4  438.06   23.50
  -7   1   4  440.66   20.20
   7   1  -4  441.56   22.10
   7   1  -4  451.65   21.30
   7   1  -4  408.26   22.00
  -7   1   4  416.16   21.60
  -7   1   4  444.66   24.50
   5  -1  -4  310.17   17.70
  -5  -1   4  326.47   17.10
   5  -1  -4  326.37   17.50
   5  -1  -4  291.27   16.90
  -5  -1   4  289.47   18.00
  -5  -1   4  271.57   17.10
   5  -1  -4  275.57   15.60
  -5   1   4  287.37   16.40
   5   1  -4  297.57   18.70
   5   1  -4  282.67   17.00
  -5   1   4  295.67   19.60
  -5   1   4  303.07   19.00
   5   1  -4  309.17   16.40
   5   1  -4  293.17   16.10
   3  -1  -4  140.69   16.20
  -3  -1   4  141.39   15.20
   3  -1  -4  100.29   13.00
  -3  -1   4  146.99   12.30
  -3   1   4  109.79   14.50
  -3   1   4  131.89   14.90
   3   1  -4  145.99   12.80
   3   1  -4  113.69   14.50
  -1  -1   4  390.86   23.60
   1  -1  -4  348.67   21.10
  -1  -1   4  339.57   24.20
   1  -1  -4  359.36   26.20
   1   1  -4  361.66   21.10
  -1   1   4  315.47   26.20
  -1   1   4  352.26   24.80
   1   1  -4  332.77   24.20
   1  -1   4  923.31   45.30
  -1  -1  -4  974.10   46.40
  -1  -1  -4  936.71   41.20
   1  -1   4  953.40   45.60
  -1   1  -4  928.41   41.50
  -1   1  -4  949.90   44.40
   1   1   4  928.01   43.90
   1   1   4  842.32   43.90
  -3  -1  -4  649.83   37.50
  -3  -1  -4  643.04   34.00
   3  -1   4  669.83   36.40
   3  -1   4  599.34   37.70
  -3   1  -4  708.43   38.70
   3   1   4  649.74   36.30
  -3   1  -4  720.03   33.80
   3   1   4  609.04   36.40
  -5  -1  -4  293.87   28.80
  -5  -1  -4  303.87   24.70
   5  -1   4  300.07   29.20
   5  -1   4  218.78   26.30
   5   1   4  264.77   26.90
  -5   1  -4  280.17   29.30
   5   1   4  306.67   26.40
  -5   1  -4  298.17   24.60
  -7  -1  -4   63.29   19.90
  -7  -1  -4   81.99   17.10
   7  -1   4   74.79   14.60
   7  -1   4  115.99   20.70
   7  -1   4   84.49   17.80
   7   1   4  111.29   19.40
  -7   1  -4   88.69   20.50
   7   1   4  105.29   18.80
  -7   1  -4   91.19   18.40
   7   1   4   93.59   19.60
  -9  -1  -4  -26.10   15.50
   9  -1   4  -12.30   17.70
  -9  -1  -4    6.70   20.20
   9  -1   4   20.10   15.00
   9  -1   4  -20.70   17.70
  -9   1  -4   -9.20   15.90
   9   1   4  -11.30   17.80
   9   1   4  -18.50   15.00
   9   1   4  -27.70   18.60
  -9   1  -4  -13.70   38.00
  11  -1   4    3.20   23.10
 -11  -1  -4  -15.00   22.90
  11  -1   4   -6.50   16.10
 -11  -1  -4  -21.30   20.50
  11  -1   4   -0.30   22.20
  11   1   4   41.10   21.40
  11   1   4    7.90   24.50
  11   1   4  -11.30   17.20
 -11   1  -4   21.90   25.80
 -11   1  -4   -9.00   21.20
 -13  -1  -4  -12.10   27.70
  13  -1   4  -30.80   19.20
  13  -1   4   55.59   27.10
 -13  -1  -4  -55.49   28.70
  13  -1   4   37.60   26.00
  13   1   4  -47.20   20.80
  13   1   4   11.90   25.70
  13   1   4   49.20   27.60
 -13   1  -4   46.80   28.90
 -13   1  -4   33.90   29.80
 -20  -2   4   51.19   19.40
 -20  -2   4   65.19   19.20
 -20  -2   4   -2.10   21.80
 -20  -2   4   73.09   22.30
  20  -2  -4   63.19   23.10
  20   2  -4   40.70   18.40
 -20   2   4   32.30   17.60
 -20   2   4   60.79   20.00
  20   2  -4   36.10   15.90
 -20   2   4   20.30   17.40
  20   2  -4   25.90   23.80
 -20   2   4   32.30   20.90
 -18  -2   4   11.90   18.20
  18  -2  -4   18.30   16.80
 -18  -2   4    5.50   14.50
 -18  -2   4   -0.80   15.30
 -18  -2   4    2.60   13.30
 -18   2   4   -5.00   15.70
 -18   2   4   13.70   13.20
 -18   2   4   10.90   13.50
  18   2  -4    6.80   14.60
  18   2  -4  -19.80   12.60
 -18   2   4  -25.40   14.10
  18   2  -4   -6.90   17.80
  16  -2  -4   -2.10   13.70
 -16  -2   4   16.30   13.90
 -16  -2   4   18.20   11.90
 -16  -2   4    4.40   11.90
 -16  -2   4  -14.10   13.20
 -16   2   4    8.60   13.90
  16   2  -4   -8.20   12.60
 -16   2   4    8.20   13.20
 -16   2   4   11.30   11.10
 -16   2   4   12.20   13.10
  16   2  -4   19.30   14.70
  16   2  -4    0.00   11.20
 -14  -2   4   54.59   12.90
 -14  -2   4   64.69   12.90
 -14  -2   4   59.79   14.70
  14   2  -4   70.69   12.00
 -14   2   4   44.90   10.90
 -14   2   4   68.09   13.30
 -14   2   4   55.09   12.50
  14   2  -4   87.39   13.00
 -14   2   4   75.09   13.20
 -12  -2   4  683.73   33.00
  12  -2  -4  656.33   34.30
 -12  -2   4  669.63   33.70
 -12  -2   4  678.23   31.90
 -12  -2   4  670.73   34.80
 -12   2   4  662.63   31.40
  12   2  -4  702.93   34.20
 -12   2   4  638.94   29.80
 -12   2   4  663.03   30.30
  12   2  -4  664.53   31.30
  12   2  -4  658.43   32.20
 -10  -2   4 1250.17   52.69
 -10  -2   4 1253.27   52.59
  10  -2  -4 1317.57   53.89
 -10  -2   4 1308.27   51.99
 -10  -2   4 1291.67   53.99
  10   2  -4 1213.08   51.99
  10   2  -4 1305.97   53.59
  10   2  -4 1259.17   53.89
 -10   2   4 1259.27   51.69
 -10   2   4 1268.97   50.89
 -10   2   4 1227.58   54.89
  10   2  -4 1297.67   51.69
  -8  -2   4 1381.46   54.69
   8  -2  -4 1395.36   56.69
   8  -2  -4 1319.47   54.39
  -8  -2   4 1392.26   55.79
  -8  -2   4 1336.47   55.69
   8   2  -4 1379.66   56.79
   8   2  -4 1403.96   54.99
  -8   2   4 1402.66   53.99
  -8   2   4 1338.87   57.89
   8   2  -4 1434.96   55.79
   8   2  -4 1341.47   55.19
   6  -2  -4  761.92   34.30
  -6  -2   4  786.22   35.40
   6  -2  -4  799.22   36.10
  -6  -2   4  798.82   32.80
  -6  -2   4  856.51   35.70
   6   2  -4  820.32   35.10
   6   2  -4  864.21   34.80
  -6   2   4  859.91   34.10
   6   2  -4  845.32   36.90
   6   2  -4  819.42   34.30
  -6   2   4  815.02   37.90
  -4  -2   4  132.59   14.30
  -4  -2   4  146.39   12.50
   4  -2  -4  149.69   15.00
   4   2  -4  151.98   12.10
   4   2  -4  119.99   10.10
  -4   2   4  151.18   14.80
  -4   2   4  135.89   17.80
  -4   2   4  123.29   14.70
   4   2  -4  140.09   15.20
  -2  -2   4   58.39    8.40
  -2  -2   4   47.30    9.90
   2  -2  -4   45.70    8.60
   2  -2  -4   51.19   11.80
  -2   2   4   36.60   11.70
   2   2  -4   43.20    8.10
   2   2  -4   48.50   10.30
   2   2  -4   34.40    8.20
  -2   2   4   46.20   12.10
   0  -2   4  958.40   43.00
   0  -2  -4  929.21   45.40
   0  -2  -4  937.51   41.10
   0  -2   4  972.20   44.30
   0   2   4  930.91   43.60
   0   2  -4  886.21   44.20
   0   2  -4 1025.60   42.00
   0   2   4  897.81   43.30
   2  -2   4 1323.87   61.19
  -2  -2  -4 1425.86   59.29
   2  -2   4 1479.05   63.59
  -2  -2  -4 1405.16   62.29
  -2   2  -4 1532.75   60.39
   2   2   4 1420.96   61.79
   2   2   4 1370.96   59.99
  -2   2  -4 1453.75   62.19
   4  -2   4  689.33   38.60
   4  -2   4  713.73   40.10
  -4  -2  -4  712.23   39.70
  -4  -2  -4  710.93   36.40
   4   2   4  698.73   38.70
  -4   2  -4  772.52   40.50
  -4   2  -4  819.72   37.30
   4   2   4  755.52   38.80
   6  -2   4  255.17   30.90
  -6  -2  -4  290.47   29.00
  -6  -2  -4  294.67   27.00
   6  -2   4  291.27   28.60
   6   2   4  292.27   26.20
   6   2   4  275.37   27.90
  -6   2  -4  300.97   29.90
   6   2   4  260.67   27.70
  -6   2  -4  372.46   27.70
   8  -2   4   47.40   13.70
  -8  -2  -4   39.70   17.30
  -8  -2  -4   86.09   19.70
   8  -2   4   79.39   19.80
   8  -2   4   58.19   16.60
   8   2   4   57.29   16.60
  -8   2  -4   55.19   17.80
   8   2   4   55.59   18.30
   8   2   4   46.10   19.80
  -8   2  -4   63.39   20.20
  10  -2   4    3.20   21.30
  10  -2   4  -11.90   19.60
 -10  -2  -4    6.70   18.40
  10  -2   4   -3.60   14.50
 -10  -2  -4  -23.70   20.80
  10   2   4    0.70   16.60
 -10   2  -4   24.70   36.70
  10   2   4  -12.40   19.60
 -10   2  -4    5.50   17.90
  10   2   4   -3.50   19.90
  12  -2   4   -2.90   17.20
  12  -2   4  -12.00   22.20
  12  -2   4  -23.30   23.50
 -12  -2  -4  -12.80   27.00
 -12  -2  -4   23.60   22.80
  12  -2   4   43.80   24.90
 -12   2  -4    8.40   23.50
  12   2   4  -15.00   22.60
 -12   2  -4   18.20   25.60
  12   2   4   29.40   21.70
  12   2   4    3.50   24.80
 -19  -3   4   23.40   17.70
  19  -3  -4   26.60   21.10
 -19  -3   4   18.80   16.90
 -19  -3   4   52.59   20.20
 -19  -3   4   32.30   18.20
  19   3  -4   48.70   18.90
 -19   3   4   44.50   18.90
  19   3  -4   79.99   23.60
 -19   3   4   26.50   15.00
 -19   3   4   48.40   18.30
  19   3  -4   45.40   15.00
 -19   3   4   12.80   14.80
 -17  -3   4   19.20   13.80
 -17  -3   4  -15.60   13.80
 -17  -3   4   -8.60   15.30
 -17  -3   4   -9.30   12.50
  17  -3  -4   -8.10   15.10
 -17   3   4    3.90   12.70
  17   3  -4   -1.40   15.50
  17   3  -4   -4.40   13.40
  17   3  -4   18.10   12.40
 -17   3   4   12.20   13.20
 -17   3   4    5.90   12.50
 -17   3   4    5.50   15.10
 -15  -3   4   -3.80   11.70
 -15  -3   4   13.10   13.60
  15  -3  -4   29.10   14.30
 -15  -3   4    1.60   12.30
 -15  -3   4   16.00   12.60
 -15   3   4   -4.40    9.70
  15   3  -4   13.40   11.50
 -15   3   4   24.50   12.40
 -15   3   4   20.80   12.40
  15   3  -4   -3.60   16.30
  15   3  -4   18.30   14.70
 -13  -3   4  165.48   20.80
  13  -3  -4  190.08   21.80
 -13  -3   4  177.28   20.80
 -13  -3   4  210.08   20.00
 -13  -3   4  159.18   19.70
  13   3  -4  203.38   19.20
  13   3  -4  200.98   23.00
  13   3  -4  190.58   18.50
 -11  -3   4  863.71   39.50
  11  -3  -4  837.82   40.30
 -11  -3   4  873.61   41.10
 -11  -3   4  872.91   38.40
 -11  -3   4  836.12   39.50
 -11   3   4  849.52   42.60
  11   3  -4  898.11   38.00
  11   3  -4  792.62   38.70
  11   3  -4  906.71   40.00
  -9  -3   4 1783.72   73.29
   9  -3  -4 1793.32   72.99
  -9  -3   4 1879.01   70.99
  -9  -3   4 1818.42   72.09
  -9  -3   4 1745.53   71.49
  -9   3   4 1726.73   73.79
   9   3  -4 1817.22   71.39
   9   3  -4 1838.62   71.09
   9   3  -4 1856.01   72.09
   9   3  -4 1816.42   73.09
  -7  -3   4 1756.22   66.59
  -7  -3   4 1669.23   68.09
  -7  -3   4 1745.53   68.59
  -7  -3   4 1728.63   67.19
   7  -3  -4 1653.33   68.89
   7   3  -4 1730.63   67.39
   7   3  -4 1741.83   68.19
   7   3  -4 1772.92   67.69
   7   3  -4 1707.63   69.59
  -7   3   4 1735.03   70.79
  -5  -3   4  754.72   30.90
  -5  -3   4  728.53   33.10
  -5  -3   4  755.92   33.20
   5  -3  -4  726.83   32.20
   5   3  -4  735.03   34.70
   5   3  -4  727.33   32.70
  -5   3   4  723.93   36.60
   5   3  -4  785.22   32.20
  -3  -3   4   43.60    7.70
  -3  -3   4   43.50    7.20
  -3  -3   4   41.10    9.00
   3  -3  -4   24.00   10.70
  -3   3   4   31.00   10.60
   3   3  -4   32.10    9.40
   3   3  -4   38.40    7.60
  -3   3   4   34.70   11.20
   3   3  -4   27.10    7.50
   1  -3  -4  646.14   35.50
  -1  -3   4  614.94   31.00
  -1  -3   4  660.63   30.60
   1  -3  -4  690.93   29.50
  -1   3   4  665.83   32.40
   1   3  -4  633.64   31.20
   1   3  -4  587.54   32.20
   1   3  -4  664.23   29.90
  -1   3   4  622.54   31.40
   1  -3   4 1366.86   59.19
   1  -3   4 1423.26   62.59
  -1  -3  -4 1472.85   58.29
  -1  -3  -4 1404.36   61.49
  -1   3  -4 1503.75   59.39
  -1   3  -4 1342.97   61.49
   1   3   4 1386.96   59.39
   1   3   4 1526.55   61.19
   3  -3   4  736.03   39.90
  -3  -3  -4  815.22   37.60
   3  -3   4  815.72   41.90
  -3  -3  -4  790.92   40.70
  -3   3  -4  838.72   38.40
   3   3   4  849.61   40.20
   3   3   4  763.42   39.20
  -3   3  -4  767.62   40.90
   5  -3   4  729.93   39.60
  -5  -3  -4  668.53   39.60
  -5  -3  -4  758.02   37.80
   5  -3   4  696.33   39.40
   5   3   4  770.22   40.10
  -5   3  -4  733.53   40.00
  -5   3  -4  804.12   38.30
   5   3   4  679.13   38.70
  -7  -3  -4  313.27   29.20
   7  -3   4  245.38   28.50
  -7  -3  -4  264.57   26.60
   7  -3   4  260.27   21.90
   7  -3   4  274.67   29.90
  -7   3  -4  247.88   30.30
   7   3   4  272.57   30.80
   7   3   4  262.27   27.20
  -7   3  -4  301.07   27.60
   7   3   4  245.98   26.10
   9  -3   4  -25.30   15.90
   9  -3   4    7.10   14.60
   9  -3   4    5.40   18.60
  -9  -3  -4   -5.20   18.60
  -9  -3  -4  -31.60   16.30
   9   3   4    6.60   17.40
   9   3   4  -31.30   18.60
  -9   3  -4   -6.00   19.10
  -9   3  -4   17.60   16.90
 -11  -3  -4   64.39   25.30
 -11  -3  -4    8.20   21.60
  11  -3   4   22.70   24.00
  11  -3   4    0.00   20.30
 -11   3  -4   -2.10   19.60
  11   3   4   -7.80   22.00
 -11   3  -4   10.30   27.80
  11   3   4    9.20   22.00
  11   3   4   19.90   20.90
 -13  -3  -4    1.10   27.30
  13  -3   4   39.00   25.80
 -13   3  -4   71.39   30.40
  13   3   4    1.00   28.80
 -13   3  -4  -18.90   28.80
  13   3   4  -28.90   25.20
  20  -4  -4   15.20   22.60
 -20  -4   4   60.99   23.50
 -20  -4   4  -10.20   19.50
 -20  -4   4   35.80   19.90
 -20   4   4   14.10   16.20
  20   4  -4   69.59   27.40
 -20   4   4   15.50   20.20
  20   4  -4   -9.20   16.10
  20   4  -4    5.90   17.60
 -18  -4   4   -5.10   16.40
 -18  -4   4   11.10   15.70
 -18  -4   4   11.50   15.90
 -18  -4   4   -7.20   17.50
  18  -4  -4   24.10   17.00
  18   4  -4    9.40   12.70
  18   4  -4    9.90   16.60
 -18   4   4    7.50   14.40
 -18   4   4    1.80   15.90
  18   4  -4   -1.60   20.40
 -16  -4   4    8.30   13.80
 -16  -4   4   -2.00   12.50
  16  -4  -4   13.00   14.00
 -16  -4   4    9.90   13.30
 -16  -4   4   -2.60   13.50
  16   4  -4    1.00   13.60
  16   4  -4   -3.70   14.70
  16   4  -4   -2.00   12.20
  14  -4  -4   25.90   13.30
 -14  -4   4   29.50   12.70
 -14  -4   4    1.10   11.40
 -14  -4   4    8.30   11.60
  14   4  -4    9.70   12.10
 -12  -4   4  325.37   22.30
 -12  -4   4  315.47   23.40
 -12  -4   4  346.87   25.90
  12  -4  -4  337.97   24.50
 -12   4   4  302.67   31.30
  12   4  -4  300.67   26.40
  12   4  -4  346.87   22.30
 -10  -4   4  808.72   37.80
 -10  -4   4  833.92   36.10
 -10  -4   4  830.72   37.20
 -10  -4   4  823.92   38.90
  10  -4  -4  782.52   38.10
 -10   4   4  785.12   40.30
  10   4  -4  798.02   36.40
  10   4  -4  800.22   37.50
   8  -4  -4  914.41   41.60
  -8  -4   4  980.60   39.60
  -8  -4   4  918.41   40.30
  -8  -4   4  968.30   39.00
  -8  -4   4  965.60   40.70
   8   4  -4  876.71   40.30
   8   4  -4  933.61   42.50
   8   4  -4  945.41   39.90
  -8   4   4  887.61   39.60
  -8   4   4  873.01   43.60
  -6  -4   4  735.23   32.40
  -6  -4   4  726.03   30.70
  -6  -4   4  683.33   32.40
  -6   4   4  679.53   36.60
   6   4  -4  741.53   31.50
  -6   4   4  666.13   29.90
   6   4  -4  700.33   32.50
   6   4  -4  728.73   34.00
  -4  -4   4   44.70    8.60
  -4  -4   4   23.60    6.70
  -4  -4   4   32.70    8.60
   4   4  -4   31.00    9.20
   4   4  -4   23.80    7.30
   4   4  -4   18.10    9.60
   4   4  -4   23.60    7.90
  -2  -4   4  227.98   15.60
  -2  -4   4  231.38   17.70
   2  -4  -4  194.58   13.60
   2  -4  -4  169.78   22.10
   2   4  -4  225.18   15.00
  -2   4   4  203.98   16.90
   2   4  -4  220.58   19.20
  -2   4   4  183.88   17.90
   2   4  -4  180.28   17.50
   0  -4   4  553.34   28.50
   0  -4  -4  549.25   31.50
   0  -4   4  521.95   27.80
   0  -4  -4  574.84   27.10
   0   4   4  557.64   29.10
   0   4  -4  592.24   27.10
   0   4  -4  529.35   30.00
   0   4  -4  525.15   31.00
   0   4   4  493.25   28.60
   2  -4   4  983.30   45.50
   2  -4   4  884.71   40.50
  -2  -4  -4  866.71   43.30
  -2  -4  -4  938.71   40.90
   2   4   4  887.51   41.70
  -2   4  -4  838.62   44.00
   2   4   4  910.81   41.90
  -2   4  -4  907.21   41.20
  -4  -4  -4  599.94   31.70
   4  -4   4  573.24   35.40
  -4  -4  -4  528.45   32.80
  -4   4  -4  613.94   32.20
   4   4   4  532.35   31.90
  -4   4  -4  564.04   35.30
   4   4   4  574.34   33.60
  -6  -4  -4  177.28   24.40
  -6  -4  -4  206.18   27.20
   6  -4   4  206.28   25.30
  -6   4  -4  293.77   26.30
   6   4   4  232.28   26.70
   6   4   4  269.67   25.40
  -6   4  -4  237.98   28.90
   6   4   4  255.67   31.40
  -8  -4  -4    9.30   18.50
   8  -4   4   22.60   16.40
  -8  -4  -4   14.40   15.40
   8   4   4   46.30   18.90
  -8   4  -4   34.80   18.10
   8   4   4    4.10   15.10
   8   4   4   37.90   17.00
  -8   4  -4   50.69   18.70
 -10  -4  -4    3.50   19.80
 -10  -4  -4   21.30   22.20
  10  -4   4  -21.80   17.40
  10   4   4   11.30   21.50
 -10   4  -4  -19.40   19.10
 -10   4  -4   34.00   20.00
  10   4   4   -2.40   18.40
  10   4   4   47.80   20.40
  12  -4   4   -5.90   38.80
 -12  -4  -4   17.50   23.70
 -12  -4  -4  -13.60   25.50
  12  -4   4   25.90   21.90
  12   4   4   34.00   27.60
 -12   4  -4    7.40   23.70
 -12   4  -4    4.10   25.60
  12   4   4   -1.50   22.80
  19  -5  -4   -3.00   21.30
 -19  -5   4    9.60   18.60
 -19  -5   4   26.20   21.70
 -19  -5   4  -18.60   18.80
 -19   5   4  -15.90   14.40
  19   5  -4  -16.60   16.90
  19   5  -4  -16.10   24.00
  19   5  -4   -7.10   16.40
 -17  -5   4  -11.80   15.60
 -17  -5   4    4.70   17.10
 -17  -5   4  -15.10   13.90
  17  -5  -4   -7.10   15.80
 -17  -5   4   20.20   15.00
  17   5  -4   -1.70   14.10
  17   5  -4   24.30   15.70
 -15  -5   4   35.40   13.60
 -15  -5   4   39.10   15.70
  15  -5  -4   31.90   15.20
 -15  -5   4   43.60   12.00
 -15  -5   4   25.10   12.90
  15   5  -4   16.60   12.80
  15   5  -4   22.80   13.00
 -13  -5   4  135.99   15.30
 -13  -5   4  149.39   17.60
 -13  -5   4  149.79   15.80
 -13   5   4  168.88   20.10
  13   5  -4  129.09   16.90
  13   5  -4  122.29   15.70
  11  -5  -4  342.77   25.30
 -11  -5   4  384.06   24.10
 -11  -5   4  363.76   26.10
 -11  -5   4  380.06   22.60
 -11  -5   4  341.57   33.70
  11   5  -4  364.86   23.10
  11   5  -4  322.47   32.80
 -11   5   4  299.87   27.20
  -9  -5   4  315.07   20.70
  -9  -5   4  317.17   18.60
   9  -5  -4  298.27   21.50
  -9  -5   4  289.87   21.70
  -9  -5   4  312.37   18.80
  -9  -5   4  283.27   23.30
   9   5  -4  257.07   19.50
   9   5  -4  257.37   21.50
  -9   5   4  294.07   21.20
   9   5  -4  282.77   22.70
  -9   5   4  255.37   25.00
  -7  -5   4  110.99   14.40
  -7  -5   4  151.38   15.80
  -7  -5   4  135.89   13.20
  -7   5   4  129.89   14.90
   7   5  -4  153.68   16.50
   7   5  -4  129.39   12.70
   7   5  -4  132.59   16.40
  -7   5   4  122.59   17.40
   5  -5  -4   21.00    7.70
  -5  -5   4   24.30    7.10
  -5  -5   4   26.40    9.00
  -5  -5   4   28.90    9.30
   5   5  -4   24.30    7.90
   5   5  -4   22.60    9.40
  -5   5   4   24.40    8.50
   5   5  -4   31.00   10.60
  -5   5   4   24.30   13.50
   5   5  -4   20.90    8.90
   3  -5  -4    3.60    6.70
  -3  -5   4    2.30    6.40
  -3  -5   4   -9.00    7.40
  -3  -5   4    0.70    8.60
   3  -5  -4  -15.00   12.70
   3   5  -4    7.80   10.40
   3   5  -4    4.70    8.90
   3   5  -4   -5.90    6.60
   1  -5  -4  196.48   15.90
  -1  -5   4  221.78   17.90
  -1  -5   4  251.47   17.30
   1  -5  -4  187.78   21.70
  -1   5   4  195.88   18.30
   1   5  -4  258.57   16.60
   1   5  -4  246.08   21.30
   1   5  -4  247.28   20.60
  -1   5   4  238.88   17.80
  -1  -5  -4  648.54   29.40
   1  -5   4  612.14   33.00
  -1  -5  -4  640.94   33.80
  -1   5  -4  568.74   33.70
   1   5   4  617.34   31.50
  -1   5  -4  663.63   30.30
  -1   5  -4  572.84   33.40
   1   5   4  608.84   30.70
  -3  -5  -4  322.17   22.10
   3  -5   4  337.47   29.10
  -3  -5  -4  298.17   24.80
   3   5   4  307.17   23.50
   3   5   4  284.17   24.50
  -3   5  -4  295.17   28.40
  -3   5  -4  338.57   23.10
  -5  -5  -4  133.59   18.60
  -5  -5  -4  168.38   18.20
   5  -5   4  168.38   20.40
  -5   5  -4  151.78   18.70
  -5   5  -4  162.68   21.10
   5   5   4  124.39   17.70
   5   5   4  148.99   22.00
   5   5   4  104.49   19.00
  -7  -5  -4   54.79   18.10
  -7  -5  -4   44.90   16.30
   7  -5   4   30.30   15.00
  -7   5  -4   84.19   19.40
   7   5   4   48.20   18.00
   7   5   4   59.59   17.30
  -7   5  -4   75.09   18.00
   7   5   4   39.90   16.90
  -9  -5  -4   28.80   20.50
  -9  -5  -4  -16.30   16.50
   9  -5   4   28.60   17.00
   9   5   4  -21.60   18.80
   9   5   4  -25.70   18.20
  -9   5  -4    9.50   20.30
  -9   5  -4    9.60   17.20
   9   5   4   13.20   20.70
 -11  -5  -4  -19.80   21.40
  11  -5   4   18.40   19.50
 -11  -5  -4   -1.20   21.40
 -11   5  -4   15.80   21.30
  11   5   4   21.00   26.70
  11   5   4   34.50   34.90
 -11   5  -4  -21.40   22.00
  11   5   4  -23.20   22.20
 -18  -6   4    9.30   17.60
 -18  -6   4   -6.40   18.80
 -18  -6   4    7.30   19.60
 -18  -6   4   -9.40   18.50
  18  -6  -4   12.30   19.00
  18   6  -4   -3.40   15.60
  18   6  -4   -6.20   15.50
 -16  -6   4   31.10   15.90
 -16  -6   4   22.30   16.70
 -16  -6   4   31.50   14.40
  16  -6  -4   32.40   16.80
 -16  -6   4   29.20   16.40
  16   6  -4   33.60   16.30
  16   6  -4   32.90   13.80
 -14  -6   4   57.09   13.10
 -14  -6   4   44.50   15.20
  14  -6  -4   72.59   16.20
 -14  -6   4   50.59   15.20
 -14  -6   4   50.09   15.60
  14   6  -4   52.89   14.20
  14   6  -4   79.79   15.20
 -14   6   4   79.29   19.90
 -12  -6   4  228.48   23.20
  12  -6  -4  174.68   22.20
 -12  -6   4  192.48   21.40
 -12  -6   4  213.98   22.20
 -12  -6   4  209.58   22.70
 -12   6   4  201.08   23.60
  12   6  -4  203.68   20.70
 -12   6   4  220.58   25.20
  12   6  -4  204.98   21.70
 -10  -6   4  354.66   21.70
 -10  -6   4  340.47   22.00
 -10  -6   4  352.86   26.00
 -10  -6   4  340.67   23.50
 -10  -6   4  346.57   24.10
  10   6  -4  310.27   22.30
 -10   6   4  365.76   24.20
 -10   6   4  329.27   27.00
  -8  -6   4  175.88   17.90
  -8  -6   4  192.58   15.90
  -8  -6   4  162.58   21.20
  -8  -6   4  178.28   19.00
  -8  -6   4  194.18   15.80
   8   6  -4  194.08   20.80
  -8   6   4  205.18   21.20
   8   6  -4  188.38   19.60
   8   6  -4  191.98   17.10
  -8   6   4  219.98   18.80
  -6  -6   4   27.60    9.80
  -6  -6   4   25.80    9.30
  -6  -6   4   28.40    8.10
  -6   6   4   17.90    8.70
   6   6  -4   37.10    9.30
  -6   6   4   30.70   15.40
   6   6  -4   33.70   10.60
   6   6  -4   35.40   12.50
  -4  -6   4   -0.30    8.60
  -4  -6   4    7.10    7.30
   4  -6  -4   -9.70    8.10
  -4  -6   4    0.90    8.30
   4   6  -4    0.80    9.50
  -4   6   4    4.40    7.80
   4   6  -4    4.40    9.70
   4   6  -4    5.10    7.90
   4   6  -4    6.00   12.20
  -2  -6   4  112.49   12.00
  -2  -6   4  112.49   12.90
   2  -6  -4   99.79   14.30
   2  -6  -4  109.09   13.90
  -2  -6   4  120.99   14.30
   2   6  -4  137.99   15.40
   2   6  -4  113.89   12.10
   2   6  -4  126.19   14.70
  -2   6   4  118.89   12.40
   0  -6  -4  319.37   25.10
   0  -6   4  362.96   21.80
   0  -6  -4  326.17   20.80
   0   6  -4  338.17   24.10
   0   6   4  359.56   21.80
   0   6   4  344.07   23.40
   0   6  -4  347.67   25.80
   0   6  -4  359.66   20.90
   2  -6   4  205.38   23.10
  -2  -6  -4  177.98   18.60
  -2  -6  -4  186.88   23.00
  -2   6  -4  192.98   19.10
   2   6   4  213.98   21.30
  -2   6  -4  196.48   19.00
   2   6   4  177.68   20.90
  -2   6  -4  192.38   20.60
  -4  -6  -4   68.99   15.50
   4  -6   4  121.89   18.90
  -4  -6  -4   92.79   15.10
  -4   6  -4   85.59   17.80
  -4   6  -4  149.59   17.30
  -4   6  -4   94.39   18.60
   4   6   4   98.39   18.40
   4   6   4  101.49   15.70
   6  -6   4  159.98   20.20
  -6  -6  -4  122.79   17.70
  -6  -6  -4  148.49   20.20
   6   6   4  115.69   20.20
   6   6   4  114.59   18.90
  -6   6  -4  140.39   22.30
   6   6   4  165.48   20.80
  -6   6  -4  178.18   21.70
   8  -6   4   30.80   16.10
  -8  -6  -4   21.50   18.80
  -8  -6  -4    2.90   16.30
   8   6   4   30.40   16.70
   8   6   4  -26.20   18.10
   8   6   4   15.00   17.20
  -8   6  -4   56.19   17.20
  -8   6  -4  -19.00   18.80
  10  -6   4   -8.40   18.00
 -10  -6  -4    7.40   20.80
 -10  -6  -4   49.30   22.00
  10   6   4   -9.10   21.00
  10   6   4    9.20   24.10
  10   6   4  -12.50   18.00
 -10   6  -4    4.10   18.30
 -10   6  -4   25.90   22.70
 -17  -7   4   15.20   16.20
  17  -7  -4   12.40   17.70
 -17  -7   4   12.70   16.40
 -17  -7   4   -9.00   16.80
 -17  -7   4    6.10   17.30
  17   7  -4   29.50   16.90
  17   7  -4   -6.60   17.10
  15  -7  -4   -4.30   15.30
 -15  -7   4   -6.10   15.50
 -15  -7   4   12.40   13.60
 -15  -7   4   16.70   13.10
 -15  -7   4   16.10   16.00
  15   7  -4   -0.20   15.20
 -15   7   4   -6.30   16.70
  15   7  -4   20.10   13.10
 -13  -7   4  110.19   15.40
 -13  -7   4   91.69   17.70
 -13  -7   4  112.09   16.00
  13  -7  -4   97.49   16.50
 -13  -7   4   85.69   14.50
  13   7  -4   79.79   13.30
 -13   7   4   66.09   19.60
 -13   7   4   91.99   19.10
  13   7  -4   72.29   14.80
 -11  -7   4  382.36   25.30
 -11  -7   4  371.76   27.80
 -11  -7   4  357.06   25.80
 -11  -7   4  357.06   24.80
 -11  -7   4  375.26   26.20
 -11   7   4  330.47   29.10
  11   7  -4  350.96   24.50
 -11   7   4  308.47   26.60
  11   7  -4  394.46   27.00
  -9  -7   4  459.25   25.70
  -9  -7   4  432.46   25.20
  -9  -7   4  428.36   27.30
  -9  -7   4  411.46   23.90
  -9  -7   4  475.05   26.00
  -9   7   4  392.96   26.40
   9   7  -4  357.26   31.20
   9   7  -4  432.96   25.40
  -9   7   4  395.16   34.70
  -7  -7   4  410.46   22.70
  -7  -7   4  391.26   24.20
  -7  -7   4  376.66   23.80
   7   7  -4  405.06   25.70
   7   7  -4  382.56   23.40
  -7   7   4  411.56   31.00
  -7   7   4  403.66   24.40
   7   7  -4  379.46   27.60
  -5  -7   4  126.19   12.80
  -5  -7   4  120.59   15.90
   5  -7  -4  130.69   13.60
  -5  -7   4  122.59   14.20
   5   7  -4  145.89   15.70
  -5   7   4  115.89   13.30
   5   7  -4  148.19   13.20
   5   7  -4  157.48   16.80
  -5   7   4  113.89   19.10
   5   7  -4  143.99   14.30
  -3  -7   4   45.90   10.30
   3  -7  -4   28.90    9.20
  -3  -7   4   38.40    9.00
   3   7  -4   24.60   11.70
   3   7  -4   31.20   11.80
   3   7  -4   25.10    8.80
   1  -7  -4  161.28   20.30
  -1  -7   4  181.98   16.70
   1  -7  -4  174.88   17.50
   1   7  -4  186.88   21.10
   1   7  -4  179.68   21.40
   1   7  -4  214.68   16.70
  -1   7   4  166.38   18.50
  -1   7   4  159.98   16.00
  -1  -7  -4  258.87   21.00
   1  -7   4  279.57   21.60
  -1   7  -4  270.77   19.20
  -1   7  -4  273.57   26.90
   1   7   4  284.87   21.30
   1   7   4  277.77   23.20
  -1   7  -4  282.57   24.10
  -3  -7  -4  280.07   25.30
   3  -7   4  267.57   27.80
  -3  -7  -4  311.57   21.80
  -3   7  -4  298.27   27.20
   3   7   4  275.87   25.60
   3   7   4  250.27   25.00
  -3   7  -4  238.48   27.00
  -3   7  -4  361.86   23.70
  -5  -7  -4  211.38   22.50
   5  -7   4  260.87   27.80
  -5  -7  -4  257.77   24.10
   5   7   4  196.78   22.80
   5   7   4  212.18   20.50
   5   7   4  231.48   26.70
  -5   7  -4  231.48   30.20
  -5   7  -4  284.77   26.70
  -5   7  -4  234.08   23.90
   7  -7   4   79.89   17.60
  -7  -7  -4   62.29   20.30
  -7  -7  -4   93.19   17.00
   7   7   4   71.39   18.80
  -7   7  -4   71.29   22.20
  -7   7  -4   71.89   18.10
   7   7   4  118.09   19.80
   7   7   4   76.19   19.70
  -7   7  -4   51.89   19.90
  -9  -7  -4   -3.60   19.30
  -9  -7  -4   33.80   21.40
   9  -7   4   18.80   17.80
   9   7   4  -30.10   21.70
   9   7   4  -63.29   20.20
  -9   7  -4  -13.80   18.00
  -9   7  -4  -22.70   21.40
   9   7   4   -8.00   18.00
  11  -7   4    7.80   20.50
 -11  -7  -4   -3.50   24.70
  11   7   4  -30.60   28.70
 -11   7  -4   17.40   22.20
 -11   7  -4   -8.90   46.60
  11   7   4  -41.90   30.90
  18  -8  -4  -12.70   22.10
 -18  -8   4   23.90   21.00
 -18  -8   4   16.30   20.90
  18   8  -4   16.50   20.10
 -18   8   4   39.00   25.30
 -16  -8   4   27.00   17.10
 -16  -8   4   10.60   17.20
  16  -8  -4    4.30   17.70
 -16  -8   4   12.50   15.20
 -16  -8   4   -8.80   16.60
  16   8  -4   25.80   16.30
 -16   8   4   -9.30   22.80
  16   8  -4   22.90   16.40
 -14  -8   4  -14.80   15.80
 -14  -8   4   13.80   15.80
 -14  -8   4   13.30   15.40
 -14  -8   4   17.10   12.80
  14  -8  -4    9.50   15.70
 -14  -8   4   36.40   14.80
  14   8  -4   13.20   15.10
  14   8  -4   16.20   12.90
 -14   8   4   12.40   18.00
 -14   8   4   15.60   21.40
 -12  -8   4  216.48   24.50
 -12  -8   4  186.08   20.60
 -12  -8   4  190.48   20.20
 -12  -8   4  202.28   24.50
 -12  -8   4  236.88   23.40
  12   8  -4  183.18   21.40
 -12   8   4  187.48   23.00
  12   8  -4  200.08   19.40
 -12   8   4  161.28   20.50
 -10  -8   4  451.35   32.60
 -10  -8   4  523.35   31.30
 -10  -8   4  542.05   28.10
 -10  -8   4  531.15   29.20
 -10  -8   4  516.05   29.90
 -10   8   4  496.55   34.40
  10   8  -4  504.15   31.60
 -10   8   4  439.96   31.00
  10   8  -4  526.25   29.30
  -8  -8   4  452.95   29.20
  -8  -8   4  479.55   27.20
  -8  -8   4  516.55   27.70
  -8  -8   4  536.25   28.30
   8   8  -4  506.85   28.10
  -8   8   4  462.55   28.70
   8   8  -4  469.55   28.70
  -8   8   4  436.56   33.20
  -6  -8   4  286.37   20.80
  -6  -8   4  250.27   20.00
  -6  -8   4  261.87   19.90
  -6   8   4  263.77   21.40
   6   8  -4  302.37   20.60
   6   8  -4  293.97   24.60
   6   8  -4  271.97   23.00
  -6   8   4  255.57   29.30
  -4  -8   4   98.99   12.30
  -4  -8   4   95.09   12.70
   4  -8  -4   79.49   12.60
   4   8  -4  101.59   15.50
   4   8  -4  111.69   16.30
   4   8  -4  114.59   12.20
   4   8  -4   87.19   12.20
  -2  -8   4   24.10   10.70
  -2  -8   4   12.20    9.30
   2  -8  -4   21.00   10.00
   2   8  -4   -1.70   12.10
   2   8  -4   24.60   13.80
   2   8  -4   11.80    9.70
   0  -8   4  406.16   23.70
   0  -8  -4  385.06   24.80
   0   8   4  377.46   25.60
   0   8  -4  413.96   29.70
   0   8   4  397.16   24.70
   0   8  -4  397.76   27.70
   0   8  -4  417.06   24.10
   2  -8   4  536.65   31.40
  -2  -8  -4  501.25   32.10
  -2  -8  -4  484.65   29.90
  -2   8  -4  498.45   31.60
  -2   8  -4  537.55   28.70
   2   8   4  516.25   30.10
  -2   8  -4  468.45   35.40
  -4  -8  -4  291.17   23.10
  -4  -8  -4  257.67   27.80
   4  -8   4  230.88   27.80
   4   8   4  280.47   26.80
  -4   8  -4  244.38   30.30
  -4   8  -4  260.77   25.50
   4   8   4  275.17   26.80
   4   8   4  252.97   28.70
  -4   8  -4  276.37   28.70
   6  -8   4  112.79   18.30
  -6  -8  -4  139.19   18.00
  -6  -8  -4  105.49   20.70
  -6   8  -4  106.59   24.10
   6   8   4  141.89   19.60
  -6   8  -4   97.09   21.10
  -6   8  -4  116.19   20.20
   6   8   4  105.19   20.50
   6   8   4   95.59   19.90
   8  -8   4  -13.90   16.70
  -8  -8  -4   21.50   19.40
  -8  -8  -4   13.90   18.10
   8   8   4   28.40   18.30
   8   8   4   -7.10   20.30
  -8   8  -4    2.70   20.60
  -8   8  -4   11.30   21.70
  -8   8  -4   34.00   18.20
   8   8   4   15.60   21.00
 -10  -8  -4   36.80   22.10
  10  -8   4   -3.00   17.80
 -10   8  -4    5.00   25.70
  10   8   4   10.00   27.10
  10   8   4   37.70   26.70
 -10   8  -4  -19.40   20.50
 -17  -9   4  -12.60   19.20
 -17  -9   4  -31.00   18.50
 -17  -9   4    6.60   22.10
 -17   9   4    6.60   23.30
  17   9  -4   54.89   20.60
 -15  -9   4   33.30   15.10
 -15  -9   4   -4.90   16.20
 -15  -9   4  -17.80   15.60
 -15  -9   4  -12.20   16.90
 -15  -9   4   28.90   17.70
 -15   9   4   28.00   22.50
  15   9  -4    6.60   16.70
  15   9  -4   11.40   16.80
 -15   9   4    4.80   23.60
 -13  -9   4   68.49   15.50
 -13  -9   4   64.39   15.30
 -13  -9   4   71.69   13.80
 -13  -9   4   53.39   16.90
 -13  -9   4   48.70   14.60
  13   9  -4   83.79   16.10
  13   9  -4   49.50   17.70
 -13   9   4   61.49   21.20
 -13   9   4   26.80   18.60
 -11  -9   4  249.68   26.40
 -11  -9   4  249.18   24.70
 -11  -9   4  288.47   25.70
 -11  -9   4  320.17   24.40
 -11  -9   4  286.97   22.70
  11   9  -4  312.17   26.70
 -11   9   4  255.77   31.00
  11   9  -4  309.07   24.10
 -11   9   4  251.57   28.30
  -9  -9   4  330.17   27.80
  -9  -9   4  385.26   24.10
  -9  -9   4  385.86   25.50
  -9  -9   4  337.57   25.10
  -9   9   4  310.07   32.00
   9   9  -4  344.47   27.60
   9   9  -4  375.56   24.70
  -9   9   4  324.17   27.30
  -7  -9   4  262.47   21.70
  -7  -9   4  238.68   23.20
  -7  -9   4  249.68   21.90
  -7   9   4  266.07   30.10
   7   9  -4  265.87   24.40
  -7   9   4  310.77   23.50
   7   9  -4  286.47   32.70
   5  -9  -4  127.89   15.80
  -5  -9   4  157.28   17.10
  -5  -9   4  102.89   14.80
   5   9  -4  151.78   16.00
   5   9  -4  144.69   14.70
  -5   9   4  134.89   16.20
   5   9  -4  146.69   17.50
  -5   9   4  111.49   19.60
   3  -9  -4    3.20   10.80
  -3  -9   4   15.70   10.10
  -3  -9   4    2.10   11.00
   3   9  -4  -10.90   11.30
   3   9  -4   17.00   12.60
   3   9  -4    4.70   10.20
   3   9  -4  -12.50   12.50
   1  -9  -4  137.19   16.80
   1  -9  -4  176.88   19.80
  -1  -9   4  153.98   17.40
   1   9  -4  175.68   18.10
   1   9  -4  165.98   19.40
   1   9  -4  160.28   18.70
  -1  -9  -4  319.57   25.20
  -1  -9  -4  323.37   27.10
   1  -9   4  303.57   22.70
  -1   9  -4  335.47   29.70
  -1   9  -4  354.76   26.90
  -1   9  -4  357.46   23.60
   1   9   4  291.67   24.40
   1   9   4  336.67   25.80
  -3  -9  -4  231.08   24.00
   3  -9   4  227.58   26.60
  -3  -9  -4  234.18   26.10
  -3   9  -4  191.08   23.60
   3   9   4  237.78   24.20
   3   9   4  195.38   19.80
   3   9   4  233.88   27.20
  -3   9  -4  186.18   23.80
  -5  -9  -4  193.18   20.30
  -5  -9  -4  151.18   21.80
   5  -9   4  190.08   21.80
  -5  -9  -4  190.98   20.70
   5   9   4  228.48   26.60
   5   9   4  187.68   23.90
   5   9   4  153.28   21.50
  -5   9  -4  188.58   21.00
  -5   9  -4  185.68   26.30
  -7  -9  -4   62.29   17.50
  -7  -9  -4   45.90   19.40
   7   9   4   67.89   19.10
  -7   9  -4   73.39   19.90
   7   9   4   53.39   21.10
   7   9   4   63.39   21.10
  -7   9  -4   36.00   22.50
   9  -9   4   -2.50   24.70
  -9  -9  -4  -26.70   18.50
   9   9   4    6.80   25.70
   9   9   4   34.20   25.50
  -9   9  -4    2.30   19.70
 -16 -10   4   31.00   20.60
 -16 -10   4   -3.90   17.40
 -16 -10   4   19.80   21.60
  16  10  -4   18.90   20.90
 -16  10   4   25.30   22.90
 -14 -10   4   10.60   18.00
 -14 -10   4   13.60   14.40
 -14 -10   4  -10.20   17.00
 -14 -10   4  -13.50   16.40
 -14 -10   4   40.40   17.50
  14  10  -4   11.20   16.80
 -14  10   4   26.60   22.00
 -14  10   4  -38.60   24.80
  14  10  -4   -1.90   18.70
 -12 -10   4  102.19   17.70
 -12 -10   4   88.09   16.90
 -12 -10   4   83.29   15.80
 -12 -10   4  119.29   20.20
 -12 -10   4  106.19   14.80
  12  10  -4  108.19   17.30
 -12  10   4   76.29   22.50
  12  10  -4   80.89   19.40
 -12  10   4  113.89   21.40
 -10 -10   4  130.59   17.80
 -10 -10   4  167.68   21.20
 -10 -10   4  146.29   17.90
 -10 -10   4  169.08   17.60
 -10  10   4  145.49   23.40
  10  10  -4  177.98   19.20
  10  10  -4  196.38   22.30
 -10  10   4  163.88   20.00
  -8 -10   4  150.88   17.70
  -8 -10   4  121.19   18.90
  -8 -10   4  140.09   15.80
  -8 -10   4  138.99   16.10
   8  10  -4  124.19   16.30
  -8  10   4  124.29   22.10
   8  10  -4  140.09   17.90
  -8  10   4  120.89   17.60
  -6 -10   4  114.69   14.00
  -6 -10   4   72.39   12.90
  -6 -10   4   75.29   14.40
   6  10  -4   86.89   14.80
   6  10  -4  103.39   14.90
  -6  10   4   67.69   20.50
  -6  10   4   77.39   15.70
  -4 -10   4  -11.90   10.00
   4 -10  -4    9.60   12.40
  -4 -10   4   -0.40    9.70
   4  10  -4   -7.20   13.00
   4  10  -4    2.30   14.00
   4  10  -4   -7.60   10.90
   4  10  -4   -2.50   14.70
  -2 -10   4   61.09   12.90
  -2 -10   4   57.49   11.40
   2 -10  -4   39.30   14.20
   2  10  -4   47.60   15.90
   2  10  -4   49.10   13.80
   2  10  -4   60.59   17.40
   2  10  -4   81.59   13.00
   0 -10   4   80.49   12.40
   0 -10  -4   83.59   15.30
   0 -10  -4   83.99   15.70
   0  10  -4  116.89   19.50
   0  10  -4  121.69   14.70
   0  10   4   86.09   14.90
   0  10   4   99.79   16.30
  -2 -10  -4  120.19   17.50
  -2 -10  -4   54.99   16.00
   2  10   4   88.29   16.90
  -2  10  -4  100.19   15.50
  -2  10  -4   98.39   21.40
   2  10   4   75.59   16.80
   2  10   4   98.19   16.40
  -4 -10  -4  111.59   18.90
  -4 -10  -4   74.49   17.20
  -4  10  -4   95.79   23.90
   4  10   4   83.29   16.90
   4  10   4  158.68   20.60
   4  10   4  130.09   20.00
  -6 -10  -4   87.49   19.50
  -6 -10  -4   67.39   19.40
  -6 -10  -4  104.29   17.90
   6  10   4   53.49   21.70
   6  10   4   51.19   19.90
  -6  10  -4   96.79   26.20
   6  10   4   74.59   19.70
  -8 -10  -4   26.20   22.00
  -8 -10  -4   48.50   17.90
   8  10   4  -44.10   26.00
   8  10   4   35.70   24.50
  -8  10  -4   37.70   20.60
 -15 -11   4   18.00   21.50
 -15 -11   4    2.20   19.20
 -15 -11   4   24.80   18.00
 -15  11   4   35.90   26.70
 -15  11   4   24.80   25.80
 -13 -11   4   32.90   14.00
 -13 -11   4   38.50   16.90
 -13 -11   4    2.10   16.50
 -13 -11   4    8.60   19.50
 -13 -11   4   24.10   18.60
 -13  11   4   71.49   21.50
 -13  11   4  -33.60   23.00
  13  11  -4   17.60   18.50
  13  11  -4    5.00   16.00
 -11 -11   4   51.69   17.50
 -11 -11   4   84.19   16.70
 -11 -11   4   83.39   17.50
 -11 -11   4   72.29   17.00
  11  11  -4   86.09   19.30
 -11  11   4   59.59   22.10
  11  11  -4   67.09   15.90
 -11  11   4   56.59   21.60
  -9 -11   4   65.09   15.20
  -9 -11   4   68.89   14.60
  -9 -11   4   49.80   17.20
  -9 -11   4   53.19   14.20
   9  11  -4   73.79   17.70
  -9  11   4   60.29   23.50
  -9  11   4   47.90   17.90
   9  11  -4   67.79   15.10
  -7 -11   4    9.50   11.90
  -7 -11   4   15.30   10.80
  -7 -11   4    1.00   13.90
   7  11  -4   15.10   13.50
  -7  11   4   44.80   15.60
  -7  11   4   33.70   20.80
   7  11  -4   -0.80   15.60
  -5 -11   4  -13.90   10.10
   5 -11  -4   -1.90   14.20
  -5 -11   4   12.00   13.00
  -5 -11   4   -4.50   10.90
   5  11  -4  -22.80   13.70
   5  11  -4   -2.20   12.40
  -5  11   4   -8.10   19.40
  -5  11   4   13.20   15.70
  -3 -11   4    2.50   10.60
   3 -11  -4   -3.90   13.60
  -3 -11   4   -1.90   11.30
   3  11  -4    5.70   13.20
   3  11  -4    2.00   15.30
   3  11  -4   -6.10   16.20
   3  11  -4    5.00   13.00
  -1 -11   4   43.00   11.60
   1 -11  -4   61.49   15.50
   1  11  -4   44.90   18.80
   1  11  -4   57.99   14.90
   1  11  -4   33.40   16.20
  -1 -11  -4   94.39   17.00
  -1 -11  -4   71.69   17.00
   1  11   4   60.99   17.00
   1  11   4   98.69   17.60
  -1  11  -4   95.89   21.80
   1  11   4   90.49   16.10
  -3 -11  -4   40.20   16.80
  -3 -11  -4   21.90   18.60
  -3  11  -4   84.69   23.00
   3  11   4   27.60   18.60
   3  11   4   41.00   18.10
   3  11   4   50.09   17.60
  -5 -11  -4    4.70   18.10
  -5 -11  -4   13.70   20.60
   5  11   4   67.49   20.80
   5  11   4   -8.10   19.70
   5  11   4   52.89   20.00
  -5  11  -4   17.90   23.40
  -7 -11  -4   54.59   21.60
  -7 -11  -4   26.00   16.80
   7  11   4   10.80   26.00
  -7  11  -4   11.10   22.50
   7  11   4  -28.20   24.60
 -12 -12   4   35.40   17.60
 -12 -12   4   54.19   17.60
 -12  12   4   40.70   25.20
  12  12  -4   29.30   23.60
 -12  12   4    5.00   23.50
  12  12  -4   50.49   18.60
 -10 -12   4   26.90   15.50
 -10 -12   4   76.69   17.80
 -10 -12   4   63.99   17.20
  10  12  -4   59.39   17.20
 -10  12   4   48.10   26.20
  10  12  -4   66.29   18.80
 -10  12   4   65.79   22.30
  -8 -12   4    8.50   13.10
  -8 -12   4   36.00   15.30
  -8 -12   4   17.10   13.70
  -8  12   4   47.50   19.30
   8  12  -4   19.00   14.70
   8  12  -4   36.00   18.10
  -8  12   4   41.60   24.20
  -6 -12   4    1.80   11.80
  -6 -12   4   12.20   15.40
  -6 -12   4   15.50   12.50
  -6  12   4   12.00   17.90
  -6  12   4    5.00   22.20
   6  12  -4   10.50   16.40
   6  12  -4    4.30   13.80
   4 -12  -4   -2.20   16.00
  -4 -12   4   25.00   12.70
  -4 -12   4   11.80   14.20
  -4 -12   4  -16.10   10.80
   4  12  -4   35.90   19.30
   4  12  -4  -16.70   12.10
   4  12  -4    7.80   14.70
  -4  12   4  -49.40   21.30
  -2 -12   4   12.80   13.00
  -2 -12   4    7.90   11.60
   2 -12  -4   11.20   15.30
   2  12  -4    0.00   15.40
   2  12  -4    5.60   13.10
   2  12  -4   -3.90   19.80
   0 -12  -4   76.09   17.20
   0  12  -4   71.59   15.50
   0  12  -4   58.49   21.90
   0  12   4  104.09   18.80
  -2 -12  -4   31.80   17.70
  -2 -12  -4   53.59   19.80
   2  12   4   23.00   20.10
  -2  12  -4   53.59   22.50
   2  12   4   18.20   16.90
   2  12   4   56.09   17.00
  -4 -12  -4  -13.20   17.50
  -4 -12  -4    0.10   21.00
   4  12   4   20.50   20.60
   4  12   4   11.20   18.90
   4  12   4   22.40   20.20
  -6 -12  -4   31.10   22.30
   6  12   4   51.99   26.80
   6  12   4   -3.30   28.70
 -11 -13   4   95.29   19.50
 -11 -13   4   34.70   20.40
  11  13  -4   37.50   19.50
 -11  13   4   38.50   23.30
 -11  13   4   21.40   26.20
  -9 -13   4   58.89   17.10
  -9 -13   4   60.49   21.20
  -9  13   4   56.99   26.00
  -9  13   4   62.39   22.90
   9  13  -4   88.69   18.70
   9  13  -4  104.09   20.60
  -7 -13   4   19.30   15.50
  -7 -13   4   56.79   18.50
  -7 -13   4   40.20   13.80
  -7  13   4   38.30   20.50
   7  13  -4   63.09   19.70
   7  13  -4   67.49   16.00
  -7  13   4   41.10   25.40
  -5 -13   4   22.70   15.60
  -5 -13   4    8.20   14.80
  -5 -13   4   18.70   13.40
   5 -13  -4   37.60   17.80
   5  13  -4   31.50   14.40
  -5  13   4   10.80   26.00
   5  13  -4   41.90   20.60
  -3 -13   4   12.00   17.10
  -3 -13   4   -6.20   11.90
   3 -13  -4   -9.30   16.00
  -3 -13   4    2.40   14.70
   3  13  -4   15.40   20.90
   3  13  -4    1.10   18.20
   3  13  -4   24.00   14.60
   1 -13  -4   38.80   17.40
  -1 -13   4   34.70   13.10
   1  13  -4   38.80   17.30
   1  13  -4    6.20   22.10
   1  13  -4   -4.10   14.70
  -1 -13  -4   45.10   19.50
  -1 -13  -4   44.30   16.20
   1  13   4   21.60   20.10
   1  13   4   33.30   17.90
  -3 -13  -4   62.79   22.10
   3  13   4   48.60   21.50
   3  13   4   60.19   21.60
   3  13   4   55.19   21.90
  -8 -14   4   14.30   18.60
  -8 -14   4   27.00   16.10
  -8  14   4   61.09   21.90
   8  14  -4   72.39   21.00
  -8  14   4   60.89   25.90
   8  14  -4   51.99   19.60
  -6 -14   4   48.70   15.20
  -6 -14   4   16.30   17.70
   6  14  -4   54.69   18.00
   6  14  -4   49.99   21.20
  -6  14   4    1.00   25.30
  -4 -14   4   20.20   18.30
  -4 -14   4   10.40   16.70
   4 -14  -4   17.90   19.70
  -4 -14   4   25.60   13.50
   4  14  -4   51.89   21.00
  -4  14   4    3.40   26.00
   4  14  -4   -6.50   16.70
  -2 -14   4   -5.10   17.30
   2 -14  -4  -23.30   19.30
   2  14  -4   14.20   16.50
   2  14  -4   20.60   18.70
   0 -14  -4   48.60   23.10
   0  14  -4   56.59   17.40
   0  14   4   64.99   22.30
  20   0  -5  146.49   23.30
 -20   0   5   82.19   22.50
 -20   0   5   56.39   18.20
 -20   0   5   99.99   18.50
 -20   0   5   75.79   18.10
 -18   0   5   12.10   12.90
 -18   0   5   29.50   16.20
  18   0  -5    8.50   15.70
 -18   0   5   18.70   15.40
 -18   0   5   29.80   13.60
 -16   0   5   93.49   15.90
  16   0  -5   98.39   16.80
 -16   0   5   92.59   16.60
 -16   0   5   93.49   14.40
 -16   0   5   90.79   14.80
  14   0  -5 1305.27   57.19
  14   0  -5 1242.98   52.29
 -14   0   5 1313.37   54.99
 -14   0   5 1377.36   54.39
 -14   0   5 1315.47   54.99
 -14   0   5 1327.27   56.09
  14   0  -5 1199.58   52.59
  12   0  -5  310.47   23.00
 -12   0   5  337.67   21.70
 -12   0   5  340.57   23.60
 -12   0   5  349.57   24.20
 -12   0   5  361.06   20.00
  12   0  -5  330.47   23.60
 -10   0   5   75.69    9.40
  10   0  -5   72.79    9.30
  10   0  -5   72.59   11.90
 -10   0   5   86.49   10.90
  10   0  -5   75.69    9.80
  10   0  -5   76.39   11.80
 -10   0   5   72.29   11.90
 -10   0   5   88.79   13.90
   8   0  -5   51.29    9.60
   8   0  -5   40.50    8.10
   8   0  -5   55.39   10.10
  -8   0   5   55.19    7.80
  -8   0   5   32.30   10.20
   8   0  -5   39.40   10.00
  -8   0   5   52.29   10.40
  -8   0   5   37.20    8.20
  -6   0   5 1881.31   73.99
  -6   0   5 1944.61   73.29
   6   0  -5 1742.03   73.69
  -6   0   5 1887.21   74.29
   6   0  -5 1941.71   72.99
   6   0  -5 1827.72   72.49
   6   0  -5 1854.31   73.09
   4   0  -5 4792.52  179.08
  -4   0   5 4755.32  179.98
  -4   0   5 4633.04  178.78
  -4   0   5 4935.21  178.88
   4   0  -5 4696.73  179.88
  -2   0   5  202.98   20.90
  -2   0   5  191.28   20.80
   2   0  -5  212.88   23.50
   2   0  -5  231.28   18.20
   0   0  -5  603.04   31.50
   0   0  -5  664.73   36.50
   0   0   5  622.54   37.50
   0   0   5  617.84   36.30
   2   0   5  955.90   49.90
  -2   0  -5  968.30   47.40
  -2   0  -5  971.10   44.50
   2   0   5  940.81   47.90
   4   0   5  218.48   26.60
  -4   0  -5  219.08   24.30
  -4   0  -5  236.08   25.40
  -6   0  -5  308.17   39.90
  -6   0  -5  335.77   28.90
   6   0   5  285.67   33.40
   6   0   5  316.67   32.60
   8   0   5    9.30   20.20
   8   0   5   27.30   20.10
  -8   0  -5   49.30   24.60
   8   0   5   14.30   16.90
  -8   0  -5   34.10   18.10
 -10   0  -5   43.60   21.90
 -10   0  -5  112.79   27.70
  10   0   5   60.39   20.40
  10   0   5  109.99   28.10
  10   0   5   78.09   26.10
 -21  -1   5   31.30   23.60
 -21  -1   5  -15.20   19.60
 -21  -1   5   16.00   18.60
  21  -1  -5    6.40   24.20
 -21   1   5  -15.00   18.10
 -21   1   5   16.70   22.60
 -21   1   5   22.80   18.60
 -21   1   5   30.40   18.10
  21   1  -5  -18.80   23.80
 -19  -1   5   82.69   19.60
  19  -1  -5   67.79   19.60
 -19  -1   5   63.89   15.50
 -19  -1   5   85.89   16.60
 -19   1   5   62.49   18.10
 -19   1   5   48.40   14.10
 -19   1   5   72.19   16.10
  19   1  -5  112.99   20.80
 -19   1   5   60.99   17.90
 -17  -1   5    2.30   12.60
 -17  -1   5   -8.50   13.70
  17  -1  -5   19.10   14.10
 -17  -1   5   -7.00   14.60
 -17  -1   5   -4.90   11.70
  17   1  -5   -1.00   13.70
 -17   1   5   18.40   14.40
 -17   1   5   -6.20   11.50
 -17   1   5   14.70   11.60
  17   1  -5   17.80   11.10
 -17   1   5  -17.00   13.70
 -15  -1   5  577.74   32.80
 -15  -1   5  623.74   33.60
  15  -1  -5  570.54   32.90
 -15  -1   5  584.04   31.70
 -15   1   5  600.14   31.40
  15   1  -5  616.24   34.00
 -15   1   5  613.44   32.50
 -15   1   5  576.54   29.70
  15   1  -5  535.35   28.60
  15   1  -5  497.05   29.30
 -13  -1   5  732.53   34.30
  13  -1  -5  732.83   37.00
 -13  -1   5  721.93   35.20
 -13  -1   5  741.33   37.40
 -13  -1   5  746.13   36.00
 -13   1   5  728.53   35.40
 -13   1   5  774.32   36.20
 -13   1   5  720.63   34.50
  13   1  -5  724.93   33.10
  13   1  -5  715.33   37.00
  13   1  -5  678.93   33.70
 -13   1   5  746.03   33.50
 -11  -1   5  105.19   15.20
 -11  -1   5  110.29   14.30
  11  -1  -5  127.99   16.20
  11  -1  -5  135.49   15.90
 -11  -1   5  134.49   14.40
 -11  -1   5  124.99   13.70
 -11   1   5  109.29   13.60
 -11   1   5  125.59   16.00
 -11   1   5  126.69   13.70
  11   1  -5  139.49   13.70
 -11   1   5  133.69   14.20
  11   1  -5  110.69   11.70
 -11   1   5  108.19   13.00
  11   1  -5  111.29   14.60
  11   1  -5  126.09   15.90
  -9  -1   5   80.69    9.50
   9  -1  -5   68.39   11.40
   9  -1  -5  106.69   12.70
  -9  -1   5   89.69   12.40
  -9  -1   5   86.99   10.90
   9   1  -5   82.49   10.90
  -9   1   5   77.79    9.20
   9   1  -5   94.29    9.60
  -9   1   5   84.89   10.10
  -9   1   5   68.09   13.20
  -9   1   5   93.49   11.80
   9   1  -5   77.99   11.70
   9   1  -5   77.09   12.30
  -7  -1   5    4.30    8.50
  -7  -1   5    5.70    8.80
   7  -1  -5    1.70    7.30
  -7  -1   5    2.10    6.40
   7  -1  -5    1.30    7.00
   7  -1  -5    8.00    8.10
   7  -1  -5   -0.40    7.70
  -7   1   5    1.30    6.20
   7   1  -5    3.80    8.40
   7   1  -5    7.50    6.70
  -7   1   5    3.20    9.30
   7   1  -5    7.60    6.80
  -7   1   5   -4.90    9.40
   7   1  -5   -3.10    7.50
   5  -1  -5 4122.19  157.68
  -5  -1   5 4259.37  157.68
  -5  -1   5 4155.38  156.68
  -5  -1   5 4023.40  157.68
   5  -1  -5 4126.19  158.18
  -5   1   5 4191.98  157.48
   5   1  -5 4399.96  157.58
   5   1  -5 3985.60  158.38
  -5   1   5 4434.16  159.18
  -5   1   5 4192.58  158.78
   3  -1  -5 1798.52   69.69
   3  -1  -5 1613.94   71.49
  -3  -1   5 1761.62   69.79
  -3  -1   5 1769.42   71.19
  -3   1   5 1692.43   72.99
   3   1  -5 1795.52   69.99
   3   1  -5 1724.33   71.49
  -3   1   5 1765.12   71.99
   1  -1  -5  142.59   18.50
  -1  -1   5  112.69   17.60
   1  -1  -5  168.28   16.50
  -1  -1   5  133.19   17.20
   1   1  -5  168.78   17.10
  -1   1   5  156.98   18.50
   1   1  -5  139.49   18.40
  -1   1   5  120.49   19.50
   1  -1   5 1549.74   64.19
  -1  -1  -5 1504.45   63.89
  -1  -1  -5 1384.76   59.59
   1  -1   5 1317.67   62.59
  -1   1  -5 1410.96   59.29
   1   1   5 1410.46   63.19
  -1   1  -5 1410.36   62.99
   1   1   5 1356.46   62.99
   3  -1   5   25.70   17.40
  -3  -1  -5   46.90   18.20
   3  -1   5   24.00   14.00
  -3  -1  -5   61.99   14.60
  -3   1  -5   56.69   14.20
   3   1   5   36.40   15.20
   3   1   5    8.70   16.20
  -3   1  -5   45.20   16.40
   5  -1   5  283.77   32.20
   5  -1   5  305.77   30.30
  -5  -1  -5  292.97   27.60
  -5   1  -5  311.27   28.90
  -5   1  -5  337.37   32.10
   5   1   5  305.97   32.80
   5   1   5  357.96   31.00
  -7  -1  -5  -16.10   19.70
   7  -1   5    0.10   17.60
  -7  -1  -5    2.20   15.10
   7  -1   5   -3.70   14.80
   7  -1   5   20.50   18.60
   7   1   5    4.50   19.40
  -7   1  -5   12.90   21.10
   7   1   5   -8.70   19.10
  -7   1  -5    6.90   16.20
   7   1   5   18.00   16.90
  -9  -1  -5   18.00   18.90
  -9  -1  -5   91.39   24.40
   9  -1   5   -7.30   23.10
   9  -1   5   44.30   18.00
   9  -1   5   31.20   22.50
   9   1   5    4.70   18.70
  -9   1  -5   48.90   23.60
   9   1   5   33.80   22.60
  -9   1  -5   40.20   19.60
   9   1   5   26.20   22.30
  11  -1   5  103.99   29.00
 -11  -1  -5   91.69   27.20
 -11  -1  -5  114.29   29.80
  11  -1   5  118.29   29.10
  11  -1   5   98.59   20.60
 -11   1  -5   98.39   26.60
  11   1   5  136.39   28.60
  11   1   5  102.09   23.10
  11   1   5   89.69   25.30
 -11   1  -5  110.69   30.10
 -20  -2   5   69.59   18.20
 -20  -2   5   82.89   18.30
  20  -2  -5   53.69   20.90
 -20  -2   5   69.59   20.50
 -20  -2   5   65.89   17.50
 -20   2   5   65.59   17.20
  20   2  -5   83.09   21.60
  20   2  -5   34.80   15.50
  20   2  -5   56.19   18.30
 -20   2   5   55.69   16.30
 -20   2   5   43.30   20.80
 -20   2   5   43.80   19.10
 -18  -2   5    6.30   15.40
  18  -2  -5   18.30   16.00
 -18  -2   5    9.90   17.30
 -18  -2   5   -6.40   12.80
 -18  -2   5   21.40   13.60
 -18   2   5   -9.00   11.80
 -18   2   5   19.80   14.80
  18   2  -5   19.00   12.80
  18   2  -5  -10.10   14.30
  18   2  -5   11.40   16.70
 -18   2   5   10.90   16.10
 -18   2   5   -2.70   12.20
 -16  -2   5   40.30   14.60
  16  -2  -5   47.60   15.80
 -16  -2   5   24.90   13.30
 -16  -2   5   20.00   13.60
 -16  -2   5   28.80   15.50
  16   2  -5   43.20   11.90
  16   2  -5   30.80   17.30
 -16   2   5   35.70   11.50
 -16   2   5   31.80   14.40
 -16   2   5   27.80   11.80
  16   2  -5   41.20   15.70
 -14  -2   5  651.43   35.20
 -14  -2   5  659.63   47.80
 -14  -2   5  703.03   34.80
 -14  -2   5  738.53   37.00
  14  -2  -5  650.23   49.20
  14   2  -5  704.03   33.20
  14   2  -5  695.83   33.50
 -14   2   5  668.93   33.40
  14   2  -5  699.63   37.10
 -14   2   5  690.83   34.50
 -14   2   5  746.63   34.40
 -14   2   5  661.33   32.10
 -12  -2   5   15.00   12.10
  12  -2  -5    3.50   10.70
 -12  -2   5    8.20    8.60
 -12  -2   5   19.90   11.50
 -12  -2   5    7.90    9.00
 -12   2   5    6.70    8.90
  12   2  -5    5.90   10.30
  12   2  -5   15.20    9.80
 -12   2   5   14.20    7.60
  12   2  -5   15.10    8.60
 -12   2   5   14.40   13.90
 -12   2   5   15.40   10.50
 -10  -2   5  185.88   15.00
 -10  -2   5  176.88   16.70
  10  -2  -5  169.98   16.30
  10  -2  -5  218.78   18.60
 -10  -2   5  184.08   18.70
  10   2  -5  170.58   15.00
 -10   2   5  198.48   17.40
 -10   2   5  177.78   20.40
  10   2  -5  179.28   19.20
  10   2  -5  217.38   16.60
  10   2  -5  181.38   17.80
 -10   2   5  185.48   15.00
   8  -2  -5  654.63   31.30
   8  -2  -5  697.73   32.10
  -8  -2   5  679.73   31.20
  -8  -2   5  641.74   28.00
  -8  -2   5  653.83   32.20
  -8  -2   5  706.03   30.30
   8   2  -5  683.03   30.50
   8   2  -5  647.24   31.40
  -8   2   5  667.73   28.90
   8   2  -5  678.33   33.70
  -8   2   5  645.64   34.60
  -8   2   5  693.43   29.70
  -8   2   5  677.73   30.90
   8   2  -5  700.13   30.70
  -6  -2   5  426.46   25.00
  -6  -2   5  483.95   23.90
   6  -2  -5  463.15   24.50
  -6  -2   5  453.35   24.10
   6   2  -5  446.86   23.00
   6   2  -5  446.76   24.60
  -6   2   5  467.25   27.80
  -6   2   5  485.05   28.00
   6   2  -5  441.86   26.20
  -6   2   5  483.15   23.50
   6   2  -5  504.75   22.50
  -4  -2   5 3207.28  120.79
   4  -2  -5 3000.10  119.59
  -4  -2   5 3285.67  120.59
   4  -2  -5 3090.79  121.79
  -4   2   5 2940.31  122.79
   4   2  -5 3312.27  120.29
  -4   2   5 3206.58  122.69
   4   2  -5 3195.78  121.69
  -2  -2   5  176.28   16.10
   2  -2  -5  135.59   16.10
   2  -2  -5  148.49   17.00
  -2  -2   5  174.28   17.50
   2   2  -5  170.88   18.20
   2   2  -5  131.89   16.00
  -2   2   5  157.18   20.30
   2   2  -5  153.48   15.40
  -2   2   5  131.59   17.20
   0  -2  -5  642.14   35.80
   0  -2   5  560.94   34.10
   0  -2   5  660.13   34.50
   0  -2  -5  595.84   30.70
   0   2  -5  590.44   31.20
   0   2   5  599.14   34.50
   0   2   5  525.25   34.30
   0   2  -5  542.05   35.50
   2  -2   5  977.40   48.10
  -2  -2  -5  907.81   44.50
  -2  -2  -5  954.10   48.90
   2  -2   5 1037.10   48.90
  -2   2  -5 1027.50   48.10
  -2   2  -5  992.20   44.70
   2   2   5  880.81   47.40
   2   2   5  933.31   47.80
  -4  -2  -5   45.70   14.30
  -4  -2  -5    5.70   21.10
   4  -2   5   23.80   15.10
   4  -2   5   45.30   16.60
   4   2   5   13.00   15.10
  -4   2  -5   39.90   14.70
  -4   2  -5   27.10   15.90
   4   2   5   34.90   16.60
  -6  -2  -5  -15.30   15.20
   6  -2   5   17.00   17.80
   6  -2   5   35.20   16.90
  -6  -2  -5   -6.00   19.40
  -6   2  -5   44.60   16.20
   6   2   5   46.50   19.40
   6   2   5   11.60   17.10
  -6   2  -5   42.80   19.00
  -8  -2  -5   -1.80   16.80
   8  -2   5   12.80   15.40
   8  -2   5   12.50   19.50
   8  -2   5   -0.60   19.50
  -8  -2  -5   -3.70   21.20
   8   2   5  -11.60   16.50
  -8   2  -5    6.70   17.30
  -8   2  -5  -25.50   21.70
   8   2   5  -35.50   20.60
   8   2   5  -46.30   20.60
  10  -2   5   65.19   18.20
 -10  -2  -5   57.99   23.90
 -10  -2  -5  137.49   28.90
  10  -2   5   78.99   25.30
  10  -2   5  101.99   24.90
  10   2   5   74.39   24.60
  10   2   5   84.39   27.70
 -10   2  -5  116.99   25.60
  10   2   5   42.50   21.20
 -10   2  -5   67.69   22.90
  21  -3  -5   38.10   24.20
 -21  -3   5   12.10   23.40
 -21  -3   5   27.40   21.50
 -21   3   5   -0.70   17.70
 -21   3   5   37.60   18.10
  21   3  -5   35.20   17.20
  21   3  -5    4.60   18.60
 -21   3   5   54.59   19.90
 -19  -3   5   27.40   16.10
 -19  -3   5   19.00   17.30
  19  -3  -5   84.09   19.50
 -19  -3   5   50.19   16.70
 -19  -3   5   43.50   19.30
  19   3  -5   46.80   14.10
 -19   3   5   44.20   18.20
 -19   3   5   45.70   14.40
  19   3  -5   64.49   17.70
 -19   3   5   12.90   13.60
  19   3  -5   65.29   20.90
  17  -3  -5    5.00   15.00
 -17  -3   5   13.00   13.20
 -17  -3   5    9.70   12.30
 -17  -3   5   22.60   15.70
 -17  -3   5   45.30   17.00
  17   3  -5   15.60   13.60
 -17   3   5   15.70   14.00
  17   3  -5   55.19   16.70
 -17   3   5    9.50   14.80
  17   3  -5   32.10   12.50
  15  -3  -5  121.59   16.50
 -15  -3   5  162.88   16.60
 -15  -3   5  112.09   15.80
 -15  -3   5  148.69   16.00
 -15  -3   5  144.59   18.20
  15   3  -5  144.09   15.40
  15   3  -5  181.98   22.50
 -15   3   5  120.59   13.40
  15   3  -5  127.79   14.60
 -13  -3   5  378.26   26.50
  13  -3  -5  403.76   27.10
 -13  -3   5  393.06   24.40
 -13  -3   5  339.17   27.40
 -13  -3   5  383.06   25.70
 -13   3   5  408.46   29.80
  13   3  -5  411.16   26.20
  13   3  -5  413.26   24.60
  13   3  -5  390.86   24.30
 -11  -3   5  117.39   13.90
  11  -3  -5  121.59   15.30
 -11  -3   5  112.59   12.80
 -11  -3   5  126.29   16.30
 -11  -3   5  117.69   14.30
  11   3  -5  131.69   16.00
  11   3  -5  131.89   13.20
  11   3  -5  139.79   16.30
  11   3  -5  113.49   13.30
 -11   3   5  115.99   17.90
  -9  -3   5   -0.30    9.80
   9  -3  -5    3.90    8.90
  -9  -3   5   -0.40    6.40
  -9  -3   5    1.70    8.40
   9   3  -5   -2.00   10.40
  -9   3   5    3.80   11.00
   9   3  -5    5.30    7.40
   9   3  -5    0.90    9.50
   9   3  -5   -3.30    7.80
   7  -3  -5   10.00    7.70
  -7  -3   5    5.10    5.70
  -7  -3   5   11.30    9.40
  -7  -3   5    0.10    7.10
  -7   3   5    8.80    6.80
  -7   3   5   12.20   12.30
   7   3  -5    5.20    6.90
   7   3  -5   -3.80    8.60
   7   3  -5    0.30    9.70
  -5  -3   5 1902.61   72.09
  -5  -3   5 1912.21   69.69
   5  -3  -5 1805.42   72.59
  -5  -3   5 1734.93   72.09
  -5   3   5 1574.34   74.59
   5   3  -5 1803.22   70.29
   5   3  -5 1733.03   73.19
   5   3  -5 1886.21   71.39
  -5   3   5 1958.60   76.29
  -3  -3   5  491.25   27.40
   3  -3  -5  431.26   29.20
  -3  -3   5  518.75   25.40
   3  -3  -5  508.05   25.00
   3   3  -5  470.25   28.70
   3   3  -5  498.65   25.20
   3   3  -5  485.95   25.10
  -3   3   5  479.95   29.00
  -3   3   5  515.35   31.40
  -1  -3   5    2.70   11.60
  -1  -3   5    0.00   10.10
   1  -3  -5   -1.80    9.00
   1  -3  -5    6.90   14.90
  -1   3   5    1.10   13.10
   1   3  -5   -3.70    9.80
   1   3  -5   10.30    9.10
   1   3  -5   -0.30   12.70
  -1   3   5   12.90   11.00
   1  -3   5 1138.29   51.89
  -1  -3  -5 1117.19   54.49
   1  -3   5 1281.67   54.79
  -1  -3  -5 1132.69   49.99
  -1   3  -5 1151.98   50.39
   1   3   5 1114.09   52.19
   1   3   5 1123.29   53.19
  -1   3  -5 1152.68   54.09
  -3  -3  -5  182.48   22.30
   3  -3   5  149.39   19.30
  -3  -3  -5  146.39   26.40
   3  -3   5  207.28   26.50
  -3   3  -5  214.98   26.50
   3   3   5  169.58   26.50
   3   3   5  188.68   22.30
  -3   3  -5  259.37   21.30
   5  -3   5  128.09   18.90
  -5  -3  -5  107.19   20.20
  -5  -3  -5  109.29   17.80
   5  -3   5  106.19   20.50
   5   3   5  116.99   20.90
  -5   3  -5  147.19   17.50
  -5   3  -5  129.19   20.60
   5   3   5  105.79   18.70
   7  -3   5   11.80   17.20
  -7  -3  -5  -29.90   15.20
   7  -3   5   14.10   19.60
   7  -3   5   -4.70   14.20
  -7  -3  -5   -2.30   20.10
  -7   3  -5   -7.60   14.80
   7   3   5   -6.70   18.80
   7   3   5  -12.40   17.10
   7   3   5  -45.30   14.50
  -7   3  -5   -6.20   17.70
  -9  -3  -5  -18.80   23.90
   9  -3   5   11.50   23.20
   9  -3   5   17.20   15.90
  -9  -3  -5    8.60   20.40
   9   3   5    5.50   22.60
  -9   3  -5    7.80   22.70
  -9   3  -5   44.40   20.20
   9   3   5  -36.50   19.70
   9   3   5   28.20   21.20
  11  -3   5   73.09   28.00
 -11  -3  -5   -9.60   27.00
  11  -3   5   35.70   18.80
 -11  -3  -5   22.90   26.80
  11  -3   5   76.29   26.70
 -11   3  -5   78.79   25.80
  11   3   5   82.29   25.50
 -11   3  -5   86.49   26.20
  11   3   5   83.49   30.40
 -20  -4   5   81.09   22.60
 -20  -4   5   75.09   20.00
 -20  -4   5   53.69   20.30
  20  -4  -5   43.10   21.20
  20   4  -5   63.69   19.20
 -20   4   5   55.99   16.50
  20   4  -5   84.89   23.90
 -20   4   5   44.90   19.20
  20   4  -5   41.20   16.00
 -18  -4   5  -18.00   15.70
 -18  -4   5   18.10   15.40
 -18  -4   5  -12.20   13.60
  18  -4  -5  -13.20   17.10
 -18  -4   5   13.10   18.00
  18   4  -5   -6.40   12.70
  18   4  -5  -18.70   14.70
 -18   4   5   26.30   13.50
  18   4  -5  -10.50   18.10
 -18   4   5    4.60   15.40
 -16  -4   5   39.90   13.10
 -16  -4   5   42.50   14.30
  16  -4  -5   29.20   14.60
 -16  -4   5   39.70   12.00
 -16  -4   5   36.00   15.50
  16   4  -5   21.20   12.10
  16   4  -5   13.80   13.70
  16   4  -5   34.80   15.80
 -14  -4   5  618.14   33.50
 -14  -4   5  597.44   33.30
 -14  -4   5  631.44   37.40
 -14  -4   5  624.54   32.10
  14  -4  -5  587.14   34.20
  14   4  -5  549.95   32.20
 -14   4   5  644.74   38.00
  14   4  -5  648.04   49.90
 -12  -4   5   14.70    9.50
 -12  -4   5    6.90   12.50
  12  -4  -5    5.10   11.60
 -12  -4   5    6.00   14.10
 -12  -4   5   10.80   10.10
  12   4  -5   12.80   14.20
 -12   4   5   23.50   29.20
  12   4  -5    6.90   11.20
  12   4  -5    6.20   10.10
 -10  -4   5   88.29   11.80
 -10  -4   5   86.39   12.00
 -10  -4   5  104.09   14.40
  10  -4  -5   72.49   12.70
  10   4  -5   87.29   14.50
  10   4  -5   89.79   11.70
  10   4  -5   87.49   12.20
 -10   4   5   84.89   12.40
  10   4  -5   82.29   13.10
 -10   4   5   71.09   15.30
  -8  -4   5  175.88   16.50
  -8  -4   5  161.68   13.70
  -8  -4   5  167.48   18.90
   8   4  -5  202.58   18.00
   8   4  -5  176.98   20.70
   8   4  -5  167.68   15.70
  -8   4   5  163.48   18.80
  -6  -4   5  916.81   41.40
  -6  -4   5  988.00   39.00
  -6  -4   5  947.91   41.20
   6   4  -5  942.71   43.20
  -6   4   5  959.50   46.30
   6   4  -5  952.70   40.50
   6   4  -5  888.11   41.10
  -4  -4   5 2317.47   90.09
  -4  -4   5 2434.66   88.79
  -4  -4   5 2401.96   90.29
  -4   4   5 2175.48   91.09
   4   4  -5 2276.17   91.39
  -4   4   5 2190.08   91.39
   4   4  -5 2414.56   89.79
   4   4  -5 2279.87   89.59
  -2  -4   5   39.90   11.20
   2  -4  -5   29.60   14.20
   2  -4  -5   19.40    8.90
  -2  -4   5   24.60    9.20
  -2   4   5   37.40   12.90
   2   4  -5   16.20   10.10
   2   4  -5   23.80   12.80
  -2   4   5   35.60   11.80
   2   4  -5   39.30    9.70
   0  -4  -5  330.07   29.30
   0  -4   5  308.37   24.50
   0  -4  -5  314.97   21.30
   0  -4   5  364.36   25.60
   0   4  -5  294.37   21.60
   0   4  -5  292.47   27.40
   0   4  -5  295.67   23.80
   0   4   5  287.67   25.10
   0   4   5  349.77   25.70
   2  -4   5  579.84   34.30
   2  -4   5  692.13   37.40
  -2  -4  -5  597.84   32.10
  -2  -4  -5  502.25   40.10
   2   4   5  661.43   35.40
   2   4   5  560.04   33.80
  -2   4  -5  585.24   37.70
  -2   4  -5  588.34   32.70
   4  -4   5   77.69   17.80
  -4  -4  -5  117.89   17.70
   4  -4   5   91.49   17.90
  -4  -4  -5   85.39   18.30
  -4   4  -5  109.69   20.50
   4   4   5   72.89   18.70
  -4   4  -5   94.19   16.50
   4   4   5   94.79   17.50
   6  -4   5   50.39   13.60
   6  -4   5   18.00   31.30
   6  -4   5   79.79   17.60
  -6  -4  -5   47.40   19.40
  -6  -4  -5   65.09   17.10
   6   4   5   64.29   21.40
  -6   4  -5   84.19   17.20
   6   4   5   55.69   16.70
  -6   4  -5   57.19   18.90
   6   4   5   61.19   17.30
   8  -4   5    4.20   18.10
  -8  -4  -5  -14.90   18.50
  -8  -4  -5   21.60   22.00
  -8   4  -5   -6.40   18.80
  -8   4  -5   12.80   16.60
   8   4   5  -20.00   19.00
   8   4   5  -46.20   17.80
   8   4   5    1.40   20.80
 -10  -4  -5   26.70   23.30
 -10  -4  -5   35.00   25.50
  10  -4   5   24.40   23.20
  10   4   5   80.59   25.20
  10   4   5   72.09   27.40
 -10   4  -5  124.09   25.40
 -10   4  -5   81.19   25.10
  19  -5  -5   43.30   20.10
 -19  -5   5   12.80   19.70
 -19  -5   5   33.80   20.90
 -19  -5   5   30.60   17.70
 -19  -5   5   55.69   17.70
  19   5  -5   54.69   23.30
  19   5  -5   36.60   16.40
  19   5  -5   52.19   17.80
 -17  -5   5    8.10   15.50
 -17  -5   5   -9.30   14.10
 -17  -5   5   20.20   17.80
  17  -5  -5    1.50   15.50
 -17  -5   5  -14.90   13.50
  17   5  -5   22.30   13.30
  17   5  -5    9.00   15.40
  17   5  -5   20.60   17.80
 -15  -5   5  444.46   28.00
 -15  -5   5  474.45   32.40
 -15  -5   5  450.85   29.60
 -15  -5   5  429.66   28.70
  15  -5  -5  456.45   31.00
  15   5  -5  487.55   32.50
 -15   5   5  448.36   35.10
  15   5  -5  396.16   28.30
  15   5  -5  440.76   29.60
 -13  -5   5  520.35   32.60
 -13  -5   5  520.85   29.10
  13  -5  -5  552.24   31.60
 -13  -5   5  503.35   30.40
 -13   5   5  508.35   35.70
  13   5  -5  528.25   30.50
  13   5  -5  521.95   30.80
 -11  -5   5   93.39   12.70
 -11  -5   5   99.79   13.40
  11  -5  -5   68.59   14.40
 -11  -5   5   89.29   15.20
 -11  -5   5  105.39   12.40
 -11   5   5   80.39   13.60
  11   5  -5   90.29   13.60
  11   5  -5   73.39   14.40
  -9  -5   5   21.40   11.50
  -9  -5   5    6.60    6.90
  -9  -5   5   12.80    9.40
   9   5  -5   35.60    9.80
  -9   5   5   26.30    9.50
   9   5  -5   24.60    9.60
  -9   5   5   45.70   15.50
   9   5  -5   41.10   12.80
   9   5  -5   24.90   11.20
  -7  -5   5   22.20    7.20
  -7  -5   5    0.60   10.20
  -7  -5   5   14.60    8.70
  -7   5   5   16.30    7.60
   7   5  -5   17.30   11.40
   7   5  -5   20.00   10.10
   7   5  -5   18.40    8.50
  -7   5   5    3.70   15.40
  -5  -5   5 2428.96   92.99
  -5  -5   5 2241.58   92.29
  -5  -5   5 2489.15   91.89
   5   5  -5 2364.86   93.19
   5   5  -5 2462.45   93.09
   5   5  -5 2466.15   92.69
   5   5  -5 2270.77   94.39
  -3  -5   5 1398.56   57.19
  -3  -5   5 1339.87   56.99
   3  -5  -5 1393.66   59.89
   3   5  -5 1374.46   58.19
   3   5  -5 1341.97   58.99
   3   5  -5 1433.66   56.69
  -3   5   5 1519.15   58.39
  -3   5   5 1313.57   57.79
  -1  -5   5  161.28   15.60
   1  -5  -5  126.69   18.80
   1  -5  -5  152.88   15.40
  -1  -5   5  169.48   17.80
   1   5  -5  175.08   22.40
  -1   5   5  167.28   17.20
   1   5  -5  163.18   16.50
   1   5  -5  181.68   18.50
  -1   5   5  148.99   18.70
   1  -5   5  665.93   38.30
  -1  -5  -5  608.04   43.30
  -1  -5  -5  696.23   32.80
   1   5   5  707.23   36.00
  -1   5  -5  614.34   37.40
   1   5   5  642.44   35.30
  -1   5  -5  604.54   37.60
  -1   5  -5  713.33   34.00
  -3  -5  -5   28.50   12.60
   3  -5   5   10.20   13.30
  -3  -5  -5   22.80   15.70
   3  -5   5    8.00   14.50
   3   5   5   13.20   14.20
  -3   5  -5   17.90   17.30
  -3   5  -5   20.20   13.70
   3   5   5   15.50   15.70
  -5  -5  -5  223.88   21.20
   5  -5   5  292.77   28.90
   5   5   5  205.08   22.30
   5   5   5  245.28   26.10
  -5   5  -5  263.57   26.40
  -5   5  -5  250.77   32.10
   7  -5   5   -8.20   16.50
  -7  -5  -5    8.40   17.20
  -7  -5  -5   -7.90   19.90
   7   5   5   -9.50   19.20
   7   5   5   29.00   18.70
  -7   5  -5   19.20   16.30
   7   5   5   36.10   21.10
  -7   5  -5    6.80   19.80
  -9  -5  -5   46.30   21.10
  -9  -5  -5   58.89   24.30
   9  -5   5   44.70   20.00
  -9   5  -5   40.40   19.40
   9   5   5   51.99   20.60
  -9   5  -5   37.80   22.60
   9   5   5   39.10   24.40
   9   5   5   28.00   23.70
  20  -6  -5   75.49   26.10
 -20  -6   5   85.89   23.30
  20   6  -5   52.89   32.80
  18  -6  -5   54.69   18.70
 -18  -6   5   17.20   16.20
 -18  -6   5    7.80   18.80
 -18  -6   5    6.40   15.30
 -18  -6   5   -7.10   17.00
  18   6  -5    3.10   16.60
  18   6  -5   12.60   20.90
  18   6  -5   22.50   15.80
  16  -6  -5   71.79   17.10
 -16  -6   5   84.09   19.00
 -16  -6   5   25.60   15.70
 -16  -6   5   57.29   15.30
 -16  -6   5   64.79   15.50
  16   6  -5   51.79   13.90
  16   6  -5   51.09   16.20
 -14  -6   5  667.13   37.60
  14  -6  -5  577.94   36.20
 -14  -6   5  630.44   35.00
 -14  -6   5  612.14   35.60
 -14  -6   5  692.03   34.20
  14   6  -5  655.23   34.40
 -14   6   5  595.24   39.90
  14   6  -5  625.34   34.70
 -12  -6   5  152.68   18.70
 -12  -6   5  149.99   16.30
 -12  -6   5  152.78   17.10
 -12  -6   5  148.49   16.60
 -12  -6   5  130.29   16.50
  12  -6  -5  116.59   17.30
 -12   6   5  134.39   16.10
  12   6  -5  153.48   16.50
 -12   6   5  118.19   19.90
  12   6  -5  125.19   15.00
 -10  -6   5   18.20    8.00
 -10  -6   5   18.60   10.10
 -10  -6   5   32.30    9.90
 -10   6   5   27.90   11.60
  10   6  -5   22.90   11.50
  10   6  -5   22.80   10.40
  10   6  -5   17.30   12.90
 -10   6   5   17.90   19.00
  -8  -6   5   50.29   12.30
  -8  -6   5   59.29    8.90
  -8  -6   5   47.60   10.90
  -8   6   5   41.20   16.40
   8   6  -5   45.00   10.60
   8   6  -5   38.20   11.50
  -8   6   5   43.90   10.50
   8   6  -5   37.40   14.00
  -6  -6   5  623.74   28.00
  -6  -6   5  546.95   28.90
   6  -6  -5  555.44   28.60
  -6  -6   5  603.04   29.10
   6   6  -5  583.34   28.40
   6   6  -5  566.44   29.80
  -6   6   5  580.54   37.40
  -6   6   5  544.05   27.30
   6   6  -5  581.44   32.70
   4  -6  -5 2019.40   80.59
  -4  -6   5 2143.69   81.99
  -4  -6   5 1994.60   80.99
  -4  -6   5 2170.88   81.69
   4  -6  -5 1893.81   82.59
   4   6  -5 2159.08   81.59
   4   6  -5 2101.79   82.89
   4   6  -5 2133.69   84.19
   2  -6  -5  302.77   18.90
  -2  -6   5  277.17   20.40
  -2  -6   5  263.27   20.60
   2  -6  -5  220.58   26.10
  -2   6   5  258.37   22.80
   2   6  -5  288.17   23.90
   2   6  -5  285.97   19.60
   2   6  -5  287.27   24.00
  -2   6   5  271.37   20.40
   0  -6  -5  422.66   25.20
   0  -6   5  447.86   27.80
   0  -6  -5  424.36   24.10
   0   6  -5  395.26   30.10
   0   6   5  472.05   27.80
   0   6  -5  408.16   30.40
   0   6  -5  465.55   26.40
   0   6   5  442.06   28.20
  -2  -6  -5  511.25   34.20
  -2  -6  -5  547.95   29.20
   2  -6   5  580.04   35.20
   2   6   5  529.95   37.40
  -2   6  -5  480.55   35.10
  -2   6  -5  565.94   31.50
   2   6   5  524.65   32.00
  -2   6  -5  502.35   35.50
  -4  -6  -5   71.09   20.00
   4  -6   5   85.29   17.50
  -4  -6  -5  122.19   26.10
   4   6   5   55.69   17.20
   4   6   5   70.49   17.60
  -4   6  -5   83.39   18.50
  -4   6  -5   85.69   19.50
  -4   6  -5   79.59   20.50
  -6  -6  -5  124.59   19.80
   6  -6   5  189.38   20.90
  -6  -6  -5   96.59   21.80
   6   6   5  146.09   23.10
   6   6   5  186.78   23.50
   6   6   5  145.09   22.40
  -6   6  -5  146.09   20.70
  -6   6  -5  173.58   24.80
  -8  -6  -5   -2.70   19.60
   8  -6   5   25.60   18.60
  -8  -6  -5   53.29   23.20
  -8   6  -5   24.00   19.60
   8   6   5   17.60   19.60
  -8   6  -5   49.90   23.30
   8   6   5   66.79   23.70
   8   6   5   -1.00   23.40
  10  -6   5   65.19   23.10
 -10  -6  -5   54.79   25.90
  10   6   5   56.29   29.50
 -10   6  -5   89.79   27.90
  10   6   5   36.20   30.90
 -10   6  -5   78.29   24.30
 -19  -7   5   30.60   19.50
 -19  -7   5   44.70   20.60
 -19  -7   5   -6.60   21.30
  19  -7  -5   40.00   22.70
  19   7  -5   34.10   18.60
  19   7  -5   27.30   25.30
  17  -7  -5    0.60   18.00
 -17  -7   5  -11.00   16.00
 -17  -7   5    6.10   19.70
 -17  -7   5   21.60   16.10
 -17  -7   5   21.40   15.50
  17   7  -5   11.40   15.50
 -17   7   5   20.80   20.50
  17   7  -5   18.30   17.30
 -15  -7   5  162.88   19.10
  15  -7  -5  195.68   21.00
 -15  -7   5  170.88   20.60
 -15  -7   5  176.08   18.50
 -15  -7   5  169.88   19.30
  15   7  -5  199.28   23.10
 -15   7   5  172.48   24.50
 -15   7   5  198.58   23.20
  15   7  -5  126.99   18.80
 -13  -7   5  289.27   28.50
 -13  -7   5  228.78   24.10
 -13  -7   5  218.88   23.00
 -13  -7   5  277.87   22.80
 -13  -7   5  266.17   25.30
 -13   7   5  233.18   25.50
  13   7  -5  239.38   25.50
  13   7  -5  274.37   23.30
 -11  -7   5   35.30   13.50
 -11  -7   5    9.10   11.80
 -11  -7   5   10.50   10.60
 -11  -7   5   42.90   12.70
 -11   7   5   25.50   16.30
  11   7  -5   27.40   11.50
 -11   7   5   52.49   14.20
  11   7  -5   19.70   13.40
  -9  -7   5   14.40   10.80
  -9  -7   5   22.50    9.20
  -9  -7   5   -1.80   11.60
  -9   7   5   17.00   10.70
   9   7  -5   22.30   11.20
   9   7  -5   18.70   13.50
   9   7  -5   21.40   12.40
  -9   7   5    0.40   16.30
  -7  -7   5    3.30   11.10
  -7  -7   5    3.70   10.20
  -7  -7   5   17.80    8.30
   7   7  -5    3.00   12.90
   7   7  -5    3.60   10.20
   7   7  -5    2.50    9.60
  -7   7   5   11.80   10.40
   5  -7  -5 1336.97   56.29
  -5  -7   5 1425.96   57.19
  -5  -7   5 1274.47   56.09
  -5  -7   5 1395.16   56.49
   5   7  -5 1425.06   59.39
   5   7  -5 1371.16   57.79
   5   7  -5 1397.96   59.99
   5   7  -5 1416.46   56.89
   3  -7  -5  358.06   29.40
   3  -7  -5  397.16   23.00
  -3  -7   5  444.26   24.40
   3   7  -5  405.26   28.00
   3   7  -5  362.76   27.50
   3   7  -5  411.16   24.20
  -1  -7   5   64.29   11.70
   1  -7  -5   55.59   12.10
  -1   7   5   61.19   12.90
   1   7  -5   56.19   12.70
   1   7  -5   56.69   14.50
   1   7  -5   42.80   14.60
  -1   7   5   53.19   13.00
   1  -7   5  547.85   32.60
  -1  -7  -5  498.95   34.30
  -1  -7  -5  558.14   29.60
  -1   7  -5  558.54   30.90
   1   7   5  500.75   33.40
  -1   7  -5  530.05   34.90
  -1   7  -5  516.65   34.20
  -3  -7  -5   33.50   13.50
  -3  -7  -5   30.90   17.20
   3  -7   5   29.70   16.10
  -3   7  -5   24.70   17.20
   3   7   5   40.70   15.10
  -3   7  -5   25.20   17.20
   3   7   5   45.90   16.10
  -5  -7  -5  114.09   18.10
   5  -7   5   93.99   18.50
  -5  -7  -5   82.59   20.90
   5   7   5  137.39   21.30
  -5   7  -5  106.49   19.80
   5   7   5  145.39   21.30
   5   7   5   91.09   18.90
  -5   7  -5   98.89   21.20
  -5   7  -5  104.19   21.70
  -7  -7  -5    0.20   18.20
  -7  -7  -5   25.40   21.40
   7  -7   5   26.90   17.80
   7   7   5  -32.10   20.90
   7   7   5   18.20   19.90
  -7   7  -5   -3.70   21.60
   7   7   5  -30.90   21.80
  -7   7  -5   30.10   17.90
  -7   7  -5   38.10   21.00
  -9  -7  -5   32.10   22.60
   9  -7   5   38.50   19.70
  -9   7  -5   25.80   25.00
   9   7   5   10.40   27.30
   9   7   5    2.60   28.10
  -9   7  -5    4.70   21.30
 -18  -8   5  -29.30   28.70
  18  -8  -5   12.10   21.20
 -18  -8   5   -7.40   18.90
 -18  -8   5   33.50   19.20
 -18   8   5   21.50   24.20
  18   8  -5  -22.90   18.50
 -16  -8   5   -2.50   14.90
  16  -8  -5   19.00   17.30
 -16  -8   5    1.70   16.10
 -16  -8   5   18.90   16.00
 -16  -8   5    4.20   17.70
 -16  -8   5  -17.30   16.20
  16   8  -5  -12.00   15.40
 -16   8   5   40.60   22.70
  16   8  -5   -7.90   15.60
 -16   8   5   51.59   21.10
 -14  -8   5  236.38   22.80
 -14  -8   5  212.68   22.40
 -14  -8   5  223.28   25.70
 -14  -8   5  217.68   20.70
 -14  -8   5  224.48   23.50
  14   8  -5  218.18   23.80
  14   8  -5  181.18   19.70
 -14   8   5  183.18   22.40
 -14   8   5  162.88   25.10
 -12  -8   5  -16.70   13.60
 -12  -8   5  -15.30   13.80
 -12  -8   5   15.20   11.10
 -12  -8   5    5.90   11.50
 -12  -8   5    9.10   12.90
  12   8  -5   10.40   11.80
  12   8  -5    4.50   13.90
 -12   8   5    6.50   18.20
 -12   8   5   13.50   16.00
 -10  -8   5   91.09   15.50
 -10  -8   5   78.29   13.70
 -10  -8   5   96.19   14.50
 -10  -8   5   88.59   16.10
 -10   8   5   66.49   14.70
 -10   8   5   76.89   20.20
  10   8  -5   97.89   14.60
  10   8  -5   95.99   15.80
  -8  -8   5   92.09   13.70
  -8  -8   5   75.89   11.80
  -8  -8   5   84.79   13.10
   8   8  -5  101.99   17.40
   8   8  -5   81.49   14.10
  -8   8   5   82.39   19.40
  -8   8   5   81.59   14.10
  -6  -8   5  120.19   14.20
  -6  -8   5  100.49   13.40
  -6  -8   5  134.39   14.40
   6  -8  -5  104.29   15.60
  -6   8   5  128.69   21.10
  -6   8   5  105.79   13.70
   6   8  -5  120.59   16.90
   6   8  -5  117.39   14.30
  -4  -8   5  772.42   35.90
  -4  -8   5  751.62   36.40
   4  -8  -5  786.92   36.60
   4   8  -5  759.62   39.80
   4   8  -5  722.33   37.50
   4   8  -5  774.52   39.70
   4   8  -5  765.72   36.20
   2  -8  -5   -0.40   17.00
  -2  -8   5   32.20   11.50
   2  -8  -5   41.60   11.30
   2   8  -5   52.29   14.90
   2   8  -5   58.39   11.80
   2   8  -5   19.10   14.70
   0  -8  -5   61.69   16.90
   0  -8   5   95.99   13.50
   0  -8  -5   71.69   14.20
   0   8   5   91.99   16.50
   0   8  -5   82.79   17.90
   0   8   5   72.19   14.70
   0   8  -5  130.29   15.60
   0   8  -5  127.39   16.80
  -2  -8  -5  185.48   22.20
  -2  -8  -5  158.98   20.00
   2  -8   5  163.08   20.90
  -2   8  -5  182.98   23.20
   2   8   5  230.68   25.80
  -2   8  -5  199.58   24.10
  -2   8  -5  165.78   21.60
   2   8   5  191.18   20.00
  -4  -8  -5    5.90   18.50
   4  -8   5    1.10   16.80
  -4   8  -5    0.30   18.10
   4   8   5   30.30   17.30
   4   8   5   43.20   17.70
  -4   8  -5    7.30   16.40
  -4   8  -5   20.50   19.40
   4   8   5   -5.90   18.20
  -6  -8  -5   -9.30   16.50
  -6  -8  -5    3.20   20.20
   6  -8   5    5.30   15.60
   6   8   5   30.90   22.30
  -6   8  -5   16.40   17.80
  -6   8  -5   -8.20   21.10
   6   8   5  -19.20   18.70
  -6   8  -5  -12.40   21.70
   6   8   5   18.70   18.60
   8  -8   5   -5.10   20.30
  -8  -8  -5   30.00   20.50
  -8   8  -5    1.70   23.90
   8   8   5  -23.10   25.60
   8   8   5  -61.79   25.20
  -8   8  -5   -1.60   19.40
 -17  -9   5  -32.80   17.70
 -17  -9   5   -2.10   18.10
 -17  -9   5    2.50   19.90
 -17   9   5   -2.90   22.80
 -17   9   5  -62.29   23.80
  17   9  -5    5.00   18.70
 -15  -9   5   52.59   17.30
 -15  -9   5   44.10   15.10
 -15  -9   5   43.50   17.20
 -15  -9   5   43.70   19.40
 -15  -9   5   67.69   16.80
 -15   9   5   36.30   21.90
 -15   9   5   20.10   21.00
  15   9  -5   58.49   16.90
  15   9  -5   45.90   17.20
 -13  -9   5   92.59   15.70
 -13  -9   5  101.59   18.80
 -13  -9   5  102.19   15.40
 -13  -9   5  106.99   15.00
 -13  -9   5  112.09   17.30
 -13   9   5   87.89   19.60
  13   9  -5  109.99   19.50
 -13   9   5   69.79   22.40
  13   9  -5  104.89   16.60
 -11  -9   5   21.10   16.70
 -11  -9   5    9.70   13.70
 -11  -9   5   44.10   14.50
 -11  -9   5   39.50   12.60
  11   9  -5   24.60   13.30
 -11   9   5    4.10   19.00
  11   9  -5   31.70   15.80
 -11   9   5   20.40   15.70
  -9  -9   5    5.30   11.00
  -9  -9   5   -4.20   11.70
  -9  -9   5    0.10   13.80
  -9  -9   5  -10.10   11.30
  -9   9   5   -8.90   13.50
   9   9  -5  -15.30   12.90
   9   9  -5    2.50   12.10
  -9   9   5   17.90   17.70
  -7  -9   5   10.90   10.80
  -7  -9   5   18.90   12.10
  -7  -9   5   17.10   13.40
   7   9  -5    2.50   12.10
  -7   9   5   -4.00   12.70
   7   9  -5   13.60   11.90
  -7   9   5    4.10   18.30
   7   9  -5    1.20   14.10
  -5  -9   5  379.56   23.80
   5  -9  -5  336.37   24.70
   5   9  -5  392.26   25.90
   5   9  -5  352.36   29.70
   5   9  -5  424.76   28.50
   5   9  -5  339.97   25.00
  -3  -9   5  206.78   19.10
  -3  -9   5  164.18   20.30
   3  -9  -5  173.58   20.30
   3   9  -5  184.58   20.60
   3   9  -5  172.58   17.00
   3   9  -5  158.18   22.70
   3   9  -5  168.28   19.50
  -1  -9   5   17.80   10.70
   1  -9  -5   24.10   15.00
   1  -9  -5   38.70   13.10
  -1   9   5  -13.80   13.50
   1   9  -5   37.20   17.10
  -1   9   5   14.80   13.10
   1   9  -5   -1.70   15.00
   1   9  -5   18.20   13.00
  -1  -9  -5  166.78   29.60
   1  -9   5  201.48   25.10
  -1  -9  -5  178.38   21.70
  -1   9  -5  234.08   22.50
  -1   9  -5  209.48   24.90
   1   9   5  225.48   21.60
   1   9   5  197.88   20.80
   3  -9   5   33.80   16.90
  -3  -9  -5   75.29   16.40
  -3  -9  -5   45.70   19.40
  -3   9  -5   55.39   19.60
   3   9   5   11.10   17.30
  -3   9  -5   45.30   20.20
  -3   9  -5   23.10   15.50
   3   9   5   51.29   17.40
   3   9   5   39.00   17.50
   5  -9   5    4.50   17.80
  -5  -9  -5  -15.20   16.10
  -5  -9  -5   21.20   19.80
  -5  -9  -5   13.60   16.40
   5   9   5   -0.50   22.40
   5   9   5   52.29   21.20
  -5   9  -5   59.09   19.50
  -5   9  -5   48.80   21.90
   5   9   5   26.90   20.00
  -5   9  -5   -0.10   22.00
   7  -9   5   18.00   17.50
  -7  -9  -5   33.90   19.30
   7   9   5   -0.80   26.60
  -7   9  -5  -22.00   19.20
   7   9   5   21.40   24.50
  -7   9  -5   17.00   23.70
 -16 -10   5  -22.70   18.70
 -16 -10   5   11.10   17.30
 -16 -10   5   54.79   19.70
  16  10  -5    6.80   19.40
 -16  10   5    5.60   25.30
 -16  10   5    1.70   23.00
 -14 -10   5  192.28   20.20
 -14 -10   5  148.19   21.60
 -14 -10   5  137.29   20.20
 -14 -10   5  179.18   18.70
 -14 -10   5  212.18   22.10
  14  10  -5  145.99   20.50
 -14  10   5  156.08   26.70
 -14  10   5  121.09   24.10
  14  10  -5  187.58   21.00
 -12 -10   5   13.50   13.40
 -12 -10   5   21.50   16.30
 -12 -10   5   33.20   18.00
 -12 -10   5   10.80   15.10
 -12  10   5   23.60   18.20
  12  10  -5    9.40   15.10
  12  10  -5  -11.40   17.70
 -12  10   5   15.70   22.30
 -10 -10   5   10.70   11.60
 -10 -10   5  -11.60   13.10
 -10 -10   5    6.30   14.90
 -10 -10   5    1.00   13.20
  10  10  -5   19.80   16.90
 -10  10   5   23.80   16.50
  10  10  -5   13.40   12.80
 -10  10   5    4.60   20.20
  -8 -10   5   28.60   12.20
  -8 -10   5    0.40   14.10
  -8 -10   5   24.00   12.70
  -8 -10   5   26.70   11.50
   8  10  -5  -15.10   13.10
   8  10  -5   19.20   15.30
  -8  10   5   28.80   14.80
  -8  10   5   18.10   21.20
  -6 -10   5  206.98   20.90
  -6 -10   5  201.28   20.60
   6 -10  -5  179.68   23.60
   6  10  -5  194.38   21.60
   6  10  -5  224.08   22.30
   6  10  -5  183.98   18.90
  -6  10   5  183.58   25.60
  -4 -10   5  463.65   28.30
  -4 -10   5  440.96   25.80
   4 -10  -5  415.36   28.70
   4  10  -5  431.36   33.90
   4  10  -5  476.35   28.00
   4  10  -5  453.85   32.40
   4  10  -5  409.26   28.80
   2 -10  -5   27.30   14.60
  -2 -10   5   15.00   11.60
   2  10  -5   30.30   17.90
   2  10  -5   39.10   14.20
   2  10  -5   31.60   16.20
   0 -10  -5  113.69   18.70
   0 -10   5  169.28   20.90
   0 -10  -5  127.09   18.50
   0  10  -5  140.69   20.10
   0  10   5  125.89   17.50
   0  10  -5  110.39   20.60
   0  10   5  117.49   19.60
   0  10  -5  146.59   16.90
   2 -10   5  150.68   20.40
  -2 -10  -5  196.78   20.40
  -2 -10  -5  158.58   21.30
  -2  10  -5  195.58   25.70
  -2  10  -5  163.88   18.70
   2  10   5  193.68   20.50
   2  10   5  163.78   21.80
  -2  10  -5  176.68   22.40
   2  10   5  120.69   20.60
   4 -10   5   50.59   20.10
  -4 -10  -5   13.00   17.50
  -4 -10  -5   19.40   19.20
   4  10   5  -26.80   20.10
  -4  10  -5   21.50   17.70
   4  10   5   23.20   19.50
   4  10   5   30.80   20.80
  -4  10  -5   -1.60   23.50
  -6 -10  -5   38.10   19.80
  -6 -10  -5    5.90   17.70
   6 -10   5   53.99   18.90
   6  10   5   -1.50   26.20
  -6  10  -5   54.99   20.20
   6  10   5   -7.40   23.70
 -15 -11   5   94.49   19.20
 -15 -11   5   49.99   20.40
 -15 -11   5   58.29   21.30
 -15 -11   5  104.49   20.70
 -15  11   5  104.79   24.60
 -15  11   5   63.19   41.30
  15  11  -5  135.49   24.70
 -13 -11   5  107.79   21.00
 -13 -11   5  106.69   18.60
 -13 -11   5  127.39   21.00
 -13 -11   5  165.98   20.20
 -13  11   5  156.78   25.90
 -13  11   5  103.19   23.70
  13  11  -5  128.69   20.80
  13  11  -5  157.98   19.40
 -11 -11   5    7.90   15.70
 -11 -11   5   -9.00   15.30
 -11 -11   5    4.80   13.20
 -11 -11   5  -11.10   17.10
 -11  11   5  -16.00   19.00
 -11  11   5   24.00   26.00
  11  11  -5   16.70   15.10
  11  11  -5   36.60   19.10
  -9 -11   5   15.90   16.30
  -9 -11   5  -10.00   14.70
  -9 -11   5   -7.40   13.70
  -9 -11   5    6.20   12.20
   9  11  -5   10.40   16.30
  -9  11   5  -18.60   16.20
  -9  11   5   -2.10   23.50
   9  11  -5  -18.60   12.90
  -7 -11   5    5.20   12.40
  -7 -11   5   -3.90   12.40
  -7 -11   5   -1.80   15.10
   7  11  -5  -14.00   12.30
  -7  11   5    7.50   16.70
   7  11  -5  -20.00   14.30
  -7  11   5  -26.80   21.30
  -5 -11   5  382.66   25.30
   5 -11  -5  358.86   30.80
  -5 -11   5  381.26   26.50
   5  11  -5  404.86   27.20
   5  11  -5  360.46   33.60
   5  11  -5  415.96   29.30
   5  11  -5  374.66   32.40
  -5  11   5  346.47   38.60
  -3 -11   5  242.58   24.30
  -3 -11   5  272.87   21.90
   3 -11  -5  275.47   27.50
   3  11  -5  295.47   30.00
   3  11  -5  263.27   24.70
   3  11  -5  288.47   30.90
   3  11  -5  258.37   27.50
   1 -11  -5   60.79   19.20
   1 -11  -5   54.59   17.30
  -1 -11   5   43.80   12.90
   1  11  -5   74.09   14.80
   1  11  -5   57.79   18.80
  -1  11   5   44.00   17.30
   1  11  -5   76.49   21.10
  -1 -11  -5  110.09   18.60
   1 -11   5  101.29   17.20
  -1 -11  -5   72.09   20.70
  -1  11  -5   92.59   23.50
   1  11   5   78.49   20.40
  -1  11  -5   84.69   17.00
   1  11   5  118.79   20.40
   1  11   5   88.49   17.90
  -1  11  -5   95.09   19.90
  -3 -11  -5   33.60   20.90
  -3 -11  -5   20.60   17.20
   3 -11   5    8.50   18.60
   3  11   5    1.30   20.20
  -3  11  -5   18.00   18.20
   3  11   5   14.00   21.20
  -3  11  -5   21.50   23.50
   3  11   5  -20.20   18.70
  -5 -11  -5   51.39   20.90
   5  11   5    7.90   24.70
   5  11   5   48.50   24.00
  -5  11  -5   58.19   21.20
   5  11   5   12.90   25.80
 -12 -12   5    9.40   16.00
 -12 -12   5   19.40   19.20
 -12 -12   5   27.50   17.30
 -12  12   5  -10.30   22.60
 -12  12   5   19.80   24.70
  12  12  -5   25.30   18.20
 -10 -12   5   12.90   17.00
 -10 -12   5  -11.30   15.30
 -10 -12   5   21.50   16.30
 -10 -12   5    7.20   14.80
 -10  12   5  -14.60   23.50
  10  12  -5   10.50   18.60
  10  12  -5   -8.30   16.10
 -10  12   5    3.80   20.20
  -8 -12   5  -16.00   16.10
  -8 -12   5   -0.70   13.40
  -8 -12   5  -13.50   13.90
  -8  12   5   13.50   25.60
   8  12  -5   -6.70   18.90
  -8  12   5    8.20   18.60
   8  12  -5    3.90   15.00
   6 -12  -5   80.09   17.90
  -6 -12   5   97.09   15.90
  -6 -12   5   63.09   17.00
  -6 -12   5   80.29   14.50
   6  12  -5   67.19   18.90
  -6  12   5   49.20   26.50
   6  12  -5   83.69   15.20
  -4 -12   5  246.48   23.40
   4 -12  -5  292.37   28.60
  -4 -12   5  250.07   25.20
   4  12  -5  248.88   28.40
   4  12  -5  263.57   33.60
   4  12  -5  297.47   26.20
   4  12  -5  242.58   24.50
   2 -12  -5   38.60   17.90
  -2 -12   5   34.80   13.00
   2  12  -5   77.99   20.10
   2  12  -5   23.30   22.30
   2  12  -5   43.30   18.80
   2  12  -5   60.69   15.80
   0 -12  -5   57.69   19.20
   0 -12   5    2.30   14.70
   0 -12  -5   19.60   21.80
   0  12   5   49.30   17.00
   0  12   5   39.20   20.30
   0  12  -5   75.59   15.10
   0  12  -5    4.30   21.20
  -2 -12  -5   69.19   19.10
   2 -12   5   30.70   19.00
  -2 -12  -5   73.39   21.00
   2  12   5   56.89   20.20
   2  12   5   35.30   23.10
  -2  12  -5  112.09   40.00
  -2  12  -5   69.79   18.70
   2  12   5   82.49   21.30
  -4 -12  -5  -31.50   20.60
   4  12   5   11.90   24.50
  -4  12  -5  -13.60   20.70
   4  12   5  -19.70   24.90
   4  12   5   -2.20   24.70
 -11 -13   5   -1.40   17.00
 -11 -13   5   -1.20   18.10
  11  13  -5    7.40   19.90
 -11  13   5  -10.40   31.90
 -11  13   5  -13.50   22.00
  -9 -13   5  -12.90   15.40
  -9 -13   5    7.50   18.10
   9  13  -5  -27.30   19.10
  -9  13   5   16.10   25.80
   9  13  -5  -21.10   17.80
  -9  13   5  -26.20   21.90
  -7 -13   5   19.30   15.20
  -7 -13   5   11.50   13.50
  -7 -13   5    8.50   17.50
   7  13  -5   10.60   15.90
  -7  13   5   -9.40   24.40
   7  13  -5  -10.20   18.80
  -5 -13   5  131.59   16.50
  -5 -13   5  112.59   18.20
   5 -13  -5   99.39   19.80
  -5 -13   5   82.29   18.90
   5  13  -5  115.69   17.90
  -5  13   5  104.79   26.70
   5  13  -5  130.59   21.10
   3 -13  -5   19.30   18.00
  -3 -13   5   56.39   14.00
   3  13  -5   32.70   22.40
   3  13  -5   15.60   15.50
   3  13  -5    7.20   18.70
   3  13  -5   40.90   20.10
  -1 -13   5   28.30   14.40
   1 -13  -5   13.50   18.60
   1  13  -5    4.50   15.90
   1  13  -5   18.30   18.70
  -1 -13  -5   38.50   21.90
  -1 -13  -5   53.99   25.50
   1  13   5   59.59   21.80
  -1  13  -5   35.90   18.50
   1  13   5   79.59   23.50
  -8 -14   5    0.80   18.70
  -8 -14   5    9.90   20.00
   8  14  -5    7.00   25.50
   8  14  -5  -30.60   19.50
  -8  14   5   -8.70   23.10
  -6 -14   5    9.60   14.80
  -6 -14   5   45.90   19.30
   6  14  -5   34.20   18.10
   6  14  -5   28.90   20.60
  -4 -14   5   60.99   19.90
   4 -14  -5   53.19   21.50
  -4 -14   5   85.09   21.40
   4  14  -5   39.80   21.20
   4  14  -5   30.20   17.80
   2 -14  -5    1.20   22.60
   2  14  -5   -4.80   17.20
   2  14  -5   32.20   22.40
 -20   0   6   15.30   17.40
 -20   0   6   16.60   18.30
 -20   0   6   -3.00   16.60
 -20   0   6  -13.60   15.00
  20   0  -6    8.00   18.90
  18   0  -6   17.60   15.00
 -18   0   6   -3.90   15.50
 -18   0   6   -5.50   13.00
 -18   0   6   16.70   15.60
 -18   0   6  -21.30   12.30
 -16   0   6  189.48   19.30
 -16   0   6  196.38   18.20
 -16   0   6  190.28   24.80
 -16   0   6  171.08   21.50
  16   0  -6  191.88   23.30
 -14   0   6   27.90   13.50
 -14   0   6    4.70   10.40
 -14   0   6   26.40   12.40
  14   0  -6   23.20   12.70
 -14   0   6   31.10   10.70
  12   0  -6  375.36   22.10
 -12   0   6  367.46   24.80
  12   0  -6  346.87   20.40
 -12   0   6  374.06   20.80
 -12   0   6  374.76   22.60
  12   0  -6  364.66   25.30
  12   0  -6  372.06   23.80
 -10   0   6   56.49    8.90
 -10   0   6   73.69   12.90
 -10   0   6   71.49   10.20
 -10   0   6   88.29   13.70
  10   0  -6   61.49    9.20
  10   0  -6   61.09   12.30
  10   0  -6   68.09   11.90
  10   0  -6   57.59   10.60
  -8   0   6  456.65   27.60
   8   0  -6  471.85   27.60
  -8   0   6  522.95   29.20
  -8   0   6  552.04   26.00
   8   0  -6  505.55   25.50
   8   0  -6  447.36   25.80
   8   0  -6  547.65   25.90
   6   0  -6 1051.19   45.40
   6   0  -6 1070.49   47.40
  -6   0   6 1036.80   47.70
   6   0  -6 1074.99   45.40
  -6   0   6 1066.69   45.20
  -6   0   6 1050.89   47.40
   4   0  -6   -3.70   12.80
   4   0  -6    4.80    9.20
  -4   0   6   -6.50    9.10
  -4   0   6  -22.30   11.90
  -4   0   6  -13.60   14.30
   2   0  -6  247.88   26.50
  -2   0   6  292.07   26.60
  -2   0   6  231.88   23.90
   2   0  -6  268.07   20.80
   0   0  -6  342.97   30.30
   0   0   6  334.57   29.20
   0   0   6  282.57   28.70
   0   0  -6  323.17   24.00
  -2   0  -6  442.06   34.30
   2   0   6  432.86   37.30
   2   0   6  485.55   34.20
  -2   0  -6  481.35   30.80
   4   0   6  167.48   24.20
  -4   0  -6  178.48   23.10
   4   0   6  185.28   24.00
  -4   0  -6  184.58   20.30
  -6   0  -6   23.80   21.10
   6   0   6    1.40   20.50
  -6   0  -6   13.90   15.80
   6   0   6   24.50   19.10
  -8   0  -6  199.78   24.60
   8   0   6  111.89   26.80
   8   0   6  133.29   23.00
  -8   0  -6  123.19   26.70
   8   0   6  148.09   27.30
  10   0   6   63.19   28.80
 -10   0  -6   62.79   28.60
 -10   0  -6   53.59   26.50
  10   0   6    2.20   25.70
  10   0   6   56.59   23.20
 -21  -1   6   -2.50   18.20
 -21  -1   6    5.20   18.50
  21  -1  -6   13.50   21.40
 -21  -1   6   25.70   17.90
 -21  -1   6   15.60   21.00
 -21   1   6    4.40   19.90
  21   1  -6  -14.30   22.30
 -21   1   6   -8.60   18.90
 -21   1   6   22.40   18.00
 -21   1   6   13.40   16.70
  19  -1  -6   -0.80   15.80
 -19  -1   6  -18.00   17.10
 -19  -1   6   21.70   15.10
 -19  -1   6   -5.10   14.20
 -19  -1   6   -6.10   16.50
 -19   1   6  -11.40   16.00
  19   1  -6   -4.90   17.10
 -19   1   6   -0.90   15.00
 -19   1   6   24.10   16.20
 -19   1   6    0.40   14.10
 -17  -1   6   95.49   16.70
  17  -1  -6   68.79   15.50
 -17  -1   6   88.59   17.60
 -17  -1   6   89.79   14.90
 -17  -1   6   88.59   16.70
  17   1  -6   91.19   14.50
  17   1  -6   64.49   15.90
 -17   1   6  111.29   15.60
 -17   1   6   71.49   16.80
 -17   1   6   86.29   16.40
 -17   1   6   71.89   15.00
  17   1  -6  106.89   13.30
 -15  -1   6    8.90   14.00
  15  -1  -6   -4.40   12.40
 -15  -1   6   24.80   14.10
 -15  -1   6   15.10   12.50
  15   1  -6   -2.30   11.80
 -15   1   6   21.40   10.90
 -15   1   6   18.50   11.90
  15   1  -6   -3.70    9.80
 -15   1   6  -13.40   14.20
  15   1  -6   12.10    9.80
 -15   1   6   20.00   13.30
 -13  -1   6  431.86   23.60
 -13  -1   6  390.46   27.80
 -13  -1   6  403.66   25.70
  13  -1  -6  360.16   25.20
  13  -1  -6  372.46   25.80
 -13  -1   6  389.96   24.60
  13   1  -6  393.06   23.60
  13   1  -6  320.77   38.40
 -13   1   6  363.66   21.80
 -13   1   6  391.76   23.30
  13   1  -6  365.86   22.20
 -13   1   6  411.46   26.50
 -13   1   6  362.76   25.20
  13   1  -6  429.96   25.80
 -11  -1   6   39.40    9.60
  11  -1  -6   48.20   11.30
 -11  -1   6   40.70    8.70
 -11  -1   6   32.80   11.80
  11  -1  -6   33.10   12.00
 -11   1   6   47.90   10.10
  11   1  -6   38.90   10.90
  11   1  -6   40.80   13.10
 -11   1   6   43.80    8.60
  11   1  -6   32.90    9.40
 -11   1   6   37.40   12.40
 -11   1   6   50.19   14.70
  11   1  -6   58.79   11.10
  -9  -1   6  238.58   17.50
   9  -1  -6  204.98   19.70
  -9  -1   6  252.17   20.90
   9  -1  -6  208.88   16.90
   9  -1  -6  250.47   18.40
   9  -1  -6  236.18   17.40
  -9  -1   6  270.87   21.90
  -9   1   6  210.78   20.50
  -9   1   6  240.98   17.10
   9   1  -6  221.18   16.60
   9   1  -6  212.18   18.60
  -9   1   6  235.28   22.00
   9   1  -6  193.98   20.60
   9   1  -6  234.98   17.30
  -7  -1   6 2762.42  108.19
  -7  -1   6 2924.41  108.19
  -7  -1   6 2691.83  108.29
   7  -1  -6 2841.02  107.99
   7  -1  -6 2714.63  106.49
   7  -1  -6 2701.93  108.39
   7   1  -6 2723.93  107.49
   7   1  -6 2707.83  108.89
  -7   1   6 2852.81  109.29
  -7   1   6 2902.01  110.09
   7   1  -6 2938.31  106.99
   7   1  -6 2886.91  107.79
  -7   1   6 2801.92  107.79
  -5  -1   6  359.26   26.20
   5  -1  -6  353.16   21.80
   5  -1  -6  310.87   24.70
  -5  -1   6  357.46   21.20
  -5   1   6  311.37   26.60
  -5   1   6  323.87   29.30
  -5   1   6  330.17   22.40
   5   1  -6  366.66   21.60
   5   1  -6  323.77   25.40
   3  -1  -6    6.40   14.00
   3  -1  -6   -8.20    8.70
  -3  -1   6   13.90   11.40
  -3  -1   6   27.50   15.40
   3   1  -6    2.40    9.50
  -3   1   6   -5.90   14.50
   3   1  -6   15.90   15.10
  -3   1   6   -5.20   12.30
   1  -1  -6  209.38   22.50
  -1  -1   6  188.38   23.20
   1  -1  -6  203.38   19.60
  -1  -1   6  213.78   26.10
  -1   1   6  187.78   21.70
   1   1  -6  218.78   23.00
   1   1  -6  169.38   19.70
  -1   1   6  126.99   19.50
   1  -1   6   53.79   19.40
   1  -1   6  115.79   19.00
  -1  -1  -6  116.99   19.00
  -1  -1  -6  120.29   16.20
   1   1   6   76.59   20.80
  -1   1  -6  109.69   15.50
   1   1   6  110.89   18.20
  -1   1  -6   89.79   18.20
   3  -1   6  542.35   38.10
   3  -1   6  616.44   39.10
  -3  -1  -6  540.55   35.70
  -3  -1  -6  598.74   38.50
  -3   1  -6  644.64   36.20
   3   1   6  552.04   38.60
  -3   1  -6  669.53   34.60
   3   1   6  494.85   39.50
  -5  -1  -6   29.70   20.20
   5  -1   6   27.50   24.40
   5  -1   6   32.00   20.00
  -5  -1  -6   43.90   15.90
  -5   1  -6  -19.60   18.00
   5   1   6   49.40   18.50
  -5   1  -6   33.30   14.90
   5   1   6   31.30   19.30
  -7  -1  -6   50.39   24.10
   7  -1   6   60.29   22.00
   7  -1   6   52.69   17.70
  -7  -1  -6  100.39   20.70
   7  -1   6   57.59   22.90
   7   1   6   88.09   23.00
  -7   1  -6   64.19   19.20
   7   1   6   -1.70   20.20
   7   1   6   63.79   19.90
  -7   1  -6   34.00   22.80
   9  -1   6   83.59   21.10
  -9  -1  -6   98.29   28.50
   9  -1   6   83.49   27.20
   9  -1   6  108.09   27.90
  -9  -1  -6   94.39   23.70
  -9   1  -6  116.09   27.90
  -9   1  -6  110.89   22.50
   9   1   6   65.99   25.00
   9   1   6   94.59   23.60
   9   1   6   51.79   26.90
 -20  -2   6   14.40   16.40
 -20  -2   6    9.60   16.10
 -20  -2   6   17.30   16.90
  20  -2  -6   20.30   18.50
 -20  -2   6   -4.80   19.50
  20   2  -6   11.00   16.30
  20   2  -6  -23.70   14.10
 -20   2   6    9.70   17.90
 -20   2   6   25.20   19.20
 -20   2   6   21.10   15.30
 -20   2   6   37.20   14.50
  20   2  -6   32.90   21.10
 -18  -2   6   46.50   14.50
 -18  -2   6   35.90   16.60
 -18  -2   6   60.89   22.40
 -18  -2   6   53.89   13.90
  18  -2  -6   52.59   14.50
 -18   2   6   47.30   14.50
 -18   2   6   56.89   16.90
  18   2  -6   44.60   16.90
 -18   2   6   57.39   12.90
  18   2  -6   28.90   13.10
  18   2  -6   62.69   14.90
 -18   2   6   42.70   15.80
 -16  -2   6   94.69   15.40
  16  -2  -6   96.19   17.10
 -16  -2   6  113.29   16.90
 -16  -2   6   99.49   17.90
 -16  -2   6  109.79   15.20
  16   2  -6  121.09   14.30
 -16   2   6  100.49   16.10
  16   2  -6  124.29   18.20
  16   2  -6   73.59   15.00
 -16   2   6  101.29   14.20
 -16   2   6  102.09   14.10
 -16   2   6  107.79   22.60
 -14  -2   6  182.58   22.50
 -14  -2   6  219.08   25.00
 -14  -2   6  204.98   21.20
 -14   2   6  246.08   20.50
 -14   2   6  243.68   22.50
 -14   2   6  307.77   22.80
  14   2  -6  195.58   18.80
  14   2  -6  188.08   20.00
 -14   2   6  289.07   27.40
  14   2  -6  236.08   23.50
  12  -2  -6  465.15   28.20
 -12  -2   6  499.35   26.80
  12  -2  -6  454.15   26.20
 -12  -2   6  489.45   28.50
 -12  -2   6  474.75   25.40
 -12  -2   6  489.45   29.40
 -12   2   6  418.76   25.90
  12   2  -6  504.45   27.10
 -12   2   6  425.26   23.50
  12   2  -6  470.35   29.10
 -12   2   6  465.05   31.80
 -12   2   6  480.15   26.30
  12   2  -6  429.66   24.70
  12   2  -6  442.56   26.70
 -12   2   6  479.35   24.90
 -10  -2   6  109.49   13.80
  10  -2  -6  114.19   14.40
 -10  -2   6  113.79   12.20
  10  -2  -6  112.59   12.90
 -10  -2   6  113.79   12.90
 -10   2   6   87.69   13.40
  10   2  -6   92.89   12.20
  10   2  -6  108.89   14.50
  10   2  -6  126.39   14.00
 -10   2   6  109.79   12.40
  10   2  -6  118.49   16.40
 -10   2   6  108.09   13.80
 -10   2   6  112.29   17.20
  -8  -2   6 1862.41   72.39
   8  -2  -6 1714.43   71.79
  -8  -2   6 1758.02   72.69
   8   2  -6 1813.42   73.99
  -8   2   6 1843.72   75.59
   8   2  -6 1868.11   71.89
   8   2  -6 1723.33   71.89
   8   2  -6 1882.91   71.49
  -8   2   6 1809.22   73.19
  -8   2   6 1852.41   71.69
  -6  -2   6 2465.55   94.19
   6  -2  -6 2397.36   94.79
   6  -2  -6 2407.16   92.29
  -6  -2   6 2340.57   94.19
  -6   2   6 2272.77   96.49
  -6   2   6 2499.25   94.99
   6   2  -6 2361.96   95.39
  -6   2   6 2578.44   97.59
   6   2  -6 2444.16   93.69
   6   2  -6 2326.97   93.79
  -4  -2   6   26.90    9.00
   4  -2  -6    7.00   13.90
   4  -2  -6   10.60    8.30
  -4  -2   6    3.80   11.90
   4   2  -6   23.70   13.70
  -4   2   6    4.20   11.90
  -4   2   6   26.20   17.80
   4   2  -6   21.10    9.40
  -2  -2   6   22.50   12.60
   2  -2  -6   18.60   11.40
  -2  -2   6   28.00   14.20
   2  -2  -6   18.90   15.60
  -2   2   6   27.20   13.70
  -2   2   6   19.00   16.50
   2   2  -6   27.70   15.00
   2   2  -6   18.00   10.70
   2   2  -6   26.90   11.10
   0  -2   6   30.70   14.70
   0  -2  -6   20.40   11.70
   0  -2  -6   55.09   17.90
   0  -2   6    4.40   17.40
   0   2  -6   31.80   12.60
   0   2   6   -1.00   16.40
   0   2  -6   17.80   16.40
   0   2   6   19.90   14.10
  -2  -2  -6  955.60   46.50
  -2  -2  -6  954.30   50.39
   2  -2   6 1052.49   49.80
   2   2   6  772.62   49.00
  -2   2  -6 1060.69   46.20
  -2   2  -6 1072.59   49.99
   2   2   6  923.81   50.39
  -4  -2  -6  310.97   28.60
   4  -2   6  318.07   34.10
  -4  -2  -6  321.27   34.60
   4  -2   6  326.47   32.30
   4   2   6  278.17   34.00
  -4   2  -6  385.66   28.70
   4   2   6  407.16   33.30
  -4   2  -6  333.67   32.20
   6  -2   6   35.50   23.40
  -6  -2  -6    1.70   21.40
  -6  -2  -6  -29.90   16.70
   6  -2   6   -1.10   22.00
  -6   2  -6   19.90   16.10
   6   2   6   -9.80   19.80
  -6   2  -6   40.70   19.70
   6   2   6   19.70   19.90
  -8  -2  -6   92.39   21.80
   8  -2   6   70.19   22.60
  -8  -2  -6  112.79   28.10
   8  -2   6   74.49   24.90
   8  -2   6   69.39   19.40
  -8   2  -6   73.59   23.50
   8   2   6   89.69   22.00
   8   2   6  111.19   27.10
  -8   2  -6   89.39   20.60
   8   2   6   35.40   25.90
  10  -2   6    9.50   21.40
  10  -2   6  -21.30   27.00
 -10  -2  -6   -6.30   28.70
 -10   2  -6  -51.69   25.50
  10   2   6  -11.00   29.80
 -10   2  -6   10.10   25.20
  10   2   6   26.30   25.40
 -21  -3   6   26.40   22.60
  21  -3  -6   17.00   22.80
 -21  -3   6   58.19   20.30
 -21  -3   6    6.60   19.00
  21   3  -6   33.20   17.60
  21   3  -6   45.40   16.00
 -21   3   6   20.50   20.00
  21   3  -6    5.60   24.00
 -21   3   6   66.29   16.90
 -21   3   6   30.60   17.10
 -19  -3   6    7.40   16.20
 -19  -3   6  -23.20   17.90
 -19  -3   6   10.20   15.40
  19  -3  -6    0.00   16.90
 -19  -3   6  -13.40   13.80
 -19   3   6   28.30   13.30
  19   3  -6   11.60   14.50
 -19   3   6   11.70   16.50
  19   3  -6   -5.80   18.40
  19   3  -6   -2.80   13.20
 -19   3   6   -7.30   13.30
 -17  -3   6   90.49   15.40
  17  -3  -6   92.39   17.10
 -17  -3   6  102.29   17.80
 -17  -3   6   83.69   15.30
 -17  -3   6  120.19   19.30
  17   3  -6  114.09   17.70
 -17   3   6   71.49   15.90
  17   3  -6   96.39   15.10
 -17   3   6  104.59   17.40
  17   3  -6   89.89   14.30
 -15  -3   6   13.90   11.30
  15  -3  -6   31.30   12.80
 -15  -3   6   18.20   13.60
 -15  -3   6    6.10   14.40
 -15  -3   6   34.80   12.60
 -15   3   6   31.00   10.80
  15   3  -6   30.20   12.00
  15   3  -6   26.20   13.80
  15   3  -6   19.10   11.80
 -13  -3   6  555.74   30.40
  13  -3  -6  501.55   31.90
  13  -3  -6  484.55   27.90
 -13  -3   6  546.25   28.90
 -13  -3   6  593.94   33.50
 -13  -3   6  533.95   31.30
 -13   3   6  525.65   34.80
  13   3  -6  611.44   30.90
  13   3  -6  544.65   32.70
  13   3  -6  520.15   28.00
 -11  -3   6  536.65   26.90
 -11  -3   6  485.55   29.20
  11  -3  -6  462.05   27.00
 -11  -3   6  506.95   27.80
  11  -3  -6  451.45   28.40
  11   3  -6  511.65   28.50
  11   3  -6  556.64   26.40
 -11   3   6  508.35   32.40
  11   3  -6  499.85   31.20
  11   3  -6  534.15   27.50
 -11   3   6  523.95   27.00
  -9  -3   6  500.15   26.60
  -9  -3   6  487.75   28.40
   9  -3  -6  481.65   26.10
   9   3  -6  473.95   27.90
   9   3  -6  493.85   30.20
  -9   3   6  511.55   33.20
  -9   3   6  486.45   24.90
   9   3  -6  519.15   25.60
   9   3  -6  515.15   25.40
  -7  -3   6 1816.52   70.19
   7  -3  -6 1682.43   69.59
  -7  -3   6 1745.93   70.29
   7   3  -6 1690.43   71.49
   7   3  -6 1708.43   69.19
  -7   3   6 1630.64   72.39
   7   3  -6 1742.63   69.89
  -7   3   6 1882.51   74.39
   5  -3  -6  148.79   16.90
  -5  -3   6  144.29   16.30
  -5  -3   6  170.98   19.40
   5   3  -6  145.49   15.40
  -5   3   6  110.49   21.40
   5   3  -6  177.88   21.50
  -5   3   6  175.98   21.50
  -5   3   6  117.69   20.10
  -3  -3   6  134.39   17.10
   3  -3  -6  110.99   13.20
  -3  -3   6  140.69   17.20
   3  -3  -6  120.89   19.00
  -3   3   6  125.79   17.10
   3   3  -6  163.68   15.30
   3   3  -6  133.79   17.60
   3   3  -6  117.69   14.10
  -3   3   6  105.39   19.40
  -1  -3   6   30.90   14.10
   1  -3  -6    4.50   11.40
  -1  -3   6   36.20   16.00
   1  -3  -6   46.10   17.60
   1   3  -6   20.50   11.90
  -1   3   6   10.20   13.70
   1   3  -6   22.70   12.60
  -1   3   6   22.50   16.00
   1   3  -6    8.60   14.90
   1  -3   6  416.86   32.50
  -1  -3  -6  399.76   32.90
   1  -3   6  307.17   30.40
  -1  -3  -6  352.16   26.60
   1   3   6  345.57   31.60
  -1   3  -6  400.16   31.80
  -1   3  -6  373.66   26.90
   1   3   6  349.57   32.50
  -3  -3  -6  922.61   51.89
  -3  -3  -6  895.41   47.40
   3  -3   6 1107.49   51.59
   3  -3   6  926.31   49.70
  -3   3  -6 1047.40   51.29
   3   3   6  958.00   50.19
   3   3   6  982.40   50.99
  -3   3  -6 1046.20   47.10
   5  -3   6   36.60   20.80
  -5  -3  -6   27.40   21.00
  -5  -3  -6   49.40   16.90
   5  -3   6   29.90   17.50
   5   3   6   27.20   18.20
   5   3   6   35.80   18.40
  -5   3  -6   -1.60   18.50
  -5   3  -6   31.80   15.40
   7  -3   6    2.50   18.10
  -7  -3  -6   17.90   24.80
   7  -3   6   -0.40   22.10
   7  -3   6   43.10   21.50
  -7   3  -6   24.80   21.70
   7   3   6  -14.80   20.70
   7   3   6   13.60   22.90
  -7   3  -6    6.10   17.00
   7   3   6   -3.00   21.80
   9  -3   6   19.30   27.90
   9  -3   6   63.49   26.00
  -9  -3  -6   46.50   26.20
  -9  -3  -6   33.80   24.00
   9  -3   6   33.10   19.40
  -9   3  -6   36.10   23.00
   9   3   6   54.59   28.60
   9   3   6   52.59   25.20
  -9   3  -6   39.50   24.50
  20  -4  -6  -16.30   18.90
 -20  -4   6  -16.30   20.50
 -20  -4   6  -23.80   16.80
 -20  -4   6  -13.10   16.90
 -20   4   6    5.90   15.50
  20   4  -6  -20.00   15.30
  20   4  -6   22.00   18.70
 -20   4   6    8.40   18.30
  20   4  -6    0.20   20.10
 -18  -4   6   16.60   15.70
  18  -4  -6   19.30   16.30
 -18  -4   6   18.00   14.60
 -18  -4   6   31.40   18.40
 -18  -4   6   19.50   14.90
  18   4  -6   34.50   14.90
  18   4  -6   -6.30   12.90
  18   4  -6    3.00   17.40
  16  -4  -6   71.89   14.50
 -16  -4   6   58.09   13.60
 -16  -4   6   57.79   15.50
 -16  -4   6   62.49   16.30
 -16  -4   6   81.29   13.20
  16   4  -6   74.99   15.90
  16   4  -6   77.39   16.40
  16   4  -6   76.19   13.70
 -14  -4   6  105.49   15.40
  14  -4  -6  189.48   21.30
 -14  -4   6  127.19   16.00
 -14  -4   6  127.59   14.70
  14   4  -6  115.59   15.90
  14   4  -6   88.19   24.00
  14   4  -6  123.99   17.60
 -12  -4   6  286.07   21.20
 -12  -4   6  257.37   23.70
  12  -4  -6  260.17   24.30
 -12  -4   6  335.37   26.20
 -12  -4   6  283.37   22.70
 -12   4   6  309.47   28.90
  12   4  -6  298.07   21.30
  12   4  -6  300.57   24.30
  12   4  -6  297.67   22.00
  12   4  -6  259.87   34.30
 -10  -4   6   58.19   11.20
 -10  -4   6   55.89    9.00
 -10  -4   6   58.09   13.60
  10   4  -6   43.70    9.40
  10   4  -6   56.79   15.40
  10   4  -6   56.69   10.80
  10   4  -6   59.59   12.50
 -10   4   6   55.09   16.90
   8  -4  -6  900.81   40.80
  -8  -4   6  897.01   43.10
  -8  -4   6  956.30   42.70
  -8  -4   6 1028.70   39.70
  -8   4   6  967.20   48.80
   8   4  -6  944.01   42.90
   8   4  -6  956.90   44.90
   8   4  -6  971.60   41.80
  -6  -4   6  876.31   39.30
   6  -4  -6  820.02   39.70
  -6  -4   6  855.61   40.20
  -6  -4   6  912.01   36.50
   6   4  -6  841.72   40.30
   6   4  -6  887.51   38.30
  -6   4   6  744.13   44.50
   6   4  -6  870.41   42.20
   6   4  -6  836.62   37.20
  -6   4   6  808.82   41.90
  -6   4   6  927.61   46.60
  -4  -4   6   39.10   10.70
  -4  -4   6   46.30   13.60
   4  -4  -6   14.80   13.90
  -4   4   6   28.20   13.00
   4   4  -6   48.80   11.30
  -4   4   6   16.40   17.20
   4   4  -6   48.10   14.20
   4   4  -6   40.50   10.60
   2  -4  -6   12.60   15.30
  -2  -4   6   21.50   13.80
  -2  -4   6   27.30   10.50
   2  -4  -6    5.70    9.40
  -2   4   6    7.90   15.50
   2   4  -6    2.60   12.10
   2   4  -6   14.20   10.90
  -2   4   6    9.70   12.60
   2   4  -6   14.60   15.20
   0  -4  -6    3.20   16.10
   0  -4   6    2.50   15.50
   0  -4  -6   10.70   12.10
   0  -4   6    6.30   16.00
   0   4  -6   25.50   12.60
   0   4   6   11.00   14.90
   0   4  -6   -9.20   15.30
   0   4  -6    0.60   12.30
   0   4   6   18.20   17.40
  -2  -4  -6  499.05   30.50
   2  -4   6  539.55   35.20
   2  -4   6  438.76   33.70
  -2  -4  -6  433.16   35.40
  -2   4  -6  367.76   44.20
  -2   4  -6  423.96   36.30
   2   4   6  478.65   34.00
   2   4   6  396.26   34.30
  -4  -4  -6  126.39   20.10
  -4  -4  -6  130.69   22.70
   4  -4   6  144.39   19.70
   4  -4   6  130.19   20.70
   4   4   6  115.99   20.80
  -4   4  -6  166.18   22.80
   4   4   6  141.29   23.60
  -4   4  -6  142.39   17.60
   6  -4   6   15.40   21.80
   6  -4   6  -20.10   24.50
  -6  -4  -6   35.80   22.30
  -6  -4  -6    3.50   18.90
   6  -4   6   22.00   20.00
  -6   4  -6    7.90   25.30
   6   4   6  -17.30   18.90
   6   4   6   31.60   21.30
  -6   4  -6    9.30   16.80
   6   4   6  -10.10   20.60
   8  -4   6   77.39   24.10
  -8  -4  -6   21.70   22.30
   8  -4   6   84.09   19.70
  -8  -4  -6   26.60   25.10
   8   4   6   -2.80   23.90
   8   4   6   28.10   24.20
   8   4   6  116.49   27.30
  -8   4  -6   50.39   22.30
  -8   4  -6   74.79   20.00
 -19  -5   6   20.90   16.30
  19  -5  -6    1.90   18.80
 -19  -5   6   12.40   16.60
 -19  -5   6    2.00   20.90
 -19  -5   6   19.80   17.10
  19   5  -6   27.60   17.50
  19   5  -6  -13.80   14.50
  19   5  -6   30.70   19.60
 -17  -5   6   65.99   18.60
 -17  -5   6   66.79   16.70
  17  -5  -6   82.49   17.00
 -17  -5   6   57.59   15.20
 -17  -5   6   60.19   15.60
  17   5  -6  102.89   18.00
  17   5  -6   43.20   14.70
  17   5  -6   84.59   16.70
  15  -5  -6   44.60   14.20
 -15  -5   6   -3.10   13.10
 -15  -5   6  -12.10   11.10
 -15  -5   6  -20.50   14.70
 -15  -5   6   -1.30   11.40
  15   5  -6   -9.90   12.00
 -15   5   6   69.09   18.60
  15   5  -6   21.30   14.60
  15   5  -6   16.40   13.70
 -13  -5   6  211.68   23.40
  13  -5  -6  201.88   22.70
 -13  -5   6  199.28   23.20
 -13  -5   6  237.68   19.60
 -13  -5   6  251.57   26.10
 -13  -5   6  211.18   20.10
 -13   5   6  254.47   21.50
  13   5  -6  224.78   20.80
  13   5  -6  206.78   25.20
  13   5  -6  216.98   22.90
 -13   5   6  231.48   27.90
  13   5  -6  217.48   23.80
 -11  -5   6   18.50    9.50
 -11  -5   6   19.00    8.90
 -11  -5   6   13.20   10.20
 -11  -5   6    6.70   12.00
  11   5  -6    1.10   10.40
  11   5  -6    2.90   13.20
 -11   5   6   -1.70   15.90
  11   5  -6   15.90   12.00
  11   5  -6   12.20    9.40
  -9  -5   6   70.69   12.20
  -9  -5   6   82.89   14.00
  -9  -5   6  104.29   11.10
   9   5  -6   90.39   11.10
   9   5  -6   92.99   12.60
  -9   5   6   68.89   18.60
   9   5  -6  100.89   13.90
   9   5  -6   90.49   15.90
  -7  -5   6 1655.33   66.49
  -7  -5   6 1677.23   64.19
  -7  -5   6 1541.75   66.09
   7   5  -6 1631.84   68.59
  -7   5   6 1655.23   72.39
   7   5  -6 1649.63   65.89
   7   5  -6 1583.74   66.69
  -5  -5   6  352.36   19.90
  -5  -5   6  383.26   23.20
  -5  -5   6  384.76   25.00
  -5   5   6  322.37   30.50
  -5   5   6  305.87   24.40
   5   5  -6  355.06   23.30
   5   5  -6  361.06   27.60
   5   5  -6  355.16   22.80
   3  -5  -6    2.10   13.80
  -3  -5   6   15.20   10.20
  -3  -5   6    8.30   13.10
  -3   5   6    3.10   13.90
   3   5  -6   15.70   10.40
  -3   5   6   -0.40   11.70
   3   5  -6    5.20   12.20
   3   5  -6  -12.00   12.50
  -1  -5   6  156.78   17.00
   1  -5  -6  142.49   15.10
   1  -5  -6  119.09   19.90
  -1  -5   6  149.69   18.30
  -1   5   6  135.19   18.00
   1   5  -6  193.68   20.20
  -1   5   6  131.59   18.80
   1   5  -6  150.88   17.70
   1   5  -6  136.29   19.90
  -1  -5  -6   22.80   14.10
  -1  -5  -6   20.30   16.90
   1  -5   6    6.30   15.60
   1  -5   6   24.90   14.90
  -1   5  -6   19.20   15.50
   1   5   6    5.90   14.40
  -1   5  -6   30.10   13.90
  -1   5  -6   51.99   17.30
   1   5   6   38.60   14.90
  -3  -5  -6  342.07   28.10
   3  -5   6  369.56   30.90
  -3  -5  -6  300.17   33.80
   3  -5   6  259.87   41.30
  -3   5  -6  283.57   33.90
   3   5   6  292.37   33.10
   3   5   6  342.57   32.30
  -3   5  -6  349.07   28.00
  -5  -5  -6   30.20   16.20
   5  -5   6   35.10   17.80
  -5  -5  -6   41.20   22.30
  -5   5  -6   35.10   20.40
  -5   5  -6   60.29   16.60
   5   5   6   48.10   21.40
   5   5   6  -18.60   18.10
   7  -5   6   52.59   20.70
  -7  -5  -6   12.40   21.10
  -7  -5  -6   56.69   24.70
   7   5   6   91.69   26.00
   7   5   6   31.70   24.60
  -7   5  -6   22.80   18.00
  -7   5  -6   12.10   41.80
   7   5   6   42.40   21.20
  -9  -5  -6   77.19   29.50
   9  -5   6   85.19   25.10
  -9   5  -6  100.89   25.10
  -9   5  -6   -6.30   28.20
   9   5   6  160.68   37.20
   9   5   6   37.30   30.90
 -20  -6   6  -19.80   19.80
 -20  -6   6   15.90   21.60
  20  -6  -6  -39.90   22.50
 -20  -6   6    1.70   22.50
  20   6  -6  -18.40   17.90
  20   6  -6    8.50   24.60
 -18  -6   6   16.60   16.80
 -18  -6   6   -6.20   15.50
 -18  -6   6  -13.70   19.40
  18  -6  -6    9.70   17.80
 -18  -6   6    1.60   15.40
  18   6  -6   -6.00   14.50
  18   6  -6   -3.80   18.60
  18   6  -6    9.30   17.60
 -16  -6   6   99.29   16.20
 -16  -6   6   94.59   17.00
 -16  -6   6   77.69   16.10
  16  -6  -6  111.29   18.30
 -16  -6   6   77.79   18.60
  16   6  -6   73.39   14.70
 -16   6   6   72.79   17.60
 -16   6   6  107.29   22.30
  16   6  -6   87.09   17.70
  16   6  -6   99.59   19.10
 -14  -6   6   17.20   14.20
 -14  -6   6   15.30   15.00
 -14  -6   6   31.90   11.90
 -14  -6   6    8.40   13.40
 -14  -6   6  -14.00   14.60
 -14   6   6   41.00   19.60
  14   6  -6   13.50   12.80
 -14   6   6   57.89   15.50
  14   6  -6   21.00   13.80
 -12  -6   6  196.98   19.50
 -12  -6   6  211.08   24.00
 -12  -6   6  229.08   23.00
 -12  -6   6  187.28   19.30
 -12  -6   6  213.98   24.60
  12   6  -6  229.08   26.60
  12   6  -6  223.38   21.40
  12   6  -6  202.28   21.10
 -12   6   6  220.48   20.90
 -12   6   6  200.78   23.50
  12   6  -6  213.98   23.40
 -10  -6   6   37.70   11.80
 -10  -6   6   36.80   13.70
 -10  -6   6   52.49    9.80
  10   6  -6   54.99   10.40
  10   6  -6   54.19   12.30
  10   6  -6   42.50   14.00
 -10   6   6   66.19   18.90
  10   6  -6   58.59   16.40
  -8  -6   6  515.65   30.70
  -8  -6   6  581.54   27.20
  -8  -6   6  578.94   29.70
  -8   6   6  430.36   43.00
   8   6  -6  559.84   29.50
   8   6  -6  605.74   34.10
  -6  -6   6  788.92   39.00
  -6  -6   6  882.91   39.10
  -6  -6   6  859.11   37.00
   6   6  -6  839.92   38.60
   6   6  -6  855.81   40.20
   6   6  -6  806.22   38.20
  -6   6   6  711.63   60.19
   6   6  -6  823.22   41.10
  -4  -6   6   20.00    9.90
  -4  -6   6   10.40   11.80
   4  -6  -6   15.60   13.90
   4   6  -6   29.70   10.20
   4   6  -6   12.50   11.80
   4   6  -6   27.90   14.00
  -4   6   6   10.60   11.90
  -4   6   6   -5.70   14.30
   2  -6  -6   94.39   19.10
  -2  -6   6   91.49   13.60
  -2  -6   6   61.39   13.70
   2  -6  -6   87.89   11.60
  -2   6   6  104.99   17.40
   2   6  -6  102.59   16.20
   2   6  -6  107.79   15.20
  -2   6   6   83.89   15.80
   2   6  -6   99.19   16.50
   0  -6   6   41.10   15.80
   0  -6  -6   11.70   16.70
   0  -6  -6   24.40   11.70
   0   6   6   30.20   16.20
   0   6  -6   44.90   14.30
   0   6  -6   43.90   16.90
   0   6  -6   53.19   18.80
   0   6   6   37.10   16.10
  -2  -6  -6  377.06   28.20
   2  -6   6  394.56   31.90
  -2  -6  -6  355.36   33.30
  -2   6  -6  322.67   34.00
  -2   6  -6  345.77   29.00
   2   6   6  323.27   31.80
  -2   6  -6  321.07   29.70
   2   6   6  327.97   31.50
  -4  -6  -6  162.48   20.30
   4  -6   6  165.58   21.00
  -4  -6  -6  128.39   23.60
  -4   6  -6  165.18   21.70
   4   6   6  113.29   20.80
   4   6   6  135.49   23.00
  -4   6  -6  153.68   24.40
  -4   6  -6  179.78   20.70
  -6  -6  -6   -4.40   23.60
   6  -6   6   39.80   17.90
  -6  -6  -6   69.69   19.70
   6   6   6   36.50   22.20
  -6   6  -6    7.80   23.50
  -6   6  -6   25.00   18.10
   6   6   6   22.10   20.30
   6   6   6  -18.80   21.60
  -8  -6  -6  106.49   24.90
  -8   6  -6   98.69   23.20
   8   6   6    0.60   28.30
   8   6   6   70.89   31.50
  19  -7  -6  -18.30   21.20
 -19  -7   6   12.60   19.30
 -19  -7   6   13.70   19.80
 -19  -7   6    5.80   20.00
  19   7  -6    9.30   17.90
 -19   7   6   38.70   24.10
  19   7  -6  -17.10   22.30
  17  -7  -6   19.00   18.10
 -17  -7   6   24.10   16.00
 -17  -7   6   41.50   17.40
 -17  -7   6   37.20   15.70
 -17  -7   6   27.10   20.30
  17   7  -6   38.80   15.10
  17   7  -6   27.70   17.60
 -17   7   6   44.70   24.20
  17   7  -6   49.30   17.20
 -17   7   6   26.60   21.30
 -15  -7   6   15.00   15.60
 -15  -7   6  -17.50   15.30
 -15  -7   6    0.10   13.00
 -15  -7   6    2.80   13.90
 -15  -7   6    0.40   12.00
  15   7  -6   15.00   13.20
  15   7  -6   -0.20   15.10
 -15   7   6    3.00   17.00
  15   7  -6    6.30   15.40
 -15   7   6    8.30   19.80
 -13  -7   6  162.08   18.10
 -13  -7   6  148.99   17.80
 -13  -7   6  138.49   16.00
 -13  -7   6  155.78   20.10
 -13  -7   6  167.88   20.80
 -13   7   6  150.48   18.50
  13   7  -6  173.28   18.50
  13   7  -6  190.48   24.00
  13   7  -6  150.68   16.20
 -13   7   6  170.98   24.00
 -11  -7   6   94.89   14.30
 -11  -7   6   86.89   12.60
 -11  -7   6   85.99   15.00
 -11  -7   6   73.79   17.00
 -11   7   6   70.39   19.70
  11   7  -6   89.09   13.40
 -11   7   6   82.79   14.00
  11   7  -6   74.49   14.60
  11   7  -6   85.39   13.20
  11   7  -6   83.79   17.10
  -9  -7   6  242.98   18.40
  -9  -7   6  245.78   22.20
  -9  -7   6  213.98   20.70
   9   7  -6  228.88   23.40
   9   7  -6  191.28   20.50
   9   7  -6  205.68   26.20
  -9   7   6  183.98   24.90
  -7  -7   6  760.62   38.00
  -7  -7   6  840.72   38.30
  -7  -7   6  831.42   36.60
   7   7  -6  751.62   38.30
  -7   7   6  789.62   46.00
   7   7  -6  782.92   37.90
   7   7  -6  825.32   41.60
  -5  -7   6   74.29   11.60
  -5  -7   6   68.39   14.50
   5  -7  -6   61.59   11.50
  -5  -7   6   77.49   12.50
   5   7  -6   92.09   16.80
   5   7  -6   75.59   14.60
   5   7  -6   77.29   13.20
   5   7  -6   25.40   16.60
  -3  -7   6    7.20   10.50
  -3  -7   6    0.70   11.30
   3  -7  -6   14.90    9.50
   3  -7  -6   -8.70   15.10
  -3   7   6    8.40   14.20
  -3   7   6   15.20   12.70
   3   7  -6    1.60   14.60
   3   7  -6    6.70   11.60
   3   7  -6   15.20   13.20
   1  -7  -6   53.39   12.00
   1  -7  -6   39.30   18.80
  -1  -7   6   63.79   13.20
   1   7  -6   23.60   15.40
   1   7  -6   52.79   16.80
  -1   7   6   53.09   14.70
   1   7  -6   54.39   18.20
   1  -7   6  109.49   19.30
  -1  -7  -6  116.69   14.50
  -1  -7  -6   51.89   20.10
  -1  -7  -6  106.89   15.40
  -1   7  -6  106.49   20.20
  -1   7  -6  112.59   17.80
  -1   7  -6   85.49   20.20
   1   7   6   85.09   18.30
   1   7   6   86.19   19.50
  -3  -7  -6  259.67   28.70
   3  -7   6  272.27   30.70
  -3  -7  -6  278.57   33.50
   3   7   6  265.87   31.00
  -3   7  -6  262.47   24.90
   3   7   6  307.07   31.80
  -3   7  -6  264.47   33.90
  -3   7  -6  233.88   30.90
  -5  -7  -6   56.99   22.60
   5  -7   6   34.00   18.00
  -5  -7  -6   -1.80   18.20
   5   7   6   32.30   19.50
   5   7   6   38.70   21.80
  -5   7  -6   47.20   17.30
  -5   7  -6   -4.70   21.70
  -5   7  -6    7.70   22.30
   5   7   6   52.09   24.40
  -7  -7  -6   -5.90   22.00
   7  -7   6   13.40   19.70
  -7   7  -6   87.19   21.20
   7   7   6   41.80   28.10
  -7   7  -6   21.00   21.40
   7   7   6   -2.60   27.20
  -7   7  -6   49.30   25.50
 -18  -8   6   23.10   19.40
 -18  -8   6   36.90   20.20
 -18  -8   6   -6.30   17.40
 -18  -8   6   32.20   18.10
  18  -8  -6   -2.60   21.00
  18   8  -6   20.60   21.90
  18   8  -6   14.30   18.10
 -18   8   6    3.90   23.80
 -16  -8   6   -5.70   14.30
 -16  -8   6   38.50   17.30
 -16  -8   6   13.90   18.90
 -16  -8   6   11.20   14.40
 -16  -8   6   46.80   16.80
 -16   8   6   23.00   19.80
 -16   8   6   -8.60   21.30
  16   8  -6   27.20   15.70
  16   8  -6    2.20   15.30
  16   8  -6   40.30   17.10
 -14  -8   6   83.89   16.40
 -14  -8   6  141.19   16.60
 -14  -8   6   67.09   17.20
 -14  -8   6  116.19   14.90
 -14  -8   6   99.79   19.10
 -14   8   6  115.19   22.40
  14   8  -6   86.39   15.40
  14   8  -6   83.39   17.60
 -14   8   6   98.49   18.50
 -12  -8   6  164.98   18.70
 -12  -8   6  182.18   19.50
 -12  -8   6  149.99   18.20
 -12  -8   6  163.58   20.70
 -12   8   6  124.19   22.10
  12   8  -6  170.48   16.40
 -12   8   6  141.89   17.00
  12   8  -6  144.89   18.60
 -10  -8   6   46.30   14.90
 -10  -8   6   31.90   13.20
 -10  -8   6   20.00   12.80
 -10  -8   6    8.80   10.70
  10   8  -6   24.00   27.10
  10   8  -6   18.40   15.20
 -10   8   6   22.30   13.00
  10   8  -6   19.20   11.60
 -10   8   6   20.10   20.50
  -8  -8   6  413.96   25.60
  -8  -8   6  405.86   27.20
  -8  -8   6  426.36   26.80
   8   8  -6  420.76   26.00
  -8   8   6  451.65   36.40
   8   8  -6  432.76   28.70
   8   8  -6  420.46   32.10
  -8   8   6  448.56   25.80
   6  -8  -6  423.86   27.10
  -6  -8   6  402.76   27.20
  -6  -8   6  506.45   26.70
  -6  -8   6  484.15   27.40
   6   8  -6  471.95   32.80
  -6   8   6  456.55   37.30
   6   8  -6  466.75   28.20
   6   8  -6  456.15   28.70
  -4  -8   6   25.10   12.60
   4  -8  -6   18.20   11.60
  -4  -8   6    4.50   10.70
   4   8  -6   12.40   14.50
   4   8  -6   41.60   16.00
   2  -8  -6    5.40   17.40
   2  -8  -6   21.30   11.90
  -2  -8   6    4.40   10.90
  -2   8   6   17.60   15.50
   2   8  -6    9.40   12.90
  -2   8   6   15.30   14.00
   2   8  -6   44.20   18.00
   2   8  -6   43.80   15.90
   0  -8  -6   16.80   13.60
   0  -8   6   11.90   13.30
   0  -8  -6  -20.80   16.50
   0   8   6  -16.90   17.20
   0   8   6    4.30   15.20
   0   8  -6    9.80   15.00
   0   8  -6   26.80   14.10
   0   8  -6   -2.50   18.70
   2  -8   6  197.98   24.50
  -2  -8  -6  191.38   23.80
  -2  -8  -6  184.78   19.00
  -2  -8  -6  242.98   26.30
   2   8   6  261.37   29.30
  -2   8  -6  250.57   28.40
   2   8   6  209.68   22.50
  -2   8  -6  212.18   26.00
  -2   8  -6  218.58   25.30
  -4  -8  -6   90.49   17.90
  -4  -8  -6   73.69   22.90
   4  -8   6   64.79   18.00
  -4   8  -6   88.29   18.30
  -4   8  -6   65.69   23.40
   4   8   6   76.29   21.60
   4   8   6   87.69   23.90
   4   8   6   71.49   23.30
  -4   8  -6  103.59   24.40
  -6  -8  -6   25.40   20.40
   6  -8   6   22.50   18.70
   6   8   6   21.10   27.10
  -6   8  -6   13.70   21.40
  -6   8  -6  -12.90   18.40
   6   8   6   21.30   25.80
  -6   8  -6   -2.90   24.30
 -17  -9   6   60.99   17.10
 -17  -9   6   20.60   20.00
 -17  -9   6   63.59   19.10
 -17   9   6   21.60   22.80
  17   9  -6   16.60   18.90
 -15  -9   6   -8.00   16.90
 -15  -9   6   -2.00   13.80
 -15  -9   6  -15.30   13.90
 -15  -9   6    1.80   16.20
 -15  -9   6  -25.30   17.80
  15   9  -6   23.80   16.90
 -15   9   6    3.00   23.10
  15   9  -6    9.20   16.40
 -15   9   6   -2.30   20.30
 -13  -9   6  118.29   20.90
 -13  -9   6  169.28   17.10
 -13  -9   6  125.69   18.80
 -13  -9   6  180.08   19.30
 -13   9   6  158.08   23.80
 -13   9   6  141.29   19.90
  13   9  -6  143.29   18.50
  13   9  -6  142.59   21.10
 -11  -9   6  109.59   16.60
 -11  -9   6  113.99   18.10
 -11  -9   6   79.29   17.00
 -11  -9   6  103.69   15.00
 -11   9   6   59.89   29.50
  11   9  -6   75.89   15.20
 -11   9   6  105.69   24.60
  11   9  -6  110.59   18.30
  -9  -9   6  138.69   16.90
  -9  -9   6  126.99   15.00
  -9  -9   6  133.89   16.30
   9   9  -6  100.09   15.50
   9   9  -6  146.69   17.70
  -9   9   6  130.59   23.00
   9   9  -6  110.79   20.00
  -9   9   6  115.29   16.10
  -7  -9   6  452.75   28.00
  -7  -9   6  454.95   27.80
  -7  -9   6  468.15   27.10
   7   9  -6  491.05   28.20
  -7   9   6  428.56   40.10
   7   9  -6  433.56   33.80
   7   9  -6  436.66   29.50
  -5  -9   6   57.39   12.30
   5  -9  -6   55.39   13.20
  -5  -9   6   53.39   13.20
  -5  -9   6   60.39   12.70
   5   9  -6   49.40   16.90
   5   9  -6   48.50   12.90
   5   9  -6   72.29   15.80
   5   9  -6   59.09   17.30
  -3  -9   6    2.90   12.10
   3  -9  -6   20.40   13.20
   3  -9  -6   -9.60   16.50
   3   9  -6    8.90   15.20
   3   9  -6   34.90   17.60
  -3   9   6   13.30   15.10
   3   9  -6    8.00   12.10
   1  -9  -6   -0.30   18.60
   1  -9  -6   23.70   14.20
  -1  -9   6   11.60   12.10
   1   9  -6   18.40   18.70
  -1   9   6  -19.70   15.00
  -1   9   6   -4.40   15.80
   1   9  -6   -5.20   12.90
   1   9  -6   -8.10   17.00
  -1  -9  -6  108.19   21.20
  -1  -9  -6   81.39   17.40
   1  -9   6   95.39   18.70
  -1   9  -6   71.59   21.70
   1   9   6   87.79   19.20
   1   9   6  147.69   19.90
  -1   9  -6  152.88   19.30
  -1   9  -6   71.69   21.90
  -3  -9  -6  199.78   25.90
  -3  -9  -6  172.18   20.60
   3  -9   6  224.08   24.90
  -3   9  -6  200.68   26.80
  -3   9  -6  242.58   29.50
   3   9   6  223.58   27.20
  -3   9  -6  187.88   25.90
   3   9   6  244.28   26.60
   3   9   6  248.38   26.90
  -5  -9  -6  -10.50   18.40
   5  -9   6   17.70   18.20
  -5  -9  -6   36.50   19.70
  -5   9  -6   22.90   19.90
  -5   9  -6   16.80   22.60
   5   9   6  -11.40   25.10
  -5   9  -6   25.80   25.10
   5   9   6   30.50   22.00
   5   9   6   22.50   25.10
 -16 -10   6   19.10   17.10
 -16 -10   6  -10.10   18.30
 -16 -10   6   -4.20   17.10
 -16  10   6    3.90   23.50
  16  10  -6   53.09   20.50
 -14 -10   6  -25.30   16.90
 -14 -10   6   -9.70   16.40
 -14 -10   6   33.10   14.90
 -14 -10   6   -2.50   18.10
 -14  10   6   40.50   20.00
  14  10  -6   13.80   16.80
 -14  10   6    0.70   22.50
  14  10  -6   39.00   19.90
 -12 -10   6   60.09   17.70
 -12 -10   6   38.50   16.50
 -12 -10   6   73.69   14.70
 -12 -10   6   89.59   17.70
 -12  10   6   53.29   19.50
  12  10  -6   45.80   16.10
  12  10  -6   60.59   18.20
 -12  10   6   45.90   25.10
 -10 -10   6   48.90   13.00
 -10 -10   6   46.70   15.00
 -10 -10   6   32.80   17.50
  10  10  -6   56.09   15.00
 -10  10   6   52.59   16.50
  10  10  -6   59.59   18.10
 -10  10   6   36.10   24.50
  -8 -10   6  263.07   25.60
  -8 -10   6  270.27   23.10
  -8 -10   6  283.47   23.20
   8  10  -6  241.18   27.30
  -8  10   6  224.48   29.60
   8  10  -6  296.77   23.80
  -8  10   6  230.18   30.30
   8  10  -6  269.97   30.70
  -6 -10   6  184.48   20.90
   6 -10  -6  196.98   23.70
  -6 -10   6  218.58   22.30
   6  10  -6  207.48   20.80
   6  10  -6  190.68   22.40
   6  10  -6  200.28   23.00
  -6  10   6  175.18   26.60
   6  10  -6  195.68   22.10
   4 -10  -6   45.70   15.50
  -4 -10   6   -8.30   11.20
   4  10  -6   28.40   17.10
   4  10  -6   -4.20   17.20
   4  10  -6   14.20   15.70
   4  10  -6   25.80   14.30
   2 -10  -6   20.50   18.40
   2 -10  -6   24.60   19.40
  -2 -10   6    1.30   12.60
  -2  10   6   -3.40   17.70
   2  10  -6    3.50   19.40
   2  10  -6  -26.30   16.90
   2  10  -6    6.40   13.90
   0 -10  -6  -10.00   15.90
   0 -10   6    8.30   16.10
   0 -10  -6   10.30   20.60
   0  10  -6   -3.70   19.60
   0  10  -6   10.90   19.20
   0  10   6   -8.30   18.30
   0  10   6  -13.50   16.40
   0  10  -6  -14.10   15.30
   2 -10   6  103.29   20.80
  -2 -10  -6   71.79   23.70
  -2 -10  -6  129.29   20.00
  -2  10  -6  129.89   23.60
   2  10   6  146.59   23.60
   2  10   6  123.89   23.40
   2  10   6  137.39   23.80
  -2  10  -6  119.49   19.00
  -2  10  -6  115.69   25.50
  -4 -10  -6   47.40   18.80
   4 -10   6   55.89   20.60
  -4  10  -6   50.59   21.90
  -4  10  -6   90.09   24.40
   4  10   6   50.69   24.80
  -4  10  -6   75.89   27.40
   4  10   6   47.90   22.70
   4  10   6   51.79   25.90
 -15 -11   6   19.80   17.80
 -15 -11   6  -13.60   21.60
 -15 -11   6    4.00   18.60
 -15  11   6  -27.90   22.90
  15  11  -6   10.80   23.10
 -13 -11   6   30.30   15.20
 -13 -11   6   15.70   18.40
 -13 -11   6   55.39   18.20
 -13  11   6   -0.50   21.10
  13  11  -6   35.60   19.50
  13  11  -6   42.10   17.20
 -13  11   6   36.50   24.50
 -11 -11   6   18.30   16.80
 -11 -11   6   -3.30   17.00
 -11 -11   6   12.90   13.50
 -11 -11   6    3.10   15.80
 -11  11   6    0.70   18.60
  11  11  -6    7.60   17.40
 -11  11   6   24.50   23.80
  11  11  -6   11.40   15.80
  -9 -11   6   20.60   12.70
  -9 -11   6   49.80   16.80
  -9 -11   6   12.40   16.70
  -9  11   6    5.90   18.20
   9  11  -6   32.40   17.50
   9  11  -6   54.39   15.70
  -9  11   6   29.20   25.60
  -7 -11   6  235.28   23.60
  -7 -11   6  258.37   22.90
   7  11  -6  247.38   25.60
  -7  11   6  190.88   31.60
   7  11  -6  222.88   24.60
   7  11  -6  237.88   28.60
  -5 -11   6   67.19   14.50
   5 -11  -6   61.39   17.20
  -5 -11   6   42.00   13.80
   5  11  -6   52.49   18.90
   5  11  -6   57.09   19.20
   5  11  -6   39.00   16.20
   5  11  -6   57.09   15.00
   3 -11  -6   10.20   17.50
  -3 -11   6    1.90   13.50
   3  11  -6    6.80   18.60
   3  11  -6    4.70   19.70
   3  11  -6    6.20   18.80
   3  11  -6  -10.90   14.10
   1 -11  -6   14.40   17.10
  -1 -11   6    4.10   13.90
   1 -11  -6   13.90   21.90
  -1  11   6   39.20   19.90
   1  11  -6   10.10   15.40
  -1  11   6   30.40   16.10
   1  11  -6   35.90   20.50
   1  11  -6  -12.70   21.60
  -1 -11  -6   -8.90   17.90
   1 -11   6   29.60   18.30
  -1 -11  -6    1.40   21.90
  -1  11  -6   23.00   23.50
   1  11   6  -12.30   21.70
  -1  11  -6    2.80   16.50
   1  11   6   21.60   18.50
  -1  11  -6    9.00   21.60
   1  11   6   12.40   22.30
   3 -11   6   77.89   22.10
  -3 -11  -6   48.80   19.90
  -3  11  -6   84.79   22.70
   3  11   6   61.09   24.40
   3  11   6   38.10   23.10
   3  11   6   68.29   25.80
  -3  11  -6   69.99   25.50
 -12 -12   6   25.10   20.00
 -12 -12   6   46.10   17.30
 -12 -12   6   32.90   17.40
 -12  12   6   -1.80   21.40
 -12  12   6   30.90   42.80
  12  12  -6   12.30   19.00
 -10 -12   6  -14.90   13.90
 -10 -12   6   17.70   15.50
 -10 -12   6   43.80   19.40
 -10 -12   6   13.10   16.70
  10  12  -6   18.00   18.40
 -10  12   6   -9.90   19.60
  10  12  -6  -21.30   16.70
 -10  12   6   33.60   25.70
  -8 -12   6   44.80   18.00
  -8 -12   6   62.49   15.10
  -8 -12   6   23.10   14.70
   8  12  -6   36.90   16.70
  -8  12   6   31.00   25.90
   8  12  -6   81.29   19.70
  -6 -12   6   69.39   14.30
   6 -12  -6   75.59   18.60
  -6 -12   6   81.89   16.20
  -6  12   6   74.29   26.80
   6  12  -6   73.09   21.90
   6  12  -6  113.79   20.30
   6  12  -6   87.89   16.50
  -4 -12   6   28.70   13.30
   4 -12  -6  -21.50   17.50
   4  12  -6    4.60   21.40
   4  12  -6   11.90   15.20
   4  12  -6   30.60   22.40
   4  12  -6   24.40   19.10
  -2 -12   6    7.70   14.30
   2 -12  -6  -42.40   18.00
   2  12  -6   38.90   22.40
   2  12  -6    1.20   16.10
   2  12  -6   11.10   21.80
   2  12  -6   36.30   23.70
   0 -12  -6   27.70   23.40
   0 -12  -6   37.50   20.30
   0 -12   6   11.50   16.50
   0  12  -6   14.00   21.30
   0  12   6   -5.40   21.90
   0  12   6  -21.50   22.70
   0  12  -6   -5.00   23.10
   0  12  -6   -2.30   18.20
   0  12   6   37.80   19.70
  -2 -12  -6   31.50   21.20
   2  12   6   39.40   24.50
   2  12   6   39.60   25.10
   2  12   6   64.29   26.60
  -2  12  -6   16.00   21.90
 -11 -13   6   21.30   17.80
 -11 -13   6   35.80   18.70
  11  13  -6  -20.40   20.20
 -11  13   6  -32.00   22.80
  -9 -13   6   43.90   17.00
  -9 -13   6   37.70   16.90
   9  13  -6    8.80   21.10
   9  13  -6   37.40   18.30
  -7 -13   6   57.89   17.50
  -7 -13   6   60.09   16.60
   7  13  -6   58.99   18.50
   7  13  -6   56.09   19.90
   5 -13  -6    0.20   18.70
  -5 -13   6   10.40   16.50
  -5 -13   6   -4.10   14.20
   5  13  -6   15.50   19.00
   5  13  -6   -5.30   22.60
   5  13  -6  -16.00   16.50
  -3 -13   6    0.20   14.90
   3 -13  -6   18.10   20.80
   3  13  -6   42.30   23.70
   3  13  -6   -6.00   18.30
   3  13  -6   49.10   20.80
   1 -13  -6  -17.80   21.40
  -1  13   6    1.40   23.10
  -1  13   6   -8.00   20.60
   1  13  -6  -12.20   17.90
   1  13  -6  -11.50   23.50
 -22   0   7  -23.50   20.00
 -22   0   7  -11.70   19.80
 -22   0   7   -2.00   22.00
 -20   0   7   -5.00   18.20
  20   0  -7   -3.10   17.10
 -20   0   7   -3.60   18.10
 -20   0   7  -32.20   15.60
 -20   0   7   14.10   16.20
  18   0  -7   84.99   17.10
 -18   0   7   73.69   17.30
 -18   0   7   68.09   17.10
 -18   0   7   53.39   14.20
 -18   0   7   80.09   14.60
  16   0  -7   86.99   16.40
 -16   0   7   57.79   14.60
 -16   0   7   53.09   13.60
 -16   0   7   71.39   13.90
 -16   0   7   90.89   17.30
 -14   0   7  228.08   20.50
 -14   0   7  211.38   24.70
 -14   0   7  211.78   23.00
  14   0  -7  256.97   24.10
  14   0  -7  234.28   23.50
  14   0  -7  221.68   18.30
  12   0  -7  424.16   26.10
  12   0  -7  424.06   23.50
 -12   0   7  418.76   27.20
 -12   0   7  441.36   30.60
  12   0  -7  430.16   23.90
  12   0  -7  346.07   38.90
 -12   0   7  397.36   24.80
 -12   0   7  391.16   23.40
  10   0  -7   14.20   12.90
  10   0  -7   14.00    9.20
 -10   0   7    4.40   12.10
  10   0  -7    3.20   10.20
 -10   0   7   19.30    9.80
  10   0  -7   15.80    8.70
 -10   0   7   27.40   12.50
  -8   0   7  110.49   13.10
   8   0  -7  113.89   14.10
  -8   0   7  116.09   16.40
   8   0  -7  135.29   16.00
  -8   0   7  118.49   16.50
   8   0  -7  113.09   14.20
   6   0  -7   23.60   10.20
  -6   0   7   35.10   16.20
   6   0  -7   17.00   13.30
  -6   0   7   15.50   10.10
  -6   0   7   24.90   13.10
  -4   0   7  351.56   27.10
   4   0  -7  308.87   28.90
  -4   0   7  292.07   32.50
   4   0  -7  305.87   23.30
  -2   0   7  626.04   39.20
  -2   0   7  547.65   40.40
   2   0  -7  644.64   32.80
   2   0  -7  567.04   37.80
   0   0  -7  191.18   38.50
   0   0   7  246.48   29.60
   0   0  -7  196.98   23.00
   0   0   7  204.28   24.30
  -2   0  -7  102.39   19.60
  -2   0  -7  111.49   17.30
   2   0   7  138.09   21.80
   2   0   7   85.79   20.40
  -4   0  -7   28.70   16.70
   4   0   7   34.60   21.30
   4   0   7   34.10   19.50
  -4   0  -7    5.00   18.40
   6   0   7   13.90   23.00
  -6   0  -7  -24.90   21.50
  -6   0  -7   49.80   18.00
   6   0   7   47.30   22.10
   8   0   7   31.80   23.70
  -8   0  -7   -9.80   26.10
  -8   0  -7   33.20   24.20
   8   0   7   30.40   26.00
   8   0   7  -19.30   25.20
 -21  -1   7    8.90   18.40
 -21  -1   7   21.60   20.30
  21  -1  -7    6.70   21.00
 -21  -1   7    2.20   17.20
 -21  -1   7   -1.10   17.90
  21   1  -7   17.10   20.50
 -21   1   7   -1.00   17.80
 -21   1   7    9.70   17.20
 -21   1   7    6.60   19.10
 -21   1   7   21.10   17.70
 -19  -1   7   61.29   16.00
  19  -1  -7   35.30   17.40
 -19  -1   7   53.89   19.10
 -19  -1   7   18.00   17.20
 -19  -1   7   46.40   14.70
 -19   1   7   42.50   17.10
 -19   1   7   78.69   15.50
  19   1  -7   43.60   16.90
 -19   1   7   51.69   18.10
 -19   1   7   58.89   14.10
 -17  -1   7  172.58   19.60
 -17  -1   7  167.28   18.20
  17  -1  -7  161.58   18.60
 -17  -1   7  165.58   17.70
 -17  -1   7  190.18   21.70
 -17   1   7  151.38   19.10
 -17   1   7  152.28   17.00
  17   1  -7  200.38   19.40
  17   1  -7  143.89   16.30
 -17   1   7  176.08   17.40
  17   1  -7  172.68   23.00
 -17   1   7  183.88   20.00
  15  -1  -7   72.09   14.70
 -15  -1   7   53.59   12.30
  15  -1  -7   41.10   14.30
 -15  -1   7   38.40   14.10
 -15  -1   7   53.19   16.60
 -15  -1   7   60.09   11.80
  15   1  -7   57.39   15.30
  15   1  -7   47.00   14.60
  15   1  -7   49.80   11.40
 -15   1   7   30.90   14.50
 -15   1   7   49.30   11.50
 -15   1   7   46.30   12.20
  15   1  -7   41.00   12.40
 -13  -1   7  368.76   25.10
  13  -1  -7  399.06   26.50
  13  -1  -7  400.56   26.20
 -13  -1   7  373.96   23.10
 -13  -1   7  367.96   35.30
 -13   1   7  353.76   25.90
  13   1  -7  365.06   24.90
  13   1  -7  351.36   25.20
 -13   1   7  340.37   45.50
 -13   1   7  366.06   22.60
  13   1  -7  406.46   27.30
 -13   1   7  383.56   24.20
  13   1  -7  366.16   22.30
 -11  -1   7  335.97   25.10
 -11  -1   7  341.97   22.20
 -11  -1   7  324.77   27.10
  11  -1  -7  300.37   23.60
  11  -1  -7  319.97   22.80
  11   1  -7  345.57   23.60
  11   1  -7  298.07   21.90
  11   1  -7  355.16   20.90
 -11   1   7  360.96   21.90
 -11   1   7  319.67   27.10
  11   1  -7  310.07   25.10
 -11   1   7  324.67   24.10
  -9  -1   7   11.10   13.30
  -9  -1   7   18.10    9.60
  -9  -1   7    2.30   12.10
   9  -1  -7    1.40    8.90
   9  -1  -7   -0.40    9.70
   9  -1  -7   20.50   11.00
  -9   1   7   23.20   12.60
   9   1  -7    9.40   13.10
  -9   1   7   32.00    9.60
   9   1  -7    8.60    8.90
   9   1  -7   11.00   11.00
   9   1  -7   18.50    8.70
  -9   1   7    5.70   12.50
  -7  -1   7   14.30   10.00
   7  -1  -7   11.60   10.20
   7  -1  -7    1.00   13.30
  -7  -1   7   -9.30   11.80
   7  -1  -7   20.80   11.30
  -7  -1   7   -3.10   13.40
  -7   1   7    4.60   15.30
   7   1  -7   -1.90    9.10
  -7   1   7    9.50   10.20
   7   1  -7   18.10   12.40
  -7   1   7   22.20   15.00
   7   1  -7   10.20   12.60
  -5  -1   7  208.08   22.20
   5  -1  -7  195.58   19.60
  -5  -1   7  222.68   19.60
   5  -1  -7  202.58   21.20
  -5   1   7  204.98   27.40
  -5   1   7  188.88   23.10
   5   1  -7  239.28   23.40
   5   1  -7  219.68   19.80
  -5   1   7  167.38   23.00
   3  -1  -7  865.81   45.50
   3  -1  -7  959.00   41.10
  -3  -1   7  776.32   46.90
  -3  -1   7  855.61   43.70
   3   1  -7  864.91   41.50
  -3   1   7  850.01   47.90
   3   1  -7  746.63   46.00
  -3   1   7  883.11   46.70
  -1  -1   7  376.66   32.90
   1  -1  -7  415.06   26.60
  -1  -1   7  330.27   36.70
   1   1  -7  357.76   33.50
  -1   1   7  312.87   34.70
  -1   1   7  402.26   32.30
   1   1  -7  378.76   26.70
  -1  -1  -7   92.39   18.00
   1  -1   7   76.69   18.90
   1  -1   7  111.69   23.40
  -1  -1  -7  127.99   17.30
  -1   1  -7  109.49   15.80
  -1   1  -7   77.89   22.20
   1   1   7  106.59   22.50
  -3  -1  -7   98.99   21.10
   3  -1   7   93.99   23.20
   3  -1   7  132.99   21.30
  -3  -1  -7   64.29   16.90
   3   1   7   27.30   21.00
  -3   1  -7   95.29   17.20
  -3   1  -7   96.19   20.90
   3   1   7   53.79   18.90
  -5  -1  -7  -14.60   20.90
   5  -1   7   34.00   23.00
   5  -1   7   16.40   19.60
  -5  -1  -7   13.80   17.70
   5   1   7    4.40   19.30
  -5   1  -7   -8.80   19.60
   5   1   7   27.40   22.60
  -5   1  -7    1.90   17.70
   7  -1   7    3.80   20.40
  -7  -1  -7   24.70   21.40
   7  -1   7   23.20   25.30
   7  -1   7   71.49   23.80
  -7  -1  -7   13.80   24.60
  -7   1  -7   -0.50   23.60
   7   1   7  -16.20   23.50
   7   1   7   12.80   22.80
  -7   1  -7   20.20   20.40
   7   1   7   24.40   23.90
 -20  -2   7   -3.60   20.20
 -20  -2   7    2.30   16.50
  20  -2  -7   37.70   18.80
 -20  -2   7   -2.60   16.30
 -20  -2   7   20.90   15.60
 -20   2   7    5.10   14.80
 -20   2   7   33.30   14.80
 -20   2   7   -0.30   18.40
  20   2  -7   -5.10   16.30
 -20   2   7  -22.60   17.10
  20   2  -7   18.40   18.40
  20   2  -7    8.20   14.50
 -18  -2   7  116.49   16.80
 -18  -2   7  126.29   19.20
 -18  -2   7  140.89   25.70
 -18  -2   7  127.79   16.40
  18  -2  -7  124.59   18.20
  18   2  -7  130.89   16.40
 -18   2   7  145.09   15.00
  18   2  -7  127.39   19.20
  18   2  -7   87.79   16.20
 -18   2   7  161.08   17.10
 -18   2   7  144.99   19.00
 -18   2   7  156.48   19.10
 -16  -2   7  107.19   17.30
 -16  -2   7   57.69   13.80
 -16  -2   7   93.99   14.20
  16  -2  -7   54.79   15.10
 -16  -2   7  104.19   18.40
 -16   2   7   64.89   15.40
  16   2  -7   99.69   15.70
  16   2  -7   84.79   16.10
 -16   2   7   85.99   13.30
 -16   2   7   92.69   13.30
 -16   2   7   55.19   22.20
  16   2  -7   68.99   13.00
 -14  -2   7  153.28   17.30
 -14  -2   7  114.39   16.90
 -14  -2   7  135.29   15.80
  14  -2  -7  150.48   18.50
  14  -2  -7  107.59   14.90
 -14  -2   7  147.09   17.70
 -14   2   7  137.09   15.00
  14   2  -7  165.98   18.70
 -14   2   7  158.28   17.10
  14   2  -7  152.58   16.90
  14   2  -7  149.49   18.00
 -14   2   7  155.78   16.90
 -14   2   7  143.79   16.10
 -14   2   7  160.48   20.40
 -12  -2   7  637.54   30.70
 -12  -2   7  605.14   32.20
  12  -2  -7  583.54   32.50
  12  -2  -7  629.34   32.50
  12   2  -7  610.44   35.10
  12   2  -7  654.53   31.20
  12   2  -7  638.94   31.90
 -12   2   7  634.04   30.90
 -12   2   7  616.34   32.20
  12   2  -7  626.64   31.90
 -12   2   7  616.94   29.10
 -12   2   7  585.04   39.90
 -10  -2   7  199.98   21.90
 -10  -2   7  182.98   18.90
  10  -2  -7  174.78   20.60
  10   2  -7  189.18   17.10
 -10   2   7  166.28   20.30
 -10   2   7  238.68   18.20
  10   2  -7  188.78   19.10
 -10   2   7  231.68   21.70
  10   2  -7  168.98   20.30
  10   2  -7  201.38   17.70
  -8  -2   7    4.20    9.10
  -8  -2   7    3.60   12.00
   8  -2  -7    8.00   12.30
  -8   2   7   13.00   14.80
   8   2  -7   -7.50   12.20
   8   2  -7  -10.10   11.20
   8   2  -7    7.60    8.10
  -8   2   7   19.80   15.30
  -8   2   7    6.90    9.00
   8   2  -7    5.30    8.80
  -6  -2   7   16.00    9.30
  -6  -2   7   22.60   14.10
   6  -2  -7   -0.30    9.00
   6  -2  -7   13.60   15.10
   6   2  -7   16.50   10.00
  -6   2   7   18.80   14.50
   6   2  -7   10.00   13.60
  -6   2   7    8.00   15.20
  -6   2   7   -3.90   13.30
   4  -2  -7  571.94   29.40
  -4  -2   7  527.75   30.60
  -4  -2   7  485.65   35.20
   4  -2  -7  505.25   34.80
   4   2  -7  533.25   30.50
   4   2  -7  494.95   34.90
  -4   2   7  544.05   35.00
  -4   2   7  539.25   39.40
   2  -2  -7  764.62   37.20
  -2  -2   7  722.43   41.60
  -2  -2   7  678.53   43.70
  -2   2   7  765.62   45.60
   2   2  -7  665.03   42.30
   2   2  -7  646.04   35.40
  -2   2   7  796.22   42.10
   2   2  -7  755.72   37.40
   0  -2  -7  231.18   21.30
   0  -2   7  184.98   24.60
   0  -2   7  250.37   30.10
   0  -2  -7  211.38   23.40
   0   2   7  217.18   40.30
   0   2   7  237.78   26.50
   0   2  -7  175.78   29.90
   0   2  -7  248.18   26.00
  -2  -2  -7  138.39   19.20
  -2  -2  -7  134.89   21.50
   2  -2   7  145.49   21.80
   2  -2   7  149.88   23.30
  -2   2  -7  160.18   19.40
   2   2   7  180.78   25.10
   2   2   7  135.19   22.90
  -2   2  -7  137.89   22.00
   4  -2   7   71.69   22.30
  -4  -2  -7   50.09   21.90
   4  -2   7   78.29   21.10
  -4  -2  -7   47.90   16.60
  -4   2  -7   81.19   17.10
   4   2   7   88.69   20.20
  -4   2  -7   74.49   21.60
   4   2   7   35.50   22.20
   6  -2   7    1.30   21.10
  -6  -2  -7  -20.60   24.90
   6  -2   7   -8.40   25.00
  -6  -2  -7    2.00   19.40
  -6   2  -7  -12.50   22.40
  -6   2  -7    5.30   17.50
   6   2   7    7.50   23.40
   6   2   7   -3.70   22.10
  -8  -2  -7   30.40   25.20
  -8  -2  -7  -10.50   25.30
   8  -2   7   42.70   28.20
   8  -2   7   49.80   21.20
   8  -2   7   13.60   23.50
   8   2   7    8.80   25.50
  -8   2  -7   22.20   23.40
  -8   2  -7   -3.00   25.50
   8   2   7   31.40   30.80
 -21  -3   7  -23.90   19.00
 -21  -3   7   -2.30   22.00
  21  -3  -7  -21.00   20.60
 -21  -3   7  -26.80   18.70
  21   3  -7    4.50   23.00
 -21   3   7   26.60   20.40
 -21   3   7   10.40   17.00
  21   3  -7   20.20   15.90
 -21   3   7   12.40   15.80
  21   3  -7   27.50   17.60
 -21   3   7   47.50   20.10
 -19  -3   7   13.40   15.10
 -19  -3   7   20.30   19.70
 -19  -3   7   33.60   15.50
  19  -3  -7   27.70   16.10
 -19  -3   7   11.60   16.40
  19   3  -7  -30.40   16.70
 -19   3   7    8.10   14.70
  19   3  -7    6.10   13.40
  19   3  -7   13.20   14.50
 -19   3   7    9.10   16.60
 -17  -3   7   33.60   13.10
 -17  -3   7   45.20   16.90
 -17  -3   7   27.50   12.90
  17  -3  -7   54.09   14.70
 -17  -3   7   31.10   16.90
  17   3  -7   37.50   13.10
  17   3  -7   50.99   14.70
 -17   3   7   33.00   12.70
 -17   3   7   72.79   15.70
  17   3  -7   24.60   15.20
 -15  -3   7   78.39   16.80
 -15  -3   7   59.89   16.60
  15  -3  -7   69.99   15.80
 -15  -3   7   58.39   13.30
 -15  -3   7   83.79   13.70
 -15   3   7   62.29   15.40
 -15   3   7   86.19   15.20
  15   3  -7   43.30   19.80
 -15   3   7   56.59   11.40
  15   3  -7   78.09   16.80
  15   3  -7   67.99   14.60
  15   3  -7   98.09   19.50
 -15   3   7   97.49   20.20
 -13  -3   7  480.95   29.40
 -13  -3   7  370.86   36.30
 -13   3   7  431.46   24.40
  13   3  -7  529.75   28.40
 -13   3   7  445.56   34.00
  13   3  -7  470.95   28.50
  13   3  -7  484.75   27.00
  13   3  -7  490.15   31.10
 -13   3   7  467.25   26.20
 -11  -3   7  437.66   25.60
  11  -3  -7  384.26   24.90
  11   3  -7  401.96   24.60
 -11   3   7  432.96   26.10
  11   3  -7  396.46   36.00
 -11   3   7  408.56   24.10
  11   3  -7  384.86   24.40
 -11   3   7  384.86   33.30
  11   3  -7  387.86   27.30
   9  -3  -7   16.60   12.00
  -9  -3   7   23.90   10.80
  -9  -3   7   30.90   13.30
   9   3  -7   15.80   13.80
  -9   3   7   34.40   10.90
   9   3  -7   23.90    9.60
  -9   3   7   25.00   15.60
   9   3  -7   21.40   11.80
  -9   3   7    0.80   16.00
  -7  -3   7   29.00   10.40
  -7  -3   7   27.40   14.60
   7  -3  -7   49.99   13.70
   7   3  -7   27.90   13.00
  -7   3   7   57.59   17.70
   7   3  -7   35.50   10.60
   7   3  -7   25.20   13.60
  -7   3   7   57.09   15.00
  -7   3   7   23.40   16.20
  -5  -3   7  -18.90   14.50
  -5  -3   7    6.80    9.50
   5  -3  -7   -3.70   14.90
   5   3  -7    0.80   14.20
  -5   3   7    4.60   14.20
  -5   3   7   16.00   17.60
   5   3  -7   -7.20   10.50
  -3  -3   7  430.36   28.60
  -3  -3   7  385.96   32.00
   3  -3  -7  431.06   26.70
  -3   3   7  459.65   32.40
   3   3  -7  409.16   27.30
   3   3  -7  385.06   25.80
  -3   3   7  419.76   36.40
   3   3  -7  407.06   33.20
  -1  -3   7  391.76   34.00
  -1  -3   7  417.66   33.50
   1  -3  -7  489.65   29.40
   1  -3  -7  525.65   39.70
  -1   3   7  440.26   35.70
  -1   3   7  452.25   37.50
   1   3  -7  409.26   34.90
   1   3  -7  426.36   28.30
   1   3  -7  482.65   32.70
  -1  -3  -7  225.78   26.30
  -1  -3  -7  224.98   24.80
   1  -3   7  224.08   24.50
   1  -3   7  261.77   31.00
  -1   3  -7  206.88   20.50
   1   3   7  230.08   25.50
  -1   3  -7  242.88   26.50
   1   3   7  215.18   24.10
  -3  -3  -7  128.79   18.50
  -3  -3  -7  144.69   23.50
   3  -3   7  151.58   23.50
   3  -3   7  195.28   25.20
  -3   3  -7  197.58   24.90
   3   3   7  180.88   24.40
  -3   3  -7  211.68   23.80
   3   3   7  135.39   24.10
   5  -3   7   15.10   22.50
   5  -3   7   42.10   20.70
  -5  -3  -7   19.90   24.50
  -5  -3  -7   32.30   18.50
   5   3   7   41.90   22.80
  -5   3  -7   20.80   17.30
  -5   3  -7   43.40   23.20
   5   3   7   25.00   22.50
  -7  -3  -7   35.90   24.20
  -7  -3  -7   -4.40   25.60
   7  -3   7  -57.69   22.40
   7  -3   7   14.90   19.80
   7  -3   7  -13.60   28.40
   7   3   7   16.20   24.90
  -7   3  -7   38.60   21.20
  -7   3  -7   -8.80   23.60
   7   3   7  -13.40   27.50
 -20  -4   7  -16.60   16.70
 -20  -4   7  -27.80   17.10
 -20  -4   7    7.60   20.50
 -20  -4   7  -14.00   25.00
  20  -4  -7  -16.10   18.00
 -20   4   7   -0.80   18.80
  20   4  -7   -1.50   19.00
  20   4  -7  -24.40   14.50
 -20   4   7   20.30   15.60
  20   4  -7   14.60   21.40
  18  -4  -7   39.30   17.20
 -18  -4   7   81.99   20.40
 -18  -4   7   56.49   17.50
 -18  -4   7   65.19   16.00
 -18  -4   7   47.10   15.70
  18   4  -7   55.89   14.20
  18   4  -7   38.80   16.00
 -18   4   7   53.09   14.60
  18   4  -7   77.49   18.40
 -16  -4   7   36.10   15.90
 -16  -4   7   25.20   16.10
 -16  -4   7   11.50   12.80
 -16  -4   7   14.20   12.10
  16  -4  -7    7.20   13.60
  16   4  -7   34.90   15.40
  16   4  -7   19.60   14.70
  16   4  -7   42.70   12.30
 -16   4   7   39.90   19.80
 -14  -4   7   87.59   16.20
 -14  -4   7   73.99   13.70
 -14  -4   7   78.39   13.90
 -14  -4   7  100.99   12.00
  14  -4  -7   73.29   15.60
 -14  -4   7   76.69   15.40
  14   4  -7   74.69   14.90
 -14   4   7   87.49   18.80
  14   4  -7   82.19   15.70
  14   4  -7   75.19   12.90
  14   4  -7   94.69   17.20
 -12  -4   7  433.36   28.80
 -12  -4   7  487.65   28.70
 -12  -4   7  487.25   23.60
  12   4  -7  474.15   31.10
  12   4  -7  470.95   26.80
 -12   4   7  410.76   33.90
  12   4  -7  475.25   29.70
  12   4  -7  431.46   27.10
 -10  -4   7  119.09   16.20
 -10  -4   7  124.29   15.30
  10   4  -7  121.19   17.60
 -10   4   7  128.69   17.90
  10   4  -7  117.19   12.80
  10   4  -7  119.49   19.70
  10   4  -7  131.29   14.20
   8  -4  -7    1.80   11.40
  -8  -4   7   14.20   10.20
  -8  -4   7    6.50   13.40
  -8   4   7  -11.50   16.00
   8   4  -7   19.10   12.00
   8   4  -7   17.80   12.60
   8   4  -7   -3.40    9.00
  -8   4   7   20.50   14.10
  -8   4   7   24.10   17.10
  -6  -4   7   21.80   10.00
  -6  -4   7   23.40   14.10
   6  -4  -7    3.00   14.00
   6   4  -7    6.90    9.00
  -6   4   7   -1.00   14.50
  -6   4   7   19.40   18.80
   6   4  -7   13.80   13.60
  -6   4   7  -26.80   17.70
   6   4  -7    9.10    9.90
  -4  -4   7  190.08   19.50
  -4  -4   7  193.08   20.10
   4   4  -7  185.68   20.40
  -4   4   7  219.88   25.20
   4   4  -7  162.98   20.40
   4   4  -7  212.88   22.80
  -4   4   7  202.18   26.50
   2  -4  -7  420.46   26.00
   2  -4  -7  486.85   31.80
  -2  -4   7  390.16   29.40
  -2   4   7  464.55   34.50
   2   4  -7  392.66   27.40
   2   4  -7  402.26   29.50
   2   4  -7  363.86   33.20
   0  -4  -7  227.18   29.40
   0  -4   7  174.48   22.00
   0  -4  -7  200.38   24.30
   0  -4   7  156.48   21.70
   0   4   7  189.58   23.10
   0   4  -7  183.48   19.70
   0   4  -7  206.08   26.10
   0   4  -7  201.18   24.90
   0   4   7  173.08   24.10
   2  -4   7  151.48   22.80
  -2  -4  -7  163.48   19.30
  -2  -4  -7  141.19   23.10
   2  -4   7  233.18   29.90
  -2   4  -7  132.79   24.10
   2   4   7  170.48   23.10
   2   4   7  198.08   23.20
  -2   4  -7  202.18   20.20
  -4  -4  -7   65.09   18.70
   4  -4   7   91.59   23.90
  -4  -4  -7   56.89   23.40
   4   4   7   86.39   23.80
  -4   4  -7   71.69   16.90
   4   4   7   64.69   21.40
  -4   4  -7   71.39   23.10
   6  -4   7   -5.50   18.10
  -6  -4  -7   -7.50   25.80
   6  -4   7    8.20   21.10
  -6  -4  -7   19.00   21.20
   6  -4   7    7.80   25.80
   6   4   7  -22.10   25.30
   6   4   7   26.40   24.10
   6   4   7   30.90   22.50
  -6   4  -7   25.50   19.70
  -6   4  -7  -10.10   22.60
 -21  -5   7    0.10   22.90
 -21   5   7   11.30   18.10
  21   5  -7   39.30   25.00
  19  -5  -7   56.99   19.30
 -19  -5   7   57.89   18.10
 -19  -5   7   30.70   17.70
 -19  -5   7   25.50   16.30
 -19  -5   7   45.10   21.40
  19   5  -7   23.10   17.30
  19   5  -7   78.59   19.80
  19   5  -7   53.39   15.10
  17  -5  -7  134.09   18.50
 -17  -5   7  165.68   22.20
 -17  -5   7  123.99   19.40
 -17  -5   7  122.19   18.20
 -17  -5   7  146.89   17.60
 -17   5   7  131.79   24.80
  17   5  -7  153.98   19.60
  17   5  -7  141.39   17.10
  17   5  -7  139.39   18.30
 -15  -5   7   61.39   17.10
 -15  -5   7   43.30   11.40
  15  -5  -7   50.39   14.60
 -15  -5   7    3.20   14.30
 -15  -5   7   44.90   13.60
 -15  -5   7   66.39   13.10
 -15   5   7   27.20   17.90
  15   5  -7   53.79   13.30
  15   5  -7   49.10   15.40
  15   5  -7   71.09   15.60
 -13  -5   7  174.78   18.20
 -13  -5   7  182.58   17.40
 -13  -5   7  170.08   18.80
 -13  -5   7  183.18   18.40
  13   5  -7  241.48   21.70
  13   5  -7  184.18   20.00
  13   5  -7  195.98   22.80
 -13   5   7  128.19   21.00
  13   5  -7  183.68   20.60
 -11  -5   7  187.18   21.10
 -11  -5   7  196.18   22.30
 -11  -5   7  163.48   16.20
 -11   5   7  203.88   24.10
  11   5  -7  198.88   22.70
  11   5  -7  205.18   18.60
  11   5  -7  196.98   25.20
  -9  -5   7   33.50   13.50
  -9  -5   7   -2.90   10.70
  -9  -5   7  -10.60    7.40
   9   5  -7    5.80   14.00
  -9   5   7  -11.40   18.70
   9   5  -7   15.80   12.60
   9   5  -7   -2.90   10.40
  -7  -5   7   44.00   11.50
  -7  -5   7   57.59    9.30
   7  -5  -7   27.10   12.50
   7   5  -7   32.10   12.10
   7   5  -7   42.40   15.20
  -7   5   7   48.10   15.10
   7   5  -7   15.60   12.40
  -5  -5   7  199.08   19.90
  -5  -5   7  216.78   20.70
  -5   5   7  210.68   24.40
   5   5  -7  182.98   20.90
   5   5  -7  227.48   22.80
  -5   5   7  194.28   21.30
   5   5  -7  192.58   20.90
   3  -5  -7  565.14   34.90
  -3  -5   7  530.95   46.00
  -3  -5   7  544.55   30.70
   3   5  -7  578.74   38.20
  -3   5   7  517.55   37.40
   3   5  -7  538.15   33.80
  -3   5   7  513.25   35.60
   3   5  -7  533.05   31.70
   1  -5  -7  241.88   23.50
  -1  -5   7  216.28   27.20
  -1  -5   7  232.18   22.60
   1  -5  -7  230.58   22.50
  -1   5   7  266.57   26.10
   1   5  -7  247.98   26.20
  -1   5   7  199.38   23.00
   1   5  -7  204.78   25.30
   1   5  -7  213.38   24.90
   1  -5   7  107.69   20.10
   1  -5   7   47.80   19.70
  -1  -5  -7   29.10   19.00
  -1  -5  -7   13.40   20.90
   1   5   7   15.70   19.80
   1   5   7   41.00   17.70
  -1   5  -7   62.89   17.40
  -1   5  -7   37.80   16.00
  -1   5  -7   38.80   21.10
  -3  -5  -7   56.89   22.70
   3  -5   7    5.30   21.60
  -3  -5  -7    4.40   17.50
   3  -5   7   79.59   19.70
  -3   5  -7   26.70   22.60
   3   5   7   29.80   21.60
  -3   5  -7   30.90   15.60
  -3   5  -7   17.20   17.30
   3   5   7    6.60   20.00
  -5  -5  -7   -4.30   24.00
   5  -5   7   39.50   24.50
  -5  -5  -7  -16.70   18.90
   5  -5   7   34.50   20.00
   5   5   7  -13.80   24.30
   5   5   7   44.90   22.20
  -5   5  -7  -56.39   21.30
  -5   5  -7   39.90   18.20
  -7  -5  -7   -4.60   23.60
   7  -5   7   30.60   23.00
   7   5   7   10.00   30.70
   7   5   7   42.30   32.70
  -7   5  -7   20.00   25.10
  -7   5  -7   46.00   22.70
  20  -6  -7   27.80   23.00
 -20  -6   7    1.50   21.70
 -20  -6   7   -3.20   19.70
 -20  -6   7  -30.40   20.30
  20   6  -7   -6.90   22.20
  20   6  -7   -7.80   17.50
 -18  -6   7   74.19   16.40
 -18  -6   7   70.69   18.20
  18  -6  -7   67.89   19.80
 -18  -6   7   82.19   21.70
 -18  -6   7  105.79   18.20
 -18   6   7   81.49   20.10
  18   6  -7   81.49   19.50
  18   6  -7   61.99   19.30
 -18   6   7   75.69   26.30
  18   6  -7   98.69   17.20
 -16  -6   7   79.19   21.10
 -16  -6   7   55.29   14.20
  16  -6  -7   97.49   17.60
 -16  -6   7   93.89   17.30
 -16  -6   7  109.89   18.40
 -16  -6   7  105.29   15.40
 -16   6   7  100.99   19.10
  16   6  -7   89.69   17.70
  16   6  -7  115.09   16.70
 -16   6   7   92.29   23.50
  16   6  -7  101.09   17.20
 -14  -6   7  186.08   17.30
 -14  -6   7  167.18   18.80
 -14  -6   7  165.68   20.70
 -14  -6   7  179.18   18.50
 -14  -6   7  203.78   20.80
  14   6  -7  161.18   16.70
  14   6  -7  166.48   22.10
 -14   6   7  169.78   17.60
 -14   6   7  130.49   22.10
  14   6  -7  172.88   18.90
  14   6  -7  185.28   19.30
 -12  -6   7  249.97   19.60
 -12  -6   7  266.27   24.80
 -12  -6   7  245.28   23.30
  12   6  -7  271.17   22.10
  12   6  -7  271.37   28.60
  12   6  -7  278.57   21.20
 -12   6   7  218.48   26.10
  12   6  -7  274.87   25.60
 -10  -6   7    3.30   11.60
 -10  -6   7   22.90   13.70
 -10  -6   7   -0.70    8.40
  10   6  -7    3.20   11.00
 -10   6   7  -15.20   19.60
  10   6  -7   -8.80   12.40
  -8  -6   7   58.59   14.80
  -8  -6   7  104.29   11.20
  -8  -6   7   80.79   13.80
   8   6  -7   77.89   16.40
  -8   6   7   97.99   21.90
   8   6  -7   88.89   15.20
  -6  -6   7  102.69   19.70
  -6  -6   7  102.59   14.00
   6   6  -7   97.89   16.40
  -6   6   7  110.59   16.30
  -6   6   7  101.29   22.30
  -6   6   7   44.30   21.10
   6   6  -7  100.29   15.30
   6   6  -7   94.89   18.40
  -4  -6   7  376.16   24.70
   4  -6  -7  327.07   28.30
   4   6  -7  348.17   30.50
   4   6  -7  307.77   32.00
  -4   6   7  332.17   29.40
  -4   6   7  306.27   32.50
   4   6  -7  323.97   27.80
  -2  -6   7  438.06   35.10
  -2  -6   7  448.46   29.00
   2  -6  -7  412.26   32.80
   2   6  -7  404.66   30.70
  -2   6   7  380.06   33.70
  -2   6   7  417.86   32.10
   2   6  -7  436.56   36.00
   2   6  -7  468.45   29.30
   0  -6  -7   88.79   20.40
   0  -6   7   91.09   18.80
   0  -6  -7  100.79   15.60
   0  -6   7  101.49   18.30
   0   6  -7   97.69   18.10
   0   6   7  104.49   20.60
   0   6  -7  116.39   20.70
   0   6   7   97.29   19.30
   0   6  -7  125.49   18.50
   2  -6   7   39.30   18.40
  -2  -6  -7   10.90   21.40
  -2  -6  -7   12.00   15.80
   2  -6   7   39.20   18.40
  -2   6  -7   36.30   19.60
   2   6   7    1.80   19.90
  -2   6  -7   10.40   16.20
   2   6   7   33.40   19.90
  -2   6  -7   20.00   20.50
  -4  -6  -7   14.50   19.00
  -4  -6  -7  -17.60   23.60
   4  -6   7   -4.00   19.40
   4   6   7  -24.20   23.60
  -4   6  -7   16.60   17.20
   4   6   7   23.30   21.90
  -4   6  -7   26.90   21.00
  -6  -6  -7   -0.50   23.50
   6  -6   7   25.80   21.40
  -6   6  -7   36.50   20.10
   6   6   7   40.50   30.20
   6   6   7  -28.60   26.20
  -6   6  -7    7.00   25.20
  -6   6  -7    8.70   20.90
  19  -7  -7   -9.90   21.90
 -19  -7   7   17.80   18.60
 -19  -7   7   26.10   18.00
 -19  -7   7   13.80   19.80
 -19  -7   7  -17.20   19.60
  19   7  -7   40.30   22.40
 -19   7   7  -23.10   20.90
  19   7  -7    5.10   17.80
 -17  -7   7   38.30   17.10
 -17  -7   7   50.99   21.30
 -17  -7   7   68.59   17.60
 -17  -7   7   45.90   15.50
 -17  -7   7   58.19   15.10
  17   7  -7   59.99   16.10
 -17   7   7   35.20   18.50
  17   7  -7   61.69   17.80
  17   7  -7   73.99   18.40
 -17   7   7   48.90   23.40
 -15  -7   7   33.30   13.10
 -15  -7   7    5.60   17.80
 -15  -7   7    6.30   16.40
 -15  -7   7   26.10   12.40
 -15  -7   7    8.10   13.30
  15   7  -7   47.40   15.40
  15   7  -7   25.80   13.00
 -15   7   7   30.20   16.40
  15   7  -7   51.09   16.70
 -15   7   7   27.70   21.00
 -13  -7   7  188.98   21.30
 -13  -7   7  203.78   24.10
 -13  -7   7  218.48   21.10
 -13  -7   7  185.78   18.90
  13   7  -7  189.48   22.50
  13   7  -7  218.28   23.20
  13   7  -7  175.38   19.00
  13   7  -7  198.78   21.00
 -13   7   7  185.18   24.50
 -11  -7   7  140.19   18.00
 -11  -7   7  193.88   23.70
 -11   7   7  151.28   25.00
  11   7  -7  172.88   20.90
  11   7  -7  184.48   20.90
  11   7  -7  205.68   21.00
  -9  -7   7   10.00    9.30
  -9  -7   7   16.00   12.30
  -9  -7   7   -3.60   13.30
   9   7  -7   11.00   16.30
   9   7  -7   -6.90   12.40
  -9   7   7   -0.50   20.40
   9   7  -7   -3.00   11.10
  -7  -7   7    3.00    9.40
  -7  -7   7    1.90   12.30
  -7  -7   7    6.30   11.10
   7   7  -7    0.30   11.60
  -7   7   7  -11.70   19.20
   7   7  -7   22.60   16.60
   7   7  -7   15.90   13.90
   7   7  -7    2.60   14.10
  -5  -7   7   40.70   12.00
   5  -7  -7    9.90   14.00
  -5  -7   7   18.10   14.00
   5   7  -7   40.70   16.60
   5   7  -7   55.29   13.20
  -5   7   7   34.70   15.80
   5   7  -7   19.10   13.80
  -5   7   7   35.80   17.50
   3  -7  -7  256.47   21.40
  -3  -7   7  299.67   24.30
  -3  -7   7  279.87   30.70
   3  -7  -7  318.17   29.30
   3   7  -7  278.47   23.90
  -3   7   7  288.57   31.00
   3   7  -7  296.77   32.10
  -3   7   7  320.47   27.00
   3   7  -7  237.08   38.00
  -1  -7   7  172.88   20.40
   1  -7  -7  183.18   20.30
   1  -7  -7  193.68   23.10
   1   7  -7  159.18   23.60
  -1   7   7  141.19   21.40
   1   7  -7  173.38   22.40
  -1   7   7  195.58   21.80
   1   7  -7  171.98   20.10
  -1  -7  -7   51.99   22.30
   1  -7   7   65.69   19.20
  -1  -7  -7   47.40   21.50
  -1   7  -7   64.49   21.10
  -1   7  -7   24.90   22.00
   1   7   7   31.00   20.00
  -1   7  -7   72.99   17.70
   1   7   7   23.20   19.70
  -3  -7  -7   34.80   18.60
   3  -7   7   78.39   19.70
  -3  -7  -7   14.90   23.60
  -3   7  -7   55.59   18.20
  -3   7  -7   51.09   24.10
  -3   7  -7   53.99   21.10
   3   7   7   33.40   21.70
   3   7   7   90.79   24.00
   5  -7   7   41.30   26.60
  -5  -7  -7   16.00   20.20
   5   7   7   25.40   27.60
   5   7   7   -0.80   26.90
  -5   7  -7   -3.50   19.20
  -5   7  -7   -8.00   21.00
 -18  -8   7    4.80   20.50
 -18  -8   7   12.60   17.30
 -18  -8   7    9.70   19.10
 -18  -8   7   33.70   16.60
  18   8  -7   28.70   19.50
 -18   8   7   31.80   22.10
  18   8  -7   56.89   20.50
 -16  -8   7    7.70   17.30
 -16  -8   7   15.10   13.30
 -16  -8   7   13.30   14.90
 -16  -8   7   -3.80   16.10
 -16  -8   7   27.60   17.30
  16   8  -7   48.00   16.20
 -16   8   7   17.40   18.70
  16   8  -7    5.40   17.20
  16   8  -7    5.70   16.50
 -16   8   7   17.80   22.30
 -14  -8   7   27.60   17.60
 -14  -8   7   28.00   11.70
 -14  -8   7   15.90   15.90
 -14  -8   7   12.40   13.30
  14   8  -7   16.10   17.80
  14   8  -7    7.50   12.90
  14   8  -7   13.50   18.20
 -14   8   7    5.00   16.90
 -14   8   7   63.29   23.50
 -12  -8   7  176.88   20.50
 -12  -8   7  177.18   19.20
 -12  -8   7  183.88   18.70
 -12  -8   7  194.58   22.00
  12   8  -7  158.88   17.30
  12   8  -7  211.58   24.00
  12   8  -7  175.38   20.50
 -12   8   7  191.38   26.90
 -12   8   7  172.78   22.60
 -10  -8   7   96.69   16.00
 -10  -8   7  121.09   14.70
 -10  -8   7  118.79   21.00
  10   8  -7  131.69   18.70
  10   8  -7  133.09   15.50
 -10   8   7  116.79   24.50
  10   8  -7  128.99   20.60
  -8  -8   7   20.60   13.20
  -8  -8   7   36.40   11.90
  -8  -8   7   40.10   12.50
   8   8  -7   39.80   17.60
   8   8  -7   36.60   14.10
  -8   8   7   35.00   21.80
   8   8  -7   48.40   12.80
  -6  -8   7   18.80   11.70
  -6  -8   7   23.70   14.90
  -6  -8   7    8.30   11.30
   6  -8  -7   -2.30   11.30
   6   8  -7  -15.30   14.20
   6   8  -7   20.30   18.00
   6   8  -7  -14.50   15.50
  -6   8   7  -17.50   20.50
   6   8  -7    2.30   12.90
  -4  -8   7   42.40   12.70
   4  -8  -7   40.30   16.40
  -4  -8   7   32.10   14.80
   4   8  -7   43.60   19.60
  -4   8   7  101.89   16.20
  -4   8   7   35.00   18.40
   4   8  -7   46.70   14.90
   4   8  -7   43.90   16.50
  -2  -8   7  211.68   23.10
   2  -8  -7  109.69   21.30
   2  -8  -7  194.48   21.20
   2   8  -7  210.08   25.10
  -2   8   7  174.18   20.80
   2   8  -7  195.08   25.40
   2   8  -7  208.48   22.30
  -2   8   7  181.88   21.60
   0  -8   7   97.09   19.30
   0  -8  -7  111.29   18.10
   0  -8  -7   85.09   22.20
   0   8  -7  100.59   16.90
   0   8   7  106.19   21.40
   0   8  -7  106.19   21.80
   0   8  -7   95.29   22.10
   0   8   7   98.69   21.20
  -2  -8  -7   60.89   17.60
  -2  -8  -7   65.89   18.80
   2  -8   7  108.39   22.60
  -2  -8  -7   86.19   23.60
   2   8   7   80.29   21.80
  -2   8  -7   66.19   24.70
  -2   8  -7   74.99   22.60
   2   8   7   63.89   23.10
  -2   8  -7   90.79   19.40
  -4  -8  -7   85.69   20.80
   4  -8   7   78.59   21.60
   4   8   7   78.19   37.00
   4   8   7   17.70   26.40
   4   8   7   28.50   26.40
  -4   8  -7   54.59   20.10
  -4   8  -7   48.10   22.30
  -4   8  -7   -3.90   25.50
 -17  -9   7   15.40   16.10
 -17  -9   7   30.20   17.10
 -17  -9   7   54.69   20.50
  17   9  -7   47.00   20.20
  17   9  -7   -0.70   19.10
 -17   9   7   41.00   22.90
 -15  -9   7   39.20   16.40
 -15  -9   7   20.30   14.30
 -15  -9   7   18.20   18.80
 -15  -9   7   41.50   18.40
  15   9  -7   44.40   18.50
  15   9  -7   32.40   17.00
 -15   9   7    0.60   18.30
 -15   9   7   10.40   22.50
  15   9  -7    3.20   15.90
 -13  -9   7   67.89   19.30
 -13  -9   7   97.69   17.30
 -13  -9   7  135.79   18.70
 -13  -9   7   74.79   14.60
  13   9  -7  112.39   17.30
 -13   9   7  102.99   24.50
 -13   9   7  117.29   20.00
  13   9  -7  114.99   18.70
  13   9  -7   91.19   17.00
 -11  -9   7  132.89   17.50
 -11  -9   7  113.49   18.20
 -11  -9   7  125.19   15.00
 -11  -9   7  137.39   17.30
  11   9  -7   90.59   22.40
  11   9  -7  127.59   16.30
 -11   9   7  100.49   16.40
  11   9  -7  125.09   19.20
 -11   9   7   52.69   25.40
  -9  -9   7    8.40   11.10
  -9  -9   7  -17.60   13.70
  -9  -9   7   15.00   14.80
  -9   9   7   25.10   24.50
   9   9  -7   21.70   13.10
   9   9  -7   17.60   15.50
   9   9  -7  -15.60   17.40
  -7  -9   7  -12.20   12.10
  -7  -9   7    1.10   12.10
  -7  -9   7    6.00   14.40
  -7   9   7    3.80   22.50
   7   9  -7    1.20   18.00
   7   9  -7   -7.60   12.50
   7   9  -7   15.40   15.10
  -5  -9   7    8.80   14.30
  -5  -9   7   18.80   11.90
   5  -9  -7    9.90   12.50
   5   9  -7  -13.50   17.00
   5   9  -7   12.40   13.20
   5   9  -7    0.20   16.30
   5   9  -7  -15.40   18.10
  -3  -9   7  146.49   16.70
   3  -9  -7  120.69   20.60
   3  -9  -7  143.89   17.70
  -3   9   7  122.29   17.50
  -3   9   7  118.09   21.30
   3   9  -7  110.19   22.50
   3   9  -7  135.79   17.90
   3   9  -7  124.79   21.90
   1  -9  -7  104.49   28.90
   1  -9  -7  141.89   22.90
  -1  -9   7   87.79   19.00
   1   9  -7  120.79   19.30
  -1   9   7  151.08   22.00
  -1   9   7  121.69   19.30
   1   9  -7  125.79   23.40
   1   9  -7   88.19   22.30
   1  -9   7   33.10   19.70
  -1  -9  -7   67.89   18.70
  -1  -9  -7   53.09   23.50
  -1   9  -7   49.40   18.20
   1   9   7   74.09   22.70
   1   9   7   40.80   20.90
  -1   9  -7   47.00   24.20
  -1   9  -7   82.59   23.80
   3  -9   7    7.90   20.60
  -3  -9  -7   49.80   18.00
  -3   9  -7   50.39   25.70
   3   9   7   72.19   27.40
   3   9   7   91.49   22.60
   3   9   7   51.99   26.60
  -3   9  -7   40.00   20.60
  -3   9  -7   56.09   23.90
 -16 -10   7   47.60   17.00
 -16 -10   7   21.20   19.40
  16  10  -7   37.50   19.70
 -16  10   7  -14.60   22.20
  16  10  -7   26.50   19.70
 -14 -10   7   16.60   18.90
 -14 -10   7   22.10   14.60
 -14 -10   7   27.60   18.20
 -14 -10   7    8.50   15.50
 -14  10   7   72.49   18.90
  14  10  -7   38.60   17.60
 -14  10   7   22.10   23.80
  14  10  -7   47.70   20.10
  14  10  -7   39.90   17.10
 -12 -10   7  117.29   17.50
 -12 -10   7  129.89   19.20
 -12 -10   7  126.79   16.10
 -12 -10   7  120.79   19.70
 -12  10   7   81.89   27.50
  12  10  -7  123.29   20.60
 -12  10   7  104.19   19.10
  12  10  -7  116.09   18.40
 -10 -10   7    5.10   11.90
 -10 -10   7   28.60   14.50
 -10 -10   7   -6.50   16.30
  10  10  -7   24.20   13.70
  10  10  -7   12.00   21.50
  10  10  -7   36.90   19.50
 -10  10   7    2.20   19.10
 -10  10   7  -36.20   25.20
  -8 -10   7   15.50   13.00
  -8 -10   7    8.30   15.90
  -8 -10   7   32.60   14.60
   8  10  -7  -25.80   32.90
   8  10  -7   29.60   17.60
  -8  10   7    3.50   25.50
   8  10  -7   25.80   13.90
  -6 -10   7   27.80   13.80
   6 -10  -7   30.60   15.20
  -6 -10   7   17.30   12.90
   6  10  -7   22.60   15.60
   6  10  -7   36.40   17.70
  -6  10   7   10.20   23.80
   6  10  -7   26.90   19.40
   6  10  -7    2.70   18.30
   4 -10  -7  109.49   18.10
  -4 -10   7  103.99   17.20
   4  10  -7  117.49   22.80
   4  10  -7   89.79   16.30
   4  10  -7   69.49   21.60
   4  10  -7  102.89   21.60
  -4  10   7   64.19   21.00
  -2 -10   7  122.19   17.90
   2 -10  -7  181.58   21.60
   2 -10  -7  137.89   24.40
  -2  10   7  195.18   21.00
   2  10  -7  157.68   25.00
   2  10  -7  145.59   18.10
  -2  10   7  146.49   22.70
   2  10  -7  165.18   22.70
   0 -10  -7    6.50   17.80
   0 -10  -7   16.20   23.00
   0 -10   7   70.19   19.70
   0  10   7   47.80   21.70
   0  10  -7   40.60   22.80
   0  10  -7   54.79   24.50
   0  10   7   54.99   20.80
   0  10  -7   60.79   19.00
   2 -10   7   61.89   20.20
  -2 -10  -7    5.90   18.80
  -2  10  -7   28.00   25.50
   2  10   7   17.40   26.20
  -2  10  -7   66.09   21.60
   2  10   7   16.60   27.20
   2  10   7   49.50   22.60
  -2  10  -7  -56.29   23.30
 -15 -11   7   16.70   16.30
 -15 -11   7   25.00   18.70
 -15  11   7   -9.10   23.30
  15  11  -7   36.30   19.20
 -13 -11   7    7.30   15.90
 -13 -11   7   42.10   15.60
 -13 -11   7   17.20   19.60
 -13  11   7   58.89   21.30
  13  11  -7   -4.10   17.70
 -11 -11   7   15.80   16.10
 -11 -11   7    6.60   13.60
 -11 -11   7   39.60   18.80
 -11 -11   7   34.10   18.40
  11  11  -7   13.40   16.60
 -11  11   7    7.10   26.50
 -11  11   7   39.10   18.70
  11  11  -7   37.90   19.70
  -9 -11   7   12.80   16.80
  -9 -11   7    4.00   14.60
  -9 -11   7    8.90   12.20
   9  11  -7  -10.80   15.10
   9  11  -7   32.70   21.60
  -9  11   7   11.20   24.10
   9  11  -7   -2.70   18.30
  -7 -11   7   31.80   14.30
  -7 -11   7    0.20   14.90
   7  11  -7   19.50   29.40
   7  11  -7   23.50   19.40
  -7  11   7   25.90   25.60
   7  11  -7   12.20   15.40
  -5 -11   7   45.10   15.10
   5 -11  -7   54.19   17.80
   5  11  -7   29.50   24.20
   5  11  -7   47.30   16.30
   5  11  -7   -1.30   18.40
   5  11  -7   71.79   22.90
   3 -11  -7   54.49   23.70
   3 -11  -7   93.49   19.50
  -3 -11   7   83.19   15.80
   3  11  -7  109.39   24.30
   3  11  -7  109.69   23.90
  -3  11   7   82.99   23.00
   3  11  -7  101.49   18.30
   3  11  -7   91.59   24.60
  -1 -11   7   52.19   17.70
   1 -11  -7   15.70   22.60
   1 -11  -7   47.60   20.30
   1  11  -7  106.39   26.70
  -1  11   7   35.20   24.30
  -1  11   7   76.49   20.60
   1  11  -7   89.19   20.00
   1  11  -7   34.70   24.00
  -1 -11  -7   21.40   20.30
   1 -11   7   21.60   20.60
   1  11   7  -54.99   24.20
  -1  11  -7   11.50   20.70
  -1  11  -7   32.60   27.70
   1  11   7   30.70   26.70
   1  11   7   42.20   23.20
 -12 -12   7   23.20   18.50
 -12 -12   7   25.40   20.60
 -12 -12   7   15.20   16.80
 -12  12   7   16.70   21.70
  12  12  -7   28.20   20.70
 -10 -12   7   32.50   15.60
 -10 -12   7   12.70   16.30
 -10 -12   7   15.70   19.40
  10  12  -7   -5.40   17.40
  10  12  -7   22.60   21.40
  -8 -12   7  -10.20   15.00
  -8 -12   7  -17.70   15.00
   8  12  -7  -43.50   18.40
   8  12  -7  -26.10   24.20
   8  12  -7  -11.70   17.50
   6 -12  -7   -3.80   18.30
  -6 -12   7   13.00   15.70
   6  12  -7   -7.50   16.30
   6  12  -7    2.40   22.10
   6  12  -7  -17.90   19.00
  -4 -12   7   22.20   16.30
   4 -12  -7    0.10   19.40
   4  12  -7   46.80   20.50
   4  12  -7    3.50   17.20
   4  12  -7   31.30   24.70
   4  12  -7   26.20   23.70
   2 -12  -7   52.29   21.10
   2 -12  -7   37.00   23.60
  -2 -12   7   68.29   18.30
   2  12  -7   20.40   19.80
  -2  12   7   90.99   24.30
   2  12  -7   33.00   28.00
   2  12  -7   38.50   24.90
   2  12  -7   68.29   26.20
  -9 -13   7  -11.00   18.70
  -7 -13   7    7.20   18.90
  -7 -13   7  -20.80   16.00
   7  13  -7  -27.30   34.10
   7  13  -7   -8.00   18.90
   7  13  -7   19.70   27.20
   5 -13  -7  -13.30   21.60
  -5 -13   7  -20.80   16.40
   5  13  -7  -24.60   21.30
   5  13  -7   45.00   28.30
   5  13  -7  -22.50   19.10
 -22   0   8    0.00   23.00
  22   0  -8    1.80   26.00
 -22   0   8   -7.90   28.50
 -22   0   8   33.80   19.30
 -22   0   8   14.40   19.80
  20   0  -8  138.79   21.30
 -20   0   8  152.08   22.20
 -20   0   8  132.99   21.60
 -20   0   8  168.18   20.00
 -20   0   8  120.69   19.00
 -18   0   8   29.10   12.40
 -18   0   8   -4.10   15.90
  18   0  -8   10.90   14.50
 -18   0   8   -6.30   12.90
 -18   0   8   20.90   16.80
 -16   0   8  148.59   19.00
 -16   0   8  113.79   17.80
 -16   0   8  129.19   16.50
  16   0  -8  132.59   18.20
 -16   0   8  143.79   15.80
  16   0  -8  137.29   17.70
  14   0  -8  535.05   29.20
  14   0  -8  502.85   31.90
 -14   0   8  525.35   32.30
  14   0  -8  550.14   32.50
 -14   0   8  545.15   29.90
  14   0  -8  535.75   27.80
  12   0  -8  130.29   15.90
 -12   0   8   96.79   25.40
 -12   0   8  115.69   15.90
 -12   0   8  133.99   19.40
  12   0  -8  119.39   13.70
  12   0  -8  156.08   19.30
  12   0  -8  111.39   16.10
 -10   0   8  424.16   30.00
  10   0  -8  419.06   26.50
  10   0  -8  420.36   30.20
 -10   0   8  442.66   26.60
 -10   0   8  424.56   31.40
  10   0  -8  439.16   25.40
  -8   0   8   16.00   15.20
   8   0  -8   25.00   22.30
   8   0  -8   19.00   13.40
  -8   0   8    3.20   15.00
  -8   0   8   44.70   11.80
   8   0  -8    3.90   10.60
  -6   0   8  975.10   47.90
  -6   0   8 1006.20   47.70
  -6   0   8  859.81   65.29
   6   0  -8  992.70   45.70
  -4   0   8 1126.99   57.59
   4   0  -8 1258.37   51.79
   4   0  -8 1030.30   56.29
  -4   0   8 1252.17   57.39
  -4   0   8 1096.99   55.49
   2   0  -8   35.00   18.10
  -2   0   8   15.90   20.20
   2   0  -8   11.50   14.00
   0   0  -8   37.90   15.00
   0   0   8   29.30   18.10
   0   0   8   23.20   21.90
   0   0  -8   42.70   17.80
   2   0   8   11.60   17.70
  -2   0  -8  -28.90   14.40
  -2   0  -8   20.80   19.00
   2   0   8   -5.60   21.20
  -4   0  -8  267.97   31.20
  -4   0  -8  245.58   28.90
   4   0   8  289.97   36.60
   4   0   8  237.58   30.00
  -6   0  -8   38.70   23.10
   6   0   8   68.79   26.10
  -6   0  -8   52.99   23.20
 -21  -1   8   96.39   23.10
 -21  -1   8   89.69   19.40
  21  -1  -8   54.99   20.30
 -21  -1   8  102.19   18.60
 -21  -1   8  118.79   20.40
 -21   1   8  118.99   22.60
 -21   1   8  107.69   21.40
  21   1  -8   86.59   21.80
 -21   1   8  102.39   19.20
 -21   1   8  129.69   20.00
 -19  -1   8   59.69   20.50
 -19  -1   8   61.79   16.00
 -19  -1   8   63.39   15.50
  19  -1  -8   78.89   18.00
 -19  -1   8   79.69   19.90
  19   1  -8   61.69   18.50
 -19   1   8   88.99   18.50
 -19   1   8   80.79   18.90
 -19   1   8   71.09   15.70
 -19   1   8   59.19   15.40
 -17  -1   8    4.70   15.40
 -17  -1   8  -13.50   16.20
  17  -1  -8    5.10   13.80
 -17  -1   8   12.00   11.80
 -17  -1   8   17.70   12.90
 -17   1   8   -2.20   11.60
 -17   1   8  -10.80   16.50
 -17   1   8   -2.30   14.50
  17   1  -8   -3.60   13.60
 -17   1   8   14.60   12.50
  17   1  -8    1.00   13.60
  17   1  -8   -5.20   11.50
  15  -1  -8  247.18   24.40
  15  -1  -8  240.38   22.90
 -15  -1   8  270.87   25.80
 -15  -1   8  216.08   22.00
 -15  -1   8  225.88   23.00
 -15  -1   8  251.97   20.40
 -15   1   8  215.08   24.90
 -15   1   8  234.08   21.30
  15   1  -8  243.18   24.50
  15   1  -8  251.77   20.20
  15   1  -8  246.08   26.60
 -15   1   8  225.68   24.40
  15   1  -8  177.48   21.80
 -15   1   8  285.57   27.10
 -13  -1   8   11.90   13.80
 -13  -1   8   41.40   11.90
  13  -1  -8   31.60   13.90
  13  -1  -8   18.90   13.20
  13   1  -8   47.30   12.60
  13   1  -8   21.90   12.60
 -13   1   8   27.80   16.50
  13   1  -8   31.30   14.30
  13   1  -8   26.00   10.80
 -13   1   8   36.30   14.40
  11  -1  -8  683.93   37.70
 -11  -1   8  736.63   38.50
 -11  -1   8  718.53   35.50
  11  -1  -8  707.33   33.80
  11   1  -8  709.63   34.20
 -11   1   8  704.33   35.10
  11   1  -8  642.64   37.90
 -11   1   8  697.93   40.70
  11   1  -8  710.23   35.80
 -11   1   8  701.23   37.20
  11   1  -8  694.93   34.10
   9  -1  -8   50.19   13.20
   9  -1  -8   41.70   12.10
  -9  -1   8   47.80   17.60
  -9  -1   8   48.00   13.30
  -9  -1   8   36.50   12.00
  -9   1   8   64.49   16.40
  -9   1   8   65.19   12.80
   9   1  -8   71.69   14.00
  -9   1   8   41.50   17.30
   9   1  -8   45.80   12.90
  -7  -1   8  158.78   20.80
  -7  -1   8  171.88   18.90
   7  -1  -8  174.28   19.10
  -7   1   8  157.58   18.60
   7   1  -8  164.48   24.50
   7   1  -8  150.48   18.30
  -7   1   8  122.79   21.40
  -7   1   8  196.48   26.30
  -5  -1   8 1715.13   70.19
   5  -1  -8 1760.32   67.09
   5  -1  -8 1474.55   70.49
  -5  -1   8 1547.25   71.59
   5   1  -8 1587.24   67.69
  -5   1   8 1642.64   72.39
  -5   1   8 1522.05   70.19
  -3  -1   8   81.09   21.30
  -3  -1   8   51.89   18.50
   3  -1  -8   76.69   14.80
   3  -1  -8   66.99   18.80
  -3   1   8   64.09   21.80
   3   1  -8   30.50   17.40
   3   1  -8   68.19   18.40
  -3   1   8   44.80   30.00
  -1  -1   8   36.80   19.80
  -1  -1   8   33.80   20.20
   1  -1  -8   29.20   19.00
   1  -1  -8   39.90   15.20
  -1   1   8   32.60   21.10
   1   1  -8   48.30   14.20
   1   1  -8   43.30   19.20
  -1   1   8   59.19   17.70
  -1  -1  -8   68.09   15.60
   1  -1   8  110.09   22.60
   1  -1   8   98.39   20.60
  -1  -1  -8   59.79   19.90
   1   1   8   62.59   19.40
   1   1   8   58.29   21.70
  -1   1  -8   43.80   20.60
  -1   1  -8   67.79   15.70
   3  -1   8   67.99   20.10
  -3  -1  -8   59.89   21.80
  -3  -1  -8   58.69   18.30
   3  -1   8  -21.20   24.00
   3   1   8   47.80   24.70
  -3   1  -8   72.89   22.00
  -3   1  -8   77.89   17.30
   3   1   8   57.39   20.40
   5  -1   8  150.78   28.50
   5  -1   8  294.47   37.50
  -5  -1  -8  107.19   24.30
  -5  -1  -8  201.28   24.70
  -5   1  -8  199.38   24.30
  -5   1  -8  181.88   27.50
   5   1   8  207.58   29.10
   5   1   8  153.98   27.40
 -22  -2   8   29.00   21.00
 -22  -2   8   11.00   25.00
 -22   2   8   40.00   20.80
  22   2  -8   16.90   28.30
 -22   2   8   42.60   21.70
  22   2  -8   25.00   16.70
 -22   2   8   24.90   19.80
 -20  -2   8  150.28   18.80
  20  -2  -8   93.39   21.10
 -20  -2   8   85.29   22.70
 -20  -2   8  129.29   19.90
 -20  -2   8   94.69   19.00
 -20   2   8  139.39   21.90
 -20   2   8  125.59   17.30
 -20   2   8  138.39   21.60
 -20   2   8  169.58   17.80
  20   2  -8  111.99   19.30
  20   2  -8  146.29   17.90
  20   2  -8  119.99   20.90
 -18  -2   8   29.80   13.90
 -18  -2   8   14.00   19.00
 -18  -2   8   17.50   13.70
  18  -2  -8   -0.50   15.30
 -18  -2   8    9.20   16.10
 -18   2   8   20.00   13.20
  18   2  -8    4.20   15.80
 -18   2   8   57.79   17.10
 -18   2   8    1.00   12.10
  18   2  -8   25.50   13.50
  18   2  -8   -9.40   14.90
 -18   2   8  -18.90   15.50
  16  -2  -8  -14.80   14.00
 -16  -2   8   12.60   14.80
  16  -2  -8   -0.70   12.90
 -16  -2   8   -0.90   10.90
 -16  -2   8  -15.40   15.10
 -16  -2   8    0.00   11.40
 -16   2   8    3.40   15.20
 -16   2   8   14.40   14.90
  16   2  -8    4.50   14.70
  16   2  -8    6.30   13.60
 -16   2   8   21.40   11.00
  16   2  -8    7.00   13.70
 -16   2   8   -5.80   17.90
 -16   2   8   14.90   15.40
 -14  -2   8   94.09   14.40
 -14  -2   8   98.19   16.10
  14  -2  -8   87.39   14.90
  14  -2  -8   56.59   15.30
  14   2  -8   85.29   17.40
  14   2  -8   84.79   14.60
  14   2  -8  100.19   15.30
 -14   2   8   98.19   14.60
 -14   2   8  100.59   20.70
  14   2  -8   83.49   13.70
 -14   2   8  101.39   16.20
  12  -2  -8  358.56   28.40
 -12  -2   8  438.86   30.00
  12  -2  -8  475.65   28.80
  12   2  -8  414.76   31.00
  12   2  -8  444.56   29.80
 -12   2   8  423.86   28.80
  12   2  -8  444.76   26.30
 -12   2   8  477.65   27.60
 -12   2   8  458.85   33.60
  12   2  -8  434.86   25.70
  10  -2  -8  461.95   30.00
 -10  -2   8  452.15   30.00
 -10  -2   8  474.75   28.30
 -10  -2   8  416.66   31.10
  10   2  -8  491.75   25.90
  10   2  -8  453.25   27.00
  10   2  -8  427.26   34.20
 -10   2   8  513.35   28.10
 -10   2   8  445.36   34.60
 -10   2   8  484.85   33.20
  10   2  -8  491.35   32.70
   8  -2  -8    1.20   10.50
  -8  -2   8  -15.30   10.80
  -8  -2   8    5.70   15.60
   8  -2  -8   -2.70   17.00
   8  -2  -8    3.80   10.30
  -8   2   8    5.10   14.10
  -8   2   8   -5.20   17.80
   8   2  -8   24.40   24.10
   8   2  -8   -7.20   10.50
  -8   2   8   19.50   16.60
   8   2  -8   -6.30   22.70
  -6  -2   8  606.54   33.00
  -6  -2   8  534.85   38.30
   6  -2  -8  507.35   36.70
   6  -2  -8  639.64   31.30
  -6   2   8  663.13   39.40
   6   2  -8  559.64   39.20
   6   2  -8  578.54   33.00
  -6   2   8  543.65   41.40
  -6   2   8  594.44   40.10
  -4  -2   8  392.46   31.20
  -4  -2   8  341.27   36.10
   4  -2  -8  398.66   33.70
   4  -2  -8  426.36   27.60
  -4   2   8  515.75   43.10
   4   2  -8  426.16   29.40
  -4   2   8  434.66   38.70
   2  -2  -8  195.88   23.20
  -2  -2   8  167.88   26.50
  -2  -2   8  194.68   23.20
   2  -2  -8  202.98   23.90
   2   2  -8  189.28   23.30
   2   2  -8  199.98   24.30
  -2   2   8  154.58   25.20
  -2   2   8  218.08   24.50
   0  -2  -8  -30.00   18.10
   0  -2   8   15.30   21.70
   0  -2   8  -31.70   17.00
   0  -2  -8    1.10   15.50
   0   2  -8   13.30   14.00
   0   2   8   38.80   17.70
   0   2  -8   31.90   19.10
   0   2   8  -25.30   19.70
  -2  -2  -8   -2.20   18.80
   2  -2   8   25.50   23.20
   2  -2   8    5.10   19.00
  -2  -2  -8    2.50   15.80
   2   2   8    2.00   22.00
  -2   2  -8   14.80   15.30
  -2   2  -8   12.50   20.10
   2   2   8   16.50   18.60
   4  -2   8  128.19   29.20
  -4  -2  -8  109.39   21.00
   4  -2   8  154.68   22.90
  -4  -2  -8   82.79   24.70
   4   2   8   95.49   25.30
  -4   2  -8  158.18   20.20
  -4   2  -8  122.29   24.70
   4   2   8  128.89   27.20
  -6  -2  -8   43.70   23.60
   6  -2   8   51.59   24.70
  -6  -2  -8   24.30   26.30
   6  -2   8  -64.09   25.70
   6   2   8  -24.90   25.10
   6   2   8  -12.20   26.80
  -6   2  -8   61.99   23.90
  -6   2  -8   26.30   24.20
 -21  -3   8   54.99   20.40
 -21  -3   8   53.99   23.60
 -21  -3   8   63.89   20.50
  21  -3  -8   73.79   22.40
 -21   3   8   80.19   17.30
  21   3  -8   62.89   22.60
  21   3  -8   44.60   17.10
 -21   3   8   75.89   21.50
  21   3  -8   31.80   19.30
 -19  -3   8   39.60   15.80
 -19  -3   8   12.30   19.00
  19  -3  -8   20.70   17.60
 -19  -3   8   31.20   15.70
 -19  -3   8   26.20   17.80
 -19   3   8   42.30   14.10
 -19   3   8   28.10   14.00
  19   3  -8   17.70   13.90
  19   3  -8   38.50   16.20
 -19   3   8   13.50   18.00
  19   3  -8   62.79   18.50
 -17  -3   8    3.00   12.30
  17  -3  -8    5.80   14.00
 -17  -3   8    1.50   16.80
 -17  -3   8   24.90   15.80
 -17  -3   8   18.90   13.60
 -17   3   8    1.00   15.80
 -17   3   8   24.10   14.40
 -17   3   8    9.50   19.00
  17   3  -8   14.90   12.90
 -17   3   8    3.00   12.90
  17   3  -8   24.10   14.50
 -17   3   8   11.50   13.40
  17   3  -8   22.00   15.10
 -15  -3   8  104.29   17.20
 -15  -3   8  100.09   14.70
 -15  -3   8   82.39   13.60
  15  -3  -8   60.49   13.90
  15  -3  -8   74.59   16.40
 -15  -3   8   66.49   18.40
  15   3  -8   95.69   15.30
  15   3  -8   48.10   16.80
 -15   3   8  102.89   13.20
 -15   3   8   98.39   16.20
 -15   3   8   50.89   20.20
 -15   3   8   81.99   14.70
 -15   3   8   89.29   16.70
  15   3  -8   75.19   14.30
 -13  -3   8    6.00   13.80
  13  -3  -8   12.00   12.10
  13  -3  -8    7.20   11.70
 -13  -3   8   -3.60   11.20
  13   3  -8   -7.40   15.20
 -13   3   8    8.80   12.30
  13   3  -8   -5.90   12.70
 -13   3   8    2.70   14.40
  13   3  -8   -1.50   11.50
  13   3  -8   -3.70   12.30
 -13   3   8    0.90   17.80
 -11  -3   8  893.81   43.90
 -11  -3   8  751.82   41.40
  11  -3  -8  803.12   39.90
  11   3  -8  893.61   38.40
  11   3  -8  833.82   39.20
 -11   3   8  803.22   39.70
  11   3  -8  801.12   40.90
 -11   3   8  884.91   46.20
 -11   3   8  801.22   42.70
  11   3  -8  829.12   43.50
  -9  -3   8  107.19   17.70
   9  -3  -8   65.79   14.60
  -9  -3   8   77.89   14.10
  -9   3   8   86.29   21.00
  -9   3   8  103.39   16.80
  -9   3   8   77.69   17.80
   9   3  -8  101.89   16.50
   9   3  -8   86.29   19.60
   9   3  -8   92.59   14.80
   7  -3  -8   42.40   12.70
   7  -3  -8   29.60   15.90
  -7  -3   8   21.30   15.90
  -7  -3   8   36.90   12.40
   7   3  -8   37.50   16.50
  -7   3   8   10.20   17.40
   7   3  -8   39.60   13.70
  -7   3   8   21.10   20.10
  -7   3   8   30.50   20.30
  -5  -3   8  700.63   36.10
   5  -3  -8  587.64   39.90
   5  -3  -8  708.33   34.30
  -5  -3   8  634.84   40.20
   5   3  -8  717.33   43.20
  -5   3   8  740.43   46.30
   5   3  -8  645.74   43.00
   3  -3  -8   15.00   17.30
   3  -3  -8   50.29   14.00
  -3  -3   8   38.30   17.30
  -3  -3   8   21.40   17.90
  -3   3   8   21.40   22.30
   3   3  -8   24.20   14.90
   3   3  -8   32.70   13.80
  -3   3   8   46.20   17.60
  -1  -3   8   -7.60   20.00
  -1  -3   8   48.40   20.50
   1  -3  -8   78.59   19.60
   1  -3  -8   57.79   15.40
  -1   3   8   31.60   18.60
  -1   3   8   32.40   21.20
   1   3  -8   57.69   19.90
   1   3  -8   39.30   15.40
   1   3  -8   21.80   14.80
   1  -3   8   19.50   21.20
   1  -3   8   72.89   19.90
  -1  -3  -8   22.50   19.50
  -1  -3  -8   49.80   16.80
   1   3   8   11.30   19.40
  -1   3  -8   26.70   14.60
   1   3   8   25.20   20.90
  -1   3  -8   28.10   21.00
  -3  -3  -8    0.60   22.80
   3  -3   8   31.60   19.40
  -3  -3  -8   86.39   18.90
   3  -3   8   25.60   24.00
  -3   3  -8   30.40   22.70
  -3   3  -8   38.50   17.80
   3   3   8    5.70   20.90
   3   3   8   97.79   25.40
  -5  -3  -8   97.79   24.40
   5  -3   8   75.49   29.50
  -5  -3  -8   94.09   23.40
   5  -3   8  147.99   24.10
  -5   3  -8   25.00   25.00
  -5   3  -8  110.99   20.70
   5   3   8   79.19   29.20
  20  -4  -8   58.89   20.50
 -20  -4   8  123.99   19.80
 -20  -4   8   96.99   19.90
 -20  -4   8   90.19   23.50
  20   4  -8   75.79   20.90
 -20   4   8  108.39   21.00
 -20   4   8  111.19   17.50
  20   4  -8  104.49   20.00
  20   4  -8  109.19   17.40
 -18  -4   8   53.39   20.10
 -18  -4   8   15.10   17.70
 -18  -4   8   14.10   14.40
  18  -4  -8  -16.60   16.30
 -18  -4   8  -11.20   13.80
  18   4  -8    3.00   15.40
  18   4  -8  -12.90   15.90
 -18   4   8  -10.80   20.80
 -18   4   8  -13.80   17.40
  18   4  -8   16.40   13.50
 -16  -4   8   28.80   14.10
 -16  -4   8   38.10   13.10
  16  -4  -8   36.00   13.70
 -16  -4   8   33.50   15.50
 -16  -4   8   21.40   10.40
 -16  -4   8   33.20   17.60
 -16   4   8   29.70   12.30
  16   4  -8    7.50   17.00
 -16   4   8   10.10   15.60
  16   4  -8   39.90   14.00
 -16   4   8   44.60   20.80
  16   4  -8   -6.00   13.20
  16   4  -8   17.60   14.00
 -14  -4   8  229.98   26.70
 -14  -4   8  199.78   23.60
 -14  -4   8  218.28   17.60
  14  -4  -8  213.48   21.30
  14   4  -8  238.48   21.80
  14   4  -8  222.68   25.30
  14   4  -8  196.68   22.80
  14   4  -8  229.78   28.40
 -14   4   8  243.78   26.30
  12  -4  -8  153.68   16.40
 -12  -4   8  176.28   18.30
 -12  -4   8  164.48   18.10
  12   4  -8  183.28   20.70
 -12   4   8  184.48   18.80
  12   4  -8  228.68   27.60
  12   4  -8  200.08   20.80
 -12   4   8  199.68   25.40
 -12   4   8  171.68   19.20
  12   4  -8  190.28   19.50
  10  -4  -8  327.17   24.90
 -10  -4   8  308.97   27.60
 -10  -4   8  368.16   25.40
  10   4  -8  339.97   29.30
 -10   4   8  318.77   31.70
 -10   4   8  334.57   34.20
 -10   4   8  307.17   29.90
  10   4  -8  320.47   26.90
   8  -4  -8  -10.90   14.20
  -8  -4   8   23.20   15.50
  -8  -4   8   -1.10   11.20
  -8   4   8  -10.00   18.80
   8   4  -8    6.20   13.70
  -8   4   8   25.60   17.50
  -8   4   8  -13.90   16.90
  -6  -4   8  722.53   39.20
  -6  -4   8  652.83   34.60
   6  -4  -8  553.64   39.40
  -6   4   8  560.14   48.70
  -6   4   8  716.93   45.70
  -6   4   8  743.33   46.30
   6   4  -8  748.53   41.40
   6   4  -8  592.34   38.30
  -4  -4   8  560.24   34.30
  -4  -4   8  544.45   36.90
   4  -4  -8  617.44   36.70
   4  -4  -8  602.14   31.60
   4   4  -8  532.35   41.40
  -4   4   8  634.84   39.20
   4   4  -8  488.75   32.10
   4   4  -8  607.34   33.40
  -4   4   8  558.94   43.10
  -2  -4   8   16.70   18.00
  -2  -4   8   34.50   19.70
   2  -4  -8   23.50   19.00
   2  -4  -8   37.90   14.20
  -2   4   8   40.40   21.20
   2   4  -8   39.30   16.00
  -2   4   8   31.00   17.40
   2   4  -8   24.40   23.70
   2   4  -8   36.10   14.00
   0  -4  -8   -7.70   18.10
   0  -4  -8   24.20   16.30
   0  -4   8  -13.30   22.00
   0   4  -8   19.30   15.20
   0   4  -8    9.70   19.60
   0   4   8   14.40   22.00
   0   4   8   25.40   18.10
   0   4  -8   -2.40   20.70
   2  -4   8  -10.70   24.30
  -2  -4  -8   13.00   23.30
  -2  -4  -8   -9.10   17.90
   2  -4   8   12.00   19.90
  -2   4  -8    5.90   15.60
   2   4   8  -19.30   22.20
  -2   4  -8    5.90   23.30
   2   4   8   17.60   20.70
   4  -4   8  197.88   25.30
  -4  -4  -8   96.89   24.30
   4  -4   8  160.48   30.50
  -4  -4  -8  122.19   25.90
  -4   4  -8  174.88   27.60
   4   4   8  159.88   29.90
   4   4   8  135.49   27.00
  -4   4  -8  173.68   23.50
   6  -4   8   18.50   20.10
   6  -4   8   33.40   30.40
   6  -4   8   25.20   23.90
  -6  -4  -8   13.40   25.70
  -6   4  -8    2.00   27.80
   6   4   8   48.60   33.50
  21   5  -8   77.09   24.50
 -19  -5   8   42.40   17.60
 -19  -5   8   25.80   17.30
  19  -5  -8   -5.30   19.00
 -19  -5   8   80.29   18.00
 -19  -5   8   43.70   21.70
  19   5  -8   74.89   15.80
  19   5  -8   42.00   19.20
  19   5  -8   51.59   18.70
 -17  -5   8    1.30   16.30
 -17  -5   8    3.00   18.40
 -17  -5   8    1.50   15.40
  17  -5  -8  -25.50   14.90
 -17  -5   8   29.20   14.50
 -17  -5   8   24.80   13.20
 -17   5   8    2.30   20.20
  17   5  -8  -20.20   13.60
  17   5  -8   -4.20   15.40
  17   5  -8    4.80   17.20
 -15  -5   8  158.08   18.80
 -15  -5   8  144.79   20.60
 -15  -5   8  205.68   18.70
 -15  -5   8  154.38   17.50
  15   5  -8  200.58   20.60
  15   5  -8  176.08   17.60
 -15   5   8  203.98   25.70
  15   5  -8  174.38   23.20
 -13  -5   8   16.10   12.90
 -13  -5   8   31.90   10.20
 -13  -5   8   57.69   14.80
  13   5  -8   19.00   12.50
  13   5  -8   41.90   16.80
  13   5  -8   48.90   12.90
  13   5  -8   29.10   15.20
 -13   5   8   19.70   20.40
 -11  -5   8  340.67   19.80
 -11  -5   8  285.07   24.90
 -11  -5   8  295.07   25.90
  11  -5  -8  325.17   24.10
  11   5  -8  307.27   24.10
  11   5  -8  327.17   29.10
 -11   5   8  305.17   34.60
  11   5  -8  372.56   27.50
   9  -5  -8   47.20   14.20
  -9  -5   8   23.90   16.00
  -9  -5   8   29.80   13.10
  -9   5   8   18.20   20.70
  -9   5   8   12.90   19.20
   9   5  -8   32.90   12.70
   9   5  -8   48.40   14.10
   9   5  -8   25.70   16.00
  -9   5   8   42.80   18.30
   7  -5  -8  148.19   19.10
  -7  -5   8  194.78   21.80
  -7  -5   8  180.68   20.60
   7   5  -8  170.58   17.00
   7   5  -8  184.48   21.00
  -7   5   8  154.58   24.60
   7   5  -8  190.18   22.40
  -7   5   8  195.48   25.70
  -7   5   8  150.78   25.00
  -5  -5   8 1072.09   48.00
   5  -5  -8  989.80   50.99
  -5  -5   8 1074.79   50.49
   5   5  -8 1110.19   48.30
  -5   5   8  930.51   56.79
   5   5  -8 1039.10   53.79
   5   5  -8  993.20   46.80
  -5   5   8 1001.80   51.19
  -3  -5   8   77.59   17.20
   3  -5  -8   47.30   13.50
  -3  -5   8   72.99   18.20
   3  -5  -8   72.89   18.80
   3   5  -8   15.70   24.30
   3   5  -8   65.79   15.00
  -3   5   8   40.80   21.70
  -3   5   8   48.00   18.40
   3   5  -8   69.99   16.10
   1  -5  -8   34.00   23.20
   1  -5  -8   34.80   18.90
  -1  -5   8  -10.50   18.80
  -1  -5   8   -3.30   17.50
   1   5  -8    4.80   14.20
  -1   5   8   17.60   16.60
  -1   5   8   15.60   20.80
   1   5  -8   18.40   20.30
   1   5  -8   28.90   21.50
   1  -5   8   49.90   21.30
  -1  -5  -8    7.00   21.60
  -1  -5  -8   50.49   17.80
   1  -5   8   73.79   23.50
  -1   5  -8   43.20   23.10
   1   5   8   59.19   20.70
  -1   5  -8   42.10   16.50
  -1   5  -8    9.40   17.10
   1   5   8   50.09   24.90
  -3  -5  -8   55.99   25.20
  -3  -5  -8   31.10   19.30
   3  -5   8   13.50   26.20
   3  -5   8   61.39   21.80
  -3   5  -8   13.40   19.90
  -3   5  -8   41.20   18.50
  -3   5  -8   22.10   23.70
   3   5   8   20.40   25.00
   3   5   8   24.30   25.70
  -5  -5  -8  135.09   25.20
   5  -5   8  176.38   24.50
   5  -5   8   88.99   31.80
   5   5   8   90.59   33.20
  -5   5  -8  150.28   24.70
  -5   5  -8  137.89   29.70
 -20  -6   8   27.60   21.20
 -20  -6   8   77.09   17.40
  20  -6  -8   49.10   22.70
 -20  -6   8   89.79   23.50
 -20  -6   8   30.80   22.80
 -20   6   8   73.79   23.10
  20   6  -8   63.59   18.70
  20   6  -8   83.89   23.50
 -18  -6   8   18.80   13.30
 -18  -6   8    6.40   15.30
 -18  -6   8   12.30   17.30
 -18  -6   8   -5.70   19.20
 -18  -6   8    0.60   16.00
  18  -6  -8   19.60   17.80
  18   6  -8   23.10   18.70
 -18   6   8    1.80   23.10
  18   6  -8    0.60   16.70
 -18   6   8   -2.70   17.80
  18   6  -8  -13.80   15.70
 -16  -6   8   33.70   12.40
 -16  -6   8   35.20   18.00
 -16  -6   8   21.20   14.40
 -16  -6   8   24.60   16.00
  16   6  -8   21.80   16.70
  16   6  -8   22.00   16.20
 -16   6   8   -2.60   22.20
  16   6  -8   53.69   14.40
 -14  -6   8  131.69   19.70
 -14  -6   8  114.99   12.90
 -14  -6   8  137.69   18.80
 -14  -6   8  140.79   16.70
  14   6  -8  114.29   18.00
  14   6  -8  126.29   20.00
 -14   6   8  115.39   24.70
  14   6  -8  150.78   17.10
  14   6  -8  110.59   16.00
 -12  -6   8  111.69   12.60
 -12  -6   8  109.49   17.00
 -12  -6   8   93.09   16.10
  12   6  -8  115.69   17.60
 -12   6   8  159.78   26.70
  12   6  -8  131.99   15.70
  12   6  -8  140.29   19.60
 -10  -6   8  239.58   30.10
 -10  -6   8  284.67   19.10
 -10  -6   8  289.27   26.50
  10   6  -8  274.37   24.40
 -10   6   8  278.17   36.50
  10   6  -8  289.47   27.60
  10   6  -8  239.28   30.10
   8  -6  -8    0.90   14.20
  -8  -6   8   25.20   15.60
  -8  -6   8   17.00   11.90
  -8   6   8    8.90   21.00
  -8   6   8  -10.10   20.10
   8   6  -8  -13.90   12.30
   8   6  -8    5.10   16.00
  -8   6   8   12.90   16.90
   8   6  -8   -0.30   15.30
  -6  -6   8  381.96   27.70
   6  -6  -8  309.97   30.80
  -6  -6   8  394.56   31.00
   6   6  -8  369.06   27.00
   6   6  -8  395.76   27.90
  -6   6   8  385.26   31.50
  -6   6   8  307.57   37.90
   6   6  -8  396.16   45.50
  -6   6   8  365.66   38.40
  -4  -6   8  359.46   27.50
  -4  -6   8  331.47   31.20
   4  -6  -8  365.26   31.80
   4   6  -8  442.86   29.60
   4   6  -8  332.77   37.70
  -4   6   8  437.76   33.90
   4   6  -8  380.86   30.60
  -4   6   8  396.86   37.30
  -2  -6   8   -8.00   16.90
  -2  -6   8  -17.80   16.50
   2  -6  -8  -10.80   17.50
   2   6  -8   17.70   14.20
  -2   6   8  -24.80   16.30
   2   6  -8   -6.10   16.60
  -2   6   8   17.30   22.90
   0  -6   8    3.70   21.70
   0  -6  -8    5.40   16.50
   0  -6  -8   32.80   21.10
   0  -6   8   15.80   21.80
   0   6  -8   -6.30   22.30
   0   6  -8    1.20   17.30
   0   6   8   11.10   19.10
   0   6   8   17.70   22.60
   0   6  -8   -0.70   15.90
   2  -6   8   -6.90   23.00
  -2  -6  -8   14.10   18.80
  -2  -6  -8   -9.20   21.90
   2  -6   8  -25.50   20.20
   2   6   8  -10.60   23.70
  -2   6  -8  -18.60   17.50
  -2   6  -8   10.10   20.70
  -2   6  -8  -10.70   23.10
   2   6   8  -14.40   23.50
   4  -6   8  113.99   22.80
  -4  -6  -8  117.19   24.80
  -4   6  -8  114.09   24.80
  -4   6  -8   99.29   21.70
   4   6   8   97.29   32.50
  -4   6  -8  104.59   27.00
 -19  -7   8   34.20   19.10
 -19  -7   8   34.00   16.20
 -19  -7   8   -6.80   19.60
 -19  -7   8  -16.30   19.60
 -19   7   8   27.30   21.40
  19   7  -8   12.60   20.00
  19   7  -8    4.60   17.80
 -17  -7   8    2.50   15.80
 -17  -7   8    2.20   13.00
 -17  -7   8   14.90   16.20
 -17  -7   8    4.90   19.10
 -17   7   8   -3.80   18.10
  17   7  -8  -13.10   15.50
  17   7  -8  -34.50   16.40
  17   7  -8   -4.80   18.30
 -17   7   8    1.50   22.60
 -15  -7   8   78.89   18.10
 -15  -7   8  109.79   15.20
 -15  -7   8   90.19   16.00
 -15  -7   8  141.49   21.80
  15   7  -8   82.39   18.70
  15   7  -8   67.89   17.30
  15   7  -8   82.59   15.60
 -15   7   8   61.69   24.40
  15   7  -8   93.89   21.70
 -13  -7   8   21.40   11.30
 -13  -7   8   -8.00   13.60
 -13  -7   8   18.60   16.10
  13   7  -8   17.70   18.40
  13   7  -8   29.00   17.30
 -13   7   8  -10.50   22.10
  13   7  -8  -22.10   12.50
 -11  -7   8  356.26   27.10
 -11  -7   8  311.87   22.30
 -11  -7   8  303.57   28.00
  11   7  -8  326.97   25.30
  11   7  -8  370.86   33.30
  11   7  -8  334.57   29.70
 -11   7   8  329.77   38.70
  -9  -7   8   32.90   27.10
  -9  -7   8   65.99   17.90
  -9  -7   8   33.50   11.10
  -9   7   8   31.20   23.70
   9   7  -8   16.90   16.80
   9   7  -8   37.60   12.50
   9   7  -8   22.70   14.40
   7  -7  -8   14.90   15.10
  -7  -7   8   58.19   14.50
  -7  -7   8   57.69   15.70
   7   7  -8   72.19   15.60
  -7   7   8   35.70   22.50
   7   7  -8   64.79   17.90
   7   7  -8   59.19   14.50
   7   7  -8   52.89   20.70
  -5  -7   8  532.75   31.70
  -5  -7   8  499.85   33.40
   5  -7  -8  431.26   35.50
  -5   7   8  531.25   35.00
  -5   7   8  482.65   41.40
   5   7  -8  495.45   52.49
   5   7  -8  539.45   31.20
   3  -7  -8   20.90   18.50
  -3  -7   8   68.19   16.40
  -3  -7   8   41.40   18.20
  -3   7   8   -9.30   21.50
   3   7  -8   29.10   14.50
  -3   7   8   -1.10   17.10
   3   7  -8   39.10   22.50
   3   7  -8    6.20   17.90
   1  -7  -8   28.00   21.50
  -1  -7   8   -4.80   18.90
   1  -7  -8  -33.70   13.40
  -1  -7   8   24.10   20.30
   1   7  -8  -12.70   18.20
  -1   7   8   34.70   22.90
  -1   7   8  -10.90   19.00
   1   7  -8   13.50   17.20
   1  -7   8  -13.00   20.90
  -1  -7  -8   -8.50   17.70
  -1  -7  -8    6.00   21.50
  -1   7  -8   23.80   25.60
  -1   7  -8   35.30   20.20
  -1   7  -8    7.20   21.70
   1   7   8  -13.70   23.20
   1   7   8    8.00   23.40
   3  -7   8   42.00   21.30
  -3  -7  -8   46.90   21.10
  -3   7  -8   34.40   28.40
  -3   7  -8   51.49   23.30
   3   7   8   63.59   28.40
  -3   7  -8   58.39   21.40
 -18  -8   8   13.40   29.50
 -18  -8   8  -10.10   14.70
 -18  -8   8    0.90   18.70
  18   8  -8   28.10   19.90
  18   8  -8  -12.60   17.90
 -18   8   8   26.00   20.50
 -16  -8   8   12.60   12.70
 -16  -8   8   -6.70   15.80
 -16  -8   8   -1.20   19.40
 -16  -8   8   -1.00   16.90
  16   8  -8   -8.10   15.90
  16   8  -8   73.19   19.50
 -16   8   8   -5.10   25.30
  16   8  -8  -10.30   16.20
 -14  -8   8   18.10   14.60
 -14  -8   8   69.89   19.90
 -14  -8   8   53.79   17.80
 -14   8   8   90.79   25.10
  14   8  -8   58.09   15.60
  14   8  -8   43.40   15.50
  14   8  -8   84.69   18.80
  14   8  -8   64.69   20.90
 -12  -8   8   78.99   16.60
 -12  -8   8   64.49   17.10
 -12  -8   8   96.79   13.40
  12   8  -8   57.89   19.40
 -12   8   8   83.09   27.20
  12   8  -8   83.79   15.50
  12   8  -8   83.59   22.30
 -10  -8   8  132.79   15.40
 -10  -8   8  158.68   18.30
 -10  -8   8  136.69   17.90
  10   8  -8  131.69   19.50
  10   8  -8  152.08   18.50
  10   8  -8  158.08   24.60
 -10   8   8  102.89   26.90
  -8  -8   8   15.00   12.10
  -8  -8   8   18.50   15.60
  -8   8   8   -4.00   24.00
   8   8  -8   32.10   14.00
   8   8  -8   -1.20   18.40
   8   8  -8   20.20   16.70
   6  -8  -8  226.38   28.80
  -6  -8   8  261.97   25.60
  -6  -8   8  241.58   27.20
  -6   8   8  239.98   27.80
  -6   8   8  137.59   28.10
   6   8  -8  266.57   30.60
   6   8  -8  254.27   25.00
   6   8  -8  226.08   25.00
   6   8  -8  258.77   29.70
  -4  -8   8  213.48   22.20
  -4  -8   8  193.08   20.10
   4  -8  -8  157.78   21.40
  -4   8   8  182.18   26.50
  -4   8   8  194.58   21.30
   4   8  -8  192.78   20.20
   4   8  -8  198.28   35.30
   4   8  -8  178.28   23.50
  -2  -8   8   26.10   19.10
  -2  -8   8   17.30   18.60
   2  -8  -8   42.30   14.30
   2  -8  -8   19.10   21.30
  -2   8   8   -4.90   19.20
  -2   8   8    4.20   22.30
   2   8  -8   34.50   15.90
   2   8  -8    7.60   29.60
   2   8  -8   11.40   20.20
   0  -8  -8   10.20   16.90
   0  -8  -8  -15.90   22.50
   0  -8   8   39.00   21.80
   0   8  -8  -10.60   21.10
   0   8   8    7.30   23.80
   0   8   8   -2.20   22.20
   0   8  -8   36.30   17.90
   0   8  -8  -19.70   37.80
   2  -8   8   37.80   22.60
  -2  -8  -8   -8.20   19.70
  -2  -8  -8   21.30   17.90
   2   8   8   41.80   40.00
  -2   8  -8   27.90   22.50
   2   8   8   -4.70   27.30
  -2   8  -8   -5.30   24.10
  -2   8  -8    8.10   27.60
 -17  -9   8   16.30   19.30
 -17  -9   8   28.30   15.90
  17   9  -8   20.60   19.40
  17   9  -8   12.20   18.50
 -17   9   8    2.40   21.10
 -15  -9   8    1.00   17.70
 -15  -9   8   -7.90   18.00
 -15  -9   8    6.30   12.60
 -15  -9   8   20.90   16.60
 -15   9   8   52.39   26.10
  15   9  -8   40.00   17.30
  15   9  -8    1.70   20.60
  15   9  -8   23.70   16.10
 -15   9   8   14.00   17.70
 -13  -9   8   -0.40   18.50
 -13  -9   8   -7.70   17.20
 -13  -9   8   -8.60   11.80
 -13  -9   8  -28.10   14.60
  13   9  -8  -20.40   14.70
 -13   9   8  -16.40   23.90
  13   9  -8   12.20   22.00
  13   9  -8   -5.30   18.30
 -11  -9   8  181.88   20.50
 -11  -9   8  178.98   21.00
 -11  -9   8  159.58   20.60
  11   9  -8  181.78   20.00
  11   9  -8  178.68   22.80
 -11   9   8  165.38   30.90
  11   9  -8  203.78   26.10
  -9  -9   8   21.60   13.10
  -9  -9   8   29.70   16.10
  -9  -9   8   18.00   15.20
   9   9  -8   29.30   20.70
   9   9  -8   29.20   14.50
  -9   9   8   19.40   27.30
   9   9  -8   56.19   19.70
  -7  -9   8   14.10   16.90
  -7   9   8   26.00   26.20
   7   9  -8   42.60   19.10
   7   9  -8   15.80   18.50
   7   9  -8    5.70   20.20
   7   9  -8   10.60   13.70
  -5  -9   8  204.68   21.00
  -5  -9   8  186.18   20.60
   5  -9  -8  181.68   20.90
   5   9  -8  255.97   42.70
   5   9  -8  205.48   20.90
  -5   9   8  180.68   27.30
   5   9  -8  191.48   24.30
   5   9  -8  208.48   26.40
  -3  -9   8   22.70   16.90
   3  -9  -8   27.80   19.70
  -3   9   8   27.20   23.10
   3   9  -8   24.70   28.60
   3   9  -8   35.10   17.40
   3   9  -8   24.10   19.90
  -3   9   8  -34.20   18.00
   1  -9  -8   25.50   17.60
   1  -9  -8    8.10   21.90
  -1  -9   8   50.19   20.30
   1   9  -8   24.90   19.50
  -1   9   8   26.60   24.30
   1   9  -8   14.20   24.20
   1   9  -8   44.50   32.80
  -1   9   8    5.80   21.00
  -1  -9  -8   16.60   18.60
   1  -9   8   78.29   41.50
  -1   9  -8   29.90   23.00
  -1   9  -8  -11.60   44.20
   1   9   8  -18.50   25.80
   1   9   8  -45.90   23.40
  -1   9  -8  -21.60   22.60
 -16 -10   8   19.90   19.70
 -16 -10   8  -16.40   15.30
  16  10  -8   26.50   18.80
 -16  10   8  -30.40   23.20
 -14 -10   8   32.20   20.50
 -14 -10   8   29.80   14.60
 -14 -10   8   34.60   17.80
 -14  10   8   18.20   18.50
  14  10  -8   21.30   17.80
 -12 -10   8   47.20   13.60
 -12 -10   8   46.10   21.00
 -12 -10   8   40.20   20.10
 -12 -10   8   59.79   17.40
  12  10  -8   43.90   18.00
  12  10  -8   57.89   20.00
 -12  10   8   10.40   26.30
  12  10  -8   86.99   24.90
 -10 -10   8   98.79   17.80
 -10 -10   8  106.79   15.40
 -10 -10   8   77.79   18.90
 -10  10   8   75.59   28.10
  10  10  -8  105.29   17.90
  10  10  -8  122.59   22.00
  10  10  -8   47.70   22.80
  -8 -10   8  -11.20   16.90
  -8 -10   8   11.20   15.70
  -8 -10   8    4.40   12.80
  -8  10   8   -1.80   24.90
   8  10  -8    3.70   15.90
   8  10  -8    7.00   22.50
   8  10  -8    2.70   18.00
  -6 -10   8   78.89   18.50
   6 -10  -8   66.29   16.00
   6  10  -8  109.29   18.80
   6  10  -8  113.89   22.60
  -6  10   8   68.69   25.80
   6  10  -8  103.49   24.80
   6  10  -8  105.69   23.80
   4 -10  -8   53.09   21.60
   4 -10  -8   59.69   18.40
  -4 -10   8  101.39   18.10
  -4  10   8   70.09   25.10
   4  10  -8   94.39   19.30
   4  10  -8   94.39   24.30
   4  10  -8   40.00   25.80
  -2 -10   8   21.00   18.90
   2 -10  -8   10.10   20.70
   2 -10  -8  -36.90   17.50
  -2  10   8   10.20   24.90
   2  10  -8   16.00   28.10
  -2  10   8   17.20   20.80
   2  10  -8   14.70   19.20
   2  10  -8   25.30   25.10
   0 -10   8   51.89   24.80
   0 -10  -8   -9.50   18.10
   0  10  -8  -23.40   22.90
   0  10   8    9.60   26.00
   0  10   8   26.90   24.60
   0  10  -8  -13.80   22.80
   0  10  -8   20.60   29.90
 -13 -11   8   19.80   17.80
 -13 -11   8   -7.10   20.40
 -13 -11   8    7.60   15.40
 -13  11   8   16.10   19.90
  13  11  -8  -21.80   19.10
 -11 -11   8   51.39   15.10
 -11 -11   8   89.19   21.70
 -11 -11   8   76.99   18.50
  11  11  -8   39.00   25.60
  11  11  -8   27.40   17.90
  -9 -11   8   25.50   20.10
  -9 -11   8   36.50   17.20
  -9 -11   8   15.00   14.80
   9  11  -8   17.90   20.00
   9  11  -8  -24.80   17.70
   9  11  -8   -2.50   23.00
  -7 -11   8   61.39   17.10
  -7  11   8   -6.70   38.80
   7  11  -8   23.90   20.00
   7  11  -8   48.90   23.70
   7  11  -8   58.19   18.60
   5 -11  -8  141.89   20.60
  -5 -11   8  170.78   32.50
   5  11  -8  165.58   27.50
   5  11  -8  150.68   23.30
  -5  11   8  130.89   28.90
   5  11  -8  196.18   29.30
   5  11  -8  196.58   23.10
   3 -11  -8   28.20   19.50
  -3 -11   8    8.40   20.20
   3 -11  -8    7.40   20.40
   3  11  -8   -1.00   19.90
  -3  11   8   28.00   25.80
   3  11  -8  -16.40   35.00
  -3  11   8   12.90   21.10
   3  11  -8   -1.00   24.20
 -10 -12   8   47.70   17.40
 -10 -12   8   44.10   17.60
 -10 -12   8   40.20   21.40
  10  12  -8   36.40   21.50
  10  12  -8   42.50   28.00
  -8 -12   8   13.10   15.90
  -8 -12   8    7.10   16.90
   8  12  -8    9.70   21.20
   8  12  -8    0.20   27.90
   6 -12  -8   41.30   20.40
  -6 -12   8   64.09   19.50
   6  12  -8   53.89   21.10
   6  12  -8  114.79   25.70
   6  12  -8  104.39   29.40
 -22   0   9   -7.10   19.80
 -22   0   9  -26.20   23.20
  22   0  -9   -5.30   23.70
 -22   0   9   15.70   19.80
 -20   0   9   -0.90   14.70
 -20   0   9   21.90   18.90
 -20   0   9  -18.80   16.40
 -20   0   9  -22.10   18.60
  20   0  -9   -2.00   17.50
 -18   0   9   18.00   14.40
 -18   0   9   -0.90   17.70
 -18   0   9    5.40   16.80
  18   0  -9   18.10   15.60
 -18   0   9    8.50   13.20
  18   0  -9    9.80   16.90
  16   0  -9   32.10   15.10
 -16   0   9   11.60   14.80
 -16   0   9   23.00   12.10
  16   0  -9    5.50   13.60
 -14   0   9  316.87   31.50
 -14   0   9  316.77   24.80
  14   0  -9  286.07   28.70
 -14   0   9  266.17   28.70
  14   0  -9  304.57   29.20
  14   0  -9  281.37   22.90
  14   0  -9  256.27   31.90
  12   0  -9  376.66   25.30
  12   0  -9  350.96   27.60
 -12   0   9  397.96   26.40
  12   0  -9  332.47   29.30
 -12   0   9  367.26   32.90
 -12   0   9  335.67   30.50
 -10   0   9   -4.30   16.50
  10   0  -9   -9.70   23.80
  10   0  -9   18.30   13.00
 -10   0   9   14.00   16.20
 -10   0   9   44.30   12.50
  10   0  -9    0.80   14.60
   8   0  -9   60.49   18.90
  -8   0   9   58.69   18.30
   8   0  -9   70.79   14.50
  -8   0   9   60.29   15.10
   8   0  -9   36.80   15.90
  -8   0   9   82.59   21.10
   6   0  -9   24.00   20.40
  -6   0   9   41.20   17.30
  -6   0   9   74.49   23.10
   6   0  -9   14.60   13.80
   4   0  -9   90.99   15.40
  -4   0   9   83.99   21.30
   4   0  -9   77.19   20.80
  -4   0   9   93.49   19.30
  -4   0   9   94.49   23.20
   2   0  -9   74.29   23.00
   2   0  -9   75.89   15.80
  -2   0   9   69.79   23.70
  -2   0   9   60.79   19.80
   0   0   9   28.10   23.30
   0   0  -9   52.79   16.40
   0   0  -9   37.90   21.30
   0   0   9   21.40   18.30
   2   0   9   45.10   25.60
  -2   0  -9  117.39   20.60
  -2   0  -9   67.19   24.00
   2   0   9  101.29   22.50
  -4   0  -9  -37.30   22.50
  -4   0  -9   13.20   21.70
   4   0   9   32.70   25.40
 -21  -1   9   15.00   22.50
 -21  -1   9    0.10   17.50
  21  -1  -9  -13.50   19.30
 -21  -1   9    4.10   17.70
 -21  -1   9   17.30   18.50
 -21   1   9    1.60   19.40
  21   1  -9   29.70   20.00
 -21   1   9   -6.50   15.50
 -21   1   9   -7.00   17.30
 -21   1   9    7.50   20.20
 -19  -1   9    8.80   16.10
 -19  -1   9  -11.50   20.70
  19  -1  -9   -1.50   15.70
 -19  -1   9   -6.50   14.30
 -19  -1   9   12.60   18.40
 -19   1   9   -8.20   14.80
  19   1  -9    5.30   15.90
 -19   1   9   12.10   17.80
 -19   1   9   31.10   17.70
 -19   1   9   -9.70   13.60
  19   1  -9   33.10   13.80
 -17  -1   9   -9.40   13.10
  17  -1  -9    9.80   14.20
 -17  -1   9   12.00   18.00
 -17  -1   9   -3.10   16.60
  17  -1  -9   24.40   15.00
 -17  -1   9   -9.80   12.50
  17   1  -9   12.30   14.50
 -17   1   9   32.40   13.90
  17   1  -9  -13.40   14.30
  17   1  -9  -28.60   14.30
 -17   1   9   -8.30   16.90
 -17   1   9   11.60   16.80
  17   1  -9   -0.60   17.00
 -17   1   9   -1.50   12.70
  15  -1  -9   94.99   16.30
 -15  -1   9   82.69   19.10
  15  -1  -9  114.99   17.80
 -15  -1   9  116.19   15.60
 -15   1   9  114.09   20.50
  15   1  -9  114.09   17.90
 -15   1   9  105.89   17.60
  15   1  -9   99.89   16.00
  15   1  -9   88.29   14.60
 -15   1   9  110.99   16.80
  15   1  -9   97.49   16.60
 -13  -1   9  290.87   24.30
 -13  -1   9  232.88   23.00
  13  -1  -9  281.87   26.50
 -13   1   9  301.37   23.70
  13   1  -9  265.07   29.00
  13   1  -9  260.67   26.30
 -13   1   9  292.27   28.60
 -13   1   9  270.87   31.40
  13   1  -9  245.88   22.70
  13   1  -9  251.97   23.70
 -11  -1   9   48.90   16.80
  11  -1  -9   66.49   15.80
 -11  -1   9   99.39   19.60
  11  -1  -9   71.99   13.60
  11  -1  -9   66.39   16.30
 -11  -1   9   75.69   14.70
 -11   1   9   80.19   17.80
  11   1  -9   73.59   15.30
  11   1  -9   75.29   19.00
  11   1  -9   80.09   14.00
 -11   1   9   54.89   19.80
 -11   1   9   44.50   13.30
  -9  -1   9   70.49   19.60
  -9  -1   9   90.09   16.60
   9  -1  -9   98.99   15.60
   9  -1  -9   86.09   15.00
  -9  -1   9   76.29   14.60
   9  -1  -9   76.19   17.40
  -9   1   9   65.79   19.10
   9   1  -9   78.29   16.80
  -9   1   9   65.59   21.20
   9   1  -9   45.40   17.00
  -9   1   9   56.89   14.90
   9   1  -9   97.29   15.80
  -7  -1   9   96.99   17.40
   7  -1  -9  119.99   20.70
  -7  -1   9   91.29   22.60
   7  -1  -9  128.29   15.30
   7   1  -9  114.99   22.10
  -7   1   9  124.49   20.30
  -7   1   9   99.69   23.80
   7   1  -9   90.79   18.50
  -7   1   9  119.09   22.80
   5  -1  -9   49.80   16.20
  -5  -1   9   55.49   17.80
   5  -1  -9   11.90   19.30
  -5  -1   9   54.99   21.60
   5   1  -9   79.59   20.90
  -5   1   9   87.59   19.50
   5   1  -9   53.29   15.60
  -5   1   9   21.40   22.00
  -5   1   9   54.39   20.10
   3  -1  -9  133.09   17.40
  -3  -1   9  139.69   22.40
   3  -1  -9  126.19   23.10
  -3  -1   9  127.29   25.50
   3   1  -9  164.38   24.60
   3   1  -9  152.58   18.80
  -3   1   9  160.08   24.00
  -3   1   9  132.79   26.40
   1  -1  -9   -0.10   20.10
   1  -1  -9   -9.30   13.50
  -1  -1   9   -5.80   23.30
  -1  -1   9   33.10   18.60
   1   1  -9   20.30   15.10
  -1   1   9   31.10   17.70
  -1   1   9  -24.50   20.70
   1   1  -9  -21.90   19.10
   1  -1   9   35.00   19.10
  -1  -1  -9   49.80   21.70
   1  -1   9   92.69   25.80
  -1  -1  -9   99.49   18.40
   1   1   9  118.59   25.10
  -1   1  -9  101.99   18.20
   1   1   9   98.59   21.50
  -1   1  -9   77.09   23.80
   3  -1   9   87.29   22.00
   3  -1   9  127.09   27.00
  -3  -1  -9   51.89   20.70
  -3  -1  -9   42.50   22.30
  -3   1  -9   71.99   20.20
   3   1   9   85.89   23.60
   3   1   9  113.69   27.90
  -3   1  -9   90.49   23.80
 -20  -2   9    6.70   18.60
 -20  -2   9   -9.90   19.50
  20  -2  -9    8.40   18.50
 -20  -2   9    6.90   16.70
 -20  -2   9   25.80   16.70
  20   2  -9   23.10   17.60
 -20   2   9   -3.10   20.20
  20   2  -9   34.60   18.00
 -20   2   9    2.80   18.80
 -20   2   9  -12.10   14.30
  20   2  -9  -10.50   15.00
 -20   2   9   17.00   15.20
 -18  -2   9  -13.20   17.10
 -18  -2   9   -2.20   20.00
 -18  -2   9  -13.60   14.70
  18  -2  -9   -5.30   15.00
 -18  -2   9   13.90   13.10
  18  -2  -9   -2.70   15.90
 -18   2   9  -12.70   13.10
 -18   2   9  -13.40   16.50
 -18   2   9    4.10   17.50
  18   2  -9   -1.30   13.70
  18   2  -9   10.80   15.00
 -18   2   9   -0.30   13.30
  18   2  -9   -9.00   17.10
  18   2  -9   16.40   16.20
 -16  -2   9    5.50   16.90
  16  -2  -9    6.50   14.30
 -16  -2   9    6.00   12.80
  16  -2  -9   14.00   13.60
  16   2  -9   -4.20   15.10
 -16   2   9   22.40   12.70
 -16   2   9    0.00   16.40
  16   2  -9   21.00   13.60
 -16   2   9   48.30   19.60
  16   2  -9  -25.40   15.50
  16   2  -9   21.80   13.40
 -14  -2   9  201.78   22.50
 -14  -2   9  172.38   20.90
  14  -2  -9  204.68   23.10
  14  -2  -9  181.98   19.60
  14   2  -9  189.88   22.80
  14   2  -9  194.78   20.30
 -14   2   9  196.98   22.00
  14   2  -9  132.89   20.40
  14   2  -9  206.78   21.70
 -14   2   9  182.18   21.90
 -14   2   9  184.78   24.40
 -12  -2   9  201.58   21.50
 -12  -2   9  230.48   22.00
  12  -2  -9  176.68   19.60
 -12   2   9  193.28   22.00
 -12   2   9  222.48   24.70
 -12   2   9  166.88   20.70
  12   2  -9  234.58   25.20
  12   2  -9  155.98   26.30
  12   2  -9  195.08   21.20
  12   2  -9  197.98   20.40
 -10  -2   9   66.89   18.90
  10  -2  -9   54.59   15.70
 -10  -2   9   56.99   13.60
 -10   2   9   76.19   35.90
  10   2  -9   58.19   18.70
 -10   2   9   45.60   15.10
  10   2  -9   68.09   18.60
 -10   2   9   61.29   19.90
  10   2  -9   63.99   15.20
  -8  -2   9  208.88   22.80
   8  -2  -9  197.88   24.40
   8  -2  -9  194.68   21.90
   8  -2  -9  194.08   17.70
  -8  -2   9  170.38   21.90
  -8   2   9  184.88   22.90
   8   2  -9  196.08   23.90
   8   2  -9  175.18   21.70
   8   2  -9  209.08   21.90
  -8   2   9  160.38   25.30
  -8   2   9  168.88   24.80
  -6  -2   9   -8.30   18.50
   6  -2  -9   32.90   13.20
  -6  -2   9    5.40   15.10
   6  -2  -9    6.80   17.50
   6   2  -9   18.70   13.10
  -6   2   9   -3.10   22.50
  -6   2   9    6.00   21.40
  -6   2   9  -17.40   16.50
   6   2  -9   22.80   18.00
   4  -2  -9  280.27   34.70
  -4  -2   9  183.58   27.30
   4  -2  -9  247.28   26.70
  -4  -2   9  169.78   23.90
   4   2  -9  223.98   22.20
  -4   2   9  198.38   29.40
   4   2  -9  206.88   26.20
  -4   2   9  334.47   33.70
  -2  -2   9   65.99   20.10
   2  -2  -9   57.19   15.90
  -2  -2   9   62.99   23.00
   2  -2  -9   36.50   21.00
  -2   2   9   68.99   22.60
  -2   2   9   77.49   18.60
   2   2  -9   57.39   13.80
   2   2  -9   95.49   23.00
   2   2  -9   61.79   14.80
   0  -2  -9   51.59   18.60
   0  -2   9   64.39   24.90
   0  -2  -9   64.59   21.20
   0  -2   9   33.90   18.90
   0   2   9  106.79   21.70
   0   2  -9   87.49   23.00
   0   2   9   35.00   24.70
   0   2  -9   54.99   15.90
  -2  -2  -9  161.48   24.70
   2  -2   9  140.79   28.90
   2  -2   9  162.48   24.90
  -2  -2  -9  251.37   30.20
   2   2   9  145.99   27.30
   2   2   9  171.18   26.10
  -2   2  -9  116.39   20.60
  -2   2  -9  164.08   26.80
   4  -2   9   61.39   33.40
  -4  -2  -9   78.79   24.50
   4  -2   9   21.60   21.90
   4   2   9   66.59   27.00
  -4   2  -9   34.20   20.70
  -4   2  -9  -34.20   23.70
 -21  -3   9  -13.70   19.30
 -21  -3   9   14.60   23.40
 -21  -3   9   35.10   19.10
  21  -3  -9   18.10   21.00
 -21   3   9   19.20   16.20
  21   3  -9   -7.20   18.00
 -21   3   9   10.40   16.10
  21   3  -9   17.00   16.00
 -21   3   9   19.40   20.80
  21   3  -9  -14.30   20.60
 -19  -3   9    0.60   18.20
  19  -3  -9    6.00   17.80
 -19  -3   9  -10.30   15.40
 -19  -3   9  -13.10   20.40
 -19  -3   9   34.80   15.80
  19   3  -9   -9.50   14.20
  19   3  -9    5.50   17.00
  19   3  -9   -7.00   18.40
 -19   3   9   -7.60   13.40
 -19   3   9  -13.30   18.40
 -19   3   9   13.30   14.40
 -19   3   9   -2.30   18.00
 -17  -3   9  -31.00   13.00
 -17  -3   9   13.10   18.40
 -17  -3   9  -13.70   17.70
  17  -3  -9   15.80   14.40
  17  -3  -9   18.30   15.40
  17   3  -9   -4.40   12.40
 -17   3   9   31.20   23.30
  17   3  -9   -9.00   16.60
 -17   3   9    9.20   16.60
  17   3  -9    4.00   18.60
 -17   3   9   -9.70   16.70
 -17   3   9    3.10   13.60
  17   3  -9   11.50   14.50
 -17   3   9   11.20   13.10
 -15  -3   9   97.69   15.10
  15  -3  -9   75.19   16.20
 -15  -3   9   67.89   18.70
  15  -3  -9   88.29   16.20
  15   3  -9   97.39   15.40
 -15   3   9  109.39   15.80
 -15   3   9  110.69   18.40
  15   3  -9  119.79   20.00
  15   3  -9   86.59   17.20
 -15   3   9  109.19   22.00
 -13  -3   9  464.35   33.30
  13  -3  -9  489.45   31.20
 -13  -3   9  440.96   30.30
  13   3  -9  468.55   28.10
  13   3  -9  513.15   32.40
  13   3  -9  492.25   35.90
  13   3  -9  499.05   28.80
 -13   3   9  491.85   29.30
 -13   3   9  341.57   35.30
 -13   3   9  484.95   38.40
  11  -3  -9  175.78   18.80
 -11  -3   9  169.78   21.80
 -11  -3   9  172.98   20.50
  11   3  -9  152.98   20.50
  11   3  -9  196.78   19.80
 -11   3   9  171.68   24.40
 -11   3   9  165.68   19.80
  11   3  -9  179.18   21.60
  -9  -3   9   45.90   17.50
  -9  -3   9   54.09   14.30
   9  -3  -9   37.70   17.60
   9   3  -9   43.30   13.60
  -9   3   9   34.90   17.80
  -9   3   9   17.30   20.20
   9   3  -9   70.89   18.40
  -9   3   9  -11.50   21.50
   9   3  -9   50.79   17.20
  -7  -3   9   99.29   16.30
   7  -3  -9  110.49   14.80
   7  -3  -9  118.59   20.30
  -7  -3   9  124.69   20.60
   7   3  -9  116.59   16.60
  -7   3   9  103.29   24.60
  -7   3   9   78.69   24.10
  -7   3   9  124.39   22.80
   7   3  -9  113.19   20.20
   5  -3  -9   23.40   13.60
   5  -3  -9   14.20   18.90
  -5  -3   9   32.40   16.90
  -5  -3   9  -14.00   19.80
  -5   3   9   29.20   18.20
  -5   3   9   22.60   23.10
   5   3  -9    3.20   20.20
   5   3  -9   10.80   14.80
   3  -3  -9  187.38   24.80
  -3  -3   9  209.68   24.80
  -3  -3   9  178.28   25.60
   3  -3  -9  222.68   21.50
   3   3  -9  201.68   24.50
   3   3  -9  192.38   26.30
  -3   3   9  211.98   27.20
  -3   3   9  273.97   30.40
  -1  -3   9  122.29   22.60
   1  -3  -9  107.19   18.00
  -1  -3   9   86.79   25.80
   1  -3  -9  135.09   22.30
  -1   3   9  103.49   26.80
   1   3  -9  109.79   17.60
   1   3  -9  127.59   16.80
  -1   3   9  170.68   21.90
   1   3  -9   97.09   24.40
  -1  -3  -9  196.78   22.80
   1  -3   9  163.88   24.90
  -1  -3  -9  164.08   25.00
   1  -3   9  159.88   29.60
   1   3   9  170.58   28.40
  -1   3  -9  178.78   27.20
  -1   3  -9  159.58   19.90
   1   3   9  183.38   27.30
   3  -3   9    6.20   27.20
  -3  -3  -9   77.99   29.30
   3  -3   9   60.09   21.90
  -3  -3  -9  106.99   24.60
  -3   3  -9   53.79   26.80
   3   3   9   95.49   26.40
  -3   3  -9   88.19   21.30
 -20  -4   9    9.60   21.60
 -20  -4   9    7.30   18.00
  20  -4  -9   -3.30   19.80
 -20  -4   9   -8.90   17.90
  20   4  -9   17.90   19.40
 -20   4   9   -5.30   20.50
  20   4  -9   30.20   16.10
 -20   4   9  -17.40   15.20
  20   4  -9   15.30   20.40
 -18  -4   9    1.40   20.00
  18  -4  -9   -9.10   16.10
 -18  -4   9   -0.90   17.20
 -18  -4   9   16.20   14.70
 -18  -4   9   -3.00   11.70
 -18  -4   9  -15.00   14.20
  18   4  -9    4.90   15.10
  18   4  -9   13.70   18.30
 -18   4   9    1.90   16.60
  18   4  -9    0.90   14.20
 -18   4   9   -0.70   24.00
 -18   4   9   -8.20   13.70
 -16  -4   9   37.80   17.70
 -16  -4   9    4.30   13.30
 -16  -4   9   33.40   17.30
  16  -4  -9   12.40   14.50
  16   4  -9    5.30   15.40
  16   4  -9    9.50   13.30
 -16   4   9   36.60   17.10
  16   4  -9    3.10   18.00
  16   4  -9   14.90   14.60
 -16   4   9   25.60   21.80
 -14  -4   9  260.17   24.00
 -14  -4   9  206.58   23.10
  14  -4  -9  278.57   27.00
 -14   4   9  265.37   25.30
  14   4  -9  255.07   27.90
  14   4  -9  303.47   30.80
  14   4  -9  323.97   24.50
  14   4  -9  331.77   24.50
 -14   4   9  293.97   35.60
 -12  -4   9  265.17   28.40
  12  -4  -9  243.88   25.80
 -12  -4   9  294.57   25.70
 -12   4   9  278.97   37.20
  12   4  -9  258.77   24.40
  12   4  -9  255.17   28.50
 -12   4   9  272.17   28.90
 -12   4   9  275.77   37.10
  12   4  -9  232.88   24.90
 -10  -4   9  125.09   20.60
  10  -4  -9   58.49   16.10
 -10  -4   9   86.59   15.20
 -10   4   9  108.39   21.00
  10   4  -9   92.09   17.40
  10   4  -9   94.89   20.20
 -10   4   9   93.39   25.40
  10   4  -9   92.49   15.70
  -8  -4   9  134.19   21.00
   8  -4  -9  122.39   19.40
  -8  -4   9  161.58   18.00
  -8   4   9  158.78   25.80
   8   4  -9  181.98   18.70
  -8   4   9  122.69   27.40
   8   4  -9  172.28   22.90
   8   4  -9  175.68   21.90
  -8   4   9  154.08   22.40
  -6  -4   9   17.60   14.30
   6  -4  -9  -23.30   18.20
   6  -4  -9    4.50   12.70
  -6  -4   9   24.90   19.40
   6   4  -9  -10.40   18.20
  -6   4   9   10.90   19.00
  -6   4   9   30.30   24.80
  -6   4   9   13.90   20.70
   6   4  -9    1.30   14.10
   4  -4  -9  208.48   24.40
  -4  -4   9  181.98   25.40
   4  -4  -9  177.38   23.00
  -4  -4   9  165.08   21.90
  -4   4   9  153.28   26.60
   4   4  -9  149.39   18.90
   4   4  -9  165.58   25.90
  -4   4   9  203.68   23.20
  -2  -4   9   63.79   22.40
  -2  -4   9   99.79   21.60
   2  -4  -9   92.39   21.50
   2  -4  -9   75.09   16.70
   2   4  -9   77.59   16.70
  -2   4   9  120.29   25.80
  -2   4   9   98.79   21.00
   2   4  -9   84.29   23.90
   2   4  -9   87.59   17.60
   0  -4  -9   36.80   20.70
   0  -4   9   85.59   22.10
   0  -4  -9   77.79   18.10
   0  -4   9   62.59   26.80
   0   4  -9   78.69   17.80
   0   4  -9   39.30   24.90
   0   4   9   16.20   25.00
   0   4   9   75.49   20.80
   0   4  -9  113.89   19.80
   2  -4   9  149.29   30.80
   2  -4   9  116.69   23.20
  -2  -4  -9  130.59   24.20
  -2  -4  -9  111.29   22.50
  -2   4  -9  130.99   21.30
  -2   4  -9  148.59   21.20
   2   4   9  107.89   27.00
   2   4   9  142.59   42.10
  -2   4  -9  117.29   27.00
 -19  -5   9   25.10   22.40
 -19  -5   9    0.80   17.50
 -19  -5   9   16.70   15.90
 -19  -5   9    4.60   13.50
  19  -5  -9   23.70   18.90
  19   5  -9  -12.50   17.60
  19   5  -9   -6.50   17.30
  19   5  -9   11.20   16.80
 -17  -5   9  -20.00   14.80
 -17  -5   9  -12.70   19.30
 -17  -5   9   11.90   11.70
 -17  -5   9   24.40   17.00
  17   5  -9   21.80   19.00
 -17   5   9  -11.70   23.50
  17   5  -9   32.40   14.50
  17   5  -9   -2.40   14.90
  17   5  -9    9.90   18.90
 -15  -5   9   69.69   11.30
 -15  -5   9   63.59   16.20
 -15  -5   9   46.80   15.00
  15   5  -9   52.99   15.00
  15   5  -9   66.09   18.30
  15   5  -9   83.69   19.80
 -15   5   9   52.19   24.50
  15   5  -9   33.40   13.90
 -13  -5   9  151.28   18.90
 -13  -5   9  124.89   16.20
  13   5  -9  153.28   17.10
 -13   5   9  148.59   20.60
  13   5  -9  152.08   22.10
 -13   5   9  142.39   26.10
  13   5  -9  113.89   19.20
 -11  -5   9   26.70   15.40
  11  -5  -9   47.70   15.00
 -11  -5   9   30.50   14.30
  11   5  -9   32.20   16.80
 -11   5   9   19.30   23.50
 -11   5   9   41.40   19.40
  11   5  -9   45.50   13.60
  11   5  -9   65.09   19.40
 -11   5   9   22.00   22.70
   9  -5  -9   68.69   16.90
  -9  -5   9   76.89   18.20
  -9  -5   9   60.09   14.90
   9   5  -9   53.29   20.10
   9   5  -9   79.79   15.10
  -9   5   9   49.80   19.50
  -9   5   9   61.89   25.60
  -9   5   9   47.20   26.30
   9   5  -9   51.99   17.50
  -7  -5   9   57.09   20.00
   7  -5  -9   71.49   19.40
  -7  -5   9   76.39   15.90
   7   5  -9   62.19   14.70
  -7   5   9   79.19   26.50
  -7   5   9   -3.20   23.30
  -7   5   9   81.79   18.70
   7   5  -9   93.99   21.00
  -5  -5   9   51.09   17.20
   5  -5  -9   42.40   18.20
  -5  -5   9   18.10   20.50
  -5   5   9   63.69   18.20
   5   5  -9   35.80   21.20
   5   5  -9   28.90   14.60
  -5   5   9   35.60   22.70
   5   5  -9   66.59   14.70
  -3  -5   9   69.49   19.60
  -3  -5   9   83.89   21.50
   3  -5  -9   58.89   25.40
   3  -5  -9   42.40   19.10
   3   5  -9   88.19   25.60
   3   5  -9   65.19   18.40
   3   5  -9   30.00   16.10
  -3   5   9   78.59   20.20
  -3   5   9   55.79   23.20
   1  -5  -9    5.80   17.40
   1  -5  -9   18.90   20.80
  -1  -5   9   -6.60   21.80
  -1  -5   9    1.90   23.10
  -1   5   9    3.80   25.70
  -1   5   9    8.80   20.20
   1   5  -9   -3.80   17.00
   1   5  -9  -14.00   23.20
   1   5  -9   -5.20   16.80
  -1  -5  -9   41.10   24.40
  -1  -5  -9   55.59   21.40
   1  -5   9   21.70   30.30
   1  -5   9   35.90   21.90
  -1   5  -9   64.39   25.80
  -1   5  -9   30.10   19.10
   1   5   9   55.89   25.80
  -1   5  -9   43.80   19.60
   1   5   9   36.50   26.20
   3  -5   9   61.19   22.80
   3  -5   9  -43.60   28.90
  -3  -5  -9   41.50   24.80
  -3   5  -9   31.10   26.50
   3   5   9    6.10   31.30
  -3   5  -9   91.09   22.60
  -3   5  -9   70.99   22.40
 -20  -6   9    5.60   22.00
 -20  -6   9   11.80   16.10
 -20  -6   9  -47.60   31.40
  20   6  -9   -4.40   21.70
  20   6  -9  -26.10   20.00
 -18  -6   9   -8.50   27.00
 -18  -6   9  -40.80   20.30
 -18  -6   9    1.00   18.00
 -18  -6   9   -8.30   13.60
  18   6  -9  -12.80   16.40
  18   6  -9    4.00   16.40
  18   6  -9    5.80   18.00
 -16  -6   9   16.70   11.70
 -16  -6   9   -4.90   15.70
 -16  -6   9   46.50   20.30
 -16  -6   9   11.80   16.50
 -16   6   9  -18.50   22.50
  16   6  -9   -0.30   21.00
  16   6  -9   -5.10   14.80
  16   6  -9   22.90   18.10
  16   6  -9   -3.50   14.50
 -14  -6   9   99.29   17.40
 -14  -6   9  108.39   12.50
 -14  -6   9   62.09   17.90
  14   6  -9   67.49   21.00
  14   6  -9   97.19   19.80
 -14   6   9   75.99   24.90
  14   6  -9   80.09   15.30
 -12  -6   9   71.99   11.60
 -12  -6   9   71.39   15.00
 -12  -6   9   78.69   18.20
  12   6  -9   77.99   18.70
  12   6  -9   74.99   15.50
  12   6  -9   70.59   20.50
 -12   6   9   57.89   26.00
 -10  -6   9    4.50   16.90
  10  -6  -9   28.00   15.70
 -10  -6   9   -2.70   14.40
  10   6  -9  -16.30   15.80
  10   6  -9   20.10   13.00
  10   6  -9   -0.10   18.90
 -10   6   9    2.50   23.80
  -8  -6   9    1.80   17.80
   8  -6  -9   26.10   17.00
  -8  -6   9   26.10   14.50
   8   6  -9   51.89   20.20
   8   6  -9   17.50   13.50
  -8   6   9    0.90   24.90
   8   6  -9    8.10   17.80
  -8   6   9   13.00   23.30
  -8   6   9    8.60   18.30
   6  -6  -9  -10.40   18.30
  -6  -6   9   15.80   15.00
  -6  -6   9   18.80   18.30
   6   6  -9   15.60   14.20
  -6   6   9   -1.20   17.60
  -6   6   9   36.70   24.80
   6   6  -9   23.40   15.10
  -6   6   9    2.20   23.50
   6   6  -9   23.00   20.70
  -4  -6   9   37.10   20.30
   4  -6  -9    4.10   18.50
  -4  -6   9   63.19   18.80
  -4   6   9   37.20   19.40
  -4   6   9   48.10   24.90
   4   6  -9   31.40   15.60
   4   6  -9   41.80   23.50
   2  -6  -9   27.50   20.30
   2  -6  -9   12.80   17.00
  -2  -6   9   28.50   22.70
  -2  -6   9   23.70   22.70
   2   6  -9    8.40   18.70
   2   6  -9   11.00   24.50
  -2   6   9   79.09   24.70
   2   6  -9    6.10   17.60
  -2   6   9   34.00   20.60
   0  -6  -9    0.00   17.90
   0  -6   9   14.10   26.50
   0  -6  -9   28.80   21.70
   0  -6   9   -9.90   21.60
   0   6  -9    5.40   19.50
   0   6   9   39.00   24.10
   0   6  -9   24.80   25.50
   0   6  -9   15.00   19.40
   0   6   9   24.30   25.10
   2  -6   9   47.30   22.30
   2  -6   9  -14.60   28.20
  -2  -6  -9   71.09   21.80
  -2   6  -9   56.19   27.90
  -2   6  -9   66.29   22.30
  -2   6  -9    5.40   23.30
   2   6   9   28.00   30.40
 -19  -7   9   -6.50   20.80
 -19  -7   9   59.49   22.70
 -19  -7   9    4.40   14.00
  19   7  -9   20.50   20.70
  19   7  -9   20.90   20.50
 -17  -7   9    1.30   12.70
 -17  -7   9    5.50   23.60
 -17  -7   9    6.40   17.10
 -17  -7   9    3.90   18.60
  17   7  -9   -1.80   18.90
  17   7  -9    4.50   17.10
  17   7  -9    3.70   17.50
 -15  -7   9   54.89   14.40
 -15  -7   9   56.89   19.90
 -15  -7   9   52.49   19.90
 -15  -7   9   75.89   17.10
 -15   7   9   38.40   23.80
  15   7  -9   67.69   19.10
  15   7  -9   39.40   16.80
  15   7  -9   60.29   23.60
 -13  -7   9  148.89   15.30
 -13  -7   9  149.49   21.20
 -13  -7   9  142.99   18.50
  13   7  -9  140.19   22.70
 -13   7   9  161.08   30.10
  13   7  -9  146.79   22.10
  13   7  -9  152.68   18.50
 -11  -7   9   35.90   11.50
 -11  -7   9   30.30   17.40
 -11  -7   9   48.80   15.10
  11   7  -9   16.00   17.20
  11   7  -9   12.90   19.30
  11   7  -9   47.40   14.00
 -11   7   9   20.30   26.50
  -9  -7   9   37.10   18.20
   9  -7  -9   19.00   16.50
  -9  -7   9   58.69   15.30
   9   7  -9    9.30   17.70
   9   7  -9   43.70   14.50
  -9   7   9   24.70   26.10
   9   7  -9   45.10   20.90
  -9   7   9   12.40   24.50
   7  -7  -9   12.00   17.20
  -7  -7   9   74.19   19.50
  -7  -7   9   55.79   16.30
   7   7  -9   39.30   23.70
   7   7  -9   52.59   20.20
  -7   7   9   27.70   25.20
  -7   7   9   23.10   18.40
   7   7  -9   52.19   22.60
   7   7  -9   28.90   14.50
  -7   7   9   40.10   25.10
  -5  -7   9   20.70   16.30
   5  -7  -9   -3.40   18.70
  -5  -7   9    3.70   19.80
   5   7  -9   14.30   17.80
   5   7  -9    9.90   16.70
  -5   7   9   14.10   25.10
  -5   7   9   35.20   19.30
   5   7  -9   40.20   23.60
   3  -7  -9   63.49   19.60
  -3  -7   9   82.99   19.50
  -3  -7   9   78.39   23.40
  -3   7   9   34.00   26.00
   3   7  -9   75.49   26.40
   3   7  -9   86.89   19.20
  -3   7   9   26.00   21.50
   3   7  -9   50.99   20.00
   1  -7  -9   40.30   22.10
  -1  -7   9    1.60   24.00
  -1  -7   9   58.09   22.50
   1  -7  -9    5.80   18.80
  -1   7   9   63.19   26.20
   1   7  -9   23.70   26.30
   1   7  -9   19.70   21.10
   1   7  -9   28.30   20.10
  -1   7   9    5.00   25.80
   1  -7   9   58.59   23.80
  -1  -7  -9   37.30   20.70
   1  -7   9   39.90   27.10
  -1   7  -9   55.29   30.70
   1   7   9   98.59   30.50
  -1   7  -9   45.00   25.70
  -1   7  -9  100.19   24.40
 -18  -8   9   -4.10   14.90
 -18  -8   9  -33.00   19.90
  18   8  -9   -7.70   20.70
  18   8  -9   12.40   19.20
 -16  -8   9   13.40   17.20
 -16  -8   9    2.60   12.80
 -16  -8   9   23.60   21.10
 -16  -8   9  -19.40   19.30
  16   8  -9   33.50   17.00
  16   8  -9   35.70   17.90
  16   8  -9   42.00   23.00
 -14  -8   9   88.99   21.50
 -14  -8   9  124.39   15.50
 -14  -8   9  105.39   18.10
  14   8  -9   99.59   21.10
  14   8  -9  122.89   24.90
 -14   8   9  115.99   26.70
  14   8  -9  148.99   19.10
 -12  -8   9  107.69   20.20
 -12  -8   9  112.29   16.20
 -12  -8   9  130.49   18.00
  12   8  -9  117.79   19.90
  12   8  -9  131.09   20.50
 -12   8   9  126.49   28.80
  12   8  -9  160.98   24.80
 -10  -8   9   59.69   22.30
 -10  -8   9  100.39   19.70
 -10  -8   9   73.69   17.00
 -10   8   9   47.00   26.60
  10   8  -9   52.49   19.90
  10   8  -9   84.19   17.00
  10   8  -9   92.19   22.70
  -8  -8   9  101.79   17.40
  -8  -8   9   59.89   20.10
   8  -8  -9   87.29   20.60
   8   8  -9  101.49   23.30
  -8   8   9  103.39   29.40
  -8   8   9   70.79   28.00
   8   8  -9   52.49   22.60
   8   8  -9   97.59   17.80
  -6  -8   9   50.89   20.50
  -6  -8   9  -10.60   15.80
   6  -8  -9   -3.70   19.50
  -6   8   9    5.90   18.50
   6   8  -9    4.30   22.50
   6   8  -9    1.70   20.00
   6   8  -9    1.50   24.90
  -6   8   9    5.80   25.70
   6   8  -9   18.10   16.40
  -6   8   9    2.90   25.80
  -4  -8   9  116.79   23.20
   4  -8  -9  115.19   22.20
  -4  -8   9   99.59   20.20
  -4   8   9  148.39   23.30
   4   8  -9  144.79   23.50
  -4   8   9   68.69   28.30
   4   8  -9  133.09   22.30
   4   8  -9  128.79   28.50
  -2  -8   9   35.20   22.80
  -2  -8   9   53.39   24.30
   2  -8  -9   42.80   21.10
   2   8  -9   33.50   23.40
   2   8  -9   28.60   20.50
   2   8  -9   60.69   28.00
  -2   8   9   39.90   25.50
  -2   8   9   76.79   24.30
   0  -8   9   91.39   24.30
   0  -8  -9    2.00   19.00
   0   8  -9   14.20   22.90
   0   8  -9   27.70   23.20
   0   8  -9   15.50   27.50
   0   8   9    7.90   29.80
 -17  -9   9    4.50   14.50
 -15  -9   9   57.09   14.70
 -15  -9   9   20.60   18.10
 -15  -9   9   20.00   20.10
  15   9  -9   39.40   23.70
  15   9  -9   20.70   19.10
 -13  -9   9  126.59   20.10
 -13  -9   9  121.49   21.90
 -13  -9   9  171.68   21.80
  13   9  -9  127.09   26.80
  13   9  -9   97.99   19.50
 -13   9   9  106.39   30.20
  13   9  -9   99.09   21.80
 -11  -9   9   62.39   14.60
 -11  -9   9   33.20   21.20
 -11  -9   9   36.50   16.00
  11   9  -9   44.80   24.50
  11   9  -9   41.50   20.80
 -11   9   9   43.10   28.00
  11   9  -9   49.00   17.50
  -9  -9   9   32.60   15.90
  -9  -9   9   24.50   19.70
  -9   9   9   23.00   25.90
   9   9  -9   38.80   17.70
   9   9  -9   18.10   22.80
   9   9  -9    9.80   20.10
  -7  -9   9   41.90   17.20
  -7  -9   9    2.50   20.00
   7   9  -9   26.80   21.60
   7   9  -9   11.90   16.90
   7   9  -9   -5.30   24.10
  -7   9   9  -43.20   26.80
   7   9  -9   67.59   21.50
  -7   9   9   70.09   27.30
  -5  -9   9   48.50   18.50
   5  -9  -9    4.20   20.20
  -5  -9   9  -17.50   20.60
  -5   9   9   14.00   27.40
   5   9  -9    2.70   23.80
   5   9  -9   17.40   17.50
  -5   9   9   -9.40   20.10
   5   9  -9   20.70   25.50
   3  -9  -9  -13.20   20.90
  -3  -9   9   45.00   21.20
  -3   9   9   36.80   23.90
   3   9  -9   64.89   25.70
  -3   9   9   66.49   29.20
   3   9  -9  112.09   23.10
   3   9  -9   21.00   28.50
  -1  -9   9  -15.40   23.00
   1  -9  -9  -11.40   18.50
   1   9  -9   -4.60   24.50
   1   9  -9  -15.20   32.00
  -1   9   9   71.39   34.60
   1   9  -9   18.20   24.50
  -1   9   9   42.00   29.30
 -14 -10   9   29.20   14.80
 -14 -10   9   25.70   25.00
 -14 -10   9   28.90   17.60
  14  10  -9   45.90   25.20
  14  10  -9   54.19   19.90
 -12 -10   9   21.00   20.80
 -12 -10   9   33.50   17.00
 -12 -10   9   44.90   14.40
  12  10  -9   21.40   27.20
  12  10  -9   39.40   19.20
 -10 -10   9    0.10   14.40
 -10 -10   9  -39.70   20.20
 -10 -10   9  -12.60   17.10
  10  10  -9   32.20   17.60
  10  10  -9   -4.70   20.40
  10  10  -9    1.40   23.90
  -8 -10   9   11.50   16.80
  -8 -10   9   -7.20   20.80
   8  10  -9   32.60   20.30
   8  10  -9   34.10   27.20
   8  10  -9    5.00   18.40
  -6 -10   9   14.90   18.00
  -6 -10   9    3.50   20.80
  -6  10   9   -2.50   26.80
   6  10  -9  -16.10   22.70
   6  10  -9  -12.90   18.90
   6  10  -9   -4.50   24.20
   6  10  -9    3.70   25.60
  -4 -10   9   42.60   20.60
   4 -10  -9   62.99   23.70
  -4  10   9   52.99   23.10
   4  10  -9   19.20   28.40
  -4  10   9    9.80   29.20
   4  10  -9  -10.50   24.50
   4  10  -9   19.90   21.30
 -11 -11   9    5.30   16.20
 -11 -11   9   61.79   19.70
 -11 -11   9  -11.70   22.30
  11  11  -9    6.30   20.70
  11  11  -9    3.90   27.20
  -9 -11   9   -9.20   21.40
  -9 -11   9   42.50   17.70
   9  11  -9   12.60   20.60
   9  11  -9   25.70   26.60
  -7 -11   9  -41.80   17.20
   7  11  -9  -11.90   22.00
   7  11  -9   24.00   31.10
  -5 -11   9   22.90   19.50
   5 -11  -9  -26.50   19.10
   5  11  -9  -57.89   21.60
   5  11  -9   28.60   27.00
   5  11  -9    3.80   29.20
  -5  11   9   -2.60   32.10
  20   0 -10   60.59   19.90
 -20   0  10   48.60   16.50
 -20   0  10   40.40   21.40
 -20   0  10   -0.20   16.40
 -18   0  10  190.78   24.10
  18   0 -10  190.18   23.70
 -18   0  10  203.18   23.70
  18   0 -10  177.78   21.50
 -18   0  10  204.48   20.10
  16   0 -10   35.60   15.10
  16   0 -10   -3.90   17.00
  16   0 -10   27.80   15.20
 -16   0  10   25.20   14.70
 -16   0  10    9.60   17.10
 -14   0  10   15.80   14.00
  14   0 -10   25.90   15.40
  14   0 -10   32.50   14.60
 -14   0  10    9.80   18.20
 -14   0  10   22.70   20.10
  14   0 -10   17.60   17.00
 -12   0  10   34.00   20.90
  12   0 -10   17.00   14.00
  12   0 -10    0.70   17.00
  12   0 -10   -2.40   16.00
 -12   0  10   29.30   13.10
 -12   0  10   14.00   20.40
 -10   0  10  273.77   34.20
  10   0 -10  253.17   27.80
  10   0 -10  258.97   26.20
 -10   0  10  250.17   28.80
 -10   0  10  251.17   26.50
  -8   0  10  202.58   25.40
  -8   0  10  223.38   27.90
  -8   0  10  234.98   29.30
   8   0 -10  199.88   25.70
   8   0 -10  251.97   25.70
  -6   0  10   58.19   23.90
   6   0 -10   88.09   16.30
   6   0 -10   89.19   21.00
  -6   0  10   70.09   20.70
  -4   0  10  303.27   33.70
  -4   0  10  329.67   36.90
   4   0 -10  347.77   27.70
   4   0 -10  282.17   37.40
   2   0 -10   93.69   17.70
  -2   0  10   76.09   27.70
  -2   0  10   79.49   21.70
   2   0 -10   47.80   24.50
   0   0  10   19.00   21.00
   0   0 -10   29.70   23.20
   0   0 -10   24.80   18.70
   0   0  10   22.90   25.40
   2   0  10   28.40   23.40
  -2   0 -10  -31.40   25.30
  -2   0 -10   -3.50   21.60
 -21  -1  10    1.40   18.40
 -21  -1  10   17.00   19.40
  21  -1 -10    3.10   20.70
 -21  -1  10   30.40   24.00
 -21   1  10   20.30   18.60
 -21   1  10    6.00   22.90
 -21   1  10   -3.60   19.90
 -21   1  10   33.10   18.60
  21   1 -10  -31.60   18.90
 -19  -1  10  143.39   23.00
 -19  -1  10  108.09   21.60
 -19  -1  10  129.39   19.60
  19  -1 -10   92.49   19.60
  19  -1 -10   96.79   19.70
  19   1 -10  114.79   17.70
  19   1 -10  115.19   20.20
 -19   1  10  164.68   22.80
  19   1 -10   83.09   20.20
 -19   1  10  136.29   21.90
 -19   1  10  153.68   19.40
  17  -1 -10   50.99   16.40
 -17  -1  10  100.09   18.00
 -17  -1  10   68.49   19.60
  17  -1 -10   94.19   19.00
 -17   1  10   81.99   19.90
  17   1 -10   46.80   17.40
  17   1 -10   68.39   15.90
  17   1 -10   71.89   18.80
  17   1 -10   64.19   16.20
 -17   1  10   80.49   15.90
 -15  -1  10   -7.60   17.90
 -15  -1  10   10.70   13.40
  15  -1 -10  -21.80   16.40
 -15   1  10   25.50   23.70
 -15   1  10  -19.00   17.80
  15   1 -10    1.70   16.90
  15   1 -10   13.60   13.90
  15   1 -10   17.80   13.40
  15   1 -10  -14.50   15.40
 -15   1  10   -3.40   13.10
  13  -1 -10   72.49   23.30
 -13  -1  10   81.19   15.00
 -13  -1  10   75.79   21.50
 -13  -1  10   78.19   20.70
  13  -1 -10   90.49   18.30
  13  -1 -10  113.19   16.00
 -13   1  10   92.49   21.30
  13   1 -10   88.19   17.20
 -13   1  10   54.69   14.10
  13   1 -10   62.09   18.70
  13   1 -10   82.79   16.70
 -13   1  10   78.89   20.50
 -11  -1  10  -16.10   20.30
  11  -1 -10   -1.80   15.80
 -11  -1  10    0.50   13.30
  11  -1 -10   -4.20   13.50
  11  -1 -10   16.10   15.80
 -11  -1  10   13.10   17.70
 -11   1  10  -10.80   20.60
  11   1 -10    6.70   14.50
  11   1 -10    6.90   18.10
 -11   1  10    6.50   14.00
 -11   1  10  -22.80   21.40
  11   1 -10  -13.60   14.90
   9  -1 -10  387.36   26.60
  -9  -1  10  352.26   28.50
  -9  -1  10  356.16   37.60
   9  -1 -10  348.17   34.90
   9  -1 -10  303.37   31.40
   9   1 -10  367.26   28.70
   9   1 -10  356.66   35.60
  -9   1  10  311.47   31.70
   9   1 -10  332.87   33.50
  -9   1  10  304.87   32.70
   7  -1 -10   97.09   16.20
  -7  -1  10   69.29   23.30
   7  -1 -10   73.69   21.70
  -7  -1  10   93.69   19.90
   7   1 -10   81.49   21.90
  -7   1  10   41.40   25.10
  -7   1  10   68.69   19.70
  -7   1  10   79.89   24.00
   7   1 -10  106.09   17.70
   5  -1 -10   63.59   22.10
  -5  -1  10   48.80   19.50
   5  -1 -10   99.29   16.80
  -5  -1  10   90.09   24.50
  -5   1  10   36.00   26.10
  -5   1  10   82.69   24.10
   5   1 -10   57.19   21.80
  -5   1  10   61.09   20.90
   5   1 -10   77.49   15.80
   3  -1 -10  282.27   27.70
   3  -1 -10  333.57   38.30
  -3  -1  10  223.08   27.30
  -3  -1  10  191.68   30.00
   3   1 -10  190.88   27.70
  -3   1  10  221.18   30.30
   3   1 -10  220.68   26.70
  -3   1  10  271.97   33.60
   1  -1 -10    5.10   22.90
  -1  -1  10   36.20   21.10
  -1  -1  10   21.20   27.60
   1  -1 -10   19.80   16.60
  -1   1  10   14.50   20.10
   1   1 -10   29.30   17.40
   1   1 -10   -3.00   24.70
  -1   1  10  -37.30   23.40
   1  -1  10   -8.90   20.70
  -1  -1 -10  -20.30   21.70
  -1  -1 -10   32.30   20.30
  -1   1 -10  -18.50   23.00
   1   1  10   -3.90   23.20
  -1   1 -10   -0.40   19.90
 -20  -2  10    0.70   17.60
 -20  -2  10   17.60   20.30
 -20  -2  10   21.60   23.10
  20  -2 -10   14.00   18.70
 -20   2  10   11.40   15.20
  20   2 -10    7.90   16.50
 -20   2  10  -11.60   16.90
  20   2 -10   -5.30   17.60
  20   2 -10   -9.60   19.50
 -20   2  10    1.80   20.00
 -20   2  10   18.90   22.10
 -18  -2  10   55.29   21.50
 -18  -2  10   93.09   20.20
  18  -2 -10   94.99   18.90
  18  -2 -10   80.79   19.50
 -18  -2  10  102.99   17.50
 -18   2  10   86.89   19.70
 -18   2  10  112.69   27.80
  18   2 -10   65.69   15.60
  18   2 -10   50.59   20.50
 -18   2  10   75.99   16.40
 -18   2  10   58.69   20.60
  18   2 -10   71.99   17.00
  18   2 -10  105.19   20.30
 -16  -2  10   -0.20   14.10
  16  -2 -10    5.90   16.80
 -16  -2  10   -1.70   17.90
  16   2 -10    0.50   13.50
  16   2 -10   -9.10   13.30
  16   2 -10   33.10   17.80
 -16   2  10  -28.70   20.70
  16   2 -10   -7.50   17.90
 -16   2  10   -9.80   14.80
 -16   2  10    3.60   19.40
  14  -2 -10   -1.00   16.80
 -14  -2  10   12.60   19.20
 -14  -2  10   24.90   14.20
  14   2 -10   -2.80   18.60
 -14   2  10   49.90   21.70
 -14   2  10   68.19   19.60
  14   2 -10   38.10   18.50
  14   2 -10    7.80   13.60
  14   2 -10   30.20   14.20
 -14   2  10   57.19   15.30
 -12  -2  10  120.29   16.90
 -12  -2  10  179.98   22.50
  12  -2 -10  137.09   19.50
  12   2 -10  139.59   18.40
 -12   2  10  153.68   17.80
 -12   2  10   96.89   23.90
  12   2 -10  127.99   20.70
 -12   2  10  161.38   24.80
  12   2 -10  141.89   22.20
  10  -2 -10   42.40   18.10
  10  -2 -10   73.49   14.40
 -10  -2  10   62.19   15.60
  10  -2 -10   71.99   29.00
 -10  -2  10   61.49   20.60
 -10   2  10   42.50   18.90
 -10   2  10   48.70   24.20
  10   2 -10   59.89   14.80
  10   2 -10   52.49   19.60
  10   2 -10   63.19   20.20
 -10   2  10   46.20   23.80
  -8  -2  10   77.19   21.80
   8  -2 -10   64.09   20.70
  -8  -2  10  127.69   19.00
   8  -2 -10   74.39   20.10
   8  -2 -10  121.69   16.50
  -8   2  10   93.79   27.30
  -8   2  10   84.59   24.10
   8   2 -10  107.69   18.20
  -8   2  10  141.59   21.80
   8   2 -10  122.99   22.60
   6  -2 -10   17.90   20.90
  -6  -2  10    2.90   17.20
   6  -2 -10   18.70   15.80
  -6  -2  10  -13.10   22.00
  -6   2  10   27.50   23.30
   6   2 -10   -8.10   14.60
  -6   2  10   37.20   24.30
  -6   2  10   -1.70   19.20
   6   2 -10   26.60   21.60
   4  -2 -10  155.98   19.40
   4  -2 -10  142.69   25.90
  -4  -2  10  146.89   23.20
  -4  -2  10   82.49   26.40
   4   2 -10  146.19   19.50
   4   2 -10   81.29   23.80
  -4   2  10  142.49   22.80
  -4   2  10   78.79   28.10
   2  -2 -10  118.19   19.40
  -2  -2  10   26.10   27.00
  -2  -2  10   97.49   23.20
   2  -2 -10  132.19   24.20
   2   2 -10   80.29   17.80
  -2   2  10  105.49   27.10
  -2   2  10  106.29   23.10
   2   2 -10   94.59   24.00
   0  -2  10   31.90   24.70
   0  -2  10   30.90   21.00
   0  -2 -10    1.50   19.10
   0  -2 -10  -38.40   20.40
   0   2 -10  -37.20   22.70
   0   2  10  -27.60   29.20
   0   2  10   45.00   23.00
   0   2 -10   41.90   19.80
  -2  -2 -10    6.00   23.50
   2  -2  10   21.90   23.40
   2   2  10   23.80   28.00
  -2   2 -10  -69.39   23.70
 -21  -3  10   40.50   23.90
 -21  -3  10   10.10   19.50
 -21  -3  10    7.20   14.60
  21  -3 -10   -0.80   25.20
  21   3 -10  -39.00   20.60
 -21   3  10   -2.00   17.20
  21   3 -10   -0.70   16.90
  21   3 -10   -9.80   20.20
 -21   3  10   11.90   17.60
 -21   3  10   25.60   21.50
 -19  -3  10   55.59   19.50
 -19  -3  10   68.49   17.60
  19  -3 -10   53.79   19.00
 -19  -3  10   69.39   22.70
  19  -3 -10   54.59   19.50
  19   3 -10   70.09   21.60
 -19   3  10   37.90   21.30
 -19   3  10   74.39   16.60
  19   3 -10   49.80   20.10
  19   3 -10   81.39   18.80
 -19   3  10   64.89   21.20
  19   3 -10   51.79   16.70
 -17  -3  10   60.39   16.30
 -17  -3  10   22.80   18.70
  17  -3 -10   36.40   17.70
  17   3 -10   30.50   15.00
 -17   3  10   53.89   20.00
  17   3 -10   39.50   18.10
 -17   3  10   38.20   24.80
  17   3 -10   27.90   14.30
 -17   3  10   41.40   15.80
  17   3 -10   49.90   19.40
  15  -3 -10  -41.30   14.80
 -15  -3  10   -0.70   14.00
 -15  -3  10    7.40   17.60
  15   3 -10    0.80   16.30
 -15   3  10   -4.40   19.20
 -15   3  10    4.40   22.50
  15   3 -10   24.20   13.30
  15   3 -10   -6.50   15.40
 -15   3  10  -13.50   13.80
  15   3 -10   17.80   18.70
  13  -3 -10   20.10   17.30
 -13  -3  10   70.09   19.40
 -13  -3  10   85.99   15.70
  13   3 -10   39.80   15.00
 -13   3  10   59.99   22.70
  13   3 -10   39.20   17.70
 -13   3  10   69.99   16.90
  13   3 -10   57.09   13.70
  13   3 -10   62.79   21.10
 -13   3  10   48.70   22.70
 -11  -3  10   -0.30   17.90
  11  -3 -10   12.10   16.50
 -11  -3  10   15.10   13.60
 -11   3  10   -7.30   22.50
 -11   3  10    8.50   17.70
  11   3 -10   -2.60   14.20
 -11   3  10   45.70   24.60
  11   3 -10   17.10   19.00
  11   3 -10  -11.80   15.80
  -9  -3  10   86.39   21.00
   9  -3 -10   79.49   19.90
  -9  -3  10  110.79   17.30
   9  -3 -10   63.69   21.70
   9   3 -10   81.29   22.00
  -9   3  10   70.39   25.70
   9   3 -10  109.49   20.50
   9   3 -10  112.69   17.50
  -9   3  10   63.59   25.40
  -9   3  10   77.19   20.50
  -7  -3  10    1.30   16.10
   7  -3 -10    2.30   19.10
  -7  -3  10   -2.90   22.30
  -7   3  10   19.10   23.80
  -7   3  10    0.20   19.80
   7   3 -10   16.90   19.70
   7   3 -10   21.90   14.60
  -7   3  10    5.20   24.40
  -5  -3  10   58.59   19.40
   5  -3 -10   84.19   17.20
  -5  -3  10   33.60   24.30
   5  -3 -10   54.39   23.70
  -5   3  10   30.50   25.40
  -5   3  10   77.19   26.60
   5   3 -10   57.29   23.40
   5   3 -10   59.09   17.50
  -5   3  10   89.19   22.30
   3  -3 -10  174.18   25.50
  -3  -3  10  160.18   29.20
  -3  -3  10  175.08   24.80
   3  -3 -10  166.88   21.00
  -3   3  10  225.38   31.00
   3   3 -10  166.68   21.70
   3   3 -10  139.09   28.50
  -3   3  10  186.48   24.80
  -1  -3  10    9.20   28.30
  -1  -3  10    6.00   20.80
   1  -3 -10   -4.90   21.50
   1  -3 -10   44.80   18.90
   1   3 -10   -4.10   18.00
  -1   3  10    1.80   23.90
   1   3 -10   -6.50   24.30
   1   3 -10   -5.70   17.00
  -1   3  10   14.30   21.30
  -1  -3 -10  -20.10   20.90
   1  -3  10   -8.60   21.30
   1  -3  10  -53.79   29.10
  -1   3 -10   26.90   18.40
   1   3  10   64.09   26.60
  -1   3 -10   19.70   20.40
  -1   3 -10   19.10   25.50
 -20  -4  10   35.90   13.80
 -20  -4  10   53.49   20.10
 -20  -4  10   22.80   23.40
  20  -4 -10   20.80   21.40
  20   4 -10   39.50   19.50
  20   4 -10   -6.70   16.10
 -20   4  10   10.90   21.70
  20   4 -10   51.29   18.60
  18  -4 -10  127.79   19.20
 -18  -4  10  107.09   20.60
 -18  -4  10  117.29   19.70
 -18  -4  10  143.49   25.70
  18   4 -10  129.39   18.70
 -18   4  10  124.39   27.20
  18   4 -10   87.09   20.20
  18   4 -10  127.89   19.80
  18   4 -10  124.69   22.20
 -18   4  10  142.19   21.40
 -16  -4  10    9.40   15.40
 -16  -4  10    2.50   16.50
  16  -4 -10  -13.40   17.20
  16   4 -10   -6.10   18.60
 -16   4  10   43.50   25.70
 -16   4  10   19.30   19.80
  16   4 -10   -1.50   18.40
  16   4 -10  -11.70   14.00
  16   4 -10  -12.30   14.70
 -14  -4  10  -21.70   12.80
  14  -4 -10  -22.20   15.30
 -14  -4  10   53.59   18.50
 -14   4  10  -31.00   16.30
  14   4 -10  -12.60   11.90
  14   4 -10   38.20   17.50
  14   4 -10    8.90   18.90
 -14   4  10   -4.00   21.50
  14   4 -10   -1.30   13.00
 -14   4  10  -38.60   23.50
  12  -4 -10   50.99   17.30
 -12  -4  10   49.99   18.50
 -12  -4  10   39.80   14.60
  12   4 -10   48.50   14.60
 -12   4  10   50.89   19.80
  12   4 -10   36.60   20.10
 -12   4  10   49.20   24.30
  12   4 -10   42.80   17.30
 -12   4  10   14.90   24.60
 -10  -4  10   84.39   21.30
 -10  -4  10  115.69   17.60
  10  -4 -10  104.19   18.80
  10   4 -10  100.79   20.50
  10   4 -10   76.99   15.40
 -10   4  10   63.49   27.80
  10   4 -10  112.89   23.50
 -10   4  10   85.09   22.20
 -10   4  10   91.99   28.90
  -8  -4  10  155.78   19.90
  -8  -4  10  152.78   24.80
   8  -4 -10  169.68   23.50
   8   4 -10  146.39   24.00
   8   4 -10  148.09   19.50
  -8   4  10   97.99   28.70
  -8   4  10  164.18   23.60
   8   4 -10  148.59   24.10
  -8   4  10  130.09   28.50
   6  -4 -10   36.40   15.90
  -6  -4  10   30.80   18.20
  -6  -4  10   12.50   22.30
   6  -4 -10   13.80   21.60
   6   4 -10   41.30   16.20
  -6   4  10   12.00   19.20
  -6   4  10   -1.30   24.40
   6   4 -10   43.00   22.60
  -6   4  10   42.40   26.80
  -4  -4  10   96.99   22.80
  -4  -4  10   97.19   26.40
   4  -4 -10  192.88   20.60
   4  -4 -10  122.39   23.10
  -4   4  10  195.58   24.60
   4   4 -10   99.69   27.40
  -4   4  10  195.68   30.20
   4   4 -10  162.88   21.20
  -2  -4  10   81.59   27.20
   2  -4 -10   94.09   18.30
  -2  -4  10   53.09   23.00
   2  -4 -10   98.29   22.10
  -2   4  10   84.69   24.10
  -2   4  10   94.69   27.80
   2   4 -10   88.19   20.80
   2   4 -10   84.79   19.20
   2   4 -10   76.79   27.00
   0  -4 -10   -3.70   19.90
   0  -4  10   35.90   22.00
   0  -4  10  -48.70   28.60
   0   4  10   28.70   24.60
   0   4 -10    3.70   27.10
   0   4 -10   33.20   19.00
   0   4 -10   17.10   20.00
 -19  -5  10   83.39   21.50
 -19  -5  10   65.89   13.90
 -19  -5  10   94.19   24.70
  19   5 -10   60.19   21.40
  19   5 -10   44.40   19.20
  19   5 -10   76.69   19.20
 -17  -5  10   52.19   17.40
 -17  -5  10   70.99   18.10
 -17  -5  10   39.90   21.00
  17   5 -10   58.09   22.00
  17   5 -10   55.09   20.70
 -17   5  10   85.19   28.40
  17   5 -10   73.09   17.00
 -17   5  10   68.49   21.40
  17   5 -10   46.10   16.00
 -15  -5  10    9.50   15.10
  15  -5 -10   13.10   15.70
 -15  -5  10    2.10   18.60
  15   5 -10   11.60   14.90
  15   5 -10   -1.80   13.60
  15   5 -10   16.30   20.90
 -15   5  10  -16.30   25.00
  15   5 -10    6.90   18.30
 -15   5  10   11.30   21.40
 -13  -5  10   30.10   16.00
 -13  -5  10   62.19   20.00
  13  -5 -10   65.99   17.80
 -13   5  10   94.59   24.60
 -13   5  10   38.10   26.20
  13   5 -10   17.60   20.70
  13   5 -10   64.99   19.80
  13   5 -10   32.60   15.60
  11  -5 -10   16.80   17.50
 -11  -5  10   -9.50   18.10
 -11  -5  10  -20.00   12.80
  11   5 -10   13.60   17.00
  11   5 -10    6.50   14.70
 -11   5  10  -39.60   26.00
 -11   5  10    6.80   21.20
 -11   5  10   -0.50   26.60
  11   5 -10  -10.70   18.50
  -9  -5  10  239.28   26.00
  -9  -5  10  276.97   26.40
   9  -5 -10  235.78   25.60
  -9   5  10  228.48   31.20
  -9   5  10  304.87   35.50
  -9   5  10  250.87   31.50
   9   5 -10  302.07   28.90
   9   5 -10  275.87   26.70
   9   5 -10  245.98   28.40
  -7  -5  10   93.89   24.10
  -7  -5  10   97.29   18.20
   7  -5 -10  125.49   22.80
  -7   5  10   76.69   22.10
   7   5 -10  125.69   24.10
  -7   5  10   49.50   25.80
  -7   5  10  110.29   27.40
   7   5 -10   83.59   18.10
   5  -5 -10   71.29   22.20
  -5  -5  10   61.29   26.90
   5  -5 -10   40.70   24.70
  -5  -5  10   97.89   21.60
  -5   5  10  109.59   23.70
   5   5 -10   64.89   18.10
   5   5 -10   82.59   25.10
  -5   5  10   43.60   27.80
   3  -5 -10  120.09   18.90
   3  -5 -10  118.69   22.90
  -3  -5  10  109.19   29.00
  -3  -5  10   69.79   24.10
  -3   5  10  161.08   25.30
   3   5 -10  116.89   30.40
   3   5 -10  151.98   22.20
   3   5 -10  119.19   20.60
  -3   5  10  110.89   28.50
   1  -5 -10   -6.80   17.70
  -1  -5  10   19.40   22.90
  -1  -5  10    9.90   29.00
   1   5 -10    0.80   20.80
   1   5 -10   35.70   19.70
  -1   5  10  -28.30   43.90
   1   5 -10   94.49   29.20
  -1   5  10   36.90   24.40
 -18  -6  10   60.99   23.00
 -18  -6  10  116.79   21.10
 -18  -6  10   63.49   14.30
  18   6 -10   49.30   18.60
  18   6 -10   76.09   18.30
 -16  -6  10  -33.70   15.60
 -16  -6  10   17.80   18.50
 -16   6  10    6.40   25.60
  16   6 -10   36.00   15.80
  16   6 -10    8.80   20.60
  16   6 -10   35.30   19.40
  16   6 -10   35.00   16.10
 -14  -6  10   24.60   16.50
 -14  -6  10   -3.70   17.60
 -14   6  10   11.50   22.10
  14   6 -10   14.50   15.30
 -14   6  10   30.70   26.60
  14   6 -10   -2.90   20.50
  14   6 -10    0.10   22.30
  12  -6 -10    7.80   16.80
 -12  -6  10   14.40   18.90
 -12  -6  10   44.90   16.40
  12   6 -10   11.70   18.20
 -12   6  10  -19.90   27.50
  12   6 -10   23.20   21.70
 -12   6  10  -20.00   26.80
  12   6 -10   37.50   15.30
 -10  -6  10  109.99   21.90
 -10  -6  10   70.39   16.10
  10  -6 -10   66.09   20.10
 -10   6  10   97.59   21.10
 -10   6  10   23.20   26.30
 -10   6  10   53.19   29.30
  10   6 -10   58.19   22.70
  10   6 -10   60.09   21.70
  10   6 -10   66.49   16.30
  -8  -6  10   83.89   17.30
  -8  -6  10  108.69   23.90
   8  -6 -10   92.39   21.30
   8   6 -10   71.49   17.20
  -8   6  10  124.59   21.70
  -8   6  10   36.60   27.40
   8   6 -10   81.19   23.50
  -8   6  10   82.19   27.40
   8   6 -10  136.79   26.50
   6  -6 -10   52.59   21.30
  -6  -6  10   30.40   18.30
  -6  -6  10  -18.40   24.20
  -6   6  10   45.30   21.20
  -6   6  10   26.80   25.70
  -6   6  10   30.50   27.70
   6   6 -10   53.99   18.70
   6   6 -10   16.70   24.70
  -4  -6  10  139.19   29.00
  -4  -6  10  187.38   24.70
   4  -6 -10  123.49   24.30
   4   6 -10  187.88   23.10
  -4   6  10  170.08   31.30
   4   6 -10  112.59   29.00
  -4   6  10  159.28   27.20
   4   6 -10  135.79   22.50
   2  -6 -10   39.60   19.90
  -2  -6  10   31.60   28.20
  -2  -6  10   41.50   24.90
   2   6 -10   63.99   22.00
   2   6 -10   43.90   28.20
  -2   6  10   93.09   26.20
  -2   6  10   41.20   27.20
   2   6 -10   49.80   20.80
   0  -6 -10   35.10   21.80
   0  -6  10   -4.20   29.60
   0  -6  10  -58.59   24.10
   0   6 -10  -30.80   28.50
   0   6 -10   57.09   23.00
 -17  -7  10   46.10   20.70
 -17  -7  10   26.80   18.50
 -17  -7  10   47.40   13.50
  17   7 -10   62.79   19.60
  17   7 -10    0.20   22.70
  17   7 -10   48.10   17.60
 -15  -7  10   11.20   19.80
 -15  -7  10  -47.30   16.20
 -15  -7  10   15.90   13.80
  15   7 -10    8.20   19.90
  15   7 -10   15.80   17.90
  15   7 -10  -35.40   21.50
 -15   7  10  -25.50   26.60
 -13  -7  10   29.40   16.00
 -13  -7  10   22.70   21.30
 -13  -7  10   19.30   12.00
  13   7 -10   20.40   22.40
  13   7 -10   21.50   16.40
  13   7 -10   35.90   19.50
 -13   7  10  -25.40   28.50
 -11  -7  10   20.80   15.20
  11  -7 -10   19.00   17.50
 -11  -7  10  -15.40   19.50
  11   7 -10   -9.50   23.50
  11   7 -10    7.90   19.10
 -11   7  10  -50.19   27.50
  11   7 -10   17.00   15.60
   9  -7 -10   93.79   22.40
  -9  -7  10   94.99   17.50
  -9  -7  10  101.09   23.90
   9   7 -10  128.59   26.00
   9   7 -10   83.59   17.60
  -9   7  10   97.29   29.50
   9   7 -10   56.09   21.00
  -9   7  10   90.89   29.50
  -9   7  10   81.49   21.00
  -7  -7  10   33.90   24.00
   7  -7 -10   -5.60   21.20
  -7  -7  10   32.60   17.00
   7   7 -10   46.30   19.80
  -7   7  10   11.00   28.20
  -7   7  10   59.99   22.20
   7   7 -10    8.50   24.40
   7   7 -10   20.80   24.70
   7   7 -10   18.40   17.70
  -7   7  10   12.40   28.60
  -5  -7  10   49.40   20.70
  -5  -7  10   27.90   26.60
   5  -7 -10   65.29   22.40
   5   7 -10  -18.00   26.50
  -5   7  10   30.60   29.80
  -5   7  10   32.80   22.00
   5   7 -10   47.70   19.90
   5   7 -10   34.80   20.40
  -3  -7  10  110.59   28.00
  -3  -7  10   68.89   25.40
  -3   7  10   33.20   25.00
   3   7 -10   71.29   23.20
   3   7 -10  114.29   23.90
  -3   7  10   63.89   28.50
   3   7 -10  128.89   29.70
  -1  -7  10   30.10   25.10
   1  -7 -10  -18.90   20.10
  -1  -7  10   18.00   28.90
   1   7 -10   -4.60   29.20
   1   7 -10  -31.50   22.70
   1   7 -10   -4.50   31.60
 -16  -8  10   28.40   14.00
 -16  -8  10   18.80   19.00
  16   8 -10    1.80   24.00
  16   8 -10   -9.80   19.90
 -14  -8  10   -1.30   17.20
 -14  -8  10   22.00   12.50
 -14  -8  10    0.40   20.70
  14   8 -10   -7.50   23.30
  14   8 -10    2.90   17.10
 -12  -8  10   22.10   13.60
 -12  -8  10    8.40   19.80
 -12  -8  10   21.90   17.00
  12   8 -10  -15.00   17.20
  12   8 -10   30.70   24.60
  12   8 -10   -2.50   18.90
 -12   8  10  -15.60   29.20
 -10  -8  10   30.30   22.70
 -10  -8  10   34.70   16.90
 -10   8  10    5.40   28.50
  10   8 -10   25.50   18.40
 -10   8  10    8.40   29.40
  10   8 -10   36.80   25.60
  10   8 -10   25.90   20.50
  -8  -8  10   55.89   23.60
   8  -8 -10   34.00   21.30
  -8  -8  10   66.59   18.80
   8   8 -10   74.69   26.90
   8   8 -10   47.10   22.80
  -8   8  10  -17.70   28.80
   8   8 -10   63.19   19.00
  -8   8  10   48.50   20.20
  -8   8  10   23.20   29.20
   6  -8 -10  -28.80   20.10
  -6  -8  10   -4.20   18.20
  -6  -8  10   23.30   26.10
  -6   8  10  -17.80   27.00
  -6   8  10   12.10   30.90
  -6   8  10   42.00   22.00
   6   8 -10   27.00   19.80
   6   8 -10   60.29   27.10
   6   8 -10   37.90   26.20
   6   8 -10  -11.60   21.50
  -4  -8  10   75.99   27.70
  -4  -8  10   67.99   23.10
   4   8 -10   28.30   23.20
  -4   8  10   37.10   25.00
   4   8 -10   49.70   23.30
  -4   8  10    3.60   29.20
   4   8 -10    0.60   29.90
  -2  -8  10  -17.00   24.20
  -2  -8  10   22.90   27.10
   2   8 -10   24.80   24.30
   2   8 -10   52.99   34.00
 -15  -9  10   59.79   19.80
 -15  -9  10   -8.70   13.90
  15   9 -10   16.30   25.00
 -13  -9  10   34.50   18.20
 -13  -9  10   -6.30   20.50
 -13  -9  10   29.40   15.00
  13   9 -10   27.60   20.00
  13   9 -10   -5.20   24.90
 -11  -9  10    1.70   17.30
 -11  -9  10    5.20   21.00
  11   9 -10   12.30   18.70
  11   9 -10    3.80   26.10
  -9  -9  10   24.60   23.70
  -9  -9  10   38.20   18.20
   9   9 -10   30.80   27.20
  -9   9  10   22.40   30.60
   9   9 -10   19.40   19.20
   7  -9 -10    6.60   21.00
  -7  -9  10    1.10   24.00
  -7  -9  10  -34.10   18.30
  -7   9  10  -58.19   30.20
   7   9 -10   40.50   29.40
   7   9 -10   25.20   23.40
   7   9 -10    0.20   19.90
  -7   9  10   28.60   22.60
  -5  -9  10   31.40   22.70
  -5  -9  10  -33.20   25.80
   5   9 -10    0.10   24.60
   5   9 -10  -58.99   29.20
  -5   9  10   18.80   30.70
   5   9 -10   -2.10   24.10
  -5   9  10   23.60   25.50
 -12 -10  10   -2.40   19.50
 -12 -10  10   17.90   16.10
 -12 -10  10  -18.00   26.80
  12  10 -10   10.00   27.10
 -10 -10  10  -15.00   18.90
 -10 -10  10    4.60   23.00
  10  10 -10   16.30   29.20
  10  10 -10   25.10   24.00
  -8 -10  10   39.40   24.20
  -8 -10  10   16.00   19.40
   8  10 -10   46.70   29.00
   8  10 -10   66.59   24.30
  -8  10  10    5.10   31.30
 -20   0  11   49.90   25.20
 -20   0  11   27.90   20.60
 -20   0  11   18.60   19.50
  20   0 -11   62.29   20.60
 -18   0  11   24.50   17.90
  18   0 -11   23.30   16.30
  18   0 -11   33.40   18.30
 -18   0  11   37.20   21.50
 -16   0  11    2.70   16.60
  16   0 -11   19.20   16.80
 -16   0  11   -4.20   25.70
  16   0 -11    8.40   18.80
 -16   0  11  -26.80   22.70
  16   0 -11  -12.70   17.80
 -14   0  11  -32.60   24.10
 -14   0  11   11.00   16.30
 -14   0  11  -25.90   22.80
  14   0 -11   50.29   17.90
  14   0 -11  -22.80   21.70
  14   0 -11    3.60   20.20
 -12   0  11  183.98   27.20
  12   0 -11  176.38   20.60
 -12   0  11  167.28   25.40
 -12   0  11  161.48   21.20
  12   0 -11  215.68   27.20
  12   0 -11  202.78   23.70
 -10   0  11  133.79   26.50
  10   0 -11  117.39   18.60
 -10   0  11  102.49   28.10
 -10   0  11   77.39   21.00
  10   0 -11  143.09   21.20
  10   0 -11  115.39   23.60
  -8   0  11    6.70   27.00
   8   0 -11   31.70   14.90
  -8   0  11   17.80   20.40
   8   0 -11  -18.20   23.10
  -8   0  11  -16.50   23.30
   6   0 -11   82.39   26.80
  -6   0  11   61.89   27.90
  -6   0  11   51.29   23.50
   6   0 -11  114.09   19.90
  -4   0  11    1.90   26.40
  -4   0  11    4.90   22.10
   4   0 -11    6.70   23.10
   4   0 -11   22.50   17.90
   2   0 -11   60.19   21.10
   2   0 -11    3.10   22.10
  -2   0  11  127.19   26.30
 -21  -1  11   32.10   28.10
  21  -1 -11   41.00   23.70
 -21   1  11   45.60   28.70
  21   1 -11   33.70   21.90
  19  -1 -11    7.80   28.80
 -19  -1  11   13.70   19.00
 -19  -1  11  -22.10   22.20
 -19  -1  11   14.30   17.80
  19  -1 -11  -26.20   17.00
 -19   1  11    7.30   20.90
  19   1 -11    8.90   16.60
  19   1 -11   14.90   20.10
 -19   1  11   -1.90   21.00
 -19   1  11   -0.60   17.90
  19   1 -11   -2.50   17.10
 -17  -1  11   42.60   20.70
  17  -1 -11   52.09   20.10
 -17  -1  11   46.60   17.60
 -17   1  11   29.80   22.20
  17   1 -11   39.70   17.20
 -17   1  11   36.60   17.00
 -17   1  11   63.39   29.20
  17   1 -11    9.30   15.40
  17   1 -11   36.30   20.10
  17   1 -11   52.59   19.60
 -15  -1  11   23.90   23.10
 -15  -1  11    5.90   15.70
  15  -1 -11   41.10   20.00
  15   1 -11   28.50   20.60
 -15   1  11   16.60   16.60
  15   1 -11   32.60   19.10
 -15   1  11   24.60   24.50
 -15   1  11  -14.90   22.50
  15   1 -11   17.00   15.50
  13  -1 -11   68.79   21.10
 -13  -1  11   65.29   16.00
  13  -1 -11   55.69   22.10
 -13  -1  11   94.39   25.00
 -13  -1  11   80.69   22.90
  13  -1 -11   55.89   28.70
  13   1 -11   65.49   16.70
 -13   1  11   68.89   17.90
  13   1 -11   70.19   23.50
 -13   1  11   34.10   24.20
  13   1 -11   62.29   20.90
 -13   1  11   30.50   25.20
 -11  -1  11  276.37   31.00
  11  -1 -11  361.06   37.40
 -11  -1  11  335.57   30.00
 -11  -1  11  327.27   32.00
  11  -1 -11  329.77   27.90
  11  -1 -11  380.96   34.20
 -11   1  11  235.58   31.90
  11   1 -11  308.07   32.70
 -11   1  11  301.27   33.30
  11   1 -11  303.07   39.00
 -11   1  11  275.47   32.90
  11   1 -11  342.87   29.50
   9  -1 -11   13.20   14.70
   9  -1 -11  -11.70   21.60
   9  -1 -11  -11.60   20.90
  -9  -1  11   -6.70   25.40
  -9  -1  11    1.90   18.60
   9   1 -11    4.10   15.00
   9   1 -11   19.40   22.20
   9   1 -11  -34.50   20.30
  -9   1  11   16.30   19.30
  -9   1  11    7.40   25.60
  -9   1  11  -34.90   25.90
   7  -1 -11   -4.60   15.00
   7  -1 -11   21.70   24.60
  -7  -1  11   18.30   22.90
  -7  -1  11   12.80   27.10
  -7   1  11   -0.70   25.10
   7   1 -11   -0.90   23.30
   7   1 -11   17.40   17.00
  -7   1  11   24.70   23.20
  -7   1  11   20.80   29.40
  -5  -1  11   82.29   27.80
  -5  -1  11   72.19   24.20
   5  -1 -11   93.69   24.30
   5  -1 -11  143.29   20.20
   5   1 -11  102.49   19.10
   5   1 -11   49.70   25.50
  -5   1  11  114.99   24.30
  -5   1  11  138.09   29.80
  -5   1  11   61.19   25.90
   3  -1 -11   22.00   22.50
   3  -1 -11   44.30   18.60
  -3  -1  11   -6.90   27.50
  -3  -1  11    1.30   22.30
  -3   1  11   43.20   28.60
   3   1 -11   35.80   18.30
  -3   1  11   50.09   24.40
  -3   1  11   32.30   27.30
   3   1 -11   36.50   25.10
  -1  -1  11   37.80   24.30
   1  -1 -11   36.20   21.50
   1   1 -11   35.90   25.50
   1   1 -11   17.70   22.60
  -1   1  11   71.89   25.30
 -20  -2  11   41.70   24.10
  20  -2 -11    2.50   21.40
 -20  -2  11   64.99   21.10
 -20   2  11   34.30   23.40
 -20   2  11   12.50   18.90
 -20   2  11   47.30   23.20
  20   2 -11   18.20   17.60
  20   2 -11    1.70   17.90
  20   2 -11   37.10   21.20
 -18  -2  11    4.50   17.20
  18  -2 -11   15.60   17.80
 -18  -2  11   59.29   20.40
 -18   2  11   53.89   28.70
 -18   2  11   44.90   18.00
  18   2 -11   49.30   22.00
  18   2 -11   55.79   21.50
 -18   2  11   21.80   22.60
  18   2 -11    0.50   16.20
  18   2 -11   40.80   17.00
 -16  -2  11   42.00   21.40
 -16  -2  11   -1.70   16.10
  16  -2 -11  -20.70   18.50
  16   2 -11   -1.10   19.50
  16   2 -11   29.40   20.90
  16   2 -11   -2.40   15.10
 -16   2  11   21.40   28.60
 -16   2  11   11.10   16.60
 -16   2  11   20.40   23.40
  16   2 -11    6.10   15.30
 -14  -2  11   -3.30   23.10
  14  -2 -11    5.60   19.30
 -14  -2  11    3.00   16.00
 -14   2  11   62.99   26.90
 -14   2  11   27.80   17.50
  14   2 -11   15.30   21.60
  14   2 -11   -2.40   19.90
 -14   2  11   31.00   23.00
  14   2 -11    0.80   14.70
  12  -2 -11  379.46   33.00
 -12  -2  11  285.67   31.90
  12  -2 -11  375.46   36.90
 -12  -2  11  314.87   37.60
 -12  -2  11  346.37   29.50
 -12   2  11  302.37   32.90
 -12   2  11  370.86   45.40
  12   2 -11  381.36   41.00
  12   2 -11  371.66   34.90
 -12   2  11  346.97   34.40
  12   2 -11  347.17   29.40
 -10  -2  11  127.39   19.50
  10  -2 -11  144.69   24.90
 -10  -2  11  158.28   26.60
  10  -2 -11  121.69   22.10
  10  -2 -11  116.19   19.10
 -10   2  11  133.99   23.40
  10   2 -11  108.69   26.40
 -10   2  11   77.59   29.70
 -10   2  11  114.99   29.80
  10   2 -11  150.88   22.90
  10   2 -11  149.69   19.50
  -8  -2  11   -6.10   27.30
  -8  -2  11   12.60   19.40
   8  -2 -11   14.50   22.20
   8  -2 -11   -3.60   15.40
  -8   2  11    7.10   27.10
  -8   2  11  -13.30   22.90
  -8   2  11  -36.80   26.40
   8   2 -11   44.00   25.00
   8   2 -11   25.80   16.60
  -6  -2  11   48.90   26.70
  -6  -2  11   55.29   22.50
   6  -2 -11   78.69   22.40
   6  -2 -11   96.19   18.20
  -6   2  11  113.79   28.80
   6   2 -11   75.09   26.50
  -6   2  11   43.60   27.80
   6   2 -11   55.29   17.60
  -6   2  11   55.29   23.70
  -4  -2  11  -31.70   27.50
  -4  -2  11   -3.50   22.70
   4  -2 -11  -16.70   17.10
   4  -2 -11  -24.90   22.60
   4   2 -11   36.60   16.60
  -4   2  11   17.30   27.90
   4   2 -11  -12.20   25.00
  -4   2  11  -12.90   22.20
  -4   2  11   33.40   28.00
  -2  -2  11   97.99   24.90
   2  -2 -11   91.99   21.50
   2   2 -11   76.39   20.80
  -2   2  11   39.70   23.80
   2   2 -11  132.79   26.10
 -19  -3  11   27.60   19.40
  19  -3 -11  -30.10   18.60
 -19  -3  11   -7.30   23.50
 -19   3  11   32.30   18.50
  19   3 -11  -21.90   22.20
  19   3 -11   -4.90   17.40
  19   3 -11    6.50   17.10
 -19   3  11   28.70   22.30
 -19   3  11   30.40   22.20
 -17  -3  11   58.49   21.20
 -17  -3  11   40.30   18.10
  17  -3 -11   56.49   20.30
  17   3 -11   82.09   17.90
  17   3 -11   54.89   16.70
  17   3 -11   71.99   23.20
 -17   3  11   41.00   29.00
 -17   3  11   47.30   17.60
 -17   3  11   88.79   25.40
  17   3 -11   82.89   22.70
 -15  -3  11   15.30   21.50
 -15  -3  11  -22.80   15.60
  15  -3 -11   -3.10   19.10
 -15   3  11   34.10   23.60
  15   3 -11  -29.00   20.90
  15   3 -11   -4.10   15.70
  15   3 -11   -8.50   21.80
 -15   3  11  -16.20   26.60
 -15   3  11   56.49   18.40
  15   3 -11   -9.50   14.70
  13  -3 -11   81.09   22.30
 -13  -3  11   52.19   17.00
 -13  -3  11   73.59   23.80
 -13   3  11   51.39   20.80
  13   3 -11   64.39   21.40
  13   3 -11   83.79   18.10
 -13   3  11   65.89   26.40
 -13   3  11   49.10   29.00
  13   3 -11   84.59   25.10
 -11  -3  11  309.97   31.20
 -11  -3  11  288.57   29.80
  11  -3 -11  312.27   35.10
  11   3 -11  304.57   29.20
 -11   3  11  283.47   33.40
  11   3 -11  336.77   41.40
 -11   3  11  270.57   36.00
 -11   3  11  342.47   38.00
  11   3 -11  283.47   35.10
  -9  -3  11  -28.70   24.40
   9  -3 -11   -4.40   22.60
  -9  -3  11    8.10   17.50
   9   3 -11    2.00   24.90
   9   3 -11    9.70   23.10
  -9   3  11  -29.60   28.30
  -9   3  11   42.90   30.00
  -9   3  11   34.80   23.30
   9   3 -11    1.40   15.80
  -7  -3  11    6.80   20.40
   7  -3 -11  -32.20   20.90
  -7  -3  11  -31.90   26.10
   7  -3 -11   -6.80   16.40
  -7   3  11  -22.50   26.90
  -7   3  11   40.50   22.50
   7   3 -11   13.20   18.40
  -7   3  11   18.80   29.60
   7   3 -11   42.70   27.20
  -5  -3  11   64.39   24.50
   5  -3 -11    9.70   22.80
   5  -3 -11   18.50   17.10
  -5  -3  11   40.80   27.20
   5   3 -11   48.40   19.70
  -5   3  11   57.69   24.00
   5   3 -11   30.30   27.50
  -5   3  11   31.10   27.90
  -5   3  11   31.30   27.40
  -3  -3  11   74.19   25.40
  -3  -3  11   41.00   30.00
   3  -3 -11   59.99   19.50
   3   3 -11   92.19   26.60
  -3   3  11   29.60   22.00
   3   3 -11   33.90   18.20
  -1  -3  11   34.30   24.20
   1  -3 -11   83.59   22.70
  -1   3  11   31.10   30.70
   1   3 -11   63.19   26.50
   1   3 -11   63.79   17.80
 -18  -4  11   48.30   19.20
  18  -4 -11   66.69   20.10
 -18   4  11   33.40   46.20
  18   4 -11   47.10   18.10
  18   4 -11   46.70   18.50
 -18   4  11   66.99   24.80
 -18   4  11   34.70   19.10
  18   4 -11   61.29   21.50
  16  -4 -11   40.70   19.00
 -16  -4  11   -3.40   17.20
 -16  -4  11   -3.90   18.80
 -16   4  11    0.30   28.40
  16   4 -11   -7.90   19.90
  16   4 -11   41.40   16.40
 -16   4  11  -51.59   24.50
  16   4 -11   11.90   15.00
  16   4 -11   21.90   21.40
 -16   4  11   24.50   20.50
 -14  -4  11  -43.90   15.60
  14  -4 -11    8.50   20.80
 -14  -4  11    8.90   21.40
  14   4 -11   16.10   22.10
 -14   4  11    9.60   25.70
  14   4 -11   23.20   16.20
 -14   4  11  -12.10   29.80
 -14   4  11   -9.00   21.10
  14   4 -11   -7.30   20.70
 -12  -4  11  248.48   27.90
 -12  -4  11  232.78   28.40
  12  -4 -11  212.08   26.20
 -12   4  11  155.18   31.60
  12   4 -11  260.97   27.40
 -12   4  11  183.28   33.60
 -12   4  11  193.08   26.40
  12   4 -11  191.58   29.30
  12   4 -11  223.18   22.70
 -10  -4  11   85.29   26.40
  10  -4 -11   55.29   22.90
 -10  -4  11   98.49   18.80
  10   4 -11  147.49   26.90
 -10   4  11   72.79   28.80
 -10   4  11   54.19   30.40
 -10   4  11   96.39   23.80
  10   4 -11   75.89   17.40
  10   4 -11   69.59   22.50
  -8  -4  11    8.40   18.60
   8  -4 -11   14.50   22.40
  -8  -4  11  -20.30   23.30
   8  -4 -11  -29.80   21.10
   8   4 -11   21.10   17.80
  -8   4  11   46.80   28.70
  -8   4  11  -54.79   28.60
  -8   4  11   36.20   22.90
   8   4 -11  -25.10   25.50
   8   4 -11  -51.49   22.40
   6  -4 -11   84.59   18.50
  -6  -4  11   81.19   29.00
   6  -4 -11   36.60   21.60
  -6  -4  11   94.69   23.20
  -6   4  11   65.19   23.30
   6   4 -11   73.59   19.90
  -6   4  11    8.00   30.70
   6   4 -11   68.09   26.80
  -6   4  11   98.19   28.90
  -4  -4  11  -28.70   27.80
  -4  -4  11    4.90   22.40
   4  -4 -11   20.80   18.50
   4   4 -11  -10.30   25.90
   4   4 -11   14.70   19.90
  -4   4  11    0.20   22.00
  -4   4  11   -5.20   28.00
  -2  -4  11   93.59   26.30
   2  -4 -11   36.80   20.50
   2   4 -11   99.39   20.30
   2   4 -11   52.99   28.10
  -2   4  11   95.19   26.60
   2   4 -11  117.79   23.40
 -19  -5  11    3.00   23.00
 -19  -5  11    7.40   31.60
  19   5 -11    9.70   18.90
  19   5 -11    8.50   19.60
 -19   5  11   27.30   23.60
  17  -5 -11  -11.40   19.80
 -17  -5  11   33.90   18.80
  17   5 -11   21.50   19.40
 -17   5  11   10.60   23.00
  17   5 -11   54.39   18.90
  17   5 -11   14.80   15.40
 -15  -5  11   30.10   19.10
 -15  -5  11   17.00   18.70
  15  -5 -11   57.09   19.80
  15   5 -11   -7.40   22.20
 -15   5  11    1.10   28.70
  15   5 -11   16.80   20.90
  15   5 -11   52.99   17.80
 -15   5  11   37.60   22.50
 -15   5  11  -11.90   25.10
 -13  -5  11   28.60   20.90
  13  -5 -11   13.90   19.90
 -13  -5  11   42.10   17.00
  13   5 -11   26.70   21.60
 -13   5  11   15.40   28.70
  13   5 -11   38.70   17.70
 -13   5  11    8.20   30.20
  13   5 -11    0.60   23.20
 -13   5  11   75.69   24.20
  11  -5 -11  180.18   24.90
 -11  -5  11  167.98   21.20
 -11  -5  11  193.08   28.40
  11   5 -11  209.38   22.30
 -11   5  11  142.49   36.00
 -11   5  11  223.18   28.10
  11   5 -11  200.28   25.40
 -11   5  11  137.99   32.20
  11   5 -11  197.88   31.50
   9  -5 -11    2.60   22.20
  -9  -5  11   -6.20   24.30
  -9  -5  11    5.50   18.00
   9   5 -11   -4.90   17.40
   9   5 -11  -36.20   27.10
  -9   5  11  -41.30   31.50
  -9   5  11  -23.60   32.00
  -9   5  11    6.80   22.20
   9   5 -11   40.10   23.60
  -7  -5  11   -5.00   19.70
  -7  -5  11    8.80   27.80
   7  -5 -11  -34.50   21.60
  -7   5  11  -14.80   29.40
   7   5 -11   45.90   19.60
  -7   5  11    6.10   30.90
   7   5 -11   26.80   27.60
  -7   5  11   25.20   22.30
  -5  -5  11   33.90   24.60
  -5  -5  11  124.99   28.90
   5  -5 -11   92.89   18.80
  -5   5  11   37.20   31.90
  -5   5  11  112.49   24.30
   5   5 -11   78.99   21.40
   5   5 -11   20.80   28.70
  -5   5  11   80.89   28.50
   3  -5 -11   18.40   18.60
  -3  -5  11   29.80   32.10
  -3  -5  11  -24.50   23.00
   3   5 -11    2.80   22.00
   3   5 -11   43.20   20.00
  -3   5  11   10.70   25.60
   3   5 -11  -29.00   27.80
 -18  -6  11   -8.40   21.60
 -18  -6  11  -13.50   22.20
  18   6 -11  -21.40   19.60
 -18   6  11   74.99   26.30
  18   6 -11    6.90   17.90
 -16  -6  11    2.00   18.40
  16   6 -11  -19.60   24.60
  16   6 -11   -1.90   17.60
 -16   6  11   15.60   24.80
  14  -6 -11  -21.30   19.50
 -14  -6  11    4.80   22.50
 -14  -6  11    6.10   16.90
  14   6 -11   15.80   25.10
  14   6 -11   28.20   22.00
 -14   6  11    5.30   28.10
  14   6 -11   -4.90   17.90
 -14   6  11  -24.50   26.80
 -12  -6  11  152.08   19.90
 -12  -6  11  109.59   23.60
  12  -6 -11  130.59   23.30
  12   6 -11   82.09   19.60
 -12   6  11  131.69   24.80
  12   6 -11   72.39   21.10
 -12   6  11   88.39   32.40
 -12   6  11  103.19   33.20
  12   6 -11  101.09   27.30
 -10  -6  11   65.69   18.90
 -10  -6  11   46.40   25.30
  10  -6 -11   84.19   23.40
  10   6 -11   57.29   19.10
 -10   6  11   33.50   32.50
 -10   6  11   99.69   24.10
  10   6 -11   71.79   28.60
  10   6 -11   65.49   22.00
 -10   6  11   23.20   31.30
   8  -6 -11   28.30   22.40
  -8  -6  11   22.00   19.10
  -8  -6  11   29.50   24.80
  -8   6  11   54.29   30.10
   8   6 -11  -12.10   25.10
  -8   6  11   -3.60   31.20
   8   6 -11   13.60   20.00
  -8   6  11  -23.10   22.00
   8   6 -11    3.40   27.80
  -6  -6  11   15.40   28.10
  -6  -6  11   67.69   22.50
  -6   6  11   97.79   28.70
   6   6 -11   49.30   30.70
  -6   6  11   83.39   24.20
  -6   6  11    2.20   30.50
   6   6 -11   58.29   22.00
  -4  -6  11   50.89   24.80
  -4  -6  11   12.90   28.70
   4   6 -11   32.90   20.60
  -4   6  11  -16.10   26.30
   4   6 -11  -11.40   23.20
   4   6 -11  -43.60   28.40
 -17  -7  11   22.60   14.10
 -17  -7  11   21.30   22.50
  17   7 -11   33.70   20.90
 -15  -7  11   33.30   19.00
  15   7 -11   11.40   23.40
  15   7 -11  -16.70   19.60
 -13  -7  11   45.40   26.10
 -13  -7  11   59.49   18.50
  13   7 -11   23.20   25.20
  13   7 -11   51.49   20.00
 -13   7  11   25.20   29.80
 -13   7  11   47.30   37.40
  11  -7 -11  147.89   23.80
 -11  -7  11  148.39   21.20
 -11  -7  11   87.59   24.10
  11   7 -11  149.99   22.20
 -11   7  11   91.29   34.70
  11   7 -11  160.88   29.40
 -11   7  11  190.08   24.60
  -9  -7  11   28.60   18.70
   9  -7 -11   24.30   20.70
  -9  -7  11  -39.30   23.20
   9   7 -11   24.30   19.50
   9   7 -11   -0.80   28.40
  -9   7  11   -9.50   21.30
  -9   7  11   55.59   31.20
  -9   7  11   -5.90   30.00
  -7  -7  11  -24.80   26.30
  -7  -7  11   45.40   21.60
  -7   7  11   -6.20   29.70
   7   7 -11    0.60   19.40
   7   7 -11    2.60   21.20
  -7   7  11    2.50   24.20
  -7   7  11   18.40   29.20
   7   7 -11  -12.70   30.40
  -5  -7  11   10.90   23.70
  -5  -7  11   17.50   28.60
   5   7 -11  -39.80   31.70
   5   7 -11   37.70   25.70
   5   7 -11   -2.90   22.00
  -5   7  11   47.80   28.00
  -5   7  11  145.69   50.69
 -14  -8  11   -3.80   20.10
 -14  -8  11    7.00   13.80
  14   8 -11  -13.80   24.80
  14   8 -11   20.00   22.60
 -12  -8  11  117.69   21.10
  12   8 -11  133.29   23.30
  12   8 -11  103.99   27.50
 -12   8  11   68.79   34.50
 -10  -8  11   87.79   25.50
 -10  -8  11   53.69   19.30
  10  -8 -11   16.70   22.00
  10   8 -11   40.40   21.20
 -10   8  11   55.59   33.80
  10   8 -11   35.70   29.70
  -8  -8  11   47.50   20.80
  -8  -8  11  -32.40   25.30
  -8   8  11  -47.60   30.20
   8   8 -11   21.40   30.80
  -8   8  11   11.70   24.20
   8   8 -11   -5.40   22.40
  -6  -8  11   10.10   27.40
  -6  -8  11  -39.40   23.20
   6   8 -11   34.60   22.20
   6   8 -11   11.60   34.60
  -6   8  11   37.60   29.00
  -6   8  11    8.60   32.20
 -18   0  12  -28.10   19.10
 -18   0  12   49.00   23.10
 -16   0  12   26.10   30.20
 -16   0  12   15.00   23.90
  16   0 -12    5.60   21.80
  16   0 -12   25.50   18.00
 -16   0  12    6.70   19.10
  16   0 -12   45.90   22.90
  14   0 -12   46.90   23.00
 -14   0  12   33.90   19.80
 -14   0  12   75.99   27.80
  14   0 -12   57.39   25.00
  14   0 -12   42.60   16.60
 -14   0  12   47.30   27.60
  12   0 -12    7.20   16.30
 -12   0  12    7.80   28.50
 -12   0  12    0.40   20.70
  12   0 -12   38.70   23.70
  12   0 -12   25.40   24.40
 -12   0  12    0.50   26.50
  10   0 -12    1.50   25.50
 -10   0  12   50.39   25.90
  10   0 -12    7.50   24.50
 -10   0  12   -5.60   22.90
  10   0 -12    5.50   16.10
 -10   0  12   40.20   29.60
  -8   0  12   47.30   30.40
   8   0 -12   24.40   17.30
   8   0 -12   18.60   25.60
  -8   0  12   54.69   25.40
  -6   0  12   32.70   26.00
   6   0 -12    8.70   28.50
   6   0 -12   67.19   19.10
  -4   0  12   29.60   27.30
   4   0 -12   52.49   21.70
 -19  -1  12   27.00   21.50
  19   1 -12  -22.60   18.10
  19   1 -12   29.10   19.40
 -19   1  12   28.70   22.20
  19   1 -12    5.80   23.00
 -19   1  12   -5.70   26.20
 -17  -1  12   30.20   24.30
 -17  -1  12   22.70   19.00
 -17   1  12   62.89   32.30
  17   1 -12   16.00   19.50
  17   1 -12    5.30   23.70
 -17   1  12   13.50   19.40
 -17   1  12   12.10   24.30
 -15  -1  12   26.40   18.60
  15  -1 -12   53.79   22.90
 -15  -1  12   -5.80   26.40
  15   1 -12   17.70   19.20
 -15   1  12  -31.30   29.70
 -15   1  12   40.80   27.30
  15   1 -12   -6.20   25.40
  15   1 -12   47.30   22.70
 -15   1  12   45.60   20.40
  13  -1 -12   29.70   22.00
  13  -1 -12   43.70   23.90
 -13  -1  12   23.70   25.90
  13  -1 -12   37.30   16.70
 -13  -1  12  -12.80   25.50
 -13  -1  12   -9.30   20.20
  13   1 -12   47.30   17.60
 -13   1  12   27.00   22.10
  13   1 -12   -2.60   23.80
 -13   1  12   -9.60   26.20
  13   1 -12   38.00   24.50
 -13   1  12    3.80   28.00
 -11  -1  12    2.70   21.80
  11  -1 -12  -11.00   23.00
 -11  -1  12  -29.10   25.40
  11  -1 -12   -1.80   15.30
  11  -1 -12   36.80   23.50
 -11   1  12  -52.99   28.40
  11   1 -12   16.20   25.00
  11   1 -12  -32.30   17.30
 -11   1  12   50.39   27.80
  11   1 -12  -23.20   23.70
 -11   1  12   31.10   24.00
  -9  -1  12   43.60   24.80
   9  -1 -12    4.80   15.80
   9  -1 -12    9.20   23.60
   9  -1 -12    4.00   27.60
  -9  -1  12   28.10   27.40
  -9   1  12    9.10   25.90
   9   1 -12   10.00   25.80
   9   1 -12    3.90   25.50
  -9   1  12   35.50   31.00
  -9   1  12  -37.30   26.80
   9   1 -12  -27.30   17.90
   7  -1 -12   47.50   18.50
  -7  -1  12   38.10   32.30
   7  -1 -12    2.90   25.50
  -7  -1  12   16.80   26.70
   7   1 -12  -17.60   23.40
  -7   1  12    0.20   24.70
  -7   1  12    0.30   29.50
  -7   1  12   53.69   29.90
   7   1 -12   34.80   18.00
   5  -1 -12   78.09   21.20
  -5  -1  12   20.70   26.90
  -5   1  12   19.00   25.50
   5   1 -12   53.49   19.30
 -18  -2  12   19.20   21.30
  18   2 -12   52.79   23.80
 -18   2  12   -2.50   25.90
 -18   2  12   21.70   20.30
  18   2 -12   41.80   16.80
  18   2 -12   34.60   19.50
 -18   2  12   19.90   30.10
  16  -2 -12   42.40   22.50
 -16  -2  12   17.10   18.70
 -16  -2  12   56.89   25.30
 -16   2  12   46.20   27.10
 -16   2  12   64.79   22.80
  16   2 -12   59.39   19.10
 -16   2  12   98.99   32.60
  16   2 -12   47.30   23.20
  14  -2 -12   35.90   24.20
 -14  -2  12   64.69   19.90
 -14  -2  12   53.39   26.80
  14   2 -12   25.30   19.70
 -14   2  12    5.10   26.70
 -14   2  12   96.89   24.20
 -14   2  12   -5.10   35.20
  14   2 -12   43.80   24.90
  14   2 -12   67.99   25.90
 -12  -2  12    5.20   25.40
 -12  -2  12    9.50   19.50
  12  -2 -12  -11.80   22.70
  12  -2 -12   28.20   16.40
  12  -2 -12   13.30   24.20
 -12   2  12  -12.90   28.10
  12   2 -12  -32.80   23.30
 -12   2  12   -1.00   31.40
 -12   2  12   56.99   24.40
  12   2 -12   20.60   23.20
  12   2 -12   13.90   18.00
  10  -2 -12  -14.10   24.30
 -10  -2  12   22.30   21.80
 -10  -2  12   10.70   26.50
  10  -2 -12   -1.30   16.20
  10  -2 -12  -12.50   23.60
  10   2 -12   25.80   26.00
 -10   2  12   -1.20   25.90
 -10   2  12   -3.60   30.80
  10   2 -12   30.20   27.00
 -10   2  12   -8.10   29.50
  10   2 -12    8.50   17.00
   8  -2 -12  -22.00   22.80
  -8  -2  12    7.00   28.50
   8  -2 -12   16.80   17.40
  -8  -2  12   23.70   25.50
   8   2 -12    4.00   26.00
   8   2 -12   28.20   19.10
  -8   2  12   23.20   29.10
  -8   2  12  -44.00   28.90
  -8   2  12    2.90   25.00
   6  -2 -12   38.20   18.40
  -6  -2  12   57.19   26.20
   6   2 -12   33.00   26.60
   6   2 -12   44.80   19.00
  -6   2  12   50.99   26.50
  -6   2  12   83.19   30.80
   4  -2 -12   69.99   22.60
  -4  -2  12   56.59   29.00
  -4   2  12  119.49   32.10
   4   2 -12   57.29   22.20
  -4   2  12   50.69   31.50
  19   3 -12   43.50   19.10
  19   3 -12  -12.20   19.60
 -19   3  12   10.50   22.00
  19   3 -12   21.50   23.50
 -19   3  12    8.20   25.00
 -17  -3  12   48.20   21.00
 -17   3  12   56.89   31.10
 -17   3  12   58.09   26.40
  17   3 -12  -28.10   22.90
  17   3 -12   -0.20   17.50
 -17   3  12   35.50   21.50
  15  -3 -12   14.10   23.10
 -15  -3  12   47.50   28.50
 -15  -3  12   25.50   18.70
 -15   3  12   25.00   31.90
 -15   3  12   55.09   27.70
 -15   3  12   39.60   24.00
  15   3 -12   37.90   24.90
  15   3 -12   53.09   18.70
  15   3 -12   19.10   25.60
 -13  -3  12   14.50   24.20
 -13  -3  12   53.89   19.60
  13  -3 -12   79.19   24.40
 -13   3  12   57.59   36.20
  13   3 -12   75.79   24.80
  13   3 -12   95.39   19.80
 -13   3  12   76.99   26.00
  13   3 -12   57.99   26.90
 -13   3  12   15.60   30.10
 -11  -3  12   17.70   24.90
  11  -3 -12   16.70   22.20
 -11  -3  12   29.50   20.30
  11   3 -12   14.30   19.50
 -11   3  12    8.80   25.80
  11   3 -12   -7.00   25.10
 -11   3  12  -10.30   30.70
 -11   3  12  -30.60   32.70
  11   3 -12  -24.20   21.80
   9  -3 -12   26.20   18.00
   9  -3 -12   40.90   23.50
  -9  -3  12   64.09   27.20
  -9  -3  12  -29.80   22.70
   9  -3 -12   23.10   26.80
  -9   3  12   34.10   26.90
   9   3 -12   35.00   19.70
  -9   3  12   -9.40   32.90
   9   3 -12  -12.10   25.50
  -9   3  12   28.70   29.50
   9   3 -12   42.20   24.90
   7  -3 -12   36.60   18.90
  -7  -3  12  -14.70   27.00
   7   3 -12   -2.30   27.10
   7   3 -12   24.10   20.50
  -7   3  12   79.59   34.50
  -7   3  12    0.00   31.70
  -7   3  12   36.60   25.30
   5  -3 -12   32.20   20.30
  -5  -3  12   15.30   27.00
  -5   3  12   25.40   32.70
   5   3 -12   33.50   29.70
   5   3 -12   61.89   21.90
  -5   3  12    0.00   27.00
 -18   4  12   52.09   24.40
  18   4 -12   47.20   21.70
 -18   4  12   36.30   27.80
  18   4 -12   -8.80   17.00
  16  -4 -12    4.20   22.80
 -16  -4  12   45.40   19.80
 -16   4  12   32.40   25.50
 -16   4  12   50.19   28.40
 -16   4  12   67.89   33.00
  16   4 -12   33.30   23.20
  16   4 -12   45.80   20.40
 -14  -4  12    5.90   19.70
  14  -4 -12   56.59   23.80
 -14   4  12   47.80   34.60
  14   4 -12   16.80   25.20
  14   4 -12   11.90   22.80
  14   4 -12   16.80   19.00
 -14   4  12   78.59   31.30
 -14   4  12   -6.80   27.00
  12  -4 -12   33.60   22.20
 -12  -4  12   22.40   19.80
 -12  -4  12   -5.80   28.40
 -12   4  12  -27.40   35.90
 -12   4  12    8.80   32.90
 -12   4  12   24.90   25.90
  12   4 -12   29.60   19.80
  12   4 -12    1.10   24.30
  12   4 -12   13.90   27.70
 -10  -4  12   -9.60   29.90
  10  -4 -12  -27.30   23.30
 -10  -4  12  -45.70   21.00
 -10   4  12  -57.69   23.40
 -10   4  12   35.30   36.00
  10   4 -12   -7.70   24.00
 -10   4  12   23.80   30.20
  10   4 -12   -5.10   20.90
  10   4 -12    2.80   27.80
  -8  -4  12   52.19   25.80
  -8   4  12    9.80   35.60
   8   4 -12  -44.00   28.00
   8   4 -12    1.70   21.10
  -8   4  12  -10.50   25.20
  -8   4  12   -8.20   28.60
   6  -4 -12   17.50   18.40
  -6  -4  12   40.90   27.00
   6   4 -12   34.30   24.00
  -6   4  12   55.09   31.90
  -6   4  12   29.90   26.60
   6   4 -12   -7.40   28.40
 -17  -5  12   72.69   25.80
 -17   5  12   25.80   28.50
  17   5 -12   39.80   17.70
  17   5 -12   22.30   19.90
 -17   5  12   63.39   28.40
  15  -5 -12   48.20   23.30
 -15  -5  12   51.19   20.80
 -15   5  12  -42.50   54.79
 -15   5  12   33.20   27.20
 -15   5  12   11.30   30.90
  15   5 -12    6.50   19.90
  13  -5 -12   45.80   21.80
 -13  -5  12   -3.00   19.50
  13   5 -12   11.20   19.80
 -13   5  12  -74.39   31.50
 -13   5  12   45.00   27.60
 -13   5  12    2.50   35.70
  13   5 -12   -7.90   25.10
 -11  -5  12  -10.80   20.60
  11   5 -12   18.00   28.40
 -11   5  12    3.60   33.60
 -11   5  12  -54.19   36.60
 -11   5  12   52.89   26.20
  11   5 -12   29.30   20.70
  -9  -5  12   10.90   22.80
   9   5 -12  -16.60   28.10
   9   5 -12   11.50   21.60
  -9   5  12  -26.40   30.40
  -9   5  12   77.09   36.40
  -9   5  12   13.90   27.40
  -7  -5  12    6.80   26.70
   7   5 -12   84.89   30.30
  -7   5  12   23.70   32.00
  -7   5  12   21.30   25.90
   7   5 -12   26.20   24.00
 -14  -6  12   -4.90   20.70
  14   6 -12   29.90   22.20
 -14   6  12   -9.30   32.70
 -14   6  12   71.59   28.40
 -12  -6  12   22.70   20.60
  12   6 -12   48.60   22.90
 -12   6  12  -51.49   32.70
 -12   6  12   30.00   26.10
  12   6 -12   -1.60   27.60
 -10  -6  12  -29.60   21.90
 -10   6  12   77.09   27.80
 -10   6  12   54.79   35.60
  10   6 -12    0.30   28.80
 -10   6  12   13.90   32.20
  10   6 -12    5.00   23.00
  -8  -6  12  -10.60   24.40
  -8   6  12   49.60   57.49
  -8   6  12    8.60   27.40
   8   6 -12  -12.20   31.50
 -11  -7  12   38.00   23.10
 -11   7  12  -25.50   26.90
 -11   7  12  124.69   36.30
  11   7 -12  -23.90   30.50
  16   0 -13   46.50   28.10
 -16   0  13    7.00   36.90
 -16   0  13   61.49   25.90
  16   0 -13   63.69   20.30
 -14   0  13  -64.49   24.80
  14   0 -13   42.60   18.90
  14   0 -13   15.50   29.40
 -14   0  13   43.70   34.60
 -12   0  13   12.50   27.80
  12   0 -13   12.50   17.90
  12   0 -13    4.90   27.70
 -12   0  13   16.60   31.20
 -10   0  13   99.99   31.60
  10   0 -13  105.99   29.10
  10   0 -13  130.19   21.80
   8   0 -13   48.90   21.10
 -17   1  13   17.10   40.60
  17   1 -13   20.80   20.10
  17   1 -13   24.50   26.50
 -17   1  13  -20.80   32.80
  15  -1 -13   69.79   17.10
  15  -1 -13   47.70   28.20
 -15  -1  13   39.40   33.90
 -15  -1  13   20.00   23.70
  15   1 -13   49.50   28.90
 -15   1  13   25.10   27.60
  15   1 -13   53.59   20.40
 -15   1  13   45.80   36.00
 -13  -1  13    5.60   25.60
  13  -1 -13   -4.00   17.10
  13  -1 -13   57.89   30.40
 -13   1  13  -43.00   32.60
 -13   1  13    8.50   28.50
  13   1 -13   25.30   28.10
  13   1 -13    8.20   19.20
  11  -1 -13   58.89   29.80
 -11  -1  13   43.80   30.50
  11  -1 -13   27.30   18.60
  11   1 -13   19.60   19.90
  11   1 -13  -43.10   25.30
 -11   1  13   36.00   34.70
 -11   1  13   48.80   29.80
   9  -1 -13   30.50   27.90
  -9  -1  13  133.89   32.70
   9  -1 -13  143.49   22.50
   9   1 -13  118.09   22.40
  -9   1  13   70.69   35.10
  -9   1  13   45.10   34.30
  16   2 -13   -6.00   21.70
 -16   2  13   25.10   28.20
  16   2 -13   16.80   26.50
 -16   2  13   34.10   38.00
 -14  -2  13   -8.60   24.40
  14   2 -13   13.10   26.30
 -14   2  13  -54.29   28.70
 -14   2  13  -75.99   35.00
  14   2 -13   17.40   21.00
  12  -2 -13   -7.00   29.40
  12  -2 -13    7.70   18.00
 -12  -2  13  -10.70   26.60
 -12   2  13   48.80   36.80
  12   2 -13   12.40   21.80
  12   2 -13  -16.10   42.80
 -12   2  13    1.20   30.00
 -10  -2  13  -15.30   29.00
  10  -2 -13   67.69   31.00
  10  -2 -13   81.49   19.80
 -10   2  13    6.50   38.10
  10   2 -13   79.89   22.30
 -10   2  13   15.80   32.90
 -15  -3  13   21.50   36.50
 -15   3  13   19.10   31.00
  15   3 -13  -18.80   22.90
 -15   3  13  -41.30   35.00
 -13  -3  13   32.50   24.30
  13   3 -13   10.40   22.20
 -13   3  13  114.29   38.40
 -13   3  13   15.70   31.60
 -11  -3  13   36.80   28.30
 -11   3  13   43.00   38.10
  11   3 -13   36.80   23.70
 -11   3  13   87.79   31.50
 -14   4  13  -16.50   32.00
 -12  -4  13  -33.50   24.20
  12   4 -13    8.00   24.60
 -12   4  13   -2.10   37.10
 -12   4  13   -2.30   31.60

_computing_structure_solution     'SHELXT 2014/4 (Sheldrick, 2014)'
;
_shelx_hkl_checksum              83391
_shelx_fab_file
;
    2    0    0    -27.37      0.00
    4    0    0      8.44      0.00
    6    0    0     -5.71      0.00
    8    0    0     -3.70      0.00
   10    0    0     -4.64      0.00
   12    0    0      0.35      0.00
   14    0    0     -0.97      0.00
   16    0    0      2.15      0.00
   18    0    0      1.70      0.00
    3    1    0     14.78      0.00
    5    1    0     -3.32      0.00
    7    1    0      8.76      0.00
    9    1    0      0.01      0.00
   11    1    0      4.83      0.00
   13    1    0     -1.19      0.00
   15    1    0      1.11      0.00
   17    1    0     -4.07      0.00
    0    2    0     66.22      0.00
    2    2    0      7.25      0.00
    4    2    0     -0.16      0.00
    6    2    0     -8.60      0.00
    8    2    0      0.35      0.00
   10    2    0     -5.11      0.00
   12    2    0     -1.17      0.00
   14    2    0      0.99      0.00
   16    2    0      2.29      0.00
    1    3    0    -28.30      0.00
    3    3    0     -5.19      0.00
    5    3    0      6.68      0.00
    7    3    0      3.67      0.00
    9    3    0      2.20      0.00
   11    3    0      3.20      0.00
   13    3    0     -0.02      0.00
   15    3    0     -2.04      0.00
   17    3    0     -1.59      0.00
    0    4    0     24.13      0.00
    2    4    0     11.39      0.00
    4    4    0     -1.16      0.00
    6    4    0     -8.00      0.00
    8    4    0      0.40      0.00
   10    4    0     -5.09      0.00
   12    4    0      0.43      0.00
   14    4    0      0.03      0.00
   16    4    0      3.14      0.00
    1    5    0    -13.65      0.00
    3    5    0     -3.27      0.00
    5    5    0      6.99      0.00
    7    5    0      1.82      0.00
    9    5    0      2.84      0.00
   11    5    0      2.03      0.00
   13    5    0      0.12      0.00
   15    5    0     -2.10      0.00
   17    5    0      0.20      0.00
    0    6    0     15.41      0.00
    2    6    0      2.95      0.00
    4    6    0     -1.08      0.00
    6    6    0     -5.57      0.00
    8    6    0     -2.40      0.00
   10    6    0     -0.02      0.00
   12    6    0     -2.78      0.00
   14    6    0      0.93      0.00
   16    6    0      1.32      0.00
    1    7    0     -7.52      0.00
    3    7    0      1.22      0.00
    5    7    0      1.06      0.00
    7    7    0      4.57      0.00
    9    7    0      0.47      0.00
   11    7    0      0.84      0.00
   13    7    0      1.57      0.00
   15    7    0     -0.94      0.00
    0    8    0      9.49      0.00
    2    8    0     -0.73      0.00
    4    8    0     -0.49      0.00
    6    8    0      0.09      0.00
    8    8    0     -4.12      0.00
   10    8    0      1.07      0.00
   12    8    0     -1.51      0.00
   14    8    0      0.04      0.00
    1    9    0     -2.99      0.00
    3    9    0      0.72      0.00
    5    9    0     -0.02      0.00
    7    9    0      0.01      0.00
    9    9    0      0.95      0.00
   11    9    0      1.08      0.00
   13    9    0     -0.87      0.00
    0   10    0      0.65      0.00
    2   10    0      1.62      0.00
    4   10    0     -1.09      0.00
    6   10    0      1.63      0.00
    8   10    0     -0.74      0.00
   10   10    0      0.15      0.00
   12   10    0     -0.18      0.00
    1   11    0      0.39      0.00
    3   11    0     -1.78      0.00
    5   11    0      0.90      0.00
    7   11    0     -2.53      0.00
    9   11    0      2.30      0.00
   11   11    0     -2.81      0.00
    0   12    0     -2.03      0.00
    2   12    0      1.16      0.00
    4   12    0     -0.06      0.00
    6   12    0      2.22      0.00
    8   12    0     -0.21      0.00
   10   12    0     -0.11      0.00
    1   13    0      0.62      0.00
    3   13    0      0.18      0.00
    5   13    0     -2.19      0.00
    7   13    0     -1.97      0.00
    9   13    0      1.46      0.00
    0   14    0      0.16      0.00
    2   14    0     -1.30      0.00
    4   14    0      1.39      0.00
    6   14    0      3.08      0.00
    1   15    0     -1.25      0.00
    3   15    0      3.56      0.00
  -18    0    1      0.75      0.00
  -16    0    1      0.14      0.00
  -14    0    1     -0.77      0.00
  -12    0    1      1.45      0.00
  -10    0    1      0.97      0.00
   -8    0    1     -2.61      0.00
   -6    0    1     -7.95      0.00
   -4    0    1     -7.77      0.00
   -2    0    1    -77.76      0.00
    0    0    1     82.95      0.00
    2    0    1    -10.27      0.00
    4    0    1      9.86      0.00
    6    0    1     -0.24      0.00
    8    0    1      2.10      0.00
   10    0    1     -1.42      0.00
   12    0    1      1.01      0.00
   14    0    1     -0.64      0.00
   16    0    1      2.41      0.00
  -17    1    1     -2.43      0.00
  -15    1    1      1.71      0.00
  -13    1    1     -3.61      0.00
  -11    1    1      4.14      0.00
   -9    1    1     -4.98      0.00
   -7    1    1      8.30      0.00
   -5    1    1      0.13      0.00
   -3    1    1     58.51      0.00
   -1    1    1    -17.87      0.00
    1    1    1    -30.33      0.00
    3    1    1      0.11      0.00
    5    1    1     -5.96      0.00
    7    1    1      0.83      0.00
    9    1    1     -0.96      0.00
   11    1    1      0.48      0.00
   13    1    1     -0.79      0.00
   15    1    1      0.34      0.00
  -18    2    1     -0.93      0.00
  -16    2    1     -0.33      0.00
  -14    2    1      1.94      0.00
  -12    2    1      0.33      0.00
  -10    2    1     -0.95      0.00
   -8    2    1      2.73      0.00
   -6    2    1     -7.65      0.00
   -4    2    1    -18.84      0.00
   -2    2    1    -30.78      0.00
    0    2    1     33.33      0.00
    2    2    1      7.22      0.00
    4    2    1      8.07      0.00
    6    2    1     -3.72      0.00
    8    2    1      4.16      0.00
   10    2    1     -1.60      0.00
   12    2    1     -0.82      0.00
   14    2    1      0.51      0.00
   16    2    1      2.07      0.00
  -17    3    1     -0.52      0.00
  -15    3    1     -0.60      0.00
  -13    3    1     -2.14      0.00
  -11    3    1      1.44      0.00
   -9    3    1     -3.00      0.00
   -7    3    1      1.92      0.00
   -5    3    1     11.46      0.00
   -3    3    1     20.59      0.00
   -1    3    1     -4.59      0.00
    1    3    1    -11.47      0.00
    3    3    1    -11.64      0.00
    5    3    1      1.80      0.00
    7    3    1     -2.05      0.00
    9    3    1     -0.29      0.00
   11    3    1      1.31      0.00
   13    3    1      0.87      0.00
   15    3    1     -1.56      0.00
  -18    4    1     -2.50      0.00
  -16    4    1      2.59      0.00
  -14    4    1     -0.45      0.00
  -12    4    1      3.10      0.00
  -10    4    1     -2.40      0.00
   -8    4    1      4.69      0.00
   -6    4    1     -6.13      0.00
   -4    4    1    -12.90      0.00
   -2    4    1     -7.44      0.00
    0    4    1      7.90      0.00
    2    4    1     10.05      0.00
    4    4    1      4.70      0.00
    6    4    1     -2.01      0.00
    8    4    1      2.89      0.00
   10    4    1     -2.29      0.00
   12    4    1     -1.25      0.00
   14    4    1      0.51      0.00
   16    4    1      1.79      0.00
  -17    5    1     -0.94      0.00
  -15    5    1     -1.22      0.00
  -13    5    1     -0.67      0.00
  -11    5    1     -1.36      0.00
   -9    5    1      0.29      0.00
   -7    5    1     -1.48      0.00
   -5    5    1      8.38      0.00
   -3    5    1      8.83      0.00
   -1    5    1     -1.35      0.00
    1    5    1     -7.21      0.00
    3    5    1     -8.42      0.00
    5    5    1      1.61      0.00
    7    5    1     -1.09      0.00
    9    5    1     -1.01      0.00
   11    5    1      2.33      0.00
   13    5    1      1.66      0.00
   15    5    1     -3.03      0.00
  -16    6    1      1.64      0.00
  -14    6    1      1.67      0.00
  -12    6    1     -0.82      0.00
  -10    6    1      1.11      0.00
   -8    6    1      1.00      0.00
   -6    6    1     -3.57      0.00
   -4    6    1     -6.00      0.00
   -2    6    1     -6.60      0.00
    0    6    1      7.69      0.00
    2    6    1      5.05      0.00
    4    6    1      4.38      0.00
    6    6    1     -0.99      0.00
    8    6    1      0.19      0.00
   10    6    1      0.71      0.00
   12    6    1     -2.53      0.00
   14    6    1     -0.16      0.00
  -15    7    1     -1.39      0.00
  -13    7    1     -0.26      0.00
  -11    7    1      0.39      0.00
   -9    7    1     -0.73      0.00
   -7    7    1      2.65      0.00
   -5    7    1      2.03      0.00
   -3    7    1      7.23      0.00
   -1    7    1     -1.88      0.00
    1    7    1     -4.58      0.00
    3    7    1     -3.23      0.00
    5    7    1     -3.02      0.00
    7    7    1      1.22      0.00
    9    7    1     -0.97      0.00
   11    7    1      0.49      0.00
   13    7    1      1.73      0.00
   15    7    1     -0.47      0.00
  -16    8    1      1.51      0.00
  -14    8    1      1.62      0.00
  -12    8    1     -1.87      0.00
  -10    8    1      1.11      0.00
   -8    8    1     -3.00      0.00
   -6    8    1     -0.80      0.00
   -4    8    1     -2.67      0.00
   -2    8    1     -5.60      0.00
    0    8    1      5.19      0.00
    2    8    1      1.03      0.00
    4    8    1      1.54      0.00
    6    8    1      3.56      0.00
    8    8    1     -1.67      0.00
   10    8    1      1.01      0.00
   12    8    1     -1.81      0.00
   14    8    1      0.66      0.00
  -15    9    1     -0.58      0.00
  -13    9    1     -1.00      0.00
  -11    9    1      1.11      0.00
   -9    9    1      2.45      0.00
   -7    9    1      0.61      0.00
   -5    9    1      0.24      0.00
   -3    9    1      4.61      0.00
   -1    9    1      0.39      0.00
    1    9    1     -0.85      0.00
    3    9    1     -0.80      0.00
    5    9    1     -1.32      0.00
    7    9    1     -1.49      0.00
    9    9    1     -0.02      0.00
   11    9    1      1.29      0.00
   13    9    1     -0.69      0.00
  -14   10    1      1.20      0.00
  -12   10    1     -1.42      0.00
  -10   10    1     -0.43      0.00
   -8   10    1     -2.38      0.00
   -6   10    1      1.40      0.00
   -4   10    1     -3.08      0.00
   -2   10    1     -1.42      0.00
    0   10    1     -2.37      0.00
    2   10    1      0.80      0.00
    4   10    1     -0.65      0.00
    6   10    1      1.26      0.00
    8   10    1      0.08      0.00
   10   10    1      0.53      0.00
   12   10    1     -1.72      0.00
  -13   11    1      1.80      0.00
  -11   11    1     -1.36      0.00
   -9   11    1      3.20      0.00
   -7   11    1     -1.45      0.00
   -5   11    1      1.69      0.00
   -3   11    1      1.07      0.00
   -1   11    1      1.96      0.00
    1   11    1      3.08      0.00
    3   11    1     -0.21      0.00
    5   11    1      1.86      0.00
    7   11    1     -2.69      0.00
    9   11    1      3.23      0.00
   11   11    1     -2.73      0.00
  -12   12    1     -0.03      0.00
  -10   12    1     -0.47      0.00
   -8   12    1     -1.61      0.00
   -6   12    1      0.69      0.00
   -4   12    1     -1.66      0.00
   -2   12    1      0.18      0.00
    0   12    1     -4.19      0.00
    2   12    1     -1.34      0.00
    4   12    1     -3.44      0.00
    6   12    1      1.87      0.00
    8   12    1     -1.20      0.00
   10   12    1      0.52      0.00
   -9   13    1      1.45      0.00
   -7   13    1      0.97      0.00
   -5   13    1     -0.78      0.00
   -3   13    1      0.94      0.00
   -1   13    1      1.04      0.00
    1   13    1      3.17      0.00
    3   13    1      4.19      0.00
    5   13    1      1.42      0.00
    7   13    1     -2.55      0.00
   -8   14    1     -1.99      0.00
   -6   14    1      0.84      0.00
   -4   14    1      0.06      0.00
   -2   14    1     -1.33      0.00
    0   14    1      0.02      0.00
    2   14    1     -5.91      0.00
    4   14    1     -2.96      0.00
    6   14    1      1.79      0.00
   -3   15    1      0.48      0.00
   -1   15    1      3.23      0.00
    1   15    1     -1.59      0.00
  -18    0    2      0.34      0.00
  -16    0    2     -0.08      0.00
  -14    0    2      0.61      0.00
  -12    0    2     -0.21      0.00
  -10    0    2      5.07      0.00
   -8    0    2     -0.88      0.00
   -6    0    2      5.39      0.00
   -4    0    2      2.57      0.00
   -2    0    2    -67.16      0.00
    0    0    2     29.21      0.00
    2    0    2     -6.00      0.00
    4    0    2      6.84      0.00
    6    0    2      0.74      0.00
    8    0    2      2.42      0.00
   10    0    2     -0.18      0.00
   12    0    2     -1.35      0.00
   14    0    2     -3.08      0.00
  -19    1    2      1.90      0.00
  -17    1    2      0.07      0.00
  -15    1    2      1.50      0.00
  -13    1    2     -4.89      0.00
  -11    1    2      2.65      0.00
   -9    1    2     -5.60      0.00
   -7    1    2      2.33      0.00
   -5    1    2    -18.70      0.00
   -3    1    2     54.31      0.00
   -1    1    2      2.80      0.00
    1    1    2     -6.91      0.00
    3    1    2     -1.39      0.00
    5    1    2     -2.77      0.00
    7    1    2     -3.11      0.00
    9    1    2     -0.13      0.00
   11    1    2      0.57      0.00
   13    1    2      1.50      0.00
   15    1    2      1.97      0.00
  -18    2    2     -0.55      0.00
  -16    2    2     -2.05      0.00
  -14    2    2      2.55      0.00
  -12    2    2      0.09      0.00
  -10    2    2      0.91      0.00
   -8    2    2      4.64      0.00
   -6    2    2      3.74      0.00
   -4    2    2     -9.41      0.00
   -2    2    2    -33.64      0.00
    0    2    2      7.25      0.00
    2    2    2      0.00      0.00
    4    2    2      6.88      0.00
    6    2    2     -1.01      0.00
    8    2    2      3.70      0.00
   10    2    2      0.49      0.00
   12    2    2     -2.23      0.00
   14    2    2     -1.05      0.00
  -19    3    2      2.84      0.00
  -17    3    2      0.56      0.00
  -15    3    2      0.44      0.00
  -13    3    2     -2.56      0.00
  -11    3    2      1.70      0.00
   -9    3    2     -4.96      0.00
   -7    3    2     -3.38      0.00
   -5    3    2      1.37      0.00
   -3    3    2     22.01      0.00
   -1    3    2      4.66      0.00
    1    3    2      3.20      0.00
    3    3    2     -9.00      0.00
    5    3    2      1.53      0.00
    7    3    2     -3.36      0.00
    9    3    2     -1.98      0.00
   11    3    2      0.76      0.00
   13    3    2      0.62      0.00
   15    3    2      1.01      0.00
  -18    4    2     -2.80      0.00
  -16    4    2      0.61      0.00
  -14    4    2     -0.53      0.00
  -12    4    2      2.58      0.00
  -10    4    2     -1.31      0.00
   -8    4    2      6.05      0.00
   -6    4    2      1.90      0.00
   -4    4    2     -9.96      0.00
   -2    4    2    -11.06      0.00
    0    4    2     -4.82      0.00
    2    4    2      5.39      0.00
    4    4    2      2.55      0.00
    6    4    2     -0.19      0.00
    8    4    2      4.25      0.00
   10    4    2      0.57      0.00
   12    4    2     -1.59      0.00
   14    4    2      1.14      0.00
  -17    5    2     -0.09      0.00
  -15    5    2     -0.17      0.00
  -13    5    2     -0.33      0.00
  -11    5    2     -1.95      0.00
   -9    5    2     -1.32      0.00
   -7    5    2     -5.04      0.00
   -5    5    2      3.46      0.00
   -3    5    2      9.25      0.00
   -1    5    2      5.89      0.00
    1    5    2      0.66      0.00
    3    5    2     -6.21      0.00
    5    5    2      0.85      0.00
    7    5    2     -1.13      0.00
    9    5    2     -3.21      0.00
   11    5    2     -0.53      0.00
   13    5    2      1.45      0.00
  -18    6    2     -0.52      0.00
  -16    6    2      0.18      0.00
  -14    6    2      0.90      0.00
  -12    6    2      1.20      0.00
  -10    6    2      1.43      0.00
   -8    6    2      3.31      0.00
   -6    6    2      0.96      0.00
   -4    6    2     -3.75      0.00
   -2    6    2     -8.83      0.00
    0    6    2     -1.19      0.00
    2    6    2      2.04      0.00
    4    6    2      2.57      0.00
    6    6    2     -0.59      0.00
    8    6    2      2.03      0.00
   10    6    2      1.74      0.00
   12    6    2      0.39      0.00
   14    6    2      0.73      0.00
  -17    7    2     -1.60      0.00
  -15    7    2      0.59      0.00
  -13    7    2     -2.56      0.00
  -11    7    2     -1.29      0.00
   -9    7    2     -2.30      0.00
   -7    7    2     -0.86      0.00
   -5    7    2     -0.60      0.00
   -3    7    2      6.78      0.00
   -1    7    2      1.64      0.00
    1    7    2      0.97      0.00
    3    7    2     -1.06      0.00
    5    7    2     -1.32      0.00
    7    7    2      0.43      0.00
    9    7    2     -1.91      0.00
   11    7    2     -1.08      0.00
   13    7    2     -0.70      0.00
  -16    8    2     -0.72      0.00
  -14    8    2      3.66      0.00
  -12    8    2      0.46      0.00
  -10    8    2      2.29      0.00
   -8    8    2      0.10      0.00
   -6    8    2      1.71      0.00
   -4    8    2     -0.73      0.00
   -2    8    2     -4.93      0.00
    0    8    2      0.66      0.00
    2    8    2     -0.51      0.00
    4    8    2     -1.62      0.00
    6    8    2      1.71      0.00
    8    8    2     -0.20      0.00
   10    8    2      1.90      0.00
   12    8    2     -1.09      0.00
  -15    9    2     -1.83      0.00
  -13    9    2     -1.54      0.00
  -11    9    2     -2.27      0.00
   -9    9    2      0.37      0.00
   -7    9    2     -0.44      0.00
   -5    9    2     -3.06      0.00
   -3    9    2      2.34      0.00
   -1    9    2      0.66      0.00
    1    9    2      0.41      0.00
    3    9    2      1.10      0.00
    5    9    2      1.44      0.00
    7    9    2     -0.62      0.00
    9    9    2     -1.19      0.00
   11    9    2      2.42      0.00
  -14   10    2      2.72      0.00
  -12   10    2      0.14      0.00
  -10   10    2      1.27      0.00
   -8   10    2     -0.78      0.00
   -6   10    2      3.84      0.00
   -4   10    2     -0.08      0.00
   -2   10    2      1.05      0.00
    0   10    2     -1.46      0.00
    2   10    2      0.56      0.00
    4   10    2     -2.07      0.00
    6   10    2     -0.46      0.00
    8   10    2     -2.01      0.00
   10   10    2      2.06      0.00
  -13   11    2      1.35      0.00
  -11   11    2     -2.98      0.00
   -9   11    2      1.62      0.00
   -7   11    2     -2.75      0.00
   -5   11    2     -1.24      0.00
   -3   11    2     -2.14      0.00
   -1   11    2     -0.51      0.00
    1   11    2     -0.33      0.00
    3   11    2      0.11      0.00
    5   11    2      3.48      0.00
    7   11    2     -0.91      0.00
    9   11    2      3.87      0.00
  -12   12    2     -0.29      0.00
  -10   12    2      2.06      0.00
   -8   12    2     -0.54      0.00
   -6   12    2      2.49      0.00
   -4   12    2      0.18      0.00
   -2   12    2      3.94      0.00
    0   12    2      0.51      0.00
    2   12    2      2.08      0.00
    4   12    2     -4.70      0.00
    6   12    2      1.01      0.00
    8   12    2     -4.57      0.00
  -11   13    2     -0.97      0.00
   -9   13    2     -0.98      0.00
   -7   13    2      0.50      0.00
   -5   13    2     -1.61      0.00
   -3   13    2     -1.29      0.00
   -1   13    2     -3.70      0.00
    1   13    2     -2.95      0.00
    3   13    2      2.23      0.00
    5   13    2      3.64      0.00
    7   13    2      0.00      0.00
   -8   14    2     -0.50      0.00
   -6   14    2      0.26      0.00
   -4   14    2      1.59      0.00
   -2   14    2      0.57      0.00
    0   14    2      6.35      0.00
    2   14    2     -0.35      0.00
    4   14    2     -4.31      0.00
   -3   15    2     -3.25      0.00
   -1   15    2      0.13      0.00
  -20    0    3     -0.16      0.00
  -18    0    3     -0.63      0.00
  -16    0    3     -0.14      0.00
  -14    0    3      2.19      0.00
  -12    0    3     -3.60      0.00
  -10    0    3      4.77      0.00
   -8    0    3     -4.71      0.00
   -6    0    3     15.05      0.00
   -4    0    3     12.59      0.00
   -2    0    3    -32.87      0.00
    0    0    3      7.46      0.00
    2    0    3     -6.50      0.00
    4    0    3      2.36      0.00
    6    0    3     -0.15      0.00
    8    0    3      0.74      0.00
   10    0    3      1.23      0.00
   12    0    3      0.04      0.00
   14    0    3     -3.02      0.00
  -19    1    3     -1.39      0.00
  -17    1    3      0.85      0.00
  -15    1    3      1.77      0.00
  -13    1    3     -2.73      0.00
  -11    1    3      1.39      0.00
   -9    1    3     -1.74      0.00
   -7    1    3      2.05      0.00
   -5    1    3    -30.24      0.00
   -3    1    3     27.38      0.00
   -1    1    3      4.48      0.00
    1    1    3      2.23      0.00
    3    1    3     -0.91      0.00
    5    1    3      1.84      0.00
    7    1    3     -2.15      0.00
    9    1    3     -0.51      0.00
   11    1    3      0.00      0.00
   13    1    3      0.22      0.00
  -20    2    3      0.34      0.00
  -18    2    3      0.21      0.00
  -16    2    3     -1.48      0.00
  -14    2    3      1.95      0.00
  -12    2    3     -1.03      0.00
  -10    2    3     -0.80      0.00
   -8    2    3      1.87      0.00
   -6    2    3     11.37      0.00
   -4    2    3      4.08      0.00
   -2    2    3    -18.07      0.00
    0    2    3     -1.00      0.00
    2    2    3     -3.04      0.00
    4    2    3      1.46      0.00
    6    2    3     -1.10      0.00
    8    2    3      1.52      0.00
   10    2    3      1.46      0.00
   12    2    3     -1.17      0.00
   14    2    3     -0.09      0.00
  -19    3    3      0.75      0.00
  -17    3    3      0.72      0.00
  -15    3    3     -0.10      0.00
  -13    3    3     -1.72      0.00
  -11    3    3      3.63      0.00
   -9    3    3     -2.49      0.00
   -7    3    3     -5.18      0.00
   -5    3    3     -9.76      0.00
   -3    3    3     11.81      0.00
   -1    3    3      3.69      0.00
    1    3    3      6.79      0.00
    3    3    3     -4.13      0.00
    5    3    3      3.15      0.00
    7    3    3     -1.37      0.00
    9    3    3     -1.70      0.00
   11    3    3      1.66      0.00
   13    3    3     -1.94      0.00
  -18    4    3     -0.50      0.00
  -16    4    3     -0.15      0.00
  -14    4    3      0.79      0.00
  -12    4    3      0.07      0.00
  -10    4    3     -2.51      0.00
   -8    4    3      3.97      0.00
   -6    4    3      7.54      0.00
   -4    4    3     -1.36      0.00
   -2    4    3     -5.32      0.00
    0    4    3     -9.16      0.00
    2    4    3      2.68      0.00
    4    4    3     -0.45      0.00
    6    4    3     -2.20      0.00
    8    4    3      2.37      0.00
   10    4    3      0.80      0.00
   12    4    3     -1.43      0.00
   14    4    3      2.29      0.00
  -19    5    3      0.47      0.00
  -17    5    3     -0.30      0.00
  -15    5    3     -0.49      0.00
  -13    5    3      0.06      0.00
  -11    5    3      0.52      0.00
   -9    5    3     -0.21      0.00
   -7    5    3     -6.18      0.00
   -5    5    3     -2.31      0.00
   -3    5    3      3.18      0.00
   -1    5    3      6.55      0.00
    1    5    3      4.01      0.00
    3    5    3     -3.04      0.00
    5    5    3      1.59      0.00
    7    5    3      0.25      0.00
    9    5    3     -0.82      0.00
   11    5    3     -0.37      0.00
   13    5    3     -0.15      0.00
  -18    6    3      0.88      0.00
  -16    6    3     -0.24      0.00
  -14    6    3      0.15      0.00
  -12    6    3      0.64      0.00
  -10    6    3     -0.16      0.00
   -8    6    3      2.68      0.00
   -6    6    3      3.36      0.00
   -4    6    3      0.84      0.00
   -2    6    3     -4.97      0.00
    0    6    3     -5.18      0.00
    2    6    3      0.65      0.00
    4    6    3      0.48      0.00
    6    6    3     -1.18      0.00
    8    6    3      0.87      0.00
   10    6    3      0.23      0.00
   12    6    3      0.86      0.00
  -17    7    3     -2.28      0.00
  -15    7    3      2.61      0.00
  -13    7    3     -1.98      0.00
  -11    7    3     -0.64      0.00
   -9    7    3     -1.41      0.00
   -7    7    3     -2.06      0.00
   -5    7    3     -2.39      0.00
   -3    7    3      3.82      0.00
   -1    7    3      1.88      0.00
    1    7    3      1.97      0.00
    3    7    3      0.33      0.00
    5    7    3     -0.43      0.00
    7    7    3     -0.15      0.00
    9    7    3     -0.72      0.00
   11    7    3     -0.71      0.00
  -16    8    3     -3.21      0.00
  -14    8    3      1.94      0.00
  -12    8    3      0.88      0.00
  -10    8    3      1.36      0.00
   -8    8    3      0.04      0.00
   -6    8    3      2.27      0.00
   -4    8    3      0.00      0.00
   -2    8    3     -3.19      0.00
    0    8    3     -0.49      0.00
    2    8    3      0.27      0.00
    4    8    3     -1.63      0.00
    6    8    3      1.02      0.00
    8    8    3      1.21      0.00
   10    8    3      2.25      0.00
  -15    9    3     -1.72      0.00
  -13    9    3      0.53      0.00
  -11    9    3     -1.61      0.00
   -9    9    3     -0.46      0.00
   -7    9    3      0.55      0.00
   -5    9    3     -1.83      0.00
   -3    9    3      1.45      0.00
   -1    9    3      1.21      0.00
    1    9    3     -0.91      0.00
    3    9    3     -0.04      0.00
    5    9    3      0.89      0.00
    7    9    3     -0.87      0.00
    9    9    3     -5.82      0.00
   11    9    3      2.40      0.00
  -14   10    3      1.11      0.00
  -12   10    3     -0.17      0.00
  -10   10    3      0.17      0.00
   -8   10    3     -1.53      0.00
   -6   10    3      1.96      0.00
   -4   10    3     -0.74      0.00
   -2   10    3     -0.30      0.00
    0   10    3     -0.36      0.00
    2   10    3      1.92      0.00
    4   10    3     -0.83      0.00
    6   10    3      2.66      0.00
    8   10    3     -0.39      0.00
   10   10    3      5.44      0.00
  -13   11    3      2.68      0.00
  -11   11    3     -1.11      0.00
   -9   11    3      1.61      0.00
   -7   11    3     -0.66      0.00
   -5   11    3      1.25      0.00
   -3   11    3     -1.13      0.00
   -1   11    3      1.56      0.00
    1   11    3     -2.49      0.00
    3   11    3     -1.68      0.00
    5   11    3     -0.14      0.00
    7   11    3     -1.88      0.00
    9   11    3     -1.82      0.00
  -12   12    3     -2.69      0.00
  -10   12    3      1.03      0.00
   -8   12    3     -1.18      0.00
   -6   12    3      0.39      0.00
   -4   12    3     -2.03      0.00
   -2   12    3     -0.18      0.00
    0   12    3      1.52      0.00
    2   12    3      4.23      0.00
    4   12    3     -1.90      0.00
    6   12    3      4.56      0.00
  -11   13    3      0.60      0.00
   -9   13    3     -1.13      0.00
   -7   13    3      1.45      0.00
   -5   13    3      0.70      0.00
   -3   13    3      2.45      0.00
   -1   13    3     -0.56      0.00
    1   13    3     -5.10      0.00
    3   13    3     -1.20      0.00
    5   13    3      0.43      0.00
   -8   14    3      0.24      0.00
   -6   14    3     -1.41      0.00
   -4   14    3     -1.03      0.00
   -2   14    3     -2.83      0.00
    0   14    3      3.83      0.00
    2   14    3      4.30      0.00
  -20    0    4      2.83      0.00
  -18    0    4     -1.15      0.00
  -16    0    4     -1.63      0.00
  -14    0    4      4.13      0.00
  -12    0    4     -3.52      0.00
  -10    0    4      3.60      0.00
   -8    0    4    -12.77      0.00
   -6    0    4     11.76      0.00
   -4    0    4     14.28      0.00
   -2    0    4    -11.30      0.00
    0    0    4      5.31      0.00
    2    0    4     -4.38      0.00
    4    0    4     -0.41      0.00
    6    0    4     -0.87      0.00
    8    0    4     -0.07      0.00
   10    0    4      2.56      0.00
   12    0    4      4.09      0.00
  -21    1    4      1.14      0.00
  -19    1    4     -2.20      0.00
  -17    1    4      0.07      0.00
  -15    1    4      0.71      0.00
  -13    1    4     -0.68      0.00
  -11    1    4     -0.23      0.00
   -9    1    4      2.60      0.00
   -7    1    4      8.51      0.00
   -5    1    4    -25.77      0.00
   -3    1    4      7.95      0.00
   -1    1    4     -1.75      0.00
    1    1    4      3.49      0.00
    3    1    4     -0.80      0.00
    5    1    4      2.60      0.00
    7    1    4     -0.24      0.00
    9    1    4     -1.42      0.00
   11    1    4     -1.44      0.00
   13    1    4     -3.91      0.00
  -20    2    4      1.76      0.00
  -18    2    4     -0.51      0.00
  -16    2    4     -0.72      0.00
  -14    2    4      2.09      0.00
  -12    2    4     -0.26      0.00
  -10    2    4     -1.73      0.00
   -8    2    4     -5.93      0.00
   -6    2    4      9.62      0.00
   -4    2    4      9.15      0.00
   -2    2    4     -4.18      0.00
    0    2    4     -0.13      0.00
    2    2    4     -1.04      0.00
    4    2    4     -1.37      0.00
    6    2    4     -1.92      0.00
    8    2    4      0.33      0.00
   10    2    4      1.52      0.00
   12    2    4      0.65      0.00
  -19    3    4     -0.84      0.00
  -17    3    4      1.38      0.00
  -15    3    4     -0.77      0.00
  -13    3    4     -2.72      0.00
  -11    3    4      3.82      0.00
   -9    3    4      2.26      0.00
   -7    3    4     -0.96      0.00
   -5    3    4    -11.76      0.00
   -3    3    4      0.39      0.00
   -1    3    4     -0.09      0.00
    1    3    4      3.52      0.00
    3    3    4     -2.21      0.00
    5    3    4      4.31      0.00
    7    3    4      0.24      0.00
    9    3    4     -1.93      0.00
   11    3    4      3.89      0.00
   13    3    4     -2.30      0.00
  -20    4    4      0.94      0.00
  -18    4    4      0.04      0.00
  -16    4    4     -1.24      0.00
  -14    4    4      2.78      0.00
  -12    4    4     -0.02      0.00
  -10    4    4     -3.87      0.00
   -8    4    4     -0.62      0.00
   -6    4    4      5.94      0.00
   -4    4    4      4.66      0.00
   -2    4    4      3.08      0.00
    0    4    4     -5.91      0.00
    2    4    4      2.21      0.00
    4    4    4     -1.03      0.00
    6    4    4     -3.29      0.00
    8    4    4      0.10      0.00
   10    4    4     -1.29      0.00
   12    4    4     -2.92      0.00
  -19    5    4     -0.34      0.00
  -17    5    4      0.88      0.00
  -15    5    4     -0.63      0.00
  -13    5    4     -1.56      0.00
  -11    5    4      2.41      0.00
   -9    5    4      2.08      0.00
   -7    5    4     -2.84      0.00
   -5    5    4     -4.37      0.00
   -3    5    4     -3.82      0.00
   -1    5    4      1.22      0.00
    1    5    4      2.43      0.00
    3    5    4     -1.24      0.00
    5    5    4      1.89      0.00
    7    5    4      1.55      0.00
    9    5    4      0.75      0.00
   11    5    4      4.52      0.00
  -18    6    4      1.08      0.00
  -16    6    4     -1.44      0.00
  -14    6    4      0.60      0.00
  -12    6    4     -0.02      0.00
  -10    6    4     -1.58      0.00
   -8    6    4      0.02      0.00
   -6    6    4      2.22      0.00
   -4    6    4      3.61      0.00
   -2    6    4      2.10      0.00
    0    6    4     -2.99      0.00
    2    6    4      0.84      0.00
    4    6    4     -0.94      0.00
    6    6    4     -1.12      0.00
    8    6    4     -1.72      0.00
   10    6    4     -2.77      0.00
  -17    7    4     -1.56      0.00
  -15    7    4      3.14      0.00
  -13    7    4     -0.71      0.00
  -11    7    4      0.47      0.00
   -9    7    4      0.61      0.00
   -7    7    4     -0.92      0.00
   -5    7    4     -2.86      0.00
   -3    7    4     -0.22      0.00
   -1    7    4     -0.11      0.00
    1    7    4     -0.77      0.00
    3    7    4      1.60      0.00
    5    7    4      1.24      0.00
    7    7    4      0.19      0.00
    9    7    4      2.10      0.00
   11    7    4      2.19      0.00
  -18    8    4      1.49      0.00
  -16    8    4     -3.27      0.00
  -14    8    4     -0.56      0.00
  -12    8    4      0.10      0.00
  -10    8    4      0.41      0.00
   -8    8    4     -1.15      0.00
   -6    8    4      1.63      0.00
   -4    8    4      1.30      0.00
   -2    8    4     -1.39      0.00
    0    8    4      0.94      0.00
    2    8    4      0.76      0.00
    4    8    4     -2.70      0.00
    6    8    4     -1.15      0.00
    8    8    4     -0.09      0.00
   10    8    4     -0.48      0.00
  -17    9    4      4.36      0.00
  -15    9    4     -0.89      0.00
  -13    9    4      0.97      0.00
  -11    9    4      0.01      0.00
   -9    9    4      0.25      0.00
   -7    9    4      0.03      0.00
   -5    9    4     -0.86      0.00
   -3    9    4      0.58      0.00
   -1    9    4      1.33      0.00
    1    9    4     -1.67      0.00
    3    9    4      0.77      0.00
    5    9    4      2.04      0.00
    7    9    4      3.46      0.00
    9    9    4     -5.98      0.00
  -16   10    4     -1.36      0.00
  -14   10    4      0.43      0.00
  -12   10    4      0.11      0.00
  -10   10    4     -0.36      0.00
   -8   10    4     -1.40      0.00
   -6   10    4      0.68      0.00
   -4   10    4      0.08      0.00
   -2   10    4     -2.15      0.00
    0   10    4      0.23      0.00
    2   10    4      1.09      0.00
    4   10    4     -3.16      0.00
    6   10    4      0.12      0.00
    8   10    4     -0.55      0.00
  -15   11    4     -1.77      0.00
  -13   11    4      0.44      0.00
  -11   11    4      0.75      0.00
   -9   11    4      0.26      0.00
   -7   11    4     -0.29      0.00
   -5   11    4      1.78      0.00
   -3   11    4     -0.12      0.00
   -1   11    4      2.60      0.00
    1   11    4     -1.36      0.00
    3   11    4      1.31      0.00
    5   11    4     -0.40      0.00
    7   11    4      2.06      0.00
  -12   12    4     -1.52      0.00
  -10   12    4      0.36      0.00
   -8   12    4     -0.36      0.00
   -6   12    4     -0.05      0.00
   -4   12    4     -0.84      0.00
   -2   12    4     -4.08      0.00
    0   12    4      0.98      0.00
    2   12    4      1.49      0.00
    4   12    4     -2.81      0.00
    6   12    4      2.52      0.00
  -11   13    4      0.97      0.00
   -9   13    4     -1.73      0.00
   -7   13    4      0.57      0.00
   -5   13    4     -0.07      0.00
   -3   13    4      3.70      0.00
   -1   13    4      2.12      0.00
    1   13    4     -2.42      0.00
    3   13    4     -0.05      0.00
   -8   14    4      0.62      0.00
   -6   14    4      0.61      0.00
   -4   14    4     -1.91      0.00
   -2   14    4     -3.41      0.00
    0   14    4      0.09      0.00
  -20    0    5      2.42      0.00
  -18    0    5     -0.52      0.00
  -16    0    5     -3.62      0.00
  -14    0    5      2.80      0.00
  -12    0    5     -1.80      0.00
  -10    0    5      7.88      0.00
   -8    0    5    -14.37      0.00
   -6    0    5      3.36      0.00
   -4    0    5      8.53      0.00
   -2    0    5     -4.66      0.00
    0    0    5      4.60      0.00
    2    0    5     -0.92      0.00
    4    0    5      0.61      0.00
    6    0    5     -1.63      0.00
    8    0    5     -3.79      0.00
   10    0    5     -1.36      0.00
  -21    1    5      1.35      0.00
  -19    1    5      0.14      0.00
  -17    1    5      1.09      0.00
  -15    1    5     -0.17      0.00
  -13    1    5      0.66      0.00
  -11    1    5     -2.68      0.00
   -9    1    5      0.27      0.00
   -7    1    5     12.68      0.00
   -5    1    5    -14.93      0.00
   -3    1    5      4.89      0.00
   -1    1    5     -4.64      0.00
    1    1    5      0.93      0.00
    3    1    5     -0.92      0.00
    5    1    5      1.39      0.00
    7    1    5      2.31      0.00
    9    1    5      1.04      0.00
   11    1    5      1.79      0.00
  -20    2    5      1.20      0.00
  -18    2    5     -1.56      0.00
  -16    2    5     -2.45      0.00
  -14    2    5      0.99      0.00
  -12    2    5      0.19      0.00
  -10    2    5      2.66      0.00
   -8    2    5     -8.73      0.00
   -6    2    5      3.13      0.00
   -4    2    5      4.42      0.00
   -2    2    5      0.19      0.00
    0    2    5      0.06      0.00
    2    2    5      1.57      0.00
    4    2    5     -0.09      0.00
    6    2    5     -2.11      0.00
    8    2    5     -1.53      0.00
   10    2    5     -0.45      0.00
  -21    3    5     -0.23      0.00
  -19    3    5      0.11      0.00
  -17    3    5      2.88      0.00
  -15    3    5      1.57      0.00
  -13    3    5     -2.54      0.00
  -11    3    5      0.69      0.00
   -9    3    5      2.95      0.00
   -7    3    5      1.92      0.00
   -5    3    5     -3.76      0.00
   -3    3    5     -2.03      0.00
   -1    3    5     -0.65      0.00
    1    3    5      1.53      0.00
    3    3    5     -3.60      0.00
    5    3    5      3.04      0.00
    7    3    5      2.01      0.00
    9    3    5     -3.67      0.00
   11    3    5      3.44      0.00
  -20    4    5      0.21      0.00
  -18    4    5     -1.58      0.00
  -16    4    5     -4.17      0.00
  -14    4    5      1.38      0.00
  -12    4    5      0.90      0.00
  -10    4    5     -1.78      0.00
   -8    4    5     -1.33      0.00
   -6    4    5      0.20      0.00
   -4    4    5      1.23      0.00
   -2    4    5      4.00      0.00
    0    4    5     -3.67      0.00
    2    4    5      2.47      0.00
    4    4    5      0.57      0.00
    6    4    5     -2.36      0.00
    8    4    5      1.87      0.00
   10    4    5     -0.40      0.00
  -19    5    5      0.18      0.00
  -17    5    5      2.94      0.00
  -15    5    5      2.59      0.00
  -13    5    5     -2.81      0.00
  -11    5    5      1.68      0.00
   -9    5    5      0.81      0.00
   -7    5    5      0.11      0.00
   -5    5    5     -0.14      0.00
   -3    5    5     -2.12      0.00
   -1    5    5     -0.27      0.00
    1    5    5      0.76      0.00
    3    5    5     -0.74      0.00
    5    5    5     -0.57      0.00
    7    5    5      2.04      0.00
    9    5    5     -4.19      0.00
  -20    6    5     -1.58      0.00
  -18    6    5      0.21      0.00
  -16    6    5     -3.94      0.00
  -14    6    5      0.22      0.00
  -12    6    5      0.00      0.00
  -10    6    5      0.26      0.00
   -8    6    5     -0.07      0.00
   -6    6    5     -0.34      0.00
   -4    6    5     -0.10      0.00
   -2    6    5      1.98      0.00
    0    6    5     -1.20      0.00
    2    6    5      0.80      0.00
    4    6    5     -0.68      0.00
    6    6    5      1.05      0.00
    8    6    5     -0.37      0.00
   10    6    5      0.27      0.00
  -19    7    5      0.82      0.00
  -17    7    5      0.21      0.00
  -15    7    5      2.69      0.00
  -13    7    5      0.26      0.00
  -11    7    5     -0.58      0.00
   -9    7    5     -0.12      0.00
   -7    7    5     -0.18      0.00
   -5    7    5     -0.69      0.00
   -3    7    5     -0.12      0.00
   -1    7    5      1.53      0.00
    1    7    5     -2.41      0.00
    3    7    5      0.89      0.00
    5    7    5      1.48      0.00
    7    7    5     -0.71      0.00
    9    7    5      0.36      0.00
  -18    8    5      0.90      0.00
  -16    8    5     -1.97      0.00
  -14    8    5     -1.49      0.00
  -12    8    5      0.01      0.00
  -10    8    5      1.39      0.00
   -8    8    5     -0.29      0.00
   -6    8    5      0.57      0.00
   -4    8    5      1.45      0.00
   -2    8    5     -2.56      0.00
    0    8    5      0.79      0.00
    2    8    5      2.12      0.00
    4    8    5     -2.44      0.00
    6    8    5     -1.85      0.00
    8    8    5      0.10      0.00
  -17    9    5      2.73      0.00
  -15    9    5      0.40      0.00
  -13    9    5      0.41      0.00
  -11    9    5     -0.96      0.00
   -9    9    5      0.39      0.00
   -7    9    5     -0.88      0.00
   -5    9    5     -1.32      0.00
   -3    9    5      0.49      0.00
   -1    9    5      2.05      0.00
    1    9    5     -2.43      0.00
    3    9    5      0.38      0.00
    5    9    5      1.22      0.00
    7    9    5      5.69      0.00
  -16   10    5     -1.47      0.00
  -14   10    5      0.00      0.00
  -12   10    5      1.03      0.00
  -10   10    5      0.52      0.00
   -8   10    5     -0.35      0.00
   -6   10    5      0.50      0.00
   -4   10    5      1.87      0.00
   -2   10    5     -3.07      0.00
    0   10    5      1.06      0.00
    2   10    5      1.86      0.00
    4   10    5     -2.01      0.00
    6   10    5     -3.48      0.00
  -15   11    5      0.11      0.00
  -13   11    5     -2.35      0.00
  -11   11    5      1.34      0.00
   -9   11    5     -1.03      0.00
   -7   11    5     -0.60      0.00
   -5   11    5     -0.13      0.00
   -3   11    5      0.70      0.00
   -1   11    5      0.97      0.00
    1   11    5     -2.32      0.00
    3   11    5      2.08      0.00
    5   11    5     -0.78      0.00
  -12   12    5     -0.16      0.00
  -10   12    5      1.05      0.00
   -8   12    5     -0.23      0.00
   -6   12    5      0.30      0.00
   -4   12    5      1.55      0.00
   -2   12    5     -4.28      0.00
    0   12    5      2.40      0.00
    2   12    5      0.78      0.00
    4   12    5     -1.28      0.00
  -11   13    5      0.82      0.00
   -9   13    5     -1.29      0.00
   -7   13    5     -0.02      0.00
   -5   13    5     -2.12      0.00
   -3   13    5      3.57      0.00
   -1   13    5     -0.04      0.00
    1   13    5     -1.32      0.00
   -8   14    5     -0.68      0.00
   -6   14    5      2.63      0.00
   -4   14    5     -0.89      0.00
   -2   14    5     -2.54      0.00
  -20    0    6      0.08      0.00
  -18    0    6      0.36      0.00
  -16    0    6     -0.43      0.00
  -14    0    6      1.82      0.00
  -12    0    6     -3.90      0.00
  -10    0    6     10.36      0.00
   -8    0    6    -11.12      0.00
   -6    0    6      0.74      0.00
   -4    0    6      2.59      0.00
   -2    0    6     -3.36      0.00
    0    0    6      1.62      0.00
    2    0    6     -2.15      0.00
    4    0    6      1.46      0.00
    6    0    6      1.58      0.00
    8    0    6     -3.00      0.00
   10    0    6     -2.85      0.00
  -21    1    6      0.39      0.00
  -19    1    6      0.50      0.00
  -17    1    6      1.19      0.00
  -15    1    6     -2.33      0.00
  -13    1    6      1.18      0.00
  -11    1    6     -1.94      0.00
   -9    1    6     -2.37      0.00
   -7    1    6     11.05      0.00
   -5    1    6     -8.31      0.00
   -3    1    6      4.92      0.00
   -1    1    6     -1.00      0.00
    1    1    6      0.40      0.00
    3    1    6     -0.21      0.00
    5    1    6     -0.80      0.00
    7    1    6      1.87      0.00
    9    1    6      0.33      0.00
  -20    2    6      0.25      0.00
  -18    2    6      0.82      0.00
  -16    2    6     -0.95      0.00
  -14    2    6      1.19      0.00
  -12    2    6     -2.07      0.00
  -10    2    6      4.10      0.00
   -8    2    6     -6.20      0.00
   -6    2    6      0.53      0.00
   -4    2    6     -0.22      0.00
   -2    2    6      0.66      0.00
    0    2    6     -1.86      0.00
    2    2    6      0.06      0.00
    4    2    6      0.93      0.00
    6    2    6     -0.13      0.00
    8    2    6     -1.08      0.00
   10    2    6     -1.28      0.00
  -21    3    6     -0.96      0.00
  -19    3    6     -0.59      0.00
  -17    3    6     -0.25      0.00
  -15    3    6      1.28      0.00
  -13    3    6     -0.65      0.00
  -11    3    6     -0.34      0.00
   -9    3    6      2.93      0.00
   -7    3    6      0.64      0.00
   -5    3    6      1.48      0.00
   -3    3    6     -1.15      0.00
   -1    3    6      0.03      0.00
    1    3    6      2.79      0.00
    3    3    6     -2.68      0.00
    5    3    6     -0.21      0.00
    7    3    6      3.61      0.00
    9    3    6     -3.26      0.00
  -20    4    6      2.15      0.00
  -18    4    6      1.69      0.00
  -16    4    6     -2.48      0.00
  -14    4    6      0.13      0.00
  -12    4    6     -0.46      0.00
  -10    4    6     -1.90      0.00
   -8    4    6     -0.04      0.00
   -6    4    6     -1.42      0.00
   -4    4    6     -1.88      0.00
   -2    4    6      3.14      0.00
    0    4    6     -3.89      0.00
    2    4    6      0.83      0.00
    4    4    6      2.31      0.00
    6    4    6     -3.31      0.00
    8    4    6      3.12      0.00
  -19    5    6     -1.91      0.00
  -17    5    6     -1.24      0.00
  -15    5    6      4.08      0.00
  -13    5    6     -1.96      0.00
  -11    5    6      2.10      0.00
   -9    5    6      1.01      0.00
   -7    5    6      0.40      0.00
   -5    5    6      1.68      0.00
   -3    5    6     -0.23      0.00
   -1    5    6      0.57      0.00
    1    5    6      0.44      0.00
    3    5    6      0.24      0.00
    5    5    6     -3.26      0.00
    7    5    6      4.25      0.00
    9    5    6     -4.58      0.00
  -20    6    6      1.77      0.00
  -18    6    6      3.28      0.00
  -16    6    6     -2.75      0.00
  -14    6    6     -0.21      0.00
  -12    6    6     -1.63      0.00
  -10    6    6     -0.56      0.00
   -8    6    6     -0.17      0.00
   -6    6    6     -0.99      0.00
   -4    6    6     -1.15      0.00
   -2    6    6     -0.30      0.00
    0    6    6     -0.46      0.00
    2    6    6      0.58      0.00
    4    6    6      0.06      0.00
    6    6    6      2.00      0.00
    8    6    6     -0.75      0.00
  -19    7    6     -3.06      0.00
  -17    7    6     -0.39      0.00
  -15    7    6      0.61      0.00
  -13    7    6      1.84      0.00
  -11    7    6      0.47      0.00
   -9    7    6      0.63      0.00
   -7    7    6      0.69      0.00
   -5    7    6      0.58      0.00
   -3    7    6     -0.58      0.00
   -1    7    6      2.67      0.00
    1    7    6     -1.52      0.00
    3    7    6     -1.35      0.00
    5    7    6     -0.45      0.00
    7    7    6     -0.02      0.00
  -18    8    6      2.54      0.00
  -16    8    6      0.13      0.00
  -14    8    6     -1.69      0.00
  -12    8    6     -1.39      0.00
  -10    8    6      0.38      0.00
   -8    8    6     -1.00      0.00
   -6    8    6     -0.91      0.00
   -4    8    6      2.10      0.00
   -2    8    6     -2.36      0.00
    0    8    6     -1.20      0.00
    2    8    6      3.53      0.00
    4    8    6      0.60      0.00
    6    8    6     -0.89      0.00
  -17    9    6     -1.11      0.00
  -15    9    6      1.09      0.00
  -13    9    6      1.33      0.00
  -11    9    6     -0.58      0.00
   -9    9    6      1.09      0.00
   -7    9    6      0.74      0.00
   -5    9    6     -1.26      0.00
   -3    9    6     -0.73      0.00
   -1    9    6      3.02      0.00
    1    9    6     -2.27      0.00
    3    9    6     -1.42      0.00
    5    9    6     -1.48      0.00
  -16   10    6     -0.21      0.00
  -14   10    6     -1.73      0.00
  -12   10    6      0.28      0.00
  -10   10    6      0.87      0.00
   -8   10    6     -0.83      0.00
   -6   10    6     -0.68      0.00
   -4   10    6      3.13      0.00
   -2   10    6     -2.75      0.00
    0   10    6      0.05      0.00
    2   10    6      2.03      0.00
    4   10    6      2.00      0.00
  -15   11    6      2.25      0.00
  -13   11    6     -2.05      0.00
  -11   11    6      0.77      0.00
   -9   11    6     -0.74      0.00
   -7   11    6      0.00      0.00
   -5   11    6     -1.73      0.00
   -3   11    6      1.37      0.00
   -1   11    6      0.40      0.00
    1   11    6     -1.80      0.00
    3   11    6      0.59      0.00
  -12   12    6     -1.06      0.00
  -10   12    6      2.78      0.00
   -8   12    6     -0.42      0.00
   -6   12    6      0.36      0.00
   -4   12    6      2.13      0.00
   -2   12    6     -3.21      0.00
    0   12    6      1.98      0.00
    2   12    6     -0.49      0.00
  -11   13    6     -0.47      0.00
   -9   13    6     -1.01      0.00
   -7   13    6      0.34      0.00
   -5   13    6     -4.20      0.00
   -3   13    6      4.38      0.00
   -1   13    6     -1.76      0.00
  -22    0    7     -0.34      0.00
  -20    0    7     -1.36      0.00
  -18    0    7     -4.39      0.00
  -16    0    7      0.46      0.00
  -14    0    7      1.72      0.00
  -12    0    7     -4.73      0.00
  -10    0    7     10.44      0.00
   -8    0    7     -6.01      0.00
   -6    0    7      2.00      0.00
   -4    0    7      1.73      0.00
   -2    0    7     -2.50      0.00
    0    0    7      2.44      0.00
    2    0    7     -2.07      0.00
    4    0    7     -0.41      0.00
    6    0    7      2.74      0.00
    8    0    7      1.08      0.00
  -21    1    7      0.44      0.00
  -19    1    7      2.10      0.00
  -17    1    7      3.17      0.00
  -15    1    7     -1.20      0.00
  -13    1    7      1.35      0.00
  -11    1    7     -2.76      0.00
   -9    1    7     -4.27      0.00
   -7    1    7      5.54      0.00
   -5    1    7     -4.56      0.00
   -3    1    7      0.84      0.00
   -1    1    7      0.66      0.00
    1    1    7      0.02      0.00
    3    1    7      0.65      0.00
    5    1    7     -2.34      0.00
    7    1    7      1.21      0.00
  -20    2    7     -2.75      0.00
  -18    2    7     -0.95      0.00
  -16    2    7     -1.06      0.00
  -14    2    7      1.12      0.00
  -12    2    7     -1.89      0.00
  -10    2    7      4.67      0.00
   -8    2    7     -1.32      0.00
   -6    2    7      1.88      0.00
   -4    2    7     -0.83      0.00
   -2    2    7      1.32      0.00
    0    2    7     -0.23      0.00
    2    2    7     -1.31      0.00
    4    2    7      0.08      0.00
    6    2    7      0.48      0.00
    8    2    7      0.80      0.00
  -21    3    7     -0.36      0.00
  -19    3    7      2.47      0.00
  -17    3    7     -0.66      0.00
  -15    3    7      1.78      0.00
  -13    3    7      0.33      0.00
  -11    3    7     -2.10      0.00
   -9    3    7     -0.58      0.00
   -7    3    7     -2.66      0.00
   -5    3    7      1.53      0.00
   -3    3    7     -1.58      0.00
   -1    3    7     -0.54      0.00
    1    3    7      1.78      0.00
    3    3    7      0.55      0.00
    5    3    7     -1.94      0.00
    7    3    7      2.91      0.00
  -20    4    7     -1.57      0.00
  -18    4    7      1.69      0.00
  -16    4    7     -2.13      0.00
  -14    4    7     -0.99      0.00
  -12    4    7      0.17      0.00
  -10    4    7      0.76      0.00
   -8    4    7      3.26      0.00
   -6    4    7      1.06      0.00
   -4    4    7     -1.60      0.00
   -2    4    7      3.35      0.00
    0    4    7     -2.54      0.00
    2    4    7     -1.61      0.00
    4    4    7      3.00      0.00
    6    4    7     -4.72      0.00
  -21    5    7     -0.51      0.00
  -19    5    7      1.64      0.00
  -17    5    7     -2.58      0.00
  -15    5    7      5.22      0.00
  -13    5    7     -0.29      0.00
  -11    5    7     -1.15      0.00
   -9    5    7     -2.11      0.00
   -7    5    7     -2.30      0.00
   -5    5    7      0.19      0.00
   -3    5    7     -1.09      0.00
   -1    5    7      1.07      0.00
    1    5    7      0.68      0.00
    3    5    7      1.78      0.00
    5    5    7     -3.40      0.00
    7    5    7      3.87      0.00
  -20    6    7     -0.28      0.00
  -18    6    7      1.97      0.00
  -16    6    7     -3.21      0.00
  -14    6    7     -1.58      0.00
  -12    6    7     -0.27      0.00
  -10    6    7      1.58      0.00
   -8    6    7      3.04      0.00
   -6    6    7      0.63      0.00
   -4    6    7      1.11      0.00
   -2    6    7     -1.00      0.00
    0    6    7     -1.60      0.00
    2    6    7      0.16      0.00
    4    6    7     -0.60      0.00
    6    6    7      1.84      0.00
  -19    7    7     -2.29      0.00
  -17    7    7      2.34      0.00
  -15    7    7      1.18      0.00
  -13    7    7      1.80      0.00
  -11    7    7     -1.19      0.00
   -9    7    7     -2.05      0.00
   -7    7    7     -1.70      0.00
   -5    7    7     -0.21      0.00
   -3    7    7     -1.00      0.00
   -1    7    7      2.30      0.00
    1    7    7      1.57      0.00
    3    7    7     -0.89      0.00
    5    7    7     -2.31      0.00
  -18    8    7      0.95      0.00
  -16    8    7     -1.08      0.00
  -14    8    7     -1.65      0.00
  -12    8    7     -1.42      0.00
  -10    8    7      2.71      0.00
   -8    8    7      1.35      0.00
   -6    8    7     -0.52      0.00
   -4    8    7      2.24      0.00
   -2    8    7     -0.92      0.00
    0    8    7     -3.90      0.00
    2    8    7      1.14      0.00
    4    8    7      2.69      0.00
  -17    9    7     -1.75      0.00
  -15    9    7      2.29      0.00
  -13    9    7      1.40      0.00
  -11    9    7     -1.41      0.00
   -9    9    7     -1.32      0.00
   -7    9    7     -0.04      0.00
   -5    9    7     -0.23      0.00
   -3    9    7     -1.92      0.00
   -1    9    7      4.15      0.00
    1    9    7      0.10      0.00
    3    9    7     -1.64      0.00
  -16   10    7      1.03      0.00
  -14   10    7     -2.52      0.00
  -12   10    7     -0.74      0.00
  -10   10    7      2.63      0.00
   -8   10    7      0.96      0.00
   -6   10    7     -2.01      0.00
   -4   10    7      2.53      0.00
   -2   10    7     -1.56      0.00
    0   10    7     -2.09      0.00
    2   10    7      0.45      0.00
  -15   11    7      2.25      0.00
  -13   11    7      0.19      0.00
  -11   11    7     -1.33      0.00
   -9   11    7     -0.92      0.00
   -7   11    7      0.51      0.00
   -5   11    7     -1.55      0.00
   -3   11    7      1.93      0.00
   -1   11    7      0.43      0.00
    1   11    7     -0.04      0.00
  -12   12    7     -2.21      0.00
  -10   12    7      3.18      0.00
   -8   12    7      0.22      0.00
   -6   12    7     -0.29      0.00
   -4   12    7      0.29      0.00
   -2   12    7     -1.97      0.00
   -9   13    7     -1.33      0.00
   -7   13    7      1.96      0.00
   -5   13    7     -3.98      0.00
  -22    0    8      1.10      0.00
  -20    0    8      1.41      0.00
  -18    0    8     -5.69      0.00
  -16    0    8      0.12      0.00
  -14    0    8      0.27      0.00
  -12    0    8     -4.82      0.00
  -10    0    8      4.60      0.00
   -8    0    8     -3.88      0.00
   -6    0    8     -0.03      0.00
   -4    0    8      3.43      0.00
   -2    0    8     -2.11      0.00
    0    0    8      2.86      0.00
    2    0    8     -0.06      0.00
    4    0    8     -1.62      0.00
    6    0    8     -1.61      0.00
  -21    1    8     -1.02      0.00
  -19    1    8      2.50      0.00
  -17    1    8      1.46      0.00
  -15    1    8     -0.14      0.00
  -13    1    8      3.49      0.00
  -11    1    8     -0.09      0.00
   -9    1    8     -1.49      0.00
   -7    1    8      2.36      0.00
   -5    1    8     -1.03      0.00
   -3    1    8     -1.69      0.00
   -1    1    8     -0.72      0.00
    1    1    8     -0.93      0.00
    3    1    8      2.14      0.00
    5    1    8     -1.46      0.00
  -22    2    8      2.57      0.00
  -20    2    8     -2.46      0.00
  -18    2    8     -1.05      0.00
  -16    2    8     -0.15      0.00
  -14    2    8      0.31      0.00
  -12    2    8     -3.55      0.00
  -10    2    8      1.11      0.00
   -8    2    8     -1.25      0.00
   -6    2    8      1.32      0.00
   -4    2    8      0.52      0.00
   -2    2    8      0.64      0.00
    0    2    8      3.01      0.00
    2    2    8     -0.83      0.00
    4    2    8     -0.49      0.00
    6    2    8     -1.66      0.00
  -21    3    8     -1.07      0.00
  -19    3    8      3.33      0.00
  -17    3    8     -3.73      0.00
  -15    3    8      1.24      0.00
  -13    3    8      1.80      0.00
  -11    3    8      1.83      0.00
   -9    3    8      0.03      0.00
   -7    3    8     -2.08      0.00
   -5    3    8      1.03      0.00
   -3    3    8     -2.18      0.00
   -1    3    8     -1.24      0.00
    1    3    8     -2.01      0.00
    3    3    8      1.95      0.00
    5    3    8     -0.79      0.00
  -20    4    8     -3.78      0.00
  -18    4    8      3.86      0.00
  -16    4    8      1.37      0.00
  -14    4    8     -1.06      0.00
  -12    4    8     -2.70      0.00
  -10    4    8     -1.05      0.00
   -8    4    8      1.50      0.00
   -6    4    8      0.78      0.00
   -4    4    8     -0.29      0.00
   -2    4    8      3.13      0.00
    0    4    8      0.73      0.00
    2    4    8     -0.73      0.00
    4    4    8      2.34      0.00
    6    4    8     -4.28      0.00
  -21    5    8     -1.40      0.00
  -19    5    8      1.07      0.00
  -17    5    8     -6.28      0.00
  -15    5    8      1.45      0.00
  -13    5    8      2.61      0.00
  -11    5    8      1.12      0.00
   -9    5    8     -0.30      0.00
   -7    5    8     -1.02      0.00
   -5    5    8      0.16      0.00
   -3    5    8     -2.56      0.00
   -1    5    8      0.34      0.00
    1    5    8     -0.90      0.00
    3    5    8      1.16      0.00
    5    5    8     -1.09      0.00
  -20    6    8      0.65      0.00
  -18    6    8      4.94      0.00
  -16    6    8      1.14      0.00
  -14    6    8     -1.04      0.00
  -12    6    8     -1.76      0.00
  -10    6    8     -1.18      0.00
   -8    6    8      1.00      0.00
   -6    6    8     -0.50      0.00
   -4    6    8      2.04      0.00
   -2    6    8      1.00      0.00
    0    6    8     -2.59      0.00
    2    6    8      1.27      0.00
    4    6    8     -1.47      0.00
  -19    7    8     -5.75      0.00
  -17    7    8     -1.65      0.00
  -15    7    8     -0.54      0.00
  -13    7    8      1.27      0.00
  -11    7    8      0.92      0.00
   -9    7    8      1.23      0.00
   -7    7    8     -0.74      0.00
   -5    7    8     -0.60      0.00
   -3    7    8     -0.99      0.00
   -1    7    8      0.79      0.00
    1    7    8      2.67      0.00
    3    7    8      1.37      0.00
  -18    8    8      4.57      0.00
  -16    8    8      1.16      0.00
  -14    8    8      1.34      0.00
  -12    8    8     -2.97      0.00
  -10    8    8     -0.32      0.00
   -8    8    8      0.15      0.00
   -6    8    8     -0.95      0.00
   -4    8    8      1.65      0.00
   -2    8    8      0.66      0.00
    0    8    8     -3.80      0.00
    2    8    8     -3.07      0.00
  -17    9    8     -5.03      0.00
  -15    9    8     -0.36      0.00
  -13    9    8      1.28      0.00
  -11    9    8      0.37      0.00
   -9    9    8      0.56      0.00
   -7    9    8      0.44      0.00
   -5    9    8      0.33      0.00
   -3    9    8     -2.84      0.00
   -1    9    8      3.60      0.00
    1    9    8      3.42      0.00
  -16   10    8      3.62      0.00
  -14   10    8      0.19      0.00
  -12   10    8     -2.37      0.00
  -10   10    8     -0.15      0.00
   -8   10    8      1.60      0.00
   -6   10    8     -2.38      0.00
   -4   10    8      1.65      0.00
   -2   10    8      0.24      0.00
    0   10    8     -3.58      0.00
  -13   11    8      1.99      0.00
  -11   11    8     -0.80      0.00
   -9   11    8     -0.18      0.00
   -7   11    8      1.24      0.00
   -5   11    8     -1.77      0.00
   -3   11    8      0.96      0.00
  -10   12    8      0.37      0.00
   -8   12    8      0.42      0.00
   -6   12    8      0.58      0.00
  -22    0    9      0.62      0.00
  -20    0    9      2.17      0.00
  -18    0    9     -3.87      0.00
  -16    0    9     -0.97      0.00
  -14    0    9     -0.63      0.00
  -12    0    9     -1.18      0.00
  -10    0    9      2.72      0.00
   -8    0    9     -0.79      0.00
   -6    0    9     -2.92      0.00
   -4    0    9      1.87      0.00
   -2    0    9     -2.25      0.00
    0    0    9      1.32      0.00
    2    0    9      0.77      0.00
    4    0    9      1.54      0.00
  -21    1    9     -2.88      0.00
  -19    1    9      3.34      0.00
  -17    1    9      1.07      0.00
  -15    1    9     -0.10      0.00
  -13    1    9      1.57      0.00
  -11    1    9      0.02      0.00
   -9    1    9     -0.65      0.00
   -7    1    9      0.71      0.00
   -5    1    9      1.18      0.00
   -3    1    9      0.87      0.00
   -1    1    9     -0.74      0.00
    1    1    9     -1.93      0.00
    3    1    9      1.33      0.00
  -20    2    9     -2.10      0.00
  -18    2    9     -1.23      0.00
  -16    2    9     -1.25      0.00
  -14    2    9      1.31      0.00
  -12    2    9     -2.71      0.00
  -10    2    9      0.90      0.00
   -8    2    9     -1.34      0.00
   -6    2    9     -0.67      0.00
   -4    2    9      0.15      0.00
   -2    2    9     -2.36      0.00
    0    2    9      3.62      0.00
    2    2    9     -0.24      0.00
    4    2    9      1.39      0.00
  -21    3    9     -1.82      0.00
  -19    3    9      5.69      0.00
  -17    3    9     -3.66      0.00
  -15    3    9      1.01      0.00
  -13    3    9     -0.03      0.00
  -11    3    9      3.12      0.00
   -9    3    9      0.46      0.00
   -7    3    9      0.03      0.00
   -5    3    9      1.23      0.00
   -3    3    9     -0.12      0.00
   -1    3    9      0.78      0.00
    1    3    9     -3.88      0.00
    3    3    9      0.85      0.00
  -20    4    9     -5.28      0.00
  -18    4    9      1.49      0.00
  -16    4    9      1.26      0.00
  -14    4    9      0.94      0.00
  -12    4    9     -3.24      0.00
  -10    4    9     -1.39      0.00
   -8    4    9     -0.04      0.00
   -6    4    9     -0.86      0.00
   -4    4    9     -1.03      0.00
   -2    4    9      0.74      0.00
    0    4    9      0.24      0.00
    2    4    9      1.99      0.00
  -19    5    9      2.07      0.00
  -17    5    9     -3.42      0.00
  -15    5    9     -1.56      0.00
  -13    5    9      2.22      0.00
  -11    5    9      1.49      0.00
   -9    5    9      0.81      0.00
   -7    5    9      0.08      0.00
   -5    5    9      1.79      0.00
   -3    5    9     -2.23      0.00
   -1    5    9      1.97      0.00
    1    5    9     -1.96      0.00
    3    5    9     -1.05      0.00
  -20    6    9     -0.57      0.00
  -18    6    9      3.29      0.00
  -16    6    9      0.45      0.00
  -14    6    9      1.37      0.00
  -12    6    9     -1.43      0.00
  -10    6    9     -1.11      0.00
   -8    6    9      0.31      0.00
   -6    6    9     -1.66      0.00
   -4    6    9      0.67      0.00
   -2    6    9      2.03      0.00
    0    6    9     -3.18      0.00
    2    6    9      2.77      0.00
  -19    7    9     -4.02      0.00
  -17    7    9     -2.00      0.00
  -15    7    9     -0.33      0.00
  -13    7    9     -0.26      0.00
  -11    7    9     -1.00      0.00
   -9    7    9      2.31      0.00
   -7    7    9      0.00      0.00
   -5    7    9     -0.96      0.00
   -3    7    9     -0.95      0.00
   -1    7    9     -0.14      0.00
    1    7    9      0.62      0.00
  -18    8    9      4.06      0.00
  -16    8    9     -0.64      0.00
  -14    8    9      3.12      0.00
  -12    8    9     -0.13      0.00
  -10    8    9     -0.95      0.00
   -8    8    9     -0.05      0.00
   -6    8    9      0.03      0.00
   -4    8    9      1.49      0.00
   -2    8    9      1.58      0.00
    0    8    9      0.01      0.00
  -17    9    9     -2.52      0.00
  -15    9    9     -2.22      0.00
  -13    9    9      0.48      0.00
  -11    9    9     -0.45      0.00
   -9    9    9     -0.46      0.00
   -7    9    9      1.02      0.00
   -5    9    9     -0.81      0.00
   -3    9    9     -3.39      0.00
   -1    9    9     -0.57      0.00
  -14   10    9      2.09      0.00
  -12   10    9     -0.33      0.00
  -10   10    9     -1.30      0.00
   -8   10    9      2.16      0.00
   -6   10    9     -1.01      0.00
   -4   10    9      1.68      0.00
  -11   11    9     -0.30      0.00
   -9   11    9     -1.46      0.00
   -7   11    9      1.34      0.00
   -5   11    9     -1.59      0.00
  -20    0   10      4.11      0.00
  -18    0   10      1.92      0.00
  -16    0   10     -1.38      0.00
  -14    0   10     -2.56      0.00
  -12    0   10     -4.54      0.00
  -10    0   10      0.22      0.00
   -8    0   10      0.61      0.00
   -6    0   10     -1.23      0.00
   -4    0   10      1.47      0.00
   -2    0   10     -0.26      0.00
    0    0   10      1.89      0.00
    2    0   10      0.41      0.00
  -21    1   10     -5.90      0.00
  -19    1   10     -1.79      0.00
  -17    1   10      0.04      0.00
  -15    1   10      1.56      0.00
  -13    1   10      3.09      0.00
  -11    1   10      1.79      0.00
   -9    1   10      1.37      0.00
   -7    1   10     -0.12      0.00
   -5    1   10     -0.96      0.00
   -3    1   10      1.11      0.00
   -1    1   10     -1.36      0.00
    1    1   10     -2.33      0.00
  -20    2   10      1.09      0.00
  -18    2   10      2.48      0.00
  -16    2   10     -2.45      0.00
  -14    2   10      0.33      0.00
  -12    2   10     -4.81      0.00
  -10    2   10      0.13      0.00
   -8    2   10     -2.15      0.00
   -6    2   10     -0.01      0.00
   -4    2   10      1.15      0.00
   -2    2   10     -2.43      0.00
    0    2   10      3.55      0.00
    2    2   10     -0.19      0.00
  -21    3   10     -5.23      0.00
  -19    3   10      3.42      0.00
  -17    3   10     -3.10      0.00
  -15    3   10      1.93      0.00
  -13    3   10      0.22      0.00
  -11    3   10      3.48      0.00
   -9    3   10      1.01      0.00
   -7    3   10      1.73      0.00
   -5    3   10     -0.10      0.00
   -3    3   10     -0.36      0.00
   -1    3   10      2.06      0.00
    1    3   10     -3.57      0.00
  -20    4   10     -2.03      0.00
  -18    4   10      1.12      0.00
  -16    4   10     -1.06      0.00
  -14    4   10      1.46      0.00
  -12    4   10     -3.32      0.00
  -10    4   10     -1.21      0.00
   -8    4   10     -1.33      0.00
   -6    4   10      0.24      0.00
   -4    4   10     -1.21      0.00
   -2    4   10      0.21      0.00
    0    4   10     -2.01      0.00
  -19    5   10      0.14      0.00
  -17    5   10      1.24      0.00
  -15    5   10     -2.27      0.00
  -13    5   10      2.43      0.00
  -11    5   10      0.52      0.00
   -9    5   10      1.07      0.00
   -7    5   10     -1.16      0.00
   -5    5   10      2.45      0.00
   -3    5   10     -2.87      0.00
   -1    5   10      4.25      0.00
  -18    6   10      2.41      0.00
  -16    6   10     -3.49      0.00
  -14    6   10      2.07      0.00
  -12    6   10     -0.96      0.00
  -10    6   10     -1.12      0.00
   -8    6   10      2.97      0.00
   -6    6   10     -1.06      0.00
   -4    6   10      0.48      0.00
   -2    6   10      0.87      0.00
    0    6   10     -4.28      0.00
  -17    7   10      0.12      0.00
  -15    7   10      0.47      0.00
  -13    7   10      1.07      0.00
  -11    7   10     -2.63      0.00
   -9    7   10      0.00      0.00
   -7    7   10     -0.98      0.00
   -5    7   10     -1.70      0.00
   -3    7   10     -0.53      0.00
   -1    7   10      1.49      0.00
  -16    8   10     -2.53      0.00
  -14    8   10      0.77      0.00
  -12    8   10      1.59      0.00
  -10    8   10      0.93      0.00
   -8    8   10      0.61      0.00
   -6    8   10      2.32      0.00
   -4    8   10      1.24      0.00
   -2    8   10     -0.39      0.00
  -15    9   10     -2.33      0.00
  -13    9   10      0.02      0.00
  -11    9   10      0.38      0.00
   -9    9   10     -3.56      0.00
   -7    9   10      0.38      0.00
   -5    9   10     -1.78      0.00
  -12   10   10      0.91      0.00
  -10   10   10     -0.39      0.00
   -8   10   10      2.31      0.00
  -20    0   11     -0.91      0.00
  -18    0   11      2.50      0.00
  -16    0   11      0.13      0.00
  -14    0   11      3.70      0.00
  -12    0   11     -2.26      0.00
  -10    0   11      1.82      0.00
   -8    0   11      0.61      0.00
   -6    0   11     -0.17      0.00
   -4    0   11      1.26      0.00
   -2    0   11      0.25      0.00
  -21    1   11      0.79      0.00
  -19    1   11     -1.70      0.00
  -17    1   11     -0.49      0.00
  -15    1   11     -2.85      0.00
  -13    1   11      1.28      0.00
  -11    1   11     -3.43      0.00
   -9    1   11      0.42      0.00
   -7    1   11      0.78      0.00
   -5    1   11     -1.64      0.00
   -3    1   11      0.50      0.00
   -1    1   11     -1.18      0.00
  -20    2   11     -1.72      0.00
  -18    2   11      2.64      0.00
  -16    2   11     -0.03      0.00
  -14    2   11      3.84      0.00
  -12    2   11     -1.23      0.00
  -10    2   11      4.36      0.00
   -8    2   11     -2.82      0.00
   -6    2   11      0.04      0.00
   -4    2   11      1.42      0.00
   -2    2   11     -1.19      0.00
  -19    3   11      2.53      0.00
  -17    3   11     -2.80      0.00
  -15    3   11     -1.04      0.00
  -13    3   11     -2.31      0.00
  -11    3   11     -2.09      0.00
   -9    3   11     -0.99      0.00
   -7    3   11      2.20      0.00
   -5    3   11      0.66      0.00
   -3    3   11     -1.68      0.00
   -1    3   11      1.37      0.00
  -18    4   11      1.84      0.00
  -16    4   11     -0.26      0.00
  -14    4   11      3.79      0.00
  -12    4   11      0.30      0.00
  -10    4   11      2.79      0.00
   -8    4   11     -2.93      0.00
   -6    4   11      0.77      0.00
   -4    4   11     -0.59      0.00
   -2    4   11      1.28      0.00
  -19    5   11     -2.88      0.00
  -17    5   11      2.99      0.00
  -15    5   11     -4.94      0.00
  -13    5   11      0.82      0.00
  -11    5   11     -1.73      0.00
   -9    5   11      1.42      0.00
   -7    5   11     -1.70      0.00
   -5    5   11      3.27      0.00
   -3    5   11     -4.27      0.00
  -18    6   11      3.91      0.00
  -16    6   11     -2.65      0.00
  -14    6   11      2.21      0.00
  -12    6   11      1.12      0.00
  -10    6   11     -4.26      0.00
   -8    6   11      3.36      0.00
   -6    6   11     -2.12      0.00
   -4    6   11      1.79      0.00
  -17    7   11      0.66      0.00
  -15    7   11     -1.89      0.00
  -13    7   11      1.89      0.00
  -11    7   11      0.94      0.00
   -9    7   11      0.50      0.00
   -7    7   11      0.99      0.00
   -5    7   11     -1.33      0.00
  -14    8   11     -0.42      0.00
  -12    8   11     -1.56      0.00
  -10    8   11     -0.56      0.00
   -8    8   11     -2.92      0.00
   -6    8   11      1.30      0.00
  -18    0   12      2.27      0.00
  -16    0   12      0.20      0.00
  -14    0   12      5.24      0.00
  -12    0   12      1.51      0.00
  -10    0   12      4.27      0.00
   -8    0   12      0.97      0.00
   -6    0   12     -2.29      0.00
   -4    0   12     -1.47      0.00
  -19    1   12     -1.91      0.00
  -17    1   12      0.74      0.00
  -15    1   12     -6.71      0.00
  -13    1   12      2.62      0.00
  -11    1   12     -7.06      0.00
   -9    1   12     -2.98      0.00
   -7    1   12      1.77      0.00
   -5    1   12      1.27      0.00
  -18    2   12      1.02      0.00
  -16    2   12      1.36      0.00
  -14    2   12      3.13      0.00
  -12    2   12      0.08      0.00
  -10    2   12      9.03      0.00
   -8    2   12     -1.02      0.00
   -6    2   12     -1.85      0.00
   -4    2   12     -1.28      0.00
  -19    3   12      1.27      0.00
  -17    3   12     -1.51      0.00
  -15    3   12     -1.62      0.00
  -13    3   12      0.41      0.00
  -11    3   12     -6.45      0.00
   -9    3   12     -3.77      0.00
   -7    3   12      0.12      0.00
   -5    3   12      2.71      0.00
  -18    4   12      1.06      0.00
  -16    4   12     -0.44      0.00
  -14    4   12      1.72      0.00
  -12    4   12      0.60      0.00
  -10    4   12      7.30      0.00
   -8    4   12     -0.59      0.00
   -6    4   12     -0.18      0.00
  -17    5   12      4.28      0.00
  -15    5   12     -3.45      0.00
  -13    5   12      0.78      0.00
  -11    5   12     -3.30      0.00
   -9    5   12     -0.51      0.00
   -7    5   12     -3.39      0.00
  -14    6   12     -0.33      0.00
  -12    6   12      3.49      0.00
  -10    6   12     -3.75      0.00
   -8    6   12      4.67      0.00
  -11    7   12      2.66      0.00
  -16    0   13     -4.25      0.00
  -14    0   13     -5.06      0.00
  -12    0   13     -3.91      0.00
  -10    0   13     -0.04      0.00
   -8    0   13      0.71      0.00
  -17    1   13      7.05      0.00
  -15    1   13     -1.39      0.00
  -13    1   13      9.73      0.00
  -11    1   13      0.60      0.00
   -9    1   13     -1.46      0.00
  -16    2   13     -1.90      0.00
  -14    2   13     -4.50      0.00
  -12    2   13     -7.13      0.00
  -10    2   13      3.84      0.00
  -15    3   13      1.05      0.00
  -13    3   13      8.71      0.00
  -11    3   13     -1.17      0.00
  -14    4   13     -3.01      0.00
  -12    4   13     -4.57      0.00
    1    1    0    -56.72      0.00
   18    2    0      0.33      0.00
   18    4    0     -0.90      0.00
   16    8    0     -0.56      0.00
   15    9    0      0.51      0.00
   14   10    0      1.10      0.00
   13   11    0      0.80      0.00
   12   12    0      1.17      0.00
   11   13    0     -0.36      0.00
    8   14    0     -0.48      0.00
    5   15    0     -5.32      0.00
  -19    1    1      2.96      0.00
   17    1    1     -2.31      0.00
  -19    3    1      2.38      0.00
   17    3    1     -1.69      0.00
  -18    6    1      0.23      0.00
   16    6    1      1.30      0.00
  -17    7    1     -1.67      0.00
  -11   13    1      0.14      0.00
    9   13    1      1.26      0.00
  -10   14    1     -0.50      0.00
    8   14    1      0.48      0.00
   -7   15    1      2.31      0.00
   -5   15    1     -2.64      0.00
    3   15    1      7.52      0.00
    5   15    1     -1.23      0.00
  -20    0    2     -2.58      0.00
   16    0    2      0.08      0.00
  -20    2    2     -0.96      0.00
   16    2    2     -0.77      0.00
   16    4    2     -0.44      0.00
  -19    5    2      1.89      0.00
   15    5    2     -3.07      0.00
  -18    8    2     -0.18      0.00
   14    8    2      1.59      0.00
  -17    9    2      0.45      0.00
   13    9    2     -1.45      0.00
  -16   10    2      0.42      0.00
   12   10    2     -4.00      0.00
  -15   11    2     -2.60      0.00
   11   11    2     -0.25      0.00
  -14   12    2      0.65      0.00
   10   12    2     -0.43      0.00
  -10   14    2      0.84      0.00
    6   14    2     -0.72      0.00
   -7   15    2      1.18      0.00
   -5   15    2      0.13      0.00
    1   15    2     -5.09      0.00
    3   15    2      3.23      0.00
  -21    1    3      0.34      0.00
   15    1    3      2.87      0.00
   15    3    3      1.26      0.00
  -20    4    3      1.10      0.00
   14    6    3      1.66      0.00
  -19    7    3      1.84      0.00
   13    7    3     -1.69      0.00
  -18    8    3      1.19      0.00
   12    8    3      0.16      0.00
  -17    9    3      2.99      0.00
  -16   10    3     -0.95      0.00
  -15   11    3     -1.94      0.00
  -14   12    3      0.13      0.00
    8   12    3     -2.02      0.00
  -13   13    3      1.61      0.00
    7   13    3     -1.21      0.00
  -10   14    3      0.07      0.00
    4   14    3     -1.47      0.00
   -7   15    3      0.07      0.00
   -5   15    3      2.29      0.00
   -3   15    3      0.46      0.00
   -1   15    3      0.56      0.00
    1   15    3     -3.93      0.00
   14    0    4      0.64      0.00
   14    2    4      2.15      0.00
  -21    3    4     -2.11      0.00
   13    5    4      1.17      0.00
  -20    6    4     -1.32      0.00
   12    6    4     -2.59      0.00
  -19    7    4      1.74      0.00
  -14   12    4      1.60      0.00
  -13   13    4      0.51      0.00
    5   13    4      0.16      0.00
  -10   14    4      0.31      0.00
    2   14    4      2.44      0.00
   -7   15    4     -0.99      0.00
   -5   15    4      0.54      0.00
   -3   15    4      2.20      0.00
   -1   15    4      1.52      0.00
  -22    0    5     -3.53      0.00
   12    0    5      1.95      0.00
  -22    2    5     -1.40      0.00
   12    2    5     -0.20      0.00
   12    4    5     -1.12      0.00
  -21    5    5      0.84      0.00
   11    5    5      2.98      0.00
   10    8    5     -0.15      0.00
    9    9    5     -3.29      0.00
    8   10    5     -0.49      0.00
    7   11    5      3.79      0.00
  -14   12    5      1.46      0.00
  -13   13    5     -0.67      0.00
    3   13    5     -0.20      0.00
  -10   14    5      0.94      0.00
    0   14    5      1.18      0.00
   -5   15    5     -0.86      0.00
  -22    0    6     -3.13      0.00
   11    1    6      3.15      0.00
  -22    2    6     -0.85      0.00
  -22    4    6     -0.02      0.00
   10    4    6     -0.51      0.00
  -21    5    6     -1.45      0.00
    9    7    6      0.35      0.00
  -20    8    6      2.56      0.00
    8    8    6      0.06      0.00
  -19    9    6     -3.87      0.00
    7    9    6      2.96      0.00
  -18   10    6      2.73      0.00
    6   10    6     -2.67      0.00
    5   11    6     -1.24      0.00
  -14   12    6      0.65      0.00
  -13   13    6     -0.56      0.00
    1   13    6      0.25      0.00
  -10   14    6      1.94      0.00
   -8   14    6     -1.07      0.00
   -6   14    6      2.50      0.00
   -4   14    6      0.64      0.00
   -2   14    6     -2.28      0.00
    9    1    7     -2.09      0.00
  -22    2    7      0.74      0.00
    9    3    7     -1.39      0.00
  -22    4    7     -0.53      0.00
    8    4    7      2.82      0.00
    8    6    7     -0.72      0.00
    7    7    7      0.04      0.00
  -20    8    7     -0.09      0.00
    6    8    7      0.19      0.00
  -19    9    7      0.01      0.00
    5    9    7     -1.76      0.00
  -18   10    7      0.92      0.00
    4   10    7      2.88      0.00
    3   11    7     -0.66      0.00
  -14   12    7      0.89      0.00
    0   12    7      1.44      0.00
  -11   13    7     -1.23      0.00
   -3   13    7      4.70      0.00
   -1   13    7     -1.98      0.00
    7    1    8      2.53      0.00
    7    3    8      1.82      0.00
  -22    4    8      1.78      0.00
    6    6    8      0.42      0.00
    5    7    8     -1.32      0.00
  -20    8    8      0.55      0.00
    4    8    8      1.13      0.00
  -19    9    8     -0.43      0.00
    3    9    8      0.44      0.00
    2   10    8     -2.36      0.00
  -15   11    8     -0.85      0.00
   -1   11    8      0.93      0.00
  -14   12    8      1.27      0.00
  -12   12    8     -1.94      0.00
   -4   12    8     -0.17      0.00
   -2   12    8     -1.28      0.00
   -9   13    8     -1.19      0.00
   -7   13    8      1.94      0.00
   -5   13    8     -3.23      0.00
    5    1    9     -1.63      0.00
  -22    2    9      3.11      0.00
    5    3    9     -0.74      0.00
  -22    4    9      4.26      0.00
    4    4    9      1.48      0.00
  -21    5    9     -0.53      0.00
    4    6    9     -0.22      0.00
    3    7    9      0.62      0.00
    2    8    9     -2.12      0.00
    1    9    9      1.93      0.00
  -16   10    9      1.50      0.00
   -2   10    9      2.50      0.00
  -15   11    9     -1.77      0.00
  -13   11    9      1.17      0.00
   -3   11    9     -1.37      0.00
  -12   12    9      0.53      0.00
  -10   12    9     -0.26      0.00
   -8   12    9     -0.09      0.00
   -6   12    9      0.94      0.00
  -22    0   10      3.59      0.00
    3    1   10     -0.33      0.00
  -22    2   10      5.22      0.00
    3    3   10      0.29      0.00
  -22    4   10      5.50      0.00
    2    4   10      2.36      0.00
  -21    5   10     -0.36      0.00
    1    5   10     -0.53      0.00
  -20    6   10     -1.13      0.00
  -19    7   10     -1.17      0.00
  -18    8   10      1.99      0.00
  -17    9   10      1.79      0.00
   -3    9   10     -0.83      0.00
  -14   10   10      1.34      0.00
   -6   10   10      0.41      0.00
   -4   10   10      1.03      0.00
  -11   11   10      0.86      0.00
   -9   11   10     -2.57      0.00
   -7   11   10      0.19      0.00
  -22    0   11     -0.16      0.00
    0    0   11      1.30      0.00
    1    1   11     -0.72      0.00
  -22    2   11      1.17      0.00
    0    2   11      2.26      0.00
  -21    3   11     -2.56      0.00
  -20    4   11     -1.27      0.00
    0    4   11     -1.05      0.00
   -1    5   11      2.09      0.00
  -20    6   11     -0.97      0.00
   -2    6   11      1.79      0.00
  -19    7   11     -1.59      0.00
   -3    7   11     -1.64      0.00
  -16    8   11     -0.22      0.00
   -4    8   11      1.49      0.00
  -15    9   11     -1.71      0.00
  -13    9   11     -0.44      0.00
  -11    9   11      4.38      0.00
   -9    9   11     -0.23      0.00
   -7    9   11      1.84      0.00
  -12   10   11     -1.20      0.00
  -10   10   11     -2.28      0.00
  -20    0   12     -0.54      0.00
   -2    0   12     -1.39      0.00
  -21    1   12      1.62      0.00
   -3    1   12      2.25      0.00
  -20    2   12     -0.80      0.00
   -2    2   12     -1.44      0.00
   -3    3   12      0.57      0.00
  -20    4   12     -0.89      0.00
   -4    4   12     -1.00      0.00
  -19    5   12     -3.70      0.00
   -5    5   12      3.05      0.00
  -18    6   12      1.66      0.00
  -16    6   12     -1.02      0.00
   -6    6   12     -1.86      0.00
  -17    7   12      2.30      0.00
  -15    7   12     -1.79      0.00
  -13    7   12     -0.36      0.00
   -9    7   12     -1.65      0.00
   -7    7   12      0.52      0.00
  -14    8   12      0.86      0.00
  -12    8   12     -2.30      0.00
  -10    8   12      0.63      0.00
  -18    0   13     -2.57      0.00
   -6    0   13     -0.80      0.00
  -19    1   13      0.76      0.00
   -7    1   13      0.55      0.00
  -18    2   13     -3.44      0.00
   -8    2   13      0.25      0.00
   -6    2   13     -0.81      0.00
  -19    3   13      2.26      0.00
  -17    3   13      1.75      0.00
   -9    3   13     -0.90      0.00
   -7    3   13     -0.64      0.00
  -18    4   13     -0.70      0.00
  -16    4   13     -1.53      0.00
  -10    4   13      2.46      0.00
   -8    4   13      0.58      0.00
  -17    5   13      2.97      0.00
  -15    5   13     -0.22      0.00
  -13    5   13      2.92      0.00
  -11    5   13     -0.01      0.00
   -9    5   13      1.51      0.00
  -14    6   13     -1.65      0.00
  -12    6   13      1.66      0.00
    0    0    0      0.00      0.00
# SQUEEZE RESULTS (Version = 280317)
# Note: Data are Listed for all Voids in the P1 Unit Cell
# i.e. Centre of Gravity, Solvent Accessible Volume,
# Recovered number of Electrons in the Void and
# Details about the Squeezed Material
loop_
  _platon_squeeze_void_nr
  _platon_squeeze_void_average_x
  _platon_squeeze_void_average_y
  _platon_squeeze_void_average_z
  _platon_squeeze_void_volume
  _platon_squeeze_void_count_electrons
  _platon_squeeze_void_content
   1  0.387 -0.074  0.274       516       110 ' '
# Missing Reflections Below sin(th)/lambda = 0.25
loop_
  _platon_missing_refln_index_h
  _platon_missing_refln_index_k
  _platon_missing_refln_index_l
  _platon_missing_refln_theta
    1    1    0     2.177
_platon_squeeze_void_probe_radius                  1.20
_platon_squeeze_details
)
TITL bmm_me_HgBr2_a.res in C2/m
CELL   17.7977   12.2950   10.8212     90.00    125.87     90.00
SPGR C2/m
# Solvent Accessible Volume =       520
# Electrons Found in S.A.V. =       109
# Note: Atoms in Void are Labelled as Cxxx and Qxxx for all Others
C101 0.860 0.502 0.062 !       3.10 eA-3
C102 0.934 0.488 0.191 !       2.68 eA-3
C103 0.219 0.498 0.016 !       2.24 eA-3
C104 0.817 0.417 0.014 !       2.02 eA-3
C105 0.069 0.496 0.891 !       1.92 eA-3
C106 0.756 0.468 0.935 !       1.83 eA-3
Q107 0.569 0.496 0.328 !       1.76 eA-3
C108 0.811 0.357 0.035 !       1.48 eA-3
Q109 0.252 0.495 0.141 !       1.32 eA-3
Q110 0.483 0.493 0.125 !       1.29 eA-3
C111 0.233 0.356 0.065 !       1.23 eA-3
Q112 0.425 0.453 0.777 !       1.22 eA-3
Q113 0.388 0.499 0.563 !       1.16 eA-3
C114 0.969 0.497 0.391 !       1.16 eA-3
Q115 0.301 0.496 0.359 !       1.11 eA-3
Q116 0.774 0.502 0.437 !       1.07 eA-3
Q117 0.306 0.501 0.047 !       0.97 eA-3
Q118 0.514 0.453 0.132 !       0.94 eA-3
Q119 0.609 0.497 0.062 !       0.90 eA-3
C120 0.975 0.495 0.313 !       0.90 eA-3
Q121 0.013 0.048 0.797 !       0.89 eA-3
Q122 0.529 0.223 0.434 !       0.89 eA-3
Q123 0.078 0.499 0.563 !       0.87 eA-3
C124 0.283 0.121 0.085 !       0.86 eA-3
Q125 0.895 0.500 0.672 !       0.82 eA-3
Q126 0.644 0.186 0.454 !       0.81 eA-3
Q127 0.404 0.109 0.217 !       0.79 eA-3
Q128 0.374 0.502 0.438 !       0.79 eA-3
Q129 0.538 0.065 0.390 !       0.78 eA-3
Q130 0.687 0.189 0.425 !       0.78 eA-3
Q131 0.339 0.452 0.159 !       0.77 eA-3
Q132 0.298 0.473 0.468 !       0.77 eA-3
Q133 0.173 0.171 0.941 !       0.75 eA-3
Q134 0.186 0.174 0.469 !       0.74 eA-3
Q135 0.080 0.437 0.986 !       0.73 eA-3
Q136 0.206 0.493 0.172 !       0.71 eA-3
Q137 0.441 0.110 0.169 !       0.70 eA-3
Q138 0.097 0.258 0.552 !       0.70 eA-3
Q139 0.837 0.294 0.157 !       0.67 eA-3
C140 0.134 0.501 0.781 !       0.67 eA-3
Q141 0.348 0.407 0.233 !       0.67 eA-3
Q142 0.021 0.502 0.531 !       0.67 eA-3
Q143 0.876 0.329 0.262 !       0.67 eA-3
Q144 0.780 0.439 0.127 !       0.66 eA-3
Q145 0.887 0.032 0.882 !       0.66 eA-3
Q146 0.669 0.484 0.248 !       0.65 eA-3
Q147 0.971 0.499 0.547 !       0.64 eA-3
Q148 0.151 0.500 0.484 !       0.64 eA-3
Q149 0.638 0.157 0.846 !       0.64 eA-3
Q150 0.469 0.497 0.969 !       0.64 eA-3
Q151 0.262 0.075 0.819 !       0.64 eA-3
Q152 0.594 0.359 0.829 !       0.63 eA-3
Q153 0.730 0.311 0.077 !       0.63 eA-3
Q154 0.349 0.219 0.073 !       0.63 eA-3
Q155 0.443 0.159 0.420 !       0.62 eA-3
Q156 0.684 0.497 0.125 !       0.62 eA-3
C157 1.000 0.500 0.000 !       0.61 eA-3
Q158 0.780 0.502 0.141 !       0.61 eA-3
Q159 0.749 0.201 0.984 !       0.60 eA-3
Q160 0.478 0.079 0.317 !       0.60 eA-3
Q161 0.033 0.496 0.297 !       0.60 eA-3
Q162 0.427 0.311 0.326 !       0.60 eA-3
Q163 0.116 0.454 0.094 !       0.60 eA-3
Q164 0.134 0.342 0.316 !       0.59 eA-3
Q165 0.583 0.440 0.093 !       0.59 eA-3
Q166 0.268 0.330 0.643 !       0.58 eA-3
Q167 0.206 0.281 0.592 !       0.58 eA-3
Q168 0.123 0.501 0.578 !       0.58 eA-3
Q169 0.385 0.145 0.454 !       0.58 eA-3
Q170 0.444 0.378 0.298 !       0.57 eA-3
Q171 0.826 0.498 0.641 !       0.57 eA-3
Q172 0.816 0.374 0.183 !       0.56 eA-3
Q173 0.826 0.110 0.293 !       0.56 eA-3
Q174 0.602 0.169 0.873 !       0.56 eA-3
Q175 0.217 0.047 0.145 !       0.56 eA-3
Q176 0.311 0.326 0.311 !       0.56 eA-3
Q177 0.088 0.189 0.050 !       0.56 eA-3
Q178 0.302 0.325 0.417 !       0.56 eA-3
Q179 0.608 0.171 0.345 !       0.56 eA-3
Q180 0.496 0.498 0.375 !       0.55 eA-3
Q181 0.952 0.499 0.906 !       0.55 eA-3
Q182 1.001 0.216 0.215 !       0.55 eA-3
Q183 0.638 0.341 0.109 !       0.54 eA-3
Q184 0.811 0.503 0.391 !       0.54 eA-3
Q185 0.152 0.501 0.188 !       0.54 eA-3
Q186 0.363 0.328 0.269 !       0.54 eA-3
Q187 0.866 0.498 0.734 !       0.54 eA-3
Q188 0.368 0.452 0.299 !       0.54 eA-3
Q189 0.362 0.186 0.356 !       0.54 eA-3
Q190 0.769 0.108 0.472 !       0.53 eA-3
Q191 0.174 0.164 0.842 !       0.53 eA-3
Q192 1.000 0.281 0.503 !       0.53 eA-3
Q193 0.078 0.286 0.142 !       0.53 eA-3
Q194 0.607 0.437 0.513 !       0.53 eA-3
Q195 0.669 0.110 0.428 !       0.52 eA-3
Q196 0.392 0.216 0.049 !       0.52 eA-3
Q197 0.127 0.344 0.048 !       0.52 eA-3
Q198 0.590 0.204 0.243 !       0.52 eA-3
Q199 0.910 0.296 0.757 !       0.52 eA-3
)
;
_shelx_fab_checksum              1845
loop_
_space_group_symop_operation_xyz
'x, y, z'
'-x, y, -z'
'x+1/2, y+1/2, z'
'-x+1/2, y+1/2, -z'
'-x, -y, -z'
'x, -y, z'
'-x+1/2, -y+1/2, -z'
'x+1/2, -y+1/2, z'
loop_
_atom_site_label
_atom_site_type_symbol
_atom_site_fract_x
_atom_site_fract_y
_atom_site_fract_z
_atom_site_U_iso_or_equiv
_atom_site_adp_type
_atom_site_occupancy
_atom_site_site_symmetry_order
_atom_site_calc_flag
_atom_site_refinement_flags_posn
_atom_site_refinement_flags_adp
_atom_site_refinement_flags_occupancy
Hg1 Hg 0.53735(3) 0.500000 0.21925(5) 0.06088(19) Uani 1 2 d S T P
Br1 Br 0.65828(7) 0.500000 0.53230(11) 0.0544(3) Uani 1 2 d S T P
Br2 Br 0.66210(8) 0.500000 0.16323(12) 0.0649(3) Uani 1 2 d S T P
S1 S 0.45443(13) 0.32243(16) 0.1653(2) 0.0590(5) Uani 1 1 d . . .
N1 N 0.6080(4) 0.1940(5) 0.3445(7) 0.0529(14) Uani 1 1 d . . .
N2 N 0.5513(4) 0.2496(5) 0.4623(7) 0.0577(15) Uani 1 1 d . . .
C4 C 0.5392(5) 0.2544(5) 0.3264(8) 0.0488(15) Uani 1 1 d . . .
C5 C 0.500000 0.3157(8) 0.500000 0.059(3) Uani 1 2 d S T P
H5A H 0.542800 0.362105 0.585982 0.070 Uiso 0.5 1 calc R U P
H5B H 0.457200 0.362105 0.414019 0.070 Uiso 0.5 1 calc R U P
C3 C 0.6282(6) 0.1869(6) 0.5625(10) 0.065(2) Uani 1 1 d . . .
H3 H 0.652153 0.171464 0.663392 0.078 Uiso 1 1 calc R U .
C2 C 0.6614(5) 0.1527(7) 0.4865(9) 0.065(2) Uani 1 1 d . . .
H2 H 0.712741 0.108021 0.524959 0.078 Uiso 1 1 calc R U .
C1 C 0.6207(7) 0.1759(8) 0.2236(10) 0.076(2) Uani 1 1 d . . .
H1A H 0.577575 0.121758 0.154054 0.114 Uiso 1 1 calc R U .
H1B H 0.682874 0.151326 0.268257 0.114 Uiso 1 1 calc R U .
H1C H 0.610077 0.242640 0.169656 0.114 Uiso 1 1 calc R U .
loop_
_atom_site_aniso_label
_atom_site_aniso_U_11
_atom_site_aniso_U_22
_atom_site_aniso_U_33
_atom_site_aniso_U_23
_atom_site_aniso_U_13
_atom_site_aniso_U_12
Hg1 0.0681(3) 0.0523(3) 0.0598(3) 0.000 0.0361(2) 0.000
Br1 0.0494(5) 0.0623(6) 0.0528(6) 0.000 0.0307(5) 0.000
Br2 0.0632(6) 0.0798(8) 0.0526(6) 0.000 0.0344(5) 0.000
S1 0.0491(9) 0.0541(10) 0.0587(11) 0.0003(8) 0.0232(8) 0.0006(8)
N1 0.053(3) 0.056(3) 0.052(3) 0.000(3) 0.033(3) 0.008(3)
N2 0.066(4) 0.051(3) 0.067(4) 0.003(3) 0.045(3) 0.003(3)
C4 0.053(4) 0.040(3) 0.055(4) 0.000(3) 0.032(3) -0.001(3)
C5 0.076(7) 0.045(5) 0.080(7) 0.000 0.060(6) 0.000
C3 0.073(5) 0.056(4) 0.062(5) 0.018(4) 0.037(4) 0.015(4)
C2 0.063(5) 0.063(5) 0.067(5) 0.009(4) 0.038(4) 0.012(4)
C1 0.089(6) 0.085(6) 0.071(5) 0.003(5) 0.056(5) 0.022(5)
loop_
_atom_type_symbol
_atom_type_description
_atom_type_scat_dispersion_real
_atom_type_scat_dispersion_imag
_atom_type_scat_source
C C 0.0033 0.0016 'International Tables Vol C Tables 4.2.6.8 and 6.1.1.4'
H H 0.0000 0.0000 'International Tables Vol C Tables 4.2.6.8 and 6.1.1.4'
Br Br -0.2901 2.4595 'International Tables Vol C Tables 4.2.6.8 and 6.1.1.4'
Hg Hg -2.3894 9.2266 'International Tables Vol C Tables 4.2.6.8 and 6.1.1.4'
N N 0.0061 0.0033 'International Tables Vol C Tables 4.2.6.8 and 6.1.1.4'
S S 0.1246 0.1234 'International Tables Vol C Tables 4.2.6.8 and 6.1.1.4'
loop_
_geom_angle_atom_site_label_1
_geom_angle_atom_site_label_2
_geom_angle_atom_site_label_3
_geom_angle
_geom_angle_site_symmetry_1
_geom_angle_site_symmetry_3
S1 Hg1 S1 121.26(9) . 6_565
S1 Hg1 Br2 114.16(5) . .
S1 Hg1 Br2 114.16(5) 6_565 .
S1 Hg1 Br1 102.47(5) . .
S1 Hg1 Br1 102.47(5) 6_565 .
Br2 Hg1 Br1 97.31(3) . .
C4 S1 Hg1 98.1(2) . .
C4 N1 C2 110.4(6) . .
C4 N1 C1 123.8(6) . .
C2 N1 C1 125.8(6) . .
C4 N2 C3 109.3(6) . .
C4 N2 C5 123.7(6) . .
C3 N2 C5 126.2(6) . .
N1 C4 N2 105.4(6) . .
N1 C4 S1 127.0(5) . .
N2 C4 S1 127.6(5) . .
N2 C5 N2 111.7(8) 2_656 .
N2 C5 H5A 109.3 2_656 .
N2 C5 H5A 109.3 . .
N2 C5 H5B 109.3 2_656 .
N2 C5 H5B 109.3 . .
H5A C5 H5B 107.9 . .
C2 C3 N2 106.6(7) . .
C2 C3 H3 126.7 . .
N2 C3 H3 126.7 . .
C3 C2 N1 108.3(7) . .
C3 C2 H2 125.8 . .
N1 C2 H2 125.8 . .
N1 C1 H1A 109.5 . .
N1 C1 H1B 109.5 . .
H1A C1 H1B 109.5 . .
N1 C1 H1C 109.5 . .
H1A C1 H1C 109.5 . .
H1B C1 H1C 109.5 . .
loop_
_geom_bond_atom_site_label_1
_geom_bond_atom_site_label_2
_geom_bond_distance
_geom_bond_site_symmetry_2
Hg1 S1 2.5051(19) .
Hg1 S1 2.5051(19) 6_565
Hg1 Br2 2.6219(12) .
Hg1 Br1 2.7503(11) .
S1 C4 1.712(7) .
N1 C4 1.344(8) .
N1 C2 1.346(9) .
N1 C1 1.469(9) .
N2 C4 1.357(8) .
N2 C3 1.380(10) .
N2 C5 1.448(8) .
C5 H5A 0.9700 .
C5 H5B 0.9700 .
C3 C2 1.330(11) .
C3 H3 0.9300 .
C2 H2 0.9300 .
C1 H1A 0.9600 .
C1 H1B 0.9600 .
C1 H1C 0.9600 .
