#------------------------------------------------------------------------------
#$Date: 2019-11-08 02:01:31 +0200 (Fri, 08 Nov 2019) $
#$Revision: 224651 $
#$URL: file:///home/coder/svn-repositories/cod/cif/1/55/02/1550247.cif $
#------------------------------------------------------------------------------
#
# This file is available in the Crystallography Open Database (COD),
# http://www.crystallography.net/
#
# All data on this site have been placed in the public domain by the
# contributors.
#
data_1550247
loop_
_publ_author_name
'Karri, Ramesh'
'Chalana, Ashish'
'Das, Ranajit'
'Rai, Rakesh Kumar'
'Roy, Gouriprasanna'
_publ_section_title
;
 Cytoprotective effects of imidazole-based [S<sub>1</sub>] and
 [S<sub>2</sub>]-donor ligands against mercury toxicity: a bioinorganic
 approach.
;
_journal_issue                   1
_journal_name_full               'Metallomics : integrated biometal science'
_journal_page_first              213
_journal_page_last               225
_journal_paper_doi               10.1039/c8mt00237a
_journal_volume                  11
_journal_year                    2019
_chemical_formula_moiety         'C10 H16 Hg2 I4 N4 S2'
_chemical_formula_sum            'C10 H16 Hg2 I4 N4 S2'
_chemical_formula_weight         1165.17
_space_group_crystal_system      orthorhombic
_space_group_IT_number           61
_space_group_name_Hall           '-P 2ac 2ab'
_space_group_name_H-M_alt        'P b c a'
_symmetry_space_group_name_Hall  '-P 2ac 2ab'
_symmetry_space_group_name_H-M   'P b c a'
_atom_sites_solution_hydrogens   geom
_audit_creation_method           SHELXL-2014/7
_audit_update_record
;
2018-07-23 deposited with the CCDC.
2018-11-12 downloaded from the CCDC.
;
_cell_angle_alpha                90
_cell_angle_beta                 90
_cell_angle_gamma                90
_cell_formula_units_Z            4
_cell_length_a                   10.1454(3)
_cell_length_b                   15.0815(3)
_cell_length_c                   15.2995(3)
_cell_measurement_reflns_used    9910
_cell_measurement_temperature    296(2)
_cell_measurement_theta_max      25.69
_cell_measurement_theta_min      3.01
_cell_volume                     2340.94(10)
_computing_cell_refinement       'Bruker SAINT'
_computing_data_collection       'Bruker APEX2'
_computing_data_reduction        'Bruker SAINT'
_computing_molecular_graphics    'Bruker SHELXTL'
_computing_publication_material  'Bruker SHELXTL'
_computing_structure_refinement  'SHELXL-2014/6 (Sheldrick, 2014)'
_computing_structure_solution    'SHELXS-97 (Sheldrick 2008)'
_diffrn_ambient_temperature      296(2)
_diffrn_measured_fraction_theta_full 0.998
_diffrn_measured_fraction_theta_max 0.998
_diffrn_measurement_device_type  'Bruker PHOTON100 CMOS'
_diffrn_measurement_method       '\f and \w scans'
_diffrn_radiation_type           MoK\a
_diffrn_radiation_wavelength     0.71073
_diffrn_reflns_av_R_equivalents  0.0320
_diffrn_reflns_av_unetI/netI     0.0155
_diffrn_reflns_Laue_measured_fraction_full 0.998
_diffrn_reflns_Laue_measured_fraction_max 0.998
_diffrn_reflns_limit_h_max       11
_diffrn_reflns_limit_h_min       -12
_diffrn_reflns_limit_k_max       18
_diffrn_reflns_limit_k_min       -18
_diffrn_reflns_limit_l_max       18
_diffrn_reflns_limit_l_min       -18
_diffrn_reflns_number            22669
_diffrn_reflns_point_group_measured_fraction_full 0.998
_diffrn_reflns_point_group_measured_fraction_max 0.998
_diffrn_reflns_theta_full        25.242
_diffrn_reflns_theta_max         25.676
_diffrn_reflns_theta_min         2.663
_diffrn_source                   X-ray
_exptl_absorpt_coefficient_mu    18.554
_exptl_absorpt_correction_T_max  0.125
_exptl_absorpt_correction_T_min  0.046
_exptl_absorpt_correction_type   multi-scan
_exptl_absorpt_process_details   SADABS
_exptl_crystal_colour            yellow
_exptl_crystal_density_diffrn    3.306
_exptl_crystal_description       Block
_exptl_crystal_F_000             2032.0
_exptl_crystal_size_max          0.208
_exptl_crystal_size_mid          0.148
_exptl_crystal_size_min          0.112
_refine_diff_density_max         0.904
_refine_diff_density_min         -0.655
_refine_diff_density_rms         0.100
_refine_ls_extinction_coef       0.00045(3)
_refine_ls_extinction_expression Fc^*^=kFc[1+0.001xFc^2^\l^3^/sin(2\q)]^-1/4^
_refine_ls_extinction_method     'SHELXL-2014/7 (Sheldrick 2014'
_refine_ls_goodness_of_fit_ref   1.061
_refine_ls_hydrogen_treatment    constr
_refine_ls_matrix_type           full
_refine_ls_number_parameters     103
_refine_ls_number_reflns         2219
_refine_ls_number_restraints     0
_refine_ls_restrained_S_all      1.061
_refine_ls_R_factor_all          0.0262
_refine_ls_R_factor_gt           0.0212
_refine_ls_shift/su_max          0.001
_refine_ls_shift/su_mean         0.000
_refine_ls_structure_factor_coef Fsqd
_refine_ls_weighting_details
'w=1/[\s^2^(Fo^2^)+(0.0154P)^2^+7.0939P] where P=(Fo^2^+2Fc^2^)/3'
_refine_ls_weighting_scheme      calc
_refine_ls_wR_factor_gt          0.0445
_refine_ls_wR_factor_ref         0.0467
_reflns_Friedel_coverage         0.000
_reflns_number_gt                1990
_reflns_number_total             2219
_reflns_threshold_expression     'I > 2\s(I)'
_cod_data_source_file            c8mt00237a5.cif
_cod_data_source_block           '[(L1HgI2)2]'
_cod_depositor_comments
;
The following automatic conversions were performed:

'_exptl_absorpt_correction_type' value 'Multi-Scan' changed to
'multi-scan' according to
/home/data/users/saulius/crontab/automatic-downloads/rss-feeds/RSC/lib/dictionaries/cif_core.dic
dictionary named 'cif_core.dic' version 2.4.2 from 2011-04-26.

Automatic conversion script
Id: cif_fix_values 4973 2017-02-22 13:04:09Z antanas 

 Adding full bibliography for 1550243--1550249.cif.
;
_cod_database_code               1550247
_shelx_shelxl_version_number     2014/7
_shelx_space_group_comment
;
The symmetry employed for this shelxl refinement is uniquely defined
by the following loop, which should always be used as a source of
symmetry information in preference to the above space-group names.
They are only intended as comments.
;
_shelx_res_file
;

    1_a.res created by SHELXL-2014/7

TITL 1_a.res in Pbca
CELL  0.71073  10.1454  15.0815  15.2995   90.000   90.000   90.000
ZERR   17.000   0.0003   0.0003   0.0003    0.000    0.000    0.000
LATT 1
SYMM 1/2-X, -Y, 1/2+Z
SYMM -X, 1/2+Y, 1/2-Z
SYMM 1/2+X, 1/2-Y, -Z
SFAC C  H  Hg I  N  S
UNIT 17  17  17  17  17  17
REM Old TITL 1 in Pbca
REM SHELXT solution in Pbca
REM R1 0.209,  Rweak 0.005,  Alpha 0.014,  Orientation as input
REM Formula found by SHELXT:  C Hg I2 N2 S
L.S. 10
ACTA
BOND $H
FMAP 2
PLAN 20
FREE N1   C4
TEMP 23.160
WGHT    0.015400    7.093900
EXTI    0.000447
FVAR       0.15790
HG1   3    0.507010    0.572946    0.391308    11.00000    0.06834    0.03883 =
         0.05261    0.00266   -0.01362   -0.00503
I1    4    0.651920    0.421189    0.445512    11.00000    0.05110    0.04156 =
         0.04238    0.00142    0.00287    0.01366
I2    4    0.336040    0.537186    0.261239    11.00000    0.06632    0.08051 =
         0.04440    0.00848   -0.01554   -0.00967
S1    6    0.646602    0.707216    0.388953    11.00000    0.05218    0.03862 =
         0.11128   -0.00449    0.01547   -0.00317
N1    5    0.530562    0.815625    0.511828    11.00000    0.07117    0.05812 =
         0.05253   -0.00166    0.00437   -0.02891
N2    5    0.455652    0.833705    0.382173    11.00000    0.06748    0.04171 =
         0.05265    0.00355    0.00984    0.00295
C2    1    0.540491    0.784913    0.429038    11.00000    0.05545    0.03144 =
         0.04710   -0.00081    0.00987   -0.01274
C4    1    0.394838    0.895178    0.434550    11.00000    0.07710    0.05101 =
         0.08967   -0.01145    0.01844    0.00978
AFIX  43
H4    2    0.332874    0.937050    0.417143    11.00000   -1.20000
AFIX   0
C3    1    0.440679    0.883635    0.513666    11.00000    0.08567    0.06204 =
         0.07229   -0.02314    0.03123   -0.00985
AFIX  43
H3    2    0.416464    0.916027    0.562834    11.00000   -1.20000
AFIX   0
C5    1    0.430241    0.823170    0.289069    11.00000    0.12376    0.07298 =
         0.05352    0.00611   -0.00887    0.00793
AFIX 137
H5A   2    0.511086    0.830212    0.257209    11.00000   -1.50000
H5B   2    0.368036    0.867199    0.270310    11.00000   -1.50000
H5C   2    0.394852    0.765152    0.278313    11.00000   -1.50000
AFIX   0
C1    1    0.608030    0.780823    0.584105    11.00000    0.13357    0.11132 =
         0.06437    0.02207   -0.02646   -0.06508
AFIX 137
H1A   2    0.597533    0.717630    0.586999    11.00000   -1.50000
H1B   2    0.578361    0.806958    0.637830    11.00000   -1.50000
H1C   2    0.699321    0.794913    0.575185    11.00000   -1.50000
AFIX   0
HKLF 4

REM  1_a.res in Pbca
REM R1 =  0.0212 for    1990 Fo > 4sig(Fo)  and  0.0262 for all    2219 data
REM    103 parameters refined using      0 restraints

END

WGHT      0.0154      7.0910

REM Highest difference peak  0.904,  deepest hole -0.655,  1-sigma level  0.100
Q1    1   0.6545  0.6991  0.4455  11.00000  0.05    0.90
Q2    1   0.5605  0.5750  0.3474  11.00000  0.05    0.84
Q3    1   0.5512  0.5789  0.4320  11.00000  0.05    0.74
Q4    1   0.4806  0.5221  0.3906  11.00000  0.05    0.65
Q5    1   0.3659  0.4843  0.2539  11.00000  0.05    0.62
Q6    1   0.3821  0.5750  0.2692  11.00000  0.05    0.56
Q7    1   0.2915  0.5333  0.3021  11.00000  0.05    0.47
Q8    1   0.6496  0.4771  0.4430  11.00000  0.05    0.42
Q9    1   0.5708  0.4131  0.4300  11.00000  0.05    0.42
Q10   1   0.5224  0.9161  0.2339  11.00000  0.05    0.42
Q11   1   0.4567  0.6164  0.3961  11.00000  0.05    0.38
Q12   1   0.5964  0.6428  0.3823  11.00000  0.05    0.37
Q13   1   0.5862  0.5042  0.3953  11.00000  0.05    0.36
Q14   1   0.7033  0.4256  0.4100  11.00000  0.05    0.36
Q15   1   0.7954  0.4147  0.4446  11.00000  0.05    0.35
Q16   1   0.5840  0.7870  0.5370  11.00000  0.05    0.34
Q17   1   0.5781  0.9182  0.3597  11.00000  0.05    0.32
Q18   1   0.5991  0.9381  0.4340  11.00000  0.05    0.31
Q19   1   0.6307  0.5746  0.3933  11.00000  0.05    0.31
Q20   1   0.6714  0.7136  0.3773  11.00000  0.05    0.30
;
_shelx_res_checksum              733
_shelx_hkl_file
;
  -2   0   0 4254.77  103.79
   2   0   0 3870.71  103.59
   3   0   0  -13.20    0.80
  -3   0   0  -13.20    0.80
  -3   0   0  -13.50    0.60
  -3   0   0  -14.30    1.00
   3   0   0  -12.90    1.20
  -4   0   0   54.59    3.90
   4   0   0   49.90    5.50
  -4   0   0   62.39    4.40
   4   0   0   55.49    4.30
  -4   0   0   65.99    5.90
  -5   0   0    1.10    1.20
   5   0   0    0.20    1.60
   5   0   0    4.30    1.80
  -5   0   0    0.30    1.10
  -5   0   0    0.50    1.70
  -6   0   0 9999.00  244.78
   6   0   0 9237.78  245.08
  -6   0   0 9870.11  250.87
   7   0   0   -1.10    2.30
  -7   0   0   -1.40    1.50
  -7   0   0   -0.20    2.40
  -8   0   0  622.94   24.20
  -8   0   0  651.03   28.60
  -9   0   0    1.20    3.10
 -10   0   0   91.29    9.20
 -11   0   0   -2.30    2.80
 -12   0   0  216.98   15.70
   1   1   0    0.60    0.30
   1  -1   0    0.10    0.30
  -1  -1   0    0.20    0.30
  -1   1   0    1.20    0.40
  -1  -1   0    1.20    0.70
  -2  -1   0  411.26   14.90
  -2   1   0  447.86   12.80
   2  -1   0  449.66   12.90
   2   1   0  416.06   15.00
   2  -1   0  401.46   13.90
  -2  -1   0  454.25   13.40
  -2   1   0  431.36   13.80
   2   1   0  439.86   12.90
   2   1   0  436.46   13.30
  -2  -1   0  446.36   12.90
   3  -1   0   -2.90    1.40
   3   1   0   -3.00    1.40
   3   1   0   -5.60    0.50
  -3   1   0   -4.20    1.00
  -3  -1   0   -5.00    0.90
  -3  -1   0   -4.30    0.70
  -3  -1   0   -5.00    0.70
   3  -1   0   -4.70    0.80
   3   1   0   -5.10    0.70
  -3   1   0   -5.10    0.60
   4   1   0  347.47   12.20
  -4  -1   0  294.17   14.50
   4  -1   0  318.67   14.50
  -4  -1   0  361.96   15.60
  -4   1   0  333.57   14.10
   4  -1   0  327.67   12.10
  -4   1   0  325.77   12.00
   4   1   0  317.57   15.40
  -4  -1   0  323.87   11.80
  -5  -1   0    0.50    1.00
  -5  -1   0    0.10    1.90
   5  -1   0    1.70    2.20
  -5   1   0    0.90    1.30
   5   1   0    1.00    2.20
  -5  -1   0    0.80    1.40
  -5   1   0    0.90    1.50
  -5   1   0    2.30    1.30
   5  -1   0    0.80    1.10
   6   1   0   63.09    5.90
  -6  -1   0   88.49    6.80
  -6  -1   0   81.29    8.40
   6  -1   0   95.29    8.70
   6   1   0   89.49   10.80
  -6   1   0   92.79    6.70
   6  -1   0   93.19    6.70
  -6   1   0   86.79    7.80
   7  -1   0    1.20    2.60
  -7  -1   0    3.80    2.20
  -7  -1   0    2.70    3.50
  -7   1   0    2.50    2.00
  -7   1   0    3.80    2.80
  -8   1   0    8.20    2.80
  -8  -1   0   10.50    4.40
  -8  -1   0   10.30    3.40
  -9  -1   0   -2.30    2.50
 -10  -1   0   31.70    5.60
 -10   1   0   38.50    6.40
 -11  -1   0   -2.50    2.90
 -11   1   0   -1.30    3.00
 -12  -1   0   12.80    5.10
 -12   1   0   18.60    5.50
  -1   2   0    0.00    0.50
  -1  -2   0    0.20    1.00
  -1  -2   0   -1.50    0.40
  -1   2   0   -1.60    0.40
   1   2   0    2.50    0.90
   1   2   0   -1.20    0.50
   2   2   0   70.79    4.00
   2  -2   0   80.69    3.80
   2   2   0   67.09    5.90
  -2   2   0   83.39    4.00
  -2  -2   0   77.89    4.00
  -2   2   0   81.49    3.80
   2   2   0   75.79    4.00
   2  -2   0   68.69    4.00
  -2  -2   0   88.89    4.50
  -3   2   0   -0.80    0.70
   3   2   0   -0.20    1.30
   3  -2   0    2.40    1.10
  -3  -2   0    5.00    1.30
  -3   2   0   -0.20    0.50
  -3  -2   0   -0.30    0.50
   3   2   0    1.40    1.00
   3  -2   0    1.00    0.80
  -3  -2   0   -0.30    0.80
   3   2   0    1.50    0.90
  -4  -2   0   53.09    4.40
  -4   2   0   48.40    4.60
   4   2   0   45.60    5.50
  -4   2   0   57.79    4.10
  -4  -2   0   55.09    4.10
  -4  -2   0   50.29    5.50
   4  -2   0   47.70    4.80
   4  -2   0   47.30    3.80
  -5  -2   0    1.80    1.50
   5   2   0    0.30    1.20
   5  -2   0   -0.90    1.50
  -5  -2   0    0.60    2.10
   5   2   0    2.50    2.10
  -5   2   0    1.10    1.20
   5  -2   0    3.70    1.60
   5   2   0    1.80    1.50
  -5  -2   0   -0.40    1.40
  -5   2   0    2.80    2.00
  -6   2   0 3734.53   96.09
   6   2   0 3680.33   97.49
  -6  -2   0 3665.23   96.39
   6   2   0 3564.74  104.49
  -6  -2   0 3482.75  102.49
   6  -2   0 3418.86  100.79
   6  -2   0 3689.03   96.69
  -6  -2   0 3718.63   97.39
  -6   2   0 3764.82   99.79
  -7   2   0    0.10    1.80
  -7  -2   0    2.80    3.60
   7  -2   0    2.20    2.90
  -7  -2   0    1.40    1.50
  -8  -2   0  124.89   12.20
  -8   2   0  152.48    9.70
  -8  -2   0  111.99    9.10
  -9   2   0   -1.00    2.40
  -9  -2   0    0.20    3.60
 -10  -2   0    0.90    2.70
 -10   2   0    1.90    2.90
 -11  -2   0    5.30    3.60
 -11   2   0   -3.70    2.40
 -12  -2   0  138.59   13.00
 -12   2   0  120.59   11.60
   0  -3   0  -13.70    0.50
   0   3   0  -13.80    0.50
   0   3   0  -13.40    0.70
   0  -3   0  -13.40    0.50
   0  -3   0  -14.10    0.50
   0  -3   0  -13.80    0.60
  -1   3   0    3.30    1.10
   1   3   0    1.60    1.20
  -1  -3   0    4.40    1.40
  -1  -3   0    0.20    1.10
  -1  -3   0   -2.10    0.90
   1  -3   0   -1.70    0.60
   2  -3   0 8024.60  198.58
  -3  -3   0   -3.00    0.80
   3  -3   0   -2.00    1.20
   3  -3   0   -2.80    0.80
  -3  -3   0    1.00    1.50
   3   3   0   -3.30    0.90
  -3   3   0   -2.00    0.90
   3   3   0    0.90    2.00
  -3  -3   0   -4.70    1.10
   4  -3   0 2803.92   75.29
   4   3   0 2850.71   81.79
   4   3   0 2924.81   76.09
   4   3   0 2849.42   76.79
  -4  -3   0 3000.40   75.79
   4  -3   0 2758.62   77.29
  -4   3   0 2940.51   75.19
  -4  -3   0 2912.31   76.89
  -5   3   0    3.00    1.70
  -5  -3   0   -1.30    1.20
  -5  -3   0    0.60    2.10
   5   3   0    3.20    2.20
  -5  -3   0    1.50    1.60
   5  -3   0   -0.30    1.10
   5  -3   0   -1.70    1.60
   5   3   0    2.40    1.60
   5   3   0   10.50    2.60
   6  -3   0  872.11   31.90
   6  -3   0  849.52   28.60
  -6  -3   0  937.71   30.30
   6   3   0  847.62   29.80
   6   3   0  918.71   36.10
  -6  -3   0  909.51   34.70
  -6  -3   0  953.40   29.00
   6   3   0  904.21   29.40
  -6   3   0  889.21   28.30
   7   3   0   -0.20    2.10
  -7  -3   0    2.80    3.70
   7  -3   0    4.80    3.10
  -7   3   0   -1.10    1.50
  -7  -3   0    3.10    2.60
  -8  -3   0  553.64   27.50
  -8   3   0  539.45   21.20
  -9  -3   0    1.60    4.00
  -9   3   0    0.90    2.20
  -9  -3   0    1.40    2.80
 -10   3   0  149.99   11.20
 -10  -3   0  147.79   11.80
 -11   3   0    0.70    3.00
 -11  -3   0    3.10    3.60
 -12  -3   0  153.28   13.60
 -12   3   0  157.28   12.90
   0  -4   0  209.08    8.50
   0  -4   0  183.78    7.10
   0   4   0  173.68    7.10
   0   4   0  177.28    8.70
   0  -4   0  172.88    8.00
   0  -4   0  190.28    8.60
  -1  -4   0   -1.60    0.60
   1   4   0   -1.90    0.70
  -1  -4   0   -1.50    0.80
   1  -4   0   -1.20    0.70
  -1   4   0   -0.90    0.80
   1  -4   0   -0.80    1.00
   1   4   0   -0.70    1.00
  -1  -4   0   -1.80    0.90
  -1   4   0    0.40    1.10
   1   4   0   -0.50    1.00
   2   4   0 1178.78   34.50
  -2  -4   0 1202.28   34.70
  -2   4   0 1221.58   33.00
   2  -4   0 1200.18   31.60
   2   4   0 1225.58   34.50
   2  -4   0 1240.88   33.30
   2   4   0 1203.78   36.80
  -2  -4   0 1171.58   36.00
  -2  -4   0 1238.18   34.20
   2  -4   0 1219.48   34.00
  -2   4   0 1254.47   33.90
  -3  -4   0   -2.40    1.00
   3   4   0   -5.20    1.10
  -3  -4   0   -3.30    1.00
  -3   4   0   -0.80    1.40
  -3  -4   0   -3.60    1.30
  -3   4   0   -2.30    1.00
   3   4   0   -1.40    1.30
   3  -4   0   -3.10    0.80
   3  -4   0   -2.80    0.90
  -4  -4   0  383.76   17.80
  -4  -4   0  402.56   15.50
   4  -4   0  377.16   14.70
   4  -4   0  354.96   13.70
  -4   4   0  403.06   13.90
   4   4   0  390.96   14.90
   4   4   0  389.56   15.30
   4   4   0  419.56   19.10
  -4  -4   0  392.06   14.40
   5   4   0    2.90    1.90
   5   4   0   -0.60    1.20
   5   4   0    4.90    2.90
  -5  -4   0   -0.50    1.30
   5  -4   0   -0.20    1.60
   5  -4   0    0.20    1.20
  -5  -4   0   -0.20    1.80
  -5  -4   0    0.70    1.70
  -5   4   0    0.30    1.40
  -6  -4   0   10.10    3.20
  -6  -4   0   12.10    2.60
  -6   4   0    4.40    1.90
   6  -4   0    4.90    2.60
   6   4   0    2.20    1.80
   6  -4   0    4.70    2.20
   6   4   0    7.80    2.70
  -6  -4   0    3.50    3.20
   6   4   0    6.30    3.60
  -7  -4   0    1.10    2.10
   7  -4   0    1.30    2.30
  -7   4   0    1.40    2.00
   7   4   0   -2.80    1.90
  -7  -4   0    0.60    2.80
  -8  -4   0  127.69   12.80
   8   4   0  122.99    9.80
   8  -4   0  128.89   11.50
  -8   4   0  133.79    9.10
  -8  -4   0  128.99   10.10
  -9   4   0   -0.70    1.80
  -9  -4   0   -2.20    3.90
  -9  -4   0    0.50    2.50
 -10   4   0   26.70    5.80
 -10  -4   0   23.40    6.00
 -11  -4   0    5.90    3.30
 -11   4   0   -2.40    3.00
 -12   4   0    1.80    3.70
 -12  -4   0   -1.60    3.70
   0  -5   0   -0.40    0.60
   0   5   0    1.40    0.80
   0   5   0    3.80    1.80
   0  -5   0    1.50    1.10
   0  -5   0    1.40    1.10
  -1  -5   0    0.80    1.10
   1   5   0    0.90    0.90
   1   5   0    1.70    1.00
  -1   5   0    1.40    1.10
   1  -5   0    1.80    1.20
  -1   5   0    0.70    0.80
  -1  -5   0    0.90    0.90
  -1  -5   0    4.00    1.40
   1  -5   0    2.00    1.20
  -2  -5   0 1908.31   55.59
   2   5   0 1991.10   54.59
   2   5   0 1961.00   54.79
   2   5   0 2019.40   56.99
  -2   5   0 1962.40   52.59
   2  -5   0 2069.79   54.39
  -2  -5   0 1977.50   54.99
  -2   5   0 1989.10   53.79
   2  -5   0 2092.79   53.39
  -2  -5   0 1952.60   53.99
  -3  -5   0   -0.60    1.60
  -3   5   0    1.10    1.00
   3   5   0    1.80    1.40
   3   5   0   -1.10    1.00
   3  -5   0    0.00    0.80
   3  -5   0   -1.00    0.70
  -3   5   0   -0.20    1.00
  -3  -5   0   10.70    2.80
  -3  -5   0   -0.10    0.90
   3   5   0    1.80    2.10
   4  -5   0 3023.60   79.59
   4   5   0 3124.89   87.29
   4   5   0 3003.80   81.79
  -4  -5   0 3067.89   81.99
  -4   5   0 3055.19   80.39
   4  -5   0 2930.51   79.59
  -4   5   0 3136.09   79.49
  -4  -5   0 3021.70   85.39
   4   5   0 2976.40   81.19
  -4  -5   0 2957.00   80.29
   5  -5   0   11.20    2.90
  -5  -5   0    0.70    2.40
   5   5   0    2.50    2.20
  -5  -5   0   -0.50    1.10
  -5   5   0   -0.40    1.20
   5   5   0    0.10    1.20
   5   5   0    4.10    3.70
   5  -5   0   -0.90    1.50
  -5   5   0    0.50    1.40
  -6  -5   0  339.47   16.00
   6   5   0  318.57   15.10
  -6   5   0  347.47   14.20
  -6  -5   0  340.27   19.10
   6  -5   0  349.37   15.80
   6   5   0  330.27   15.80
  -7  -5   0    4.40    2.70
   7   5   0   -1.90    1.70
  -7  -5   0   -3.10    2.20
   7  -5   0    5.10    2.90
  -7   5   0    3.50    2.20
   8  -5   0  241.18   14.70
  -8   5   0  221.08   12.20
  -8  -5   0  217.38   13.70
   8   5   0  230.68   13.60
  -8  -5   0  226.08   17.40
  -9   5   0    0.10    2.40
   9   5   0    4.90    3.70
  -9  -5   0   -2.50    2.10
  -9  -5   0   -1.50    3.80
 -10  -5   0  192.68   14.20
 -10   5   0  203.28   13.00
 -11   5   0    0.80    3.20
 -11  -5   0   -3.00    2.80
   0  -6   0 8528.15  236.78
   0   6   0 9656.73  237.38
   0  -6   0 9880.31  241.08
   0  -6   0 9963.40  240.28
   0  -6   0 9620.74  239.98
   0   6   0 9742.03  241.58
   1   6   0   -0.50    1.40
   1  -6   0   -0.50    0.50
  -1   6   0   -0.30    0.90
   1  -6   0    0.30    1.20
  -1  -6   0    2.40    1.60
   1  -6   0    4.90    1.90
  -1   6   0   -0.20    0.50
   1   6   0    3.90    1.90
  -1   6   0   -1.20    1.10
  -1  -6   0   -2.00    0.90
   1   6   0   -0.90    1.10
   2   6   0 1975.40   55.39
   2  -6   0 1979.20   54.69
   2   6   0 1888.51   54.69
  -2   6   0 2029.60   52.89
   2   6   0 2029.50   57.09
   2  -6   0 1916.51   53.29
  -2   6   0 1924.51   53.99
  -2  -6   0 1968.80   55.29
  -2  -6   0 1964.30   54.39
  -2  -6   0 1963.60   55.59
   3   6   0   -1.10    1.10
  -3  -6   0   -0.10    1.70
  -3   6   0    0.50    1.20
  -3  -6   0    0.70    1.30
   3  -6   0   -0.30    0.90
  -3   6   0    4.10    1.70
   3   6   0    0.80    1.50
   3   6   0    1.20    1.60
   3  -6   0   -0.30    0.80
  -3  -6   0   -0.10    1.30
  -4  -6   0  484.95   21.00
   4   6   0  457.55   18.30
   4  -6   0  492.25   15.80
   4   6   0  464.15   18.60
   4   6   0  518.15   22.70
  -4   6   0  449.86   17.30
  -4  -6   0  486.25   19.10
   4  -6   0  461.45   18.80
  -5   6   0    1.00    1.90
  -5  -6   0    0.20    2.00
   5  -6   0    0.00    1.30
   5   6   0   -1.40    1.30
   5   6   0    4.00    2.80
  -5  -6   0    1.20    2.00
   5   6   0    0.50    1.80
  -5   6   0    2.50    1.70
  -5  -6   0    2.20    1.80
   5  -6   0    1.50    1.70
   6  -6   0 2630.84   69.99
  -6  -6   0 2524.15   76.59
  -6   6   0 2479.85   69.49
  -6  -6   0 2436.86   71.49
   6   6   0 2484.35   70.89
  -6   6   0 2492.35   68.29
   6   6   0 2377.96   71.29
  -7   6   0   -2.50    1.40
  -7  -6   0   -0.80    2.00
  -7   6   0    0.70    2.20
  -7  -6   0   -2.70    2.70
   7  -6   0   -2.20    2.40
   7   6   0   -2.50    2.40
  -8  -6   0  651.53   32.00
  -8   6   0  606.74   23.30
   8   6   0  616.14   25.50
  -8  -6   0  619.94   26.20
  -8   6   0  627.44   24.60
  -9   6   0    0.40    2.10
  -9   6   0    1.70    2.90
  -9  -6   0    0.70    4.20
   9   6   0    0.60    2.60
  -9  -6   0   -0.10    3.10
 -10   6   0    4.50    3.90
 -10   6   0   11.60    4.30
 -10  -6   0    7.30    3.80
 -11  -6   0    4.50    5.20
 -11   6   0    7.50    7.10
   0   7   0   -3.10    1.40
   0  -7   0   -2.00    1.20
   0  -7   0   -1.20    1.30
   0  -7   0   -0.70    1.00
   0  -7   0    1.00    1.70
   0   7   0    5.80    1.80
   1  -7   0   -2.00    1.10
  -1  -7   0    0.10    1.20
   1   7   0   -1.20    1.30
  -1  -7   0   -2.00    0.90
  -1   7   0   -1.40    0.50
   1   7   0    6.30    2.40
   1  -7   0   -1.00    1.00
  -1   7   0   -2.70    1.00
   1   7   0   -0.20    1.60
  -1  -7   0    1.00    1.30
   1  -7   0   -0.60    0.70
  -2  -7   0  111.99    7.30
  -2   7   0  110.49    7.30
  -2   7   0  115.09    6.60
   2   7   0  123.19    8.40
   2  -7   0  125.19    8.00
  -2  -7   0  119.79    7.90
  -2  -7   0  121.89    8.20
   2  -7   0  124.79    7.20
   2   7   0  113.79    7.80
   2   7   0  123.49    8.40
  -3  -7   0    1.00    1.40
   3   7   0    1.80    1.70
  -3  -7   0   -0.80    1.40
  -3   7   0    1.50    1.40
  -3  -7   0    1.00    2.20
   3  -7   0   -0.20    1.30
  -3   7   0    1.10    1.60
   3   7   0    1.20    2.10
   3   7   0    3.10    2.40
  -4  -7   0  359.16   17.50
  -4  -7   0  329.27   14.50
  -4  -7   0  351.46   16.20
  -4   7   0  353.06   13.60
   4   7   0  315.87   15.20
   4  -7   0  344.97   11.20
   4  -7   0  343.87   14.10
   4   7   0  330.77   15.40
  -4   7   0  348.17   14.60
  -5  -7   0    0.20    2.50
  -5   7   0    1.80    1.60
   5  -7   0    0.70    1.60
  -5  -7   0    6.00    2.70
   5   7   0    1.90    1.90
   5   7   0   -1.20    2.30
  -5   7   0   -2.00    1.30
   5   7   0    3.70    2.30
   6   7   0   25.50    5.30
  -6   7   0   26.40    4.20
  -6  -7   0   29.10    5.60
  -6  -7   0   32.50    7.10
   6  -7   0   31.70    4.50
  -6   7   0   22.30    4.50
  -7   7   0    0.70    2.10
  -7  -7   0    1.20    2.30
   7   7   0   -1.40    2.10
   7  -7   0    0.50    2.60
  -7  -7   0   -0.60    4.00
  -7   7   0   -1.40    2.30
  -8  -7   0   17.90    5.20
  -8  -7   0   20.30    7.10
  -8   7   0   18.30    4.80
  -9  -7   0   -2.50    4.30
   9   7   0   -1.50    2.50
  -9   7   0   -2.60    2.70
  -9   7   0   -1.60    2.50
  -9  -7   0   -1.20    3.10
   9  -7   0   -4.80    3.30
  10   7   0   61.69    9.30
 -10   7   0   73.09    9.60
 -10  -7   0   59.19    9.40
 -10   7   0   74.29    8.10
 -11   7   0   -0.90    5.70
 -11   7   0   -0.30    3.20
 -11  -7   0   -0.80    3.60
   0  -8   0 9475.95  236.18
   0  -8   0 9039.50  234.68
   0   8   0 9540.45  231.28
   0  -8   0 8846.71  230.78
   0   8   0 9242.98  240.98
   0  -8   0 9524.05  235.18
  -1  -8   0    1.40    1.50
  -1  -8   0   -0.30    1.40
  -1  -8   0    5.40    2.10
   1   8   0    3.10    1.80
   1  -8   0    4.80    2.20
  -1   8   0    2.80    0.90
   1  -8   0   -1.60    1.50
   2  -8   0 1366.16   43.00
   2   8   0 1493.35   44.10
  -2  -8   0 1457.95   42.70
   2   8   0 1374.66   43.10
   2   8   0 1407.66   44.30
  -2   8   0 1414.46   42.60
  -2  -8   0 1402.56   42.70
  -2  -8   0 1346.17   43.10
   3  -8   0   -0.30    1.50
  -3  -8   0   -0.30    1.90
  -3   8   0    2.50    2.10
   3   8   0   -2.40    1.80
   3  -8   0    2.20    2.00
   3   8   0    3.90    2.30
  -3  -8   0    2.30    1.80
  -3  -8   0    1.40    2.30
  -3   8   0    2.00    1.50
   4   8   0  518.65   21.30
  -4   8   0  506.75   19.50
   4   8   0  464.65   20.20
  -4   8   0  499.75   18.20
  -4  -8   0  506.75   19.70
  -4  -8   0  532.85   22.10
   4  -8   0  477.85   18.70
  -4  -8   0  513.75   22.20
   5   8   0   -2.00    1.60
  -5   8   0   -0.20    2.10
  -5  -8   0   -2.00    2.60
   5  -8   0   -1.40    1.00
   5   8   0   -0.80    2.10
  -5  -8   0    2.30    2.70
  -5   8   0    0.10    1.70
   6  -8   0 2557.24   66.29
  -6   8   0 2420.16   69.99
   6   8   0 2353.06   71.79
  -6   8   0 2458.85   68.39
  -6  -8   0 2476.45   76.19
  -6  -8   0 2516.05   73.29
  -7   8   0    1.80    2.60
   7   8   0   -5.40    1.80
  -7  -8   0   -0.10    2.70
  -7   8   0   -1.40    2.20
  -7  -8   0    0.50    3.80
   7  -8   0   -1.40    2.20
  -8  -8   0  186.58   16.30
  -8   8   0  163.58   12.00
   8  -8   0  209.38   11.60
  -8   8   0  204.48   11.90
   8   8   0  196.18   13.60
  -9  -8   0    1.60    3.80
  -9  -8   0   -0.60    4.60
   9  -8   0    2.10    3.60
   9   8   0    2.10    3.50
  -9   8   0   -1.30    2.20
  -9   8   0   -0.60    2.70
 -10   8   0    2.60    3.50
 -10  -8   0    2.00    3.60
  10   8   0   -3.30    3.50
 -10   8   0    4.40    3.30
 -11  -8   0   -2.30    4.50
  11   8   0    2.00    4.20
 -11   8   0    1.80    4.00
 -11   8   0   -2.20    3.20
   0   9   0    0.90    2.00
   0  -9   0   -0.50    1.40
   0  -9   0    2.00    2.30
   0   9   0    5.60    1.70
   0  -9   0   -1.30    1.50
   0  -9   0   -0.80    1.10
   1   9   0    2.50    2.50
   1   9   0    1.00    1.70
  -1  -9   0    0.40    1.40
  -1  -9   0    1.10    1.50
  -1  -9   0   -0.50    1.60
  -1   9   0   -0.90    2.20
   1  -9   0    3.30    1.80
  -1   9   0    1.80    0.90
  -1  -9   0    1.60    1.60
   1  -9   0    1.20    1.60
   1  -9   0    0.30    1.50
   2   9   0    1.00    1.80
   2   9   0    1.50    2.10
  -2  -9   0    2.00    2.10
  -2  -9   0    6.60    2.50
   2  -9   0    4.50    2.50
  -2   9   0    1.50    2.00
   2  -9   0    1.90    2.10
  -2  -9   0    2.30    2.50
   2   9   0    6.30    3.30
  -3  -9   0   -1.40    1.80
  -3  -9   0    0.40    1.80
  -3   9   0    0.50    1.50
   3   9   0   -3.20    1.90
  -3  -9   0    3.40    2.20
  -3   9   0    0.10    1.70
   3  -9   0    0.40    1.90
   3   9   0    5.20    2.50
   3   9   0    1.50    2.40
   4   9   0   52.59    8.50
  -4  -9   0   47.70    7.10
  -4   9   0   44.60    6.10
   4   9   0   45.30    7.10
  -4  -9   0   38.00    6.00
   4   9   0   29.80    5.00
  -4   9   0   44.60    4.90
   5   9   0    2.60    3.00
   5   9   0   -0.30    1.80
  -5  -9   0   -3.40    2.10
  -5   9   0    0.70    1.80
  -5  -9   0   -0.60    3.10
  -5   9   0   -0.90    2.10
   6   9   0  217.48   14.00
  -6  -9   0  214.68   15.30
  -6  -9   0  227.78   14.60
  -6   9   0  221.28   11.70
  -6   9   0  206.48   12.40
  -7   9   0   -1.00    2.10
  -7   9   0   -0.40    2.70
  -7  -9   0   -2.60    3.10
   7  -9   0    0.10    2.10
  -7  -9   0   -0.30    2.80
  -8  -9   0   13.40    5.30
   8  -9   0    5.40    3.00
  -8   9   0    9.80    4.40
  -8  -9   0   10.30    5.80
   8   9   0    7.90    4.00
  -8   9   0    8.40    3.40
   9   9   0    0.20    4.30
  -9  -9   0    1.00    3.60
  -9   9   0   -2.60    3.30
  -9   9   0   -0.50    2.50
   9  -9   0    8.30    6.30
  10   9   0    1.50    3.80
 -10   9   0    6.70    6.80
 -10  -9   0    1.50    3.70
 -10   9   0   -0.80    2.90
   0  10   0    9.40    2.10
   0 -10   0    8.80    2.10
   0 -10   0    8.90    2.90
   0 -10   0   11.30    3.30
   0  10   0    9.20    3.50
   1 -10   0   -0.70    1.70
   1  10   0    2.20    2.70
  -1  10   0    1.50    0.80
  -1 -10   0    0.50    1.60
  -1  10   0   -1.40    2.00
   1  10   0    4.20    2.10
  -1 -10   0   -2.20    1.50
   1 -10   0    0.60    1.90
  -2  10   0    4.80    2.80
   2  10   0   11.00    3.20
  -2 -10   0    2.40    2.50
   2  10   0    5.40    2.80
  -2 -10   0    7.40    2.90
   2  10   0   11.70    4.10
  -3 -10   0   -0.70    2.30
  -3  10   0    0.90    2.20
  -3  10   0    0.40    1.70
   3  10   0   -3.10    1.60
  -3 -10   0    3.60    2.80
   3  10   0    6.00    3.60
  -4  10   0  124.19    9.50
   4  10   0  131.49   11.20
  -4  10   0  128.79    8.70
   4  10   0  134.79   10.70
  -4 -10   0  126.59   10.50
   4  10   0  153.68   12.00
  -4 -10   0  143.69   11.20
   5  10   0    1.00    2.80
  -5  10   0   -3.40    1.30
  -5  10   0   -0.50    2.20
  -5 -10   0    3.00    2.90
  -5 -10   0    5.50    3.70
  -6 -10   0   64.09    9.30
  -6  10   0   67.59    8.20
  -6 -10   0   46.80    8.00
  -6  10   0   55.99    6.30
   6  10   0   57.99    8.50
  -7  10   0    0.60    2.50
  -7  10   0   -2.40    1.90
   7  10   0    1.30    3.00
   7 -10   0   -1.10    1.70
  -7 -10   0   -0.30    3.00
  -7 -10   0    0.70    4.00
  -8  10   0   46.60    6.70
   8  10   0   43.90    7.70
  -8  10   0   36.90    6.50
   8 -10   0   39.70    4.80
  -8 -10   0   40.20    8.90
  -8 -10   0   63.59   10.20
  -9 -10   0   -3.10    3.50
  -9  10   0   -5.40    2.70
   9  10   0    4.30    4.60
   9 -10   0    0.20    3.40
  -9  10   0   -1.40    2.80
 -10  10   0   14.20    5.00
 -10  10   0    9.90    5.40
 -10 -10   0   21.30    7.70
   0  11   0   -2.50    2.10
   0 -11   0   -0.80    1.90
  -1  11   0    2.50    2.80
   1  11   0    0.30    2.40
  -1 -11   0   -0.80    2.00
   1 -11   0   -0.40    1.80
   1  11   0   -0.40    2.00
  -1 -11   0    2.70    1.90
   2  11   0  143.99   11.70
   2  11   0  155.08   10.40
  -2 -11   0  159.38    9.90
  -2  11   0  144.99   11.30
  -2 -11   0  148.79   13.90
   3  11   0   -2.90    2.50
   3  11   0    1.80    2.90
  -3 -11   0    1.10    2.60
  -3 -11   0   -0.30    2.50
  -3  11   0    0.30    3.00
   4  11   0  220.38   14.30
  -4  11   0  219.88   12.00
  -4  11   0  185.38   12.40
   4  11   0  225.18   15.10
  -4 -11   0  211.88   14.30
  -4 -11   0  210.48   13.60
  -5 -11   0    3.60    3.20
  -5 -11   0    0.00    3.10
   5  11   0   -2.00    3.30
  -5  11   0   -2.40    2.00
  -5  11   0    3.50    3.60
  -6 -11   0  142.49   12.40
  -6 -11   0  118.39   11.70
  -6  11   0  124.19   10.30
   6  11   0  128.39   12.00
  -7  11   0    0.30    2.50
  -7  11   0   -2.20    3.20
   7  11   0   -3.60    3.90
  -7 -11   0   -3.30    3.40
  -7 -11   0    1.90    5.80
  -8  11   0   13.90    4.50
  -8 -11   0   11.50    5.60
   8  11   0   13.10    5.30
  -8  11   0   10.10    4.40
   9  11   0   -2.50    4.00
  -9  11   0    4.60    3.40
  -9 -11   0    4.20    4.80
   0  12   0 1008.00   37.50
   0 -12   0 1009.50   35.20
   0  12   0 1003.80   29.60
   1  12   0   -0.80    2.10
  -1 -12   0    0.00    2.30
   1 -12   0    1.30    2.20
   1  12   0   -1.40    2.60
  -1  12   0    0.80    2.70
   2  12   0  856.71   29.70
  -2 -12   0  866.41   28.80
   2 -12   0  821.52   30.00
  -2  12   0  800.42   31.80
   2  12   0  814.42   33.40
  -2 -12   0  786.02   31.20
  -3 -12   0    2.20    2.60
  -3 -12   0    1.60    2.50
  -3  12   0   -2.30    2.80
   3  12   0   -3.10    2.30
   3  12   0    1.70    3.50
   3  12   0    5.60    3.30
  -4  12   0  298.47   15.00
   4  12   0  281.07   18.40
  -4 -12   0  282.27   17.30
  -4 -12   0  295.17   16.40
  -4  12   0  335.67   24.80
  -5 -12   0   -1.20    3.00
   5  12   0    3.60    3.80
  -5  12   0    0.40    2.90
  -5 -12   0    0.60    3.10
  -5  12   0   -3.30    2.30
  -6  12   0  324.57   15.90
  -6  12   0  270.27   16.20
   6  12   0  308.27   19.40
  -6 -12   0  251.07   20.30
  -6 -12   0  297.87   19.00
   7  12   0   12.30    5.70
  -7  12   0    0.70    3.30
  -7  12   0   -1.20    2.50
  -7 -12   0    2.60    4.30
  -8  12   0  222.48   13.90
  -8  12   0  221.98   15.30
  -8 -12   0  238.18   18.10
   8  12   0  226.08   18.00
  -9 -12   0    7.00    5.40
   9  12   0    7.00    8.60
  -9  12   0   -2.80    3.50
   0 -13   0   -6.80    4.20
   0  13   0   -2.80    1.50
   0  13   0    1.40    3.70
  -1 -13   0    0.00    2.40
  -1  13   0    1.80    3.40
   1  13   0   -5.10    2.90
   1  13   0   -0.90    2.20
   2  13   0  186.18   14.90
  -2 -13   0  199.18   13.70
  -2  13   0  209.78   16.40
   2 -13   0  195.78   12.50
   2  13   0  199.78   12.00
   3  13   0   -1.00    3.00
  -3 -13   0    1.50    3.20
  -3  13   0   -2.40    2.40
   3  13   0   -3.70    2.80
  -4 -13   0   16.10    4.80
  -4  13   0   21.40    5.90
  -4 -13   0   17.70    5.10
   4  13   0   22.50    6.40
   5  13   0    7.10    4.50
  -5  13   0    3.00    4.10
  -5  13   0   -2.50    2.50
  -5 -13   0   -0.20    3.20
  -5 -13   0   -4.00    3.20
  -6  13   0    3.40    3.40
  -6  13   0    7.70    4.20
   6  13   0    6.70    4.50
  -7 -13   0   -3.60    4.40
  -7  13   0   -3.60    2.90
   7  13   0   -1.10    4.70
  -7  13   0    0.50    3.20
  -8 -13   0   47.70    9.00
   8  13   0   42.70    9.10
  -8  13   0   50.59   13.00
  -8  13   0   55.99    8.10
   0  14   0 1497.05   51.99
   0 -14   0 1526.75   49.10
   0  14   0 1449.46   41.40
   1 -14   0    3.00    3.40
   1  14   0    1.80    2.80
  -1  14   0    7.70    4.40
   1  14   0   -1.30    3.50
  -1 -14   0    2.40    3.30
   2 -14   0  678.13   27.50
   2  14   0  698.93   31.60
   2  14   0  674.53   27.30
  -2 -14   0  703.13   29.30
  -2  14   0  632.84   29.00
  -3  14   0    0.40    3.40
   3 -14   0    2.90    2.70
   3  14   0    4.20    4.30
  -3 -14   0    0.00    3.10
  -4  14   0  273.37   17.40
   4  14   0  288.67   19.90
  -4 -14   0  315.17   18.90
   5  14   0   -0.20    4.50
  -5  14   0   -0.60    3.80
  -5 -14   0    2.10    4.30
   6  14   0  525.55   28.40
  -6 -14   0  477.05   26.40
  -6  14   0  508.35   22.60
  -6  14   0  493.55   24.50
  -7  14   0    5.40    4.30
  -7 -14   0   -8.20    4.40
  -7  14   0   -3.20    3.00
   8  14   0  166.18   16.40
  -8 -14   0  159.68   15.90
  -8  14   0  168.68   15.10
  -8  14   0  144.29   13.20
   0  15   0    1.80    3.90
   0 -15   0    4.00    3.00
   0  15   0   -1.00    1.90
  -1  15   0   -3.70    3.50
   1 -15   0    2.50    3.30
   1  15   0    5.70    2.60
   1  15   0    3.40    4.10
  -1 -15   0    2.00    3.30
   2  15   0   38.20    8.10
  -2 -15   0   51.89    8.30
   2 -15   0   35.00    6.50
  -2  15   0   35.80    7.80
  -3  15   0    0.40    3.80
  -3 -15   0   -4.00    2.90
   3  15   0   -9.80    3.40
   3 -15   0    4.80    3.60
   4 -15   0   32.60    6.60
   4  15   0   18.20    7.20
  -4  15   0   36.20    7.80
  -4 -15   0   32.90    8.10
  -5 -15   0    9.10    6.00
  -5  15   0    1.30    4.30
   5  15   0   11.30    6.60
   6  15   0   59.39   17.30
  -6 -15   0   36.50    8.50
  -6  15   0   41.80    7.60
  -7 -15   0    1.30    5.10
  -7  15   0    3.10    4.80
   7  15   0   -0.30    5.20
  -7  15   0   -3.60    4.30
   0 -16   0   20.00    5.80
   0  16   0    8.60    5.30
  -1  16   0    0.10    3.60
   1  16   0   -4.10    3.70
   1  16   0    2.10    2.50
   1 -16   0   -0.10    3.10
  -1 -16   0   -1.70    3.60
   2  16   0  105.09    9.10
   2 -16   0  149.79   12.40
   2  16   0  155.98   15.10
  -2 -16   0  149.29   12.80
  -2  16   0  124.79   12.60
  -3 -16   0   -4.10    3.50
   3 -16   0    4.30    4.20
  -3  16   0    3.30    3.90
   3  16   0    5.60    5.30
   4  16   0  209.68   18.40
  -4  16   0  187.18   16.20
   4 -16   0  209.38   15.00
   5  16   0   -3.40    6.10
  -5 -16   0   -0.20    4.60
  -6  16   0   19.80    7.30
   6  16   0   13.90    6.40
  -6 -16   0   15.70    6.60
   0  17   0    3.40    4.60
   0 -17   0    3.80    4.00
   1  17   0    2.40    4.80
   1 -17   0    1.70    4.30
  -1  17   0   -2.30    4.30
  -1 -17   0    0.30    3.70
   2 -17   0   17.50    5.40
  -2 -17   0   16.90    6.00
  -3 -17   0   -4.80    4.70
  -3  17   0   -6.90    6.40
   3 -17   0    5.30    4.50
   3  17   0    4.30    6.10
   4 -17   0   59.19    9.20
   4  17   0   60.69   11.90
  -4  17   0   46.60    9.90
  -4 -17   0   50.39    9.50
   0 -18   0  244.78   16.60
   0  18   0  226.78   18.10
  -1 -18   0   -2.00    4.00
   1  18   0  -10.90    4.60
   1 -18   0    4.40    3.90
  -1  18   0    2.30    4.40
   2  18   0    5.60    6.60
   2 -18   0    6.30    5.30
  -2  18   0   -5.10    4.60
  -2   0  -1    0.10    0.40
   2   0   1    1.20    0.60
  -2   0  -1   -0.10    0.70
   2   0   1    2.50    1.10
  -2   0  -1    2.10    0.80
  -2   0   1    0.00    0.50
   2   0  -1    1.20    0.60
  -2   0   1    1.10    0.50
  -3   0  -1    1.20    1.00
   3   0   1    1.50    1.10
   3   0   1    1.40    0.70
  -3   0  -1    0.10    0.50
   3   0  -1    0.40    0.70
  -3   0   1    0.80    0.60
  -3   0   1    0.60    0.70
  -3   0  -1    0.50    0.70
   3   0  -1    5.10    1.70
  -4   0   1   -0.40    0.80
   4   0  -1    0.90    1.10
  -4   0  -1   -0.10    0.90
   4   0   1   -0.30    1.50
  -4   0  -1    0.10    1.50
  -4   0   1    0.50    0.90
  -4   0  -1    0.50    0.90
   4   0  -1    6.10    2.50
   4   0   1    2.30    1.30
  -5   0  -1   -0.50    1.90
   5   0  -1    5.80    2.00
  -5   0  -1   -0.10    0.90
   5   0  -1   -0.30    1.60
  -5   0   1    1.10    1.40
  -5   0   1   -0.50    1.10
  -5   0  -1    1.90    1.20
   5   0   1    0.50    1.40
   5   0   1   -0.60    1.60
   6   0  -1   -1.70    2.30
  -6   0   1    0.90    1.70
   6   0  -1    1.50    1.50
  -6   0   1   -0.90    1.30
   6   0   1    0.00    1.40
  -6   0  -1    1.10    1.50
  -6   0  -1    0.90    1.50
  -6   0  -1    5.00    3.00
   7   0   1    3.20    2.90
   7   0  -1   -2.20    3.10
  -7   0   1   -0.40    1.70
  -7   0  -1    2.10    3.00
  -7   0  -1    0.90    1.70
  -7   0   1   -2.80    1.60
  -8   0  -1    1.20    2.20
  -8   0   1    0.40    2.10
  -8   0  -1    0.60    3.20
  -9   0   1   -2.30    2.60
  -9   0  -1   -2.20    2.80
  -9   0  -1   -1.00    3.50
 -10   0  -1   -2.30    2.30
 -10   0   1   -0.30    3.20
 -11   0  -1    2.00    3.40
 -11   0   1   -2.10    2.80
 -12   0   1    0.90    4.00
 -12   0  -1   -4.70    2.70
   2   1  -1  398.76   11.50
  -2  -1  -1  386.06   12.00
   2   1  -1  386.06   11.90
   2  -1   1  385.36   11.30
   2  -1   1  368.26   12.70
  -2   1   1  384.96   11.70
  -2   1  -1  388.96   11.20
   2  -1  -1  378.06   11.70
  -2   1  -1  361.56   12.80
   2   1   1  331.97   13.50
   2   1   1  382.06   12.10
  -2  -1   1  372.66   11.90
   2   1   1  374.06   11.70
  -2  -1   1  385.16   11.40
   3   1  -1   35.20    3.00
  -3  -1  -1   33.20    2.70
  -3  -1  -1   29.00    3.70
   3  -1   1   29.10    3.50
  -3  -1  -1   30.80    2.80
   3   1  -1   36.80    2.80
  -3   1   1   33.50    2.80
   3   1  -1   43.80    4.20
   3  -1  -1   30.20    3.40
  -3  -1   1   32.60    2.60
  -3  -1   1   34.00    3.70
   3   1   1   35.20    2.80
   3   1   1   23.00    3.80
  -3   1  -1   35.90    3.70
  -3   1  -1   35.10    2.60
   3  -1  -1   34.90    2.80
   3   1   1   32.80    2.90
   4   1  -1 1202.48   34.00
   4  -1   1 1077.79   36.50
   4   1  -1 1163.78   37.60
  -4   1   1 1227.28   33.70
  -4  -1  -1 1177.68   33.30
   4   1  -1 1179.18   33.20
  -4  -1  -1 1231.98   33.90
  -4  -1  -1 1130.39   37.60
   4  -1   1 1153.28   33.30
   4   1   1 1167.68   34.00
  -4   1  -1 1230.38   33.10
   4  -1  -1 1133.49   36.30
   4   1   1 1203.18   33.60
  -4  -1   1 1175.88   34.00
  -4  -1   1 1186.68   32.90
  -4   1  -1 1170.88   36.50
  -4  -1   1 1191.78   37.20
   4  -1  -1 1172.78   33.60
   4   1   1 1124.39   38.20
  -5  -1  -1 1827.92   49.60
  -5  -1  -1 1906.41   50.49
  -5  -1  -1 1737.83   54.69
  -5   1   1 1848.62   50.09
  -5   1   1 1800.72   49.10
   5   1  -1 1733.93   50.19
   5  -1   1 1797.92   49.80
   5   1  -1 1801.92   55.29
   5  -1   1 1770.02   54.49
   5   1   1 1645.14   55.29
   5  -1  -1 1783.12   49.99
   5   1   1 1762.32   50.29
  -5   1  -1 1747.33   53.19
  -5  -1   1 1843.22   49.30
  -5   1  -1 1830.02   49.40
  -5  -1   1 1873.71   50.69
  -5  -1   1 1799.72   54.39
  -5   1  -1 1763.42   49.40
   5  -1  -1 1712.13   53.79
   6   1  -1   15.30    3.60
  -6   1   1   32.80    4.80
  -6  -1  -1   19.80    3.50
   6  -1   1   22.40    4.80
  -6  -1  -1   23.20    5.20
  -6  -1  -1   25.20    4.30
  -6   1   1   28.10    4.10
   6  -1   1   19.40    3.40
   6   1   1   42.20    8.40
   6   1   1   24.10    4.20
  -6  -1   1   20.80    3.40
  -6   1  -1   29.90    4.30
  -6   1  -1   21.30    3.50
   6  -1  -1   24.80    4.00
   6  -1  -1   27.00    5.30
  -6   1  -1   28.60    5.40
  -6  -1   1   28.20    4.10
  -7   1   1 2257.27   62.19
  -7  -1  -1 2230.18   62.29
  -7  -1  -1 2134.39   67.99
   7  -1   1 2140.49   68.19
  -7   1  -1 2247.18   67.09
  -7   1  -1 2199.08   61.39
  -7  -1   1 2184.88   62.49
   7  -1  -1 2032.20   67.79
  -8   1   1    9.00    3.20
  -8  -1  -1    7.50    2.70
  -8  -1  -1   16.20    5.80
  -8   1  -1   13.90    5.20
  -8   1  -1   11.40    3.30
  -8  -1   1   10.50    3.70
  -9  -1  -1    4.80    3.90
  -9  -1   1   12.40    5.20
  -9   1  -1   18.60    6.20
 -10  -1  -1  122.99   13.80
 -10  -1  -1  134.19   10.80
 -10   1   1  122.99   10.50
 -10   1  -1  117.79   10.00
 -10  -1   1  110.79   10.40
 -11   1   1   12.60    4.70
 -11  -1  -1   11.60    4.90
 -11  -1   1   13.40    4.20
 -11   1  -1   13.30    4.60
 -12   1   1    3.30    3.50
 -12  -1  -1    0.50    2.90
 -12  -1   1   -3.50    3.10
 -12   1  -1    3.30    3.90
   0  -2   1 2328.27   60.09
   0  -2  -1 2408.86   60.49
   0  -2   1 2060.09   59.19
   0   2   1 2378.46   59.59
   0   2  -1 2335.27   59.39
   0  -2  -1 2430.86   59.49
   0  -2  -1 2415.46   60.49
   0   2   1 2506.45   61.69
   0   2  -1 2417.26   60.39
  -1   2   1  763.62   20.50
   1  -2   1  735.23   20.40
   1   2  -1  776.12   21.60
  -1  -2  -1  727.13   21.20
  -1  -2  -1  762.92   21.90
   1   2  -1  790.62   20.50
   1   2  -1  752.52   20.50
   1  -2   1  752.22   19.50
  -1   2   1  751.02   20.40
   1  -2   1  755.52   19.30
  -1  -2  -1  734.63   20.60
  -1   2  -1  735.63   19.50
   1  -2  -1  758.92   20.60
   1   2   1  687.43   21.80
   1  -2  -1  760.12   20.50
  -1  -2   1  731.83   20.40
  -1  -2   1  763.12   20.60
   1   2   1  754.92   20.80
  -1   2  -1  739.63   20.40
   2  -2   1  777.42   20.90
   2   2  -1  794.52   22.10
  -2  -2  -1  750.92   22.30
  -2  -2  -1  817.82   23.20
  -2  -2  -1  729.13   24.30
   2  -2   1  726.53   21.70
   2   2  -1  774.72   21.60
  -2   2   1  768.72   21.60
  -2   2  -1  794.72   20.80
   2   2   1  797.32   22.10
   2  -2  -1  738.33   22.60
  -2  -2   1  722.03   23.60
  -2  -2   1  779.92   21.50
  -2  -2   1  800.72   22.20
   3   2  -1    7.70    2.40
   3  -2   1    8.20    1.60
  -3   2   1   11.90    2.10
   3   2  -1   10.80    1.80
  -3  -2  -1   10.00    1.90
   3   2  -1   11.40    2.10
  -3  -2  -1    7.20    1.60
  -3  -2  -1    9.10    2.70
   3  -2   1   10.20    2.30
   3   2   1    9.10    1.80
  -3   2  -1   15.70    2.80
   3   2   1    6.60    1.70
   3   2   1   10.00    3.00
  -3  -2   1    6.50    2.20
   3  -2  -1    8.10    1.60
  -3  -2   1    8.90    1.70
   4   2  -1  817.82   24.60
   4  -2   1  794.92   27.10
  -4  -2  -1  816.02   24.60
  -4   2   1  830.52   24.70
  -4  -2  -1  778.32   28.80
   4   2  -1  870.41   25.70
   4  -2   1  793.92   24.30
  -4  -2  -1  826.32   25.40
   4   2  -1  841.52   29.30
   4   2   1  805.72   25.50
   4  -2  -1  809.02   24.70
  -4  -2   1  841.72   24.50
   4  -2  -1  762.22   26.60
  -4   2  -1  833.22   26.80
  -4   2  -1  830.72   24.00
  -4  -2   1  750.62   27.90
  -4  -2   1  855.81   25.70
   4   2   1  837.22   25.00
   5   2  -1 1151.28   39.80
   5  -2   1 1146.69   34.20
  -5  -2  -1 1205.58   35.20
   5   2  -1 1188.88   34.40
  -5   2   1 1189.28   34.40
   5  -2   1 1104.59   37.50
  -5  -2  -1 1158.18   34.20
  -5  -2  -1 1138.89   39.50
   5  -2  -1 1142.19   37.70
  -5  -2   1 1089.59   38.50
  -5   2  -1 1180.78   37.10
   5   2   1 1168.58   35.40
   5   2   1 1100.79   40.30
   5   2   1 1164.18   34.60
  -5   2  -1 1221.68   33.80
  -5  -2   1 1199.18   34.00
  -5  -2   1 1209.98   35.40
   5  -2  -1 1131.69   34.40
   6   2  -1  769.82   30.20
   6  -2   1  792.62   26.90
  -6  -2  -1  827.52   27.00
  -6  -2  -1  918.31   28.60
   6   2  -1  855.71   33.80
  -6  -2  -1  826.32   32.50
  -6   2   1  844.82   27.30
   6  -2   1  846.22   31.40
  -6  -2   1  862.61   28.80
   6   2   1  810.82   33.80
  -6  -2   1  856.11   32.70
  -6   2  -1  865.51   26.80
  -6  -2   1  874.61   28.50
  -6   2  -1  826.42   30.00
   6  -2  -1  829.22   31.20
   6   2   1  814.22   28.20
   6  -2  -1  817.82   27.40
  -7  -2  -1    3.60    2.10
  -7   2   1    6.30    2.70
   7  -2   1    4.60    3.40
  -7  -2  -1    5.90    3.70
  -7  -2   1    6.60    3.10
  -7   2  -1    7.30    2.80
  -7   2  -1    7.30    3.30
   7  -2  -1    9.40    3.90
  -8   2   1   94.59    7.90
  -8  -2  -1   93.79    8.10
  -8  -2  -1   87.29   10.40
  -8   2  -1   87.89    9.30
  -8   2  -1   82.59    7.20
  -8  -2   1   92.59    8.40
  -9  -2  -1   18.00    5.20
  -9  -2  -1   33.50    8.20
  -9   2   1   24.90    6.30
  -9  -2   1   15.50    6.50
  -9   2  -1   17.00    5.70
 -10  -2  -1   59.09   10.90
 -10  -2  -1   62.69    8.90
 -10   2   1   44.10    6.60
 -10  -2   1   67.19    8.30
 -10   2  -1   39.60    6.20
 -11  -2  -1   78.09    9.20
 -11   2   1   85.49    9.60
 -11   2  -1   86.19    9.10
 -11  -2   1   57.79    8.50
 -12  -2  -1   14.50    4.90
 -12   2   1   21.40    6.00
 -12  -2   1   23.60    6.40
 -12   2  -1   25.10    6.30
   0  -3  -1   -4.40    0.50
   0  -3  -1   -4.20    0.50
   0  -3   1   -4.30    0.60
   0  -3  -1   -3.90    0.60
   0   3   1   -4.30    0.60
   0  -3   1   -2.90    0.70
   0   3  -1   -4.20    0.40
   0   3  -1   -3.80    0.70
  -1   3   1 1190.28   32.00
  -1  -3  -1 1134.79   32.90
   1   3  -1 1116.69   31.60
   1  -3   1 1186.68   30.80
  -1  -3  -1 1172.68   32.80
   1  -3   1 1177.48   31.90
  -1   3   1 1250.27   31.80
  -1  -3  -1 1222.78   32.30
   1   3  -1 1193.28   32.70
   1   3  -1 1206.58   32.40
   1  -3  -1 1171.38   30.20
   1  -3  -1 1194.08   32.10
  -1  -3   1 1161.08   32.00
  -1   3  -1 1165.08   29.50
   1   3   1 1224.28   32.50
  -1   3  -1 1200.98   31.80
   1   3   1 1097.39   33.10
  -1  -3   1 1178.48   32.00
   1  -3  -1 1199.88   32.00
  -1   3  -1 1187.28   30.70
   1   3   1 1111.29   32.70
   2   3  -1 2161.58   55.89
  -2   3   1 2195.58   55.49
   2   3  -1 2169.88   58.29
   2  -3   1 2138.19   54.59
  -2   3   1 2158.68   55.49
  -2  -3  -1 2165.38   55.89
  -2  -3  -1 2200.18   56.79
   2   3  -1 2150.28   55.99
  -2  -3  -1 1971.60   58.29
   2  -3   1 2174.98   54.29
  -2  -3   1 2072.79   57.99
   2   3   1 1979.40   58.69
  -2   3  -1 2164.98   54.39
  -2   3  -1 2167.88   55.59
  -2  -3   1 2126.69   56.09
   2   3   1 2098.89   56.59
   2   3   1 2122.39   56.09
  -2  -3   1 2168.68   55.59
   2  -3  -1 2104.29   55.49
  -2   3  -1 2124.19   54.69
   3   3  -1  403.26   13.80
   3  -3   1  396.86   13.80
  -3  -3  -1  412.46   13.80
  -3  -3  -1  392.06   14.40
   3  -3   1  406.46   13.00
  -3   3   1  419.16   13.60
   3   3  -1  397.86   14.20
  -3  -3  -1  388.76   16.70
   3   3  -1  407.16   16.70
  -3  -3   1  399.46   13.50
   3   3   1  395.56   17.30
   3  -3  -1  409.66   13.70
  -3   3  -1  412.96   13.90
  -3  -3   1  380.06   14.10
  -3  -3   1  386.46   16.30
   3  -3  -1  389.16   14.00
  -3   3  -1  432.26   12.90
   3   3   1  394.46   14.00
  -4  -3  -1  482.35   20.80
  -4  -3  -1  527.15   18.00
   4  -3   1  490.05   16.30
   4   3  -1  519.55   17.10
  -4  -3  -1  496.25   16.90
   4  -3   1  480.25   17.90
  -4   3   1  493.15   16.70
   4   3  -1  475.05   17.40
   4   3  -1  540.05   21.40
  -4  -3   1  512.75   16.70
  -4  -3   1  512.45   17.90
  -4   3  -1  503.85   16.10
   4   3   1  465.45   21.20
   4  -3  -1  486.35   16.80
   4   3   1  503.05   17.40
   4  -3  -1  471.55   18.00
  -4   3  -1  491.25   17.60
   4   3   1  497.25   17.80
   5   3  -1  134.49   10.50
   5  -3   1  140.39    7.50
   5  -3   1  118.89    8.50
   5   3  -1  133.79    8.10
  -5  -3  -1  132.09    7.60
   5   3  -1  144.19    7.90
   5   3   1  133.79    9.20
  -5   3  -1  141.79    8.50
   5  -3  -1  124.19    8.80
  -5  -3   1  134.19    8.20
   5   3   1  132.79   11.10
  -5   3  -1  126.19    6.90
  -5  -3   1  141.89    7.60
   5   3   1  139.19    8.40
   5  -3  -1  138.09    7.70
   6   3  -1   44.00    4.90
   6  -3   1   38.50    6.00
  -6  -3  -1   40.60    4.60
  -6  -3  -1   27.70    4.30
  -6  -3  -1   30.00    6.10
  -6   3   1   48.30    4.90
   6   3  -1   25.10    4.10
   6  -3   1   39.00    4.40
   6   3  -1   40.00    7.50
  -6  -3   1   39.60    5.00
  -6   3  -1   42.50    4.40
   6  -3  -1   53.89    5.20
   6   3   1   39.00    4.90
  -6   3  -1   38.90    5.10
   6  -3  -1   39.10    6.10
  -6  -3   1   38.30    4.30
   6   3   1   38.80    5.30
  -6  -3   1   34.10    6.70
   6   3   1   35.30    6.80
  -7   3   1    3.40    2.20
  -7  -3  -1    0.40    1.80
   7  -3   1    1.10    3.10
   7   3  -1    3.60    2.50
  -7  -3  -1    5.90    3.80
   7   3   1    4.80    2.70
  -7  -3   1    5.00    2.20
  -7  -3   1    1.30    2.80
  -7   3  -1    6.30    2.30
  -7   3  -1    7.80    3.10
  -8  -3  -1  135.99   12.90
  -8   3   1  123.29    9.00
  -8  -3  -1  144.19   10.20
  -8  -3   1  117.19    9.60
  -8   3  -1  125.59    8.70
  -9   3   1   -0.40    2.30
  -9  -3  -1    0.50    5.20
  -9  -3  -1    1.30    2.30
  -9   3  -1   -0.30    2.20
 -10  -3  -1   34.90    9.10
 -10   3   1   42.40    7.20
 -10  -3  -1   23.00    4.80
 -10   3  -1   30.10    5.40
 -10  -3   1   26.50    5.50
 -11   3   1    8.50    4.10
 -11  -3  -1    4.00    3.80
 -11   3  -1    3.50    3.40
 -11  -3   1    1.80    3.70
 -12  -3  -1    9.80    4.20
 -12   3   1    4.80    4.50
 -12   3  -1    8.50    4.20
 -12  -3   1    4.90    3.90
   0   4  -1 5359.06  130.39
   0   4   1 5147.48  127.99
   0  -4  -1 4843.32  129.59
   0   4  -1 5062.99  127.59
   0   4   1 5102.39  130.39
   0  -4   1 4914.41  128.69
   0  -4  -1 4938.31  129.09
   0  -4  -1 5334.07  130.49
   0  -4   1 5328.67  130.09
   0  -4  -1 5190.58  130.19
  -1   4   1 1692.13   45.70
   1   4  -1 1691.73   45.80
   1   4  -1 1780.92   47.00
   1   4  -1 1744.93   46.60
   1  -4   1 1766.22   46.40
   1  -4   1 1737.93   45.00
  -1  -4  -1 1777.92   46.50
  -1  -4  -1 1684.53   47.00
  -1  -4  -1 1666.83   46.90
  -1   4   1 1730.93   46.40
   1  -4  -1 1746.53   43.50
  -1   4  -1 1718.43   44.80
   1  -4  -1 1771.22   46.60
   1   4   1 1757.22   47.00
   1   4   1 1649.04   47.00
  -1   4  -1 1761.62   46.10
  -1  -4   1 1670.63   46.00
  -1  -4   1 1598.94   46.10
  -1  -4   1 1699.23   46.30
   1  -4  -1 1669.43   45.90
   1   4   1 1726.23   49.60
   2  -4   1 1794.42   44.50
  -2  -4  -1 1726.53   50.19
  -2   4   1 1820.62   47.50
   2   4  -1 1788.22   50.09
   2   4  -1 1744.03   47.90
   2  -4   1 1760.12   46.30
  -2  -4  -1 1734.23   47.70
   2   4  -1 1780.52   48.10
  -2  -4  -1 1789.82   48.90
  -2   4   1 1773.62   47.10
  -2  -4   1 1783.72   47.60
  -2  -4   1 1720.63   49.60
  -2  -4   1 1750.12   48.10
   2  -4  -1 1861.81   47.90
   2   4   1 1717.03   50.69
  -2   4  -1 1789.82   47.50
   2   4   1 1732.53   48.70
  -2   4  -1 1780.42   44.80
   2   4   1 1772.12   48.30
  -2   4  -1 1771.12   46.00
   2  -4  -1 1761.42   47.30
  -3   4   1    3.40    1.20
   3  -4   1   -0.70    0.80
  -3  -4  -1    0.80    1.50
   3   4  -1    3.80    1.60
  -3   4   1    0.50    1.00
   3  -4   1    0.20    0.80
  -3  -4  -1    2.00    1.40
  -3  -4  -1    5.60    1.60
   3   4  -1    3.30    1.80
   3   4  -1    0.70    1.10
  -3  -4   1    1.00    1.10
  -3   4  -1    2.40    1.40
   3   4   1    2.30    1.50
   3   4   1    1.50    1.10
   3  -4  -1    1.20    1.00
   3   4   1    1.50    2.00
   3  -4  -1   -0.20    0.70
  -3  -4   1    0.60    1.10
  -3  -4   1   -0.70    1.40
  -3   4  -1    1.00    0.90
  -3   4  -1    2.70    1.10
  -4  -4  -1 1367.16   39.40
   4  -4   1 1355.66   39.20
  -4  -4  -1 1402.66   40.70
  -4  -4  -1 1401.66   44.50
   4  -4   1 1336.97   38.30
   4   4  -1 1390.86   44.40
   4   4  -1 1339.67   39.50
  -4   4   1 1447.16   39.10
   4   4  -1 1381.36   40.20
  -4   4   1 1361.16   39.00
   4   4   1 1418.06   45.70
  -4  -4   1 1268.87   43.10
   4   4   1 1413.16   41.00
   4  -4  -1 1354.16   39.80
  -4   4  -1 1398.26   38.00
  -4  -4   1 1397.36   40.50
  -4  -4   1 1387.36   39.10
   4   4   1 1377.26   40.00
   4  -4  -1 1336.37   39.00
  -4   4  -1 1408.66   38.90
  -5  -4  -1 2217.88   63.09
   5   4  -1 2289.37   68.39
   5   4  -1 2235.88   64.29
  -5  -4  -1 2247.28   61.49
  -5   4   1 2295.17   60.89
  -5  -4  -1 2223.28   67.29
   5   4  -1 2165.78   62.09
   5  -4   1 2240.38   62.29
   5   4   1 2211.08   63.09
   5   4   1 2172.08   68.59
   5  -4  -1 2233.88   63.09
  -5  -4   1 2337.27   62.89
   5  -4  -1 2188.28   60.99
  -5   4  -1 2241.08   61.39
  -5  -4   1 2211.38   60.69
   5   4   1 2199.08   61.79
  -5  -4   1 2103.09   66.29
   6   4  -1 1047.50   33.50
   6  -4   1 1064.89   35.10
   6   4  -1 1051.39   34.40
   6  -4   1 1012.40   32.60
  -6  -4  -1 1024.70   38.80
  -6  -4  -1 1024.10   32.80
  -6   4   1 1076.29   32.90
  -6  -4  -1 1120.29   34.90
   6   4  -1 1101.99   41.10
   6   4   1 1015.00   33.60
   6  -4  -1 1042.90   35.50
  -6   4  -1 1065.29   32.00
   6   4   1 1051.39   41.10
  -6  -4   1 1088.19   34.60
  -6   4  -1 1074.29   34.00
   6  -4  -1 1021.10   33.00
   6   4   1 1022.30   34.40
  -6  -4   1 1094.39   33.00
  -6  -4   1 1001.30   38.40
   7   4  -1    8.20    3.10
   7  -4   1    6.00    3.50
  -7  -4  -1    5.70    3.90
  -7   4   1   12.10    3.10
  -7  -4  -1   11.30    3.70
  -7  -4   1   12.30    4.60
   7   4   1   14.10    3.80
  -7   4  -1    8.80    2.60
  -7  -4   1    9.30    3.30
  -8   4   1   48.40    6.00
  -8  -4  -1   40.00    6.90
  -8  -4  -1   27.60    7.10
   8   4  -1   29.30    5.30
   8  -4   1   29.10    6.20
  -8   4  -1   33.90    5.10
  -8  -4   1   29.20    5.50
   8  -4  -1   37.20    6.60
   8   4   1   29.50    5.50
  -9  -4  -1   35.10    6.60
  -9   4   1   28.50    5.30
  -9  -4  -1   29.80    7.80
  -9   4  -1   33.50    5.30
  -9  -4   1   26.60    6.00
 -10   4   1   73.89    8.60
 -10  -4  -1   68.99   12.60
 -10   4  -1   80.59    8.20
 -10  -4   1   76.99    9.10
 -11   4   1  187.88   13.60
 -11  -4  -1  196.78   14.50
 -11   4  -1  176.38   12.90
 -11  -4   1  171.98   14.00
 -12  -4  -1   22.30    6.00
 -12   4   1   32.10    6.40
 -12   4  -1   37.90    6.90
 -12  -4   1   35.50    7.90
   0  -5   1   -0.10    1.00
   0   5   1   -0.80    1.00
   0  -5  -1    0.50    0.90
   0  -5  -1   -1.80    0.90
   0  -5  -1   -1.90    0.60
   0   5   1    0.80    0.90
   0  -5  -1   -1.40    0.60
   0   5  -1    0.30    1.30
   0   5  -1    0.00    0.70
   0  -5   1   -1.10    0.90
   1   5  -1 3694.03   94.39
   1   5  -1 3588.64   93.29
  -1   5   1 3662.63   92.79
  -1  -5  -1 3427.26   93.99
   1  -5   1 3697.53   93.69
   1  -5   1 3548.84   91.99
  -1  -5  -1 3641.94   93.69
   1   5  -1 3702.93   93.19
  -1   5   1 3658.73   93.79
  -1  -5  -1 3419.66   93.39
  -1  -5   1 3580.54   93.19
   1  -5  -1 3559.44   89.69
  -1  -5   1 3382.96   92.69
   1   5   1 3511.75   96.19
   1   5   1 3579.24   94.49
   1  -5  -1 3607.34   93.19
   1  -5  -1 3747.62   93.99
   1   5   1 3739.43   94.59
  -1  -5   1 3646.74   93.89
  -1   5  -1 3603.44   93.29
   2   5  -1  392.46   15.50
  -2   5   1  397.16   13.40
   2  -5   1  388.76   14.10
  -2  -5  -1  375.46   15.50
  -2  -5  -1  387.46   14.90
  -2   5   1  383.46   13.80
   2   5  -1  354.96   14.10
   2   5  -1  368.26   13.80
   2  -5   1  376.06   12.70
  -2  -5   1  382.66   14.20
   2  -5  -1  393.46   14.10
   2  -5  -1  381.96   13.60
  -2   5  -1  363.96   12.30
  -2  -5   1  388.36   14.00
  -2  -5   1  373.86   15.00
   2   5   1  377.46   14.80
   2   5   1  375.56   15.90
   2   5   1  376.56   14.50
  -2   5  -1  365.96   13.50
  -3  -5  -1  338.07   14.10
   3   5  -1  317.77   13.20
   3   5  -1  348.77   13.70
   3   5  -1  381.86   16.30
  -3   5   1  337.37   12.60
  -3  -5  -1  350.46   13.30
  -3  -5  -1  328.97   15.50
   3  -5   1  330.97   12.10
  -3   5   1  346.07   13.00
   3  -5   1  343.67   10.60
  -3   5  -1  358.56   13.20
  -3  -5   1  337.87   15.30
  -3  -5   1  339.37   13.90
  -3  -5   1  338.27   13.00
   3  -5  -1  336.07   12.90
   3   5   1  326.47   13.60
  -3   5  -1  343.97   11.80
   3   5   1  354.46   16.60
   3  -5  -1  351.46   11.80
   3   5   1  344.57   14.20
  -4   5   1  125.89    7.30
   4  -5   1  138.99    6.70
   4   5  -1  115.29    7.50
   4   5  -1  123.99    9.70
  -4  -5  -1  114.09    9.30
  -4   5   1  130.79    7.10
  -4  -5  -1  119.19    7.20
  -4  -5  -1  121.69    8.10
   4   5  -1  123.69    7.60
   4  -5   1  113.49    6.40
   4  -5  -1  110.69    6.80
  -4  -5   1  114.99    9.10
  -4  -5   1  131.09    8.20
  -4  -5   1  124.59    7.10
  -4   5  -1  121.49    6.30
   4   5   1  137.79   10.60
   4   5   1  119.19    7.60
   4   5   1  113.39    7.80
  -4   5  -1  123.89    7.20
   4  -5  -1  115.09    6.90
  -5  -5  -1  788.62   30.40
  -5  -5  -1  768.12   26.60
  -5  -5  -1  740.33   24.90
  -5   5   1  724.43   24.20
   5   5  -1  721.03   25.80
   5   5  -1  727.83   25.40
   5   5  -1  803.72   31.70
  -5   5   1  782.32   25.10
   5  -5   1  742.03   24.60
   5   5   1  745.73   31.00
  -5   5  -1  801.92   23.90
   5   5   1  760.32   26.80
  -5  -5   1  771.22   29.90
  -5  -5   1  746.63   24.70
   5  -5  -1  707.43   24.50
   5  -5  -1  726.03   25.30
  -5  -5   1  765.72   27.00
  -5   5  -1  757.72   25.00
   5   5   1  734.23   25.80
  -6  -5  -1    2.70    2.40
   6   5  -1   -0.70    1.40
  -6   5   1   -1.10    1.50
  -6   5   1    1.70    1.60
   6  -5   1    2.40    2.10
  -6  -5  -1   -4.40    2.10
   6   5  -1    0.60    1.90
   6   5   1    2.00    1.60
  -6  -5   1   -1.30    2.60
  -6  -5   1    3.60    2.30
   6  -5  -1    4.10    2.70
   6   5   1    1.40    2.10
  -6   5  -1   -0.40    1.10
  -6  -5   1   -1.50    1.50
  -7  -5  -1  788.52   29.40
   7   5  -1  795.42   28.60
  -7   5   1  777.42   27.10
   7  -5   1  822.02   29.30
  -7  -5  -1  819.52   34.40
   7   5   1  782.32   28.70
  -7  -5   1  797.32   29.50
  -7   5  -1  782.32   26.50
   7  -5  -1  804.92   30.20
  -7  -5   1  817.22   34.40
  -8   5   1  133.79    9.40
   8  -5   1  130.89   10.80
   8   5  -1  129.49   10.00
  -8  -5  -1  139.19   13.50
  -8  -5  -1  145.49   10.90
   8   5   1  125.69   10.00
  -8  -5   1  145.49   11.00
   8  -5  -1  124.49   10.90
  -8   5  -1  128.59    8.90
  -9  -5  -1   15.10    6.30
  -9   5   1   21.40    4.90
  -9  -5  -1   20.30    5.60
  -9   5  -1   18.20    4.40
  -9  -5   1    9.60    3.60
   9   5   1   14.40    4.90
 -10  -5  -1    3.80    3.80
 -10  -5  -1   -2.90    4.10
 -10   5   1   -3.20    2.10
 -10  -5   1    0.40    3.00
 -10   5  -1   -0.80    2.60
 -11  -5  -1    1.70    2.70
 -11   5   1    1.60    3.40
 -11   5  -1    3.70    3.30
   0  -6   1 3856.81   99.09
   0   6  -1 3880.31   99.69
   0   6   1 3706.43   99.49
   0  -6   1 3874.31   97.89
   0  -6  -1 3797.62   98.79
   0  -6  -1 3635.54   98.39
   0  -6  -1 3830.72   99.19
   0   6  -1 3697.53   95.89
   0  -6   1 3630.14   97.39
   0   6   1 3809.22   95.99
   0  -6  -1 3662.03   96.19
   1   6  -1   31.60    3.60
  -1  -6  -1   32.70    3.60
  -1   6   1   27.90    4.10
  -1   6   1   36.30    3.60
   1   6  -1   39.00    4.00
   1  -6   1   32.70    3.30
   1   6  -1   30.30    4.40
  -1  -6  -1   32.90    3.90
   1  -6   1   35.60    3.80
  -1  -6  -1   32.50    3.70
   1   6   1   32.90    4.10
  -1   6  -1   29.30    4.10
   1  -6  -1   35.60    2.40
   1   6   1   40.40    4.00
   1  -6  -1   36.30    4.00
  -1  -6   1   43.00    4.00
  -1  -6   1   31.80    3.40
   1   6   1   35.40    4.10
  -1  -6   1   35.70    3.90
   1  -6  -1   34.80    3.70
   2  -6   1   14.20    2.90
   2   6  -1   16.60    3.40
  -2  -6  -1   20.60    3.70
  -2   6   1   10.20    2.20
   2  -6   1   13.80    2.30
  -2  -6  -1   13.20    2.80
  -2  -6  -1   16.90    3.60
  -2   6   1   12.40    2.80
   2   6  -1   19.70    3.70
   2   6  -1   23.60    3.80
   2   6   1   13.30    3.20
  -2  -6   1   19.30    3.40
  -2   6  -1   10.40    2.40
   2   6   1   12.30    2.90
   2  -6  -1   11.50    2.70
  -2   6  -1   13.90    2.20
  -2  -6   1   14.70    2.80
  -2  -6   1   16.10    3.20
   2   6   1   13.70    2.90
   2  -6  -1   16.10    3.00
   2  -6  -1   14.10    1.30
   3  -6   1    5.30    0.80
  -3  -6  -1    2.70    2.00
   3   6  -1    3.40    1.90
  -3  -6  -1    3.80    2.60
  -3   6   1    4.50    1.80
   3   6  -1    5.50    2.00
   3  -6   1    6.30    1.80
  -3   6   1    5.00    1.90
  -3  -6  -1    6.10    2.00
   3   6  -1    5.00    2.50
   3   6   1    4.20    2.00
   3   6   1    7.40    3.30
  -3   6  -1    5.00    1.60
  -3  -6   1    3.00    1.80
  -3   6  -1    0.80    1.40
   3  -6  -1    3.10    1.70
   3   6   1    3.70    2.00
  -3  -6   1    3.10    1.70
   3  -6  -1    2.20    1.50
   3  -6  -1    2.20    1.10
  -3  -6   1    1.40    1.80
   4  -6   1   77.09    5.40
  -4  -6  -1   87.89    7.20
   4   6  -1   87.59    8.30
  -4  -6  -1   88.89    9.50
   4  -6   1  100.89    4.80
  -4   6   1   81.29    6.10
  -4  -6  -1   76.29    5.90
  -4   6   1   80.09    5.70
   4   6  -1   85.99    6.50
   4   6   1   90.09    7.10
  -4   6  -1   75.19    5.90
  -4   6  -1   84.99    5.40
   4  -6  -1   86.49    5.40
  -4  -6   1   73.89    7.60
  -4  -6   1   81.39    6.70
   4   6   1   71.99    6.40
  -4  -6   1   79.09    5.90
   4  -6  -1   71.89    5.70
  -5   6   1    4.50    2.30
  -5   6   1    1.50    1.40
  -5  -6  -1    1.70    1.90
   5   6  -1    3.80    2.40
   5  -6   1    1.50    1.40
   5   6  -1    4.90    2.20
   5   6  -1    6.90    3.20
   5  -6   1   -0.60    1.00
  -5  -6  -1    3.80    2.70
  -5  -6  -1   -0.90    1.80
   5   6   1    1.60    2.20
  -5   6  -1    0.60    1.30
   5  -6  -1    2.60    1.80
   5   6   1    2.40    2.60
  -5  -6   1   -0.50    1.40
   5   6   1    3.80    2.10
  -5  -6   1   -0.10    1.20
  -5  -6   1    4.20    2.80
   5  -6  -1    6.10    2.30
  -5   6  -1   -0.80    1.40
  -6  -6  -1  878.61   31.00
  -6  -6  -1  852.11   34.50
   6   6  -1  840.42   30.30
   6  -6   1  853.71   28.00
  -6   6   1  882.61   28.60
  -6   6   1  871.91   29.10
   6   6  -1  831.32   29.80
  -6   6  -1  869.01   27.60
   6  -6  -1  861.71   29.40
  -6   6  -1  869.81   29.20
   6   6   1  834.32   30.10
  -6  -6   1  911.81   31.30
  -6  -6   1  863.31   34.60
  -7   6   1    5.40    2.60
  -7  -6  -1    4.90    2.80
  -7   6   1    7.80    3.20
   7  -6   1    1.60    2.70
  -7  -6  -1    6.80    3.80
   7   6  -1    3.20    3.20
  -7   6  -1    3.00    2.00
  -7  -6   1   -3.80    2.60
   7   6   1    6.40    3.20
  -7  -6   1    9.40    3.80
  -7   6  -1    7.80    3.20
   7  -6  -1   10.00    3.60
   8  -6   1    6.10    4.30
   8   6  -1    3.10    2.50
  -8   6   1    6.50    3.40
  -8   6   1   13.10    3.60
  -8  -6  -1   11.10    4.00
  -8  -6  -1    8.10    5.00
  -8   6  -1    7.80    3.50
   8  -6  -1   -1.50    3.60
   8   6   1    7.50    3.30
  -8  -6   1    5.10    3.50
  -8   6  -1    9.50    3.20
  -9  -6  -1   19.40    7.40
   9   6  -1   26.30    6.00
  -9  -6  -1   27.80    6.70
  -9   6   1   15.80    3.90
  -9   6   1   14.00    4.50
  -9   6  -1   19.20    4.40
   9   6   1   20.00    5.30
  -9  -6   1   24.10    6.20
 -10   6   1    5.60    4.10
 -10  -6  -1    9.40    6.50
 -10  -6  -1    8.60    4.50
 -10   6   1   24.60    5.60
 -10   6  -1    5.80    3.50
 -10  -6   1    8.90    3.80
 -11   6   1    0.20    3.50
 -11   6   1    1.60    3.60
 -11   6  -1    6.60    4.40
 -11   6  -1    8.60    4.10
 -11  -6   1    2.50    3.90
   0   7  -1   -2.10    1.60
   0  -7   1   -1.50    1.10
   0  -7  -1    0.20    1.30
   0  -7   1    0.60    1.90
   0  -7   1   -1.40    0.90
   0  -7  -1   -1.00    1.00
   0  -7  -1    0.30    1.60
   0  -7  -1    1.30    1.30
   0   7   1    0.50    1.50
   0   7  -1   -0.60    1.00
   1   7  -1 5136.49  132.89
  -1  -7  -1 5206.18  132.09
   1  -7   1 4771.02  129.59
   1  -7   1 5096.79  131.89
   1   7  -1 5084.39  130.69
  -1  -7  -1 4923.11  130.29
  -1   7   1 5145.48  130.69
  -1  -7  -1 5142.69  132.29
  -1   7   1 5360.06  132.99
  -1   7   1 4897.31  126.19
   1   7  -1 4948.31  130.99
  -1  -7   1 4814.92  130.79
  -1  -7   1 5169.28  132.19
   1  -7  -1 4905.81  130.79
   1   7   1 5274.97  130.99
   1   7   1 5064.09  132.99
   1  -7  -1 4999.50  131.89
  -1   7  -1 5203.58  131.89
  -2  -7  -1  388.36   16.00
   2  -7   1  411.36   16.50
  -2  -7  -1  420.36   17.20
   2   7  -1  418.16   17.30
  -2   7   1  390.86   15.90
  -2   7   1  410.16   15.30
   2  -7   1  381.16   14.70
   2   7  -1  432.46   17.30
  -2  -7  -1  377.66   16.40
   2   7  -1  386.76   15.90
   2   7   1  402.66   17.10
   2   7   1  442.96   17.90
   2   7   1  414.76   17.30
  -2  -7   1  403.96   16.10
  -2   7  -1  419.46   16.10
  -2  -7   1  412.06   16.50
  -2  -7   1  414.76   16.70
   2  -7  -1  408.96   11.50
   2  -7  -1  406.56   16.50
   2  -7  -1  399.86   15.70
  -2   7  -1  414.56   14.60
   3   7  -1   61.29    5.60
   3  -7   1   48.80    4.40
   3   7  -1   51.99    6.30
  -3   7   1   47.20    5.10
  -3  -7  -1   44.20    8.30
  -3  -7  -1   59.89    6.30
   3   7  -1   61.09    6.30
  -3   7   1   50.89    5.50
  -3  -7  -1   54.49    5.80
   3  -7   1   39.60    5.90
   3   7   1   57.99    6.70
   3  -7  -1   56.09    2.80
   3   7   1   47.50    5.30
  -3  -7   1   58.69    5.30
  -3   7  -1   49.10    4.20
   3   7   1   50.49    5.50
   3  -7  -1   58.69    6.20
   3  -7  -1   51.59    3.10
  -3  -7   1   56.59    6.10
  -3   7  -1   56.79    5.20
  -3  -7   1   50.89    5.50
  -4  -7  -1   11.90    3.90
  -4   7   1    4.90    2.10
  -4   7   1    4.20    2.20
   4  -7   1    5.50    1.20
   4   7  -1    7.30    2.70
  -4  -7  -1   24.90    5.70
  -4  -7  -1    6.20    2.30
  -4   7  -1    4.80    1.70
  -4   7  -1    8.00    2.60
   4   7   1   17.70    4.00
   4   7   1    6.60    3.00
   4  -7  -1    4.30    1.70
  -4  -7   1    5.00    2.90
   4  -7  -1    3.80    1.70
  -4  -7   1    3.10    1.60
   4   7   1    3.70    2.40
  -4  -7   1    6.10    2.50
   5   7  -1 1317.47   45.10
   5  -7   1 1251.57   39.60
   5   7  -1 1194.98   39.40
  -5  -7  -1 1258.07   43.40
   5  -7   1 1202.98   37.20
  -5   7   1 1234.88   37.40
   5   7  -1 1198.38   40.10
  -5   7   1 1166.88   37.80
  -5  -7  -1 1320.27   41.10
   5   7   1 1306.27   45.60
  -5   7  -1 1259.97   38.50
  -5   7  -1 1251.97   36.50
  -5  -7   1 1209.58   38.20
   5   7   1 1183.48   40.00
  -5  -7   1 1269.27   40.50
   5   7   1 1163.08   39.50
  -5  -7   1 1324.97   43.80
   5  -7  -1 1255.17   36.30
   6   7  -1    3.60    3.10
  -6   7   1   11.20    3.00
  -6  -7  -1    7.80    3.30
  -6   7   1   13.90    3.60
   6  -7   1   14.00    2.90
   6   7  -1    9.40    3.10
  -6  -7  -1    9.10    4.10
  -6  -7   1   13.10    4.20
   6   7   1   14.20    4.30
  -6   7  -1   13.60    3.20
   6  -7  -1   10.90    3.00
  -6  -7   1   21.70    5.90
  -6   7  -1   11.70    3.30
  -7  -7  -1 1814.02   55.29
  -7  -7  -1 1787.42   59.69
   7  -7   1 1805.32   50.69
   7   7  -1 1656.33   53.29
  -7   7   1 1678.73   51.99
  -7   7   1 1757.92   51.39
   7  -7  -1 1687.13   51.79
  -7  -7   1 1781.02   59.69
  -7  -7   1 1722.43   54.79
   7   7   1 1653.63   53.59
  -7   7  -1 1662.43   49.99
  -7   7  -1 1723.03   52.39
  -8   7   1  141.79   10.10
  -8  -7  -1  142.89   12.60
   8   7  -1  136.79   11.00
  -8  -7  -1  164.28   15.00
   8  -7   1  150.28   10.40
   8   7   1  143.09   11.40
  -8   7  -1  150.58   11.00
  -8  -7   1  170.28   12.80
  -8   7  -1  138.89    9.50
   8  -7  -1  161.48   11.70
  -9  -7  -1   10.50    4.10
   9  -7   1    9.70    4.60
   9   7  -1    8.00    4.30
  -9  -7  -1   17.90    7.00
  -9   7   1   10.90    4.20
  -9   7   1   12.60    4.20
  -9  -7   1    0.90    3.30
  -9   7  -1    2.90    3.70
  -9   7  -1    5.50    3.20
   9   7   1    3.10    3.80
 -10   7   1   18.90    5.10
  10   7  -1   16.20    5.20
 -10  -7  -1   20.40    7.90
 -10  -7  -1   17.30    5.80
 -10   7   1   18.00    5.60
 -10   7  -1   12.90    4.10
 -10  -7   1   20.50    6.10
  10   7   1   17.40    5.60
 -10   7  -1   14.80    5.00
 -11   7   1   13.60    5.70
 -11  -7  -1    4.80    5.50
 -11  -7   1    6.30    7.10
 -11   7  -1    2.10    2.90
   0  -8   1  147.09    8.60
   0  -8  -1  153.28    7.50
   0  -8  -1  159.28    9.50
   0   8  -1  163.18   10.40
   0   8  -1  147.99    7.20
   0  -8   1  127.99    8.10
   0  -8  -1  147.69    9.10
   0  -8  -1  159.08    9.70
   0  -8   1  146.59    9.20
  -1   8   1  216.98   16.20
   1   8  -1  199.78   10.00
  -1  -8  -1  203.78   12.70
  -1  -8  -1  183.28   12.00
  -1   8   1  177.18    7.00
   1  -8   1  200.78   11.20
   1  -8   1  187.08    9.70
  -1  -8  -1  197.58   11.00
   1  -8   1  194.58    9.90
  -1  -8  -1  197.48    9.70
   1   8  -1  185.08   12.90
   1   8   1  181.88   12.90
   1  -8  -1  180.78   10.80
  -1  -8   1  184.58   10.30
   1   8   1  192.68    9.90
   1  -8  -1  176.98   10.20
   1  -8  -1  202.88    7.50
  -1  -8   1  194.58   10.90
  -2   8   1 1059.29   32.90
   2  -8   1 1013.80   32.30
  -2  -8  -1 1084.19   34.50
   2   8  -1 1067.69   35.60
  -2   8   1 1033.70   34.00
  -2  -8  -1 1044.40   35.00
  -2  -8  -1 1064.69   34.40
   2   8  -1 1159.98   35.70
   2   8  -1 1054.99   34.20
   2  -8   1 1064.59   34.90
  -2   8  -1 1101.09   34.20
  -2  -8   1 1114.19   34.90
   2  -8  -1 1020.10   34.30
   2   8   1 1092.99   35.90
   2   8   1 1119.19   35.60
  -2  -8   1 1117.99   34.10
   2   8   1 1035.00   35.10
  -2  -8   1 1031.30   37.00
   2  -8  -1 1064.49   33.70
   2  -8  -1 1093.89   27.80
  -2   8  -1 1032.80   32.10
   3   8  -1   42.40    5.10
  -3  -8  -1   37.30    4.60
  -3   8   1   43.10    4.90
   3  -8   1   53.19    5.00
   3   8  -1   47.40    6.60
  -3  -8  -1   46.70    5.70
  -3   8   1   44.50    4.70
   3   8  -1   40.40    6.30
  -3  -8  -1   43.10    5.60
   3  -8   1   47.40    5.30
  -3  -8   1   38.50    5.40
   3   8   1   38.80    6.30
  -3   8  -1   42.90    5.00
  -3   8  -1   47.20    4.30
   3  -8  -1   42.70    2.00
  -3  -8   1   39.00    4.80
   3   8   1   31.70    4.90
   3  -8  -1   45.80    5.00
   3   8   1   45.10    6.40
   3  -8  -1   38.20    4.80
  -3  -8   1   53.99    5.90
   4   8  -1  806.62   29.60
   4   8  -1  895.21   31.00
  -4   8   1  862.91   29.00
   4  -8   1  835.82   27.80
  -4  -8  -1  888.01   32.30
  -4  -8  -1  876.21   31.20
  -4   8   1  841.22   27.80
  -4  -8   1  834.62   28.90
   4  -8  -1  856.01   30.60
  -4  -8   1  899.11   31.10
   4   8   1  903.21   31.30
  -4   8  -1  862.21   27.00
   4   8   1  875.51   31.00
  -4   8  -1  861.41   29.00
   4  -8  -1  872.61   24.40
   4   8   1  909.41   34.60
  -4  -8   1  894.51   32.20
  -5   8   1  147.89    9.90
   5  -8   1  166.08    6.40
   5   8  -1  166.88   11.20
   5   8  -1  130.09   14.50
  -5   8   1  153.98    9.20
  -5  -8  -1  154.58   12.10
  -5  -8  -1  176.08   11.90
  -5  -8   1  183.68   11.80
   5   8   1  153.38   10.90
  -5   8  -1  148.59    9.70
   5   8   1  159.78   11.00
  -5  -8   1  157.28   12.10
  -5   8  -1  169.88    8.90
  -6   8   1   70.69    6.80
  -6   8   1   62.59    6.40
   6  -8   1   70.99    4.90
  -6  -8  -1   59.39    9.20
  -6  -8  -1   66.39    8.00
   6   8  -1   71.29    7.80
  -6   8  -1   73.59    6.20
   6  -8  -1   54.59    5.50
  -6  -8   1   58.79    8.10
  -6  -8   1   59.09    9.10
   6   8   1   60.59    7.50
  -6   8  -1   67.59    7.00
  -7  -8  -1    0.90    3.20
  -7   8   1   -0.40    2.70
   7  -8   1    2.50    2.00
  -7   8   1   -2.60    2.20
  -7  -8  -1    7.50    3.70
   7   8  -1    6.30    3.40
  -7   8  -1    1.30    2.40
  -7  -8   1    5.70    3.60
  -7   8  -1    0.40    2.20
   7  -8  -1    3.60    2.90
   7   8   1    7.60    3.90
  -8  -8  -1   80.39   12.20
  -8   8   1   83.29    8.50
   8   8  -1   75.69    8.40
  -8   8   1   82.19    7.80
  -8  -8  -1   86.49    9.60
   8  -8   1   87.59    7.40
  -8  -8   1   81.79    9.60
   8   8   1   69.19    9.40
   8  -8  -1   80.99    8.20
  -8   8  -1   77.09    8.30
  -8   8  -1   75.49    7.30
  -9   8   1   22.40    5.00
   9   8  -1   31.40    6.70
  -9  -8  -1   30.70    8.30
   9  -8   1   29.00    6.00
  -9  -8  -1   27.90    6.40
  -9   8   1   23.50    5.60
  -9  -8   1   20.40    5.50
   9  -8  -1   22.40    5.60
   9   8   1   29.00    6.50
  -9   8  -1   26.20    6.00
  -9   8  -1   20.70    4.50
 -10  -8  -1   60.79    9.60
 -10  -8  -1   53.39   10.80
  10   8  -1   54.69    9.20
 -10   8   1   69.19    8.20
 -10   8   1   63.39    9.20
 -10   8  -1   57.79    8.90
  10   8   1   60.99   10.10
 -10  -8   1   65.49   10.60
 -10   8  -1   65.89    7.80
 -11   8   1   11.80    5.50
 -11  -8  -1   25.90    7.20
 -11   8   1   12.20    5.10
  11   8   1   10.20    5.70
 -11   8  -1   14.70    4.70
 -11   8  -1    9.10    5.30
   0  -9  -1   -1.10    1.20
   0   9  -1    0.30    2.10
   0   9   1    3.40    1.50
   0  -9  -1   -0.20    1.50
   0  -9   1    0.80    1.60
   0   9   1   -2.50    1.60
   0  -9  -1    3.10    2.20
   0   9  -1    2.60    1.40
   0  -9   1   -0.50    1.40
   0  -9  -1   -0.80    1.40
   1  -9   1  777.72   25.30
  -1  -9  -1  765.32   26.80
   1  -9   1  720.23   26.60
  -1  -9  -1  726.03   26.60
   1   9  -1  735.53   27.70
  -1  -9  -1  709.43   24.20
  -1   9   1  684.93   20.60
  -1   9   1  701.23   26.90
   1   9  -1  790.32   25.00
  -1  -9  -1  721.83   26.20
  -1  -9   1  732.53   26.40
   1   9   1  764.12   24.80
   1  -9  -1  684.33   26.20
   1  -9  -1  742.33   21.00
   1  -9  -1  649.83   25.10
  -1   9  -1  727.73   26.80
   1   9   1  696.03   27.40
  -1  -9   1  717.43   25.80
   1  -9  -1  717.53   25.80
   2   9  -1   62.59    6.20
   2   9  -1   51.59    6.00
  -2  -9  -1   48.80    6.00
   2  -9   1   52.19    5.30
  -2   9   1   55.39    6.20
   2  -9   1   63.89    6.70
  -2  -9  -1   55.69    5.80
  -2  -9  -1   54.29    5.80
  -2   9   1   62.79    5.80
   2   9  -1   64.29    7.20
   2   9   1   51.79    6.30
  -2  -9   1   58.49    6.10
   2  -9  -1   49.10    5.90
   2  -9  -1   50.99    5.50
  -2   9  -1   51.79    6.00
  -2  -9   1   49.40    5.90
   2   9   1   60.19    6.80
   2   9   1   70.99    6.70
  -3   9   1  176.18   10.80
  -3  -9  -1  177.68   13.20
  -3   9   1  180.78   10.00
   3   9  -1  171.78   10.80
  -3  -9  -1  169.08   11.80
   3   9  -1  195.38   12.40
   3  -9   1  163.78    9.70
   3   9  -1  186.88   12.30
  -3  -9   1  191.18   11.70
   3   9   1  194.88   12.50
   3  -9  -1  173.08   15.20
  -3   9  -1  186.08    9.50
   3   9   1  179.78   11.70
  -3   9  -1  178.08   10.70
   3   9   1  205.28   12.70
  -3  -9   1  219.88   12.20
  -4   9   1  209.38   11.00
   4   9  -1  247.08   15.10
  -4   9   1  205.08   12.00
  -4  -9  -1  198.88   12.80
   4   9  -1  223.88   12.70
  -4  -9  -1  212.08   13.50
   4   9  -1  200.58   13.10
  -4   9  -1  216.18   10.50
   4   9   1  236.58   15.20
  -4   9  -1  214.98   11.90
  -4  -9   1  201.48   12.90
  -4  -9   1  219.88   13.50
   4   9   1  226.88   13.60
   4   9   1  204.38   12.90
  -5  -9  -1  287.07   16.30
  -5   9   1  265.07   14.00
   5   9  -1  287.07   16.00
   5   9  -1  254.27   14.60
  -5   9   1  285.77   13.50
  -5  -9  -1  302.37   17.20
  -5   9  -1  274.47   12.60
  -5  -9   1  283.67   16.90
   5  -9  -1  287.57   10.20
   5   9   1  281.97   16.10
  -5  -9   1  287.47   16.00
  -5   9  -1  277.07   14.10
   6   9  -1   58.59    8.20
  -6  -9  -1   67.49    9.20
  -6  -9  -1   46.50    8.00
  -6   9   1   54.89    7.50
   6  -9   1   48.40    3.60
  -6   9   1   53.19    6.10
  -6  -9   1   37.80    6.60
  -6   9  -1   54.39    6.60
  -6   9  -1   49.50    6.20
   6  -9  -1   51.19    4.60
  -6  -9   1   53.89    9.00
   6   9   1   43.10    7.10
  -7   9   1   69.69   10.10
   7   9  -1   84.99   10.20
  -7   9   1  104.79   13.00
  -7  -9  -1   79.09    9.40
  -7  -9  -1   86.49   13.50
   7  -9   1   82.69    5.60
   7   9   1   67.19    9.50
  -7  -9   1   84.29    9.70
  -7   9  -1   74.69    8.10
  -7   9  -1   88.09    7.30
   7  -9  -1   95.29    6.90
  -8  -9  -1    1.50    3.60
  -8  -9  -1   10.50    5.60
   8  -9   1    0.40    2.90
  -8   9   1    0.10    2.50
  -8   9   1   -0.10    3.00
   8   9  -1    1.60    3.60
  -8   9  -1    0.50    2.40
   8  -9  -1    4.20    3.10
   8   9   1    6.40    4.00
  -8  -9   1    2.80    3.40
  -8   9  -1   -1.30    3.20
   9  -9   1    8.30    6.50
  -9   9   1    4.60    3.80
  -9   9   1    7.00    3.80
  -9  -9  -1    3.20    5.80
  -9  -9  -1    1.50    4.10
   9   9  -1    4.50    4.40
   9   9   1    7.60    4.70
  -9   9  -1    1.60    3.40
  -9   9  -1    2.60    3.00
  -9  -9   1    9.20    4.60
 -10  -9  -1   15.90    5.40
 -10   9   1   13.10    5.60
 -10  -9  -1   10.20    7.90
  10   9  -1   11.20    5.80
 -10   9   1    2.10    4.20
 -10   9  -1   17.60    6.80
 -10  -9   1   23.50    7.10
 -10   9  -1   20.90    5.20
   0  10   1   19.50    4.90
   0 -10  -1   17.00    3.70
   0  10   1   19.50    3.10
   0 -10  -1   23.10    3.30
   0 -10   1   15.80    3.60
   0 -10   1   22.10    6.80
   0 -10   1   22.00    4.30
   0  10  -1   15.90    4.30
   1 -10   1  434.16   18.30
  -1  10   1  462.15   20.70
   1  10  -1  425.66   20.50
  -1  10   1  431.06   14.20
  -1 -10  -1  473.65   20.10
   1  10  -1  489.35   18.10
   1 -10   1  462.85   18.60
  -1 -10  -1  477.55   17.80
   1 -10  -1  433.56   19.00
   1  10   1  504.85   18.40
   1  10   1  459.25   21.30
  -1 -10   1  469.25   19.60
   1 -10  -1  474.05   14.50
  -1  10  -1  454.05   20.50
  -2 -10  -1 1452.55   49.40
  -2 -10  -1 1401.16   43.10
   2  10  -1 1370.96   46.40
   2  10  -1 1556.94   44.80
   2 -10   1 1274.57   44.80
   2  10  -1 1374.96   44.50
  -2  10   1 1385.66   45.20
  -2  10  -1 1363.06   44.40
  -2 -10   1 1380.36   44.70
   2  10   1 1510.85   44.70
   2  10   1 1357.46   46.40
  -3  10   1    2.90    2.40
   3  10  -1    6.80    3.40
  -3 -10  -1    4.70    2.70
  -3 -10  -1   -1.30    2.40
  -3  10   1    0.90    1.90
   3  10  -1    4.50    2.90
  -3 -10   1    6.60    3.20
  -3  10  -1    2.00    2.40
  -3  10  -1    4.40    2.40
   3  10   1    2.90    2.90
   3  10   1    3.90    3.30
   3  10   1    6.50    3.50
   4  10  -1 1554.64   50.49
   4  10  -1 1471.55   48.00
  -4 -10  -1 1489.25   48.70
   4  10  -1 1500.15   49.20
  -4  10   1 1463.65   44.90
  -4  10   1 1399.66   46.00
  -4 -10  -1 1484.75   48.40
   4  10   1 1462.95   48.50
  -4 -10   1 1456.35   48.50
   4  10   1 1630.44   51.39
   4  10   1 1428.96   49.00
  -4 -10   1 1541.35   48.60
  -4  10  -1 1428.56   46.10
  -4  10  -1 1483.85   43.80
  -5 -10  -1  710.73   29.60
   5  10  -1  751.72   29.90
  -5  10   1  700.53   25.70
  -5  10   1  717.13   27.40
  -5 -10  -1  723.13   29.80
   5  10  -1  687.33   28.10
  -5 -10   1  747.43   29.70
   5  10   1  723.63   29.70
  -5  10  -1  739.13   25.10
  -5  10  -1  714.73   27.10
   6  10  -1   15.20    5.20
  -6  10   1   11.90    3.60
  -6 -10  -1    4.40    3.10
  -6 -10  -1    9.40    4.50
  -6  10   1    4.70    3.30
   6 -10  -1   13.50    2.30
  -6 -10   1   13.60    4.60
   6  10   1   20.60    6.50
  -6  10  -1    9.90    3.10
   7  10  -1    2.00    3.40
  -7  10   1    0.80    3.40
   7 -10   1   -1.70    2.50
  -7  10   1    1.70    2.50
  -7 -10  -1   -1.60    3.00
  -7 -10  -1    3.10    4.40
  -7  10  -1   -0.50    2.50
   7 -10  -1    0.00    1.90
  -7 -10   1    1.40    3.80
   7  10   1    5.10    4.00
  -7  10  -1    1.70    3.50
   8 -10   1  118.79    7.10
   8  10  -1  105.09   10.70
  -8 -10  -1  117.99   12.80
  -8  10   1  113.69    9.50
  -8 -10  -1  112.59   11.90
  -8  10   1  119.79   10.50
  -8 -10   1  107.49   11.80
  -8  10  -1  122.59   10.90
   8  10   1   82.89   11.50
  -8  10  -1  123.69    9.40
   8 -10  -1  114.49    7.90
   9  10  -1   12.50    5.80
  -9 -10  -1   10.20    6.20
  -9  10   1   10.10    4.60
  -9  10   1   10.40    4.70
   9 -10   1   10.80    3.90
  -9 -10  -1   12.60    5.60
  -9  10  -1    8.00    4.00
   9  10   1   11.50    6.10
  -9 -10   1   13.60    5.50
  -9  10  -1   13.80    5.20
   9 -10  -1   14.30    4.50
  10  10  -1  107.99   12.20
 -10 -10  -1  120.99   18.50
 -10 -10  -1   98.39   16.00
 -10  10  -1  140.49   17.60
 -10  10  -1  149.79   12.70
 -10 -10   1  132.19   13.60
  10  10   1  122.09   13.10
   0 -11   1    0.00    1.60
   0  11  -1   -3.60    1.80
   0  11  -1    2.40    1.60
   0  11   1   -2.30    1.30
   0  11   1    3.20    3.10
   0 -11  -1   -0.10    2.20
   0 -11  -1   -0.40    1.30
  -1 -11  -1  416.96   21.30
  -1 -11  -1  353.66   15.10
   1 -11   1  381.56   16.90
  -1  11   1  364.46   18.60
   1  11  -1  400.06   15.90
   1  11  -1  369.36   19.20
   1  11   1  370.46   15.60
  -1  11  -1  364.56   18.50
   1  11   1  344.47   19.10
   1 -11  -1  368.06   12.10
   1 -11  -1  367.46   17.30
  -1 -11   1  362.46   17.40
   2  11  -1  326.67   18.40
   2  11  -1  362.06   16.50
  -2 -11  -1  345.67   15.70
  -2 -11  -1  354.46   17.80
   2 -11   1  346.07   16.00
  -2  11   1  355.66   18.00
  -2  11  -1  352.06   17.80
   2  11   1  314.07   18.10
   2  11   1  342.57   16.50
  -2 -11   1  312.87   16.80
  -3  11   1   21.00    4.80
  -3 -11  -1   21.00    5.40
   3  11  -1   15.50    5.20
  -3  11   1   13.70    4.00
  -3 -11  -1   19.70    4.90
   3  11  -1   10.30    3.50
  -3  11  -1   16.70    4.70
   3  11   1   24.30    5.50
   3  11   1    9.50    3.50
   3  11   1   10.40    4.50
  -3 -11   1   14.50    4.30
   4  11  -1  114.49   10.70
  -4  11   1   97.59    8.40
   4  11  -1  116.69   10.10
  -4 -11  -1  110.99   10.50
  -4  11   1  100.39    9.20
  -4 -11  -1  107.39    9.80
  -4 -11   1  102.69   10.00
  -4  11  -1  102.99    8.00
  -4  11  -1   89.29    8.60
   4  11   1  112.19   10.60
  -5 -11  -1   33.70    7.20
  -5 -11  -1   25.10    6.20
  -5  11   1   20.40    4.90
  -5  11   1   26.40    4.90
   5  11  -1   25.80    6.00
  -5 -11   1   38.50    7.40
   5  11   1   29.30    6.50
  -5  11  -1   24.00    4.60
  -5  11  -1   25.20    5.40
   6  11  -1   -3.10    2.60
  -6  11   1    2.10    2.30
  -6  11   1    0.00    3.30
  -6 -11  -1    4.90    3.80
  -6 -11  -1    1.70    3.30
  -6 -11   1   -2.50    3.10
   6  11   1    0.70    3.70
  -6  11  -1    5.90    2.90
  -6  11  -1    0.70    3.00
  -7 -11  -1  204.78   16.00
  -7  11   1  178.48   12.00
  -7  11   1  208.08   13.80
  -7 -11  -1  212.48   16.50
   7  11  -1  186.68   14.40
  -7  11  -1  197.78   11.90
   7 -11  -1  204.48    7.60
  -7 -11   1  212.58   15.80
   7 -11  -1  200.38    7.40
   7  11   1  196.88   15.10
  -7  11  -1  198.48   13.50
   8  11  -1   52.69    9.60
  -8  11   1   54.19    8.40
  -8  11   1   66.29    7.90
  -8 -11  -1   55.69   10.40
  -8 -11  -1   47.90    9.00
   8 -11   1   46.90    3.60
  -8  11  -1   50.79    7.10
   8 -11  -1   56.89    4.90
   8  11   1   54.39    9.50
  -8  11  -1   52.39    8.30
  -8 -11   1   37.70    8.00
  -9 -11  -1    6.40    5.60
  -9  11   1    2.30    3.70
  -9  11   1   -2.20    3.50
  -9 -11  -1    9.00    4.70
   9  11  -1    1.20    4.70
  -9 -11   1    3.30    4.50
   9  11   1    3.30    6.80
  -9  11  -1    1.30    6.60
  -9  11  -1    3.10    3.20
   0  12   1  133.89   11.30
   0 -12   1  142.09   10.30
   0  12  -1  122.29    6.70
   0 -12  -1  147.89   11.70
   0  12  -1  119.19   10.60
   0 -12  -1  133.79    7.30
   0  12   1  129.19    7.40
  -1 -12  -1   47.00    5.40
   1 -12   1   35.80    5.70
  -1 -12  -1   39.10    5.90
  -1  12   1   54.19    8.20
   1  12  -1   37.40    7.00
   1  12  -1   55.69    5.40
   1 -12  -1   44.40    7.20
  -1 -12   1   52.49    6.60
   1  12   1   41.20    7.40
   1  12   1   41.20    5.10
  -1  12  -1   36.00    6.60
   2 -12   1  413.16   18.30
  -2 -12  -1  392.26   19.70
   2  12  -1  381.36   21.10
  -2 -12  -1  408.76   17.80
   2  12  -1  419.26   18.30
  -2  12   1  381.16   19.90
   2  12   1  428.96   18.50
   2  12   1  389.56   21.20
   2 -12  -1  409.96   19.00
  -2  12  -1  366.16   19.20
   3  12  -1    0.40    3.30
  -3 -12  -1    6.10    3.60
  -3 -12  -1    4.40    3.40
  -3  12   1    2.40    3.20
   3  12  -1    0.70    3.10
   3  12   1    4.20    3.90
   3  12   1    2.60    3.00
  -3  12  -1    5.60    3.80
  -3 -12   1    5.80    3.60
  -4 -12  -1  260.77   16.80
  -4  12   1  292.17   15.00
  -4 -12  -1  297.87   16.40
   4  12  -1  292.17   18.30
   4  12  -1  300.87   16.80
  -4  12   1  279.27   18.50
   4  12   1  243.08   25.30
  -4 -12   1  291.77   17.50
  -5  12   1   97.29    8.80
  -5  12   1   83.59    9.00
  -5 -12  -1  105.09   10.60
  -5 -12  -1   98.59   10.90
   5  12  -1  123.09   11.50
  -5  12  -1  102.09    8.50
  -5 -12   1  121.29   11.80
   5  12   1   95.59   10.50
  -5  12  -1   93.09    9.30
   6  12  -1   12.20    5.30
  -6 -12  -1    9.50    5.00
  -6  12   1   16.80    4.40
  -6  12   1   28.90    6.50
  -6  12  -1   30.40    6.50
   6  12   1    6.60    5.10
  -6  12  -1   13.90    4.00
  -6 -12   1   24.00    6.70
  -7 -12  -1    0.10    4.00
   7  12  -1    0.80    4.40
  -7 -12  -1    1.40    4.30
  -7  12   1    1.20    3.50
  -7  12   1   -0.90    2.80
   7  12   1   -3.60    3.90
  -7  12  -1    3.10    3.70
  -7 -12   1    0.40    4.10
  -7  12  -1    5.90    3.50
  -8  12   1   38.30    7.50
  -8 -12  -1   51.49    9.60
  -8  12   1   38.50    6.50
   8  12  -1   34.80    8.70
  -8 -12  -1   38.60    8.60
  -8 -12   1   52.89    9.70
  -8  12  -1   44.30    6.90
   8  12   1   46.10    9.40
  -8  12  -1   41.10    8.10
  -9  12   1   18.40    5.80
   9  12  -1   13.00    9.10
  -9  12   1   13.10    5.80
  -9 -12  -1    8.20    6.30
  -9 -12  -1   12.60    5.90
   9  12   1   13.50    5.70
  -9  12  -1    9.40    5.00
  -9 -12   1   20.70    8.00
  -9  12  -1   14.90    4.50
   0 -13  -1   -2.00    1.60
   0 -13   1   -2.20    2.50
   0  13   1    0.10    1.70
   0  13   1    1.00    3.40
   0  13  -1    1.00    1.80
   0 -13  -1    2.20    2.60
   0  13  -1   -2.20    2.70
   1 -13   1 1354.76   44.00
  -1  13   1 1359.16   47.30
  -1 -13  -1 1351.86   40.60
  -1 -13  -1 1398.96   46.00
   1  13  -1 1357.36   48.10
   1  13  -1 1370.16   40.90
   1  13   1 1304.67   41.10
   1  13   1 1407.86   49.00
  -1 -13   1 1370.76   48.10
  -1  13  -1 1350.66   46.70
   1 -13  -1 1350.06   44.90
  -2 -13  -1  281.77   16.60
  -2  13   1  246.78   18.00
   2  13  -1  256.07   17.40
   2 -13   1  279.97   14.90
   2  13  -1  250.97   13.80
  -2 -13  -1  263.97   13.60
   2  13   1  239.88   20.00
  -2  13  -1  284.97   19.80
   2 -13  -1  282.87   15.60
  -2 -13   1  268.97   16.00
  -3 -13  -1   79.59    8.00
  -3 -13  -1   78.09    9.10
   3 -13   1   86.89    8.30
   3  13  -1   73.89    8.20
  -3  13   1   61.39    9.00
   3  13  -1   78.99   13.30
  -3  13  -1   58.29    8.60
  -3 -13   1   74.39    9.10
   3  13   1   74.39    8.30
   3  13   1   63.89   10.00
   4  13  -1   84.09   10.30
  -4 -13  -1   62.89    9.50
  -4 -13  -1   64.39    7.80
  -4  13   1   53.69    7.50
  -4  13   1   66.49    8.10
  -4 -13   1   64.99    9.10
   4  13   1   47.50    8.90
  -4  13  -1   59.69    8.70
  -5  13   1  314.97   18.00
   5  13  -1  329.17   20.50
  -5 -13  -1  343.07   19.10
  -5 -13  -1  305.57   19.30
  -5  13   1  292.87   16.30
   5  13   1  300.37   20.10
  -5  13  -1  340.17   16.30
  -5  13  -1  296.47   17.60
  -5 -13   1  345.77   20.00
  -6 -13  -1   -0.60    4.30
  -6 -13  -1    2.50    4.10
   6  13  -1    4.20    5.10
  -6  13   1    6.30    4.20
  -6  13   1    2.10    3.30
  -6 -13   1    4.80    4.50
  -6  13  -1    1.60    3.40
   6  13   1   -1.70    3.40
  -6  13  -1    1.30    3.00
  -7 -13  -1  451.95   25.00
  -7  13   1  392.26   21.40
  -7 -13  -1  432.06   23.80
   7  13  -1  415.56   24.20
  -7  13   1  422.46   20.40
   7  13   1  407.76   24.40
  -7 -13   1  373.26   23.10
  -7  13  -1  381.26   21.20
  -7  13  -1  422.76   19.50
  -8  13   1   90.39   10.70
  -8 -13  -1   83.09   12.50
  -8  13   1   67.49    9.90
  -8 -13  -1  109.19   13.00
  -8  13  -1   84.89   13.00
   8  13   1   95.39   19.40
  -8 -13   1  101.99   13.90
   0  14   1   42.70    8.60
   0 -14  -1   42.30    7.20
   0  14  -1   25.80    3.50
   0  14  -1   40.80    7.60
   0  14   1   31.50    4.20
  -1 -14  -1  109.29   10.30
  -1 -14  -1   95.89    7.30
  -1  14   1   89.99   10.30
   1  14  -1   98.69   10.80
   1 -14   1  100.69    9.40
   1  14  -1   98.89    7.20
  -1 -14   1   93.29    9.70
   1  14   1   90.39    7.40
  -1  14  -1   92.29   10.00
   1 -14  -1   90.39    9.10
   1  14   1   94.49   11.10
   2 -14   1   21.60    4.90
  -2  14   1   18.00    5.60
   2  14  -1   11.60    5.50
  -2 -14  -1   17.80    4.20
  -2 -14  -1   20.70    5.90
   2 -14  -1   19.10    5.10
  -2  14  -1   13.30    5.30
  -2 -14   1   13.90    4.50
   2  14   1   15.30    6.30
  -3 -14  -1   27.30    5.40
  -3 -14  -1   24.80    6.20
   3  14  -1   32.90    7.80
   3 -14   1   24.50    5.30
  -3  14   1   35.70    7.10
  -3  14  -1   22.20    5.70
   3 -14  -1   35.50    6.70
  -3 -14   1   26.70    6.60
   3  14   1   21.70    6.90
   4  14  -1   43.90    9.10
  -4  14   1   33.00    7.10
  -4 -14  -1   37.60    6.60
  -4 -14  -1   43.80    8.70
   4  14   1   23.70    7.40
  -4  14  -1   26.60    6.60
  -4 -14   1   35.20    7.20
   5  14  -1  105.19   12.40
  -5 -14  -1   86.69   10.00
  -5  14   1   88.79   10.20
  -5  14   1   81.29    9.20
  -5  14  -1   94.49   10.20
   5  14   1   72.09   12.00
  -5 -14   1   89.29   11.20
  -6  14   1    5.00    3.80
  -6  14   1    0.80    3.40
  -6 -14  -1    1.60    4.50
  -6 -14  -1    6.60    5.10
   6  14  -1   -1.80    4.40
  -6 -14   1   10.50    6.20
  -6  14  -1    3.20    4.20
  -6  14  -1   -0.60    3.30
   6  14   1   -3.40    4.40
  -7 -14  -1   -2.20    3.80
   7  14  -1   -8.10    4.10
  -7 -14  -1   -0.20    4.60
  -7  14   1    4.50    5.60
  -7  14   1    1.80    3.50
  -7  14  -1   -1.30    3.40
   7  14   1   -0.50    4.40
  -7  14  -1    1.60    3.30
  -7 -14   1    5.40    5.30
   0  15   1    0.20    4.00
   0 -15   1    0.60    3.40
   0  15  -1   -3.40    4.20
   0 -15  -1   -2.80    2.90
  -1 -15  -1  500.75   24.20
  -1  15   1  507.05   25.90
   1  15  -1  512.55   19.00
   1  15  -1  477.55   25.60
   1 -15   1  547.65   23.70
   1 -15  -1  538.85   24.20
  -1 -15   1  550.94   24.60
  -1  15  -1  450.25   24.50
   1  15   1  497.25   19.70
   1  15   1  524.75   27.00
   2  15  -1  103.49    9.80
   2  15  -1  102.79   11.60
  -2  15   1   98.29   11.10
  -2 -15  -1  127.49   11.70
   2 -15   1  101.99   11.70
   2 -15  -1  118.39   10.90
  -2  15  -1  110.29   11.70
   2  15   1   90.59    8.60
  -2 -15   1  117.39   11.10
   2  15   1   88.09   12.60
  -3 -15  -1   74.49   11.10
  -3  15   1   43.20    8.00
   3  15  -1   59.89   10.70
  -3 -15  -1   51.69    7.30
   3  15   1   71.39   11.40
  -3  15  -1   39.00    8.10
   3 -15  -1   56.69    8.40
  -3 -15   1   63.19    9.70
  -4 -15  -1   27.30    6.80
   4  15  -1   29.70    8.10
   4 -15   1   20.80    5.30
  -4 -15  -1   19.40    5.70
  -4  15   1   33.50    7.40
  -4  15  -1   18.50    5.90
   4  15   1   23.00    8.20
  -4 -15   1   28.10    6.90
  -5 -15  -1  196.58   14.80
  -5 -15  -1  187.88   16.10
   5  15  -1  157.18   15.60
  -5  15   1  189.48   15.30
  -5  15  -1  179.08   15.00
   5  15   1  199.48   17.80
  -5 -15   1  212.98   16.70
  -6  15   1    2.80    4.20
  -6  15   1    1.10    3.40
  -6 -15  -1   -2.10    4.40
   6  15   1   -3.10    4.60
  -6  15  -1   -4.20    4.20
  -6 -15   1    3.90    5.00
  -7 -15  -1  113.99   13.50
  -7  15   1  133.39   13.20
   7  15  -1  125.29   15.40
  -7  15  -1  122.79   10.80
  -7  15  -1   94.69   11.10
  -7 -15   1  121.89   14.30
   7  15   1   94.89   14.00
   0  16   1   54.49    9.80
   0  16   1   52.39    5.00
   0  16  -1   62.19   10.20
   0 -16  -1   70.49   10.00
   0 -16   1   63.19    8.60
   0  16  -1   67.59    4.40
   1  16  -1   57.39    5.70
   1  16  -1   63.09   10.30
  -1 -16  -1   72.79   10.30
   1 -16   1   68.89    9.60
  -1  16   1   45.30    8.60
   1  16   1   54.49    6.10
  -1 -16   1   56.99    8.80
   1  16   1   51.39   10.00
   1 -16  -1   74.69    9.20
  -1  16  -1   47.20    9.10
  -2  16   1  239.78   17.40
   2 -16   1  260.67   15.80
   2  16  -1  231.38   18.10
  -2 -16  -1  256.57   17.30
   2  16  -1  244.38   18.70
   2  16   1  227.18   17.90
  -2  16  -1  234.18   16.90
   2 -16  -1  239.58   15.90
  -2 -16   1  245.98   16.70
   2  16   1  220.38   13.10
  -3  16   1    3.90    4.20
   3 -16   1    7.10    3.70
   3  16  -1   -0.70    5.00
  -3 -16  -1    7.60    4.40
   3  16   1    5.80    5.50
  -3 -16   1    6.90    4.80
  -3  16  -1    5.70    4.40
   3 -16  -1   14.20    5.60
   4 -16   1  147.69   12.70
  -4  16   1  135.19   14.10
   4  16  -1  153.18   15.80
  -4 -16  -1  167.58   14.90
   4 -16  -1  167.78   14.10
  -4  16  -1  155.28   16.20
  -4 -16   1  139.99   14.20
   4  16   1  123.09   14.90
   5  16  -1   61.19   12.40
  -5 -16  -1   65.29   10.50
   5 -16   1   72.29   10.20
  -5 -16   1   57.19   10.60
  -6 -16  -1    8.50    5.70
  -6  16   1    6.90    5.70
   6  16  -1    7.20    7.00
  -6 -16   1   11.80    6.40
   6  16   1   15.10    7.80
  -6  16  -1    5.20    4.80
   0  17   1    0.40    4.90
   0 -17   1   -0.50    3.60
   0 -17  -1   -1.70    3.50
   0  17  -1    2.90    4.30
  -1  17   1   24.60    8.00
   1  17  -1   25.70    7.00
   1 -17   1   35.50    7.10
  -1 -17  -1   28.90    7.00
  -1 -17   1   24.70    6.80
   1  17   1   36.00   10.40
  -1  17  -1   13.70    5.90
   1 -17  -1   19.40    5.70
  -2 -17  -1    5.50    4.30
  -2  17   1    4.10    7.20
   2 -17   1    7.60    4.00
   2  17  -1    1.40    9.20
  -2 -17   1   -1.70    3.70
   2 -17  -1    5.90    3.90
   3 -17   1   40.90    7.60
  -3 -17  -1   49.90    9.60
   3  17  -1   58.99   11.30
  -3 -17   1   58.09    9.70
   3 -17  -1   53.09    8.50
  -4 -17  -1    7.40    5.40
  -4  17   1    7.30    5.70
   4 -17   1   -2.80    4.50
   4  17  -1   -2.00    6.00
   4  17   1  -13.60    5.20
   4 -17  -1   -1.70    4.20
  -4 -17   1    2.20    5.20
  -4  17  -1    0.60    4.30
   0  18  -1   27.90    7.50
   0 -18   1   29.40    7.50
   0 -18  -1   26.40    6.30
   0  18   1   29.70    8.80
   1  18  -1   19.60    7.30
  -1  18   1   25.90    8.10
   1 -18   1   18.60    6.00
  -1 -18   1   33.40    7.50
   1 -18  -1   21.90    6.50
  -1  18  -1   15.30    7.10
   1  18   1    6.00    5.90
  -2  18   1  130.09   13.50
   2 -18   1  167.38   14.00
   2  18  -1  154.88   15.80
  -2 -18  -1  154.68   14.70
   2  18   1  163.68   16.70
  -2  18  -1  138.59   13.80
   2 -18  -1  168.28   14.50
  -2 -18   1  151.28   14.20
   0   0  -2  900.61   23.00
   0   0  -2  906.71   22.40
   0   0   2  888.41   23.10
  -1   0  -2  939.21   25.00
  -1   0  -2  946.71   26.30
   1   0   2  963.70   26.30
   1   0   2  933.31   25.20
  -1   0   2  957.20   24.30
   1   0  -2  975.60   25.40
  -1   0   2  962.50   25.40
  -2   0   2 1573.54   39.70
   2   0  -2 1487.05   39.50
  -2   0  -2 1469.75   38.90
  -2   0  -2 1500.15   39.20
   2   0   2 1453.55   39.10
   2   0   2 1464.95   41.20
  -2   0  -2 1469.35   41.30
  -2   0   2 1499.95   38.40
  -3   0   2  228.28    9.10
   3   0   2  219.38   10.70
  -3   0  -2  266.07   11.90
   3   0   2  228.58    8.90
   3   0  -2  232.38   10.60
  -3   0  -2  252.37    8.80
  -3   0  -2  238.58    8.90
  -3   0   2  228.78    8.30
   3   0  -2  234.88    9.20
  -4   0  -2  118.39    8.50
   4   0   2  121.79    8.50
   4   0  -2  116.99    8.00
  -4   0   2  117.89    6.60
   4   0  -2  112.69    6.40
   4   0   2  108.09    6.20
  -4   0  -2  113.19    6.10
  -4   0  -2  114.09    6.20
  -4   0   2  113.89    5.70
   5   0   2  323.37   16.30
   5   0  -2  309.57   15.70
  -5   0  -2  325.87   12.70
  -5   0   2  334.67   13.50
   5   0  -2  320.67   13.10
  -5   0   2  324.97   12.20
  -5   0  -2  302.67   15.80
   5   0   2  306.37   12.90
   6   0  -2   16.80    4.70
   6   0  -2    7.80    2.50
   6   0   2   10.70    2.50
  -6   0  -2   13.20    3.00
  -6   0  -2    7.60    2.10
  -6   0   2   17.00    3.50
   6   0   2   15.60    5.40
  -6   0  -2   14.40    4.10
  -7   0  -2  258.07   16.20
   7   0  -2  246.58   22.90
  -7   0   2  270.17   12.30
  -7   0  -2  269.97   12.70
   7   0   2  246.48   16.50
  -7   0   2  253.97   13.10
  -8   0  -2  251.97   12.90
  -8   0  -2  248.48   16.90
  -8   0   2  232.88   13.40
  -9   0   2  411.56   26.10
  -9   0  -2  433.06   23.90
 -10   0   2   -1.40    2.30
 -10   0  -2   -0.70    3.70
 -10   0  -2    0.70    2.70
 -11   0  -2    4.10    5.60
 -11   0  -2    0.80    2.70
 -11   0   2    3.90    3.50
 -12   0   2   -2.40    3.40
 -12   0  -2    1.00    3.40
   0  -1  -2   -0.40    0.30
   0   1   2    1.30    0.60
   0  -1  -2    3.80    0.90
   0   1   2    0.00    0.40
   0   1  -2   -0.10    0.20
   0   1  -2    0.60    0.30
   0   1   2    0.40    0.30
  -1   1   2 2346.27   58.09
   1  -1   2 2169.78   56.39
   1  -1   2 2266.27   57.89
   1   1  -2 2248.08   57.39
  -1  -1  -2 2251.47   58.19
   1   1  -2 2241.18   56.79
  -1  -1  -2 2264.37   57.49
  -1  -1  -2 2272.67   58.89
  -1   1   2 2309.67   56.99
  -1  -1   2 2299.27   57.59
   1   1   2 2303.17   59.09
   1  -1  -2 2181.98   57.79
  -1  -1   2 2245.58   56.79
   1   1   2 2286.17   57.59
  -1   1  -2 2366.66   59.09
  -1   1  -2 2322.67   56.29
   1   1   2 2262.87   58.39
  -2  -1  -2   -3.20    1.10
   2  -1   2    1.70    1.50
  -2   1   2   -4.90    0.60
  -2  -1  -2   -3.70    0.80
   2   1  -2   -5.00    0.50
   2  -1   2   -2.20    0.80
  -2  -1  -2   -3.10    0.90
   2   1  -2   -4.30    0.60
  -2  -1   2   -2.00    0.80
  -2   1  -2   -3.60    0.60
  -2  -1   2   -4.70    0.60
   2   1   2   -2.80    0.90
   2  -1  -2   -4.60    0.60
  -2   1  -2   -2.90    1.00
  -3  -1  -2 1550.44   41.10
   3   1  -2 1547.45   41.30
   3   1  -2 1540.55   40.40
   3  -1   2 1526.45   43.20
  -3  -1  -2 1512.25   45.00
  -3  -1  -2 1555.24   41.00
  -3   1   2 1531.85   41.30
   3   1  -2 1555.54   44.00
   3  -1   2 1474.75   40.40
  -3  -1   2 1513.25   40.20
  -3   1  -2 1475.95   43.70
   3  -1  -2 1506.05   41.10
  -3   1  -2 1540.35   40.10
  -3  -1   2 1495.75   41.40
   3   1   2 1452.55   44.60
   3   1   2 1508.65   41.00
   3   1   2 1528.55   41.50
   4  -1   2   15.40    3.30
  -4  -1  -2   20.20    4.10
  -4  -1  -2   16.90    2.60
   4   1  -2   27.40    4.70
   4  -1   2   25.00    2.80
   4   1  -2   26.40    3.10
  -4  -1  -2   31.60    3.30
  -4   1   2   24.80    3.50
   4   1   2   25.10    3.40
   4   1   2   23.50    3.00
   4  -1  -2   22.20    3.90
  -4  -1   2   28.80    2.80
  -4   1  -2   24.30    4.40
   4   1   2   16.60    3.90
   4  -1  -2   27.20    3.10
  -4   1  -2   21.80    2.50
  -5  -1  -2  548.65   18.90
   5  -1   2  547.35   19.00
  -5  -1  -2  552.74   23.40
  -5  -1  -2  571.24   19.30
   5  -1   2  567.94   22.60
   5   1  -2  578.04   23.50
  -5   1   2  556.54   18.40
   5   1  -2  549.95   19.60
  -5   1   2  547.75   19.40
   5  -1  -2  544.05   22.30
  -5   1  -2  563.64   18.50
   5   1   2  532.75   23.40
  -5   1  -2  577.34   19.20
  -5  -1   2  577.04   20.00
   5  -1  -2  559.84   19.50
  -5   1  -2  533.85   22.30
  -5  -1   2  570.24   18.50
   5   1   2  562.64   19.80
  -6  -1  -2   78.59    8.40
   6  -1   2   57.99    7.20
   6  -1   2   64.99    5.60
  -6  -1  -2   73.19    5.80
  -6   1   2   72.79    6.00
   6   1  -2   74.29    8.40
  -6  -1  -2   66.19    5.80
  -6  -1   2   71.69    6.20
  -6   1  -2   68.59   10.10
   6  -1  -2   65.79    5.90
  -6   1  -2   69.19    5.60
  -6   1  -2   65.09    5.40
   6   1   2   66.19    6.00
  -7  -1  -2  135.49   12.10
   7  -1   2  144.59   11.90
  -7   1   2  149.39    8.90
  -7  -1  -2  155.28    9.60
  -7   1   2  167.58    9.90
  -7  -1   2  156.98   10.10
  -7   1  -2  170.98   12.50
   7  -1  -2  148.79   12.50
  -7  -1   2  146.79    8.90
  -7   1  -2  167.98    9.40
  -8   1   2    3.60    2.20
  -8  -1  -2   -1.40    3.40
  -8  -1  -2    0.10    1.60
  -8   1  -2    1.80    3.40
  -8   1  -2    3.60    2.50
  -8  -1   2    3.90    2.90
  -9  -1  -2   73.49   10.80
  -9  -1  -2   70.09   10.90
  -9   1  -2   70.69   10.60
  -9  -1   2   74.59   10.80
 -10  -1  -2   -1.60    2.30
 -10  -1  -2   -2.00    4.80
 -10   1   2   -4.20    2.40
 -10  -1   2   -0.30    2.50
 -10   1  -2    0.60    4.00
 -10   1  -2    3.10    3.30
 -11  -1  -2    6.70    3.60
 -11   1   2   19.80    5.60
 -11  -1  -2   17.00    6.90
 -11   1  -2   16.60    4.70
 -11  -1   2   17.00    5.00
 -12   1   2    3.90    3.90
 -12  -1  -2   10.00    4.90
 -12  -1   2    3.20    3.90
 -12   1  -2    8.80    4.40
   0  -2  -2  628.54   17.50
   0  -2  -2  634.34   18.00
   0   2   2  631.34   18.60
   0   2   2  614.94   17.90
   0   2  -2  620.74   17.40
   0  -2  -2  615.84   17.60
   0   2   2  595.94   17.60
   0   2  -2  602.64   16.10
   0  -2   2  611.94   17.10
   1  -2   2   34.30    2.10
  -1  -2  -2   39.40    2.90
  -1   2   2   39.10    2.60
  -1  -2  -2   33.30    2.30
   1   2  -2   36.30    2.20
   1  -2   2   39.10    1.50
  -1  -2  -2   36.90    2.90
  -1   2   2   39.30    2.40
   1   2   2   34.80    2.40
  -1  -2   2   36.60    2.30
   1  -2  -2   31.90    2.40
  -1   2  -2   34.80    2.20
  -1   2  -2   37.20    2.20
  -1   2  -2   36.30    1.40
  -1  -2   2   35.20    2.20
   1  -2  -2   41.20    2.40
   1   2   2   40.90    3.10
  -2  -2  -2  424.96   13.80
  -2  -2  -2  414.66   15.20
   2  -2   2  423.66   11.90
   2   2  -2  431.06   13.20
   2  -2   2  416.46   13.00
   2   2  -2  412.06   12.60
  -2   2   2  401.76   13.20
  -2   2   2  410.66   12.60
  -2  -2  -2  425.26   13.20
   2  -2  -2  405.26   13.20
  -2   2  -2  424.96   11.70
  -2   2  -2  398.76   13.40
  -2  -2   2  443.56   13.50
   2   2   2  409.06   13.90
  -2  -2   2  419.86   12.60
   2   2   2  369.36   15.00
   2   2   2  410.36   13.20
  -3  -2  -2  134.49    6.70
   3   2  -2  141.59    6.10
   3   2  -2  129.89    7.90
  -3  -2  -2  118.69    8.20
   3  -2   2  129.39    5.60
  -3   2   2  134.09    6.40
  -3  -2  -2  133.69    6.30
   3   2  -2  132.69    6.50
   3  -2  -2  126.69    6.30
  -3  -2   2  137.39    6.70
   3   2   2  130.69    6.40
  -3   2  -2  131.19    5.40
   3   2   2  123.09    6.60
  -3   2  -2  128.49    7.30
   3   2   2  116.29    8.20
  -4  -2  -2  180.48    8.60
   4  -2   2  178.08    9.60
   4   2  -2  177.38   10.60
   4  -2   2  187.98    8.00
  -4  -2  -2  160.18   10.70
  -4  -2  -2  185.18    8.40
   4   2  -2  154.28    8.10
   4   2  -2  185.38    8.10
  -4   2  -2  173.38    9.80
   4   2   2  186.78    8.60
  -4  -2   2  172.48    8.70
   4  -2  -2  178.78    9.70
   4   2   2  176.18    8.80
  -4   2  -2  184.88    7.60
   4  -2  -2  185.98    8.50
   4   2   2  161.98   10.90
  -4  -2   2  191.78    8.00
  -5  -2  -2   41.80    4.10
   5  -2   2   41.60    5.10
  -5  -2  -2   30.30    5.70
  -5  -2  -2   45.60    4.70
   5  -2   2   37.80    3.90
   5   2  -2   51.59    6.20
   5   2  -2   42.10    4.20
  -5   2   2   37.40    4.20
   5  -2  -2   39.50    4.20
  -5  -2   2   40.40    4.50
   5   2   2   34.60    6.00
   5   2   2   43.40    4.50
   5   2   2   44.80    4.80
  -5   2  -2   32.90    5.20
  -5   2  -2   43.00    3.80
  -5  -2   2   47.30    4.00
   5  -2  -2   38.70    5.60
  -6  -2  -2   82.39    6.20
  -6  -2  -2   94.59    6.90
   6  -2   2   80.19    7.90
   6  -2   2   84.69    6.30
  -6   2   2   82.79    6.40
   6   2  -2   91.39    9.00
  -6  -2  -2   75.79    8.50
  -6  -2   2   95.99    7.20
  -6   2  -2   87.49    8.10
   6  -2  -2   95.89    8.60
   6  -2  -2   75.29    6.20
   6   2   2   86.19    9.00
  -6  -2   2   86.59    6.20
  -6   2  -2   82.69    6.00
   6   2   2   86.99    7.10
  -6   2  -2   82.69    6.10
  -7   2   2   49.30    5.50
   7  -2   2   51.39    8.00
  -7  -2  -2   44.30    8.20
  -7  -2  -2   31.50    4.70
  -7  -2   2   55.69    5.40
   7  -2  -2   47.50    7.80
  -7  -2   2   49.40    5.90
  -7   2  -2   56.39    7.30
  -7   2  -2   44.30    5.00
  -8  -2  -2   75.99    9.90
  -8  -2  -2   93.99    8.00
  -8   2   2   89.79    7.90
  -8   2  -2   88.29    7.40
  -8   2  -2   86.69    9.40
  -8  -2   2   83.59    8.30
  -9  -2  -2   40.50    8.70
  -9   2   2   36.30    6.00
  -9  -2  -2   33.80    6.20
  -9  -2   2   38.70    7.70
  -9   2  -2   41.20    8.00
 -10  -2  -2   14.60    5.60
 -10  -2  -2    6.40    3.80
 -10   2   2    8.10    3.50
 -10   2  -2   13.60    4.20
 -10   2  -2   18.80    6.80
 -10  -2   2   12.00    4.60
 -11  -2  -2    2.30    4.70
 -11   2   2   -0.50    3.20
 -11  -2  -2   -0.40    3.00
 -11   2  -2    2.40    3.50
 -11  -2   2    7.70    4.20
 -12   2   2    3.10    3.60
 -12  -2  -2   -2.50    3.50
 -12   2  -2   -0.30    3.00
 -12  -2   2    9.60    4.70
   0  -3  -2   -3.50    0.60
   0   3   2   -2.60    1.00
   0   3  -2   -2.80    0.80
   0   3  -2   -3.40    0.50
   0  -3   2   -3.90    0.60
   0   3   2   -3.00    0.80
   0   3   2   -4.30    0.50
   0  -3  -2    0.50    1.20
  -1   3   2 3589.34   88.89
  -1  -3  -2 3555.24   89.69
  -1   3   2 3611.64   88.89
   1   3  -2 3537.75   88.79
  -1  -3  -2 3223.78   89.69
   1  -3   2 3549.24   86.69
   1   3  -2 3482.05   87.99
   1  -3   2 3658.83   88.69
   1  -3  -2 3427.56   87.59
   1   3   2 3569.24   89.09
  -1  -3   2 3338.67   87.99
  -1  -3   2 3485.75   88.59
   1  -3  -2 3470.45   88.99
  -1   3  -2 3542.75   88.29
   1  -3  -2 3549.74   88.69
  -1   3  -2 3419.06   86.99
   1   3   2 3232.38   89.79
  -2  -3  -2  501.65   16.20
  -2  -3  -2  517.25   18.50
  -2   3   2  521.45   15.90
   2   3  -2  515.55   16.20
   2  -3   2  515.55   14.90
   2   3  -2  545.65   18.10
  -2   3   2  516.05   16.30
  -2  -3  -2  529.25   17.30
   2   3  -2  533.95   16.20
  -2   3  -2  531.85   14.50
   2  -3  -2  501.65   16.30
   2   3   2  487.65   17.20
   2   3   2  523.65   16.60
  -2  -3   2  546.75   16.60
   2   3   2  489.65   18.70
  -2  -3   2  521.75   16.00
   3  -3   2 8425.06  205.28
  -3  -3  -2 8344.17  210.38
   3   3  -2 8371.16  209.18
   3  -3   2 8280.67  203.98
   3   3   2 7841.42  210.58
   3  -3  -2 8106.09  205.58
  -3   3  -2 8385.26  206.58
   3   3   2 8027.30  206.88
  -4   3   2   35.90    3.60
  -4  -3  -2   34.10    3.60
   4  -3   2   28.50    3.50
   4  -3   2   33.40    3.20
   4   3  -2   32.40    3.70
  -4  -3  -2   29.00    3.70
  -4  -3  -2   24.70    4.80
   4   3  -2   26.70    4.70
   4   3  -2   39.10    3.70
   4  -3  -2   40.50    4.30
  -4  -3   2   35.60    3.90
   4  -3  -2   26.40    3.20
  -4   3  -2   36.30    4.10
   4   3   2   31.80    5.80
   4   3   2   36.60    3.80
   4   3   2   38.20    4.10
  -4   3  -2   31.60    2.90
  -4  -3   2   34.10    3.30
   5  -3   2 2320.57   63.79
  -5  -3  -2 2135.49   67.79
  -5   3   2 2326.87   62.19
   5   3  -2 2197.08   61.09
  -5  -3  -2 2287.77   63.69
   5  -3   2 2171.98   60.59
   5  -3  -2 2192.68   64.19
   5   3   2 2273.57   65.99
  -5   3  -2 2258.27   59.89
   5  -3  -2 2243.18   64.09
  -5   3  -2 2249.68   63.79
  -5  -3   2 2213.28   60.69
   5   3   2 2267.17   62.39
  -5  -3   2 2350.16   63.09
  -6  -3  -2  113.79    8.10
   6  -3   2  114.09    8.80
   6  -3   2  110.69    7.10
  -6  -3  -2  109.99   10.20
   6   3  -2   90.99    9.80
   6   3  -2  125.89    7.80
  -6  -3  -2   96.89    7.10
  -6   3   2  118.79    7.70
   6  -3  -2  100.49    7.30
  -6  -3   2  120.89    8.40
   6   3   2  108.49    8.00
   6   3   2  108.39   10.50
   6   3   2  115.99    7.90
  -6   3  -2  106.59    8.50
   6  -3  -2  114.79    9.20
  -6   3  -2  114.99    6.80
  -7  -3  -2  191.58   14.70
  -7  -3  -2  217.58   11.90
   7  -3   2  177.58   12.60
  -7   3   2  204.58   11.10
  -7   3  -2  201.18   10.20
  -7   3  -2  177.58   12.00
   7  -3  -2  183.78   13.30
  -7  -3   2  196.68   11.80
   7   3   2  199.98   11.40
  -8   3   2   29.00    4.80
  -8  -3  -2   35.10    6.10
  -8  -3  -2   37.60    8.20
  -8   3  -2   41.70    5.20
  -8  -3   2   41.70    6.50
  -8   3  -2   43.20    7.60
  -9  -3  -2  636.84   32.20
  -9  -3  -2  647.84   26.30
  -9   3   2  636.74   25.50
  -9   3  -2  664.83   25.90
  -9   3  -2  641.14   28.20
 -10  -3  -2    7.30    3.40
 -10   3   2    7.40    3.60
 -10  -3  -2   -0.70    3.80
 -10  -3   2    5.10    3.80
 -10   3  -2    7.90    3.40
 -11   3   2  210.88   14.50
 -11  -3  -2  219.88   19.20
 -11   3  -2  210.58   13.50
 -11  -3   2  211.48   15.40
 -12   3   2   23.00    6.70
 -12  -3  -2   26.30    6.90
 -12   3  -2   27.60    6.20
 -12  -3   2   21.60    6.10
   0   4   2 2606.24   70.29
   0   4   2 2748.43   70.39
   0  -4   2 2545.75   69.59
   0  -4   2 2612.64   68.19
   0  -4  -2 2640.34   68.39
   0   4  -2 2774.72   70.29
   0  -4  -2 2662.23   70.29
   0  -4  -2 2752.92   70.49
   0   4   2 2649.03   68.79
  -1  -4  -2   64.29    4.50
  -1  -4  -2   61.69    4.30
   1   4  -2   66.09    4.40
   1   4  -2   63.49    3.90
   1   4  -2   67.39    4.60
  -1   4   2   64.19    4.50
  -1  -4  -2   63.69    4.90
  -1   4   2   68.39    4.40
   1  -4   2   72.99    4.50
   1  -4  -2   67.69    4.50
   1   4   2   67.89    5.10
   1  -4  -2   56.79    3.30
  -1  -4   2   73.99    4.70
   1   4   2   53.69    4.30
  -1   4  -2   62.89    4.10
  -1  -4   2   62.59    4.00
   1  -4  -2   60.89    4.30
  -1   4  -2   59.79    2.80
   1   4   2   69.89    5.00
   2   4  -2   89.39    6.00
  -2   4   2   89.69    5.20
  -2  -4  -2   97.79    5.50
   2   4  -2   77.69    5.00
   2  -4   2   86.69    3.60
  -2  -4  -2   83.89    5.80
  -2  -4  -2   84.09    6.20
   2  -4   2   85.49    4.00
   2   4  -2   90.29    5.20
  -2   4   2   78.99    4.90
   2   4   2   97.59    6.20
  -2  -4   2   84.99    5.20
  -2   4  -2   93.39    5.10
   2  -4  -2   94.19    5.40
   2  -4  -2   88.69    5.20
  -2   4  -2   88.89    4.20
  -2   4  -2   86.29    3.90
  -2  -4   2   91.99    5.20
   2   4   2   98.59    6.90
   2   4   2   91.89    5.60
   3  -4   2   -0.40    0.70
  -3   4   2    2.80    1.30
  -3   4   2   -0.60    1.00
  -3  -4  -2    0.70    1.30
   3   4  -2    0.00    1.50
  -3  -4  -2   -1.00    1.60
   3   4  -2   -0.50    0.90
  -3  -4  -2    0.20    0.90
  -3   4  -2    1.00    0.80
  -3   4  -2    2.90    1.40
  -3   4  -2    2.80    1.30
  -3  -4   2    0.80    1.00
   3   4   2   -0.60    1.80
  -3  -4   2   -0.30    1.10
   3   4   2    2.90    1.50
   3   4   2    2.00    1.30
   3  -4  -2   -0.20    0.80
   4   4  -2  383.56   14.90
   4   4  -2  385.36   17.50
   4  -4   2  389.26   13.90
   4  -4   2  354.26   12.90
  -4  -4  -2  406.06   15.70
  -4   4   2  384.26   14.10
  -4   4   2  384.66   14.30
  -4  -4  -2  371.36   17.90
   4   4  -2  362.06   14.10
  -4  -4  -2  367.96   14.20
   4   4   2  361.96   15.30
  -4   4  -2  388.16   14.60
  -4   4  -2  401.96   12.90
  -4  -4   2  357.46   13.60
   4   4   2  369.66   14.70
   4  -4  -2  363.16   14.70
   4  -4  -2  358.86   14.10
  -4  -4   2  376.56   15.10
   4   4   2  386.66   18.60
  -5  -4  -2   52.49    5.50
  -5  -4  -2   55.39    6.90
   5  -4   2   51.79    4.50
   5   4  -2   45.70    8.30
   5   4  -2   55.29    5.10
   5   4  -2   53.09    5.10
  -5  -4  -2   83.29    8.80
   5  -4   2   58.09    5.50
  -5   4   2   54.39    5.00
  -5   4  -2   51.59    5.20
  -5  -4   2   59.69    5.70
   5   4   2   56.49    5.80
  -5  -4   2   52.59    4.70
   5  -4  -2   53.69    5.70
   5  -4  -2   59.49    6.60
   5   4   2   49.80    5.20
  -5   4  -2   55.19    5.00
  -6  -4  -2  486.25   19.30
  -6   4   2  448.36   17.80
   6   4  -2  469.65   18.10
   6  -4   2  447.86   17.30
   6   4  -2  423.46   20.50
   6  -4   2  487.35   19.40
  -6  -4   2  451.85   17.30
   6   4   2  443.86   19.20
  -6  -4   2  472.15   19.40
   6   4   2  454.65   18.50
  -6   4  -2  464.75   18.90
  -6   4  -2  476.95   16.70
   6  -4  -2  478.55   20.40
  -7  -4  -2    8.00    4.40
   7   4  -2    3.20    2.30
   7  -4   2   17.10    4.50
  -7   4   2   10.90    3.00
  -7  -4  -2    5.90    3.00
   7  -4  -2   15.40    5.40
  -7   4  -2    7.90    2.40
  -7   4  -2   13.00    4.70
   7   4   2    6.00    2.80
  -7  -4   2   11.60    3.40
  -8  -4  -2    1.80    2.20
  -8  -4  -2   -0.10    2.90
  -8   4   2    2.60    2.60
   8  -4   2    3.00    3.50
  -8   4  -2    2.40    2.00
   8   4   2    2.50    2.70
  -8   4  -2    2.30    3.30
  -8  -4   2    2.10    2.40
  -9  -4  -2    7.60    3.40
  -9  -4  -2   13.10    6.50
  -9   4   2    7.70    3.80
  -9  -4   2    5.00    3.50
  -9   4  -2    6.30    3.00
 -10  -4  -2   34.20    6.50
 -10   4   2   35.40    6.60
 -10  -4  -2   29.20    9.00
 -10   4  -2   42.50    6.40
 -10  -4   2   41.90    7.40
 -11  -4  -2   -1.50    2.70
 -11   4   2   -0.90    3.00
 -11  -4  -2    5.80    6.60
 -11   4  -2    0.40    3.10
 -11  -4   2   -0.20    3.20
 -12   4   2   14.90    5.20
 -12  -4  -2   12.10    4.60
 -12   4  -2   15.80    5.00
 -12  -4   2   10.70    5.20
   0  -5   2   -0.50    0.80
   0   5   2    0.50    0.90
   0  -5  -2   -0.30    0.90
   0   5  -2    0.50    1.10
   0   5   2    0.90    1.10
   0   5  -2    1.00    0.70
   0  -5  -2   -0.30    0.80
   0  -5  -2    0.90    1.00
   0  -5   2    4.70    1.70
   0  -5  -2    3.50    1.10
   1   5  -2 1892.61   53.49
  -1  -5  -2 1772.02   53.69
   1   5  -2 1993.90   52.09
   1   5  -2 2012.50   57.99
  -1   5   2 1930.21   53.59
  -1  -5  -2 1950.80   53.19
   1  -5   2 2010.90   53.09
  -1  -5  -2 1936.91   52.99
   1  -5   2 1938.91   50.99
  -1   5   2 1990.00   52.89
   1   5   2 1854.41   53.39
   1   5   2 1973.40   53.89
   1  -5  -2 1979.40   50.19
  -1  -5   2 2023.70   52.49
   1  -5  -2 1979.70   53.09
  -1  -5   2 1885.81   53.09
  -1   5  -2 1935.21   52.59
   1   5   2 1898.01   54.69
   1  -5  -2 1977.00   53.39
   2  -5   2  202.48    9.20
   2  -5   2  211.78    7.90
  -2  -5  -2  201.38   10.20
  -2  -5  -2  203.18    9.30
  -2  -5  -2  194.68   10.40
  -2   5   2  206.08    9.10
   2   5  -2  211.28    9.60
   2   5  -2  221.88   10.30
   2   5  -2  199.88    8.90
  -2   5   2  212.08    9.40
   2   5   2  208.98   10.40
   2  -5  -2  220.78    9.50
  -2  -5   2  205.08    9.30
   2  -5  -2  189.68    9.00
   2   5   2  200.58    9.70
  -2   5  -2  207.98    7.60
  -2  -5   2  214.08    9.30
  -2   5  -2  209.58    9.10
  -2   5  -2  213.78    6.90
   2   5   2  208.08   11.00
  -3  -5  -2 2896.51   78.39
   3   5  -2 2922.71   77.09
   3   5  -2 2970.10   80.19
  -3  -5  -2 2859.61   80.49
  -3  -5  -2 2893.21   76.89
   3  -5   2 2960.50   73.19
  -3   5   2 2822.42   76.19
   3   5  -2 2917.31   76.99
   3  -5   2 2824.72   74.49
  -3   5   2 2951.70   76.39
  -3  -5   2 2902.71   77.49
   3   5   2 2837.62   77.49
   3   5   2 2809.62   81.49
   3  -5  -2 2960.00   76.89
  -3   5  -2 2943.81   74.49
  -3   5  -2 2929.91   74.19
  -3   5  -2 2870.61   76.39
  -3  -5   2 2960.70   76.49
   3   5   2 2796.42   78.39
  -4   5   2  136.99    7.60
   4  -5   2  136.79    6.90
   4   5  -2  155.08   10.60
  -4   5   2  141.79    8.90
  -4  -5  -2  128.59    8.50
   4  -5   2  132.79    6.70
   4   5  -2  141.89    8.00
   4   5  -2  124.29    7.80
  -4  -5  -2  132.39   10.00
  -4  -5  -2  127.59    7.50
   4  -5  -2  137.99    7.70
   4   5   2  116.39    8.10
   4   5   2  149.49    9.90
  -4  -5   2  145.29    7.60
  -4  -5   2  135.19    8.30
   4   5   2  125.79   10.20
  -4   5  -2  124.99    6.70
  -4   5  -2  141.89    6.60
  -4   5  -2  132.79    7.80
   4  -5  -2  126.99    7.50
   5  -5   2 1227.28   35.60
   5   5  -2 1223.28   42.10
  -5  -5  -2 1212.08   42.00
  -5   5   2 1186.58   36.10
  -5   5   2 1248.88   36.40
   5   5  -2 1159.48   37.10
  -5  -5  -2 1179.18   36.50
  -5  -5  -2 1262.27   38.40
   5  -5   2 1147.09   35.00
   5   5  -2 1209.48   36.90
   5  -5  -2 1178.78   36.50
  -5  -5   2 1217.28   38.00
   5   5   2 1239.88   43.70
   5   5   2 1191.28   37.50
  -5   5  -2 1208.38   35.80
   5  -5  -2 1185.48   37.20
   5   5   2 1209.18   40.20
  -5   5  -2 1229.58   34.60
  -5   5  -2 1195.28   36.40
   6   5  -2   18.40    4.10
  -6  -5  -2   17.70    3.80
  -6   5   2   15.00    3.60
   6  -5   2   15.00    3.80
  -6  -5  -2   21.40    5.50
  -6   5   2   16.30    3.30
   6   5  -2   15.50    3.80
   6  -5   2   20.70    3.90
   6  -5  -2   17.40    4.10
   6   5   2   15.70    3.70
  -6  -5   2   24.10    4.60
  -6   5  -2   15.40    2.90
  -6   5  -2   14.00    3.50
  -6  -5   2   16.70    3.50
  -7   5   2  278.87   13.60
   7  -5   2  256.27   13.90
  -7  -5  -2  291.27   18.40
  -7  -5  -2  291.67   15.10
   7   5  -2  264.17   13.80
  -7   5   2  284.37   13.70
  -7  -5   2  266.77   14.90
  -7   5  -2  256.77   12.00
   7   5   2  244.68   13.70
  -7   5  -2  257.27   13.40
  -8   5   2    8.30    3.40
   8  -5   2   15.60    4.50
  -8  -5  -2   10.10    3.40
   8   5  -2    7.30    3.70
  -8  -5  -2    6.50    5.00
   8   5   2   11.80    3.80
  -8  -5   2   12.80    4.50
   8  -5  -2   12.80    4.80
  -8   5  -2    8.90    3.10
  -9   5   2  251.47   14.20
  -9  -5  -2  221.98   14.80
  -9  -5  -2  255.07   19.30
  -9  -5   2  263.77   16.10
   9   5   2  215.48   14.50
  -9   5  -2  235.18   12.70
 -10  -5  -2   13.00    7.20
 -10   5   2   11.90    4.40
 -10  -5  -2   12.20    4.80
 -10   5  -2    8.50    3.70
 -10  -5   2   11.50    4.40
 -11  -5  -2   56.69   11.90
 -11  -5  -2   73.99   18.70
 -11  -5   2   44.50    7.70
 -11   5  -2   65.79    8.00
   0   6  -2 3257.17   81.99
   0  -6  -2 2980.10   85.19
   0   6  -2 3432.56   86.29
   0  -6  -2 3303.07   85.99
   0  -6   2 3302.97   85.49
   0   6   2 2993.30   84.69
   0  -6  -2 3229.78   82.79
   0   6   2 3135.79   86.19
   0  -6  -2 3239.18   85.69
  -1   6   2  652.23   21.30
   1  -6   2  595.84   19.50
  -1   6   2  670.63   22.60
   1   6  -2  656.93   20.70
   1   6  -2  644.94   20.60
   1  -6   2  653.43   21.70
  -1  -6  -2  636.34   21.10
   1   6  -2  618.34   22.00
  -1  -6  -2  616.44   21.50
  -1  -6  -2  593.14   22.00
  -1  -6  -2  601.44   22.00
   1   6   2  644.84   21.60
  -1   6  -2  639.94   17.20
   1  -6  -2  638.74   21.60
   1  -6  -2  637.44   18.30
   1   6   2  610.84   22.10
  -1  -6   2  652.43   22.00
   1  -6  -2  614.84   21.60
  -1   6  -2  650.83   21.30
  -1  -6   2  639.54   20.90
  -2   6   2    6.90    1.90
  -2   6   2    3.10    1.70
  -2  -6  -2    1.90    1.40
   2   6  -2    8.60    2.40
  -2  -6  -2    2.00    1.60
   2  -6   2    6.90    2.30
   2   6  -2    6.70    2.30
  -2  -6  -2    4.30    2.10
   2   6  -2    3.40    1.40
   2  -6   2    2.50    1.30
  -2  -6   2    6.80    2.00
   2  -6  -2    1.90    1.40
   2   6   2    5.20    2.00
  -2  -6   2    2.20    1.50
   2   6   2    4.80    2.30
   2  -6  -2    1.40    0.90
  -2   6  -2    5.70    2.00
  -2   6  -2    2.20    1.20
   2   6   2   13.60    3.60
   2  -6  -2    4.20    1.80
   3   6  -2  291.57   13.00
   3  -6   2  290.67    8.60
  -3  -6  -2  290.57   14.70
   3   6  -2  306.77   14.60
  -3   6   2  296.17   12.10
  -3  -6  -2  291.97   12.50
   3  -6   2  294.87   11.00
  -3   6   2  284.47   12.20
   3   6  -2  288.57   12.50
  -3  -6   2  302.27   13.20
  -3   6  -2  288.87    9.00
   3   6   2  275.67   13.00
   3  -6  -2  280.87   12.40
   3   6   2  277.97   13.50
  -3   6  -2  298.07   10.60
   3   6   2  294.87   15.40
   3  -6  -2  315.47   12.80
  -3  -6   2  299.57   12.40
  -3   6  -2  283.17   12.10
   4   6  -2  328.47   14.40
  -4  -6  -2  325.37   17.80
   4  -6   2  329.97   12.50
  -4  -6  -2  352.06   17.60
   4  -6   2  333.27   11.00
  -4   6   2  337.17   15.60
   4   6  -2  325.07   14.30
   4   6  -2  338.67   16.80
  -4   6   2  356.06   13.90
  -4   6  -2  339.77   12.10
  -4   6  -2  332.57   11.40
   4   6   2  326.37   14.70
  -4  -6   2  333.47   13.80
   4  -6  -2  330.47   12.90
   4  -6  -2  295.77   17.90
  -4  -6   2  320.47   14.60
  -4   6  -2  329.17   13.80
   4   6   2  328.67   15.30
   5   6  -2   34.40    5.20
  -5  -6  -2   31.30    4.80
   5   6  -2   40.20    7.00
   5  -6   2   35.60    3.90
  -5  -6  -2   39.70    4.60
  -5  -6  -2   49.40    8.00
   5   6  -2   38.00    5.50
  -5   6   2   24.90    3.80
   5  -6   2   36.60    3.60
  -5   6   2   41.40    4.80
   5   6   2   39.70    5.90
   5   6   2   46.40    5.40
  -5  -6   2   26.70    4.00
  -5  -6   2   29.90    6.00
  -5   6  -2   38.00    3.80
   5  -6  -2   30.10    4.30
  -5   6  -2   31.80    4.80
   5  -6  -2   33.10    4.90
   5   6   2   39.50    7.30
  -5   6  -2   33.20    3.60
  -6  -6  -2  652.73   24.80
   6   6  -2  592.34   22.90
  -6  -6  -2  634.54   28.10
  -6   6   2  590.84   22.20
  -6   6   2  610.34   22.30
   6   6  -2  587.64   23.30
   6  -6   2  619.34   21.20
  -6   6  -2  577.54   20.80
  -6   6  -2  620.74   22.70
  -6   6  -2  621.44   20.80
   6   6   2  606.64   23.80
  -6  -6   2  619.54   24.30
   6  -6  -2  578.84   22.80
  -7  -6  -2  216.58   13.50
   7   6  -2  222.58   12.80
  -7  -6  -2  231.68   16.40
  -7   6   2  202.98   12.00
   7  -6   2  228.28   12.10
  -7   6   2  218.38   12.00
  -7   6  -2  210.08   10.70
   7   6   2  210.68   13.10
   7  -6  -2  239.28   13.50
  -7   6  -2  222.58   12.50
  -7  -6   2  220.58   13.70
  -8   6   2   48.40    6.70
  -8  -6  -2   58.89    8.50
   8   6  -2   40.40    6.60
   8  -6  -2   66.79    8.20
  -8  -6   2   36.70    6.10
  -8   6  -2   60.79    6.10
  -9  -6  -2  199.28   17.40
   9   6  -2  157.58   12.40
  -9   6   2  183.28   12.30
  -9  -6  -2  189.28   13.70
  -9   6   2  176.18   11.90
   9   6   2  183.18   13.40
  -9   6  -2  168.08   10.80
  -9  -6   2  159.88   12.80
 -10  -6  -2   38.60    7.70
 -10  -6  -2   60.09   11.20
 -10   6   2   42.10    6.30
 -10   6   2   49.00    7.50
 -10   6  -2   52.59    7.10
 -10  -6   2   42.00    7.00
 -11   6   2    1.70    3.30
 -11  -6  -2  -11.00    5.00
 -11  -6  -2    6.70    4.50
 -11   6   2    3.80    3.80
 -11  -6   2   -5.30    2.70
 -11   6  -2    3.10    3.30
   0  -7  -2   -3.70    1.10
   0  -7   2   -1.10    1.30
   0  -7  -2   -2.80    1.20
   0  -7  -2   -3.70    1.10
   0   7   2   -1.90    1.10
   0   7   2   -4.00    1.00
   0   7  -2   -1.40    1.80
   0  -7   2   -2.00    1.30
   0  -7  -2   -3.20    0.80
   1   7  -2   51.99    5.60
  -1  -7  -2   74.19    6.40
  -1   7   2   64.69    5.50
   1   7  -2   66.79    5.30
  -1  -7  -2   62.39    5.30
   1   7  -2   72.09    5.50
  -1  -7  -2   61.49    5.80
   1  -7   2   75.79    6.10
   1  -7   2   56.39    4.60
   1  -7   2   64.09    5.80
  -1  -7  -2   64.49    5.70
   1  -7  -2   66.19    3.90
  -1  -7   2   59.79    5.20
   1   7   2   67.49    5.60
  -1   7  -2   69.99    5.90
   1  -7  -2   58.09    5.40
  -1   7  -2   71.09    3.30
   1  -7  -2   72.19    6.00
   1   7   2   64.69    6.10
   2   7  -2 1850.31   52.09
  -2   7   2 1856.81   51.89
   2  -7   2 1873.61   53.19
   2   7  -2 1914.31   53.49
   2   7  -2 1873.61   53.99
  -2  -7  -2 1866.81   52.89
   2  -7   2 1888.81   50.49
  -2  -7  -2 1782.32   53.49
  -2   7   2 1837.72   52.89
  -2  -7  -2 1740.73   53.69
  -2   7  -2 1832.42   52.19
   2  -7  -2 1882.81   53.19
  -2  -7   2 1887.51   52.89
   2  -7  -2 1845.12   52.69
   2   7   2 1876.11   54.09
   2   7   2 1885.31   54.79
   2  -7  -2 1845.12   47.80
   2   7   2 1796.72   54.39
  -2  -7   2 1839.42   52.69
   3   7  -2  225.58   11.10
  -3   7   2  225.48   10.60
   3   7  -2  258.87   13.20
   3  -7   2  209.68    9.40
  -3  -7  -2  220.88   12.60
  -3  -7  -2  209.28   10.90
  -3  -7  -2  215.88   12.10
   3   7  -2  220.08   11.60
   3  -7  -2  211.58   10.80
   3   7   2  231.88   13.60
  -3  -7   2  222.08   11.50
  -3  -7   2  219.78   10.80
   3  -7  -2  217.48   11.30
   3   7   2  221.68   11.90
  -3   7  -2  203.98   10.40
   3   7   2  212.68   12.00
   3  -7  -2  219.88    7.90
  -3   7  -2  238.28    9.40
   4   7  -2  376.36   16.20
   4   7  -2  391.26   18.90
  -4   7   2  340.87   14.60
   4  -7   2  340.87   13.60
   4   7  -2  338.67   15.40
  -4  -7  -2  366.96   15.50
  -4   7   2  369.16   15.20
  -4  -7  -2  374.96   16.90
   4  -7   2  373.06   10.90
  -4  -7  -2  361.06   18.00
  -4   7  -2  353.36   15.00
   4   7   2  368.26   16.90
   4   7   2  381.16   16.70
  -4  -7   2  364.76   16.30
   4  -7  -2  339.07   15.10
  -4   7  -2  366.76   14.90
   4  -7  -2  384.06   14.20
  -5  -7  -2    7.00    3.40
  -5   7   2    7.50    2.90
   5  -7   2    7.20    2.10
   5   7  -2    4.00    2.30
   5   7  -2    5.50    2.30
  -5   7   2    5.70    2.50
  -5  -7  -2    4.40    2.70
   5   7  -2    8.40    3.70
  -5  -7   2   16.20    3.40
  -5   7  -2    4.60    1.80
  -5   7  -2    4.60    2.50
   5  -7  -2    5.70    2.20
   5   7   2   12.30    3.70
  -5  -7   2    4.10    2.50
   5   7   2    5.40    3.00
   6  -7   2   25.20    3.70
   6   7  -2   27.20    5.20
  -6   7   2   25.00    4.50
  -6  -7  -2   27.50    6.40
  -6   7   2   18.40    4.10
   6   7  -2   27.00    5.20
  -6  -7  -2   24.50    5.10
  -6   7  -2   25.70    4.80
  -6  -7   2   27.00    5.10
   6   7   2   29.50    5.60
  -6   7  -2   30.30    4.30
   6  -7  -2   34.50    5.20
  -7   7   2   19.40    3.90
  -7   7   2   18.20    4.50
  -7  -7  -2   24.70    7.10
  -7  -7  -2   17.30    4.70
   7  -7   2   26.90    4.40
   7   7  -2   24.30    5.10
   7  -7  -2   16.20    4.60
  -7   7  -2   15.50    3.40
   7   7   2   17.60    4.60
  -7  -7   2   13.60    4.30
  -7   7  -2   16.10    4.20
   8  -7   2  212.28   12.40
  -8  -7  -2  229.68   15.10
  -8   7   2  214.88   15.10
  -8   7   2  235.88   13.40
  -8  -7  -2  242.48   17.90
   8   7  -2  212.18   13.70
  -8   7  -2  241.28   12.20
  -8  -7   2  232.58   15.30
  -8   7  -2  197.98   12.80
   8  -7  -2  222.18   14.20
   8   7   2  239.08   15.00
   9  -7   2   18.20    4.90
  -9  -7  -2    8.40    4.50
  -9  -7  -2   24.10    7.30
   9   7  -2   16.80    5.40
  -9   7   2   12.90    4.10
  -9   7   2   17.20    5.00
   9   7   2   18.30    5.40
  -9   7  -2   19.20    4.50
  -9   7  -2   17.40    5.40
  -9  -7   2   23.80    6.60
 -10   7   2   11.10    4.30
 -10  -7  -2   15.70    6.80
 -10   7   2   15.60    5.20
 -10  -7  -2    5.80    3.40
  10   7  -2   14.60    5.40
 -10   7  -2    8.80    3.80
  10   7   2   15.20    5.10
 -10  -7   2   14.60    6.10
 -10   7  -2   13.00    4.10
 -11  -7  -2    5.30    4.40
 -11  -7  -2   11.80    7.00
 -11   7   2    8.20    6.00
 -11   7   2    4.10    3.60
 -11   7  -2    5.30    5.60
 -11   7  -2   13.40    5.00
   0  -8  -2  492.35   16.70
   0  -8   2  481.95   19.20
   0  -8  -2  494.65   19.30
   0   8  -2  480.45   19.50
   0  -8  -2  470.15   19.00
   0  -8  -2  443.56   24.40
   0  -8   2  467.55   17.70
   0   8   2  464.25   16.50
   0   8  -2  483.95   16.00
   0  -8   2  450.95   17.20
   1  -8   2  319.87   13.00
  -1   8   2  300.27   13.70
  -1  -8  -2  311.17   14.80
   1   8  -2  281.47   14.80
   1  -8   2  307.37   14.60
  -1   8   2  329.67   17.60
  -1  -8  -2  322.67   13.60
   1   8  -2  343.27   13.60
   1  -8   2  295.37   12.60
   1  -8  -2  309.77   16.40
  -1  -8   2  312.37   14.30
  -1  -8   2  299.07   13.60
   1   8   2  312.07   13.60
  -1   8  -2  325.47    9.60
   1   8   2  292.87   15.00
   1  -8  -2  311.27   11.00
   1  -8  -2  268.97   15.50
  -2   8   2   60.19    5.50
   2  -8   2   49.10    4.60
  -2   8   2   52.79    5.80
   2   8  -2   53.99    5.80
  -2  -8  -2   49.99    5.90
   2  -8   2   59.99    6.90
   2   8  -2   71.59    6.10
  -2  -8  -2   58.29    6.10
   2   8  -2   63.69    6.70
   2   8   2   55.39    6.20
  -2   8  -2   45.60    5.10
   2   8   2   67.59    6.60
   2  -8  -2   56.39    3.30
   2  -8  -2   54.59    5.90
   2   8   2   70.69    6.70
  -2  -8   2   56.19    5.80
   3   8  -2  115.59    8.70
   3   8  -2   94.69    7.30
  -3  -8  -2   98.09    8.40
   3   8  -2  102.89    8.40
   3  -8   2   91.99    7.40
   3  -8   2   97.89    7.40
  -3  -8  -2  108.79    9.30
  -3   8   2  108.79    7.30
  -3  -8  -2   94.99    7.20
  -3   8   2   93.69    7.30
   3  -8  -2  101.19    4.50
   3  -8  -2   94.39    7.40
   3   8   2  109.19    9.20
   3   8   2   95.39    8.20
   3   8   2  106.59    8.40
   3  -8  -2   92.39    7.40
  -3   8  -2   98.99    7.30
  -3  -8   2  100.59    7.90
  -4   8   2    3.70    2.30
   4  -8   2   12.60    2.80
   4   8  -2    0.20    1.80
  -4   8   2    3.00    2.20
  -4  -8  -2    1.40    2.80
  -4  -8  -2    7.10    3.60
   4   8  -2    2.60    2.50
   4   8  -2   -1.40    2.00
  -4   8  -2    1.90    2.30
   4   8   2    2.20    2.50
  -4  -8   2    4.40    2.40
  -4   8  -2    1.50    1.60
   4   8   2    6.00    3.60
   4  -8  -2    3.30    1.50
   4   8   2    3.40    3.30
   5  -8   2   48.30    3.10
   5   8  -2   46.80    7.40
  -5  -8  -2   46.60    7.80
  -5   8   2   53.79    5.80
   5   8  -2   57.29    6.60
  -5  -8  -2   55.99    7.00
  -5   8   2   47.30    5.50
   5  -8  -2   60.49    4.90
  -5   8  -2   48.80    4.70
   5   8   2   35.10    6.10
  -5  -8   2   58.49    6.90
  -5   8  -2   47.80    5.90
  -6  -8  -2  205.58   13.70
   6   8  -2  211.58   12.90
  -6   8   2  218.98   12.00
  -6  -8  -2  235.18   15.90
  -6   8   2  204.78   12.00
   6  -8   2  204.48    8.90
   6   8  -2  201.08   12.80
  -6  -8   2  236.08   14.20
   6   8   2  209.28   13.30
   6  -8  -2  223.18   11.10
  -6   8  -2  210.48   12.20
  -6   8  -2  226.38   10.90
  -7   8   2  137.49   10.10
  -7  -8  -2  123.89   10.90
   7   8  -2  133.39   10.90
   7  -8   2  143.29    8.10
  -7  -8  -2  144.19   13.60
  -7   8   2  132.59    9.70
  -7  -8   2  132.89   11.50
   7   8   2  128.69   10.90
  -7   8  -2  129.89   10.20
   7  -8  -2  137.09    9.30
  -7   8  -2  141.09    8.80
  -8   8   2   34.60    6.10
  -8  -8  -2   44.90    8.90
   8   8  -2   36.10    7.00
   8  -8   2   39.00    5.50
  -8  -8  -2   37.20    7.20
  -8   8   2   48.40    7.10
  -8  -8   2   37.70    7.90
   8   8   2   33.40    6.90
  -8   8  -2   41.90    7.00
  -8   8  -2   59.09    9.30
   8  -8  -2   53.39    8.20
   9  -8   2  124.79   10.10
  -9  -8  -2  139.89   14.90
  -9  -8  -2  117.19   11.70
   9   8  -2  142.39   11.70
  -9   8   2  121.49   10.80
  -9   8   2  128.19   10.50
   9  -8  -2  129.39   12.30
  -9   8  -2  113.99   10.20
  -9  -8   2  115.19   11.90
   9   8   2  120.99   11.80
  -9   8  -2  128.09    9.50
  10   8  -2   13.40    5.60
 -10   8   2    6.90    3.70
 -10  -8  -2    4.10    6.10
 -10   8   2   10.30    4.30
 -10  -8  -2   15.00    4.80
 -10  -8   2   14.90    5.50
 -10   8  -2    9.10    4.60
 -10   8  -2   11.80    3.90
  10   8   2    1.10    4.00
 -11  -8  -2   -5.50    3.70
 -11  -8  -2   -2.40    5.00
 -11   8   2    3.10    4.30
 -11   8   2    0.80    3.60
  11   8   2    0.10    4.50
 -11   8  -2    0.30    3.80
 -11  -8   2   -3.30    4.00
   0  -9   2   11.10    3.00
   0   9  -2    0.10    2.30
   0   9  -2    0.00    1.20
   0  -9   2    7.30    2.60
   0  -9  -2    0.30    1.90
   0  -9   2   -0.30    1.60
   0  -9  -2    4.30    2.60
   0   9   2   -2.40    1.80
   0   9   2   -0.50    1.30
   0  -9  -2    0.20    1.80
   0  -9  -2   -0.60    1.10
  -1  -9  -2 1201.08   40.10
  -1  -9  -2 1312.07   40.90
   1  -9   2 1192.98   39.90
  -1  -9  -2 1276.77   40.60
   1  -9   2 1205.38   37.60
  -1   9   2 1306.57   41.40
  -1  -9  -2 1238.08   38.10
   1  -9   2 1354.06   38.50
   1   9  -2 1287.27   38.10
   1   9  -2 1304.47   41.50
   1  -9  -2 1256.27   35.00
   1  -9  -2 1101.69   39.00
  -1   9  -2 1362.46   32.70
   1   9   2 1201.58   41.40
   1   9   2 1323.17   38.80
   1  -9  -2 1283.67   40.60
  -1   9  -2 1231.88   40.40
  -1  -9   2 1260.07   40.00
  -1  -9   2 1170.98   38.60
   2   9  -2 1366.86   42.40
   2  -9   2 1364.66   43.60
  -2   9   2 1413.96   42.20
   2   9  -2 1462.85   43.30
  -2  -9  -2 1327.97   42.80
  -2  -9  -2 1383.86   42.80
  -2  -9  -2 1387.06   47.70
  -2   9   2 1393.96   44.10
   2   9  -2 1349.07   44.60
   2   9   2 1463.15   44.10
  -2   9  -2 1423.26   43.00
   2  -9  -2 1274.47   42.40
   2  -9  -2 1323.17   43.40
   2   9   2 1334.27   44.70
  -2  -9   2 1390.46   43.20
  -2  -9   2 1420.56   43.50
   2  -9  -2 1409.56   36.80
   3   9  -2 2778.12   77.59
  -3   9   2 2658.73   75.39
  -3  -9  -2 2688.23   76.69
   3   9  -2 2689.53   75.29
   3  -9   2 2644.84   72.89
  -3  -9  -2 2673.53   77.49
  -3   9   2 2735.33   74.29
   3   9  -2 2720.13   77.49
  -3   9  -2 2665.23   74.79
  -3   9  -2 2698.13   72.09
   3   9   2 2652.23   77.99
   3   9   2 2754.32   77.99
  -3  -9   2 2583.84   74.89
  -3  -9   2 2699.93   76.39
   3  -9  -2 2656.33   67.99
  -4   9   2  735.33   26.70
  -4  -9  -2  755.42   29.00
   4   9  -2  725.43   28.30
   4   9  -2  730.33   27.10
   4   9  -2  806.92   30.40
  -4   9   2  743.83   25.90
  -4  -9  -2  735.23   29.10
   4  -9  -2  743.93   21.60
  -4   9  -2  749.82   24.00
  -4  -9   2  712.63   27.90
   4  -9  -2  738.73   20.70
   4   9   2  710.23   28.40
   4   9   2  792.22   31.50
  -4   9  -2  726.93   26.30
   4   9   2  687.33   28.30
  -5  -9  -2  767.32   29.70
  -5  -9  -2  736.63   30.20
  -5   9   2  689.83   26.30
   5   9  -2  721.63   28.40
  -5   9   2  718.13   25.90
   5  -9  -2  733.83   23.60
  -5  -9   2  795.22   29.50
   5   9   2  690.53   28.50
  -5   9  -2  681.13   26.10
  -5   9  -2  727.33   24.00
  -6   9   2  163.98   10.30
   6  -9   2  141.59    6.10
  -6  -9  -2  157.28   12.20
  -6  -9  -2  159.98   13.40
   6   9  -2  149.19   11.30
  -6   9   2  158.18   10.70
  -6   9  -2  144.39    8.80
   6  -9  -2  147.79    8.40
   6   9   2  130.69   10.90
  -6  -9   2  148.99   11.90
  -6   9  -2  148.39   10.40
  -7  -9  -2  143.79   12.40
   7   9  -2  136.09   11.30
  -7   9   2  149.09   10.40
   7  -9   2  138.19    7.20
   7   9   2  146.89   12.20
   7  -9  -2  135.09    8.90
  -7   9  -2  148.99    9.30
  -7  -9   2  127.69   11.70
  -7   9  -2  131.59   10.30
   8   9  -2  225.68   15.50
  -8   9   2  238.48   14.60
  -8   9   2  243.08   14.30
  -8  -9  -2  246.38   18.70
  -8  -9  -2  276.47   17.40
   8  -9   2  271.37   11.90
  -8   9  -2  264.57   15.50
   8   9   2  255.87   16.80
   8  -9  -2  231.08   13.20
  -8   9  -2  279.67   13.60
   9   9  -2  215.58   15.80
  -9  -9  -2  245.58   17.00
   9  -9   2  201.18   13.00
  -9   9   2  238.28   14.20
  -9  -9  -2  247.58   19.00
  -9   9   2  237.68   14.80
  -9   9  -2  197.38   14.00
  -9  -9   2  238.18   17.10
   9   9   2  209.58   15.80
  -9   9  -2  227.48   13.00
   9  -9  -2  223.08   14.10
  10   9  -2   20.30    6.10
 -10  -9  -2   12.30    5.50
 -10   9   2   18.00    6.00
 -10   9   2   10.40    4.90
 -10  -9  -2   18.10    7.40
 -10   9  -2   10.60    4.00
 -10  -9   2   18.70    6.30
  10   9   2   14.00    6.10
 -10   9  -2   21.30    6.50
   0 -10   2  635.74   27.20
   0 -10   2  601.54   22.70
   0  10   2  615.74   20.90
   0  10   2  609.64   25.50
   0  10  -2  617.34   25.00
   0 -10   2  670.43   23.50
   0 -10  -2  672.63   25.00
   0 -10  -2  580.54   20.70
  -1  10   2  107.99    9.20
   1 -10   2  108.89    7.50
  -1 -10  -2   91.89    7.00
   1  10  -2   94.09    7.10
   1  10  -2   71.09    7.60
   1 -10   2   88.89    7.10
   1 -10  -2   96.59    5.60
   1 -10  -2   88.69    7.90
   1  10   2   69.79    7.80
  -1 -10   2   88.29    7.60
  -1  10  -2   92.09    8.50
   1  10   2   96.79    7.30
   2 -10   2   61.49    5.70
  -2  10   2   29.80    5.20
  -2 -10  -2   43.30    5.60
  -2  10   2   34.80    6.00
   2 -10   2   34.60    5.00
   2  10  -2   39.10    5.80
   2  10  -2   42.10    7.10
  -2 -10  -2   39.90    6.10
   2  10  -2   46.30    5.70
   2 -10  -2   43.20    3.20
  -2 -10   2   49.00    7.10
   2  10   2   32.00    5.40
   2  10   2   37.40    6.60
  -2  10  -2   33.70    5.70
  -3 -10  -2   10.90    4.00
  -3  10   2    2.00    2.90
  -3 -10  -2    4.30    3.00
  -3  10   2    4.90    2.70
   3  10  -2    4.30    2.20
   3  10  -2    4.20    3.70
   3 -10  -2    3.50    1.10
  -3 -10   2    5.50    3.30
   3  10   2    5.40    3.50
   3  10   2    1.70    2.50
  -3  10  -2    3.50    2.70
  -4  10   2  139.99    9.60
  -4 -10  -2  146.49   11.50
   4  10  -2  126.49    9.70
  -4  10   2  135.59   10.10
  -4 -10  -2  150.68   11.60
   4  10  -2  134.29   11.40
   4  10  -2  142.69   11.50
  -4  10  -2  135.69    8.40
  -4 -10   2  135.59   10.90
   4  10   2  159.38   12.10
   4 -10  -2  142.79    5.60
  -4  10  -2  135.69    9.80
  -5 -10  -2  144.49   11.80
  -5 -10  -2  107.99   10.30
  -5  10   2  125.39   10.00
   5  10  -2  128.29   10.80
  -5  10   2  127.59    9.30
   5  10  -2  124.79    9.90
   5  10   2  137.99   11.70
   5 -10  -2  120.19    6.00
  -5 -10   2  119.49   10.70
  -5  10  -2  133.49    9.80
   5 -10  -2  126.09    5.40
  -5  10  -2  125.19    8.10
   6  10  -2   80.29    9.20
  -6 -10  -2   60.49    9.10
  -6 -10  -2   90.79    9.70
  -6  10   2   88.39    9.40
  -6  10   2   69.79    7.50
   6 -10  -2   70.79    5.20
  -6  10  -2   61.79    9.60
  -6 -10   2   71.09    9.70
  -6  10  -2   69.39    6.50
   6  10   2   54.49   10.00
  -7 -10  -2    3.20    3.80
   7  10  -2    1.70    3.60
  -7  10   2    1.30    2.90
  -7  10   2    0.90    2.30
  -7 -10  -2    4.90    4.20
   7 -10   2   -2.50    1.30
   7  10   2    0.70    3.50
  -7  10  -2    0.10    2.70
   7 -10  -2   -2.20    2.50
  -7 -10   2   -4.40    3.10
  -7  10  -2   -1.80    2.00
  -8 -10  -2   -0.40    3.80
  -8  10   2    6.20    3.20
   8  10  -2    1.90    4.20
  -8 -10  -2   -4.10    3.20
   8 -10   2   -3.90    2.20
  -8  10   2    1.30    3.20
   8 -10  -2    2.40    3.00
  -8 -10   2   -2.60    3.40
  -8  10  -2    0.80    3.20
  -8  10  -2   -0.90    2.30
   8  10   2   -2.00    3.20
  -9 -10  -2    2.50    5.30
  -9  10   2    6.80    4.60
  -9  10   2   12.50    4.90
  -9 -10  -2   11.10    4.60
   9 -10   2    3.10    3.50
   9  10  -2    4.70    4.40
   9  10   2    2.60    3.80
  -9 -10   2    8.30    5.30
  -9  10  -2    9.20    3.70
  -9  10  -2    6.20    3.70
   9 -10  -2   15.70    8.20
 -10  10   2   14.70    4.80
 -10 -10  -2   18.60    8.00
 -10 -10  -2   18.00    9.00
  10  10  -2    9.60    9.60
 -10  10  -2   13.40    4.60
 -10 -10   2   16.00    6.00
 -10  10  -2   23.70    6.00
  10  10   2   11.90    6.60
   0  11  -2   -1.10    2.20
   0  11  -2   -2.40    1.40
   0  11   2   -1.40    1.60
   0 -11   2    1.50    2.10
   0  11   2    0.70    2.50
   0 -11  -2   -2.20    1.30
   0 -11  -2    3.80    2.20
   1  11  -2  948.71   35.00
  -1  11   2  928.71   34.40
   1  11  -2  929.51   30.30
  -1 -11  -2  920.01   30.40
  -1 -11  -2 1010.30   34.40
   1 -11   2  955.50   31.60
  -1 -11   2  904.51   32.30
   1  11   2  909.31   35.30
  -1  11  -2  928.01   34.00
   1  11   2  956.90   31.10
   1 -11  -2  921.51   27.40
  -2 -11  -2  451.65   19.30
   2  11  -2  469.65   20.60
  -2  11   2  450.55   21.40
  -2 -11  -2  489.75   21.80
   2  11  -2  486.05   20.00
   2 -11   2  461.95   18.80
   2  11  -2  454.25   22.20
  -2 -11   2  436.06   20.30
   2  11   2  488.65   20.50
   2  11   2  426.56   22.00
   2 -11  -2  458.55   14.30
  -2  11  -2  435.56   20.70
  -3 -11  -2 2659.83   76.99
  -3  11   2 2642.94   77.99
  -3 -11  -2 2757.22   79.49
  -3  11   2 2654.13   75.69
   3  11  -2 2691.43   79.99
   3  11  -2 2606.44   76.89
   3  11   2 2668.93   80.39
   3  11   2 2637.24   79.89
   3  11   2 2811.62   79.39
  -3 -11   2 2696.53   78.09
  -3  11  -2 2616.44   76.79
  -4  11   2  227.18   13.10
   4  11  -2  244.28   15.90
  -4  11   2  249.88   14.50
  -4 -11  -2  265.27   15.50
  -4 -11  -2  244.98   15.70
   4  11   2  253.07   16.40
  -4  11  -2  264.07   14.70
  -4 -11   2  267.47   16.00
  -4  11  -2  250.07   12.30
  -5 -11  -2  563.74   25.80
   5  11  -2  598.44   26.60
  -5 -11  -2  553.04   26.10
  -5  11   2  612.84   23.50
   5  11  -2  578.24   24.80
  -5  11   2  527.35   23.60
  -5 -11   2  572.44   25.90
  -5  11  -2  580.54   21.50
  -6  11   2   27.40    5.40
  -6  11   2   22.50    5.30
   6  11  -2   16.00    5.40
  -6 -11  -2   20.90    6.00
  -6 -11  -2   27.40    6.80
   6 -11  -2   26.80    2.90
   6  11   2   25.00    6.10
  -6  11  -2   31.40    5.10
  -6  11  -2   22.90    5.30
   6 -11  -2   31.20    2.60
  -6 -11   2   29.20    6.50
  -7  11   2   63.29    9.00
  -7  11   2   63.79    7.70
   7  11  -2   62.39    9.50
  -7 -11  -2   73.99   11.30
  -7 -11  -2   46.20    9.10
   7 -11  -2   61.19    4.40
  -7 -11   2   50.29    8.60
   7 -11  -2   62.89    5.00
   7  11   2   48.50    8.90
  -7  11  -2   56.69    8.40
  -7  11  -2   63.99    6.80
  -8 -11  -2  128.09   13.70
  -8  11   2  135.29   11.00
   8  11  -2  136.69   13.20
  -8  11   2  103.29   10.60
  -8 -11  -2  142.29   13.70
   8  11   2  131.79   13.30
  -8  11  -2  127.09   11.20
   8 -11  -2  133.49    8.20
  -8  11  -2  141.39   10.10
  -8 -11   2  142.29   13.90
  -9 -11  -2  254.07   18.40
  -9  11   2  205.88   15.40
   9  11  -2  244.18   17.60
  -9  11   2  239.28   20.90
  -9 -11  -2  228.98   18.80
  -9  11  -2  224.88   15.30
   9  11   2  203.38   19.30
  -9  11  -2  246.68   13.90
  -9 -11   2  227.68   17.80
   0 -12  -2 1173.08   39.10
   0  12   2 1106.09   33.60
   0  12  -2 1132.79   40.30
   0 -12   2 1101.89   37.20
   0  12   2 1084.59   40.40
   0 -12  -2 1082.79   33.50
   0  12  -2 1138.79   32.30
  -1 -12  -2   79.49    8.70
   1 -12   2   83.29    7.60
  -1  12   2   87.29    9.40
   1  12  -2   80.29    9.20
  -1 -12  -2   71.79    6.40
   1  12  -2   88.89    6.80
   1 -12  -2   66.49    7.80
   1 -12  -2   87.09    5.30
   1  12   2   78.29    9.60
  -1 -12   2   92.49    8.70
   1  12   2   76.99    6.70
  -1  12  -2   66.49    9.10
   2  12  -2   49.40    8.60
  -2 -12  -2   47.10    6.00
   2 -12   2   42.80    6.10
   2  12  -2   57.39    6.40
  -2 -12  -2   37.80    6.30
  -2  12   2   33.50    6.60
  -2  12  -2   41.50    6.90
   2  12   2   37.20    7.90
  -2 -12   2   55.89    8.40
   2 -12  -2   51.19    7.80
   3  12  -2    9.70    4.10
  -3  12   2   11.40    3.90
  -3  12   2    6.00    3.60
   3  12  -2    9.60    3.90
  -3 -12  -2    8.70    4.20
  -3 -12  -2    5.10    3.50
   3  12  -2    8.60    3.20
  -3 -12   2   10.60    3.70
  -3  12  -2    7.00    3.50
   3  12   2   17.80    4.80
   3  12   2    0.40    3.50
  -4  12   2  124.49   10.80
  -4 -12  -2  112.19   10.90
   4  12  -2  116.79   12.50
  -4 -12  -2  105.89   10.10
  -4  12   2  114.79   10.30
   4  12  -2  122.09   11.60
   4  12   2  117.89   13.80
  -4 -12   2  116.59   11.20
  -5 -12  -2   32.00    6.70
   5  12  -2   31.20    7.40
  -5  12   2   28.90    5.40
  -5  12   2   37.70    6.70
  -5 -12  -2   39.80    7.40
  -5 -12   2   42.30    8.00
  -5  12  -2   30.90    6.10
  -5  12  -2   24.70    4.70
   5  12   2   31.80    7.60
   6  12  -2  400.96   22.60
  -6  12   2  438.86   19.90
  -6 -12  -2  415.86   22.80
  -6  12   2  376.96   19.90
  -6 -12  -2  386.56   22.40
   6  12   2  403.46   22.80
  -6  12  -2  413.06   20.60
  -6  12  -2  423.46   20.80
  -6 -12   2  417.86   22.70
  -7  12   2   19.10    4.60
  -7  12   2   20.10    5.50
  -7 -12  -2   23.20    6.10
  -7 -12  -2   29.70    7.70
   7  12  -2   10.20    5.40
  -7  12  -2   14.70    4.40
  -7  12  -2   21.60    5.80
   7  12   2   15.10    6.00
  -8 -12  -2    7.50    4.50
  -8  12   2    2.90    3.40
   8  12  -2    3.90    4.80
  -8 -12  -2    1.80    4.80
  -8  12   2   10.10    4.60
  -8  12  -2    4.30    3.70
   8  12   2    7.80    5.90
  -8  12  -2    2.10    3.50
  -8 -12   2   10.50    6.70
   8 -12  -2    1.80    2.00
  -9 -12  -2    8.00    7.30
  -9  12   2   11.10    5.90
  -9  12   2   19.40    5.90
  -9 -12  -2   15.10   11.40
   9  12  -2   10.10    5.40
  -9 -12   2   21.90    7.20
   9  12   2    8.10    6.00
  -9  12  -2   18.00    4.90
  -9  12  -2    8.90    4.90
   0 -13  -2    0.50    1.80
   0 -13  -2    0.60    2.90
   0  13   2   -3.10    2.70
   0  13  -2   -2.30    3.30
   0  13   2   -3.10    1.40
   0  13  -2   -2.20    1.50
   0 -13   2    1.60    2.50
  -1  13   2  182.98   13.90
   1 -13   2  188.58   12.10
  -1 -13  -2  198.48   10.90
  -1 -13  -2  203.48   13.70
   1  13  -2  194.68   10.60
   1  13  -2  173.18   14.00
  -1  13  -2  204.58   14.20
   1  13   2  186.28   14.60
   1 -13  -2  200.88    8.30
  -1 -13   2  199.98   13.00
   1  13   2  208.58   11.30
   1 -13  -2  218.08   13.70
  -2 -13  -2    8.70    3.20
  -2 -13  -2    9.20    4.30
   2  13  -2    7.50    4.90
  -2  13   2    9.50    7.00
   2 -13   2    6.50    2.80
   2  13  -2   13.60    4.00
   2 -13  -2    6.90    3.60
  -2  13  -2    2.40    3.00
   3  13  -2    8.50    4.00
   3 -13   2   14.70    3.90
   3  13  -2   12.70    4.80
  -3 -13  -2   21.40    5.80
  -3  13   2   17.00    5.20
  -3 -13  -2   10.90    4.10
  -3  13  -2   14.90    5.50
   3  13   2    9.50    5.50
  -3 -13   2   11.80    4.50
  -4  13   2    0.10    2.60
   4  13  -2    5.20    4.20
  -4 -13  -2   -0.30    3.00
   4  13  -2    3.90    3.60
  -4  13   2   -2.90    3.00
  -4 -13  -2    5.50    4.50
  -4  13  -2   -3.10    2.60
   4  13   2    0.40    3.90
  -4 -13   2    2.70    3.70
  -5  13   2   41.40    6.80
   5  13  -2   34.10    7.40
  -5 -13  -2   49.90    9.20
  -5 -13  -2   40.80    7.00
  -5  13   2   20.50    5.90
   5  13   2   23.80    7.00
  -5  13  -2   16.90    5.50
  -5 -13   2   27.70    6.80
  -6 -13  -2    0.20    3.90
  -6 -13  -2    3.80    4.50
   6  13  -2    3.00    5.00
  -6  13   2    2.60    3.50
  -6  13   2    6.40    5.10
  -6 -13   2    1.60    4.20
  -6  13  -2    6.60    3.30
  -6  13  -2    8.60    4.60
   6  13   2    3.00    4.60
  -7  13   2   69.79   10.40
   7  13  -2   65.79   10.90
  -7 -13  -2   72.49   11.40
  -7 -13  -2   75.99   11.30
  -7  13   2   84.09    9.60
   7  13   2   71.19   11.10
  -7  13  -2   99.89    9.00
  -7  13  -2   83.39    9.50
  -7 -13   2  113.69   12.30
  -8  13   2    1.90    4.10
  -8 -13  -2   -0.20    5.20
  -8 -13  -2   -1.40    3.90
   8  13  -2   -5.30    6.90
  -8  13   2   -4.10    3.20
   8  13   2   -4.80    9.90
  -8 -13   2    0.90    4.80
  -8  13  -2   -3.70    2.80
  -8  13  -2    6.40    5.00
   0  14   2  684.13   31.00
   0 -14  -2  692.13   29.00
   0  14  -2  740.33   31.20
   0 -14   2  758.42   28.50
   0  14  -2  694.73   23.20
   0  14   2  686.23   23.50
   0 -14  -2  707.93   23.10
   1  14  -2  181.08   10.00
   1 -14   2  196.18   12.60
  -1 -14  -2  193.68   13.80
  -1 -14  -2  195.08   10.80
  -1  14   2  189.58   14.70
   1  14  -2  181.18   14.70
   1  14   2  171.38   14.90
   1 -14  -2  199.28   13.60
  -1 -14   2  175.78   14.70
   1  14   2  176.58   10.90
  -1  14  -2  185.88   14.10
  -2 -14  -2   10.90    3.80
  -2  14   2   10.70    4.80
   2 -14   2    6.00    3.40
   2  14  -2    7.20    5.10
  -2 -14  -2   27.40    6.40
   2 -14  -2   13.30    4.50
  -2  14  -2   13.60    5.00
  -2 -14   2   15.40    4.60
   2  14   2   15.90    4.10
   2  14   2    4.00    4.60
  -3  14   2   49.00    8.20
   3  14  -2   74.59   11.00
   3 -14   2   72.59    7.90
  -3 -14  -2   75.79    8.00
  -3 -14  -2   86.99   10.10
  -3 -14   2   80.39    9.60
   3 -14  -2   53.69    8.60
  -3  14  -2   46.80    7.90
   3  14   2   63.49   11.10
  -4 -14  -2   30.20    7.10
  -4 -14  -2   29.70    6.20
   4 -14   2   34.00    6.70
   4  14  -2   25.80    7.20
   4  14  -2   32.30    7.80
  -4  14   2   28.30    6.40
  -4 -14   2   46.30    8.60
   4  14   2   24.20    7.70
  -4  14  -2   35.30    7.00
   5  14  -2   22.00    6.60
  -5  14   2   13.90    5.30
  -5  14   2   15.20    4.80
  -5 -14  -2    8.60    5.30
  -5 -14  -2   13.40    5.90
  -5  14  -2   10.30    4.70
   5  14   2   10.50    6.10
  -5 -14   2   17.80    6.10
  -6 -14  -2  261.27   17.50
  -6 -14  -2  266.07   19.30
  -6  14   2  228.58   16.30
  -6  14   2  239.28   15.60
   6  14  -2  285.27   20.10
   6  14   2  252.97   19.60
  -6 -14   2  239.08   20.50
  -6  14  -2  270.97   17.10
  -7 -14  -2   88.49   11.50
   7  14  -2   84.69   12.30
  -7  14   2   89.49   16.50
  -7 -14  -2   85.29   12.60
  -7  14   2  119.59   13.90
   7  14   2   89.69   14.90
  -7 -14   2   93.29   12.60
  -7  14  -2   91.49   17.50
  -7  14  -2   99.29    9.40
   0  15   2   -0.60    2.30
   0  15   2   -4.60    3.80
   0 -15  -2    1.90    3.50
   0 -15  -2    3.00    2.20
   0  15  -2    1.20    4.00
   1  15  -2  124.89    8.00
   1 -15   2  121.59   10.50
   1  15  -2  151.08   13.60
  -1 -15  -2  133.39   12.00
  -1 -15  -2  134.59    8.80
  -1  15   2  128.69   12.50
   1  15   2  119.89    8.90
  -1  15  -2  126.89   12.50
  -1 -15   2  139.69   11.70
   1 -15  -2  121.69   11.40
   1  15   2  123.59   13.20
   2  15  -2  133.49   13.20
  -2 -15  -2  130.99    9.80
   2  15  -2  131.59   10.40
  -2  15   2  125.09   12.30
  -2 -15  -2  129.09   12.30
   2 -15   2  126.69   10.70
  -2  15  -2  127.49   12.40
  -2 -15   2  128.99   11.90
   2  15   2  119.79    9.90
   2  15   2  120.69   13.50
   2 -15  -2  122.49   11.40
  -3 -15  -2  388.06   18.90
   3  15  -2  390.46   23.30
  -3 -15  -2  407.66   22.20
  -3  15   2  385.26   22.00
   3 -15   2  434.86   20.20
   3  15   2  359.26   23.20
   3 -15  -2  392.26   20.90
  -3 -15   2  401.56   21.80
  -3  15  -2  347.47   20.80
  -4  15   2   48.90    8.50
  -4 -15  -2   45.20    7.70
   4  15  -2   46.60    9.60
  -4 -15  -2   62.69   10.10
   4 -15   2   57.89    8.10
  -4 -15   2   76.49   10.90
   4  15   2   42.60    8.70
  -4  15  -2   44.80    8.60
   5  15  -2   99.69   14.00
  -5 -15  -2  107.89   11.50
  -5 -15  -2  110.79   12.70
  -5  15   2   97.59   12.10
   5  15   2   83.99   12.60
  -5 -15   2  123.49   13.60
  -5  15  -2   95.99   11.30
   6  15  -2   13.70    7.50
  -6 -15  -2   14.00    5.80
  -6 -15  -2    7.90    5.20
  -6  15   2   12.10    6.30
  -6  15   2    6.00    7.10
   6  15   2   25.60   11.70
  -6 -15   2    7.70    6.00
  -7 -15  -2    4.50    4.90
  -7  15   2   12.20    4.90
   7  15  -2   16.70    7.70
  -7 -15  -2    3.50    5.60
  -7  15   2   -3.20    5.10
  -7  15  -2    8.30    5.10
  -7 -15   2    7.50    6.00
   7  15   2    7.20    6.20
   0 -16   2   36.20    6.90
   0 -16  -2   36.00    7.30
   0  16  -2   26.60    7.40
   0  16   2   21.60    6.90
  -1 -16  -2    0.20    3.30
   1  16  -2   -0.30    4.50
  -1  16   2   -2.30    3.50
   1 -16   2   -0.60    3.00
   1  16  -2    0.40    2.30
  -1 -16   2    2.60    3.20
  -1  16  -2   -5.10    3.20
   1  16   2    4.70    3.00
   1  16   2    3.80    4.70
   1 -16  -2    3.10    3.80
  -2 -16  -2    4.10    4.10
  -2 -16  -2    5.80    3.40
  -2  16   2   -0.70    4.30
   2  16  -2   10.10    5.90
   2 -16   2    8.20    4.30
   2 -16  -2    2.70    3.70
  -2  16  -2    4.60    4.90
   2  16   2   -0.20    4.90
   2  16   2    5.20    4.20
  -2 -16   2    1.70    3.60
   3  16  -2   -0.40    4.60
  -3 -16  -2   -2.00    4.20
  -3  16   2    5.90    4.30
   3 -16   2    2.30    3.60
  -3 -16  -2    2.60    3.30
   3 -16  -2    3.10    4.40
   3  16   2    0.20    4.90
  -3  16  -2   -2.50    3.70
  -3 -16   2    6.60    4.90
   4  16  -2   -2.50    5.10
   4 -16   2    3.70    4.20
  -4 -16  -2    7.00    5.20
  -4 -16  -2    7.80    4.90
  -4  16   2    3.20    4.50
   4 -16  -2    2.20    4.50
  -4 -16   2   -0.40    4.40
  -5 -16  -2   23.40    5.90
   5  16  -2   20.50    8.80
  -5 -16  -2    8.50    5.60
   5  16   2    5.60    7.00
  -5  16  -2   19.70    7.10
  -5 -16   2   29.10    9.40
   0  17  -2   -2.40    4.40
   0 -17  -2    0.80    3.50
   0 -17   2    5.20    4.40
   0  17   2   -1.50    5.10
   1  17  -2  183.58   16.00
  -1 -17  -2  202.68   18.00
  -1  17   2  242.68   26.50
   1 -17   2  243.48   15.60
  -1 -17   2  241.28   15.90
   1 -17  -2  202.98   15.50
  -1  17  -2  202.48   16.40
  -2 -17  -2   74.99   10.60
  -2  17   2   69.89   13.80
   2  17  -2   69.19   14.20
   2 -17   2   83.29    9.40
  -2 -17   2   64.89    9.80
   2 -17  -2   59.49    9.40
   2  17   2   80.29   12.80
  -3 -17  -2  516.95   26.80
   3  17  -2  470.35   28.50
   3 -17   2  502.75   23.80
  -3 -17   2  516.65   26.30
   3  17   2  489.35   41.90
   3 -17  -2  513.85   25.80
   4 -17   2   44.50    8.20
   4  17  -2   39.60    9.70
  -4  17   2   54.89    9.60
  -4 -17  -2   51.69    9.40
   4  17   2   56.09   11.70
   4 -17  -2   77.39   10.80
  -4  17  -2   67.69   10.90
  -4 -17   2   49.99    9.90
   0  18  -2   31.60    8.10
   0 -18  -2   35.10    8.20
   0  18   2   28.30    8.60
   0 -18   2   44.80    8.30
  -1 -18  -2   19.70    6.90
  -1  18   2   14.60    7.20
   1 -18   2   18.80    6.40
   1  18  -2   21.50    7.80
  -1 -18   2   13.60    5.60
   1  18   2   25.90    8.50
   1 -18  -2   19.10    8.40
  -1  18  -2   20.10    6.60
  -2 -18  -2    8.60    4.90
   2 -18   2   11.70    5.30
   2  18  -2    4.90    6.20
  -2  18   2    0.20    3.80
   2  18   2   -0.50    4.80
  -2  18  -2   -5.10    3.70
  -2 -18   2   -4.60    5.10
   2 -18  -2   -0.20    6.90
   0   0  -3    2.60    0.40
   0   0  -3    2.10    0.50
   0   0  -3    6.50    1.30
   1   0   3   -0.80    0.60
  -1   0   3    0.00    0.40
   1   0  -3    0.00    0.40
  -1   0  -3    1.10    0.80
  -1   0  -3    0.00    0.30
   1   0   3    0.60    0.60
  -1   0  -3    2.60    0.80
  -1   0  -3    2.50    0.70
  -2   0   3    1.10    0.80
  -2   0  -3    7.40    2.00
  -3   0  -3   -4.80    0.80
  -3   0   3   -1.80    1.00
  -3   0  -3   -5.70    1.10
   3   0  -3   -5.20    0.60
  -3   0  -3   -3.80    0.70
   3   0   3   -3.30    0.90
   3   0   3   -3.90    1.10
  -4   0   3   -0.30    0.80
  -4   0  -3    1.90    1.90
  -4   0  -3   -0.40    0.80
   4   0   3   10.10    3.10
  -4   0   3   -0.90    1.10
   4   0  -3    0.80    1.20
   4   0   3    1.30    1.10
  -4   0  -3    1.60    1.20
   4   0  -3    0.90    1.20
   5   0   3   -2.80    1.80
  -5   0  -3    0.90    1.20
   5   0   3    2.70    1.40
  -5   0  -3   -0.90    0.80
  -5   0   3    0.70    1.50
  -5   0  -3    2.70    2.40
   5   0  -3    0.00    0.90
   5   0  -3   -0.40    2.10
  -5   0   3    0.00    1.20
  -6   0   3   -2.90    1.00
   6   0  -3    1.60    2.50
  -6   0  -3    0.40    2.10
  -6   0  -3   -0.70    1.20
   6   0  -3    0.90    1.30
  -6   0   3   -0.70    1.20
  -6   0  -3    2.40    1.50
   6   0   3    8.80    2.60
   6   0   3   -3.70    2.70
  -7   0  -3   -2.00    2.40
  -7   0  -3   -1.10    1.50
  -7   0   3    0.70    1.60
  -7   0   3    0.50    1.60
  -8   0   3   -3.40    2.10
  -8   0  -3    2.30    2.10
  -8   0  -3   -2.60    3.30
  -9   0  -3   -1.60    3.80
  -9   0  -3    3.10    2.90
 -10   0  -3   -1.10    2.20
 -10   0   3   -1.60    2.80
 -10   0  -3    3.50    4.70
 -11   0  -3    0.90    2.90
 -11   0   3   -1.20    3.10
 -11   0  -3    1.80    5.50
 -12   0  -3    8.60    5.40
 -12   0   3    1.00    3.30
 -12   0  -3    4.60    3.60
   0   1   3   -5.40    0.30
   0   1  -3   -4.60    0.40
   0   1   3   -1.90    1.00
   0   1  -3   -3.90    0.40
   0  -1  -3   -3.50    0.60
   0   1   3   -5.10    0.50
   0  -1  -3   -5.80    0.40
   0  -1  -3   -3.20    0.50
  -1  -1  -3  980.00   27.40
  -1   1   3 1036.20   25.80
   1   1  -3 1008.70   25.40
   1   1  -3 1021.50   26.50
  -1   1   3  977.50   27.10
  -1  -1  -3  985.30   26.40
  -1  -1  -3  987.60   28.10
   1  -1   3  997.50   27.40
   1  -1   3  983.60   25.70
  -1  -1  -3  947.11   27.40
  -1   1  -3 1027.80   25.30
   1  -1  -3 1003.60   25.60
   1   1   3  945.71   27.70
   1  -1  -3  999.50   27.10
  -1   1  -3 1011.40   27.70
  -1  -1   3 1026.90   26.60
  -1  -1   3 1021.10   25.50
   1   1   3 1031.70   26.50
   3  -1   3 1649.93   44.60
  -3  -1  -3 1702.53   45.30
  -3   1   3 1666.23   45.70
  -3  -1  -3 1731.33   49.00
  -3  -1  -3 1693.83   45.30
   3  -1   3 1660.33   47.10
   3   1  -3 1745.33   44.30
   3   1  -3 1745.23   45.80
  -3  -1   3 1636.04   45.20
  -3   1  -3 1732.73   44.10
  -3  -1   3 1665.53   45.70
  -3   1  -3 1649.63   47.70
   3   1   3 1654.93   45.30
   3   1   3 1646.94   48.80
   3   1   3 1657.73   45.80
   3  -1  -3 1706.53   45.70
   4   1  -3 2042.40   52.49
  -4  -1  -3 1935.91   51.79
   4  -1   3 1868.71   51.29
   4   1  -3 1997.80   55.89
   4  -1   3 1810.12   54.29
  -4  -1  -3 1891.11   56.79
  -4   1   3 1894.31   52.29
  -4  -1  -3 1969.90   51.89
   4  -1  -3 1875.41   52.09
  -4  -1   3 1920.41   52.49
  -4  -1   3 1927.61   50.69
   4   1   3 1912.81   51.89
   4   1   3 1876.61   52.29
  -4   1  -3 1939.91   50.69
   4   1   3 1846.32   56.39
  -4   1  -3 1816.72   55.49
  -4   1  -3 1890.51   51.59
   5   1  -3  558.04   22.80
  -5   1   3  567.64   19.70
   5  -1   3  561.04   22.30
  -5  -1  -3  549.85   19.20
  -5   1   3  545.85   18.10
   5  -1   3  543.95   18.90
  -5  -1  -3  526.05   23.20
  -5  -1  -3  560.14   19.10
   5   1  -3  538.45   19.40
  -5  -1   3  558.94   18.20
   5  -1  -3  546.65   22.20
  -5   1  -3  539.75   18.80
   5   1   3  524.25   23.20
  -5   1  -3  564.44   18.30
  -5  -1   3  555.44   19.80
   5  -1  -3  561.64   19.60
   5   1   3  543.65   19.70
  -5   1  -3  539.15   22.70
  -6  -1  -3   83.99    8.70
  -6  -1  -3   84.79    6.40
  -6   1   3   83.09    5.80
  -6  -1  -3   90.59    6.50
  -6   1   3   89.79    6.90
   6  -1   3   75.59    6.10
   6   1  -3   79.59    8.30
   6   1   3   84.09    6.80
  -6  -1   3   93.69    7.20
   6   1   3   82.09    8.50
  -6   1  -3   87.69    6.10
  -6  -1   3   86.09    5.90
   6  -1  -3   83.39    6.50
  -6   1  -3   89.39    8.80
   6  -1  -3   95.99    9.00
  -7   1   3   15.90    3.20
  -7  -1  -3   29.60    6.80
   7  -1   3   12.00    4.40
  -7  -1  -3   22.90    4.40
  -7   1   3   14.60    3.50
   7  -1  -3   18.10    6.40
  -7  -1   3   23.50    4.50
  -7  -1   3   22.90    4.00
  -7   1  -3   22.70    4.00
  -7   1  -3   19.90    5.60
  -8   1   3 1399.26   44.80
  -8  -1  -3 1378.56   43.70
  -8  -1  -3 1386.06   50.69
  -8   1  -3 1473.75   50.19
  -8  -1   3 1388.16   45.20
  -8   1  -3 1454.25   43.40
  -9   1   3  107.99   10.60
  -9  -1  -3  105.69   12.00
  -9  -1  -3   83.59    8.10
  -9   1  -3   90.09   10.50
  -9   1  -3   87.09   10.30
  -9  -1   3   72.29   10.80
 -10  -1  -3   13.60    6.10
 -10   1   3   13.30    4.60
 -10  -1  -3    7.00    3.40
 -10   1  -3    5.20    3.30
 -10   1  -3    4.70    4.80
 -10  -1   3   10.40    4.50
 -11  -1  -3   27.60    6.30
 -11   1   3   28.50    6.90
 -11  -1  -3   32.50    9.30
 -11   1  -3   40.90    7.00
 -11  -1   3   39.40    7.50
 -11   1  -3   49.30   10.20
 -12  -1  -3   17.50   12.30
 -12  -1  -3    6.10    4.30
 -12   1   3    7.70    4.50
 -12  -1   3    3.50    4.40
 -12   1  -3   12.50    4.30
   0   2  -3   31.40    2.10
   0  -2   3   32.40    2.00
   0   2   3   34.70    2.30
   0  -2  -3   32.00    2.50
   0  -2  -3   37.70    2.50
   0   2  -3   32.50    1.50
   0   2   3   29.00    2.60
   0   2   3   33.40    2.70
   1   2  -3  397.86   11.70
   1   2  -3  398.46   11.80
  -1  -2  -3  403.86   12.30
  -1  -2  -3  413.36   13.60
  -1  -2  -3  400.96   13.50
  -1   2   3  388.66   12.70
  -1  -2  -3  377.46   13.40
  -1   2   3  402.06   12.20
   1  -2   3  402.86   12.30
  -1  -2   3  411.86   12.00
   1   2   3  388.46   13.90
   1   2   3  395.56   12.20
  -1   2  -3  392.46   12.50
   1   2   3  379.26   13.70
   1  -2  -3  415.66   11.90
  -1  -2   3  403.46   11.90
  -1   2  -3  391.76   11.80
  -2  -2  -3 5545.95  136.69
  -2   2   3 5476.15  135.79
   2   2  -3 5400.76  135.59
  -2   2   3 5595.84  137.19
   2  -2   3 5572.14  136.89
   2  -2   3 5329.57  134.79
  -2  -2  -3 5481.35  137.69
  -2  -2  -3 5599.94  139.49
   2   2   3 5299.37  137.99
   2   2   3 5678.93  136.89
   2   2   3 5231.78  139.69
  -2  -2   3 5420.96  135.59
  -2   2  -3 5402.96  137.29
   2  -2  -3 5285.87  136.99
   3   2  -3  188.08    7.40
  -3   2   3  191.58    8.30
   3  -2   3  185.68    7.10
  -3  -2  -3  183.08   10.10
  -3  -2  -3  190.88    8.00
  -3  -2  -3  187.48    8.40
   3  -2   3  196.58    8.70
   3   2  -3  190.08    8.20
  -3  -2   3  179.48    7.20
  -3   2  -3  180.18    9.00
   3   2   3  190.38    8.10
  -3  -2   3  180.18    8.30
   3  -2  -3  190.88    8.30
  -3   2  -3  196.08    6.80
   3   2   3  170.78    8.50
   3   2   3  179.38   10.30
   4   2  -3 5177.58  131.09
   4   2  -3 4904.21  126.79
   4  -2   3 4868.01  125.39
   4   2  -3 5037.30  125.59
  -4  -2  -3 4913.81  126.89
   4  -2   3 4966.80  128.39
  -4  -2  -3 5008.90  132.39
  -4  -2  -3 4999.00  126.49
   4  -2  -3 4820.92  126.59
   4   2   3 5072.69  126.79
  -4   2  -3 5079.59  124.69
   4   2   3 4667.43  131.89
  -4   2  -3 4831.32  129.79
  -4  -2   3 5007.40  127.39
  -4  -2   3 4928.31  125.19
   4   2   3 4908.81  127.69
   5   2  -3   51.99    8.30
   5  -2   3   42.60    5.30
   5  -2   3   43.30    4.00
  -5   2   3   46.10    5.40
   5   2  -3   47.60    4.20
  -5  -2  -3   46.90    4.70
  -5  -2  -3   44.40    4.90
   5  -2  -3   46.60    5.60
  -5   2  -3   45.20    3.80
   5   2   3   47.30    7.50
  -5  -2   3   56.49    4.40
   5  -2  -3   47.10    4.60
  -5   2  -3   48.40    5.80
   5   2   3   41.00    5.00
  -5  -2   3   53.49    5.00
   6  -2   3   21.80    4.90
  -6  -2  -3   17.90    3.30
  -6  -2  -3   19.40    4.00
   6   2  -3   11.20    4.20
  -6   2   3   14.50    3.10
   6   2  -3    8.40    2.40
   6  -2   3   23.50    4.00
  -6  -2  -3   13.00    4.20
  -6  -2   3   22.40    4.20
   6   2   3    9.60    3.90
  -6   2  -3   13.90    2.80
  -6   2  -3   15.10    4.20
   6   2   3   11.30    2.70
  -6  -2   3   19.10    3.60
   6  -2  -3   13.80    3.20
  -6   2  -3   19.00    3.40
  -7  -2  -3   83.29    9.50
   7  -2   3   86.29    8.90
  -7   2   3   65.99    6.00
  -7  -2  -3   78.99    7.00
  -7   2   3   72.89    6.90
  -7   2  -3   74.89    8.40
  -7  -2   3   93.49    7.90
  -7  -2   3   76.59    6.30
   7  -2  -3   84.79    9.20
  -7   2  -3   87.59    6.50
  -8  -2  -3  332.67   15.90
  -8  -2  -3  309.97   20.10
  -8   2   3  343.97   16.40
  -8   2  -3  304.17   18.10
  -8   2  -3  322.17   14.60
  -8  -2   3  328.57   16.70
  -9   2   3  147.29   10.90
  -9  -2  -3  131.59   10.10
  -9  -2   3  137.79   13.90
  -9   2  -3  134.69   12.70
  -9   2  -3  123.69   11.10
 -10   2   3  424.96   20.60
 -10  -2  -3  382.16   19.30
 -10  -2  -3  381.06   24.30
 -10  -2   3  389.46   20.70
 -10   2  -3  418.46   18.90
 -11  -2  -3   -3.20    4.60
 -11   2   3    2.90    3.70
 -11  -2  -3   -4.00    2.50
 -11   2  -3   -1.70    4.50
 -11  -2   3   -1.40    3.00
 -11   2  -3    2.20    3.00
 -12   2   3    7.40    4.70
 -12  -2  -3    3.80    3.80
 -12   2  -3    0.70    3.10
 -12  -2   3   -6.60    3.70
   0   3   3   -2.90    0.80
   0  -3   3   -1.30    0.80
   0   3   3   -3.30    0.70
   0  -3  -3   -2.50    0.60
   0  -3  -3   -2.80    0.70
   0   3  -3   -0.90    0.90
   0   3  -3   -2.70    0.30
   0   3   3   -1.60    0.90
   1   3  -3   27.40    2.50
  -1  -3  -3   34.90    3.20
  -1   3   3   25.70    2.60
  -1   3   3   25.40    2.60
   1   3  -3   27.60    2.10
  -1  -3  -3   26.00    2.40
  -1  -3  -3   25.90    3.00
  -1  -3  -3   19.60    3.30
  -1  -3   3   29.10    2.30
   1  -3  -3   22.20    2.50
  -1   3  -3   26.70    2.30
   1   3   3   20.50    3.30
   1  -3  -3   25.00    2.30
  -1   3  -3   25.60    2.20
   1   3   3   29.10    3.00
   1   3   3   26.60    2.60
  -1  -3   3   27.90    2.50
   1  -3  -3   25.10    2.40
   2   3  -3  693.93   20.60
  -2  -3  -3  699.03   22.20
  -2  -3  -3  689.63   23.00
   2  -3   3  686.53   19.90
  -2   3   3  708.73   20.50
  -2   3   3  716.73   21.40
   2  -3   3  707.93   18.80
  -2  -3  -3  731.53   21.10
   2   3  -3  685.93   20.30
  -2   3  -3  704.53   20.60
  -2  -3   3  689.53   21.40
  -2   3  -3  702.33   20.70
   2   3   3  725.33   21.30
   2   3   3  682.53   22.50
   2   3   3  665.93   23.50
   2  -3  -3  693.33   21.20
  -2  -3   3  728.63   21.10
   2  -3  -3  685.23   20.20
  -2   3  -3  698.13   18.30
   3   3  -3    7.60    1.80
  -3   3   3    8.40    2.20
   3   3  -3    8.40    2.50
  -3  -3  -3    8.90    2.00
   3  -3   3    7.20    1.40
   3  -3   3   12.50    2.30
  -3   3   3    6.40    1.70
  -3  -3  -3   14.00    3.50
  -3  -3  -3   10.60    2.60
   3   3  -3    8.90    2.00
   3  -3  -3    5.70    1.70
   3   3   3   16.00    3.60
   3   3   3    6.60    1.90
  -3  -3   3    9.60    2.00
  -3   3  -3    8.60    2.30
   3   3   3    8.50    2.10
  -3   3  -3    9.20    1.50
  -3  -3   3    8.30    1.70
   4  -3   3  404.86   13.90
  -4   3   3  417.16   15.40
   4   3  -3  399.66   15.20
  -4  -3  -3  414.06   15.80
   4  -3   3  431.46   15.60
  -4  -3  -3  424.46   15.20
   4   3  -3  416.66   14.60
  -4  -3  -3  409.76   18.80
   4   3  -3  409.46   17.90
  -4   3  -3  424.66   13.40
  -4   3  -3  411.86   16.80
  -4  -3   3  425.56   15.90
   4   3   3  410.36   16.30
   4   3   3  424.96   15.50
   4  -3  -3  426.96   15.50
   4   3   3  376.26   18.80
  -4  -3   3  419.66   14.30
   5  -3   3   31.00    4.80
  -5   3   3   37.70    4.30
  -5  -3  -3   23.00    3.70
  -5  -3  -3   30.20    3.70
   5   3  -3   25.90    5.10
   5   3  -3   34.20    3.80
  -5  -3  -3   30.20    5.80
   5  -3   3   30.50    3.40
  -5   3  -3   29.70    3.00
   5   3   3   36.60    4.50
  -5  -3   3   29.20    3.50
   5  -3  -3   31.20    5.10
   5  -3  -3   19.60    3.70
   5   3   3   31.90    4.00
   5   3   3   29.60    5.90
  -5   3  -3   31.80    5.20
  -5  -3   3   34.80    5.00
   6   3  -3   18.20    4.80
   6   3  -3    9.50    2.70
  -6  -3  -3    6.90    3.40
  -6  -3  -3    5.40    2.20
  -6  -3  -3    4.00    2.00
   6   3  -3    5.70    2.30
  -6   3   3    7.00    2.50
   6  -3   3    6.70    2.90
   6  -3   3   10.00    2.80
   6   3   3   10.30    4.00
   6  -3  -3    7.70    2.40
  -6   3  -3    9.10    3.20
   6   3   3    7.70    2.50
  -6  -3   3   10.80    3.50
   6  -3  -3    6.90    3.00
  -6  -3   3    6.70    2.10
  -6   3  -3   11.10    2.50
   6   3   3   12.20    3.60
  -7  -3  -3   -2.50    2.10
  -7   3   3    3.80    2.00
  -7  -3  -3    2.40    2.10
  -7  -3   3    3.30    1.80
   7  -3  -3   -0.70    2.90
  -7   3  -3    1.70    2.80
   7   3   3    3.20    2.70
  -7  -3   3    1.40    2.00
  -7   3  -3   -1.90    1.40
  -8  -3  -3  156.88   10.90
  -8  -3  -3  180.08   14.80
  -8   3   3  144.19   10.30
  -8   3  -3  162.48   12.50
  -8   3  -3  155.98    9.40
  -9   3   3    2.80    2.90
  -9  -3  -3    0.10    2.10
  -9  -3  -3    7.20    5.20
  -9   3  -3    5.90    4.30
  -9   3  -3    1.90    2.70
  -9  -3   3   -0.70    4.20
 -10  -3  -3   34.80    9.10
 -10  -3  -3   17.30    4.50
 -10   3   3   23.70    5.50
 -10   3  -3   29.90    5.40
 -10  -3   3   25.60    6.00
 -10   3  -3   32.30    7.60
 -11  -3  -3    2.80    3.30
 -11  -3  -3   -1.80    4.50
 -11   3   3    3.50    3.90
 -11  -3   3    0.70    3.50
 -11   3  -3    4.10    3.10
 -12  -3  -3    4.10    4.30
 -12   3   3    2.20    4.00
 -12  -3  -3    3.70    6.20
 -12   3  -3    0.40    3.10
 -12  -3   3    2.60    3.70
   0  -4  -3  635.04   20.30
   0  -4   3  652.63   19.70
   0   4  -3  647.44   20.00
   0   4  -3  608.94   17.80
   0  -4  -3  647.84   20.60
   0   4   3  607.04   20.10
   0  -4  -3  637.84   19.20
   0   4   3  626.44   19.90
  -1   4   3   37.80    3.50
  -1   4   3   39.40    3.40
  -1  -4  -3   36.20    3.50
  -1  -4  -3   40.50    3.40
   1  -4   3   40.80    2.30
   1   4  -3   38.20    3.40
   1  -4   3   42.30    3.30
  -1  -4  -3   35.90    3.80
   1   4   3   44.50    4.00
   1   4   3   39.10    3.40
  -1   4  -3   36.90    2.60
  -1   4  -3   37.30    3.10
   1  -4  -3   37.10    3.30
  -1  -4   3   38.90    2.90
   1  -4  -3   36.70    3.40
   1  -4  -3   38.80    2.90
  -1  -4   3   40.40    3.40
   2  -4   3 8720.33  211.78
  -2   4   3 8866.91  213.98
   2  -4   3 8628.14  211.18
  -2  -4  -3 8525.75  214.18
  -2  -4  -3 8470.95  216.38
   2   4  -3 8832.92  213.98
  -2  -4  -3 8351.96  215.78
   2   4   3 8492.25  214.48
  -2   4  -3 8648.54  212.68
   2   4   3 8261.17  216.28
   2   4   3 7815.22  216.98
   2  -4  -3 8794.72  214.68
   2  -4  -3 8760.22  213.78
  -2  -4   3 8736.23  213.68
   3  -4   3   11.00    1.70
  -3  -4  -3    4.80    1.90
  -3  -4  -3    5.30    1.70
   3   4  -3    8.70    2.80
  -3  -4  -3    5.90    2.60
  -3   4   3    6.80    2.00
  -3   4   3    6.50    2.00
   3   4  -3    7.20    2.10
   3  -4   3   10.80    1.90
   3   4  -3    4.50    1.60
   3   4   3    0.10    1.60
  -3  -4   3    6.70    2.10
   3  -4  -3    5.00    1.90
   3   4   3   12.10    2.60
   3   4   3    4.40    1.70
  -3   4  -3    5.10    1.80
  -3   4  -3    6.80    2.00
  -3   4  -3   11.00    1.60
  -3  -4   3    9.70    2.10
   4   4  -3 8390.86  217.88
  -4  -4  -3 8704.53  223.68
   4   4  -3 8898.61  222.48
   4   4  -3 8686.13  217.18
  -4  -4  -3 8857.61  217.98
  -4   4   3 8672.93  217.78
   4  -4   3 8354.16  215.48
  -4  -4  -3 8476.15  219.08
  -4   4   3 8856.11  216.98
   4  -4   3 9004.70  216.98
   4  -4  -3 8433.46  217.88
  -4   4  -3 8795.02  214.88
   4   4   3 8496.45  219.68
   4   4   3 8137.69  224.18
  -4  -4   3 8830.02  218.78
  -4  -4   3 8628.04  216.68
   4   4   3 8725.53  218.48
  -4   4  -3 8770.32  218.88
   5   4  -3   42.20    6.60
   5  -4   3   46.70    4.70
   5   4  -3   44.80    4.70
   5   4  -3   43.50    4.50
  -5  -4  -3   42.80    4.60
  -5  -4  -3   47.80    5.30
   5  -4   3   39.80    3.90
  -5   4   3   44.00    4.40
  -5   4   3   40.00    4.50
  -5  -4  -3   42.10    7.00
   5   4   3   45.80    4.90
   5  -4  -3   51.19    5.50
  -5   4  -3   52.19    5.30
   5   4   3   40.80    7.00
  -5  -4   3   41.80    4.20
   5   4   3   46.00    5.40
   5  -4  -3   39.90    4.70
  -5  -4   3   42.60    5.10
  -5   4  -3   45.10    3.70
  -6  -4  -3   56.99    8.70
   6  -4   3   65.69    6.20
  -6  -4  -3   63.09    6.20
   6  -4   3   58.39    5.20
  -6   4   3   71.59    6.30
   6   4  -3   64.59    5.70
  -6  -4   3   60.29    6.40
   6  -4  -3   62.89    6.90
   6   4   3   70.79    6.40
  -6   4  -3   72.19    5.10
  -6   4  -3   95.89    7.80
   7  -4   3   28.80    6.60
  -7   4   3   33.50    5.40
  -7  -4  -3   34.10    5.80
  -7  -4  -3   34.00    7.50
   7   4  -3   37.80    5.50
  -7  -4   3   34.20    5.80
   7  -4  -3   38.50    6.70
   7   4   3   41.10    6.10
  -7   4  -3   26.40    4.00
  -7   4  -3   34.60    5.90
   8  -4   3  422.16   20.40
  -8  -4  -3  411.86   23.60
  -8  -4  -3  411.56   19.30
  -8   4   3  404.86   18.60
  -8   4  -3  441.66   20.70
  -8  -4   3  442.46   20.40
   8   4   3  426.06   19.50
  -8   4  -3  402.46   16.70
  -9   4   3   62.19    7.80
  -9  -4  -3   81.09   12.40
  -9  -4  -3   81.69    8.80
  -9   4  -3   69.19    8.90
  -9  -4   3   48.60   10.20
  -9   4  -3   71.99    6.90
 -10  -4  -3  679.23   28.00
 -10   4   3  616.64   26.70
 -10  -4  -3  611.34   32.60
 -10  -4   3  654.33   28.50
 -10   4  -3  650.73   24.90
 -10   4  -3  645.14   28.80
 -11  -4  -3   -4.30    4.50
 -11   4   3    2.60    3.80
 -11  -4  -3    2.80    3.80
 -11  -4   3    9.20    4.80
 -11   4  -3    2.20    2.90
   0  -5  -3    1.50    1.20
   0  -5  -3    2.10    1.20
   0  -5   3    0.30    1.00
   0   5   3    1.10    1.10
   0   5  -3   -0.60    1.00
   0  -5  -3    5.40    1.50
   0   5   3   -0.40    0.80
   0   5   3    0.30    1.10
   0  -5   3    1.40    0.80
   1  -5   3   78.19    4.00
  -1  -5  -3   80.59    5.30
  -1  -5  -3   78.79    5.40
   1   5  -3   83.29    5.60
  -1   5   3   79.19    5.80
   1   5  -3   87.19    4.70
  -1  -5  -3   80.49    6.00
   1  -5   3   83.69    5.30
  -1  -5  -3   70.59    5.80
  -1   5   3   80.79    5.40
   1   5   3   93.29    6.00
  -1   5  -3   75.69    3.80
  -1  -5   3   82.39    5.50
   1   5   3   83.99    5.90
   1  -5  -3   78.19    4.40
  -1  -5   3   75.19    4.70
  -1   5  -3   77.09    5.10
   1  -5  -3   77.09    5.50
   1  -5  -3   74.99    5.40
  -2  -5  -3   85.79    6.50
   2   5  -3   85.79    6.00
  -2   5   3  100.99    6.00
  -2  -5  -3   80.39    5.40
   2   5  -3   94.49    5.90
   2  -5   3   92.99    4.10
  -2  -5  -3   77.59    6.10
   2   5  -3   81.79    5.10
  -2   5   3   90.09    5.80
  -2   5  -3   76.69    4.20
   2  -5  -3   91.79    4.70
   2   5   3   81.59    6.50
   2  -5  -3   81.19    5.40
  -2  -5   3   76.79    5.20
  -2  -5   3   78.99    5.30
  -2   5  -3   83.09    5.20
  -2   5  -3   84.39    3.90
   2   5   3   84.39    5.90
   2  -5  -3   86.09    5.80
   2   5   3   80.39    6.60
   3  -5   3 1431.36   39.60
  -3  -5  -3 1495.75   44.40
  -3   5   3 1536.15   42.20
   3   5  -3 1483.95   44.80
  -3   5   3 1526.55   42.50
   3  -5   3 1484.35   39.30
  -3  -5  -3 1552.04   46.50
   3   5  -3 1472.55   42.30
  -3  -5  -3 1495.95   42.50
   3   5  -3 1488.45   42.20
  -3   5  -3 1526.65   41.10
   3   5   3 1528.15   43.30
   3  -5  -3 1422.06   42.60
  -3   5  -3 1503.35   39.20
   3   5   3 1418.16   44.40
  -3  -5   3 1514.35   42.90
  -3  -5   3 1532.25   42.10
  -3   5  -3 1487.55   42.00
   3   5   3 1462.05   46.90
  -4   5   3   22.30    3.90
  -4   5   3   19.00    3.20
   4   5  -3   19.10    3.60
   4   5  -3   32.30    3.80
   4  -5   3   20.40    2.60
   4   5  -3   18.40    4.10
  -4  -5  -3   17.30    5.10
   4  -5   3   18.30    2.60
   4   5   3   17.50    3.50
   4   5   3   18.60    4.40
  -4  -5   3   25.60    3.10
  -4  -5   3   17.10    3.20
   4   5   3   21.00    4.30
  -4   5  -3   17.30    2.40
  -4   5  -3   17.10    3.10
  -5   5   3  103.29    7.30
   5  -5   3  112.09    6.80
  -5   5   3  106.79    7.00
  -5  -5  -3  105.29    8.00
   5  -5   3  104.09    6.40
   5   5  -3  104.99    7.50
  -5  -5  -3  112.69   10.00
  -5  -5  -3   96.89    6.90
   5   5  -3  104.79    9.20
  -5   5  -3  109.79    7.50
   5   5   3  108.79    7.80
   5  -5  -3  111.59    7.80
   5  -5  -3  105.79    7.40
  -5  -5   3   96.29    7.60
   5   5   3  102.69    8.10
   5   5   3  117.79   10.70
  -5  -5   3  113.69    7.10
   6   5  -3    6.70    2.90
   6  -5   3   -0.70    1.90
   6   5  -3    2.30    2.20
  -6   5   3    1.30    1.70
  -6  -5  -3    2.00    2.10
  -6  -5  -3    3.40    3.60
  -6   5   3    0.30    1.80
   6  -5   3    0.60    1.50
  -6   5  -3    0.10    1.40
   6  -5  -3    1.30    2.30
  -6   5  -3   -3.80    1.40
   6   5   3    3.10    2.40
  -6  -5   3    3.40    1.90
  -6  -5   3    0.30    1.80
   7   5  -3   23.20    4.70
  -7  -5  -3   16.90    5.70
   7  -5   3   20.50    4.40
  -7   5   3   18.30    3.80
  -7   5   3   19.20    4.40
  -7  -5  -3   20.00    4.40
  -7   5  -3   20.70    3.60
   7   5   3   24.30    5.00
  -7   5  -3   20.30    4.50
  -7  -5   3   22.10    5.20
  -8   5   3   27.30    4.80
  -8  -5  -3   37.30    6.50
   8  -5   3   38.10    6.30
   8   5  -3   39.30    6.30
  -8   5   3   41.60    6.20
  -8  -5  -3   39.10    8.50
  -8  -5   3   30.50    5.30
  -8   5  -3   35.40    4.90
  -8   5  -3   40.90    6.60
   8   5   3   33.20    5.90
  -9  -5  -3   84.39    9.30
  -9   5   3  102.59    9.00
  -9  -5  -3  108.39   13.10
  -9   5   3   83.19    8.70
  -9   5  -3   86.79    7.60
  -9  -5   3   89.59    9.70
  -9   5  -3   92.79    9.50
   9   5   3   85.09    9.00
 -10  -5  -3   17.60    5.60
 -10  -5  -3   12.70    6.40
 -10   5   3   15.20    4.90
 -10   5  -3   20.70    4.60
 -10  -5   3   15.60    4.90
 -11   5   3   31.30    7.40
 -11   5   3   28.20    6.30
 -11  -5  -3   20.20    6.20
 -11   5  -3   27.50    5.50
 -11  -5   3   18.80    5.70
   0  -6   3   84.39    5.10
   0   6  -3   88.49    6.40
   0  -6  -3   80.39    6.30
   0  -6   3   85.79    6.10
   0  -6  -3   91.59    5.30
   0   6   3   81.09    6.30
   0   6   3   86.59    5.50
   0  -6  -3   85.99    6.50
   0  -6  -3   77.49    6.00
   1   6  -3   14.50    2.50
   1   6  -3   17.90    2.90
  -1  -6  -3   16.50    3.00
  -1  -6  -3   19.10    3.20
   1   6  -3   18.10    3.40
   1  -6   3   13.10    2.50
   1  -6   3   18.30    2.20
  -1  -6  -3   14.50    2.90
   1  -6   3   16.20    2.30
  -1   6   3   14.50    2.90
  -1   6   3   11.30    2.80
  -1  -6  -3   22.70    4.10
   1  -6  -3   17.00    2.10
   1   6   3   28.60    3.60
   1  -6  -3   20.30    3.60
   1  -6  -3   10.40    2.60
  -1  -6   3   17.00    2.80
  -1  -6   3   13.20    2.80
  -1   6  -3   16.30    3.00
   1   6   3   17.60    3.60
   2   6  -3 1333.37   39.20
  -2  -6  -3 1292.77   40.20
  -2   6   3 1273.67   38.10
   2  -6   3 1319.17   38.50
  -2  -6  -3 1331.97   38.70
   2   6  -3 1354.16   39.20
   2  -6   3 1338.87   35.70
   2   6  -3 1299.07   37.50
  -2  -6  -3 1305.27   39.90
  -2   6   3 1325.47   38.90
   2   6   3 1241.88   40.50
   2  -6  -3 1321.37   35.70
  -2   6  -3 1275.37   37.80
   2  -6  -3 1310.37   38.60
   2  -6  -3 1350.76   39.20
  -2  -6   3 1337.07   38.40
   2   6   3 1264.97   40.80
  -2   6  -3 1332.77   34.60
   2   6   3 1361.06   39.70
  -2  -6   3 1295.97   38.40
   3   6  -3  114.29    8.00
   3  -6   3  104.49    5.30
  -3   6   3  100.79    6.60
  -3  -6  -3   98.39    6.60
   3  -6   3   96.39    4.20
   3   6  -3  104.89    6.60
  -3  -6  -3   98.09    7.60
  -3   6   3  106.79    7.80
  -3  -6  -3  106.09    8.50
   3   6  -3   88.79    6.70
   3  -6  -3   99.19    6.50
  -3   6  -3  101.59    5.00
  -3  -6   3  102.49    6.40
   3   6   3   95.79    7.20
   3  -6  -3   97.79    6.80
   3   6   3   87.69    7.40
  -3   6  -3   93.89    6.40
   3   6   3   92.29    8.20
  -3  -6   3   93.69    6.70
  -3   6  -3   99.79    5.20
   4   6  -3  558.44   20.60
  -4   6   3  586.84   20.60
  -4  -6  -3  571.64   22.20
   4  -6   3  579.04   18.60
   4  -6   3  591.64   17.50
  -4  -6  -3  570.64   20.70
   4   6  -3  564.34   20.70
  -4  -6  -3  609.74   24.60
  -4   6  -3  576.54   17.90
  -4   6  -3  597.44   18.80
   4  -6  -3  544.45   20.70
   4   6   3  553.94   21.40
  -4  -6   3  589.74   20.30
  -4  -6   3  587.84   21.60
  -4   6  -3  580.34   20.50
   4   6   3  635.24   26.60
   4   6   3  559.64   22.70
  -5  -6  -3   16.30    4.90
  -5  -6  -3   18.60    3.90
   5   6  -3   24.60    4.70
  -5   6   3   25.90    4.30
  -5   6   3   13.50    3.10
   5  -6   3   20.40    3.00
   5   6  -3   19.00    3.80
   5   6  -3   19.40    5.00
   5  -6   3   23.10    3.20
  -5  -6   3   13.80    3.40
  -5   6  -3   19.40    3.70
   5   6   3   22.30    4.50
  -5   6  -3   24.40    3.60
   5  -6  -3   22.40    3.90
   5   6   3   21.90    5.20
   5   6   3   20.80    4.30
  -5   6  -3   24.90    3.10
  -6  -6  -3  108.19   10.60
   6  -6   3  100.39    6.90
  -6  -6  -3   90.09    8.30
   6   6  -3   92.29    7.80
  -6   6   3   99.99    7.80
  -6   6   3  101.89    7.50
   6   6  -3   96.29    7.60
  -6   6  -3   98.59    7.10
  -6  -6   3   96.49    8.20
  -6   6  -3   89.29    7.50
  -6   6  -3   91.49    6.10
   6   6   3   90.49    8.00
  -6  -6   3  100.09    8.50
   6  -6  -3  104.49    8.40
  -7   6   3   14.70    4.00
   7   6  -3    7.40    3.40
  -7  -6  -3    7.00    4.50
  -7  -6  -3   10.20    4.00
   7  -6   3    6.00    2.80
  -7   6   3   10.30    3.20
  -7   6  -3    7.10    3.20
  -7   6  -3    6.90    3.10
   7   6   3    8.10    3.80
  -7   6  -3    8.80    2.50
  -7  -6   3    4.70    2.60
   7  -6  -3    3.80    3.40
   8  -6   3  264.97   16.40
  -8  -6  -3  235.48   17.80
  -8   6   3  243.78   13.80
   8   6  -3  256.47   14.50
  -8  -6  -3  243.18   18.40
  -8   6   3  241.88   13.80
  -8   6  -3  249.28   13.70
  -8   6  -3  247.58   12.20
   8  -6  -3  256.97   15.70
   8   6   3  259.27   15.30
  -8  -6   3  268.87   15.90
  -9   6   3   23.70    5.60
   9   6  -3   19.90    4.80
  -9   6   3   19.40    5.20
  -9  -6  -3   29.30    8.10
  -9  -6  -3   21.40    5.50
  -9   6  -3   20.70    4.50
  -9  -6   3   21.00    5.10
   9   6   3   13.60    4.40
 -10   6   3   72.39    8.50
 -10   6   3   60.69    8.70
 -10  -6  -3   71.39   12.40
 -10  -6  -3   65.89    9.80
 -10  -6   3   74.29   10.90
 -10   6  -3   48.50    6.80
 -11   6   3    0.10    5.80
 -11   6   3   -4.00    3.50
 -11   6  -3   -4.20    2.60
 -11  -6   3    4.80    4.10
   0  -7  -3   -0.70    1.20
   0   7   3   -0.80    1.30
   0   7  -3    0.10    1.70
   0  -7  -3   -1.00    1.00
   0   7  -3   -0.20    0.80
   0  -7  -3   -2.60    1.20
   0  -7   3   -0.20    1.20
   0  -7  -3   -0.30    1.00
   0  -7   3    4.00    1.70
   0   7   3    1.20    1.30
   1  -7   3  530.05   19.80
   1  -7   3  477.65   17.10
   1   7  -3  549.95   18.50
   1   7  -3  516.65   20.30
   1  -7   3  578.74   18.10
  -1   7   3  521.55   19.70
  -1  -7  -3  563.94   21.20
   1   7  -3  548.65   18.60
  -1  -7  -3  536.85   19.10
  -1   7   3  540.25   20.80
   1   7   3  563.44   21.20
   1   7   3  549.35   20.00
   1  -7  -3  480.95   19.50
  -1  -7   3  543.55   19.00
  -1  -7   3  546.25   19.90
   1  -7  -3  516.15   20.00
   1  -7  -3  541.75   16.90
  -1   7  -3  567.04   19.90
   2  -7   3 1707.43   46.20
   2   7  -3 1774.72   50.49
   2   7  -3 1722.23   49.40
   2  -7   3 1695.93   49.40
  -2   7   3 1703.33   49.80
  -2   7   3 1821.22   57.59
  -2  -7  -3 1666.83   49.20
  -2  -7  -3 1569.64   50.39
  -2  -7  -3 1712.13   50.29
  -2  -7   3 1685.23   49.30
   2  -7  -3 1664.53   49.70
  -2   7  -3 1774.12   43.70
   2  -7  -3 1729.83   45.40
  -2   7  -3 1695.93   48.60
  -2  -7   3 1717.13   49.00
   2   7   3 1695.23   51.49
   2  -7  -3 1751.42   49.80
   2   7   3 1749.92   53.99
   2   7   3 1618.74   51.49
  -3  -7  -3 1407.26   44.10
   3  -7   3 1326.07   38.10
  -3   7   3 1409.56   40.90
   3   7  -3 1400.26   42.10
  -3  -7  -3 1303.07   43.40
   3   7  -3 1337.07   40.50
   3   7  -3 1403.16   43.20
  -3   7  -3 1402.26   36.10
  -3  -7   3 1440.86   42.00
  -3   7  -3 1411.36   37.80
   3   7   3 1356.56   42.50
   3  -7  -3 1432.56   41.90
   3   7   3 1392.86   45.40
   3   7   3 1365.66   43.80
   3  -7  -3 1306.27   44.20
   3  -7  -3 1382.66   37.50
  -3  -7   3 1364.76   40.90
  -3   7  -3 1352.16   40.50
   4   7  -3  258.97   12.80
  -4  -7  -3  268.47   15.20
   4  -7   3  266.87    8.90
   4   7  -3  271.57   13.30
  -4  -7  -3  279.47   13.10
  -4  -7  -3  273.77   14.40
  -4   7   3  264.57   12.50
  -4   7   3  282.67   12.80
  -4  -7   3  251.67   12.10
  -4   7  -3  270.57    9.60
   4   7   3  278.67   16.30
  -4   7  -3  276.27   10.40
  -4  -7   3  265.87   13.40
  -4   7  -3  273.17   12.60
   4  -7  -3  274.67   13.20
   4   7   3  257.47   13.60
   4   7   3  267.07   14.40
   5   7  -3  255.07   13.30
  -5   7   3  258.47   12.70
  -5   7   3  256.57   12.60
  -5  -7  -3  277.57   16.30
   5  -7   3  246.18   11.20
   5   7  -3  261.37   13.40
  -5  -7  -3  257.27   14.40
   5  -7   3  273.47   10.00
  -5   7  -3  275.97   13.20
   5  -7  -3  268.57   12.30
  -5   7  -3  256.97   10.40
   5   7   3  245.78   13.60
  -5  -7   3  276.17   12.80
  -5   7  -3  256.27   10.60
  -6   7   3   30.80    4.80
  -6  -7  -3   33.60    6.30
   6   7  -3   24.70    4.30
   6   7  -3   23.90    5.00
   6  -7   3   32.40    4.10
  -6  -7  -3   36.40    7.60
  -6   7   3   35.80    5.20
  -6  -7   3   31.40    6.20
  -6   7  -3   34.70    4.20
   6  -7  -3   29.80    5.00
   6   7   3   31.30    5.70
  -6   7  -3   41.90    4.30
  -6   7  -3   32.00    5.10
  -7  -7  -3   18.70    4.90
  -7   7   3   19.40    4.30
   7  -7   3   19.30    3.90
  -7   7   3   25.80    5.00
   7   7  -3   25.40    5.30
  -7  -7  -3   16.50    5.90
  -7   7  -3   23.70    4.10
  -7   7  -3   12.30    3.80
   7   7   3   22.90    5.30
   7  -7  -3   17.30    4.30
  -7  -7   3   26.30    5.80
  -7   7  -3   14.20    3.50
  -8   7   3  404.66   19.10
   8   7  -3  436.86   20.30
  -8  -7  -3  422.76   21.20
  -8   7   3  409.26   19.00
  -8  -7  -3  389.06   23.60
  -8  -7   3  418.76   21.40
   8  -7  -3  414.46   20.20
  -8   7  -3  410.66   19.30
  -8   7  -3  426.06   17.20
   8   7   3  427.06   21.10
  -9   7   3   92.19    9.20
  -9  -7  -3   97.89   10.70
   9  -7   3   98.69    9.00
   9   7  -3   98.59   10.00
  -9   7   3  100.59    9.70
  -9  -7  -3  117.19   14.00
   9   7   3  118.79   11.10
  -9   7  -3  104.49    9.90
  -9  -7   3  111.79   11.30
  -9   7  -3   98.49    8.10
 -10  -7  -3   -2.20    3.10
 -10   7   3    1.20    4.00
 -10   7   3    1.70    3.30
  10   7  -3    6.30    4.00
 -10  -7  -3    7.30    5.80
 -10   7  -3    1.60    3.10
  10   7   3    2.70    3.90
 -10   7  -3    4.40    3.20
 -10  -7   3    2.20    3.40
 -11  -7  -3   16.50    5.90
 -11  -7  -3   22.40    8.70
 -11   7   3   15.80    5.40
 -11   7  -3   15.80    7.60
 -11   7  -3    4.50    4.60
   0  -8   3 1281.77   38.10
   0   8   3 1254.37   37.60
   0  -8  -3 1322.97   37.30
   0   8  -3 1352.06   41.00
   0  -8  -3 1318.27   40.80
   0  -8  -3 1209.28   40.40
   0  -8   3 1272.97   40.10
   0   8   3 1290.97   43.00
   0  -8  -3 1355.76   43.70
  -1   8   3  323.67   14.60
   1  -8   3  279.47   12.20
  -1   8   3  343.97   16.10
   1  -8   3  350.66   13.40
  -1  -8  -3  315.27   15.20
   1   8  -3  344.07   15.70
   1   8  -3  316.57   13.40
  -1  -8  -3  313.57   13.60
  -1  -8  -3  329.57   15.60
   1   8  -3  319.87   13.10
  -1  -8  -3  316.07   14.90
   1  -8   3  335.67   16.60
  -1   8  -3  313.57   10.30
   1   8   3  332.17   14.40
  -1  -8   3  323.67   14.70
   1   8   3  287.77   15.00
   1  -8  -3  309.77   11.50
   1  -8  -3  284.07   15.90
  -1  -8   3  330.37   14.00
  -1   8  -3  298.17   16.20
   2   8  -3  281.47   12.60
   2  -8   3  272.47   11.30
  -2  -8  -3  290.47   18.00
  -2   8   3  266.77   13.80
  -2   8   3  286.17   13.20
  -2  -8  -3  272.27   13.80
   2   8  -3  297.67   19.20
   2   8  -3  284.57   13.30
   2  -8  -3  279.07   10.10
  -2   8  -3  274.07   13.00
  -2  -8   3  276.67   13.10
   2  -8  -3  279.67   13.60
   2   8   3  286.87   14.60
  -2  -8   3  257.77   13.20
   2  -8  -3  270.87   13.50
   2   8   3  277.67   14.30
   3   8  -3   16.30    4.00
  -3  -8  -3   14.80    3.60
  -3   8   3   22.90    4.40
   3  -8   3   18.60    3.00
  -3  -8  -3   19.30    4.60
   3   8  -3   12.60    3.70
  -3   8   3   20.00    3.80
   3   8  -3   23.30    4.20
  -3  -8  -3   20.10    4.50
  -3  -8   3   12.20    3.50
   3  -8  -3   15.60    3.40
   3   8   3   13.30    3.90
   3  -8  -3   20.40    2.40
  -3   8  -3   19.70    3.00
  -3  -8   3   18.40    3.90
  -3   8  -3   17.80    3.90
   3  -8  -3   15.30    3.60
   3   8   3   20.10    4.50
   4   8  -3  357.06   17.90
  -4  -8  -3  355.46   17.60
  -4  -8  -3  336.87   17.80
   4   8  -3  347.37   15.80
   4   8  -3  372.76   17.00
  -4   8   3  360.16   16.00
   4  -8   3  341.07   13.60
  -4   8   3  357.86   15.60
   4   8   3  361.76   17.90
   4   8   3  363.56   17.30
  -4  -8   3  351.36   16.70
  -4  -8   3  359.56   15.50
   4   8   3  387.76   19.90
  -4   8  -3  357.96   13.20
  -4   8  -3  360.16   15.60
   4  -8  -3  362.26   12.50
   5  -8   3  201.18    7.50
  -5   8   3  190.08   11.10
   5   8  -3  193.68   11.60
   5   8  -3  202.58   12.20
  -5   8   3  195.78   11.20
  -5  -8  -3  204.68   14.10
  -5  -8  -3  220.88   13.50
   5   8   3  208.08   12.70
  -5  -8   3  208.98   12.70
  -5   8  -3  203.88    9.30
   5  -8  -3  197.58   10.00
  -5   8  -3  180.98   10.90
  -6   8   3  423.36   18.60
  -6  -8  -3  471.25   21.60
   6   8  -3  409.46   19.30
   6   8  -3  403.66   19.20
   6  -8   3  431.96   14.80
  -6  -8  -3  454.35   23.20
  -6   8   3  462.05   19.00
   6   8   3  432.86   20.50
  -6   8  -3  421.96   18.80
   6  -8  -3  446.06   17.90
  -6  -8   3  433.96   20.60
  -6   8  -3  454.95   16.50
  -7  -8  -3   36.90    7.00
  -7   8   3   29.80    5.70
   7   8  -3   30.90    5.70
   7  -8   3   30.30    4.40
  -7  -8  -3   40.20    8.50
   7  -8  -3   38.60    6.00
  -7  -8   3   27.90    5.80
  -7   8  -3   41.30    5.40
  -8  -8  -3   13.20    6.20
  -8  -8  -3   16.40    5.40
  -8   8   3    8.20    3.60
   8  -8   3    7.30    3.20
  -8   8   3    7.50    3.80
   8   8  -3   14.20    6.80
  -8   8  -3    6.50    3.00
   8  -8  -3   10.40    4.50
  -8  -8   3    7.40    4.20
  -8   8  -3    9.60    4.10
   8   8   3    2.80    3.30
   9   8  -3   40.00    7.30
  -9   8   3   39.00    7.20
  -9   8   3   36.70    6.70
  -9  -8  -3   28.40    7.70
  -9  -8  -3   24.50    6.10
   9  -8   3   31.70    5.60
  -9  -8   3   29.30    6.50
  -9   8  -3   32.60    6.60
  -9   8  -3   33.40    5.20
   9   8   3   34.40    7.50
 -10  -8  -3   30.30    7.10
  10   8  -3   24.20    6.10
 -10   8   3   27.80    6.70
 -10  -8  -3   35.50   10.90
 -10   8   3   24.60    6.20
 -10   8  -3   38.80   11.00
 -10   8  -3   35.40    5.90
 -10  -8   3   31.50    6.50
  10   8   3   31.70    8.20
   0  -9  -3   -0.70    2.00
   0  -9   3    2.20    1.70
   0   9  -3    2.00    1.30
   0   9  -3   -0.70    1.60
   0  -9  -3    3.90    2.30
   0  -9  -3    0.50    1.20
   0  -9   3   -0.50    1.20
   0   9   3   -1.90    1.90
   0  -9   3    1.30    2.10
   0   9   3    2.00    1.60
   0  -9  -3    0.80    1.90
  -1  -9  -3   65.89    6.90
   1  -9   3   58.59    5.20
  -1  -9  -3   66.39    6.10
  -1   9   3   72.09    7.20
   1  -9   3   59.59    6.00
   1  -9   3   57.99    6.10
   1   9  -3   63.39    6.90
   1   9  -3   63.49    5.50
  -1  -9  -3   51.69    5.90
   1  -9  -3   58.49    6.40
  -1   9  -3   62.59    3.60
   1  -9  -3   49.20    6.00
  -1  -9   3   56.99    5.80
   1   9   3   66.69    6.00
   1   9   3   66.19    7.40
  -1   9  -3   64.69    6.60
  -1  -9   3   62.19    5.80
   1  -9  -3   57.79    4.50
  -2  -9  -3  168.28   10.50
   2  -9   3  157.58    8.70
   2   9  -3  176.78   10.10
  -2   9   3  172.48   11.20
   2   9  -3  174.98   10.30
   2   9  -3  156.68   11.00
  -2  -9  -3  160.08   10.90
   2  -9   3  151.78   10.40
  -2   9   3  181.08   10.50
  -2  -9  -3  220.68   12.70
   2  -9   3  156.88    8.80
  -2  -9  -3  176.98   10.80
   2  -9  -3  172.88   10.80
   2  -9  -3  164.18    7.20
   2  -9  -3  175.18   12.40
   2   9   3  169.18   11.10
   2   9   3  183.58   12.00
  -2  -9   3  178.98   10.70
  -2  -9   3  162.98   10.10
  -2   9  -3  180.78   10.70
  -3   9   3  200.08   11.20
  -3  -9  -3  188.08   12.10
  -3  -9  -3  189.18   12.70
   3   9  -3  194.78   11.10
   3   9  -3  197.88   12.30
  -3   9   3  198.18   11.80
   3   9  -3  202.98   12.30
   3  -9   3  193.68    9.60
  -3  -9   3  190.88   11.20
  -3  -9   3  201.88   12.10
   3   9   3  203.38   12.80
  -3   9  -3  181.58   10.90
   3   9   3  191.78   12.80
   3  -9  -3  194.48    7.80
   4   9  -3   38.90    6.50
  -4   9   3   50.29    5.80
  -4  -9  -3   40.00    6.80
   4   9  -3   40.70    7.00
   4   9  -3   29.60    5.00
  -4  -9  -3   34.20    6.20
  -4   9   3   44.70    6.10
   4  -9   3   35.80    4.30
  -4  -9   3   39.70    6.50
  -4   9  -3   39.30    4.10
  -4   9  -3   37.70    5.70
   4  -9  -3   37.90    3.40
   4   9   3   41.90    6.80
   4   9   3   41.00    8.50
  -5   9   3   92.79    8.00
  -5   9   3   89.59    7.80
   5   9  -3  102.79    9.30
  -5  -9  -3  110.79   10.20
   5   9  -3   98.39    9.90
  -5  -9  -3  112.79   10.00
   5  -9  -3  105.69    6.70
  -5  -9   3   94.39    9.10
  -5   9  -3   99.49    8.10
   5   9   3   92.09    9.40
  -5   9  -3   98.69    6.60
  -6  -9  -3  123.09   11.90
  -6   9   3  109.89    9.00
  -6  -9  -3  123.09   11.00
   6   9  -3  124.49   10.20
   6   9  -3  120.59    9.90
  -6   9   3  133.69    9.60
   6  -9   3  125.59    5.70
   6  -9  -3  134.69    8.20
  -6  -9   3  125.19   10.80
  -6   9  -3  128.69    9.70
  -6   9  -3  133.19    7.90
   6   9   3  135.69   11.10
  -7   9   3   19.90    5.80
   7  -9   3   17.20    3.10
  -7  -9  -3   28.80    7.40
   7   9  -3   16.60    4.90
  -7  -9  -3   15.30    5.50
  -7   9   3   16.40    4.30
  -7   9  -3   19.10    4.60
  -7  -9   3   12.20    4.40
   7   9   3   26.90    6.00
   7  -9  -3   18.40    4.20
  -7   9  -3   27.10    4.40
   8   9  -3  132.19   11.60
  -8  -9  -3  140.59   14.10
  -8  -9  -3  120.59   11.80
   8  -9   3  130.09    8.00
  -8   9   3  129.19   10.50
  -8   9   3  134.99   10.70
   8   9   3  111.19   11.60
   8  -9  -3  133.39   12.00
  -8   9  -3  120.39   10.70
  -8  -9   3  131.69   12.40
  -8   9  -3  141.79    9.30
  -9   9   3   26.50    5.80
   9   9  -3   26.90    6.70
  -9   9   3   26.40    5.90
   9  -9   3   27.90    7.80
  -9  -9  -3   36.00    7.60
  -9  -9  -3   31.00    8.90
   9   9   3   18.20    6.20
   9  -9  -3   28.70    6.60
  -9   9  -3   31.70    5.20
  -9   9  -3   28.70    6.00
  -9  -9   3   27.70    7.00
 -10   9   3    3.80    3.70
 -10   9   3    3.70    5.40
 -10  -9  -3    1.40    3.70
  10   9  -3    5.20    4.40
 -10  -9   3    3.40    4.70
 -10   9  -3    7.70    3.90
   0 -10  -3  923.41   29.40
   0  10  -3  952.50   33.50
   0  10   3  892.61   29.40
   0 -10  -3  979.70   33.50
   0 -10   3  936.21   30.50
   0  10  -3  954.20   28.40
   0 -10   3  923.91   35.50
   0 -10   3  988.80   31.30
   0  10   3  897.91   33.90
   1  10  -3  253.17   11.90
  -1  10   3  234.38   14.30
  -1 -10  -3  229.28   12.00
   1  10  -3  234.38   14.00
   1 -10   3  224.48   11.40
  -1 -10  -3  273.27   14.70
   1 -10   3  274.67   12.30
   1  10   3  215.88   14.10
  -1  10  -3  252.17    8.60
   1  10   3  244.68   12.50
  -1 -10   3  251.97   15.30
  -1 -10   3  231.38   12.50
   1 -10  -3  241.28   10.30
  -1  10  -3  229.78   13.40
   1 -10  -3  246.98   14.80
  -2  10   3 1778.02   54.59
   2  10  -3 1701.93   54.69
  -2  10   3 1816.62   52.69
   2 -10   3 1778.02   50.19
   2 -10   3 1569.44   49.40
  -2 -10  -3 1675.23   52.69
   2  10  -3 1665.73   51.59
  -2 -10  -3 1828.82   54.99
   2  10  -3 1799.02   52.49
  -2  10  -3 1693.83   52.69
  -2 -10   3 1768.12   52.89
   2  10   3 1723.03   55.39
   2  10   3 1840.72   53.99
   2 -10  -3 1778.22   46.90
  -3  10   3   74.49    7.20
   3 -10   3   73.99    7.00
   3  10  -3   83.09    7.50
  -3 -10  -3   78.59    8.50
  -3  10   3   73.79    7.80
  -3 -10  -3   77.29    7.90
   3  10  -3   64.69    7.70
   3  10  -3   76.79    7.70
   3  10   3   79.99    8.40
  -3  10  -3   73.59    7.40
   3  10   3   73.19    8.10
  -3 -10   3   70.39    7.60
   3 -10  -3   79.29    4.50
   3  10   3   78.19    8.50
  -4 -10  -3 1618.04   53.69
  -4  10   3 1631.54   50.79
  -4  10   3 1644.54   51.99
   4  10  -3 1799.92   59.89
  -4 -10  -3 1671.03   54.59
   4  10  -3 1723.03   54.29
   4  10  -3 1681.73   51.99
  -4 -10   3 1683.23   56.49
  -4  10  -3 1729.93   48.10
  -4  10  -3 1668.93   51.59
   4  10   3 1751.42   55.19
   4 -10  -3 1738.63   45.00
  -5 -10  -3    9.00    4.70
  -5  10   3   18.70    4.70
  -5  10   3   21.10    4.70
   5  10  -3   14.30    4.70
  -5 -10  -3   16.50    5.20
   5 -10  -3   18.80    2.70
  -5  10  -3   18.90    3.60
  -5 -10   3   15.30    4.80
  -5  10  -3   19.60    4.80
   5  10   3   29.90    6.80
   5 -10  -3   12.70    2.60
  -6  10   3  278.87   15.30
  -6 -10  -3  273.47   17.30
  -6 -10  -3  298.27   18.30
   6  10  -3  264.17   16.30
  -6  10   3  294.07   15.20
   6  10   3  259.77   16.70
  -6 -10   3  290.77   17.30
  -6  10  -3  282.57   12.80
  -6  10  -3  250.77   14.60
   6 -10  -3  267.47   12.00
  -7 -10  -3   85.19   11.00
  -7 -10  -3  109.59   11.40
  -7  10   3  113.49   10.00
   7  10  -3   94.99   10.30
   7 -10   3   95.29    5.60
  -7  10   3   94.29    9.00
  -7  10  -3   98.99    9.20
  -7 -10   3  103.09   11.10
   7  10   3   99.89   10.70
  -7  10  -3  101.49    7.70
   7 -10  -3  102.69    7.80
  -8  10   3  132.49   10.60
   8 -10   3  116.69    6.80
   8  10  -3   97.49   10.50
  -8 -10  -3  127.09   12.30
  -8 -10  -3  109.09   12.40
  -8  10   3   92.89    9.70
  -8  10  -3   99.19    8.20
   8  10   3  103.29   11.80
  -8  10  -3  102.19    9.90
   8 -10  -3  120.99    9.20
  -8 -10   3  117.69   12.40
   9  10  -3   36.00    7.90
  -9 -10  -3   35.10    7.70
  -9  10   3   42.30    7.40
  -9  10   3   39.40    7.00
   9 -10   3   26.30    5.40
  -9 -10  -3   29.50    8.80
   9  10   3   41.70    8.30
  -9 -10   3   41.40    8.20
  -9  10  -3   37.90    7.30
   9 -10  -3   33.50    6.20
  -9  10  -3   42.10    6.30
 -10 -10  -3  166.98   16.90
 -10 -10  -3  167.88   15.40
 -10  10   3  138.39   12.20
 -10  10   3  140.69   14.40
 -10 -10   3  171.98   15.70
 -10  10  -3  159.78   11.20
  10  10   3  171.68   15.40
 -10  10  -3  157.58   13.50
   0 -11  -3    1.90    2.00
   0 -11   3    3.40    2.10
   0  11  -3   -1.40    2.30
   0  11  -3   -1.50    1.40
   0  11   3   -1.10    1.90
   0  11   3   -0.50    2.40
   0 -11  -3    1.80    2.60
   1  11  -3   16.10    3.70
   1  11  -3    6.90    3.70
  -1 -11  -3   12.70    3.60
  -1 -11  -3    4.90    3.20
   1 -11   3    6.00    2.50
  -1  11   3    2.70    3.10
  -1  11  -3    2.50    2.80
   1  11   3    1.90    2.50
   1 -11  -3    2.90    2.90
   1 -11  -3    1.50    1.70
  -1 -11   3    3.60    2.70
   1  11   3    1.10    3.10
  -2  11   3    6.10    4.10
   2  11  -3    3.60    2.70
  -2 -11  -3    4.50    3.30
   2 -11   3    9.00    2.80
   2  11  -3    5.90    3.30
   2  11  -3    7.00    3.30
  -2 -11  -3    2.00    2.60
   2  11   3    5.20    4.20
   2  11   3    9.30    4.10
  -2 -11   3    5.80    2.90
   2 -11  -3    5.60    2.00
  -2  11  -3    4.00    3.20
   3  11  -3  279.27   15.50
  -3 -11  -3  254.97   14.70
  -3  11   3  257.47   14.40
   3  11  -3  264.07   15.90
   3  11  -3  283.87   15.00
  -3 -11  -3  262.97   16.10
  -3  11   3  259.97   15.50
   3  11   3  266.17   16.80
  -3  11  -3  256.27   14.80
   3  11   3  276.57   16.00
  -3 -11   3  262.97   15.40
   3 -11  -3  282.37    9.70
  -4 -11  -3   22.20    5.50
   4  11  -3   17.40    4.40
  -4  11   3   30.20    5.60
   4  11  -3   33.00    6.50
  -4 -11  -3   25.70    5.70
  -4  11   3   18.80    5.00
   4  11   3   34.80    6.90
  -4  11  -3   30.60    5.50
   4 -11  -3   27.40    2.90
   4 -11  -3   30.10    2.70
  -4 -11   3   29.20    6.10
  -5 -11  -3   20.90    6.10
  -5  11   3   14.90    5.20
  -5  11   3   19.30    5.00
   5  11  -3   13.30    5.00
  -5 -11  -3   22.00    5.80
   5  11  -3   16.30    4.60
   5  11   3   22.60    6.20
  -5 -11   3   13.30    5.00
  -5  11  -3   11.60    6.40
  -5  11  -3   20.20    3.90
   5 -11  -3   19.70    2.50
   5 -11  -3   14.80    2.80
  -6  11   3   27.80    5.20
  -6 -11  -3   30.60    8.10
   6  11  -3   25.10    7.60
  -6  11   3   28.30    6.00
  -6  11  -3   25.20    4.50
   6 -11  -3   28.40    3.40
   6  11   3   24.20    6.90
  -6 -11   3   39.20    8.00
  -6  11  -3   30.20    6.10
   6 -11  -3   23.40    3.70
   7  11  -3    4.10    4.60
  -7 -11  -3   11.50    5.00
  -7  11   3    2.80    2.90
  -7 -11  -3   10.70    5.40
  -7  11   3   15.20    5.20
  -7 -11   3    4.20    4.20
  -7  11  -3    8.70    4.60
   7 -11  -3    6.60    2.50
  -7  11  -3    2.20    3.20
   7 -11  -3    6.80    2.70
   7  11   3   -3.90    3.40
  -8 -11  -3    9.90    5.30
  -8 -11  -3    5.10    5.50
  -8  11   3   -0.30    3.30
   8  11  -3   -0.40    3.80
  -8  11   3    8.90    4.60
  -8 -11   3    8.30    5.00
   8  11   3    3.60    4.20
  -8  11  -3    3.60    4.10
  -8  11  -3    2.40    2.80
   8 -11  -3    2.60    3.20
  -9  11   3   13.40    5.20
  -9 -11  -3   10.90    5.40
   9  11  -3   23.20    6.40
  -9  11   3   17.60    5.20
  -9  11  -3   25.00    5.10
  -9 -11   3   11.60    6.20
  -9  11  -3   22.10   10.40
   0 -12   3  471.75   19.80
   0  12   3  439.56   17.40
   0 -12  -3  475.05   21.50
   0 -12  -3  443.46   17.50
   0  12  -3  469.75   16.10
   0  12   3  439.46   22.40
   0  12  -3  433.66   21.50
  -1 -12  -3   26.00    4.80
   1 -12   3   26.40    4.90
  -1  12   3   13.60    4.80
   1  12  -3   20.20    5.40
  -1 -12  -3   26.80    5.50
   1  12  -3   23.60    4.30
   1 -12  -3   33.50    6.40
  -1  12  -3   18.70    5.50
  -1 -12   3   31.40    5.50
   1  12   3   21.20    4.40
   1 -12  -3   26.60    3.90
   1  12   3   24.00    6.40
  -2  12   3  536.65   24.70
  -2 -12  -3  553.74   24.60
  -2 -12  -3  526.75   22.00
   2  12  -3  525.25   25.20
   2 -12   3  604.94   21.90
   2  12  -3  568.64   22.60
  -2  12  -3  513.65   23.70
  -2 -12   3  531.65   23.30
   2  12   3  515.95   25.50
   2 -12  -3  541.85   17.40
  -3  12   3    6.60    3.30
  -3 -12  -3    7.30    3.60
   3  12  -3   14.20    4.10
   3  12  -3   10.10    5.00
   3  12  -3    7.60    3.40
  -3  12   3    5.20    3.50
  -3 -12  -3   10.20    3.90
   3 -12   3   10.60    3.10
  -3  12  -3   13.30    4.70
   3  12   3   12.10    5.30
  -3 -12   3    8.80    3.50
   3 -12  -3    6.90    1.70
  -4  12   3  280.37   15.50
  -4 -12  -3  251.87   16.60
  -4  12   3  265.57   16.40
   4  12  -3  247.58   16.70
  -4 -12  -3  257.17   16.00
  -4 -12   3  281.27   16.80
  -4  12  -3  259.17   15.60
   4  12   3  277.57   18.00
  -5 -12  -3    0.50    2.80
   5  12  -3    1.80    3.40
  -5 -12  -3    1.90    3.90
  -5  12   3    0.90    2.40
  -5  12   3    3.00    3.60
   5  12  -3    5.00    4.20
  -5 -12   3    2.00    3.40
   5  12   3    4.20    4.50
  -5  12  -3    2.70    3.40
   6  12  -3   89.79   11.90
  -6 -12  -3   95.79   11.10
  -6  12   3   96.19    9.50
  -6  12   3   97.09    9.40
  -6 -12  -3   75.19   10.70
   6  12   3   69.99   10.60
  -6 -12   3   89.59   10.60
   6 -12  -3   95.79    4.90
  -6  12  -3   98.29    7.80
  -6  12  -3   88.69    9.30
  -7 -12  -3   34.60    8.20
  -7  12   3   27.10    5.50
   7  12  -3   33.50    7.50
  -7  12   3   32.20    6.80
  -7 -12  -3   28.20    7.60
   7  12   3   25.80    7.30
  -7  12  -3   28.70    5.30
  -7  12  -3   25.00    6.40
   7 -12  -3   26.30    3.30
  -7 -12   3   25.70    7.40
   8  12  -3  140.59   13.60
  -8  12   3  138.99   12.10
  -8  12   3  102.99   10.30
  -8 -12  -3  129.19   13.40
  -8 -12  -3  132.79   13.80
   8 -12  -3  112.69    6.90
  -8  12  -3  123.19    9.60
  -8 -12   3  120.89   13.40
  -8  12  -3  106.09   16.70
  -9  12   3    2.80    3.60
   9  12  -3    4.50    6.40
  -9 -12  -3    5.10    8.50
  -9 -12  -3   -3.20    4.90
   9  12   3    9.80    5.90
  -9  12  -3    1.20    3.30
  -9 -12   3   -4.00    3.90
  -9  12  -3    1.80    3.90
   0 -13   3    4.50    3.00
   0 -13  -3    0.40    2.90
   0  13   3   -0.10    2.10
   0  13  -3    0.20    3.50
   0  13   3    0.50    3.60
   0 -13  -3    4.50    2.60
   0  13  -3   -2.10    1.60
   1  13  -3   23.10    6.20
   1  13  -3   32.20    4.80
  -1  13   3   28.90    6.40
  -1 -13  -3   38.20    5.70
   1 -13   3   42.80    6.20
  -1 -13  -3   36.80    7.10
  -1 -13   3   56.29    7.70
   1 -13  -3   26.00    5.70
   1  13   3   24.40    7.30
   1  13   3   27.30    5.00
   1 -13  -3   27.30    3.70
  -1  13  -3   24.60    6.20
   2  13  -3   35.30    7.70
   2  13  -3   39.30    6.10
  -2 -13  -3   46.00    7.60
  -2 -13  -3   47.80    6.80
   2 -13   3   47.70    6.70
   2 -13  -3   40.60    3.50
   2  13   3   47.10    7.00
   2  13   3   37.30    8.50
   2 -13  -3   39.30    7.00
  -2 -13   3   42.50    6.80
  -3 -13  -3  586.64   26.20
  -3  13   3  493.05   24.20
   3  13  -3  522.35   23.00
  -3 -13  -3  531.35   23.00
   3  13  -3  514.05   23.50
   3 -13   3  510.55   21.00
  -3 -13   3  540.75   24.70
   3  13   3  507.05   26.10
  -3  13  -3  471.25   23.40
  -4  13   3   10.00    3.90
  -4 -13  -3    3.50    3.40
  -4  13   3    5.70    4.30
   4  13  -3    9.30    4.60
  -4 -13  -3    8.00    4.00
   4  13   3    5.40    4.30
  -4 -13   3   16.70    5.00
  -4  13  -3    5.30    3.60
  -5  13   3   51.49    7.60
  -5  13   3   50.19    8.50
  -5 -13  -3   58.09    8.90
   5  13  -3   62.19    9.90
  -5 -13  -3   49.40    8.60
  -5  13  -3   50.89    8.00
  -5 -13   3   62.89    9.70
   5  13   3   53.89   10.20
  -6  13   3    3.20    4.00
  -6 -13  -3    6.00    4.70
  -6 -13  -3   -0.30    4.10
   6  13  -3    7.10    5.20
  -6  13   3    3.40    3.20
  -6 -13   3    6.90    4.80
  -6  13  -3    1.80    3.60
   6  13   3   -1.40    3.60
  -7 -13  -3    0.70    4.00
   7  13  -3   -0.90    4.40
  -7  13   3    4.10    3.60
  -7 -13  -3    4.10    4.60
  -7  13   3    1.80    4.40
  -7  13  -3    0.90    3.80
   7  13   3   -1.30    5.30
  -7  13  -3    0.10    3.00
  -7 -13   3   -5.70    4.90
  -8  13   3   38.20    8.10
  -8 -13  -3   38.90    8.40
  -8 -13  -3   44.60    9.60
   8  13  -3   43.90    9.60
  -8  13   3   35.20   11.40
   8  13   3   46.90   10.60
  -8  13  -3   52.29    8.50
  -8 -13   3   58.39   11.40
  -8  13  -3   53.79    7.20
   0 -14   3   59.39    7.90
   0  14  -3   65.49    9.80
   0 -14  -3   62.89    6.00
   0  14   3   55.39    9.70
   0  14   3   51.59    5.80
   0 -14  -3   74.49    8.80
   0  14  -3   59.69    4.70
  -1 -14  -3   26.00    6.20
   1  14  -3   19.20    3.90
   1  14  -3   21.10    6.20
   1 -14   3   16.50    4.20
  -1  14   3   21.90    6.30
   1  14   3   12.10    4.90
   1  14   3   16.40    5.80
  -1 -14   3   19.10    5.00
  -1  14  -3   17.90    5.60
   1 -14  -3   26.90    3.60
   1 -14  -3   18.90    5.80
  -2  14   3   17.20    6.00
   2  14  -3   14.30    5.50
   2 -14   3   16.90    4.90
  -2 -14  -3   18.20    4.60
   2  14  -3   20.90    5.60
  -2 -14  -3   21.40    6.10
  -2  14  -3   18.50    5.50
   2  14   3   14.10    4.70
   2 -14  -3   24.20    5.90
   2 -14  -3   22.80    2.60
   2  14   3   15.90    5.90
   3  14  -3   -0.70    4.10
  -3 -14  -3    3.30    3.80
  -3  14   3    4.50    4.70
  -3 -14  -3    7.00    4.10
   3 -14   3    7.10    3.60
  -3  14  -3    0.10    2.70
  -3 -14   3    5.40    4.50
   3  14   3    2.10    4.20
  -4 -14  -3  133.99   14.20
  -4  14   3  128.29   12.00
   4 -14   3  131.09   10.40
   4  14  -3  122.39   11.20
  -4 -14  -3  139.79   11.50
   4  14  -3  136.49   13.90
  -4  14   3  125.19   11.20
   4  14   3  105.19   13.10
  -4  14  -3  152.98   12.50
  -4 -14   3  125.69   12.30
   5  14  -3   10.80    5.10
  -5 -14  -3   22.40    6.90
  -5 -14  -3    7.60    4.70
  -5  14   3   14.80    5.70
  -5  14   3   30.30    6.30
  -5  14  -3   18.10    6.00
  -5 -14   3   21.20    6.50
   5  14   3   21.80    7.30
  -6  14   3    3.90    3.70
  -6 -14  -3    0.20    3.90
  -6 -14  -3    6.20    5.30
  -6  14   3    3.10    3.80
   6  14  -3   -6.80    3.30
  -6  14  -3   -4.40    2.90
   6  14   3    0.50    4.70
  -6 -14   3    1.50    5.20
  -7  14   3   -3.40    6.80
   7  14  -3    0.60    5.20
  -7  14   3   -3.70    3.10
  -7 -14  -3    0.60    4.60
  -7 -14  -3    4.60    5.00
   7  14   3    5.00    9.10
  -7 -14   3   -7.30    4.60
   0  15   3    0.30    2.50
   0 -15  -3    0.60    3.70
   0  15   3    0.80    4.20
   0  15  -3    3.00    4.20
   0 -15   3    8.40    3.90
   0 -15  -3    0.10    2.40
   1  15  -3   88.99    6.90
  -1 -15  -3   93.89   10.30
  -1  15   3   85.69   11.90
   1  15  -3   88.59   11.00
  -1 -15  -3   84.99    7.70
   1 -15   3   93.19    9.10
   1 -15  -3   79.79    5.40
  -1 -15   3   78.89    9.50
   1  15   3   86.39    8.80
   1 -15  -3   84.59   10.00
  -1  15  -3   93.09   10.70
   1  15   3   79.59   11.60
   2  15  -3   11.40    6.10
  -2  15   3    3.70    4.90
   2  15  -3   -1.00    4.20
  -2 -15  -3   10.60    4.00
  -2 -15  -3    0.30    3.10
   2 -15   3   10.00    3.80
  -2  15  -3    8.50    4.90
   2  15   3    4.90    4.50
   2 -15  -3    7.70    4.60
  -2 -15   3    7.40    4.50
   3 -15   3  152.08   11.20
   3  15  -3  176.68   16.00
  -3 -15  -3  148.19   14.30
  -3  15   3  156.08   13.50
  -3 -15  -3  140.19   11.20
   3 -15  -3  165.58   13.50
  -3  15  -3  123.99   12.30
   3  15   3  153.08   14.70
  -3 -15   3  157.48   13.40
  -4 -15  -3    6.00    5.10
  -4  15   3    2.60    4.70
  -4 -15  -3    6.30    4.20
   4  15  -3    2.00    5.40
   4 -15   3    6.90    4.00
  -4  15  -3   -2.70    4.10
  -4 -15   3   -1.60    3.80
   4  15   3    0.00    4.10
  -5 -15  -3   23.20    6.10
   5  15  -3   10.40    6.20
   5 -15   3   14.00    4.90
  -5  15   3   16.90    5.80
  -5 -15  -3   10.50    5.40
  -5  15   3   15.90    5.20
   5  15   3   15.20    6.90
  -5  15  -3   16.10    5.90
  -5 -15   3   25.60    6.80
  -6 -15  -3    5.50    5.20
   6  15  -3   11.30    5.90
  -6 -15  -3    2.80    4.90
  -6  15   3    8.90    4.80
  -6  15   3    6.90    5.30
  -6 -15   3    4.40    5.90
   6  15   3   11.60    7.30
   0  16   3  171.08   15.70
   0  16  -3  153.68   14.20
   0 -16   3  192.48   14.60
   0 -16  -3  203.08   15.30
   0 -16  -3  177.68    9.60
  -1 -16  -3   64.99    7.20
   1 -16   3   75.29    8.60
   1  16  -3   71.29    5.90
  -1  16   3   55.39    9.70
  -1 -16  -3   65.09    9.80
   1  16  -3   52.99    9.10
  -1  16  -3   58.59    9.80
  -1 -16   3   68.99    9.70
   1  16   3   59.69   10.60
   1 -16  -3   62.19    9.40
  -2  16   3  329.47   20.60
  -2 -16  -3  300.27   15.70
   2  16  -3  310.77   20.70
   2  16  -3  311.87   21.50
  -2 -16  -3  320.17   19.90
   2 -16   3  338.97   17.70
   2  16   3  310.97   21.10
  -2  16  -3  259.87   18.20
   2 -16  -3  331.67   19.40
  -2 -16   3  357.56   19.90
   3  16  -3    1.20    5.60
  -3 -16  -3   10.50    4.80
   3 -16   3   17.60    5.10
  -3  16   3    2.40    4.80
  -3 -16  -3   12.20    4.60
   3  16   3   16.00    7.40
   3 -16  -3   13.50    5.30
  -3 -16   3   13.90    6.00
  -3  16  -3    6.00    5.00
  -4  16   3  253.07   20.90
  -4 -16  -3  308.17   20.20
   4  16  -3  312.37   21.50
   4 -16   3  324.77   17.60
  -4 -16  -3  289.27   19.90
  -4 -16   3  313.67   20.40
   4  16   3  272.87   24.80
   4 -16  -3  311.67   19.60
   5  16  -3   18.70   13.10
   5 -16   3   33.70    6.80
  -5 -16  -3   36.10    8.30
  -5 -16  -3   29.40    7.10
   5  16   3   25.90    9.00
  -5 -16   3   21.10    7.50
  -5  16  -3   18.70    6.10
   0 -17   3    8.10    4.40
   0 -17  -3    2.90    3.80
   0  17  -3   -5.80    3.60
  -1 -17  -3    2.40    2.90
  -1 -17  -3    8.30    4.30
   1  17  -3    7.30    5.20
  -1 -17   3   14.30    5.70
  -1  17  -3   12.50    6.50
   2  17  -3   67.39   12.90
   2 -17   3   74.19    9.20
  -2 -17  -3   62.69    8.00
  -2 -17  -3   69.59   10.40
  -2  17   3   79.19   11.90
  -2  17  -3   53.09   10.60
  -2 -17   3   92.59   11.10
   2 -17  -3   51.19   10.10
   2  17   3   70.69   13.70
  -3 -17  -3    3.30    4.00
   3 -17   3    0.00    4.40
   3  17  -3    6.60    6.50
  -3 -17  -3    4.60    4.90
   3  17   3   -2.90    5.20
  -3 -17   3    5.70    5.50
  -4  17   3   21.00    6.50
  -4 -17  -3   30.60    6.80
   4 -17   3   30.30    6.40
  -4 -17  -3   29.40    7.30
   4  17  -3   26.60   10.20
   4  17   3   15.80    8.10
  -4  17  -3   24.00    7.10
   4 -17  -3   35.80    8.30
  -4 -17   3   31.70    7.80
   0 -18   3  149.19   13.10
   0 -18  -3  137.19   13.40
   0  18  -3  156.48   15.10
   0  18   3  128.79   14.60
   1  18  -3   17.10    6.70
  -1 -18  -3   10.70    5.70
  -1  18   3    3.80    5.90
   1 -18   3    4.50    5.40
   1  18   3   -5.30    5.30
  -1 -18   3   15.80    5.70
  -1  18  -3    4.60    4.90
   1 -18  -3    8.90    5.90
   0   0  -4  572.44   14.80
   0   0  -4  554.54   15.90
   0   0   4  588.84   16.30
   0   0  -4  572.34   17.80
  -1   0  -4 3495.65   84.69
  -1   0  -4 3387.06   86.89
  -1   0  -4 3396.56   84.99
  -1   0  -4 3369.06   84.29
   1   0  -4 3368.06   84.99
   1   0   4 3197.98   86.59
   2   0   4 7466.55  185.08
  -2   0  -4 7385.66  185.08
   2   0   4 7169.78  182.88
  -3   0  -4  189.38    7.30
  -3   0   4  177.58    8.10
   3   0   4  169.78    7.70
   3   0   4  177.68    9.40
  -3   0  -4  182.38    7.70
   3   0  -4  173.88    7.90
  -3   0   4  179.58    6.60
  -3   0  -4  164.08    9.20
   4   0   4 4891.71  128.89
  -4   0   4 4914.41  123.19
  -4   0  -4 4866.51  129.39
  -4   0  -4 4859.11  124.69
  -4   0   4 4980.10  125.79
  -4   0  -4 5030.50  124.09
   4   0   4 4625.14  124.79
   4   0  -4 4929.81  125.39
   5   0  -4 1464.95   43.50
  -5   0  -4 1568.24   45.40
  -5   0   4 1527.15   44.10
  -5   0  -4 1565.64   43.20
  -5   0   4 1487.05   41.50
   5   0  -4 1528.75   47.50
  -5   0  -4 1449.06   48.70
   5   0   4 1513.55   47.70
   5   0   4 1444.06   43.30
  -6   0  -4  109.89    7.00
   6   0   4  106.39    9.70
  -6   0   4  121.39    8.20
   6   0  -4  112.89    9.40
  -6   0   4  109.19    6.60
   6   0  -4  119.89    8.00
  -6   0  -4  116.89   10.40
  -6   0  -4  119.39    7.50
   6   0   4  112.39    7.80
  -7   0   4  389.06   15.90
  -7   0  -4  401.26   21.30
  -7   0   4  435.36   18.40
  -7   0  -4  410.86   16.60
  -8   0   4  873.91   31.70
  -8   0  -4  864.31   29.60
  -8   0  -4  876.91   36.60
  -9   0  -4  165.18   10.80
  -9   0  -4  177.78   15.10
  -9   0   4  160.08   14.20
 -10   0  -4  321.47   21.60
 -10   0  -4  324.27   16.80
 -10   0   4  349.57   18.90
 -11   0  -4  100.39    9.80
 -11   0  -4   88.39   13.30
 -11   0   4  101.29   10.80
 -12   0  -4   -1.20    2.90
 -12   0   4   -2.10    3.40
   0  -1  -4   -0.60    0.70
   0  -1  -4   -0.20    0.50
   0  -1  -4   -0.60    0.50
   0  -1   4   -0.90    0.30
   0   1   4   -0.10    0.40
   0   1  -4   -0.20    0.40
   0   1  -4    1.20    0.60
  -1   1   4    6.10    1.40
  -1  -1  -4    4.30    1.30
  -1  -1  -4    6.60    1.70
  -1   1   4    6.90    1.00
  -1  -1  -4    7.70    1.50
  -1  -1  -4    7.50    1.20
   1   1  -4    8.10    1.30
   1  -1   4   11.80    2.00
   1   1   4    6.20    1.70
  -1  -1   4    9.50    0.80
   1   1   4    5.90    1.10
   1  -1  -4    5.00    1.10
  -1   1  -4    4.90    1.30
  -1   1  -4    7.00    0.80
  -1  -1   4    7.50    1.30
   1  -1  -4    5.70    0.70
  -1   1  -4    6.40    0.80
   2  -1   4  946.61   27.70
   2   1  -4  967.30   26.50
   2  -1   4  924.51   25.60
  -2   1   4  932.31   24.90
  -2  -1  -4  951.70   26.80
  -2  -1  -4  965.20   26.30
  -2   1   4  917.71   26.90
  -2  -1  -4  942.91   28.60
   2   1   4  924.11   28.80
  -2  -1   4  990.70   26.80
  -2   1  -4  950.30   28.00
  -2  -1   4  936.81   24.70
   2  -1  -4  927.11   26.90
   2   1   4  898.21   27.40
  -2   1  -4  956.50   24.80
   2   1   4  944.11   26.20
   3  -1   4 1091.79   31.30
  -3   1   4 1199.28   33.00
  -3  -1  -4 1121.09   35.20
  -3  -1  -4 1139.99   32.10
   3  -1   4 1151.98   34.00
  -3  -1  -4 1158.38   32.10
   3   1  -4 1130.19   32.30
   3   1   4 1132.09   32.10
  -3   1  -4 1148.39   30.60
  -3   1  -4 1148.49   31.90
  -3  -1   4 1158.78   32.80
  -3   1  -4 1106.99   34.40
   3  -1  -4 1107.29   32.40
   3   1   4 1098.99   32.80
   3   1   4 1178.58   35.80
  -3  -1   4 1156.58   30.60
   4   1  -4   98.29    6.10
   4  -1   4   98.59    5.80
   4  -1   4  103.09    7.40
  -4  -1  -4  106.99    6.20
  -4  -1  -4  104.29    8.20
  -4  -1  -4   93.29    5.70
   4  -1  -4  108.19    6.40
   4   1   4   88.89    7.70
  -4   1  -4  108.29    6.10
  -4  -1   4  110.39    6.70
   4   1   4   89.19    6.10
  -4  -1   4   98.19    5.20
  -4   1  -4  101.59    5.30
  -4   1  -4   92.99    7.50
  -5   1   4   86.09    6.40
   5  -1   4   78.59    7.20
   5  -1   4   81.19    5.70
  -5  -1  -4   81.19    5.80
  -5   1   4   71.49    4.90
   5   1  -4   66.39   12.50
   5   1  -4   71.99    5.70
  -5  -1   4   83.89    5.20
  -5   1  -4   65.89    7.20
   5   1   4   73.19    7.60
  -5   1  -4   84.89    5.40
   5  -1  -4   87.39    6.30
  -5  -1   4   85.89    6.50
   6  -1   4   10.80    3.90
  -6   1   4   16.70    3.00
   6   1  -4   12.70    4.00
  -6   1   4   11.00    2.90
  -6  -1  -4   17.40    3.50
  -6  -1  -4   21.70    5.50
  -6  -1  -4   12.70    2.90
   6  -1   4   19.70    3.90
  -6   1  -4   10.40    2.30
  -6  -1   4   13.70    2.80
   6  -1  -4   13.60    4.10
  -6   1  -4   12.70    4.10
  -6  -1   4   26.80    4.60
   6   1   4   15.80    3.30
   6   1   4   11.00    4.00
   6  -1  -4   16.70    3.50
  -6   1  -4   15.80    3.10
  -7   1   4   12.30    3.00
  -7  -1  -4   10.50    3.10
  -7   1   4    7.30    2.90
   7  -1   4   13.00    3.90
  -7  -1  -4    0.50    3.30
  -7   1  -4    7.60    2.50
  -7  -1   4    5.80    2.20
  -7  -1   4   11.90    3.80
  -7   1  -4   13.00    4.50
  -8  -1  -4  111.89    8.70
  -8  -1  -4  115.69   12.10
  -8   1   4  117.69    9.60
  -8   1  -4  128.69    8.70
  -8   1  -4  110.19   11.40
  -8  -1   4  117.99    9.70
  -9  -1  -4   59.99   10.20
  -9  -1  -4   74.59    7.50
  -9   1   4   70.79    8.10
  -9   1  -4   66.19    7.10
  -9   1  -4   63.59   10.00
 -10  -1  -4   -2.00    3.80
 -10   1   4   -3.00    2.40
 -10  -1  -4    1.20    2.50
 -10   1  -4    2.50    4.00
 -10  -1   4   -1.10    2.90
 -10   1  -4   -1.40    2.20
 -11  -1  -4   14.60    4.60
 -11  -1  -4   11.50    5.70
 -11   1  -4   16.90    4.60
 -11  -1   4   14.00    5.30
 -11   1  -4    7.20    5.70
 -12  -1  -4   -7.00    2.60
 -12  -1  -4  -14.30    5.90
 -12   1   4    1.90    3.90
 -12   1  -4    1.80    5.10
 -12   1  -4   -5.30    2.70
 -12  -1   4   -4.90    3.40
   0   2   4  348.07   12.00
   0   2   4  348.87   10.60
   0   2  -4  354.16    9.40
   0   2   4  338.07   12.40
   0  -2  -4  344.37   10.90
   0  -2   4  344.57   10.10
   0  -2  -4  323.97   11.90
   0   2  -4  335.67   11.00
   0  -2  -4  345.37   11.70
  -1  -2  -4 1005.90   29.20
  -1  -2  -4 1019.00   28.80
  -1   2   4 1030.80   28.30
  -1  -2  -4  913.91   28.70
   1   2  -4 1017.40   26.70
   1   2  -4 1019.80   26.30
  -1   2   4  968.30   27.30
  -1  -2  -4 1001.40   27.30
  -1   2  -4  991.90   26.70
  -1  -2   4 1026.30   26.90
   1  -2  -4 1055.59   26.70
   1  -2  -4  993.30   28.20
   1   2   4  960.80   29.50
  -1  -2   4  967.60   26.70
  -1   2  -4  995.60   28.30
   1   2   4  994.70   27.20
   2   2  -4 4024.50  102.79
   2  -2   4 3949.00  101.09
  -2   2   4 4129.99  101.99
  -2  -2  -4 4157.48  104.39
  -2  -2  -4 4104.69  103.09
   2  -2   4 4089.79  103.69
   2   2  -4 4028.40  101.59
  -2   2  -4 4165.68  100.29
   2  -2  -4 4014.50  103.69
   2   2   4 3854.81  104.89
   2   2   4 4206.28  103.29
   2   2   4 4015.00  106.39
  -2  -2   4 4126.29  103.29
  -2  -2   4 4073.59  101.69
  -2   2  -4 4020.70  104.19
  -3  -2  -4    8.10    1.80
   3  -2   4   12.00    1.90
   3   2  -4   12.00    2.20
   3  -2   4   10.60    2.30
  -3  -2  -4   11.50    2.40
   3   2  -4   10.50    1.70
  -3   2   4    9.60    1.70
  -3  -2  -4    7.60    2.60
  -3   2   4    8.70    1.90
   3   2   4    7.80    2.00
  -3   2  -4    8.90    2.30
  -3   2  -4   11.00    1.40
   3   2   4    9.00    2.80
   3   2   4    6.40    1.90
  -3  -2   4    7.30    1.80
  -4  -2  -4 3618.14   95.29
   4  -2   4 3712.53   96.89
   4   2  -4 3649.14   93.69
  -4  -2  -4 3670.53   95.09
  -4  -2  -4 3629.14   99.99
   4   2  -4 3681.53   95.39
   4  -2   4 3497.75   93.69
  -4   2   4 3911.21   96.19
   4  -2  -4 3602.04   95.49
   4   2   4 3630.14   95.19
  -4  -2   4 3773.02   96.09
   4   2   4 3614.44   96.49
  -4   2  -4 3539.85   97.99
   4   2   4 3506.45  100.39
  -4   2  -4 3715.63   92.69
  -4  -2   4 3716.33   93.49
   5   2  -4  543.45   25.20
   5  -2   4  495.15   17.70
  -5  -2  -4  522.55   23.10
  -5  -2  -4  509.75   18.40
  -5  -2  -4  517.65   18.60
   5  -2   4  518.85   20.30
   5   2  -4  525.55   18.90
   5   2   4  498.25   18.60
   5   2   4  508.05   20.30
  -5   2  -4  515.25   21.70
   5   2   4  476.55   22.50
   5  -2  -4  496.95   18.60
  -5  -2   4  549.15   19.60
  -5  -2   4  537.05   17.40
  -5   2  -4  530.65   16.80
   6   2  -4   32.50    7.00
  -6  -2  -4   48.90    4.90
   6   2  -4   40.50    4.80
  -6  -2  -4   50.79    5.20
  -6   2   4   46.30    5.20
   6  -2   4   37.40    4.30
  -6   2   4   40.00    4.10
   6  -2   4   55.69    8.40
  -6  -2  -4   46.30    7.80
  -6  -2   4   47.30    5.50
   6  -2  -4   38.10    4.80
   6  -2  -4   37.40    9.50
  -6  -2   4   49.99    4.50
  -6   2  -4   41.00    8.00
   6   2   4   41.00    7.40
  -6   2  -4   41.50    4.10
   6   2   4   37.00    5.90
  -6   2  -4   29.40    4.30
  -7  -2  -4   82.79    9.70
  -7   2   4  107.09    8.40
  -7  -2  -4   92.79    7.60
  -7   2   4   96.79    6.80
   7  -2   4   85.79    8.90
  -7   2  -4   92.79    6.60
  -7  -2   4  112.89    9.00
  -7  -2   4  105.99    7.20
  -7   2  -4  105.09   10.00
  -8  -2  -4  268.77   14.00
  -8   2   4  247.98   14.10
  -8  -2  -4  259.27   18.10
  -8  -2   4  252.67   14.60
  -8   2  -4  248.58   16.40
  -8   2  -4  246.78   12.30
  -9   2   4   14.30    4.00
  -9  -2  -4   20.40    7.00
  -9  -2  -4   18.30    4.70
  -9   2  -4   11.30    5.20
  -9  -2   4   24.00    9.50
  -9   2  -4   14.80    3.60
 -10  -2  -4  252.17   19.60
 -10   2   4  273.97   16.40
 -10  -2  -4  260.67   15.40
 -10   2  -4  266.07   18.90
 -10   2  -4  265.47   14.30
 -10  -2   4  277.77   16.90
 -11   2   4   31.10    7.00
 -11  -2  -4   19.00    5.50
 -11  -2  -4   31.10    8.70
 -11   2  -4   19.20    4.90
 -11  -2   4   14.50    5.80
 -11   2  -4   20.10    7.20
 -12  -2  -4   -1.50    3.00
 -12  -2  -4    3.00    6.00
 -12   2   4   -8.40    3.60
 -12   2  -4    6.90    3.90
 -12  -2   4    2.20    4.30
 -12   2  -4    8.00    5.60
   0  -3  -4    3.60    1.10
   0   3  -4    3.40    0.70
   0  -3   4    4.10    1.10
   0   3   4    0.80    0.80
   0  -3  -4    0.60    0.80
   0   3   4    8.70    2.00
  -1  -3  -4   19.30    3.70
  -1  -3  -4   18.30    2.30
   1   3  -4   13.80    1.90
   1   3  -4   13.20    1.60
  -1  -3  -4   14.60    2.70
  -1   3   4   17.20    2.40
  -1   3   4   13.40    2.30
   1  -3  -4   14.40    2.40
   1  -3  -4   19.20    2.50
  -1   3  -4   12.70    1.70
  -1  -3   4   13.80    1.90
  -1   3  -4   14.80    2.00
   1   3   4   16.00    2.90
  -1  -3   4   12.00    1.60
   1  -3  -4   13.60    2.10
   1   3   4   14.60    2.00
   2   3  -4 1017.20   28.20
   2  -3   4  994.80   25.80
   2   3  -4  985.50   27.60
  -2   3   4 1005.90   29.30
  -2  -3  -4 1013.50   30.90
  -2  -3  -4 1000.40   30.20
  -2  -3  -4  975.90   28.50
  -2   3   4  998.20   28.10
   2  -3   4  997.60   28.40
  -2  -3   4 1011.50   28.60
   2   3   4  950.80   30.70
  -2   3  -4  988.50   28.90
   2   3   4  989.40   31.70
  -2   3  -4 1021.30   28.20
  -2  -3   4 1017.60   27.80
   2  -3  -4 1016.30   27.70
   2   3   4 1010.40   28.80
   3   3  -4 4697.93  123.19
   3   3  -4 4906.51  122.29
  -3   3   4 4920.81  124.09
  -3  -3  -4 4789.52  123.39
  -3  -3  -4 4788.02  124.59
  -3   3   4 5017.20  122.49
   3  -3   4 5044.80  123.59
  -3  -3  -4 4962.10  127.59
   3  -3   4 4772.92  120.99
   3   3   4 4690.93  125.49
  -3  -3   4 4921.51  123.99
   3   3   4 4631.54  128.19
  -3  -3   4 4820.42  122.09
   3   3   4 4854.71  123.79
   3  -3  -4 4867.11  124.09
  -3   3  -4 4715.43  124.39
  -3   3  -4 4934.71  120.29
   4   3  -4   72.69    6.60
  -4  -3  -4   72.09    5.20
  -4   3   4   79.89    5.80
   4  -3   4   70.89    4.40
  -4   3   4   84.99    5.10
   4   3  -4   71.69    5.20
  -4  -3  -4   73.09    7.20
   4   3  -4   65.09    4.60
  -4  -3  -4   69.59    5.60
   4  -3   4   75.79    5.50
  -4   3  -4   64.29    6.00
  -4   3  -4   73.29    4.00
   4   3   4   68.89    7.20
  -4  -3   4   76.39    5.80
   4   3   4   63.79    5.20
  -4  -3   4   68.09    4.60
   4  -3  -4   63.89    5.20
   4   3   4   78.39    6.20
  -5   3   4  107.49    7.40
   5  -3   4  105.09    6.30
   5   3  -4  114.19    6.70
  -5  -3  -4  115.39    7.60
  -5  -3  -4  120.99   10.30
   5  -3   4  104.89    7.50
   5   3  -4  110.69    7.20
   5   3  -4  117.29    9.30
   5   3   4  107.69    7.90
   5   3   4  129.39   10.80
   5   3   4  100.59    7.00
  -5  -3   4  104.69    7.50
   5  -3  -4  101.49    7.10
  -5  -3   4  109.19    6.40
  -5   3  -4  118.19    8.90
  -6  -3  -4  128.09   11.30
   6  -3   4  118.09    7.50
   6  -3   4  124.59    9.20
   6   3  -4  125.29    7.80
  -6  -3  -4  131.39    8.50
  -6   3   4  127.69    8.60
   6   3  -4  113.49    8.00
   6  -3  -4  126.09   10.00
   6   3   4  122.79    8.40
  -6  -3   4  122.69    8.80
  -6   3  -4  108.79    9.40
   6  -3  -4  111.29    8.10
  -6   3  -4  121.09    6.70
  -7  -3  -4  109.79    8.50
   7  -3   4  108.79    9.40
  -7  -3  -4   93.49   10.80
  -7   3   4  106.59    8.60
  -7   3  -4  117.49   10.20
  -7   3  -4  103.29    6.90
  -7  -3   4  107.49    7.40
   7  -3  -4   97.89    9.60
  -8  -3  -4  353.66   17.10
  -8  -3  -4  356.46   21.90
  -8   3   4  383.46   18.00
  -8   3  -4  362.66   19.70
  -8   3  -4  356.36   15.20
  -8  -3   4  371.06   18.30
  -9   3   4  517.75   22.60
  -9  -3  -4  473.85   21.50
  -9  -3  -4  457.35   26.40
  -9  -3   4  499.15   33.30
  -9   3  -4  467.65   19.70
  -9   3  -4  495.05   24.50
 -10   3   4   -1.50    3.10
 -10  -3  -4    0.00    2.60
 -10  -3  -4    4.90    5.50
 -10  -3   4   -1.30    3.30
 -10   3  -4   -4.10    1.90
 -10   3  -4    6.30    4.40
 -11   3   4   75.39   10.10
 -11  -3  -4   48.10    7.60
 -11  -3  -4   65.69   12.00
 -11  -3   4   90.89   10.20
 -11   3  -4   61.89   10.50
 -11   3  -4   63.09    7.50
   0   4  -4  969.30   25.80
   0  -4  -4  951.20   29.40
   0   4   4  935.71   29.10
   0   4  -4 1000.20   28.40
   0   4   4 1022.60   29.10
   0  -4  -4  961.40   28.80
   0   4   4 1024.50   30.00
   0  -4  -4  953.50   28.40
   0  -4   4 1009.60   28.10
  -1   4   4   45.20    4.00
   1   4  -4   50.39    3.10
  -1  -4  -4   56.89    4.50
   1   4  -4   50.69    3.90
  -1   4   4   53.09    4.30
  -1  -4  -4   46.10    4.60
   1  -4   4   51.99    3.70
  -1  -4  -4   44.70    4.40
  -1  -4  -4   51.89    4.00
   1  -4  -4   52.29    4.00
  -1   4  -4   48.90    3.60
   1  -4  -4   51.19    4.20
  -1   4  -4   51.09    3.60
   1   4   4   46.70    3.90
  -1  -4   4   51.19    3.30
   1   4   4   53.89    4.80
   1  -4  -4   56.29    3.90
  -1  -4   4   43.70    3.60
  -2   4   4   44.40    4.00
   2  -4   4   37.90    2.00
   2   4  -4   38.50    3.40
  -2  -4  -4   36.00    4.20
   2   4  -4   41.20    3.30
  -2   4   4   36.00    3.50
  -2  -4  -4   32.20    4.10
  -2  -4  -4   34.30    3.40
   2   4   4   40.90    3.70
   2  -4  -4   43.70    4.00
   2  -4  -4   35.10    3.20
  -2   4  -4   38.20    3.30
   2   4   4   40.30    4.50
   2   4   4   49.60    5.10
  -2  -4   4   41.30    3.50
  -2  -4   4   39.30    3.40
  -3   4   4   24.90    3.00
   3  -4   4   19.80    2.50
   3   4  -4   25.00    3.00
  -3   4   4   18.20    2.90
   3  -4   4   23.80    2.10
  -3  -4  -4   31.00    5.10
  -3  -4  -4   26.40    3.10
  -3  -4  -4   16.20    3.00
   3   4   4   20.80    4.30
  -3  -4   4   21.70    2.70
   3   4   4   25.60    3.70
  -3  -4   4   20.70    3.30
  -3   4  -4   25.00    3.40
  -3   4  -4   23.20    1.80
   3   4   4   18.50    3.30
  -3   4  -4   32.40    3.50
   4  -4   4   53.59    3.90
   4   4  -4   57.19    4.60
   4   4  -4   49.50    4.50
   4   4  -4   54.59    5.90
  -4  -4  -4   48.80    6.10
   4  -4   4   65.89    4.80
  -4  -4  -4   54.19    4.80
  -4  -4  -4   61.19   11.90
  -4   4  -4   54.09    3.30
   4   4   4   49.40    4.80
  -4  -4   4   50.59    4.90
   4   4   4   57.39    6.00
  -4   4  -4   66.09    5.70
  -4  -4   4   54.29    4.30
   4  -4  -4   50.59    4.90
   4   4   4   58.49    7.00
   5  -4   4   80.19    6.10
  -5  -4  -4   66.99    5.60
  -5   4   4   80.59    5.80
   5   4  -4   69.89    5.80
  -5  -4  -4   76.99    6.50
   5   4  -4   72.29    5.50
  -5  -4  -4   79.99    8.50
   5  -4   4   70.39    5.00
  -5   4   4   70.29    6.00
   5   4  -4   81.29    7.90
  -5   4  -4   74.09    6.70
  -5  -4   4   75.59    6.50
   5   4   4   74.09    6.20
   5  -4  -4   61.09    5.60
   5   4   4   72.59    8.40
   5   4   4   72.29    6.70
  -5  -4   4   65.99    5.20
  -5   4  -4   72.29    4.60
   6  -4   4  346.77   14.40
   6  -4   4  388.86   16.50
  -6  -4  -4  357.16   19.90
  -6   4   4  363.96   14.90
  -6   4   4  381.56   16.20
   6   4  -4  367.06   15.10
   6   4  -4  341.67   15.90
  -6  -4  -4  365.26   16.30
  -6   4  -4  372.06   17.40
  -6  -4   4  356.86   16.20
   6   4   4  359.46   16.10
  -6  -4   4  349.57   16.50
  -6   4  -4  357.76   13.30
  -7   4   4    2.30    2.60
  -7  -4  -4    2.00    2.20
   7   4  -4    5.30    2.50
  -7  -4  -4    0.60    3.30
   7  -4   4    7.00    3.50
  -7   4  -4    7.80    3.40
  -7   4  -4    3.20    1.80
   7  -4  -4    6.70    3.30
   7   4   4    3.10    2.20
  -7  -4   4    3.20    2.80
  -8   4   4    2.90    2.80
  -8  -4  -4    8.50    4.80
  -8  -4  -4    5.50    3.10
  -8   4  -4    4.10    2.50
  -8  -4   4    5.30    3.80
   8   4   4    2.10    2.60
  -8   4  -4   11.00    4.60
  -9   4   4   20.60    5.10
  -9  -4  -4   24.10    7.80
  -9  -4  -4   24.90    5.70
  -9  -4   4   18.90    7.30
  -9   4  -4   19.50    4.10
  -9   4  -4   38.50    7.50
 -10  -4  -4    3.70    3.60
 -10   4   4   -0.20    3.30
 -10  -4  -4   -4.90    4.60
 -10   4  -4    2.80    4.20
 -10   4  -4    7.10    2.90
 -10  -4   4   -0.20    3.00
 -11  -4  -4    8.00    6.50
 -11  -4  -4    1.90    4.30
 -11   4  -4    4.20    4.80
 -11   4  -4    6.20    3.60
 -11  -4   4    3.50    3.90
   0   5   4   -1.40    0.90
   0  -5  -4    1.20    1.20
   0   5  -4    2.10    1.30
   0  -5  -4    4.00    1.70
   0  -5  -4    2.20    1.30
   0   5   4   -0.10    1.20
   0   5   4   -0.60    1.10
   1   5  -4   12.30    2.00
  -1   5   4   16.80    3.20
  -1   5   4   27.20    3.90
   1   5  -4   15.80    2.90
  -1  -5  -4   11.40    2.80
   1  -5   4   18.90    1.70
  -1  -5  -4   12.90    2.60
   1  -5   4   13.00    1.50
   1  -5   4   11.80    2.40
  -1  -5  -4   13.30    2.70
   1  -5  -4   13.50    2.70
  -1   5  -4   13.20    2.40
   1   5   4   14.50    2.70
  -1  -5   4   14.70    2.60
   1  -5  -4    9.90    2.10
  -1   5  -4   12.70    2.00
  -1  -5   4   14.10    2.30
   1  -5  -4   11.30    2.10
   1   5   4   19.60    3.50
  -2  -5  -4 1755.32   50.79
  -2   5   4 1805.82   49.40
   2  -5   4 1769.22   45.20
   2   5  -4 1780.72   47.90
  -2  -5  -4 1774.92   49.10
  -2   5   4 1785.12   49.50
   2   5  -4 1800.62   48.90
  -2  -5  -4 1710.13   50.99
  -2   5  -4 1828.62   48.50
   2  -5  -4 1835.12   48.80
   2   5   4 1719.23   51.89
  -2   5  -4 1725.23   47.10
  -2  -5   4 1754.02   48.70
   2  -5  -4 1758.42   49.70
   2   5   4 1767.52   49.60
  -2  -5   4 1710.13   48.20
   2   5   4 1694.63   51.89
   2  -5  -4 1842.22   47.90
   3   5  -4 2601.84   71.39
  -3  -5  -4 2611.44   71.29
   3   5  -4 2549.74   68.29
   3  -5   4 2562.74   65.49
  -3  -5  -4 2525.85   72.19
   3   5  -4 2521.45   68.39
  -3   5   4 2586.04   68.49
  -3   5   4 2527.85   69.19
  -3  -5  -4 2566.14   69.09
   3   5   4 2511.95   73.99
   3   5   4 2504.15   71.79
  -3   5  -4 2650.93   68.09
   3   5   4 2559.64   69.69
  -3  -5   4 2587.14   68.19
  -3   5  -4 2577.04   64.69
  -3   5  -4 2558.64   68.49
   3  -5  -4 2549.54   69.69
  -3  -5   4 2584.04   69.29
   4   5  -4  244.58   11.20
  -4  -5  -4  258.87   12.80
  -4   5   4  266.87   12.10
   4  -5   4  264.57   10.40
  -4   5   4  261.07   11.30
  -4  -5  -4  255.47   11.60
   4  -5   4  240.98    9.60
  -4  -5  -4  265.17   14.90
   4   5  -4  261.97   11.70
  -4   5  -4  264.37    9.10
  -4  -5   4  261.47   12.20
   4   5   4  274.47   15.50
  -4   5  -4  259.37   11.80
   4   5   4  238.18   15.10
  -4  -5   4  249.97   10.90
   4  -5  -4  256.17   12.00
   4   5   4  251.17   12.10
  -4   5  -4  265.17   11.60
   5   5  -4   51.19    4.90
  -5  -5  -4   41.70    7.30
  -5   5   4   34.80    4.30
   5   5  -4   39.10    4.90
  -5  -5  -4   55.79    5.20
   5  -5   4   38.90    4.40
  -5   5   4   45.10    5.00
   5   5  -4   55.79    7.10
  -5  -5  -4   44.00    6.20
   5  -5   4   35.00    4.00
   5   5   4   33.60    5.30
   5   5   4   28.10    6.30
  -5   5  -4   42.60    3.50
  -5  -5   4   33.70    5.10
   5   5   4   33.90    5.00
  -5  -5   4   45.10    4.30
  -5   5  -4   39.80    5.00
   5  -5  -4   48.50    5.20
  -6   5   4   61.59    5.80
  -6  -5  -4   31.70    7.10
   6  -5   4   35.40    4.20
  -6  -5  -4   46.00    6.50
  -6   5   4   42.80    5.90
   6   5  -4   47.10    7.30
   6  -5   4   38.40    4.90
   6   5  -4   31.70    4.80
   6  -5  -4   43.40    6.60
   6   5   4   33.20    5.50
  -6  -5   4   36.40    4.40
  -6  -5   4   44.50    6.70
  -6   5  -4   35.40    3.70
  -6   5  -4   52.59    6.00
  -7  -5  -4   15.30    4.00
   7  -5   4   13.70    4.50
   7   5  -4   20.00    4.20
  -7  -5  -4   20.30    6.30
  -7   5   4   21.80    4.30
  -7   5   4   18.30    4.40
  -7  -5   4   19.60    5.10
  -7   5  -4   22.80    5.80
   7  -5  -4   15.10    4.60
  -7   5  -4   17.10    3.30
   7   5   4   15.50    4.00
   8   5  -4  465.75   20.50
   8  -5   4  492.95   21.30
  -8   5   4  498.05   20.30
  -8   5  -4  476.45   21.70
  -8   5  -4  469.55   18.10
  -8  -5   4  473.75   22.30
  -9  -5  -4  218.18   14.30
  -9   5   4  202.28   13.60
  -9  -5  -4  221.78   17.80
  -9  -5   4  195.38   14.70
  -9   5  -4  207.88   11.50
  -9   5  -4  227.08   14.50
 -10   5   4    1.60    3.20
 -10  -5  -4   -2.80    4.20
 -10   5   4   -1.30    3.10
 -10  -5  -4    2.40    3.40
 -10   5  -4    7.10    4.10
 -10  -5   4    2.30    4.10
 -10   5  -4    4.60    2.70
 -11  -5  -4   11.50    6.50
 -11   5   4    5.00    5.60
 -11   5   4   12.70    5.30
 -11  -5  -4    6.10    6.70
 -11   5  -4    8.10    3.80
 -11  -5   4    5.40    4.70
   0  -6  -4 2758.82   73.39
   0  -6  -4 2710.43   75.89
   0  -6  -4 2752.92   76.59
   0   6  -4 2915.91   75.49
   0   6   4 2830.62   76.29
   0   6   4 2751.92   74.49
   0   6   4 2647.14   75.59
   0  -6   4 2868.21   72.39
   0  -6  -4 2802.22   75.59
   0  -6   4 2802.02   74.79
   1  -6   4  846.02   26.40
   1   6  -4  804.92   26.80
   1   6  -4  835.92   24.60
  -1  -6  -4  821.42   26.30
  -1  -6  -4  788.92   27.90
  -1   6   4  848.82   27.10
  -1   6   4  851.61   27.80
  -1  -6  -4  844.82   28.20
  -1  -6  -4  830.42   26.70
   1  -6   4  800.22   23.40
   1   6   4  804.32   27.40
   1  -6  -4  822.12   26.80
  -1  -6   4  868.81   26.80
   1   6   4  862.31   27.60
   1  -6  -4  853.51   27.50
   1  -6  -4  818.62   24.70
  -1   6  -4  787.42   23.70
  -1  -6   4  846.42   25.20
  -1   6  -4  832.82   26.00
   2   6  -4 2613.84   71.19
   2   6  -4 2584.84   69.19
  -2   6   4 2643.34   71.49
   2   6  -4 2689.23   71.29
  -2  -6  -4 2640.84   70.89
  -2   6   4 2682.03   71.09
  -2  -6  -4 2664.73   72.39
  -2  -6  -4 2553.04   72.89
  -2  -6  -4 2683.13   73.59
   2  -6   4 2621.44   66.79
   2   6   4 2569.94   73.69
   2   6   4 2635.54   71.69
  -2   6  -4 2651.43   70.09
  -2  -6   4 2505.15   69.79
  -2   6  -4 2533.45   67.49
   2  -6  -4 2676.73   68.59
   2  -6  -4 2569.74   71.49
   2   6   4 2467.15   73.79
  -2  -6   4 2608.94   70.69
   2  -6  -4 2709.33   70.99
  -3   6   4   73.19    5.80
  -3  -6  -4   76.19    7.20
   3  -6   4   74.09    4.10
  -3  -6  -4   77.49    7.10
  -3   6   4   70.29    5.70
   3   6  -4   81.49    5.70
  -3  -6  -4   73.09    5.90
   3   6  -4   88.69    7.10
   3   6  -4   84.39    6.20
  -3  -6   4   72.19    5.50
   3   6   4   80.89    8.40
  -3   6  -4   79.09    5.00
  -3   6  -4   79.39    5.80
  -3  -6   4   77.29    6.00
  -3   6  -4   71.09    3.80
   3  -6  -4   83.39    5.90
   3   6   4   72.89    7.40
  -4  -6  -4 1710.03   53.59
   4  -6   4 1616.54   45.60
   4  -6   4 1762.32   45.60
  -4   6   4 1747.93   49.30
  -4  -6  -4 1698.03   49.00
   4   6  -4 1651.33   48.60
  -4  -6  -4 1802.72   51.59
   4   6  -4 1609.24   48.40
  -4   6   4 1690.43   51.09
  -4  -6   4 1705.33   49.80
   4   6   4 1697.13   50.09
   4   6   4 1634.14   51.69
   4   6   4 1630.14   54.79
  -4   6  -4 1786.82   48.10
   4  -6  -4 1612.14   49.30
  -4   6  -4 1731.53   44.80
  -4  -6   4 1689.13   48.10
  -4   6  -4 1725.73   48.60
  -5   6   4  607.34   21.60
   5   6  -4  584.84   21.80
  -5  -6  -4  614.24   24.00
   5   6  -4  605.54   22.30
   5   6  -4  710.43   36.60
   5  -6   4  624.54   19.90
  -5  -6  -4  573.64   26.00
  -5   6   4  614.74   22.40
  -5  -6   4  585.14   21.40
  -5   6  -4  605.04   19.10
  -5   6  -4  594.44   22.00
   5   6   4  587.04   22.90
  -5  -6   4  594.74   23.10
  -5   6  -4  632.14   21.70
   6  -6   4  812.42   25.60
   6   6  -4  739.43   26.70
  -6   6   4  764.92   27.30
  -6   6   4  795.02   26.70
  -6  -6  -4  782.42   28.90
  -6  -6  -4  757.32   32.30
   6   6   4  727.43   27.90
  -6  -6   4  758.32   26.10
  -6   6  -4  790.02   26.90
  -6  -6   4  772.22   28.90
  -6   6  -4  760.62   26.90
  -6   6  -4  778.72   23.90
   6  -6  -4  764.22   28.20
   7  -6   4   87.99    7.20
  -7   6   4   76.49    7.70
   7   6  -4   74.09    7.40
  -7  -6  -4   87.89    8.60
  -7   6   4   83.39    7.20
  -7  -6  -4   71.29   10.80
  -7   6  -4   79.49    7.50
  -7   6  -4   91.89    7.80
   7  -6  -4   66.99    8.20
   7   6   4   74.09    7.90
  -7  -6   4   76.79    8.20
  -7   6  -4   80.69    6.00
  -8  -6  -4  347.77   22.10
  -8   6   4  351.76   16.70
  -8  -6  -4  338.77   18.00
   8  -6   4  331.87   16.30
  -8   6   4  338.47   17.00
   8   6  -4  333.17   16.80
  -8   6  -4  313.87   16.20
   8   6   4  345.67   18.20
  -8   6  -4  333.77   14.40
  -8  -6   4  343.77   18.70
  -9  -6  -4  126.29   14.00
  -9   6   4  121.89   10.30
   9   6  -4  125.69   10.90
  -9  -6  -4  118.69   11.00
  -9   6   4  116.89   10.10
   9   6   4  103.69   10.50
  -9  -6   4  132.79   12.00
  -9   6  -4  120.39    8.60
  -9   6  -4  122.99   10.40
 -10   6   4  105.29   10.10
 -10  -6  -4  118.59   14.40
 -10   6   4  125.79   11.00
 -10  -6  -4  120.39   11.40
 -10  -6   4   97.99   11.10
 -10   6  -4  107.39    8.80
 -11   6   4   32.90    7.10
 -11  -6  -4   28.80    7.30
 -11   6   4   24.70    5.60
 -11  -6  -4   31.20    9.40
 -11   6  -4   36.90    5.80
 -11  -6   4   39.40    8.70
   0  -7  -4   -0.50    1.50
   0  -7  -4    0.10    1.40
   0  -7  -4    2.30    1.40
   0  -7   4   -2.60    0.90
   0   7  -4   -2.50    1.40
   0  -7  -4    1.80    1.60
   0   7   4    1.10    1.80
   0   7   4   -3.10    1.20
   0  -7   4    0.90    1.10
   1   7  -4    5.50    1.80
  -1  -7  -4    7.60    2.50
   1  -7   4    6.00    1.70
   1  -7   4    1.20    1.10
  -1   7   4    5.40    2.60
   1   7  -4    4.70    1.70
  -1  -7  -4   15.50    3.50
  -1  -7  -4    3.00    1.90
  -1   7   4    4.00    2.30
   1   7  -4    4.10    2.30
  -1  -7  -4    0.50    1.60
   1  -7   4    5.70    2.30
  -1  -7   4    3.20    1.90
   1  -7  -4    8.50    2.50
   1  -7  -4    3.70    1.60
   1   7   4    5.60    2.40
  -1  -7   4    1.10    1.50
   1   7   4    3.30    2.20
  -1   7  -4    0.70    1.70
   1  -7  -4    2.90    2.00
  -2  -7  -4  507.05   19.40
  -2   7   4  531.45   20.30
  -2  -7  -4  518.25   20.10
  -2  -7  -4  500.25   20.90
  -2   7   4  508.65   19.30
   2   7  -4  520.75   19.20
   2   7  -4  529.25   18.10
   2   7  -4  505.85   19.80
   2  -7   4  516.05   16.10
   2  -7   4  518.55   19.30
  -2  -7   4  504.95   19.20
   2   7   4  522.15   22.80
   2  -7  -4  506.95   16.70
  -2  -7   4  522.55   18.70
   2  -7  -4  477.35   19.90
  -2   7  -4  512.35   15.70
   2  -7  -4  516.65   19.40
  -2   7  -4  531.25   19.10
   2   7   4  487.95   20.90
   3   7  -4   22.80    4.40
   3   7  -4   29.70    4.80
  -3  -7  -4   21.40    4.00
   3  -7   4   22.60    2.60
   3   7  -4   25.10    4.10
  -3  -7  -4   18.00    3.40
  -3  -7  -4   32.80    5.70
  -3   7   4   30.10    4.80
  -3  -7   4   24.90    4.00
   3  -7  -4   22.70    4.00
  -3  -7   4   26.00    4.10
  -3   7  -4   20.20    3.50
   3  -7  -4   21.80    4.00
   3  -7  -4   30.80    3.20
   3   7   4   24.40    4.20
  -3   7  -4   28.90    2.80
  -4   7   4  498.65   19.20
   4  -7   4  467.75   16.10
   4   7  -4  460.25   18.60
   4   7  -4  503.75   21.30
  -4  -7  -4  465.75   18.90
  -4  -7  -4  498.95   22.30
  -4  -7  -4  552.04   21.70
   4   7  -4  490.85   19.20
  -4   7   4  505.85   19.10
   4  -7   4  503.45   15.30
   4   7   4  461.75   21.10
   4   7   4  485.55   23.40
   4   7   4  493.45   20.20
  -4  -7   4  471.65   19.60
  -4   7  -4  496.35   16.60
   4  -7  -4  492.35   21.70
  -4   7  -4  500.25   18.90
  -4   7  -4  478.55   15.40
  -4  -7   4  479.35   20.50
   5   7  -4   36.50    5.30
  -5  -7  -4   40.00    7.50
   5  -7   4   30.50    3.30
  -5   7   4   35.90    5.50
  -5   7   4   34.50    5.00
  -5  -7  -4   43.00    6.90
   5   7  -4   46.80    5.70
   5  -7   4   31.40    3.80
  -5   7  -4   34.60    3.50
  -5  -7   4   32.20    5.80
  -5  -7   4   36.20    4.50
   5   7   4   50.29    6.00
  -5   7  -4   33.00    5.20
  -5   7  -4   38.50    4.10
  -6  -7  -4   13.70    4.20
   6   7  -4   11.70    3.50
  -6   7   4   14.00    3.80
   6  -7   4   13.90    2.90
   6   7  -4    9.90    3.20
  -6  -7  -4   12.30    4.60
  -6   7   4   16.10    4.00
   6   7   4   12.00    3.70
  -6   7  -4    9.90    3.50
  -6   7  -4   16.00    3.10
  -6   7  -4   20.20    3.80
  -6  -7   4   15.20    4.70
   6  -7  -4   16.00    4.00
  -7   7   4   28.00    5.10
   7   7  -4   37.90    6.20
   7  -7   4   33.40    4.80
  -7  -7  -4   43.10    8.40
  -7  -7  -4   26.20    5.50
  -7   7   4   30.90    5.20
   7   7   4   37.00    6.30
  -7   7  -4   29.60    4.10
  -7   7  -4   31.90    6.00
  -7  -7   4   27.60    5.30
  -7   7  -4   35.30    5.20
  -8  -7  -4   97.89   10.10
   8   7  -4  105.99    9.40
  -8  -7  -4   95.59   11.60
   8  -7   4   80.99    7.70
  -8   7   4   95.89    8.80
  -8   7   4   75.89    8.50
  -8   7  -4   85.09    8.90
  -8   7  -4   89.19    7.70
  -8  -7   4   99.79   10.30
   8   7   4   85.09    9.50
  -8   7  -4   83.29    6.80
  -9  -7  -4   -2.40    2.60
   9   7  -4    1.40    3.80
  -9   7   4    1.40    3.30
  -9  -7  -4    1.80    4.40
  -9   7   4    0.30    2.60
   9   7   4    2.80    4.10
  -9   7  -4    1.20    2.80
  -9  -7   4   -1.10    3.30
  -9   7  -4    2.70    2.60
 -10   7   4   16.20    5.20
 -10   7   4   20.20    6.00
 -10  -7  -4   21.60    6.40
 -10  -7  -4   23.40    8.20
 -10   7  -4    8.80    4.90
 -10  -7   4   21.90    6.70
 -10   7  -4   16.20    4.30
  10   7   4   23.90    6.20
 -11  -7  -4   13.60    5.40
 -11  -7  -4   30.10    9.10
 -11   7   4   13.40    4.90
 -11   7  -4   20.90    4.90
 -11  -7   4   18.30    8.10
 -11   7  -4   27.10    6.70
   0  -8   4 1261.97   37.20
   0  -8  -4 1199.98   48.40
   0   8  -4 1289.57   35.80
   0  -8  -4 1308.67   40.80
   0   8   4 1245.78   38.00
   0  -8  -4 1273.47   37.00
   0  -8   4 1252.27   39.40
   0   8   4 1234.78   40.70
   0   8  -4 1337.37   40.40
   1   8  -4  620.84   20.80
  -1  -8  -4  624.14   21.80
   1  -8   4  592.64   19.60
  -1  -8  -4  628.74   26.30
  -1   8   4  623.84   23.80
   1  -8   4  641.34   25.30
  -1   8   4  579.04   22.50
  -1  -8  -4  573.94   22.80
   1   8  -4  595.94   23.10
   1  -8   4  640.84   20.30
   1   8  -4  601.54   20.60
  -1  -8   4  628.04   21.30
   1  -8  -4  588.74   19.60
  -1   8  -4  602.24   22.60
  -1  -8   4  662.93   23.00
   1  -8  -4  548.75   22.70
   1   8   4  585.74   22.50
   1   8   4  612.74   24.00
   2   8  -4 2013.30   56.39
  -2   8   4 2002.00   59.39
  -2  -8  -4 2103.19   60.99
  -2   8   4 2008.80   57.99
  -2  -8  -4 1956.30   57.89
   2  -8   4 2064.39   54.79
   2   8  -4 2027.60   57.59
   2  -8   4 1994.60   54.19
  -2  -8  -4 2035.00   60.19
  -2  -8  -4 2013.70   58.59
  -2   8  -4 1981.00   57.19
   2  -8  -4 1891.01   57.99
  -2   8  -4 2031.50   53.59
  -2  -8   4 2066.99   57.69
   2  -8  -4 2026.90   54.09
   2   8   4 2068.79   59.99
   2  -8  -4 1995.50   58.89
   2   8   4 2077.49   60.59
  -2  -8   4 2043.90   58.49
  -3  -8  -4   41.50    4.70
   3   8  -4   35.70    5.40
  -3   8   4   33.20    5.10
   3  -8   4   30.50    3.20
  -3   8   4   24.00    4.30
  -3  -8  -4   28.90    5.70
   3   8  -4   29.10    4.60
  -3  -8  -4   32.00    5.60
   3   8  -4   27.00    4.80
  -3   8  -4   27.30    4.60
   3  -8  -4   29.30    4.50
   3   8   4   22.90    4.40
  -3  -8   4   31.30    4.80
  -3  -8   4   37.60    5.50
   3  -8  -4   26.00    3.10
   3  -8  -4   29.50    5.00
   3   8   4   23.50    4.60
  -4  -8  -4 1166.98   39.10
   4   8  -4 1149.29   38.90
  -4  -8  -4 1132.39   39.50
  -4   8   4 1093.19   35.90
   4   8  -4 1141.89   35.90
   4   8  -4 1095.99   36.60
  -4   8   4 1128.69   36.10
   4   8   4 1067.49   37.50
  -4   8  -4 1070.99   35.40
  -4   8  -4 1175.48   33.90
   4  -8  -4 1157.18   32.70
  -4  -8   4 1084.29   35.50
  -4  -8   4 1098.99   36.90
  -4   8  -4 1146.29   31.10
   4   8   4 1171.78   42.20
  -5  -8  -4  322.07   17.30
   5   8  -4  342.17   16.30
   5   8  -4  331.47   15.80
  -5   8   4  340.77   15.60
   5  -8   4  317.77   13.30
  -5   8   4  332.67   15.60
  -5  -8  -4  329.57   18.70
  -5   8  -4  331.37   12.40
  -5   8  -4  345.37   12.20
  -5   8  -4  337.67   15.60
   5   8   4  338.87   17.20
  -5  -8   4  342.17   19.60
  -6   8   4  289.47   14.60
  -6  -8  -4  288.17   16.40
   6  -8   4  274.97   10.80
   6   8  -4  280.17   15.00
  -6   8   4  266.27   13.90
   6   8  -4  269.77   14.60
  -6  -8  -4  286.77   18.00
  -6   8  -4  285.47   11.60
  -6   8  -4  265.37   14.10
  -6   8  -4  260.27   11.30
   6  -8  -4  279.37   13.80
   6   8   4  272.47   15.70
  -6  -8   4  273.57   15.80
  -7   8   4   75.39    8.20
  -7   8   4  101.59    8.80
   7   8  -4   77.99    8.40
   7  -8   4   83.29    6.40
  -7   8  -4   77.79    7.90
  -7  -8   4   78.69    9.10
   7   8   4   80.79    9.30
  -7   8  -4   90.99    6.70
  -7   8  -4   91.09    6.60
   8  -8   4  266.27   12.80
  -8   8   4  252.97   14.60
  -8  -8  -4  279.27   17.20
   8   8  -4  264.37   21.90
  -8  -8  -4  278.67   19.20
  -8   8   4  266.07   15.30
   8  -8  -4  287.07   16.10
  -8  -8   4  276.57   17.30
  -8   8  -4  246.08   14.80
  -8   8  -4  248.68   12.40
   8   8   4  256.47   16.60
   9  -8   4   26.80    5.50
  -9  -8  -4   30.60    6.70
   9   8  -4   18.20    5.80
  -9   8   4   24.10    5.30
  -9   8   4   31.70    6.50
  -9  -8  -4   30.10    8.40
  -9  -8   4   27.00    6.80
  -9   8  -4   20.50    5.40
  -9   8  -4   29.70    5.00
   9   8   4   19.10    6.20
 -10  -8  -4   53.59   12.70
 -10   8   4   64.39    9.10
 -10   8   4   57.99    9.90
  10   8  -4   62.19    9.40
 -10   8  -4   54.79   10.00
 -10   8  -4   55.69    6.80
  10   8   4   49.20   10.50
 -10  -8   4   60.49   10.80
   0  -9  -4   -0.90    1.50
   0  -9   4    1.50    1.70
   0   9  -4    0.70    1.20
   0   9   4   -2.40    1.30
   0  -9  -4   -2.20    1.70
   0  -9  -4    1.10    2.00
   0  -9   4   -0.40    2.20
   0   9  -4   -3.20    1.40
   0   9   4    0.20    2.30
   0  -9  -4    4.00    2.60
   1   9  -4   19.70    3.40
  -1  -9  -4   21.60    4.20
  -1   9   4   14.90    3.70
   1  -9   4   17.30    3.60
  -1  -9  -4   12.40    3.30
   1   9  -4   15.90    4.30
   1  -9   4   21.70    3.80
  -1  -9  -4   13.30    3.70
   1  -9   4   25.10    3.80
  -1   9   4   19.60    4.40
  -1  -9  -4   19.50    4.10
   1  -9  -4   17.20    4.30
  -1  -9   4   17.20    3.30
  -1   9  -4   18.50    2.40
   1   9   4   15.90    4.00
  -1  -9   4   21.00    4.50
   1  -9  -4   16.00    3.00
   1   9   4   19.60    4.80
  -1   9  -4   19.70    4.20
   1  -9  -4   15.90    3.90
   2   9  -4   22.60    4.70
  -2  -9  -4   12.50    3.90
   2  -9   4   16.60    3.00
   2   9  -4   14.60    3.50
  -2  -9  -4   14.80    3.90
   2   9  -4   20.10    3.80
  -2   9   4   13.30    3.80
   2  -9   4   20.70    4.40
  -2   9   4   21.00    4.40
   2   9   4   18.90    4.60
  -2   9  -4   16.90    1.60
  -2  -9   4   17.80    3.80
  -2   9  -4   13.90    3.80
  -2   9  -4   16.10    1.70
   2   9   4   13.70    4.00
  -2  -9   4   21.40    4.20
   2  -9  -4   14.70    3.60
   2  -9  -4   19.50    2.90
  -3  -9  -4 1129.89   37.70
  -3  -9  -4 1055.19   37.70
   3   9  -4 1087.99   37.00
   3   9  -4 1079.69   34.70
  -3   9   4 1085.29   35.50
   3   9  -4 1125.99   37.30
  -3   9   4 1073.49   36.30
  -3  -9   4 1043.50   35.30
   3  -9  -4 1105.09   31.20
   3   9   4 1057.29   39.30
  -3   9  -4 1074.09   35.20
  -3  -9   4 1100.39   36.10
   3   9   4 1122.39   39.30
   3   9   4 1056.19   37.50
  -4  -9  -4  137.79   11.10
   4  -9   4  127.39    7.50
   4   9  -4  132.79    9.10
  -4   9   4  127.89    9.20
   4   9  -4  129.09   10.50
   4   9  -4  119.59    9.50
  -4  -9  -4  122.49   10.50
  -4   9   4  147.19   10.00
   4  -9  -4  126.69    6.80
  -4   9  -4  129.79    9.10
  -4  -9   4  132.19    9.90
   4   9   4  119.69   10.20
  -5   9   4  197.38   11.90
  -5  -9  -4  201.18   13.60
  -5  -9  -4  196.68   14.20
  -5   9   4  192.98   12.00
   5   9  -4  199.88   12.10
   5   9  -4  208.78   13.00
  -5  -9   4  189.78   12.70
  -5   9  -4  199.28    9.20
   5  -9  -4  209.68    9.40
  -5   9  -4  189.38   11.60
   5   9   4  187.28   13.00
  -6  -9  -4   13.50    4.60
   6  -9   4    4.80    2.20
  -6  -9  -4    9.80    4.80
  -6   9   4   10.60    3.70
   6   9  -4    6.60    3.20
  -6   9   4   10.30    3.80
   6   9  -4   11.50    4.10
  -6  -9   4    8.70    3.70
   6   9   4    2.60    3.60
  -6   9  -4   11.30    2.90
   6  -9  -4    7.40    2.70
  -6   9  -4    3.90    3.20
   7   9  -4   22.80    5.40
  -7  -9  -4   17.10    6.20
  -7   9   4   21.50    5.00
  -7   9   4   12.50    4.70
   7  -9   4   19.60    3.30
  -7  -9  -4   23.90    5.80
   7  -9  -4   23.30    5.10
  -7  -9   4   38.70    7.30
   7   9   4   19.40    5.60
  -7   9  -4   22.00    4.00
  -7   9  -4   15.90    4.60
  -8   9   4    4.90    3.90
   8  -9   4   -1.00    2.70
  -8  -9  -4    5.00    4.30
  -8   9   4    5.50    3.80
   8   9  -4    7.90    4.60
  -8  -9  -4    1.50    3.90
   8   9   4    2.70    3.40
   8  -9  -4    4.00    3.50
  -8   9  -4    4.70    3.40
  -8  -9   4    0.00    3.90
   9   9  -4   87.09   10.20
  -9   9   4   87.39    9.50
  -9   9   4   79.79    9.30
  -9  -9  -4   77.39   12.20
  -9  -9  -4   66.49    9.50
   9   9   4   82.59   10.30
  -9   9  -4   86.09    9.70
  -9  -9   4   86.19   10.70
  -9   9  -4   95.79    7.90
  10   9  -4   16.70    6.10
 -10   9   4   24.00    5.90
 -10  -9  -4   22.90    8.80
 -10   9   4   34.40    6.70
 -10   9  -4   31.80    6.70
  10   9   4   25.90    6.90
 -10   9  -4   31.90    5.70
 -10  -9   4   34.10    7.10
   0  10  -4   91.49    6.00
   0  10  -4   90.99    8.40
   0 -10  -4   94.29    6.60
   0 -10   4  107.19    9.80
   0 -10   4   85.19    6.50
   0 -10   4   84.29    6.90
   0  10   4   86.59    6.80
   0  10   4   73.39    8.50
   0 -10  -4   91.49    8.40
   1  10  -4    3.90    3.20
  -1 -10  -4    2.70    2.50
  -1 -10  -4    0.80    2.50
  -1  10   4   -0.40    2.20
   1 -10   4    4.60    1.90
   1  10  -4    7.10    2.30
   1 -10   4    3.40    2.00
   1 -10  -4    3.00    2.60
  -1 -10   4    4.00    2.50
  -1 -10   4    1.50    2.50
   1  10   4    4.10    2.50
  -1  10  -4    6.30    1.70
  -1  10  -4    2.70    2.30
   1  10   4    0.20    2.80
   1 -10  -4    7.20    2.10
  -2  10   4  249.48   14.40
   2  10  -4  222.78   12.10
   2  10  -4  204.58   13.20
  -2 -10  -4  206.58   12.40
   2  10  -4  219.08   11.60
   2 -10   4  225.18   10.80
  -2  10   4  207.98   12.40
  -2 -10  -4  202.18   13.30
   2 -10   4  179.58    9.80
  -2  10  -4  202.98   12.20
   2  10   4  222.98   13.10
   2 -10  -4  213.68    9.20
  -2 -10   4  219.18   12.30
   2  10   4  210.88   13.90
   3 -10   4   14.30    3.00
  -3 -10  -4   12.70    3.90
  -3  10   4   14.20    4.10
   3  10  -4   17.80    5.20
  -3  10   4    9.40    3.30
  -3 -10  -4   15.90    4.80
   3  10  -4   10.50    3.30
   3  10  -4   11.40    4.20
   3  10   4   12.00    4.60
   3  10   4   12.90    4.30
  -3  10  -4   10.00    3.80
  -3 -10   4   17.70    4.30
   3 -10  -4   15.30    2.70
   4  10  -4  142.79    9.90
  -4  10   4  140.69   10.20
   4  10  -4  153.78   11.70
  -4  10   4  149.99   10.80
  -4 -10  -4  139.49   11.50
  -4 -10  -4  136.29   11.50
  -4 -10   4  150.78   11.20
   4 -10  -4  159.38    7.40
  -4  10  -4  146.69   10.20
   4  10   4  143.99   11.60
  -5 -10  -4   18.20    5.40
  -5  10   4   18.50    4.90
   5  10  -4   21.80    5.40
  -5  10   4   13.60    3.90
  -5 -10  -4   17.90    5.00
   5  10   4   21.10    5.50
  -5  10  -4   20.80    4.80
  -5  10  -4   22.70    3.70
   5 -10  -4   24.30    3.50
  -5 -10   4   25.50    5.90
   6  10  -4   51.99    8.10
   6  10  -4   60.69    7.30
  -6 -10  -4   49.20    8.70
  -6  10   4   54.29    7.60
  -6  10   4   49.99    7.50
  -6  10  -4   64.49    7.50
   6 -10  -4   58.29    5.20
  -6  10  -4   49.90    5.20
   6 -10  -4   50.49    5.70
   6  10   4   46.30    7.90
  -6 -10   4   43.60    7.60
  -7  10   4   11.00    3.90
  -7 -10  -4    6.20    4.60
   7  10  -4    5.40    3.80
  -7 -10  -4   10.80    5.10
  -7  10   4    6.60    3.40
  -7 -10   4    6.20    4.20
  -7  10  -4    9.30    3.10
  -7  10  -4    7.30    4.20
   7  10   4    5.90    4.60
   7 -10  -4    9.10    3.60
  -8 -10  -4    5.50    4.40
  -8  10   4   14.20    4.80
  -8  10   4    7.70    4.10
   8 -10   4    4.20    2.80
   8  10  -4    4.70    4.30
  -8 -10  -4   10.70    6.10
  -8  10  -4    8.30    4.20
  -8  10  -4    6.30    3.00
   8  10   4    7.80    4.60
   8 -10  -4   19.20    5.40
  -9  10   4   20.40    5.80
  -9  10   4   25.70    6.20
  -9 -10  -4   27.20    7.30
   9  10  -4   19.40    6.20
  -9 -10  -4   29.80    8.80
  -9  10  -4   30.90   10.00
   9 -10  -4   25.50   10.60
  -9 -10   4   13.20    5.30
   9  10   4   13.20    9.50
  -9  10  -4   27.70    5.10
 -10  10   4    0.60    3.40
 -10  10   4    8.40    5.20
 -10 -10  -4    5.90    6.30
  10  10  -4    7.90    5.50
 -10 -10  -4   -1.40    4.30
 -10  10  -4   -3.70    3.40
 -10  10  -4    4.50    3.30
 -10 -10   4    8.60    5.00
  10  10   4    2.90    4.80
   0  11  -4    0.00    2.50
   0 -11  -4    2.40    2.80
   0 -11  -4    1.30    2.10
   0  11  -4    2.30    2.00
   0  11   4   -1.60    2.50
   0 -11   4    1.80    1.90
   0  11   4   -4.00    1.50
  -1 -11  -4   16.80    4.50
   1  11  -4   15.10    3.30
   1  11  -4   11.10    4.50
   1 -11   4   16.80    3.70
  -1  11   4    6.00    3.70
  -1 -11  -4   14.80    4.00
   1 -11  -4   17.60    4.60
   1  11   4   12.90    5.00
   1  11   4   13.50    3.90
  -1  11  -4   24.10    2.70
   1 -11  -4   26.20    4.00
  -1  11  -4   14.80    2.10
  -1  11  -4   12.90    4.10
  -1 -11   4   12.40    3.60
  -2  11   4   37.70    5.90
   2  11  -4   45.20    5.70
   2  11  -4   38.30    7.00
  -2 -11  -4   50.69    7.50
  -2 -11  -4   42.30    6.40
   2 -11   4   42.30    5.10
  -2  11   4   41.20    7.50
   2  11  -4   51.59    6.00
   2  11   4   55.09    6.90
   2 -11  -4   48.00    4.40
  -2  11  -4   36.20    6.30
   2  11   4   44.20    7.90
  -2 -11   4   49.50    6.90
   3  11  -4  879.61   31.60
   3  11  -4  808.62   30.00
  -3  11   4  841.02   32.30
   3 -11   4  868.81   28.20
   3  11  -4  871.91   33.10
  -3 -11  -4  800.82   31.30
  -3 -11  -4  854.21   33.20
  -3  11   4  849.91   31.10
  -3 -11   4  812.22   31.40
   3 -11  -4  863.11   25.10
   3  11   4  888.51   34.40
  -3  11  -4  819.42   30.80
  -4  11   4   86.59    9.00
  -4  11   4   99.29    9.00
  -4 -11  -4   84.79    9.40
   4  11  -4   90.69    9.80
   4  11  -4   81.29    7.90
  -4 -11  -4   87.39    9.40
  -4  11  -4   84.59    8.20
   4  11   4   89.99   10.00
   4 -11  -4   89.49    5.30
  -5 -11  -4   50.49    7.70
   5  11  -4   60.69    9.00
  -5  11   4   48.30    7.30
  -5 -11  -4   53.69    8.80
  -5  11   4   64.89    7.60
   5  11  -4   47.80    7.90
  -5  11  -4   60.39    7.30
  -5 -11   4   56.49    8.20
   5  11   4   70.99    8.80
   5 -11  -4   57.89    4.60
   5 -11  -4   62.69    5.20
  -6  11   4   71.79    8.60
  -6 -11  -4   63.19    9.20
  -6  11   4   79.99    8.40
  -6 -11  -4   88.89   10.60
  -6 -11   4   60.79    9.20
   6 -11  -4   73.59    6.00
   6 -11  -4   71.19    5.40
   6  11   4   74.59   10.70
  -6  11  -4   80.19    8.50
  -6  11  -4   85.49    6.90
  -7  11   4    2.50    3.50
   7  11  -4    5.00    4.70
  -7 -11  -4    6.50    4.30
  -7  11   4   10.70    4.20
  -7 -11  -4   10.40    5.50
   7  11   4    3.20    4.40
   7 -11  -4    6.10    2.90
  -7  11  -4    9.70    4.10
   7 -11  -4    4.80    3.30
  -7  11  -4    6.40    2.90
  -7 -11   4   10.60    5.00
  -8  11   4    5.70    4.00
  -8  11   4    3.70    3.90
   8  11  -4    9.00    5.00
  -8 -11  -4    3.30    4.60
  -8 -11  -4   -1.30    3.80
  -8  11  -4    4.40    4.00
   8  11   4    4.20    4.70
  -8 -11   4    6.80    4.30
  -8  11  -4    7.10    3.40
   8 -11  -4    3.10    3.80
  -9 -11  -4   96.39   13.60
   9  11  -4  108.79   12.00
  -9 -11  -4   74.99   11.60
  -9  11   4  120.19   11.70
  -9  11   4   84.79   12.70
   9  11   4   98.79   15.60
  -9  11  -4  116.19    8.90
  -9 -11   4  114.49   13.60
  -9  11  -4  109.29   13.40
   0 -12   4  855.41   29.50
   0 -12  -4  821.32   31.70
   0  12   4  803.32   27.90
   0  12  -4  829.72   32.20
   0  12  -4  808.52   25.80
   0  12   4  827.32   33.50
   0 -12  -4  770.22   27.40
  -1  12   4  130.49   11.50
   1  12  -4  124.49   11.20
   1 -12   4  137.09    9.30
   1  12  -4  134.79    8.70
  -1 -12  -4  111.39   10.10
  -1 -12  -4  149.09   11.60
   1  12   4  118.19   11.40
   1  12   4  137.69   11.30
   1 -12  -4  129.59    8.00
  -1  12  -4  130.69    5.60
  -1  12  -4  122.09   10.70
  -1 -12   4  126.19    9.80
   1 -12  -4  133.29   11.10
   2 -12   4  407.26   16.90
  -2 -12  -4  373.66   18.20
  -2 -12  -4  406.16   20.70
  -2  12   4  371.36   20.10
   2  12  -4  388.36   17.80
   2  12  -4  400.76   21.10
  -2 -12   4  390.26   19.10
  -2  12  -4  395.36   19.80
   2 -12  -4  397.66   14.60
   2  12   4  425.46   19.60
   2  12   4  394.36   21.50
   3  12  -4   47.50    8.30
   3  12  -4   33.00    5.80
   3  12  -4   25.00    5.00
  -3 -12  -4   36.70    6.90
   3 -12   4   29.60    4.70
  -3 -12  -4   37.20    6.90
  -3  12   4   24.00    5.80
  -3  12   4   31.60    9.70
  -3 -12   4   40.70    6.80
   3  12   4   30.50    6.90
  -3  12  -4   27.40    6.00
   3 -12  -4   34.70    3.70
  -4  12   4  361.76   22.50
   4  12  -4  370.36   18.50
  -4 -12  -4  385.06   19.80
   4  12  -4  352.96   20.10
  -4 -12  -4  370.26   20.60
  -4  12   4  356.66   18.40
   4 -12  -4  375.96   12.70
  -4  12  -4  362.16   18.50
  -4 -12   4  406.96   20.70
   4  12   4  365.26   21.20
  -5 -12  -4  140.69   12.90
  -5  12   4  140.29   11.50
   5  12  -4  138.39   11.30
  -5  12   4  144.69   11.40
  -5 -12  -4  162.28   13.30
  -5 -12   4  151.88   12.80
   5 -12  -4  142.79    6.70
   5 -12  -4  131.39    7.00
  -5  12  -4  151.78   11.50
   5  12   4  147.49   13.60
  -6 -12  -4  209.38   15.90
  -6  12   4  248.88   15.10
  -6  12   4  213.38   14.90
  -6 -12  -4  262.77   17.80
   6  12  -4  224.68   16.30
   6 -12  -4  234.08    9.30
  -6  12  -4  222.98   14.60
   6 -12  -4  207.68    9.70
   6  12   4  211.78   16.40
  -6 -12   4  237.38   16.80
   7  12  -4   -1.70    4.00
  -7  12   4   -1.20    2.80
  -7 -12  -4    1.00    3.90
  -7 -12  -4   -6.40    3.70
  -7  12   4   -2.10    3.40
  -7  12  -4    1.40    3.40
   7 -12  -4   -2.10    2.00
  -7  12  -4   -3.10    2.60
   7 -12  -4   -3.10    2.60
   7  12   4    3.10    4.50
  -7 -12   4    3.50    4.00
  -8 -12  -4   10.20    5.30
  -8 -12  -4    6.70    5.10
  -8  12   4   12.90    5.50
   8  12  -4   15.30    5.60
   8  12   4   10.10    6.50
  -8 -12   4   13.50    6.10
  -8  12  -4   13.30    4.10
   8 -12  -4   14.00    3.60
  -8  12  -4    0.10    7.10
   0 -13   4    2.70    2.70
   0  13   4   -2.80    3.40
   0  13   4    1.80    2.30
   0  13  -4   -2.90    2.80
   0  13  -4    3.30    2.30
   0 -13  -4    1.00    3.10
   0 -13  -4    5.60    3.10
  -1  13   4   56.79    9.20
   1  13  -4   61.69    9.40
  -1 -13  -4   54.09    6.30
  -1 -13  -4   47.20    7.70
   1 -13   4   62.39    6.60
   1  13  -4   57.89    5.90
  -1 -13   4   58.09    7.20
   1 -13  -4   45.00    7.90
  -1  13  -4   48.60    7.70
   1 -13  -4   59.99    5.70
   1  13   4   52.59    6.40
   2  13  -4   25.50    5.40
  -2 -13  -4   20.20    6.10
   2  13  -4   22.60    6.50
  -2 -13  -4   23.00    5.30
   2 -13   4   25.70    4.70
   2 -13  -4   32.70    7.00
  -2 -13   4   26.10    5.60
   2  13   4   17.90    6.50
   2  13   4   28.30    6.00
   2 -13  -4   30.90    4.10
  -3  13   4    4.60    3.50
   3  13  -4    0.20    2.40
  -3 -13  -4   14.10    4.60
   3  13  -4    7.70    4.80
  -3 -13  -4    4.40    3.60
   3 -13   4    2.20    2.30
   3  13  -4   -0.50    5.30
  -3  13   4    7.20    4.50
   3  13   4    0.10    4.00
  -3 -13   4   12.10    5.10
  -3  13  -4    0.50    3.00
   3 -13  -4    3.60    1.80
   4  13  -4   15.60    5.50
  -4  13   4    2.60    3.70
  -4  13   4    9.50    4.40
   4  13  -4    9.00    3.70
  -4 -13  -4    6.10    4.10
   4 -13   4   14.60    3.50
  -4  13  -4    6.70    4.30
   4  13   4   12.70    5.90
   4 -13  -4    8.70    2.00
  -4 -13   4   10.10    4.90
   5  13  -4    0.20    4.20
   5  13  -4   -1.30    4.10
  -5  13   4    0.50    3.90
  -5 -13  -4    1.00    3.70
  -5  13   4   -2.00    2.90
   5  13   4    2.80    4.40
  -5  13  -4   -2.40    3.40
  -5 -13   4    1.40    3.80
  -6  13   4   17.30    5.90
  -6 -13  -4   15.80    6.30
  -6 -13  -4    7.00    5.00
   6  13  -4   26.40    6.40
  -6  13   4   21.10    5.30
   6 -13  -4   17.90    2.40
  -6  13  -4   12.20    4.60
   6  13   4   23.50    7.70
  -6 -13   4   11.10    5.70
  -7  13   4   25.90    6.00
  -7 -13  -4   19.40    6.90
  -7 -13  -4   41.30    9.30
  -7  13   4   29.60    7.00
   7  13  -4   20.40    6.60
   7  13   4   24.60    8.40
  -7  13  -4   28.80    7.20
   7 -13  -4   23.30    3.00
  -8 -13  -4   15.00    7.10
   8  13  -4   12.20    6.80
  -8  13   4   15.80    5.30
  -8  13   4    9.00    6.20
  -8  13  -4   19.00    4.70
   8  13   4   25.50    7.70
  -8 -13   4    9.50    5.90
  -8  13  -4   20.50    6.30
   0 -14   4 1409.86   44.10
   0  14  -4 1260.07   46.10
   0 -14  -4 1357.26   46.20
   0 -14  -4 1301.07   40.20
   0  14   4 1354.66   49.00
   0  14  -4 1279.27   37.10
   0  14   4 1224.78   40.30
   1  14  -4  109.29   11.60
   1  14  -4  112.79    8.10
  -1 -14  -4  109.89    8.90
   1 -14   4  110.59    9.20
  -1 -14  -4  116.09   11.50
  -1  14   4   97.09   11.30
   1 -14  -4  109.09    7.50
   1  14   4  101.29    8.90
   1 -14  -4  124.69   11.50
  -1  14  -4   99.99   10.30
  -1 -14   4  115.79   10.40
   1  14   4  108.29   12.00
   2 -14   4  526.85   21.10
  -2  14   4  483.45   24.80
  -2 -14  -4  462.05   21.00
  -2 -14  -4  519.15   24.70
   2  14  -4  494.25   25.50
  -2  14  -4  462.55   23.50
  -2 -14   4  490.55   23.10
   2 -14  -4  475.55   16.70
   2 -14  -4  509.85   24.10
   2  14   4  483.65   25.90
   3  14  -4   16.00    6.10
  -3  14   4   13.90    5.00
  -3 -14  -4   22.80    5.60
   3 -14   4   15.40    4.10
   3 -14  -4   11.40    2.20
  -3  14  -4   15.80    5.40
  -3 -14   4   19.50    5.60
   3  14   4    3.50    5.00
   4  14  -4  251.37   18.10
  -4  14   4  251.97   16.00
   4 -14   4  250.57   13.60
  -4  14   4  237.58   16.40
   4  14  -4  240.48   15.70
  -4 -14  -4  232.18   17.20
  -4 -14  -4  230.38   15.40
   4  14   4  255.67   19.10
  -4 -14   4  251.57   17.00
  -4  14  -4  253.17   16.50
   5  14  -4   63.99   12.00
   5  14  -4   64.69   10.40
  -5 -14  -4   47.20    8.50
  -5  14   4   45.90    8.60
  -5  14   4   62.39    9.30
  -5 -14  -4   67.19   11.10
  -5  14  -4   58.09    8.90
   5  14   4   65.29   11.50
  -5 -14   4   67.19   10.60
  -6  14   4  339.97   19.20
  -6 -14  -4  351.96   22.20
  -6 -14  -4  315.77   19.70
   6  14  -4  315.07   21.20
  -6  14   4  345.47   20.20
  -6  14  -4  308.77   18.80
   6  14   4  334.47   22.90
  -6 -14   4  340.17   21.60
  -7  14   4   22.80    6.40
  -7 -14  -4   26.60    7.20
  -7  14   4   30.00   11.40
   7  14  -4   13.60    6.60
  -7 -14  -4   25.10    7.10
  -7 -14   4   29.10    7.90
  -7  14  -4   32.70    7.40
   7  14   4   18.60    7.20
   0  15   4    3.20    4.20
   0  15  -4   -2.00    1.80
   0 -15  -4    7.10    3.80
   0 -15  -4    1.50    2.60
   0  15  -4   -0.80    4.20
   0 -15   4    5.30    3.70
   1  15  -4    2.30    2.40
   1 -15   4    1.40    2.90
  -1  15   4   -1.00    4.20
   1  15  -4    0.70    4.00
  -1 -15  -4   -0.30    2.80
  -1 -15  -4   -1.70    2.90
   1 -15  -4    5.00    3.90
   1  15   4   -0.60    3.30
   1 -15  -4    0.90    2.30
  -1 -15   4    5.70    3.70
  -1  15  -4    9.30    4.40
   1  15   4   -0.70    4.70
   2  15  -4    8.20    4.40
   2  15  -4   -1.80    4.30
  -2 -15  -4   10.80    4.40
  -2  15   4    1.30    4.30
  -2 -15  -4    4.40    3.80
   2 -15   4   16.90    4.30
   2 -15  -4   11.00    4.70
   2  15   4    7.40    5.70
   2 -15  -4   10.40    2.40
  -2  15  -4    3.90    4.30
  -3  15   4  240.28   17.30
  -3 -15  -4  261.87   17.90
   3  15  -4  224.88   18.00
  -3 -15  -4  266.47   15.60
   3 -15   4  254.97   14.20
  -3  15  -4  259.57   17.50
   3  15   4  222.48   18.50
   3 -15  -4  240.88   17.20
  -3 -15   4  251.47   17.00
  -4  15   4   -2.20    3.20
  -4 -15  -4    3.00    4.20
   4  15  -4    5.90    5.40
   4 -15   4    1.10    3.20
  -4 -15  -4    4.90    4.60
  -4  15  -4   -4.20    3.00
   4  15   4    2.60    4.20
  -4 -15   4   10.60    5.30
   5 -15   4   37.80    6.60
  -5 -15  -4   43.30    8.10
  -5 -15  -4   38.50    8.00
  -5  15   4   37.10    8.40
   5  15  -4   41.10    9.50
  -5  15   4   38.60    8.10
  -5  15  -4   28.60    6.90
  -5 -15   4   30.10    7.50
  -6 -15  -4    8.60    4.60
  -6  15   4   -0.30    4.40
   6  15  -4    5.30    6.10
  -6 -15  -4    2.00    4.80
  -6  15   4    5.00    4.30
   6  15   4    6.40    5.90
  -6  15  -4    2.00    4.60
  -6 -15   4   19.90    7.20
   0  16  -4  154.28   14.10
   0 -16  -4  128.19    8.90
   0 -16   4  153.38   12.20
   0 -16  -4  142.49   14.40
   0  16   4  159.78   14.60
   0  16  -4  130.59    5.80
  -1  16   4   -0.80    5.10
   1  16  -4    1.90    2.60
   1 -16   4    3.70    4.30
  -1 -16  -4    2.00    3.20
   1  16  -4    7.70    4.70
  -1 -16  -4    7.20    4.10
  -1  16  -4    1.70    3.50
   1  16   4    0.30    3.60
   1 -16  -4    1.90    7.10
   1 -16  -4    4.20    2.50
   1  16   4   -1.10    5.00
  -1 -16   4    4.10    4.30
  -2  16   4   41.40    8.30
   2  16  -4   46.50    6.50
  -2 -16  -4   54.09    9.80
   2  16  -4   47.70    9.30
   2 -16   4   49.60    7.60
  -2 -16  -4   42.80    6.70
  -2  16  -4   54.29    9.60
   2 -16  -4   44.80    9.50
  -2 -16   4   62.19    9.40
   2  16   4   62.09   11.50
   3 -16   4    6.50    4.00
  -3  16   4    0.90    4.10
  -3 -16  -4    4.00    4.60
   3  16  -4   -6.10    4.80
  -3 -16  -4    1.80    3.80
   3  16   4    5.30    5.40
  -3  16  -4   -3.00    4.00
  -3 -16   4   -4.80    4.10
   4 -16   4   46.40    6.90
  -4 -16  -4   24.30    6.10
  -4 -16  -4   41.20    8.00
  -4  16   4   31.20   11.60
   4  16  -4   30.30    8.30
  -4 -16   4   37.30    8.20
  -4  16  -4   29.30   11.80
   4 -16  -4   44.30    8.50
   4  16   4   22.60    7.30
  -5  16   4    4.30    8.50
  -5 -16  -4    5.90    4.70
  -5 -16  -4    9.70    5.30
   5 -16   4    1.80    6.90
  -5 -16   4   -2.50    4.50
   5  16   4    6.30    5.40
  -5  16  -4    5.00    4.90
   0 -17  -4    1.00    2.80
   0 -17  -4   -4.50    3.70
   0  17   4    3.10    8.80
   0 -17   4    0.50    4.30
   0  17  -4   -5.50    4.30
   1  17  -4   -0.50    4.50
  -1 -17  -4   10.40    4.90
  -1  17   4   32.00   10.40
  -1 -17  -4    6.40    3.90
   1 -17   4    7.30    5.10
   1 -17  -4    0.90    2.40
   1  17   4    0.70    4.80
  -1 -17   4    2.60    4.10
   1 -17  -4    3.70    4.70
  -1  17  -4    7.10    5.40
  -2 -17  -4    5.30    3.80
   2 -17   4   -3.30    4.00
  -2 -17  -4    1.50    4.80
  -2  17   4   -5.40    4.10
   2 -17  -4    7.00    5.00
  -2 -17   4   -3.10    3.80
  -2  17  -4    4.20    5.40
   3  17  -4  177.88   18.70
  -3  17   4  162.28   17.40
  -3 -17  -4  163.38   15.00
  -3 -17  -4  188.38   13.20
   3 -17   4  188.38   13.50
  -3  17  -4  179.88   16.10
   3  17   4  185.48   17.50
  -3 -17   4  175.88   15.40
   3 -17  -4  177.78   15.50
   0   0  -5    1.10    0.40
   0   0   5    0.00    0.60
   0   0  -5    2.20    1.20
   0   0  -5    0.70    0.60
   1   0   5   -4.60    0.90
  -1   0  -5   -4.00    0.80
   1   0  -5   -4.10    0.70
  -1   0   5   -4.20    0.70
  -1   0  -5   -4.20    0.60
   1   0   5   -4.30    0.80
  -1   0  -5   -4.30    0.50
  -1   0  -5   -4.60    0.80
   2   0  -5   -4.90    0.80
   2   0   5   -4.90    1.00
  -3   0  -5   12.20    3.00
  -3   0  -5    0.40    0.90
  -3   0  -5   -0.40    0.90
  -3   0   5    2.00    1.10
   3   0   5    4.30    1.60
  -3   0   5    0.60    0.70
   3   0   5   -0.10    1.00
   3   0  -5    1.10    1.00
  -4   0   5    0.40    0.90
  -4   0  -5   -0.90    1.00
  -4   0  -5   -0.60    0.90
   4   0  -5    2.50    1.60
   4   0   5   -1.60    0.80
  -4   0  -5   -1.40    1.30
  -4   0   5   -0.30    1.10
   4   0   5    1.00    1.60
  -5   0  -5    1.80    2.50
   5   0   5   -1.20    1.00
  -5   0   5   -1.30    1.10
  -5   0  -5    0.90    1.30
   5   0  -5    0.70    1.40
  -5   0   5    1.80    1.60
  -5   0  -5   -1.90    0.90
  -6   0   5    1.00    2.10
  -6   0  -5    1.40    2.20
  -6   0  -5    0.60    1.30
   6   0   5   -0.60    2.60
   6   0  -5   -3.40    1.30
   6   0   5    1.80    1.80
  -6   0  -5    2.10    2.40
   6   0  -5    3.20    2.60
  -6   0   5    0.20    1.50
  -7   0  -5    2.10    3.30
  -7   0   5   -0.40    2.00
  -7   0   5    1.20    1.90
  -7   0  -5   -0.60    1.40
  -8   0  -5    1.00    2.10
  -8   0   5    6.10    3.10
  -8   0  -5    2.30    3.80
  -9   0  -5    0.50    3.30
  -9   0  -5    0.10    1.90
  -9   0   5    3.20    3.10
 -10   0   5   -1.70    2.70
 -10   0  -5    0.20    2.50
 -10   0  -5   -6.90    3.70
 -11   0  -5   -0.80    2.50
 -11   0  -5   -3.90    4.30
 -11   0   5    0.60    3.40
   0   1  -5    0.40    0.40
   0   1  -5    0.80    0.60
   0   1   5    0.50    0.80
   0  -1  -5   -0.10    0.70
   0  -1  -5    2.50    0.70
   0  -1  -5    1.00    1.20
   0  -1   5    0.30    0.60
   0   1   5    1.80    0.60
  -1  -1  -5 4038.30  100.49
   1   1  -5 4087.89  100.79
  -1   1   5 4010.70   99.29
  -1  -1  -5 4012.60  103.79
  -1  -1  -5 3860.71  102.39
   1  -1   5 3994.90  103.09
  -1  -1  -5 4035.00  101.69
  -1   1   5 3977.30  101.99
  -1  -1   5 4068.89  101.19
   1   1   5 4035.70  100.39
  -1   1  -5 4097.49   99.99
   1  -1  -5 4053.09  101.69
   1  -1  -5 3961.30   98.99
  -1   1  -5 4011.50   99.49
  -1   1  -5 4067.49  103.39
   1   1   5 3864.31  103.79
  -2  -1  -5    4.90    1.70
  -2  -1  -5    5.80    2.40
  -2  -1  -5    2.70    1.30
   2   1  -5    3.00    1.50
   2  -1   5    0.40    1.40
   2  -1   5    4.10    1.50
  -2  -1  -5    2.10    1.50
  -2   1   5    2.90    1.60
  -2  -1   5    1.80    1.30
   2   1   5    1.30    1.10
  -2   1  -5    3.70    1.00
   2  -1  -5    3.30    1.40
  -2   1  -5    2.00    1.20
  -2   1  -5    1.30    1.00
   2   1   5    2.00    1.70
  -2  -1   5    3.60    0.90
   2   1   5    2.20    1.80
  -2   1  -5    3.20    1.70
   3  -1   5 3976.10  103.49
  -3  -1  -5 3850.71  100.89
  -3   1   5 3900.61  101.99
   3  -1   5 3860.71  100.49
   3   1  -5 3942.01  101.39
  -3  -1  -5 3950.70  100.99
  -3  -1  -5 3955.60  104.59
  -3   1  -5 4027.20   99.29
  -3   1  -5 4003.30  104.09
   3   1   5 4008.60  105.39
   3   1   5 4000.90  101.09
   3   1   5 3711.43  102.29
   3  -1  -5 3875.21  101.59
  -3  -1   5 3937.81   98.89
  -3  -1   5 4074.59  101.99
  -3   1  -5 4042.00  100.89
  -4   1   5    2.60    1.00
  -4   1   5    0.70    1.20
  -4  -1  -5    0.10    1.10
  -4  -1  -5    2.10    1.80
   4  -1   5    7.10    2.60
  -4  -1  -5    0.30    1.30
   4  -1   5    2.40    1.40
   4   1  -5    0.50    0.90
   4  -1  -5    2.30    1.50
  -4   1  -5   -0.80    0.80
   4   1   5    1.10    1.10
  -4   1  -5    0.40    1.50
  -4  -1   5    2.40    1.50
  -4   1  -5    1.50    1.00
   4   1   5    2.50    1.90
  -4  -1   5    1.00    1.00
  -5   1   5 1162.08   37.80
  -5  -1  -5 1126.49   33.10
  -5  -1  -5 1095.69   38.40
   5  -1   5 1094.49   35.70
  -5   1   5 1131.29   31.80
   5  -1   5 1144.59   37.10
  -5  -1  -5 1101.59   33.50
   5   1  -5 1127.99   34.10
  -5  -1   5 1125.49   34.60
  -5  -1   5 1125.19   31.80
  -5   1  -5 1069.19   33.20
   5  -1  -5 1081.49   34.00
  -5   1  -5 1118.09   32.10
   5   1   5 1070.99   41.30
  -5   1  -5 1013.90   37.00
  -6   1   5  249.58   10.90
   6  -1   5  226.58   11.80
  -6  -1  -5  253.37   15.90
  -6   1   5  257.37   13.00
  -6  -1  -5  271.57   12.00
   6  -1   5  254.97   14.70
  -6   1  -5  265.27   11.10
   6   1   5  260.97   16.00
   6  -1  -5  247.38   12.50
  -6   1  -5  243.88   15.30
  -6   1  -5  237.88   13.10
  -6  -1   5  260.27   11.00
  -6  -1   5  260.97   13.20
   6  -1  -5  247.38   14.90
  -7  -1  -5  757.92   26.10
  -7   1   5  746.43   27.50
  -7  -1  -5  726.23   32.20
  -7   1   5  751.62   24.90
  -7   1  -5  732.93   24.70
  -7   1  -5  722.63   31.20
  -7  -1   5  758.12   25.00
  -7  -1   5  782.52   28.10
  -8  -1  -5    8.50    3.00
  -8   1   5    9.40    3.50
  -8  -1  -5    9.90    4.80
  -8  -1   5   12.90    4.40
  -8   1  -5   16.00    5.80
  -8   1  -5   18.00    3.90
  -9  -1  -5  345.47   25.10
  -9  -1  -5  325.97   16.10
  -9   1   5  310.07   17.10
  -9   1  -5  316.67   15.30
  -9  -1   5  311.57   19.60
  -9   1  -5  307.27   20.10
 -10  -1  -5   -1.10    2.40
 -10  -1  -5    1.30    4.60
 -10   1   5    1.00    2.80
 -10   1  -5   -4.40    3.90
 -10   1  -5    2.80    2.40
 -10  -1   5   -0.70    2.80
 -11  -1  -5   18.90    5.00
 -11   1   5   29.30    7.00
 -11  -1  -5   22.80    8.60
 -11  -1   5   13.40    5.10
 -11   1  -5   26.90    8.20
 -11   1  -5   22.20    5.10
   0   2   5 1588.74   42.70
   0   2   5 1534.35   40.30
   0   2  -5 1558.74   39.30
   0  -2  -5 1589.34   40.90
   0  -2  -5 1472.55   43.00
   0  -2  -5 1586.04   42.20
  -1  -2  -5   67.39    4.90
   1   2  -5   72.29    3.10
  -1   2   5   67.79    3.60
  -1  -2  -5   69.79    3.80
   1  -2   5   67.89    2.90
  -1  -2  -5   65.49    4.80
  -1  -2  -5   67.19    4.50
   1   2  -5   65.69    3.50
  -1  -2   5   67.09    3.10
   1  -2  -5   67.39    4.40
  -1   2  -5   68.19    3.50
   1  -2  -5   71.89    3.40
   1   2   5   66.89    5.10
  -1   2  -5   68.99    4.70
   1   2   5   68.39    3.70
  -1  -2   5   67.69    3.70
  -2   2   5   95.99    4.50
  -2  -2  -5  121.29    7.20
   2   2  -5   95.49    5.00
   2  -2   5   97.39    5.80
  -2  -2  -5   89.49    5.90
  -2   2   5   91.59    5.50
  -2  -2  -5   97.49    5.90
   2   2  -5   99.79    4.10
  -2  -2  -5   96.69    5.10
   2  -2   5   91.09    4.10
   2   2   5   83.19    6.10
   2   2   5  122.49    7.60
  -2   2  -5  121.09    6.60
  -2  -2   5   97.19    4.20
   2   2   5  101.39    5.20
   2  -2  -5   95.99    5.60
  -2  -2   5   95.49    5.20
   3  -2   5   10.40    1.80
  -3  -2  -5    9.70    2.20
   3   2  -5    8.70    1.90
   3  -2   5   10.40    2.40
  -3   2   5   11.50    1.80
  -3   2   5   11.00    2.40
  -3  -2  -5    7.40    2.70
  -3  -2  -5   13.40    2.60
  -3   2  -5   10.70    1.40
   3   2   5   11.00    3.00
  -3   2  -5    9.50    2.60
   3  -2  -5    9.60    2.10
  -3  -2   5   13.30    2.60
   3   2   5   19.00    2.80
  -3  -2   5   14.00    1.90
   3   2   5   13.80    3.00
   4   2  -5   77.39    5.50
  -4  -2  -5   87.99    7.70
   4  -2   5   81.79    5.10
  -4  -2  -5   85.79    5.70
   4   2  -5   84.09    4.80
   4  -2   5   83.09    6.40
  -4  -2  -5   84.19    5.80
  -4   2   5   86.29    6.10
   4   2   5   94.39    6.00
   4   2   5   78.29    6.20
   4   2   5   80.79    7.80
  -4   2  -5   79.79    4.30
  -4  -2   5   81.79    6.10
   4  -2  -5   86.09    5.90
  -4  -2   5   85.59    4.80
  -4   2  -5   71.99    6.50
   5   2  -5   14.40    3.70
   5   2  -5   14.50    3.10
  -5  -2  -5   15.00    3.20
   5  -2   5    9.20    3.10
  -5  -2  -5    8.10    3.70
   5  -2   5    9.80    2.40
   5   2   5    8.20    2.90
  -5   2  -5   11.20    2.90
  -5  -2   5    6.20    2.10
  -5   2  -5    9.50    3.60
  -5  -2   5   12.70    2.40
   5   2   5   14.90    3.20
  -5   2  -5   11.20    2.20
   5   2   5   10.20    4.00
  -6   2   5  254.47   12.90
   6  -2   5  256.67   16.10
  -6  -2  -5  235.58   15.70
  -6   2   5  244.68   10.90
   6   2  -5  238.38   12.40
  -6  -2  -5  259.57   12.20
   6  -2   5  233.28   11.50
  -6   2  -5  244.98   15.00
   6  -2  -5  235.88   14.30
  -6  -2   5  249.18   11.00
  -6   2  -5  267.57   10.70
  -6  -2   5  248.18   13.00
   6  -2  -5  240.28   12.40
  -7   2   5   94.89    8.30
  -7   2   5  101.59    7.10
  -7  -2  -5  106.49   11.20
  -7  -2  -5  117.09    8.40
   7  -2   5  114.89   10.40
  -7  -2   5  105.79    7.30
  -7  -2   5  110.99    9.20
  -7   2  -5  109.89    7.10
  -7   2  -5  112.79   10.90
  -8  -2  -5  118.49   12.70
  -8   2   5  140.69   10.50
  -8  -2  -5  131.09    9.70
  -8   2  -5  130.39    8.40
  -8  -2   5  124.49   10.40
  -8   2  -5  135.79   12.40
  -9   2   5   24.80    5.60
  -9  -2  -5   30.30    8.10
  -9  -2  -5   25.10    4.90
  -9   2  -5   27.40    5.10
  -9   2  -5   25.60    7.20
 -10   2   5   19.30    4.90
 -10  -2  -5   26.90    7.90
 -10  -2  -5   19.30    4.60
 -10  -2   5   14.70    5.60
 -10   2  -5   29.80    7.20
 -10   2  -5   23.20    4.80
 -11  -2  -5    7.80    3.70
 -11   2   5   24.00    6.50
 -11  -2  -5    6.20    5.60
 -11   2  -5    8.00    3.60
 -11  -2   5   11.10    5.20
 -11   2  -5   11.20    6.00
   0  -3  -5    1.40    0.90
   0  -3  -5   -0.20    0.70
   0   3   5   -0.30    0.70
   0   3   5    1.00    0.80
   0  -3  -5   -0.50    1.00
   0   3  -5   -1.00    0.70
   0  -3   5    0.70    0.70
   0   3   5    2.20    1.40
   0   3  -5    1.30    0.50
  -1  -3  -5    6.10    1.90
  -1  -3  -5    4.30    1.90
   1   3  -5    4.70    1.40
  -1   3   5    5.30    1.80
  -1  -3  -5    2.70    1.30
  -1  -3  -5    3.50    1.80
  -1   3  -5    2.90    1.10
   1   3   5    0.00    1.00
   1   3   5    1.60    1.50
   1  -3  -5   10.90    2.40
   1  -3  -5    3.30    1.30
  -1   3  -5    4.20    1.60
   1  -3  -5    7.70    2.00
  -1  -3   5    4.30    1.30
  -2  -3  -5  521.15   19.10
  -2  -3  -5  523.45   18.70
  -2  -3  -5  517.35   19.00
   2   3  -5  528.35   16.50
  -2   3   5  547.25   16.80
   2   3  -5  531.55   15.80
  -2  -3  -5  551.94   17.30
  -2   3   5  534.95   18.00
   2  -3   5  531.15   17.40
  -2   3  -5  534.65   16.70
   2   3   5  524.05   17.20
   2   3   5  497.45   19.40
   2  -3  -5  500.45   17.70
   2  -3  -5  560.84   17.20
  -2  -3   5  548.35   17.10
   2   3   5  525.25   20.10
  -2  -3   5  547.05   16.30
  -2   3  -5  534.15   17.90
   3   3  -5  616.94   19.80
  -3  -3  -5  665.13   21.70
  -3   3   5  630.94   19.20
   3  -3   5  615.14   17.90
  -3  -3  -5  618.44   23.00
   3   3  -5  617.04   18.70
   3  -3   5  640.24   20.50
  -3  -3  -5  633.54   20.30
  -3  -3   5  630.74   18.80
   3   3   5  599.04   22.20
   3   3   5  628.14   20.40
   3   3   5  601.84   23.80
  -3   3  -5  618.54   21.30
  -3   3  -5  643.64   16.80
  -3  -3   5  627.54   20.50
  -4   3   5  249.18    9.80
  -4  -3  -5  238.98   10.60
  -4  -3  -5  248.08   12.60
   4  -3   5  233.98    9.20
   4   3  -5  236.88   10.60
  -4  -3  -5  237.68   13.30
   4   3  -5  221.48    9.30
   4  -3   5  231.18   10.90
  -4   3  -5  237.48    8.20
  -4   3  -5  241.58   12.10
  -4  -3   5  245.58   11.30
  -4  -3   5  231.18    9.30
   4  -3  -5  230.98   11.00
   4   3   5  218.48   10.50
  -5   3   5   19.70    4.00
  -5  -3  -5   15.00    4.20
  -5   3   5   15.60    2.90
  -5  -3  -5   16.60    3.60
   5   3  -5   15.80    4.30
   5   3  -5   10.10    2.40
   5  -3   5   14.00    2.60
   5  -3   5   16.40    3.60
  -5  -3  -5   11.00    2.70
   5   3   5   21.90    5.60
  -5  -3   5   12.30    2.60
   5   3   5   18.40    3.50
  -5   3  -5   18.00    2.50
  -5  -3   5   21.00    3.80
  -5   3  -5   13.80    3.60
   5   3   5   14.00    3.20
   6  -3   5    4.30    1.80
   6   3  -5   10.00    3.00
  -6   3   5    7.40    2.60
  -6  -3  -5    4.00    3.60
  -6  -3  -5    8.90    2.80
   6   3   5    5.70    2.90
  -6  -3   5    6.10    2.70
  -6   3  -5    5.10    3.30
  -6  -3   5   10.60    2.70
  -6   3  -5    8.90    2.10
  -7   3   5    0.50    1.90
  -7  -3  -5    0.90    4.00
   7  -3   5    5.40    3.30
  -7  -3  -5   -2.70    1.90
  -7  -3   5    1.00    2.60
  -7   3  -5    1.20    3.70
  -7  -3   5    2.90    2.00
  -7   3  -5    5.60    2.20
  -8   3   5   76.69    8.10
  -8  -3  -5   65.69    7.40
  -8  -3  -5   50.89    9.40
  -8   3  -5   73.89    8.90
  -8  -3   5   66.89    8.10
  -8   3  -5   64.19    6.00
  -9   3   5   62.69    8.60
  -9  -3  -5   56.49   10.50
  -9  -3  -5   44.70    7.40
  -9   3  -5   45.80    5.80
  -9   3  -5   49.30    8.70
  -9  -3   5   29.20    8.30
 -10   3   5    7.40    3.90
 -10  -3  -5    5.70    2.90
 -10  -3  -5   12.50    6.40
 -10   3  -5    4.90    7.50
 -10  -3   5    4.30    3.30
 -10   3  -5    8.20    3.30
 -11   3   5   -2.00    6.20
 -11  -3  -5   -3.70    4.80
 -11   3  -5   -2.00    2.10
 -11   3  -5    4.70    5.70
 -11  -3   5    0.30    3.20
   0  -4  -5  704.53   22.50
   0   4   5  722.03   23.80
   0   4  -5  721.83   19.10
   0  -4  -5  698.33   22.80
   0   4   5  716.83   23.70
   0  -4   5  728.83   21.50
   0   4   5  732.73   22.40
   0  -4  -5  755.02   23.70
   0   4  -5  726.63   21.90
  -1  -4  -5   14.60    2.50
  -1   4   5   17.70    3.00
   1   4  -5   26.90    2.20
  -1  -4  -5   19.20    3.30
   1   4  -5   15.50    2.50
  -1  -4  -5   19.80    3.70
  -1   4   5   19.40    3.40
  -1  -4  -5   18.20    3.30
   1  -4  -5   18.50    3.00
  -1   4  -5   17.20    2.70
   1   4   5   22.00    2.80
  -1   4  -5   17.60    2.30
   1  -4  -5   19.70    2.70
   1  -4  -5   20.40    2.60
  -1  -4   5   17.50    2.10
   1   4   5   21.80    3.80
  -2  -4  -5  310.27   13.80
  -2  -4  -5  331.87   14.10
   2   4  -5  354.36   11.90
  -2  -4  -5  335.27   14.40
  -2  -4  -5  321.67   12.40
  -2   4   5  335.47   12.60
   2   4  -5  326.37   11.60
  -2   4   5  318.87   13.00
  -2   4  -5  318.97   11.80
  -2  -4   5  335.97   12.10
   2   4   5  325.87   15.10
   2   4   5  314.67   14.70
   2  -4  -5  318.77   13.10
   2  -4  -5  345.57   11.90
  -2  -4   5  319.97   11.90
   2   4   5  326.47   12.60
  -2   4  -5  325.27   12.50
   3  -4   5   10.60    2.30
  -3   4   5    7.40    1.90
  -3  -4  -5    4.70    1.50
   3  -4   5    8.10    1.30
   3   4  -5    1.70    1.10
  -3  -4  -5    3.50    1.80
   3   4  -5    9.10    1.90
  -3   4   5    2.50    1.50
  -3  -4  -5    7.40    2.70
  -3  -4   5    4.30    1.50
  -3   4  -5    5.30    1.90
   3   4   5    4.20    1.80
  -3  -4   5    9.20    2.40
   3  -4  -5    2.10    1.40
   3   4   5    7.70    2.40
   3   4   5    5.30    2.80
  -3   4  -5    6.80    1.90
   4  -4   5    9.50    1.80
   4   4  -5   13.80    2.60
   4   4  -5   18.70    3.10
  -4  -4  -5    8.40    3.30
   4  -4   5   16.70    3.00
  -4  -4  -5   12.00    2.60
  -4   4   5   12.40    3.10
  -4  -4  -5    8.80    2.60
  -4   4   5   11.60    2.50
  -4   4  -5   13.50    1.80
   4   4   5   14.30    3.80
  -4  -4   5    9.00    2.30
   4  -4  -5    7.40    2.10
  -4  -4   5   16.10    2.70
  -4   4  -5   11.10    3.10
  -5   4   5  100.19    7.30
   5  -4   5   85.39    5.60
   5   4  -5   77.99    7.90
   5   4  -5   82.39    5.90
  -5  -4  -5  104.99    9.70
  -5   4   5   84.69    6.00
   5  -4   5   97.99    6.90
   5   4  -5   83.69    6.50
  -5  -4  -5   98.19    7.60
  -5  -4   5   83.79    5.70
  -5  -4   5   80.39    6.90
  -5   4  -5   80.69    7.30
   5   4   5   83.89    6.70
   5   4   5   73.39    8.40
   5  -4  -5   75.29    6.40
  -5   4  -5   83.69    4.70
   5   4   5   87.29    7.60
  -6   4   5  125.89    9.00
  -6   4   5  128.29    8.00
  -6  -4  -5  133.49    9.30
  -6  -4  -5  123.39   11.60
   6  -4   5  131.49    9.00
   6   4  -5  128.29    8.80
   6  -4   5  124.19    7.60
   6   4  -5  125.79    8.00
  -6  -4   5  122.69    7.80
   6   4   5  132.09    9.10
  -6   4  -5  135.09   10.40
  -6   4  -5  126.39    6.70
  -6  -4   5  129.49    9.30
   7   4  -5   88.89    7.30
  -7   4   5   87.19    7.10
  -7  -4  -5   84.39    7.90
   7  -4   5   93.29    8.30
  -7  -4  -5   78.59   11.50
  -7   4   5   81.19    7.80
  -7  -4   5   86.59    8.40
   7   4   5   81.69    7.80
  -7   4  -5   89.59    8.90
  -7   4  -5   86.59    6.00
  -7  -4   5   86.19    6.80
  -8   4   5  110.59    9.80
  -8   4  -5  114.69    7.70
  -8   4  -5  109.79   10.60
  -8  -4   5  107.39    9.90
  -9   4   5   13.00    4.70
  -9  -4  -5   -1.10    3.90
  -9  -4  -5   -1.90    2.30
  -9   4  -5    5.10    3.40
  -9   4  -5   -2.40    1.80
  -9  -4   5    0.20    3.80
 -10  -4  -5    6.30    3.70
 -10  -4  -5   28.20    8.20
 -10   4   5   14.80    5.10
 -10   4  -5   16.70    5.70
 -10  -4   5   13.50    5.20
 -10   4  -5   10.80    3.40
 -11  -4  -5   15.50    8.20
 -11   4   5   19.20    5.50
 -11  -4  -5   20.80    6.30
 -11   4  -5   19.50    6.30
 -11  -4   5   16.30    5.30
 -11   4  -5   21.20    4.90
   0   5   5    3.80    1.90
   0  -5   5    1.40    1.20
   0  -5  -5    1.40    1.40
   0  -5  -5   -0.80    1.10
   0   5  -5    1.40    1.30
   0   5   5    3.30    1.70
   0   5   5    0.10    0.90
   0  -5  -5    4.20    1.60
   1  -5   5 1698.43   42.90
  -1  -5  -5 1564.44   48.70
   1  -5   5 1715.43   46.40
  -1  -5  -5 1689.73   47.90
  -1   5   5 1729.03   48.20
   1   5  -5 1647.84   46.90
  -1  -5  -5 1646.44   49.30
   1   5  -5 1702.43   44.60
  -1  -5  -5 1769.02   47.50
  -1   5   5 1578.94   47.40
  -1   5  -5 1731.43   46.40
   1  -5  -5 1742.13   46.80
  -1  -5   5 1696.93   46.80
  -1  -5   5 1665.63   45.10
   1   5   5 1687.93   49.20
   1   5   5 1759.62   47.60
   1  -5  -5 1692.63   48.10
  -1   5  -5 1628.44   45.90
   1  -5  -5 1700.33   47.20
  -2  -5  -5 1799.62   52.59
  -2  -5  -5 1890.21   51.19
   2   5  -5 1885.31   50.49
  -2   5   5 1867.71   51.89
  -2  -5  -5 1884.81   53.89
   2   5  -5 1785.22   49.30
  -2   5   5 1870.61   51.59
  -2  -5  -5 1788.52   53.19
   2   5   5 1802.52   51.19
   2  -5  -5 1907.61   50.59
  -2   5  -5 1848.02   50.19
   2   5   5 1754.42   54.29
  -2   5  -5 1821.82   49.99
   2   5   5 1769.62   54.69
  -2  -5   5 1860.11   50.29
   2  -5  -5 1882.11   50.59
  -2  -5   5 1840.42   50.69
   2  -5  -5 1852.01   52.09
  -3  -5  -5 1237.78   36.40
   3  -5   5 1245.48   32.40
  -3   5   5 1217.18   35.90
   3  -5   5 1271.57   34.60
  -3  -5  -5 1217.68   38.40
   3   5  -5 1232.68   35.40
  -3   5   5 1236.48   36.90
   3   5  -5 1228.68   35.50
   3   5   5 1138.09   40.40
  -3   5  -5 1252.87   35.80
   3   5   5 1238.48   36.90
  -3  -5   5 1197.58   36.20
  -3  -5   5 1220.58   35.30
  -3   5  -5 1212.48   35.70
   3  -5  -5 1229.78   37.20
   4  -5   5  631.54   19.70
   4   5  -5  642.64   28.10
   4  -5   5  658.13   21.10
  -4   5   5  684.03   23.30
  -4   5   5  692.33   22.10
   4   5  -5  665.93   22.40
  -4  -5  -5  668.83   24.30
  -4  -5  -5  603.54   25.40
   4   5  -5  643.04   21.70
  -4   5  -5  667.03   22.30
  -4  -5   5  663.33   23.30
   4   5   5  657.93   23.20
   4   5   5  648.74   25.20
  -4   5  -5  686.73   23.10
   4   5   5  633.54   27.50
  -4  -5   5  674.03   21.70
  -4   5  -5  676.43   18.50
   5   5  -5  730.43   24.50
  -5   5   5  731.63   26.00
  -5   5   5  752.52   27.00
   5  -5   5  763.22   24.60
  -5  -5  -5  771.02   28.10
  -5  -5  -5  736.23   30.20
  -5  -5  -5  776.52   27.20
   5   5  -5  737.53   25.50
  -5   5  -5  755.82   21.70
   5   5   5  725.23   26.00
  -5  -5   5  766.82   26.80
  -5   5  -5  736.13   26.80
  -5  -5   5  731.83   24.10
   5  -5  -5  700.33   26.00
  -6  -5  -5  336.07   19.50
   6   5  -5  308.67   15.10
  -6   5   5  362.56   15.00
  -6  -5  -5  335.17   16.20
   6  -5   5  324.27   13.70
  -6   5   5  347.87   15.90
   6  -5   5  317.77   14.50
   6   5  -5  337.27   14.60
  -6   5  -5  337.97   12.30
  -6  -5   5  317.57   14.00
  -6  -5   5  334.17   16.40
   6   5   5  344.07   16.20
  -6   5  -5  351.46   16.70
  -7  -5  -5  246.78   14.00
  -7   5   5  236.88   12.50
  -7  -5  -5  259.67   17.70
   7  -5   5  254.57   15.40
   7   5  -5  230.38   12.50
  -7   5   5  239.58   13.50
  -7   5  -5  253.37   14.60
  -7   5  -5  234.38   10.50
  -7  -5   5  254.77   14.70
   7   5   5  234.58   13.70
   7  -5  -5  220.28   14.70
  -8   5   5  239.08   13.20
   8   5  -5  249.97   13.70
  -8  -5  -5  260.27   18.50
  -8   5   5  265.07   14.70
   8  -5   5  240.18   16.00
  -8  -5  -5  246.38   14.50
   8   5   5  244.58   14.80
  -8  -5   5  238.78   15.00
  -8   5  -5  217.58   14.20
  -8   5  -5  213.08   10.90
  -9   5   5   65.99   11.80
  -9  -5  -5   74.79   12.60
  -9   5   5   76.39    8.70
  -9  -5  -5   87.69    9.40
  -9   5  -5   79.49    6.80
  -9  -5   5   90.69   10.30
  -9   5  -5   80.19    9.10
 -10   5   5    8.00    4.20
 -10  -5  -5   13.40    4.70
 -10  -5  -5   10.50    5.40
 -10   5   5    6.40    4.20
 -10   5  -5   10.40    5.20
 -10  -5   5   13.30    5.50
 -10   5  -5    8.10    3.30
 -11  -5  -5   30.50    6.20
 -11  -5  -5   29.20   14.70
 -11   5   5   40.30    7.30
 -11   5   5   27.20    7.30
 -11  -5   5   28.80    7.50
 -11   5  -5   37.50    8.10
 -11   5  -5   36.70    6.10
   0  -6   5  213.98   10.10
   0   6   5  212.28   10.70
   0   6   5  214.48   11.30
   0  -6  -5  223.08   10.00
   0   6   5  219.58   11.10
   0  -6  -5  201.88   10.40
   0   6  -5  217.08   10.50
   0  -6  -5  193.88   10.70
   1   6  -5  292.27   10.40
  -1   6   5  278.57   13.00
  -1   6   5  281.57   12.90
   1  -6   5  287.77    9.30
  -1  -6  -5  275.87   12.20
  -1  -6  -5  289.67   12.50
  -1  -6  -5  263.07   13.40
   1  -6   5  270.77   11.80
   1   6  -5  280.17   12.40
   1  -6   5  284.87    9.50
  -1  -6  -5  280.37   13.70
   1   6   5  275.97   12.60
  -1  -6   5  288.47   10.90
  -1   6  -5  272.97   11.70
   1  -6  -5  269.27   12.80
  -1   6  -5  258.17   10.70
   1  -6  -5  285.97   12.50
   1  -6  -5  280.37   11.50
  -1  -6   5  283.17   12.20
   1   6   5  268.77   13.20
  -2   6   5  318.37   13.90
  -2   6   5  333.47   14.40
   2   6  -5  314.97   12.10
  -2  -6  -5  323.37   15.40
  -2  -6  -5  321.07   14.60
   2   6  -5  316.97   13.40
  -2  -6  -5  345.97   13.90
   2  -6   5  324.07    9.80
  -2  -6  -5  327.27   17.60
   2  -6  -5  311.37   14.10
  -2  -6   5  301.37   13.20
  -2   6  -5  300.27   11.80
   2   6   5  329.97   14.10
  -2  -6   5  326.27   12.90
  -2   6  -5  313.47   12.80
   2   6   5  331.57   16.00
   2  -6  -5  310.97   13.20
   2  -6  -5  344.77   12.80
  -3  -6  -5   14.10    3.80
  -3  -6  -5   22.80    4.70
   3   6  -5   15.10    3.00
  -3  -6  -5   18.20    3.80
   3   6  -5   14.10    3.30
  -3   6   5   24.80    4.00
   3   6  -5   19.20    3.00
  -3   6   5   14.50    3.30
   3  -6   5   18.00    2.20
  -3  -6   5   20.00    3.40
   3  -6  -5   22.60    4.20
   3  -6  -5   14.30    2.90
   3   6   5   16.50    4.30
   3   6   5   20.00    3.70
   3   6   5   26.00    6.30
  -3   6  -5   19.60    3.00
  -3  -6   5   13.90    2.90
  -4  -6  -5  276.27   14.10
  -4  -6  -5  290.87   15.50
   4  -6   5  264.97   10.40
   4   6  -5  250.87   11.70
  -4   6   5  255.17   11.90
  -4   6   5  253.97   12.60
   4   6  -5  242.48   11.50
  -4  -6  -5  249.38   12.10
   4  -6   5  247.98    9.60
   4   6  -5  262.27   14.00
   4   6   5  232.38   15.60
   4   6   5  248.78   12.70
  -4   6  -5  272.87   12.20
  -4  -6   5  275.77   11.80
   4   6   5  274.97   14.90
  -4  -6   5  264.67   12.90
   4  -6  -5  242.18   12.60
  -4   6  -5  256.47    8.60
  -4   6  -5  264.27   11.90
  -5  -6  -5   39.00    6.10
  -5   6   5   32.70    4.80
  -5  -6  -5   37.90    7.10
  -5   6   5   33.10    5.30
   5   6  -5   36.60    4.50
   5  -6   5   42.30    4.50
   5   6  -5   40.10    5.60
   5  -6   5   30.90    3.70
  -5   6  -5   43.70    5.30
  -5   6  -5   34.60    4.90
   5   6   5   29.70    5.00
  -5   6  -5   42.60    3.40
  -5  -6   5   28.00    4.90
  -5  -6   5   35.90    5.50
   6   6  -5   53.59    6.20
   6  -6   5   58.89    5.50
  -6  -6  -5   57.39    9.50
   6   6  -5   52.89    6.00
  -6   6   5   61.49    6.70
  -6  -6  -5   53.79    6.70
  -6   6   5   58.89    6.00
  -6  -6   5   54.09    5.50
  -6   6  -5   56.09    6.30
  -6   6  -5   56.89    4.50
  -6  -6   5   41.10    6.20
  -6   6  -5   51.09    6.30
   6   6   5   67.79    7.00
  -7  -6  -5  111.69   12.10
   7   6  -5  107.69    8.70
  -7  -6  -5  109.89    9.90
   7  -6   5   96.39    7.80
  -7   6   5  110.79    8.60
  -7   6   5  116.69    9.40
  -7  -6   5  110.69   10.10
   7  -6  -5  104.69    9.70
  -7   6  -5  104.19    6.60
  -7   6  -5  117.39    9.00
   7   6   5  105.99    9.30
  -8  -6  -5   16.90    6.00
   8   6  -5   20.40    4.90
   8  -6   5   15.80    4.70
  -8   6   5   11.80    4.20
  -8   6   5   14.10    4.20
  -8  -6  -5    7.90    4.00
   8   6   5   12.90    4.20
  -8   6  -5   23.70    5.30
  -8  -6   5   15.40    4.90
  -8   6  -5   16.60    3.60
  -9   6   5   16.60    4.70
  -9  -6  -5   25.50    5.70
  -9  -6  -5   15.10    7.70
  -9   6   5    6.50    3.90
  -9   6  -5   17.00    4.80
  -9   6  -5   20.80    4.10
   9   6   5   28.70    6.50
  -9  -6   5   15.10    5.00
 -10  -6  -5    6.70    5.20
 -10   6   5    2.50    3.60
 -10   6   5    6.10    4.20
 -10  -6  -5    9.20    4.60
 -10   6  -5    1.00    2.60
 -10   6  -5   -1.90    3.20
 -10  -6   5    2.30    4.30
 -11  -6  -5    1.10    5.50
 -11   6   5    2.70    3.70
 -11  -6  -5    8.20    4.60
 -11   6   5   -6.20    3.60
 -11  -6   5    1.10    4.00
 -11   6  -5    2.80    3.00
   0  -7   5    0.60    1.60
   0   7   5   -0.30    1.40
   0  -7  -5   -3.10    1.30
   0  -7   5   -0.20    1.00
   0  -7  -5    1.40    1.50
   0  -7  -5    2.30    1.90
   0   7   5   -2.60    1.30
   0   7  -5   -2.60    1.30
  -1  -7  -5 3219.58   86.99
  -1   7   5 3235.18   88.39
  -1  -7  -5 3251.07   87.89
   1   7  -5 3177.28   87.79
   1  -7   5 3154.68   83.09
  -1  -7  -5 3261.37   89.79
  -1  -7  -5 3445.66   90.39
  -1   7   5 3312.67   89.09
   1   7  -5 3179.38   84.39
   1  -7   5 3342.27   87.39
   1   7   5 3309.77   88.79
  -1   7  -5 3349.06   87.19
   1  -7  -5 3288.07   92.19
   1  -7  -5 3234.18   85.29
  -1   7  -5 3081.79   84.09
   1  -7  -5 3248.38   87.89
  -1  -7   5 3245.58   85.19
   1   7   5 3138.59   88.79
  -1  -7   5 3347.36   87.59
  -2  -7  -5  561.04   21.70
  -2  -7  -5  551.54   22.70
  -2  -7  -5  582.54   23.70
   2  -7   5  578.84   17.20
   2  -7   5  603.94   17.80
   2   7  -5  589.04   19.50
  -2   7   5  580.44   22.20
   2   7  -5  611.44   21.90
  -2  -7  -5  584.24   23.40
  -2   7   5  566.94   21.40
   2   7   5  586.04   22.10
   2  -7  -5  592.74   19.40
  -2  -7   5  612.94   20.50
  -2  -7   5  585.94   21.20
  -2   7  -5  575.74   18.50
   2   7   5  574.74   23.50
   2  -7  -5  572.44   21.20
  -2   7  -5  576.54   20.80
   3   7  -5 1489.75   42.80
  -3  -7  -5 1427.96   43.90
  -3  -7  -5 1482.45   46.40
   3  -7   5 1449.85   39.30
   3   7  -5 1507.45   44.20
  -3  -7  -5 1496.55   46.70
  -3   7   5 1513.65   44.50
   3  -7  -5 1490.25   43.80
   3   7   5 1469.95   49.20
  -3  -7   5 1478.55   44.00
  -3  -7   5 1430.06   43.40
   3  -7  -5 1518.75   42.00
   3  -7  -5 1474.75   45.10
  -3   7  -5 1574.64   41.40
   3   7   5 1429.86   44.90
   3   7   5 1385.36   47.30
  -3   7  -5 1482.25   43.30
   4   7  -5  404.16   18.50
   4   7  -5  389.26   16.10
   4  -7   5  378.16   13.30
  -4   7   5  402.26   16.90
   4   7  -5  360.76   17.50
  -4  -7  -5  401.16   19.60
  -4   7   5  386.36   16.40
  -4  -7  -5  418.06   18.90
  -4  -7   5  398.26   17.20
  -4   7  -5  412.66   15.20
   4   7   5  385.36   17.40
  -4   7  -5  375.06   15.90
  -4   7  -5  392.46   12.40
   4   7   5  364.56   22.90
  -4  -7   5  414.56   18.00
   5  -7   5 1081.59   32.80
  -5   7   5 1165.88   36.00
  -5  -7  -5 1168.98   38.90
  -5  -7  -5 1125.89   41.00
   5   7  -5 1050.29   35.60
   5   7  -5 1061.19   35.70
   5  -7   5 1110.99   32.50
  -5   7   5 1186.08   37.00
  -5   7  -5 1140.59   34.80
   5   7   5 1136.69   37.80
  -5  -7   5 1121.49   35.20
  -5   7  -5 1196.88   34.20
  -5   7  -5 1149.08   36.20
  -5  -7   5 1107.09   37.40
  -6  -7  -5  238.78   16.50
  -6   7   5  249.78   13.70
   6   7  -5  233.18   12.80
  -6  -7  -5  258.97   15.00
  -6   7   5  245.28   12.80
   6  -7   5  243.18   11.10
   6   7   5  237.08   14.10
  -6   7  -5  240.78   12.20
  -6  -7   5  245.18   14.40
  -6   7  -5  229.18   12.90
  -6   7  -5  247.28   10.00
   7   7  -5  805.92   29.90
  -7   7   5  818.92   29.50
   7  -7   5  843.82   27.90
   7   7   5  879.41   44.50
  -7   7  -5  869.61   26.30
  -7   7  -5  841.52   29.00
  -7  -7   5  801.62   31.90
  -7   7  -5  822.92   30.60
   7  -7  -5  831.12   31.40
  -8  -7  -5   74.39    9.00
   8   7  -5   66.89    7.90
  -8   7   5   65.69    7.40
   8  -7   5   87.69    8.40
  -8   7   5   75.29    8.50
  -8  -7  -5   74.19   11.70
  -8   7  -5   71.69    7.50
  -8  -7   5   75.79    9.50
  -8   7  -5   69.99    8.20
  -8   7  -5   72.69    6.20
   8   7   5   67.09    9.20
  -9   7   5  141.29   11.70
  -9  -7  -5  142.59   12.30
   9   7  -5  129.99   11.10
  -9  -7  -5  122.49   13.40
  -9   7   5  140.39   11.20
  -9   7  -5  138.99    9.00
   9   7   5  139.89   12.00
  -9   7  -5  131.79   10.80
  -9   7  -5  157.68   11.10
  -9  -7   5  154.78   13.20
 -10   7   5   28.40    8.40
 -10  -7  -5   19.50    8.50
 -10   7   5   11.00    4.50
 -10   7  -5   25.60    4.90
 -10   7  -5   25.30    6.90
 -10  -7   5   27.80    6.70
 -10   7  -5   24.30    5.80
   0  -8   5 3212.18   90.19
   0   8   5 3360.76   92.49
   0   8   5 3221.08   89.99
   0  -8  -5 3395.66   88.49
   0   8  -5 3476.65   91.39
   0  -8  -5 3485.05   92.79
   0  -8  -5 3459.05   91.79
   0  -8   5 3381.56   87.49
   0  -8  -5 3031.90   91.29
  -1  -8  -5   34.30    5.50
  -1   8   5   32.90    5.60
   1   8  -5   37.30    3.90
  -1  -8  -5   27.80    4.50
   1   8  -5   35.50    5.60
   1  -8   5   34.80    3.50
  -1   8   5   39.10    5.90
  -1  -8  -5   50.09    7.20
  -1  -8   5   34.10    4.10
   1   8   5   35.90    5.70
   1  -8  -5   37.00    4.10
  -1   8  -5   31.30    3.30
  -1   8  -5   32.80    4.90
  -1  -8   5   37.20    5.30
   1  -8  -5   31.50    6.00
   1  -8  -5   37.00    5.70
   1   8   5   37.40    5.50
   2  -8   5   64.49    6.40
  -2  -8  -5   68.49    6.50
  -2  -8  -5   62.39    5.90
  -2  -8  -5   80.89    7.70
  -2   8   5   61.99    6.80
   2   8  -5   67.79    6.20
   2   8  -5   67.89    5.40
   2  -8   5   61.19    4.20
   2   8  -5   58.89    7.10
  -2  -8  -5   65.79    7.20
  -2   8   5   73.09    6.70
  -2   8  -5   65.89    4.30
   2  -8  -5   59.99    4.90
   2  -8  -5   56.69    6.20
  -2  -8   5   63.99    5.70
  -2  -8   5   70.39    6.20
   2   8   5   63.69    6.50
   2  -8  -5   58.39    6.50
  -2   8  -5   71.69    6.30
   3  -8   5    1.20    1.30
  -3   8   5    1.40    2.00
  -3  -8  -5    3.00    2.50
  -3   8   5    3.50    2.40
   3   8  -5    2.30    2.20
  -3  -8  -5    0.10    2.10
  -3  -8  -5   -0.10    1.80
   3   8  -5    0.80    1.50
  -3  -8  -5   -0.20    1.80
   3   8  -5    7.90    3.10
  -3  -8   5    2.50    2.00
   3   8   5    0.70    2.10
   3   8   5   -3.80    2.30
   3   8   5    1.90    2.80
  -3  -8   5    6.60    2.70
   3  -8  -5    1.70    1.80
  -3   8  -5   -0.60    1.40
  -3   8  -5   -0.60    1.20
   3  -8  -5   -1.10    1.70
  -4  -8  -5  476.35   22.40
   4   8  -5  476.25   19.20
  -4   8   5  499.05   20.10
   4   8  -5  504.45   20.30
  -4  -8  -5  499.55   22.20
   4   8  -5  486.45   21.50
  -4   8   5  511.55   20.40
   4  -8   5  474.65   16.30
   4  -8  -5  504.85   17.80
  -4  -8   5  502.65   19.50
   4   8   5  501.55   21.40
  -4   8  -5  510.25   19.80
  -4   8  -5  497.65   17.00
  -4  -8   5  507.35   20.80
  -5  -8  -5    2.70    3.50
  -5   8   5    7.50    2.80
   5   8  -5    2.60    2.80
   5   8  -5    5.60    2.90
  -5   8   5    9.50    3.50
  -5  -8  -5    7.60    3.60
   5  -8   5    9.70    2.50
  -5  -8   5    6.60    3.40
  -5   8  -5    8.10    2.20
  -5   8  -5   10.00    3.20
  -5   8  -5   10.80    2.20
   5   8   5   11.10    3.80
  -5  -8   5    8.30    2.90
  -6   8   5  747.23   27.40
   6   8  -5  707.23   27.50
  -6   8   5  783.92   28.40
   6  -8   5  756.52   23.60
  -6  -8  -5  768.72   32.70
  -6  -8  -5  800.32   30.90
   6   8  -5  715.83   28.10
  -6   8  -5  739.83   27.60
  -6  -8   5  792.32   30.10
  -6   8  -5  777.92   23.20
  -6   8  -5  743.93   24.70
   6   8   5  682.73   28.80
   7  -8   5    8.40    3.00
  -7  -8  -5    7.60    3.60
  -7  -8  -5    7.60    4.90
  -7   8   5    3.80    3.30
   7   8  -5    9.20    4.10
  -7   8   5    5.30    3.40
   7   8   5    6.30    3.80
  -7   8  -5   10.30    3.20
  -7   8  -5    8.80    3.80
   7  -8  -5    3.50    3.60
  -7  -8   5    6.60    3.90
  -7   8  -5    8.40    2.60
  -8  -8  -5   11.40    5.40
   8   8  -5    6.90    4.20
  -8  -8  -5   18.70    5.80
  -8   8   5    9.30    4.10
   8  -8   5   11.70    6.10
  -8   8   5   12.10    4.20
  -8   8  -5   18.50    3.80
  -8  -8   5   16.30    5.20
   8   8   5   15.70    4.50
  -8   8  -5   15.80    4.80
  -8   8  -5   14.20    5.80
  -9  -8  -5    3.60    5.10
  -9  -8  -5   11.50    4.90
   9  -8   5    8.50    4.30
  -9   8   5    2.80    3.80
   9   8  -5   11.10    4.60
  -9   8   5    4.10    3.60
  -9  -8   5    5.20    4.90
  -9   8  -5   -0.40    3.40
   9   8   5   10.40    4.80
  -9   8  -5    5.50    2.80
  -9   8  -5    3.60    3.40
 -10   8   5   95.59   10.20
  10   8  -5   96.89   10.60
 -10  -8  -5  132.19   14.90
 -10   8  -5   93.89    8.10
 -10  -8   5   98.99   11.90
 -10   8  -5  102.39   18.60
   0  -9   5   -1.80    1.00
   0  -9  -5    4.60    2.20
   0   9  -5   -0.10    2.00
   0   9  -5   -0.10    1.20
   0  -9  -5    3.60    2.10
   0  -9   5    2.30    2.30
   0  -9  -5   -1.20    2.20
   0  -9  -5    1.90    2.70
   0   9   5   -1.80    2.30
   0   9   5   -3.20    1.80
   1   9  -5  452.05   19.70
  -1  -9  -5  434.86   20.40
   1   9  -5  453.25   17.10
   1  -9   5  467.65   16.50
  -1  -9  -5  418.96   19.00
  -1   9   5  466.45   20.80
  -1   9   5  465.25   20.00
  -1  -9  -5  461.85   20.60
   1  -9   5  445.86   15.90
  -1  -9  -5  449.76   18.10
   1  -9   5  396.46   18.40
   1   9   5  462.75   20.80
   1  -9  -5  476.65   19.80
  -1   9  -5  416.46   15.00
  -1  -9   5  455.65   17.70
   1  -9  -5  457.85   16.70
   1   9   5  456.65   19.50
  -1   9  -5  476.55   19.60
  -1  -9   5  471.85   21.60
   2   9  -5   14.50    3.30
  -2   9   5    8.30    3.10
   2   9  -5   18.30    3.90
  -2  -9  -5   12.10    3.50
   2   9  -5   17.00    4.20
  -2  -9  -5   13.90    4.20
  -2   9   5   15.90    4.30
   2  -9   5   12.90    4.10
   2  -9   5   12.00    2.40
   2  -9   5   14.30    2.70
   2  -9  -5    9.60    3.40
   2  -9  -5   16.90    2.90
  -2   9  -5   16.10    2.40
  -2   9  -5   12.80    3.30
  -2  -9   5   14.70    3.60
   2   9   5   11.30    3.90
  -2  -9   5   14.60    3.60
   3   9  -5  770.02   28.60
  -3  -9  -5  721.13   29.50
   3   9  -5  790.22   28.90
  -3   9   5  781.32   29.20
   3   9  -5  734.43   26.20
  -3  -9  -5  794.42   29.70
   3  -9   5  761.52   23.70
  -3   9   5  809.32   28.20
   3   9   5  816.02   31.70
   3   9   5  772.12   29.70
  -3   9  -5  799.42   22.50
  -3  -9   5  768.22   27.80
  -3  -9   5  789.12   28.00
  -3   9  -5  775.62   27.50
   3  -9  -5  773.92   24.40
   4  -9   5    4.50    1.90
   4   9  -5    6.40    2.40
  -4  -9  -5    5.90    2.90
  -4   9   5   14.00    3.80
   4   9  -5    0.90    2.50
  -4  -9  -5    3.60    3.40
  -4   9   5    6.80    3.20
  -4   9  -5    5.00    2.80
  -4  -9   5    3.80    2.90
   4  -9  -5    3.90    2.00
   4   9   5    3.10    3.20
  -4   9  -5    5.30    1.70
  -5   9   5  201.98   12.50
  -5  -9  -5  225.38   14.60
  -5  -9  -5  229.88   15.30
   5   9  -5  205.48   12.20
   5   9  -5  212.48   13.00
  -5   9   5  217.78   12.70
  -5   9  -5  217.88    9.10
  -5   9  -5  197.98    8.50
  -5   9  -5  215.88   12.60
   5  -9  -5  210.88   10.30
  -5  -9   5  214.68   13.70
   5   9   5  196.98   13.60
   6   9  -5    7.10    3.80
  -6   9   5   12.90    4.50
  -6  -9  -5   14.40    5.20
  -6  -9  -5   11.70    6.10
  -6   9   5   12.90    4.20
   6   9  -5    3.80    2.90
  -6  -9   5    8.00    4.00
  -6   9  -5    7.40    2.10
  -6   9  -5    3.30    3.10
   6  -9  -5    6.00    3.20
  -6   9  -5    6.10    2.20
   7   9  -5   74.09    8.80
  -7   9   5   85.89    8.50
  -7   9   5   87.19    9.10
  -7  -9  -5   92.39   11.10
  -7  -9  -5   92.79   10.60
   7  -9   5   74.59    5.90
  -7   9  -5   82.29    6.30
  -7   9  -5   88.89    6.30
  -7   9  -5   87.49    8.70
  -7  -9   5   73.59    9.30
   7   9   5   91.79   10.10
  -8  -9  -5    1.90    3.70
  -8   9   5    2.30    2.80
  -8  -9  -5   -3.10    3.50
  -8   9   5   -3.90    2.90
   8  -9   5   -0.80    2.50
   8   9  -5   -1.30    3.50
  -8   9  -5    1.40    3.40
   8   9   5    3.10    3.80
   8  -9  -5    3.70    5.10
  -8  -9   5   -3.20    3.20
  -8   9  -5   -2.40    1.80
  -9   9   5   79.09    9.30
  -9  -9  -5   81.59   13.20
   9   9  -5   57.79    8.60
  -9  -9  -5   72.99   10.90
  -9   9   5   53.59    8.10
  -9   9  -5   56.19    8.50
  -9  -9   5   87.79   12.50
   9   9   5   52.49    9.20
  -9   9  -5   75.09    6.90
 -10  -9  -5   -3.40    3.90
 -10  -9  -5   -1.30    4.40
  10   9  -5    6.40    4.70
 -10   9   5    6.10    4.80
 -10   9   5    2.10    4.40
  10   9   5    4.80    4.50
 -10  -9   5    3.90    4.40
 -10   9  -5    4.80    3.20
 -10   9  -5    0.10    3.60
   0  10  -5 2100.29   59.09
   0  10   5 2174.98   66.49
   0  10   5 2194.98   62.89
   0 -10  -5 2185.38   61.29
   0 -10   5 2143.59   64.69
   0 -10  -5 2231.88   65.79
   0 -10   5 2158.98   60.49
   0  10  -5 2296.47   65.19
   0 -10   5 2210.28   68.19
   1  10  -5   35.10    4.40
  -1  10   5   23.30    5.30
   1 -10   5   35.30    4.20
  -1 -10  -5   34.00    6.30
   1 -10   5   29.60    4.10
   1  10  -5   41.70    6.60
  -1 -10  -5   22.30    5.30
  -1 -10   5   25.50    5.00
  -1  10  -5   24.40    3.00
  -1  10  -5   26.80    5.20
   1  10   5   27.30    5.70
   1 -10  -5   28.50    4.20
  -1  10  -5   28.80    3.10
   1  10   5   22.00    5.50
  -1 -10   5   33.10    5.20
   1 -10  -5   41.00    7.30
   2 -10   5   22.70    3.70
   2 -10   5   26.20    3.80
  -2  10   5   24.30    5.10
   2  10  -5   22.60    5.30
   2  10  -5   25.80    4.60
  -2 -10  -5   23.50    4.90
  -2  10   5   27.60    6.20
   2  10  -5   24.10    4.30
  -2 -10  -5   27.90    5.90
   2  10   5   22.30    5.50
   2 -10  -5   19.50    3.30
  -2  10  -5   25.40    2.50
   2  10   5   20.70    4.90
  -2  10  -5   25.10    4.90
  -2  10  -5   23.80    2.40
  -2 -10   5   20.90    4.90
   3  10  -5   20.40    4.80
  -3 -10  -5   28.40    5.90
  -3  10   5   20.20    4.90
  -3  10   5   20.70    4.50
   3  10  -5   24.40    4.60
   3 -10   5   20.10    3.40
   3  10  -5   26.60    5.80
  -3 -10  -5   15.50    4.50
   3 -10   5   24.10    3.80
   3  10   5   18.80    4.80
  -3  10  -5   26.30    4.80
  -3 -10   5   30.00    5.50
   3 -10  -5   26.60    3.70
  -4  10   5  187.68   12.20
   4  10  -5  178.18   12.50
  -4 -10  -5  187.08   13.20
  -4  10   5  190.98   12.10
   4  10  -5  179.08   11.10
  -4  10  -5  180.28   11.60
   4  10   5  169.18   12.80
   4 -10  -5  180.18    8.90
  -4 -10   5  209.18   13.00
   5  10  -5  184.28   11.70
  -5 -10  -5  171.38   13.30
   5  10  -5  192.88   13.10
  -5 -10  -5  190.18   14.10
  -5  10   5  184.38   12.10
  -5  10   5  189.68   15.10
  -5 -10   5  172.98   12.70
   5 -10  -5  189.18    9.30
   5  10   5  186.28   13.80
  -5  10  -5  169.88   11.50
   6  10  -5  696.63   27.50
  -6  10   5  683.33   27.40
  -6 -10  -5  696.53   30.40
   6  10  -5  671.73   28.40
  -6  10   5  735.03   28.00
  -6 -10  -5  661.13   33.80
   6 -10  -5  724.43   23.70
   6  10   5  691.33   29.80
  -6  10  -5  645.54   26.70
   6 -10  -5  653.63   24.50
  -6  10  -5  715.93   22.60
  -6 -10   5  746.63   30.30
  -7 -10  -5   12.10    5.60
  -7 -10  -5   17.50    5.20
  -7  10   5   16.30    4.90
  -7  10   5   16.50    4.60
  -7  10  -5   17.30    5.00
   7  10   5   12.60    4.90
  -7 -10   5   14.00    5.50
  -7  10  -5   17.60    3.50
  -8 -10  -5    5.80    4.60
  -8  10   5   11.10    4.60
  -8 -10  -5   10.40    6.20
   8 -10   5   11.90    3.30
   8  10  -5   12.70    4.70
  -8  10   5   20.00    5.80
  -8 -10   5   16.60    6.60
   8 -10  -5   15.90    5.20
   8  10   5   17.40    6.30
  -8  10  -5   17.00    4.90
  -9  10   5   11.00    4.70
   9  10  -5   16.80    5.30
  -9  10   5    9.20    4.80
  -9 -10  -5   18.10    9.80
  -9  10  -5    9.80    3.40
  -9 -10   5    9.50    5.90
   9  10   5    7.30    5.60
  -9  10  -5   13.70    6.10
   0 -11   5    0.80    1.90
   0  11  -5    0.80    2.70
   0 -11  -5   -1.90    2.30
   0  11  -5    4.90    1.90
   0  11   5    2.10    2.40
   0  11   5   -4.80    2.60
   0 -11  -5    0.00    2.10
  -1 -11  -5  293.27   14.80
   1  11  -5  298.07   13.80
  -1  11   5  351.56   18.40
  -1 -11  -5  345.67   18.10
   1  11  -5  309.97   17.10
   1 -11   5  321.67   15.70
   1 -11  -5  315.17   17.20
  -1  11  -5  294.97   11.20
  -1  11  -5  311.07   16.70
  -1  11  -5  325.27   15.00
   1  11   5  296.67   15.70
   1 -11  -5  295.47   13.20
   1  11   5  287.27   17.60
  -1 -11   5  335.97   15.60
   2  11  -5  610.74   26.40
  -2  11   5  657.43   26.10
  -2  11   5  628.04   26.70
  -2 -11  -5  627.14   27.00
  -2 -11  -5  629.44   25.40
   2  11  -5  657.53   24.10
   2 -11   5  666.23   22.40
  -2  11  -5  589.84   24.90
   2  11   5  632.84   27.90
   2 -11  -5  612.74   21.10
   2  11   5  646.14   26.70
  -2 -11   5  620.44   24.90
   3 -11   5   40.60    4.60
   3  11  -5   42.80    6.10
   3  11  -5   31.30    5.80
  -3  11   5   29.90    5.50
  -3 -11  -5   34.80    6.60
  -3 -11  -5   54.09    8.60
  -3  11   5   47.90    8.00
   3  11  -5   46.00    7.60
   3 -11  -5   40.20    4.30
  -3 -11   5   31.40    6.00
   3  11   5   31.60    7.00
  -3  11  -5   38.80    6.20
   4  11  -5  189.18   12.00
   4  11  -5  215.18   14.60
  -4  11   5  188.38   13.30
  -4 -11  -5  192.98   13.90
  -4 -11  -5  184.28   14.00
  -4 -11   5  200.28   13.50
   4 -11  -5  222.68    9.60
   4  11   5  205.08   14.80
  -4  11  -5  190.48   12.40
  -5 -11  -5  105.29   15.30
   5  11  -5  115.29   10.90
   5  11  -5  114.09   10.70
  -5  11   5  123.79   10.60
  -5  11   5  129.79   10.60
  -5 -11  -5  130.79   11.80
  -5 -11   5  119.19   11.20
   5 -11  -5  116.39    7.20
  -5  11  -5  122.39   10.30
   5  11   5  116.49   11.60
  -6  11   5   52.39    8.10
   6  11  -5   42.90    6.90
  -6 -11  -5   47.30    8.40
   6  11  -5   54.29    9.80
  -6 -11  -5   60.59    9.40
  -6  11   5   67.69    8.00
  -6  11  -5   51.49    7.90
   6 -11  -5   53.69    5.90
   6  11   5   60.09    9.40
   6 -11  -5   54.19    5.50
  -6 -11   5   50.39    8.20
  -7  11   5   49.60    8.00
   7  11  -5   46.20    7.90
  -7 -11  -5   45.10    8.80
  -7  11   5   47.70    7.90
  -7 -11  -5   41.40    8.50
   7  11   5   49.90    8.80
  -7  11  -5   57.79    5.80
  -7  11  -5   50.89    7.90
  -7 -11   5   58.69    9.90
   7 -11  -5   58.39    6.80
   7 -11  -5   54.79    6.10
  -8  11   5   98.39   10.50
  -8  11   5  127.59   11.60
  -8 -11  -5  113.39   12.40
   8  11  -5   99.19   11.20
  -8 -11  -5  112.39   12.60
   8  11   5   95.59   11.60
  -8  11  -5  108.19    7.90
  -8  11  -5  102.49   10.70
  -8 -11   5  105.49   12.90
  -9 -11  -5    1.00    4.00
  -9  11   5    4.50    4.50
   9  11  -5    9.00    5.80
  -9  11   5   -0.90    3.70
  -9 -11  -5   -1.50    9.50
  -9  11  -5   -1.30    2.80
   9  11   5    5.60    5.30
  -9 -11   5    1.00    5.70
  -9  11  -5   -0.20    4.10
   0 -12  -5  332.37   18.20
   0  12   5  340.47   19.50
   0 -12  -5  333.17   15.60
   0 -12   5  349.07   16.30
   0  12  -5  331.07   18.20
   0  12   5  346.07   16.00
   0  12  -5  315.07   13.40
  -1 -12  -5    3.40    3.10
  -1 -12  -5    1.10    2.70
   1 -12   5    7.70    2.80
   1  12  -5    1.50    2.10
  -1  12   5   -1.40    2.60
   1  12  -5    2.20    3.70
   1  12   5    0.60    3.10
  -1  12  -5   -1.40    1.30
  -1  12  -5    5.60    3.90
   1  12   5    4.90    3.00
   1 -12  -5    5.90    3.90
   1 -12  -5    3.10    2.20
  -1 -12   5    3.30    2.30
  -1  12  -5   -0.30    1.50
  -2  12   5    5.60    4.30
   2  12  -5    3.20    2.70
  -2 -12  -5   10.00    4.10
   2  12  -5    7.00    4.20
  -2 -12  -5    7.20    4.00
   2 -12  -5   10.60    2.70
  -2  12  -5    4.80    3.50
  -2 -12   5    2.00    3.10
   2  12   5    3.20    3.70
  -3 -12  -5   11.30    4.40
   3 -12   5   10.60    3.00
  -3  12   5    5.40    4.40
   3  12  -5   21.20    5.40
  -3  12   5   14.30    4.80
   3  12  -5    7.20    3.30
  -3 -12  -5   14.30    5.10
   3  12  -5   13.70    4.10
  -3  12  -5    4.80    3.40
   3 -12  -5    9.90    2.70
  -3 -12   5   11.60    4.30
   4  12  -5    5.50    3.30
  -4 -12  -5   18.20    5.50
   4  12  -5    6.50    4.00
  -4  12   5    5.30    3.80
   4 -12   5    5.30    2.60
  -4  12   5    0.40    3.70
  -4 -12  -5    0.10    3.60
   4  12   5    1.10    4.00
   4 -12  -5    1.60    2.00
  -4 -12   5    3.50    3.80
  -4  12  -5   -2.50    2.90
  -5  12   5   35.30    6.60
  -5 -12  -5   22.40    6.00
  -5 -12  -5   24.80    7.80
   5  12  -5   39.20    6.80
  -5  12   5   27.80    5.80
   5  12   5   24.70    6.50
   5 -12  -5   30.60    4.00
  -5 -12   5   25.50    6.20
  -5  12  -5   31.20    6.50
   6  12  -5  127.39   12.40
  -6 -12  -5  124.19   12.60
  -6  12   5  133.59   11.70
  -6 -12  -5  122.09   12.50
  -6  12   5  141.69   12.10
   6 -12  -5  132.99    8.30
   6 -12  -5  139.59    7.70
  -6 -12   5  139.59   12.90
  -6  12  -5  126.99   11.10
   6  12   5  120.29   12.70
  -7  12   5    8.30    4.70
   7  12  -5    5.80    4.80
  -7 -12  -5    9.50    4.80
  -7  12   5   13.50    5.00
  -7 -12  -5   13.30    6.10
  -7 -12   5    9.10    4.60
  -7  12  -5   13.00    4.90
   7 -12  -5   15.00    4.50
   7  12   5   22.80    6.80
   7 -12  -5    2.30    2.90
  -8 -12  -5    2.60    4.60
  -8 -12  -5    0.30    6.50
   8  12  -5    6.10    5.10
  -8  12   5    3.20    4.30
  -8  12  -5   -2.10    4.20
   8  12   5   -6.00    7.60
  -8  12  -5    0.50    2.90
  -8 -12   5    0.70    4.60
   0  13  -5    7.70    2.60
   0 -13  -5    0.00    2.60
   0  13  -5   -3.00    3.10
   0 -13   5    3.70    2.50
   0 -13  -5   -0.40    2.90
  -1 -13  -5  803.12   29.20
   1  13  -5  788.22   32.60
  -1 -13  -5  823.72   32.70
   1 -13   5  873.91   29.00
   1  13  -5  743.53   26.90
   1 -13  -5  773.72   26.50
   1  13   5  751.12   34.30
  -1  13  -5  778.22   22.30
   1 -13  -5  792.62   32.00
   1  13   5  798.72   29.80
  -1 -13   5  799.12   29.80
  -1  13  -5  767.82   22.60
  -1  13  -5  815.62   32.00
   2  13  -5  492.35   24.60
  -2 -13  -5  476.25   21.40
  -2 -13  -5  460.35   23.40
   2 -13   5  515.45   19.80
  -2  13   5  463.85   27.10
   2 -13  -5  473.35   17.60
   2 -13  -5  474.25   23.40
  -2  13  -5  459.45   25.50
   2  13   5  474.15   25.20
  -2 -13   5  480.15   22.20
  -3  13   5  371.66   20.70
   3  13  -5  344.27   18.00
  -3  13   5  363.16   19.60
   3  13  -5  357.46   23.00
   3 -13   5  383.36   16.50
  -3 -13  -5  451.45   28.10
  -3 -13  -5  369.26   19.20
   3  13   5  389.46   22.60
  -3  13  -5  350.16   19.30
   3 -13  -5  377.76   14.30
  -3 -13   5  393.56   20.20
  -4 -13  -5  349.27   19.40
  -4  13   5  339.37   19.80
   4  13  -5  366.36   18.70
  -4  13   5  380.06   19.80
   4 -13   5  369.16   16.10
  -4 -13  -5  344.67   20.60
   4  13  -5  384.86   21.60
  -4  13  -5  336.97   18.60
   4 -13  -5  367.06   13.30
   4  13   5  338.67   21.30
  -4 -13   5  386.06   20.70
  -5  13   5  400.36   22.00
   5  13  -5  450.95   23.70
   5  13  -5  394.16   20.60
  -5 -13  -5  419.26   22.30
  -5  13   5  389.76   20.60
  -5 -13  -5  407.36   23.00
   5  13   5  376.66   23.00
  -5  13  -5  404.46   20.70
   5 -13  -5  395.06   14.60
  -5 -13   5  420.96   22.50
   5 -13  -5  411.36   14.20
   6  13  -5   72.79   10.50
  -6 -13  -5   76.19   11.20
  -6  13   5   81.99    9.60
  -6  13   5   63.49    9.80
  -6 -13  -5   79.39   12.00
  -6 -13   5   62.59    9.40
  -6  13  -5   82.69    9.80
   6 -13  -5   70.79    5.80
   6  13   5   71.09   11.20
   6 -13  -5   74.89    5.50
  -7  13   5  191.88   14.90
  -7 -13  -5  201.28   16.80
  -7  13   5  173.98   16.20
   7  13  -5  188.68   15.70
  -7 -13  -5  202.78   16.10
  -7 -13   5  223.78   17.90
   7 -13  -5  197.68    9.20
   7  13   5  173.68   18.40
  -8 -13  -5  102.79   16.00
  -8  13   5   96.89   11.60
  -8  13   5   91.39   10.50
   8  13  -5   80.99   12.30
  -8 -13  -5   70.29   11.50
   8  13   5   86.99   13.30
  -8  13  -5   71.49   10.20
  -8 -13   5   89.29   12.80
   0  14   5  105.59   11.70
   0  14  -5  106.89    7.10
   0  14  -5  101.69   10.60
   0 -14  -5  116.29   11.50
   0 -14   5  123.89   10.00
   0 -14  -5  114.49    8.90
  -1  14   5   16.60    5.90
  -1 -14  -5   21.00    5.00
   1  14  -5   23.30    6.30
   1 -14   5   21.80    5.00
   1  14  -5   19.20    4.10
  -1 -14  -5   16.90    5.20
   1  14   5   14.60    6.20
  -1 -14   5   19.90    4.80
   1  14   5   18.70    5.00
  -1  14  -5   22.40    5.80
   1 -14  -5   18.90    4.20
   1 -14  -5   24.70    6.60
  -2 -14  -5    4.00    3.70
   2 -14   5    5.30    3.00
  -2  14   5    4.30    4.20
   2  14  -5    4.50    3.40
   2  14  -5    9.80    5.20
   2  14   5    4.10    4.60
   2 -14  -5    6.20    2.90
  -2 -14   5    4.40    4.00
   2 -14  -5    3.90    3.80
  -2  14  -5    7.80    4.50
   3  14  -5    1.60    4.70
  -3  14   5    0.10    3.80
   3 -14   5    2.80    2.70
  -3 -14  -5    2.60    4.00
  -3 -14  -5   -0.50    2.80
   3 -14  -5    0.30    2.00
  -3  14  -5   -0.40    3.30
  -3 -14   5    3.60    4.10
   3  14   5   -0.60    4.20
   4  14  -5   43.00    8.80
  -4 -14  -5   38.10    7.70
   4  14  -5   36.90    6.60
  -4  14   5   37.80    8.30
  -4 -14  -5   49.80    8.50
  -4  14   5   43.80    8.10
   4 -14   5   45.60    6.60
  -4 -14   5   45.10    8.70
   4  14   5   39.40    8.70
   4 -14  -5   46.20    4.40
  -4  14  -5   25.90    6.20
  -5  14   5    4.40    3.80
  -5  14   5    9.10    5.20
  -5 -14  -5    7.00    4.70
  -5 -14  -5    6.00    4.90
   5  14  -5   11.00    4.80
   5  14  -5    7.50    5.60
   5 -14   5    5.00    3.50
   5 -14  -5    7.50    2.10
   5  14   5   -5.80    3.70
  -5 -14   5    4.10    4.90
  -5  14  -5    8.70    5.30
  -6 -14  -5   26.80    7.00
  -6  14   5   22.80    8.50
   6  14  -5   22.70    7.30
  -6 -14  -5   22.70    7.20
  -6  14   5   25.10    7.30
  -6  14  -5   17.00    6.20
  -6 -14   5   11.70    6.20
  -7 -14  -5    7.50    5.30
  -7  14   5    1.30    4.60
  -7 -14  -5    2.70    4.50
   7  14  -5   -4.10    4.40
  -7  14   5    1.80    4.00
   7  14   5   -0.20    4.70
  -7 -14   5    0.70    5.70
  -7  14  -5    2.20    4.60
   0  15   5   -2.50    3.50
   0 -15  -5    0.80    3.00
   0 -15  -5    1.70    5.20
   0 -15   5    0.70    2.80
   0  15  -5   -0.10    2.20
   0  15  -5   -1.60    3.80
  -1 -15  -5  446.06   20.20
  -1 -15  -5  456.75   24.10
  -1  15   5  500.75   26.30
   1  15  -5  477.75   25.00
   1 -15   5  509.45   21.70
   1  15  -5  467.95   18.80
   1  15   5  476.55   26.40
  -1  15  -5  431.16   23.30
   1 -15  -5  479.85   18.70
   1 -15  -5  510.95   33.20
  -1 -15   5  493.55   22.70
  -2 -15  -5   56.19    7.90
  -2 -15  -5   40.20    7.90
   2 -15   5   65.49    7.50
  -2  15   5   49.00    8.70
   2  15  -5   56.69    7.10
   2  15  -5   58.69   10.40
   2  15   5   48.30   10.00
  -2 -15   5   72.39    9.90
   2 -15  -5   62.99    5.80
  -2  15  -5   53.19    9.20
   2 -15  -5   57.09   11.30
   3  15  -5  165.48   15.10
  -3 -15  -5  131.59   11.70
  -3 -15  -5  164.88   14.50
   3 -15   5  159.68   10.70
  -3  15   5  156.38   14.00
  -3  15  -5  139.69   12.80
  -3 -15   5  140.59   13.30
   3  15   5  140.59   14.40
   3 -15  -5  147.59    7.50
  -4 -15  -5   97.59   10.80
   4 -15   5   94.09    8.90
  -4  15   5  106.59   11.90
  -4 -15  -5   95.89   11.90
   4  15  -5   86.49   12.40
  -4 -15   5  113.09   12.70
  -4  15  -5  102.59   11.40
   4  15   5   92.59   13.80
  -5 -15  -5  186.58   14.80
  -5  15   5  181.28   14.90
   5  15  -5  192.88   16.90
   5 -15   5  171.68   12.20
  -5 -15  -5  190.38   16.20
  -5  15   5  158.38   14.80
  -5 -15   5  167.98   15.10
   5  15   5  157.88   16.40
  -6 -15  -5   -3.40    4.50
  -6  15   5    1.50    4.40
  -6  15   5    2.30    4.30
  -6 -15  -5    7.50    4.90
   6  15  -5   -3.10    4.60
   6  15   5   -2.30    4.90
  -6 -15   5    0.40    5.50
  -6  15  -5    3.00    5.20
   0  16  -5  394.66   22.80
   0  16   5  366.06   23.30
   0 -16  -5  401.66   17.50
   0 -16  -5  389.96   22.20
   0 -16   5  445.96   21.10
  -1 -16  -5    6.00    4.10
  -1  16   5    4.50    4.70
   1 -16   5    6.90    3.60
   1  16  -5    1.10    4.40
   1  16  -5    0.50    3.00
  -1 -16  -5    5.40    3.70
  -1  16  -5   -1.90    3.40
   1 -16  -5    2.20    3.10
   1  16   5    0.00    4.30
  -1 -16   5    2.10    4.20
   1 -16  -5   -1.80    2.90
  -2  16   5   -3.20    4.60
  -2 -16  -5   18.20    5.80
   2  16  -5   -1.80    3.50
   2 -16   5    3.10    3.40
   2  16  -5    3.90    4.80
  -2 -16  -5    7.50    4.30
   2 -16  -5    5.00    4.70
   2  16   5   11.40    6.80
   2 -16  -5    3.70    2.60
  -2  16  -5   -1.60    3.40
  -3 -16  -5   12.60    5.20
   3 -16   5    0.30    3.60
   3  16  -5    5.70    6.00
  -3 -16  -5    8.60    5.10
  -3  16   5    8.50    6.00
  -3  16  -5   -0.50    4.50
   3 -16  -5   10.60    5.50
  -3 -16   5    1.80    4.70
  -4 -16  -5   19.70    5.80
   4 -16   5   24.20    6.20
   4  16  -5   16.70    7.90
  -4 -16  -5   17.10    6.80
   4 -16  -5   24.50    7.00
  -4 -16   5   20.30    7.60
  -4  16  -5   21.70    6.90
  -5 -16  -5    5.00    5.20
  -5  16   5   12.70    7.40
  -5 -16  -5   18.20    7.10
   5  16   5    9.90    6.90
  -5 -16   5   -1.30    5.30
  -5  16  -5    8.60    4.80
   0 -17   5   -2.80    4.00
   0  17   5   -0.10    5.90
   0  17  -5   -5.40    4.30
   0 -17  -5   -2.10    4.20
   0 -17  -5   -3.10    3.20
  -1 -17  -5   -2.20    3.70
   1 -17   5    6.30    4.70
  -1  17   5   11.60    5.90
  -1 -17  -5    3.90    4.20
   1  17  -5   -6.00    5.30
  -1 -17   5    0.50    4.80
   1 -17  -5    4.20    4.50
   1 -17  -5   -5.50    2.70
  -2 -17  -5    1.10    4.20
  -2 -17  -5    2.90    4.30
   2  17  -5   -1.10    5.40
   2 -17   5   18.80    5.90
  -2  17   5    3.30    9.30
  -2 -17   5    3.30    5.30
   2  17   5    7.60    6.70
   2 -17  -5   14.00    5.70
  -2  17  -5   14.00    6.60
  -3  17   5   12.50    6.60
   3  17  -5   13.30    7.20
  -3 -17  -5   13.90    6.00
   3 -17  -5   20.60    6.50
  -3  17  -5   16.90    6.20
   3  17   5    1.00    6.00
  -3 -17   5   13.10    6.00
  -1   0  -6   29.10    3.60
   1   0   6   30.00    2.90
  -1   0  -6   35.60    3.00
  -1   0  -6   36.00    2.40
  -1   0   6   33.30    3.00
   1   0   6   34.70    3.90
   1   0  -6   35.10    2.80
  -1   0  -6   32.80    2.40
  -2   0   6  167.48    7.80
  -2   0  -6  182.58    7.20
  -2   0  -6  178.78    7.20
   2   0   6  161.88    8.00
  -2   0   6  179.98    5.20
  -2   0  -6  184.48    9.50
  -2   0  -6  181.48    7.30
   2   0   6  170.88    9.20
  -2   0   6  181.68    5.30
  -3   0  -6    2.20    1.10
   3   0   6    5.10    1.60
   3   0  -6    1.90    1.00
  -3   0   6    1.40    0.70
  -3   0  -6    4.50    1.60
  -3   0   6    4.10    1.60
   3   0   6    1.50    1.80
  -3   0  -6    1.60    1.60
  -4   0  -6   85.59    5.00
   4   0   6   72.69    5.60
   4   0  -6   69.59    5.40
  -4   0  -6   81.59    5.50
  -4   0   6   80.69    6.10
  -4   0   6   75.59    4.20
   4   0   6   76.39    6.80
  -4   0  -6   65.69    6.50
   5   0   6  380.96   21.30
  -5   0   6  414.66   16.90
  -5   0  -6  403.96   19.30
  -5   0   6  422.96   14.10
  -5   0  -6  436.66   15.10
   5   0   6  399.26   18.50
   5   0  -6  392.46   16.20
   6   0  -6 2805.82   80.89
  -6   0  -6 3043.20   79.29
  -6   0   6 3054.69   82.39
  -6   0   6 2983.90   78.29
  -6   0  -6 2902.91   87.29
   6   0   6 2986.40   91.09
  -7   0   6   62.59    7.20
  -7   0   6   58.59    5.90
  -7   0  -6   52.89    5.40
  -7   0  -6   37.60    7.50
  -8   0  -6  173.88   10.30
  -8   0   6  187.98   12.60
  -8   0  -6  200.58   15.80
  -9   0  -6   -0.70    4.70
  -9   0   6    6.90    4.10
  -9   0  -6    4.90    3.10
 -10   0   6   12.90    5.00
 -10   0  -6   24.30    7.70
 -10   0  -6   19.00    4.70
 -11   0  -6   91.39    9.00
 -11   0  -6   73.39   12.40
 -11   0   6   62.49    9.70
   0   1  -6    3.00    1.70
   0  -1  -6    2.80    1.60
   0  -1  -6    3.30    1.20
   0   1   6    3.60    1.30
   0  -1  -6    0.90    0.60
   0   1  -6    0.80    0.50
   0   1  -6    7.50    1.30
   0  -1   6    2.30    0.90
   1   1  -6 1525.85   39.60
  -1  -1  -6 1441.56   41.20
  -1   1   6 1478.65   37.30
  -1   1   6 1446.86   40.80
  -1  -1  -6 1491.85   40.30
  -1  -1  -6 1444.66   42.60
  -1  -1  -6 1516.55   39.10
   1   1   6 1446.46   43.00
   1   1   6 1516.55   41.70
  -1   1  -6 1540.85   38.80
  -1   1  -6 1491.55   39.00
  -1   1  -6 1513.05   38.30
   1  -1  -6 1498.95   40.50
  -1   1  -6 1477.55   42.40
  -1  -1   6 1501.55   41.20
   1   1   6 1509.85   38.90
  -2   1   6   94.99    5.70
  -2  -1  -6   92.29    6.70
   2  -1   6   89.19    5.00
   2  -1   6  106.49    6.60
  -2  -1  -6   98.79    5.60
  -2  -1  -6   95.39    5.60
  -2  -1  -6   94.89    5.00
   2   1  -6  103.99    5.30
  -2   1   6  107.99    4.10
   2   1   6   97.29    6.80
   2  -1  -6   97.49    5.60
   2   1   6   88.59    6.10
  -2   1  -6   92.89    6.40
  -2  -1   6  105.29    5.60
  -2   1  -6   98.19    4.90
  -2   1  -6   98.49    4.20
  -2  -1   6   98.79    3.50
   2   1   6   99.99    5.00
  -2   1  -6   97.99    4.20
  -3   1   6   33.00    3.70
  -3  -1  -6   30.60    3.20
   3   1  -6   38.20    3.60
  -3  -1  -6   32.80    5.00
  -3  -1  -6   40.20    3.50
   3  -1   6   33.60    4.20
  -3   1   6   40.90    2.60
   3  -1   6   34.80    3.30
   3  -1  -6   35.10    3.60
  -3   1  -6   38.50    2.70
  -3   1  -6   35.90    3.30
  -3  -1   6   41.60    2.50
  -3   1  -6   47.90    4.90
   3   1   6   31.80    3.80
  -3  -1   6   36.80    3.70
   3   1   6   37.10    4.70
   4  -1   6   76.69    6.70
   4   1  -6   90.99    6.00
  -4  -1  -6   91.89    6.10
  -4  -1  -6   81.39    5.50
  -4   1   6   92.29    4.70
  -4  -1  -6   79.99    8.70
   4  -1   6   86.79    5.70
  -4   1   6   87.49    6.40
   4  -1  -6   76.19    5.70
  -4  -1   6   86.69    4.50
  -4   1  -6   88.89    5.70
  -4   1  -6   86.39    7.40
  -4   1  -6   81.29    4.60
  -4  -1   6   88.89    6.40
   4   1   6   85.59    6.40
  -5   1   6  226.18    9.40
   5  -1   6  237.38   13.20
   5  -1   6  227.98   10.90
  -5   1   6  245.98   12.20
  -5  -1  -6  230.48   10.50
   5   1  -6  228.08   11.30
  -5  -1  -6  217.08   13.60
  -5  -1  -6  232.48   12.70
   5   1   6  211.48   13.50
  -5  -1   6  242.68   12.00
  -5   1  -6  239.98    9.80
   5  -1  -6  221.88   11.20
   5   1   6  218.48   11.60
  -5   1  -6  234.58   13.80
  -5  -1   6  245.48    9.60
   6  -1   6    9.50    3.10
  -6  -1  -6    3.70    3.60
  -6  -1  -6    8.20    2.60
  -6   1   6    8.30    2.30
   6   1  -6    9.60    3.30
   6  -1   6   11.70    4.10
  -6   1   6    8.50    3.20
  -6   1  -6   12.40    4.80
  -6   1  -6    9.50    2.40
   6  -1  -6    5.70    2.60
  -6  -1   6    8.60    3.00
  -6  -1   6    6.60    2.20
  -7  -1  -6  495.15   18.90
  -7   1   6  480.35   17.70
  -7   1   6  473.35   20.60
  -7  -1  -6  462.95   24.30
  -7  -1   6  450.85   20.40
  -7   1  -6  475.05   24.00
  -7   1  -6  475.05   17.70
  -7  -1   6  484.15   18.10
  -8  -1  -6   24.90    5.00
  -8   1   6   21.50    5.30
  -8  -1  -6   23.60    7.10
  -8   1  -6   17.10    3.90
  -8   1  -6   29.80    7.20
  -8  -1   6   23.60    5.50
  -9  -1  -6    7.30    5.50
  -9  -1  -6    5.60    2.70
  -9   1   6    4.10    3.70
  -9  -1   6   -0.20    3.00
  -9   1  -6    5.80    4.70
  -9   1  -6    0.20    2.00
 -10   1   6    2.80    2.80
 -10  -1  -6   -4.30    1.90
 -10  -1  -6   -4.40    4.10
 -10   1  -6   -0.60    4.40
 -10   1  -6    3.70    2.80
 -10  -1   6    2.20    3.40
 -11  -1  -6   -0.10    2.80
 -11  -1  -6    4.20    6.10
 -11   1   6    2.20    3.70
 -11   1  -6   -2.60    4.70
 -11   1  -6   -1.00    2.60
 -11  -1   6   -1.00    3.60
   0  -2  -6 3752.72   99.49
   0   2  -6 3809.32   94.99
   0  -2  -6 3718.63   97.79
   0   2   6 3905.41   98.79
   0   2   6 3773.12   95.59
   0  -2  -6 3943.21   96.39
  -1  -2  -6   54.39    4.80
  -1   2   6   53.39    4.30
  -1  -2  -6   57.89    4.10
   1   2  -6   55.19    3.20
   1  -2   6   58.59    3.00
  -1  -2  -6   48.80    4.40
  -1  -2  -6   59.29    4.30
  -1   2   6   57.49    3.20
   1   2  -6   58.69    2.60
   1   2   6   51.69    4.90
   1   2   6   52.99    4.60
  -1   2  -6   63.49    3.40
  -1  -2   6   63.19    3.70
  -1   2  -6   54.39    4.70
   1  -2  -6   56.69    4.20
   1  -2  -6   55.59    4.80
   1   2   6   58.99    3.50
   1  -2  -6   61.39    3.00
  -1  -2   6   58.59    2.50
   2  -2   6   21.30    3.40
  -2   2   6   19.50    2.10
  -2  -2  -6   23.00    3.40
  -2  -2  -6   18.90    3.00
  -2   2   6   23.40    3.40
  -2  -2  -6   14.30    3.00
   2  -2   6   16.30    1.90
  -2  -2  -6   22.20    2.50
   2   2  -6   20.50    1.80
   2   2  -6   19.60    2.30
   2   2   6   27.60    4.60
   2   2   6   15.20    3.00
   2   2   6   20.50    2.30
  -2  -2   6   19.00    1.80
  -2   2  -6   19.20    3.40
   2  -2  -6   24.00    3.50
  -2  -2   6   20.00    2.50
   3   2  -6   11.90    1.60
  -3   2   6    7.60    1.50
  -3  -2  -6    4.40    1.50
  -3  -2  -6    5.20    2.20
   3   2  -6    6.50    1.70
   3  -2   6    6.40    1.70
   3  -2   6    6.20    2.10
  -3   2   6    4.70    2.00
  -3   2  -6   11.50    1.40
   3   2   6    7.20    2.80
   3   2   6   15.30    2.70
   3  -2  -6    7.10    1.90
   3   2   6   15.30    3.40
  -3  -2   6    8.20    2.00
  -3  -2   6    6.50    1.40
  -3   2  -6    8.30    2.60
  -4   2   6   13.00    3.10
   4   2  -6    5.70    1.80
  -4   2   6    9.40    1.90
  -4  -2  -6    8.10    2.50
   4  -2   6    3.80    2.30
  -4  -2  -6    6.60    2.00
   4  -2   6    9.00    2.10
  -4  -2  -6    6.90    2.70
  -4   2  -6    6.70    1.50
   4  -2  -6    9.60    2.70
  -4  -2   6    6.50    1.60
   4   2   6    3.30    2.80
   4   2   6    7.50    2.30
   4   2   6   16.30    4.30
  -4   2  -6   17.60    4.00
  -4  -2   6    5.30    2.00
  -5  -2  -6  363.36   14.40
   5   2  -6  312.17   14.00
   5  -2   6  334.17   15.70
  -5  -2  -6  336.97   14.20
  -5   2   6  373.26   15.50
  -5  -2  -6  338.57   17.70
   5   2   6  327.77   18.00
   5   2   6  311.77   15.20
  -5   2  -6  334.37   11.90
   5   2   6  346.37   14.40
  -5   2  -6  340.67   14.00
   5  -2  -6  322.27   14.40
  -5  -2   6  356.36   12.70
  -5  -2   6  344.47   15.10
   6  -2   6 1137.09   37.30
  -6   2   6 1241.28   36.10
  -6  -2  -6 1237.18   44.70
  -6  -2  -6 1270.17   38.10
  -6   2   6 1299.17   39.90
   6   2  -6 1196.58   41.40
   6  -2   6 1276.07   41.50
   6  -2  -6 1199.28   38.80
  -6   2  -6 1271.67   43.60
  -6   2  -6 1226.68   35.30
  -6  -2   6 1263.77   36.20
  -6  -2   6 1247.18   39.70
  -7  -2  -6   83.99   10.20
  -7  -2  -6   57.99    6.20
  -7   2   6   65.89    5.60
  -7   2   6   72.29    7.60
  -7  -2   6   68.29    5.70
  -7   2  -6   49.30    8.10
  -7   2  -6   73.79    5.80
  -7  -2   6   76.99    7.90
  -8   2   6   42.50    7.00
  -8  -2  -6   30.80    7.90
  -8  -2  -6   35.70    5.80
  -8   2  -6   27.00    7.00
  -8   2  -6   30.10    4.60
  -8  -2   6   37.80    6.90
  -9   2   6   12.70    4.80
  -9  -2  -6    9.30    4.70
  -9  -2  -6    6.20    3.10
  -9   2  -6    7.90    3.10
  -9  -2   6    5.50    3.60
  -9   2  -6   13.70    5.40
 -10  -2  -6   -2.40    3.70
 -10   2   6   -2.20    3.40
 -10  -2  -6    9.70    3.80
 -10   2  -6    0.80    2.30
 -10   2  -6    4.60    4.30
 -10  -2   6    8.50    4.40
 -11   2   6   25.00   10.00
 -11  -2  -6   35.60    8.90
 -11  -2  -6   29.30    7.80
 -11   2  -6   28.50    8.30
 -11  -2   6   41.70    8.80
 -11   2  -6   39.20    6.40
   0   3   6    1.30    1.40
   0  -3  -6   -0.40    1.30
   0   3  -6   -0.10    0.50
   0  -3  -6    0.50    1.10
   0   3   6    1.10    1.00
   0   3  -6    0.20    0.90
  -1  -3  -6 4430.26  111.69
  -1  -3  -6 4264.87  114.19
  -1  -3  -6 4399.26  113.59
  -1   3   6 4447.35  113.59
   1   3  -6 4580.24  110.59
  -1   3   6 4318.77  111.29
   1   3  -6 4390.36  110.19
  -1  -3  -6 4002.80  114.09
   1   3   6 4374.76  111.39
   1   3   6 4325.57  115.39
  -1  -3   6 4525.95  110.19
   1  -3  -6 4383.56  113.79
   1  -3  -6 4548.65  111.09
  -1   3  -6 4410.06  110.69
  -1  -3   6 4530.15  110.79
   1  -3  -6 4480.25  113.19
  -1   3  -6 4324.27  113.49
  -2   3   6 1881.51   50.09
  -2  -3  -6 1834.32   53.29
  -2  -3  -6 1886.41   52.69
  -2  -3  -6 1849.52   50.29
   2   3  -6 1844.02   49.50
  -2  -3  -6 1828.72   52.69
   2   3  -6 1871.51   48.30
  -2   3   6 1931.71   51.89
   2   3   6 1872.41   50.29
   2  -3  -6 1904.71   51.69
   2   3   6 1757.72   53.99
  -2  -3   6 1913.51   50.29
  -2   3  -6 1865.81   52.09
  -2   3  -6 1891.51   49.70
  -2  -3   6 1890.11   49.20
   2   3   6 1851.71   54.59
  -3  -3  -6  831.82   27.10
  -3   3   6  865.31   24.70
  -3   3   6  835.22   26.90
  -3  -3  -6  825.72   31.40
   3  -3   6  797.32   23.40
   3   3  -6  829.82   25.40
   3  -3   6  843.52   26.50
   3   3  -6  859.31   23.90
  -3  -3  -6  830.62   25.80
   3  -3  -6  820.02   26.60
  -3  -3   6  849.91   24.20
   3   3   6  851.91   26.00
  -3   3  -6  875.01   27.80
  -3  -3   6  910.61   26.60
   3   3   6  822.62   30.10
   3   3   6  828.62   28.80
  -4  -3  -6  703.33   23.30
  -4   3   6  711.63   21.90
   4   3  -6  719.13   21.50
  -4   3   6  699.33   24.10
   4   3  -6  719.73   23.30
  -4  -3  -6  703.93   24.00
   4  -3   6  747.33   24.50
   4  -3   6  723.73   21.60
  -4  -3  -6  707.13   27.00
  -4  -3   6  724.13   21.50
   4  -3  -6  711.33   24.10
  -4  -3   6  719.73   24.10
  -4   3  -6  656.33   25.00
  -4   3  -6  776.62   19.90
   4   3   6  608.74   27.50
   4   3   6  690.13   28.00
   4   3   6  740.73   24.10
   5  -3   6  951.80   31.20
   5   3  -6  947.31   30.00
  -5  -3  -6  940.11   30.30
  -5  -3  -6  905.61   34.40
  -5  -3  -6  924.81   29.80
  -5   3   6  956.70   28.30
  -5   3   6  967.80   31.10
   5   3  -6  926.91   28.00
   5  -3   6  917.91   30.20
  -5  -3   6  940.81   27.90
  -5   3  -6  916.91   32.70
  -5  -3   6  961.20   31.20
   5  -3  -6  883.81   30.20
   5   3   6  881.11   38.80
  -5   3  -6  937.21   26.30
   5   3   6  975.60   30.40
   5   3   6  877.91   32.20
   6   3  -6  146.49    9.20
  -6   3   6  148.29    9.80
   6  -3   6  141.39    8.50
  -6  -3  -6  161.88    9.60
  -6  -3  -6  133.09   12.30
   6  -3   6  153.28   12.10
  -6  -3   6  137.29    7.80
  -6   3  -6  145.69   11.50
  -6   3  -6  138.79    7.00
   6   3   6  143.19    9.30
  -6  -3   6  131.59    9.70
  -7  -3  -6 1161.88   43.90
  -7  -3  -6 1156.78   37.20
  -7   3   6 1174.88   38.40
  -7   3   6 1061.29   34.40
  -7  -3   6 1129.19   38.50
  -7   3  -6 1161.18   41.70
  -7   3  -6 1120.99   33.40
  -7  -3   6 1136.49   34.90
  -8   3   6  232.88   13.90
  -8  -3   6  219.58   14.10
  -8   3  -6  211.78   10.60
  -8   3  -6  209.78   15.30
  -9  -3  -6   44.50    9.20
  -9  -3  -6   42.80    6.30
  -9   3   6   32.20    6.00
  -9   3  -6   49.99    9.20
  -9  -3   6   30.30    7.00
  -9   3  -6   42.80    5.20
 -10  -3  -6   21.70    7.40
 -10   3   6   26.60    6.40
 -10  -3  -6   17.10    4.70
 -10   3  -6   16.90    6.60
 -10  -3   6   19.30    5.90
 -10   3  -6   25.80    4.70
 -11   3   6   -3.40    3.60
 -11  -3  -6    4.70    3.50
 -11   3  -6    1.60    3.10
 -11   3  -6    5.90    5.80
 -11  -3   6    2.90    4.60
   0  -4   6  103.19    4.20
   0  -4  -6   99.29    6.00
   0   4   6  101.99    5.80
   0   4   6   94.49    6.70
   0  -4  -6  103.19    6.70
   0  -4   6   97.79    5.10
   0   4   6  106.19    7.10
   0   4  -6  100.99    5.60
   0  -4  -6  104.69    6.70
  -1   4   6  429.66   16.40
  -1  -4  -6  442.56   16.90
   1   4  -6  434.36   13.40
  -1  -4  -6  451.35   15.40
  -1   4   6  437.66   15.40
  -1  -4  -6  443.96   16.90
   1   4  -6  443.26   14.70
  -1  -4  -6  406.86   17.10
   1   4   6  441.66   15.20
  -1   4  -6  428.16   15.90
   1  -4  -6  446.56   15.10
   1  -4  -6  437.46   16.30
   1   4   6  440.46   17.80
   1  -4  -6  451.45   16.30
  -1   4  -6  442.26   14.50
  -1  -4   6  456.65   14.10
   2   4  -6  216.08    8.40
  -2  -4  -6  198.28   10.80
  -2   4   6  194.58    9.90
  -2   4   6  211.48    9.70
   2   4  -6  210.38    8.50
  -2  -4  -6  227.58   11.30
  -2  -4  -6  200.48   10.70
  -2  -4  -6  214.88    9.40
   2  -4  -6  216.78   10.20
   2  -4  -6  209.68    8.50
   2   4   6  223.98   12.20
   2   4   6  203.78    9.30
  -2  -4   6  202.08    8.80
  -2  -4   6  218.28    9.10
  -2   4  -6  196.88    8.70
  -2   4  -6  198.38    9.80
   3  -4   6   15.90    2.90
  -3   4   6   12.70    2.60
  -3  -4  -6   10.40    2.60
   3   4  -6   11.90    2.10
   3  -4   6   13.20    1.60
  -3   4   6   29.80    4.40
  -3  -4  -6   26.40    3.70
  -3  -4  -6    8.30    2.90
   3   4   6    9.90    3.90
   3   4   6   18.40    4.20
  -3   4  -6   14.00    2.60
  -3   4  -6   12.40    2.90
  -3  -4   6   12.70    2.30
   3   4   6   14.40    2.90
  -3  -4   6   15.90    3.00
   4   4  -6  175.88    8.90
  -4  -4  -6  171.78    9.20
   4  -4   6  162.98    7.20
  -4   4   6  177.78    9.90
   4   4  -6  177.68    8.10
  -4   4   6  176.28    8.50
   4  -4   6  176.48    9.20
  -4  -4  -6  179.48   10.10
  -4  -4  -6  160.38   11.00
   4   4   6  186.28    9.70
  -4   4  -6  175.68    6.00
   4   4   6  173.48   12.50
  -4  -4   6  181.98    9.80
   4  -4  -6  167.18   11.00
   4   4   6  167.08   10.80
  -4  -4   6  172.38    8.00
  -4   4  -6  160.48    9.80
   5   4  -6  298.17   13.40
  -5   4   6  296.57   12.50
   5  -4   6  298.27   13.30
  -5  -4  -6  314.97   14.60
  -5   4   6  313.17   14.50
   5  -4   6  289.97   13.50
  -5  -4  -6  281.57   13.20
  -5  -4  -6  331.77   17.70
   5   4  -6  297.77   12.30
  -5   4  -6  310.27   10.40
   5   4   6  314.77   14.20
   5  -4  -6  307.37   14.20
  -5   4  -6  301.57   15.20
  -5  -4   6  305.77   12.10
  -5  -4   6  292.87   14.20
   6   4  -6   15.00    3.90
  -6   4   6   10.30    3.00
  -6  -4  -6    8.70    3.20
   6   4  -6   14.50    4.20
  -6  -4  -6   13.30    5.00
  -6   4   6   16.20    4.10
   6  -4   6    9.70    2.50
   6  -4   6    8.10    3.50
  -6   4  -6   12.50    2.30
   6   4   6    9.30    3.50
  -6   4  -6   16.20    4.60
  -6  -4   6    8.90    3.50
  -6  -4   6   14.20    3.40
   7  -4   6   20.90    5.00
  -7   4   6   20.10    4.70
  -7   4   6   24.40    4.60
  -7  -4  -6   20.00    4.70
  -7  -4  -6   28.30    7.70
  -7   4  -6   17.50    5.40
  -7  -4   6   19.40    5.00
   7   4   6   13.80    3.80
  -7  -4   6   20.60    4.00
  -7   4  -6   20.00    3.30
  -8  -4  -6   48.00    7.00
  -8   4   6   61.59    6.90
  -8  -4  -6   39.80    8.20
  -8   4   6   71.89   12.50
  -8  -4   6   55.09    8.30
  -8   4  -6   47.10    8.00
  -8   4  -6   52.39    5.20
  -9   4   6   11.60    4.10
  -9   4   6   17.60    5.20
  -9  -4  -6   16.30    4.70
  -9  -4  -6   17.10    6.60
  -9   4  -6   13.10    5.10
  -9  -4   6   13.70    5.00
  -9   4  -6   15.30    3.80
 -10  -4  -6   22.50    5.00
 -10   4   6   17.10    4.90
 -10   4   6   17.70    5.40
 -10  -4  -6   12.40    5.70
 -10  -4   6   17.90    5.70
 -10   4  -6   17.00    3.90
 -11  -4  -6   10.60    4.90
 -11   4   6   12.10    8.20
 -11   4   6   21.80    5.70
 -11  -4   6   18.10    6.40
 -11   4  -6   23.10    4.80
 -11   4  -6   23.20    7.20
   0   5  -6    0.70    1.40
   0  -5  -6   -0.80    1.20
   0  -5  -6    0.90    1.70
   0   5   6    1.10    1.80
   0   5   6    0.80    1.40
   0  -5   6    1.20    0.90
   0  -5   6   -1.10    1.00
   0   5   6   -0.80    1.30
   0  -5  -6    0.60    1.30
  -1   5   6 1583.04   45.70
  -1  -5  -6 1622.64   47.30
  -1  -5  -6 1544.35   46.30
   1   5  -6 1537.55   41.40
   1   5  -6 1550.64   43.80
  -1   5   6 1538.55   44.80
  -1  -5  -6 1529.35   45.40
  -1  -5  -6 1616.94   44.60
  -1   5  -6 1521.05   44.10
  -1   5  -6 1598.64   43.40
   1   5   6 1564.64   44.30
  -1  -5   6 1589.04   42.20
   1  -5  -6 1550.94   44.40
   1   5   6 1576.34   47.20
  -1  -5   6 1536.85   43.50
   1  -5  -6 1607.44   45.70
   1  -5  -6 1559.54   44.20
  -2  -5  -6  861.81   30.30
  -2   5   6  896.11   29.00
  -2  -5  -6  875.71   30.10
  -2  -5  -6  888.61   29.80
   2   5  -6  901.01   26.20
  -2   5   6  893.21   28.60
  -2  -5  -6  908.31   28.00
   2   5  -6  934.61   27.10
   2   5   6  898.11   28.10
   2   5   6  923.31   31.80
  -2   5  -6  905.61   27.10
   2  -5  -6  904.01   29.00
  -2   5  -6  885.51   27.80
  -2  -5   6  878.61   26.90
   2  -5  -6  900.91   27.10
  -2  -5   6  902.71   27.60
   2  -5  -6  926.01   28.30
  -3   5   6  460.95   18.40
  -3  -5  -6  437.66   16.50
  -3   5   6  437.36   16.20
  -3  -5  -6  454.45   19.10
   3   5  -6  412.46   15.10
  -3  -5  -6  435.26   18.20
  -3  -5  -6  429.56   18.70
   3  -5   6  411.16   12.40
  -3   5  -6  433.76   15.80
   3   5   6  411.96   19.10
  -3   5  -6  412.16   16.30
  -3  -5   6  433.26   16.30
  -3  -5   6  459.95   15.70
   3   5   6  437.16   16.80
   3  -5  -6  435.76   17.20
  -4  -5  -6  652.23   23.10
   4  -5   6  683.53   22.20
  -4  -5  -6  679.23   26.70
   4  -5   6  651.13   19.80
  -4  -5  -6  702.23   25.10
  -4   5   6  703.43   24.20
  -4   5   6  685.13   22.50
   4   5  -6  672.33   21.80
   4   5  -6  685.83   22.80
   4   5   6  640.64   26.10
  -4  -5   6  683.63   21.90
  -4   5  -6  677.63   23.90
   4  -5  -6  670.03   24.10
   4   5   6  686.73   23.90
  -4  -5   6  676.53   23.80
  -4   5  -6  679.13   22.80
   4   5   6  617.84   27.80
   5  -5   6  358.26   14.40
  -5  -5  -6  384.76   16.80
  -5  -5  -6  312.87   17.80
  -5   5   6  355.76   15.80
   5   5  -6  324.17   14.50
   5   5  -6  310.57   13.40
  -5  -5   6  326.87   13.50
  -5  -5   6  318.57   15.40
  -5   5  -6  337.27   11.00
  -5   5  -6  327.77   15.80
   5   5   6  339.47   15.40
   6  -5   6   52.29    5.90
  -6   5   6   48.20    5.50
   6   5  -6   48.00    7.30
   6  -5   6   46.90    4.80
  -6  -5  -6   49.50    8.30
  -6   5   6   50.49    7.00
  -6  -5  -6   52.09    7.10
  -6   5  -6   55.19    8.90
  -6   5  -6   55.09    4.20
  -6  -5   6   47.60    6.70
   6   5   6   63.49    6.90
   7   5  -6  532.15   20.90
  -7   5   6  520.65   20.70
  -7   5   6  549.65   22.80
  -7  -5  -6  522.15   26.90
  -7  -5  -6  567.44   23.10
   7  -5   6  542.85   21.90
   7   5   6  548.55   23.00
  -7   5  -6  561.34   18.40
  -7  -5   6  520.15   23.20
  -7   5  -6  555.44   24.20
  -8  -5  -6  124.49   10.60
  -8   5   6  140.89    9.80
  -8   5   6  142.49   10.90
  -8  -5  -6  130.59   13.40
  -8   5  -6  141.29   11.70
  -8  -5   6  124.09   10.90
  -8   5  -6  130.19    7.90
   8   5   6  120.79   10.40
  -9   5   6   31.00    6.10
  -9   5   6   30.00    5.80
  -9  -5  -6   38.90    9.20
  -9  -5  -6   57.49    8.50
  -9   5  -6   42.70    5.20
  -9   5  -6   55.19    8.60
  -9  -5   6   49.90    8.60
 -10  -5  -6   42.10    7.60
 -10   5   6   48.20    7.50
 -10  -5  -6   62.79   12.10
 -10   5   6   44.70    7.90
 -10   5  -6   42.30    8.30
 -10  -5   6   54.09    9.00
 -10   5  -6   43.40    6.00
 -11   5   6    2.50    4.50
 -11  -5  -6   11.10    6.30
 -11   5   6    4.60    4.70
 -11  -5  -6    3.60    4.00
 -11  -5   6   -1.00    4.50
 -11   5  -6    8.80    3.70
 -11   5  -6    3.60    4.50
   0  -6   6 2047.40   54.69
   0  -6  -6 1935.71   57.79
   0   6  -6 2010.50   55.19
   0  -6  -6 2013.40   55.99
   0  -6  -6 1855.51   56.59
   0   6   6 1978.20   55.89
   0   6   6 1916.61   56.59
   0  -6  -6 1955.90   55.09
   0   6   6 2026.60   57.39
   1  -6   6  543.55   15.10
  -1  -6  -6  534.25   21.40
  -1   6   6  545.95   20.50
  -1  -6  -6  520.05   20.90
   1   6  -6  520.95   19.20
   1  -6   6  550.04   15.30
  -1   6   6  498.95   19.80
  -1  -6  -6  535.65   19.90
  -1  -6  -6  530.95   19.30
   1  -6   6  549.85   18.80
   1   6  -6  560.84   16.80
  -1  -6   6  525.05   18.90
  -1  -6   6  520.85   17.20
   1  -6  -6  551.44   19.10
  -1   6  -6  518.25   18.30
   1  -6  -6  553.24   20.60
  -1   6  -6  555.34   18.80
   1  -6  -6  519.25   19.30
   1   6   6  563.34   19.90
   1   6   6  537.25   21.40
   2   6  -6  718.13   22.10
  -2  -6  -6  685.33   25.40
  -2  -6  -6  722.33   24.10
  -2   6   6  733.13   25.30
  -2  -6  -6  686.93   26.00
   2   6  -6  738.83   23.80
  -2   6   6  761.32   25.40
  -2  -6  -6  699.23   26.40
   2  -6  -6  730.83   23.50
   2  -6  -6  727.83   23.60
  -2   6  -6  664.33   22.70
   2   6   6  709.43   24.30
  -2  -6   6  698.53   22.80
  -2  -6   6  702.13   23.60
   2  -6  -6  754.32   25.50
  -2   6  -6  702.93   23.10
  -3  -6  -6   -1.10    1.30
  -3   6   6    0.90    1.70
  -3   6   6    1.40    1.60
  -3  -6  -6   -0.70    1.50
   3  -6   6    3.20    0.90
  -3  -6  -6    4.60    2.80
   3   6  -6    1.90    1.70
  -3  -6  -6    2.20    1.80
  -3   6  -6    5.20    2.20
  -3   6  -6    3.80    1.90
   3  -6  -6    3.20    2.10
   3  -6  -6    4.60    2.00
  -3  -6   6    3.60    1.90
   3   6   6    6.10    2.60
   3  -6  -6    4.60    2.00
   3   6   6    2.10    2.30
  -3  -6   6   11.70    2.60
   3   6   6    1.50    2.20
   4   6  -6  255.17   11.80
  -4   6   6  257.17   12.10
   4   6  -6  251.07   13.90
  -4  -6  -6  260.97   14.90
  -4  -6  -6  248.38   13.80
   4   6  -6  242.28   11.40
   4  -6   6  272.07   11.10
   4  -6   6  245.38    9.20
  -4  -6  -6  237.48   12.00
  -4   6   6  268.37   13.10
   4   6   6  262.87   13.00
  -4   6  -6  259.47   12.20
   4  -6  -6  239.18   12.80
  -4  -6   6  255.97   12.70
  -4   6  -6  268.67   12.20
  -4  -6   6  256.57   11.40
  -5   6   6  890.01   31.00
  -5  -6  -6  934.11   35.40
  -5   6   6  910.61   29.60
   5  -6   6  914.41   28.60
   5   6  -6  873.21   29.90
   5  -6   6  850.11   26.90
   5   6  -6  906.51   32.20
  -5  -6  -6  936.81   32.50
  -5  -6   6  928.01   31.70
  -5   6  -6  929.11   31.00
  -5  -6   6  925.71   29.40
   5   6   6  882.51   31.20
  -5   6  -6  937.81   30.40
  -5   6  -6  933.11   25.00
   6   6  -6  492.75   22.20
   6  -6   6  500.25   19.10
  -6   6   6  477.95   19.30
   6   6  -6  495.45   19.40
  -6   6   6  503.95   21.20
  -6  -6  -6  494.55   24.90
  -6  -6  -6  526.25   22.20
  -6  -6   6  481.85   21.50
   6   6   6  485.15   21.00
  -6   6  -6  504.95   16.00
  -6   6  -6  500.85   20.10
  -6  -6   6  477.45   18.80
  -6   6  -6  501.75   21.20
  -7   6   6   -2.50    2.20
  -7   6   6    3.60    2.70
  -7  -6  -6    1.20    5.00
   7   6  -6    0.20    2.50
  -7   6  -6    1.60    1.70
   7   6   6    3.20    3.50
  -7   6  -6   -2.40    2.60
  -7  -6   6    2.40    2.80
  -7   6  -6    3.50    3.20
  -8   6   6  169.28   12.30
  -8  -6  -6  180.98   15.70
   8   6  -6  159.78   11.10
   8  -6   6  178.48   13.60
  -8  -6  -6  189.88   13.10
  -8   6   6  170.68   11.30
  -8   6  -6  157.18   11.90
  -8  -6   6  162.18   12.90
  -8   6  -6  169.68    9.00
   8   6   6  145.69   11.70
  -9   6   6    6.50    4.10
  -9  -6  -6    6.70    4.00
  -9  -6  -6    4.90    5.20
  -9   6   6    4.70    3.80
  -9   6  -6    8.30    2.80
   9   6   6    6.80    3.80
  -9   6  -6    3.20    3.40
  -9  -6   6   10.30    4.80
 -10  -6  -6   16.30    5.90
 -10   6   6   12.10    4.70
 -10   6   6   13.60    5.20
 -10  -6  -6    9.70    6.70
 -10   6  -6   14.20    3.70
 -10   6  -6   12.90    5.20
 -10  -6   6   18.30    6.50
   0   7   6    2.20    2.10
   0   7  -6    1.30    1.60
   0  -7  -6   -1.00    1.80
   0  -7  -6   -0.90    1.90
   0  -7   6    3.20    2.10
   0  -7  -6    0.20    2.10
   0   7   6   -0.10    1.60
   0  -7  -6   -0.20    1.30
   0   7   6    2.50    2.10
  -1   7   6  124.59    8.80
  -1  -7  -6  119.59    8.00
  -1   7   6  117.99    8.50
   1   7  -6  113.09    7.80
   1   7  -6  121.49    6.10
   1  -7   6  111.99    5.20
   1  -7   6  113.99    7.70
  -1  -7  -6  123.59    9.10
   1  -7   6  112.29    5.20
  -1  -7  -6  122.39    9.20
  -1  -7  -6  116.69    7.90
   1  -7  -6  109.69    8.40
  -1  -7   6  111.99    7.60
   1  -7  -6  122.39    8.00
  -1  -7   6  127.09    6.70
  -1   7  -6  114.19    6.80
   1  -7  -6  113.39    7.20
   1   7   6  113.29    8.30
  -1   7  -6  106.39    7.30
   1   7   6  108.59    8.60
  -2  -7  -6  253.27   16.00
  -2  -7  -6  268.27   13.40
  -2   7   6  268.57   13.50
   2   7  -6  270.27   12.70
  -2  -7  -6  248.38   13.90
   2  -7   6  266.97    8.90
   2  -7   6  256.57    8.30
  -2  -7  -6  255.37   12.40
   2   7  -6  267.97   10.90
  -2   7   6  258.17   13.10
   2   7   6  254.47   12.90
   2  -7  -6  281.47   13.80
   2  -7  -6  278.37   11.70
   2  -7  -6  261.87   12.40
   2   7   6  271.47   17.00
  -2  -7   6  259.17   12.20
  -2  -7   6  249.78   11.50
  -2   7  -6  242.28   10.80
   3   7  -6  223.88   13.00
  -3  -7  -6  210.28   13.20
   3   7  -6  229.98   11.30
  -3  -7  -6  225.68   11.50
  -3  -7  -6  217.58   12.90
  -3   7   6  232.98   12.20
   3  -7   6  210.98    7.60
  -3  -7  -6  211.68   12.70
   3  -7  -6  215.18   10.50
   3  -7  -6  226.68   11.30
  -3  -7   6  223.08   11.20
  -3   7  -6  218.28   10.10
  -3  -7   6  232.48   11.40
   3   7   6  213.98   12.00
   3   7   6  223.18   14.20
  -3   7  -6  230.38   11.10
   3  -7  -6  234.78   12.50
  -4   7   6  147.19    9.30
   4   7  -6  144.59    8.70
  -4   7   6  135.79    9.40
   4  -7   6  132.99    6.30
  -4  -7  -6  132.49   10.30
  -4  -7  -6  145.49   11.00
  -4  -7   6  144.49    8.60
   4   7   6  139.29    9.60
  -4   7  -6  152.38    9.20
  -4  -7   6  150.58    9.60
  -4   7  -6  149.99    8.60
   5   7  -6   20.40    3.90
   5  -7   6   19.30    3.40
   5  -7   6   21.70    3.30
  -5   7   6   17.80    3.90
  -5   7   6   21.10    4.30
  -5  -7  -6   26.00    5.10
   5   7  -6   19.40    4.20
  -5  -7  -6   20.10    6.30
  -5   7  -6   33.10    5.40
  -5   7  -6   26.30    2.50
  -5  -7   6   20.30    4.50
  -5  -7   6   22.60    4.10
  -5   7  -6   21.20    4.40
   5   7   6   22.30    4.70
   6   7  -6    6.20    2.80
   6   7  -6    4.10    2.60
  -6  -7  -6    9.60    4.80
   6  -7   6    6.70    3.00
  -6  -7  -6    5.40    3.50
  -6   7   6    3.50    2.90
  -6   7   6    7.90    3.40
  -6  -7   6    8.90    3.70
  -6   7  -6    4.80    1.70
  -6   7  -6    8.10    3.30
   6   7   6    5.90    3.60
  -6   7  -6    3.90    2.80
  -7   7   6   63.39    7.20
  -7  -7  -6   59.39   10.10
  -7   7   6   44.40    6.60
   7   7  -6   53.69    6.60
  -7  -7  -6   38.50    6.90
   7  -7   6   45.40    5.80
  -7  -7   6   48.70    8.20
   7   7   6   46.70    7.40
  -7   7  -6   42.20    4.30
  -8  -7  -6   58.19    8.70
  -8   7   6   51.89    7.20
  -8  -7  -6   58.19   10.70
   8  -7   6   47.90    6.80
  -8   7   6   62.79    8.80
   8   7  -6   43.50    6.90
  -8   7  -6   47.90    6.90
  -8   7  -6   54.69    5.30
   8   7   6   47.40    8.30
  -8  -7   6   49.10    8.30
  -8   7  -6   45.50    7.20
  -9   7   6    7.90    4.10
  -9  -7  -6   10.40    3.90
  -9  -7  -6    3.50    4.50
   9   7  -6    0.00    3.40
  -9   7   6    5.80    3.60
  -9  -7   6    4.00    3.70
   9   7   6   12.90    5.30
  -9   7  -6    8.80    3.80
  -9   7  -6    3.20    2.60
  -9   7  -6    8.20    4.50
 -10  -7  -6   24.60    8.40
 -10  -7  -6   12.00    5.00
 -10   7   6   26.30    6.20
 -10   7   6   28.90    6.90
 -10   7  -6   20.60    6.70
 -10   7  -6   18.60    5.30
 -10   7  -6   17.10    4.20
 -10  -7   6   15.50    6.10
   0  -8   6 1556.54   44.20
   0   8   6 1560.64   48.30
   0   8  -6 1664.13   48.80
   0  -8  -6 1626.84   48.30
   0  -8   6 1619.84   47.80
   0  -8  -6 1470.85   49.10
   0  -8  -6 1659.03   50.19
   0  -8  -6 1625.94   46.60
   0   8   6 1583.24   49.30
   1  -8   6   42.80    3.60
  -1  -8  -6   40.30    5.70
  -1   8   6   44.90    6.30
  -1  -8  -6   49.20    6.20
  -1  -8  -6   52.19    6.50
  -1  -8  -6   55.39    5.70
  -1   8   6   57.79    6.50
   1  -8   6   54.59    4.00
   1   8  -6   47.90    5.90
   1   8  -6   42.90    3.90
   1   8   6   46.90    5.80
   1  -8  -6   42.10    5.90
   1  -8  -6   49.00    4.90
  -1  -8   6   51.49    4.70
  -1  -8   6   49.00    5.40
  -1   8  -6   48.20    4.40
   1  -8  -6   51.09    6.30
  -1   8  -6   50.49    5.40
  -2   8   6  217.08   12.30
   2   8  -6  228.78   10.30
  -2  -8  -6  221.58   13.40
   2   8  -6  221.08   12.20
  -2  -8  -6  206.38   13.00
   2  -8   6  220.68    8.20
  -2  -8  -6  238.68   12.20
   2  -8   6  234.28    8.80
  -2  -8  -6  223.98   12.40
  -2   8   6  241.68   13.20
   2   8   6  228.08   13.80
  -2   8  -6  215.38    9.70
  -2  -8   6  223.98   11.70
  -2   8  -6  216.78   11.30
   2  -8  -6  223.48   12.10
   2  -8  -6  215.78   10.40
   2  -8  -6  193.38   12.30
  -2  -8   6  213.88   10.80
   2   8   6  213.88   12.40
  -3  -8  -6   12.40    4.10
  -3   8   6   17.30    4.10
   3  -8   6   12.30    2.00
  -3  -8  -6   12.20    3.70
   3   8  -6    8.70    3.30
  -3  -8  -6    8.70    3.80
   3   8  -6   14.10    2.90
  -3   8   6   13.60    3.90
   3   8  -6   12.50    3.10
   3  -8  -6   14.50    3.10
  -3   8  -6    6.90    2.80
  -3  -8   6    9.90    2.90
   3   8   6   13.60    4.10
   3  -8  -6   11.60    3.10
   3   8   6   14.70    5.30
   4   8  -6  109.99    8.30
  -4   8   6  107.09    8.40
  -4  -8  -6  111.59   10.00
   4  -8   6   91.29    6.00
   4   8  -6  101.69    7.60
  -4   8   6  102.29    8.40
  -4  -8  -6   99.29    9.40
  -4   8  -6  104.99    8.00
   4  -8  -6  100.49    7.00
  -4  -8   6  107.49    8.40
  -4   8  -6  106.99    6.80
   4   8   6  104.79    8.70
  -4  -8   6  115.79    8.00
   5   8  -6  301.57   14.70
  -5   8   6  300.27   14.70
   5  -8   6  250.77   11.10
   5   8  -6  273.57   13.90
  -5  -8  -6  311.47   17.00
  -5  -8  -6  292.17   17.60
  -5   8   6  283.07   14.80
  -5   8  -6  290.67   13.10
  -5  -8   6  287.07   13.80
   5   8   6  290.87   15.80
  -5   8  -6  276.37   14.00
  -5  -8   6  276.67   15.20
   6   8  -6  494.25   21.10
  -6  -8  -6  512.25   24.30
  -6   8   6  533.65   21.60
   6   8  -6  463.35   23.30
  -6  -8  -6  516.75   25.70
  -6   8   6  529.55   22.30
   6  -8   6  515.65   18.10
  -6  -8   6  503.35   22.90
   6   8   6  471.85   22.60
  -6   8  -6  507.15   21.40
  -6   8  -6  529.35   16.40
  -6   8  -6  541.95   19.90
   7   8  -6   13.70    4.10
  -7   8   6    9.40    3.90
   7  -8   6   14.00    3.50
  -7   8   6   17.10    4.80
  -7  -8  -6   20.30    6.40
  -7  -8  -6   10.40    4.60
   7   8   6   14.70    4.70
  -7   8  -6   17.30    4.00
   7  -8  -6    5.70    5.50
  -7   8  -6   14.40    3.00
  -7  -8   6   13.00    5.10
  -7   8  -6   13.50    4.30
  -8   8   6   31.60    6.20
  -8   8   6   35.50    6.50
  -8  -8  -6   31.80    8.40
  -8  -8  -6   37.90    7.20
   8   8  -6   37.30    6.70
  -8   8  -6   45.80    7.10
  -8   8  -6   46.20    6.40
  -8  -8   6   45.80    8.20
  -8   8  -6   37.60    4.60
   8   8   6   39.60    7.40
   9   8  -6    2.20    3.60
  -9  -8  -6   13.90    5.70
  -9   8   6    3.70    3.40
  -9   8   6    7.60    4.00
  -9  -8  -6    4.10    4.60
  -9   8  -6   10.50    3.90
  -9  -8   6    5.70    4.80
  -9   8  -6    0.50    3.30
   9   8   6    6.10    3.70
  -9   8  -6    9.50    3.20
 -10   8   6   -0.40    4.10
 -10  -8  -6    5.10    4.60
 -10  -8  -6    4.30    5.00
 -10   8   6    5.40    4.70
 -10   8  -6    4.30    4.20
 -10   8  -6    1.70    2.80
  10   8   6    2.20    4.40
 -10   8  -6    2.40    3.30
 -10  -8   6    4.30    4.70
   0  -9  -6    5.90    2.60
   0   9  -6   -2.30    2.00
   0  -9   6    2.40    1.90
   0  -9  -6    3.20    2.60
   0  -9   6    3.50    2.60
   0  -9  -6    2.60    2.60
   0   9   6    5.10    2.50
  -1  -9  -6 2328.57   66.49
   1  -9   6 2121.99   63.49
   1   9  -6 2216.98   64.39
  -1   9   6 2216.78   65.09
   1  -9   6 2202.58   58.59
  -1  -9  -6 2175.38   62.69
  -1  -9  -6 2149.08   64.49
  -1   9   6 2272.07   65.89
   1   9   6 2152.98   65.29
   1  -9  -6 2211.28   64.19
   1   9   6 2251.37   65.89
  -1   9  -6 2073.69   59.29
  -1  -9   6 2196.98   67.49
   1  -9  -6 2166.78   60.79
  -1   9  -6 2220.78   63.89
   2  -9   6   15.60    3.60
  -2   9   6   23.80    5.50
   2  -9   6   19.20    2.80
   2   9  -6   20.90    4.70
  -2   9   6   20.20    4.20
   2  -9   6   25.50    3.40
   2   9  -6   19.80    3.70
  -2  -9  -6   25.90    5.60
  -2  -9  -6   26.00    5.00
  -2  -9   6   21.40    4.20
  -2   9  -6   22.80    4.30
  -2   9  -6   20.90    3.10
  -2  -9   6   20.60    3.90
   2   9   6   22.60    5.00
   2  -9  -6   11.60    3.50
   2   9   6   21.90    4.90
   2  -9  -6   21.70    3.60
   3   9  -6   29.40    4.50
  -3  -9  -6   33.00    6.60
  -3   9   6   32.60    5.80
   3   9  -6   23.90    4.60
   3   9  -6   24.20    5.10
  -3   9   6   36.40    5.50
   3  -9   6   31.50    3.20
  -3  -9  -6   28.80    5.90
   3  -9   6   22.60    2.80
  -3   9  -6   27.30    5.10
  -3  -9   6   30.60    5.40
  -3  -9   6   36.50    5.50
   3   9   6   22.40    4.80
  -3   9  -6   27.30    3.30
   3  -9  -6   24.60    3.90
   4   9  -6   31.80    5.20
  -4  -9  -6   46.30    7.90
   4   9  -6   33.80    5.90
   4  -9   6   28.40    3.40
  -4  -9  -6   19.10    5.30
  -4   9   6   31.20    5.70
  -4   9   6   32.40    5.30
  -4  -9   6   31.00    5.40
   4  -9  -6   34.40    4.30
  -4   9  -6   32.70    3.80
  -4   9  -6   31.40    5.50
   4   9   6   30.30    6.20
  -4  -9   6   43.80    6.30
   5   9  -6  476.85   21.10
  -5   9   6  506.45   21.60
  -5  -9  -6  522.65   24.00
  -5  -9  -6  513.55   24.50
   5   9  -6  467.95   20.20
  -5   9   6  474.75   21.00
   5  -9  -6  504.25   21.00
   5   9   6  502.05   23.10
  -5   9  -6  487.65   20.70
  -5   9  -6  515.85   17.70
   6   9  -6    8.10    3.90
  -6  -9  -6    6.40    5.10
   6   9  -6    4.40    3.50
  -6   9   6   13.10    4.50
  -6   9   6    8.80    3.60
  -6  -9  -6    0.70    3.00
  -6   9  -6    6.90    2.10
  -6  -9   6    4.90    3.70
  -6   9  -6   10.40    2.80
   6   9   6    0.80    2.90
   7   9  -6  751.12   29.70
  -7  -9  -6  769.52   32.20
  -7   9   6  780.22   29.50
  -7   9   6  767.32   30.00
   7  -9   6  766.42   24.70
  -7  -9  -6  739.83   33.90
   7   9   6  750.42   31.50
  -7  -9   6  788.22   32.30
  -7   9  -6  733.33   25.20
   7  -9  -6  751.72   29.00
  -7   9  -6  783.42   23.80
  -7   9  -6  750.12   29.40
  -8  -9  -6    9.50    5.00
   8   9  -6    4.70    3.70
   8  -9   6    1.90    3.20
  -8  -9  -6   10.40    5.70
  -8   9   6    4.60    3.50
  -8   9   6    7.70    3.90
  -8   9  -6    8.30    2.80
  -8  -9   6    8.30    4.70
  -8   9  -6    0.90    3.10
   8   9   6    5.80    4.40
  -8   9  -6    6.00    3.10
  -9   9   6   -1.30    5.30
   9   9  -6    3.00    4.40
   9  -9   6  -10.50    5.90
  -9  -9  -6   -0.40    5.30
  -9  -9  -6    0.20    4.70
  -9   9   6    0.20    4.00
  -9   9  -6    1.30    2.40
  -9   9  -6   -0.60    3.70
   9   9   6    0.30    4.70
  -9  -9   6    2.50    4.10
  -9   9  -6    3.50    2.80
 -10  -9  -6    4.00    4.50
  10   9  -6    3.40    4.70
 -10  -9  -6   10.00    6.20
 -10   9   6    3.00    4.50
 -10   9   6    1.00    3.90
 -10   9  -6    9.20    3.30
 -10  -9   6    2.70    5.00
  10   9   6   11.90    5.30
 -10   9  -6   -3.50    3.60
   0  10  -6   46.00    4.60
   0 -10   6   49.70    5.30
   0  10   6   39.80    7.10
   0 -10  -6   56.09    8.30
   0  10  -6   56.89    6.90
   0 -10  -6   49.60    5.50
  -1 -10  -6   39.80    6.00
   1 -10   6   41.40    4.50
  -1  10   6   45.60    7.50
   1 -10   6   45.00    4.50
   1  10  -6   39.20    6.50
  -1 -10  -6   38.80    5.80
   1  10  -6   31.10    4.60
   1  10   6   31.70    6.30
   1 -10  -6   48.30    7.40
   1 -10  -6   43.30    4.90
  -1  10  -6   36.60    4.00
  -1  10  -6   41.30    6.40
  -1 -10   6   40.20    6.30
   1  10   6   35.40    6.20
  -1 -10   6   41.10    5.70
  -2 -10  -6   10.40    3.50
  -2  10   6    6.50    3.70
   2 -10   6    7.30    2.50
   2  10  -6    9.90    2.80
  -2 -10  -6   15.60    4.60
   2  10  -6    6.10    3.80
   2  10  -6    7.20    3.10
  -2  10   6    6.40    3.50
  -2 -10   6   14.90    5.30
  -2 -10   6    1.00    2.00
  -2  10  -6    3.60    2.60
   2  10   6   -1.10    2.70
  -2  10  -6    3.80    1.80
   2 -10  -6    9.50    2.80
   2  10   6    4.00    3.10
  -3  10   6    3.90    3.00
   3  10  -6    3.20    2.40
   3  10  -6    1.10    2.30
  -3  10   6    5.90    3.60
   3 -10   6    5.20    2.00
   3  10  -6    1.40    2.60
  -3 -10  -6    0.70    2.60
  -3 -10  -6    0.20    2.50
   3 -10  -6   10.10    2.80
  -3  10  -6    1.30    2.50
  -3  10  -6    3.90    1.70
   3  10   6    1.10    2.80
  -3 -10   6    2.40    2.50
  -4 -10  -6    8.90    4.20
  -4  10   6   12.10    4.20
   4  10  -6   11.00    3.20
   4  10  -6    4.50    3.50
  -4 -10  -6   12.20    4.50
   4 -10   6    6.00    2.10
  -4  10   6    5.30    4.20
   4  10   6    1.50    2.50
  -4 -10   6    9.70    4.10
  -4  10  -6    4.90    3.10
   4 -10  -6    4.50    2.50
  -4  10  -6    6.60    1.80
  -5 -10  -6    4.90    4.10
  -5 -10  -6    4.80    5.50
  -5  10   6    5.80    3.50
   5  10  -6    9.10    3.50
  -5  10   6    8.10    3.50
   5  10  -6    5.00    3.40
  -5  10  -6    4.50    1.80
   5 -10  -6    6.40    2.80
  -5 -10   6    0.90    3.00
  -5  10  -6    5.70    3.00
  -6  10   6   28.60    6.00
  -6 -10  -6   29.60    7.00
  -6 -10  -6   34.10    7.00
   6  10  -6   32.60    5.90
  -6  10   6   30.60    6.20
   6  10  -6   33.60    6.70
  -6  10  -6   26.10    3.40
  -6 -10   6   34.20    7.30
   6  10   6   26.00    6.40
  -6  10  -6   40.10    6.70
   6 -10  -6   35.00    5.10
  -7  10   6   13.10    4.80
  -7 -10  -6   11.40    5.60
   7  10  -6   13.90    5.70
  -7  10   6    8.80    4.30
  -7 -10  -6   20.70    6.40
   7 -10  -6    9.10    3.80
   7  10   6    3.40    4.00
  -7  10  -6   11.10    2.70
  -7  10  -6   12.90    4.20
  -7  10  -6   13.90    2.90
  -7 -10   6   13.80    5.60
  -8  10   6   22.70    5.80
  -8  10   6    8.70    4.30
  -8 -10  -6   19.50    6.00
   8  10  -6   11.30    5.20
  -8 -10  -6   17.90    6.80
   8 -10   6    8.20    3.30
  -8 -10   6   15.40    6.10
  -8  10  -6   18.20    5.50
  -8  10  -6   16.10    3.40
   8  10   6    9.70    5.90
  -9  10   6   10.70    4.50
  -9 -10  -6    8.40    7.30
  -9  10   6    4.10    4.10
   9  10  -6   11.00    5.30
  -9  10  -6   13.50    7.90
  -9  10  -6   10.20    3.30
  -9 -10   6    2.30    5.40
   0  11  -6    0.60    1.80
   0 -11  -6   -1.20    1.50
   0  11   6   -0.80    2.40
   0  11   6   -0.30    3.10
   0  11  -6    1.00    2.80
   0 -11  -6    2.40    2.90
   0 -11   6    1.50    2.10
   1  11  -6 1211.38   38.80
  -1  11   6 1408.86   45.90
   1  11  -6 1327.87   43.90
   1 -11   6 1262.37   38.70
  -1 -11  -6 1259.17   40.80
  -1 -11  -6 1411.56   45.30
  -1  11  -6 1287.47   42.90
   1 -11  -6 1269.57   38.80
  -1  11  -6 1217.48   36.00
   1  11   6 1180.38   44.20
  -1  11  -6 1246.58   36.60
  -1 -11   6 1289.37   40.70
   1 -11  -6 1300.47   44.30
   1  11   6 1308.67   43.10
  -2 -11  -6    5.60    3.30
   2  11  -6    7.60    4.20
   2 -11   6    8.80    2.50
   2 -11   6    1.20    2.10
  -2  11   6    7.40    3.90
   2  11  -6    5.60    2.80
  -2  11   6    8.00    3.80
  -2 -11  -6    7.40    3.50
   2 -11  -6    3.70    2.20
  -2  11  -6    3.60    2.90
  -2  11  -6    3.00    2.00
   2  11   6    9.00    4.80
  -2 -11   6    2.90    2.30
  -2  11  -6    6.10    1.90
  -3 -11  -6  188.38   13.60
  -3  11   6  163.28   12.00
  -3 -11  -6  158.48   12.20
  -3  11   6  171.28   12.90
   3  11  -6  169.88   10.50
   3  11  -6  171.58   12.70
   3 -11  -6  171.48    9.20
  -3  11  -6  151.48   11.00
  -3 -11   6  167.58   11.70
   3  11   6  142.79   12.50
   4  11  -6   -1.00    2.40
   4 -11   6    5.60    3.10
   4  11  -6   -3.00    3.40
  -4 -11  -6    1.40    3.60
  -4  11   6   -1.30    2.60
  -4  11   6    4.00    4.30
  -4 -11  -6    2.40    3.30
  -4  11  -6    3.00    2.90
  -4 -11   6   -0.30    2.50
   4 -11  -6    7.20    2.50
  -5  11   6  494.75   22.50
   5  11  -6  454.45   20.90
   5  11  -6  482.15   23.10
  -5 -11  -6  451.95   23.90
  -5  11   6  487.75   22.80
  -5 -11  -6  468.85   27.60
   5  11   6  528.65   25.10
   5 -11  -6  497.85   18.20
  -5 -11   6  525.25   24.10
  -5  11  -6  477.35   21.80
   6  11  -6    4.20    3.90
  -6 -11  -6   -1.30    3.40
  -6  11   6    3.70    3.20
  -6  11   6    1.90    3.70
   6  11  -6    0.90    3.00
  -6 -11  -6    1.20    3.60
  -6  11  -6    2.50    3.20
  -6 -11   6   -4.00    2.90
   6  11   6    2.30    3.70
  -7 -11  -6  288.87   19.10
  -7 -11  -6  258.17   18.50
   7  11  -6  275.17   17.40
  -7  11   6  260.67   16.40
  -7  11   6  299.27   17.30
  -7 -11   6  303.67   19.50
   7 -11  -6  300.47   14.00
   7 -11  -6  303.67   16.50
   7  11   6  293.37   19.40
  -7  11  -6  268.17   16.60
  -8 -11  -6   -0.20    4.00
  -8  11   6    4.10    6.50
  -8 -11  -6   -2.10    3.90
  -8  11   6    6.40    4.40
   8  11  -6   -8.70    3.70
   8  11   6    3.80    7.50
  -8  11  -6    4.60    4.40
  -8 -11   6    1.60    5.30
  -8  11  -6    3.80    2.60
   8 -11  -6   -5.30    2.80
   9  11  -6   -5.50    4.60
  -9 -11  -6    4.90    4.80
  -9 -11  -6   14.20    5.90
  -9  11   6   -4.00    3.20
  -9  11   6   -3.30    4.20
  -9  11  -6   -6.50    3.50
  -9  11  -6    6.70    3.10
   9  11   6    3.10    5.00
  -9 -11   6   -9.20    4.20
   0 -12   6   97.59    7.80
   0  12   6   90.59   10.20
   0  12  -6   97.99    6.70
   0  12   6   82.09    8.80
   0  12  -6   99.09    9.90
   0 -12  -6   95.99    7.90
   0 -12  -6   89.79    9.60
   1  12  -6  405.96   20.50
   1  12  -6  358.26   15.90
   1 -12   6  403.56   16.70
  -1 -12  -6  420.66   21.00
  -1 -12  -6  374.46   17.70
  -1  12   6  380.96   20.80
   1  12   6  344.87   20.20
   1  12   6  363.36   18.30
  -1  12  -6  364.26   13.60
   1 -12  -6  374.56   20.00
  -1 -12   6  409.56   18.30
  -1  12  -6  366.86   13.60
  -1  12  -6  378.26   19.40
  -2 -12  -6  259.07   16.40
   2  12  -6  245.18   13.20
  -2 -12  -6  237.48   14.60
   2 -12   6  270.47   12.30
  -2  12   6  244.38   16.20
   2  12  -6  228.98   15.60
  -2  12  -6  234.38   14.90
  -2  12  -6  252.27    9.60
   2 -12  -6  240.08   11.70
  -2  12  -6  239.68    8.50
  -2 -12   6  232.38   14.00
   2  12   6  230.18   16.50
   3  12  -6    9.30    4.80
  -3 -12  -6   11.80    5.00
  -3  12   6   10.50    4.30
   3 -12   6   12.40    2.90
  -3  12   6    7.90    3.80
  -3 -12  -6    8.70    5.00
   3  12  -6    5.20    3.00
   3  12   6    9.40    5.00
  -3  12  -6    6.20    3.80
  -3 -12   6   10.40    4.50
   3 -12  -6    7.80    2.80
   4 -12   6  100.29    7.20
   4  12  -6  115.59   11.50
  -4  12   6  121.79   10.70
  -4 -12  -6  103.89   11.00
  -4 -12  -6   77.39    9.80
   4  12  -6   97.99    8.80
   4 -12  -6  107.19    7.20
  -4  12  -6   83.99    9.10
   4  12   6   95.79   11.20
  -4 -12   6  103.59   10.50
  -5  12   6  403.36   20.80
   5  12  -6  410.36   19.70
  -5  12   6  373.46   21.00
  -5 -12  -6  414.66   22.50
  -5 -12  -6  386.16   22.00
   5  12  -6  414.46   24.90
  -5 -12   6  420.86   22.00
   5  12   6  397.86   22.50
   5 -12  -6  425.36   16.00
  -5  12  -6  400.26   20.10
   6  12  -6   29.40    5.80
  -6  12   6   20.60    5.70
  -6 -12  -6   27.20    6.70
   6  12  -6   23.20    6.60
  -6 -12  -6    9.80    5.20
  -6  12   6   22.30    5.60
  -6  12  -6   22.20    5.50
   6 -12  -6   24.30    4.10
   6 -12  -6   22.90    4.80
  -6 -12   6   30.90    7.30
   6  12   6   18.40    6.50
  -7 -12  -6    2.00    4.40
  -7  12   6   12.10    4.70
   7  12  -6    8.70    5.60
  -7  12   6    4.20    4.60
  -7 -12  -6   10.90    5.30
  -7 -12   6   15.10    6.10
  -7  12  -6   13.30    5.50
   7  12   6    5.40    5.40
   7 -12  -6   11.20    3.70
  -8  12   6   60.59    8.60
  -8  12   6   59.39    9.10
  -8 -12  -6   61.39   12.50
   8  12  -6   53.19    9.20
  -8 -12   6   56.49    9.80
   8  12   6   57.99   10.00
   8 -12  -6   55.99    7.00
   0 -13  -6    3.90    3.20
   0 -13  -6    2.30    2.90
   0  13  -6   -4.40    2.20
   0  13   6    5.30    4.90
   0 -13   6    3.60    2.90
   0  13  -6   -0.90    2.00
   1  13  -6   48.60    5.80
  -1 -13  -6   47.70    7.10
  -1 -13  -6   38.00    6.80
   1  13  -6   44.60    7.70
  -1  13   6   49.20   12.90
   1 -13  -6   49.90    5.80
  -1  13  -6   49.70    4.40
  -1  13  -6   55.69    4.40
   1  13   6   45.20    8.90
   1 -13  -6   59.19    9.10
  -1  13  -6   38.20    7.00
  -1 -13   6   52.79    7.60
  -2 -13  -6   47.90    7.60
  -2  13   6   40.30    7.80
   2 -13   6   51.09    5.90
   2  13  -6   41.00    8.10
   2  13  -6   59.49    6.60
   2  13   6   30.50    7.70
   2 -13  -6   48.30    8.40
  -2 -13   6   48.60    7.80
   2 -13  -6   37.00    5.30
  -2  13  -6   33.30    6.70
   3 -13   6   30.70    4.80
  -3  13   6   32.00    7.10
   3  13  -6   25.70    7.10
   3  13  -6   27.60    5.60
  -3 -13  -6   26.70    6.20
  -3  13   6   34.80    7.00
  -3 -13  -6   32.70    6.90
   3 -13  -6   25.20    4.10
  -3  13  -6   36.30    7.20
  -3 -13   6   38.10    7.10
   3  13   6   24.90    6.80
   4 -13   6    4.00    2.60
   4  13  -6    2.80    3.20
   4  13  -6   -0.10    4.50
  -4  13   6    3.50    4.50
  -4  13   6    3.80    3.80
  -4 -13  -6    2.20    3.90
  -4 -13  -6   -1.00    3.80
  -4 -13   6   -5.10    3.10
   4  13   6    4.60    4.30
   4 -13  -6    3.80    2.50
  -4  13  -6    6.30    3.70
   5  13  -6   51.19    9.10
  -5  13   6   26.80    6.40
  -5 -13  -6   26.40    6.80
  -5  13   6   34.10    7.10
   5 -13   6   51.89    5.70
  -5 -13  -6   34.10    8.20
   5 -13  -6   41.30    5.00
  -5 -13   6   41.00    8.40
  -5  13  -6   33.40    6.90
   5  13   6   27.10    7.10
   6  13  -6    2.30    4.20
  -6 -13  -6    1.00    4.20
  -6  13   6   -2.70    3.20
   6  13  -6    2.80    5.00
  -6 -13  -6   -1.60    4.10
  -6  13   6   -0.90    4.10
   6 -13  -6   -0.60    2.40
  -6  13  -6    7.60    4.70
  -6 -13   6   -3.20    3.80
   6  13   6   -0.20    4.60
   6 -13  -6   -0.10    3.40
  -7  13   6    9.00    5.10
  -7 -13  -6    5.30    5.30
   7  13  -6   -0.30    4.80
   7  13   6   12.10   10.20
   7 -13  -6    1.60    3.10
  -7 -13   6    4.20    5.90
  -7  13  -6    8.30    5.20
   0  14  -6  229.28   11.40
   0  14  -6  264.47   17.00
   0 -14   6  240.58   14.00
   0 -14  -6  249.28   20.30
   0  14   6  244.18   17.70
   0 -14  -6  267.77   14.30
  -1 -14  -6   87.59   10.70
   1  14  -6   83.69    7.20
   1  14  -6   76.99   10.70
  -1 -14  -6   84.69    8.50
  -1  14   6   68.99   10.30
   1 -14   6   89.09    8.40
  -1  14  -6   94.19   10.30
  -1 -14   6   77.49    8.60
  -1  14  -6   79.09    4.90
  -1  14  -6   73.99    4.50
   1 -14  -6   82.19    7.70
   1  14   6   70.09   10.70
  -2  14   6  266.17   17.90
   2  14  -6  272.27   18.00
  -2 -14  -6  253.77   17.30
   2  14  -6  263.97   14.60
  -2 -14  -6  244.48   15.00
   2  14   6  218.38   17.60
  -2  14  -6  226.58   15.60
   2 -14  -6  245.88   12.20
  -2 -14   6  234.38   15.30
   3 -14   6   10.70    3.60
   3  14  -6    4.30    4.60
  -3  14   6    1.90    4.50
  -3 -14  -6    5.10    4.10
  -3 -14  -6    6.00    4.30
   3 -14  -6    5.10    2.80
  -3  14  -6    1.10    3.70
   3  14   6    4.40    5.10
  -3 -14   6   11.50    5.60
   4 -14   6  138.09    9.40
   4  14  -6  129.29   13.40
  -4 -14  -6  130.69   13.40
  -4  14   6  144.39   12.80
  -4  14   6  130.49   13.10
  -4 -14  -6  129.29   12.00
   4  14  -6  122.39   10.70
  -4  14  -6  125.49   11.70
   4  14   6  103.09   12.30
  -4 -14   6  127.49   12.60
   4 -14  -6  130.39    7.90
  -5  14   6  119.49   12.30
  -5 -14  -6  137.09   12.70
  -5 -14  -6  175.78   15.20
   5  14  -6  135.09   13.80
  -5  14   6  152.98   13.90
   5 -14   6  147.99   10.10
   5  14   6  134.59   14.50
   5 -14  -6  155.68    8.10
  -5 -14   6  127.49   13.40
  -5  14  -6  133.29   12.40
   6  14  -6   73.79   11.80
  -6 -14  -6   68.19   11.20
  -6  14   6   68.49   11.00
  -6 -14  -6   60.69   10.30
  -6 -14   6   68.39   10.90
   6  14   6   64.89   12.60
   6 -14  -6   63.59    5.80
   0 -15  -6    3.80    4.70
   0 -15   6    2.90    2.90
   0  15  -6   -1.60    3.70
   0  15  -6   -1.40    2.30
   0  15   6    2.10    5.10
   0 -15  -6   -4.20    2.80
  -1  15   6  293.37   20.50
   1 -15   6  340.87   16.80
   1  15  -6  324.97   15.00
  -1 -15  -6  321.87   19.90
  -1 -15  -6  312.77   16.70
   1  15  -6  312.87   20.00
   1 -15  -6  304.57   15.20
   1  15   6  294.97   20.60
  -1  15  -6  308.37   19.00
  -1 -15   6  316.27   17.90
   1 -15  -6  327.57   19.90
  -2 -15  -6    6.70    4.30
   2 -15   6    3.80    3.70
   2  15  -6   -0.40    3.30
   2  15  -6    0.40    4.00
  -2 -15  -6    7.50    5.00
  -2  15   6    2.90    4.90
  -2 -15   6    4.10    4.10
   2 -15  -6    6.50    3.30
   2 -15  -6    3.50    4.10
  -2  15  -6    3.50    4.40
   2  15   6    1.80    5.10
   3  15  -6   14.50    6.20
  -3 -15  -6   18.90    6.50
  -3 -15  -6   16.10    5.50
  -3  15   6   28.30    7.30
  -3  15  -6   24.10    6.60
   3  15   6   25.80    7.50
   3 -15  -6   22.10    4.30
   3 -15  -6   19.50    6.40
   4 -15   6    4.90    3.50
  -4 -15  -6   -2.40    3.70
   4  15  -6   -1.60    4.70
  -4 -15  -6    7.50    4.70
  -4  15   6    0.90    4.20
  -4  15  -6   -3.40    3.50
  -4 -15   6   -0.50    4.60
   4  15   6   -1.90    4.70
   4 -15  -6   -1.90    2.40
  -5  15   6   37.90    8.10
   5  15  -6   19.90    7.90
  -5  15   6   36.60    8.20
  -5 -15  -6   53.99    9.80
  -5 -15  -6   45.70    8.40
  -5 -15   6   48.70    9.50
   5 -15  -6   40.90    5.20
  -5  15  -6   43.90   10.50
   0  16  -6    0.80    2.20
   0 -16  -6    3.90    3.60
   0  16   6   11.10    6.20
   0 -16  -6    7.20    4.30
   0 -16   6    9.20    4.30
   0  16  -6   10.90    5.60
   1  16  -6   -2.70    3.70
  -1 -16  -6   -2.70    3.50
  -1 -16  -6    4.60    4.20
   1 -16   6   -0.50    3.20
  -1  16   6   -1.10    3.70
   1  16   6  -12.40    4.40
   1 -16  -6    1.10    3.90
  -1 -16   6    0.80    4.10
   1 -16  -6    3.90    3.60
  -1  16  -6    4.00    4.50
  -2  16   6   20.10    6.50
   2 -16   6   30.40    6.40
   2  16  -6   27.20    7.90
  -2 -16  -6   17.20    5.20
  -2 -16  -6   19.10    6.50
   2 -16  -6   19.40    4.40
  -2 -16   6   18.10    6.80
   2 -16  -6   25.90    6.80
   2  16   6   33.00    8.90
  -2  16  -6   18.70    6.00
   3  16  -6    5.90    6.00
  -3 -16  -6   20.40    7.30
  -3 -16  -6   15.70    5.80
  -3 -16   6   13.60    6.10
   3 -16  -6   18.10    3.80
  -3  16  -6   11.40    6.10
   3  16   6    9.60    8.00
   3 -16  -6   13.70    6.50
   4  16  -6   40.00   10.00
  -4 -16  -6   39.40    8.10
  -4 -16  -6   41.50    8.10
  -4  16   6   48.00   14.50
   4  16   6   42.10   10.10
  -4 -16   6   35.80    8.70
   4 -16  -6   55.09   10.80
   0 -17  -6    5.90    4.40
   0 -17   6    9.50    5.10
   0  17  -6   -8.30    6.00
   0 -17  -6    1.60    3.80
  -1 -17  -6  338.67   21.30
  -1 -17  -6  336.37   17.70
   1  17  -6  307.27   23.70
   1  17   6  328.37   26.90
   1 -17  -6  332.07   21.10
  -1 -17   6  331.17   19.90
   1 -17  -6  356.16   17.70
  -2 -17  -6    7.50    4.30
  -2 -17  -6    5.30    4.20
   2  17   6   -1.30    5.60
   2 -17  -6   -0.80    5.00
   0   0  -7    1.20    0.60
   0   0  -7   -0.30    0.80
   0   0  -7    3.20    2.00
  -1   0  -7   -1.90    0.90
  -1   0  -7    0.00    0.60
   1   0   7    1.60    1.20
  -1   0   7   -0.10    0.90
  -1   0  -7    0.30    1.00
   1   0  -7    0.20    0.90
  -1   0  -7    0.50    0.80
  -2   0  -7    4.60    1.40
  -2   0  -7    6.30    1.60
  -2   0  -7    0.40    0.90
   2   0  -7    1.50    1.10
  -2   0   7   -0.30    0.90
  -2   0  -7    2.20    1.90
   2   0   7   -0.30    1.20
  -3   0  -7   -0.90    0.90
  -3   0  -7   -2.00    0.80
  -3   0   7    1.30    0.80
  -3   0  -7    1.70    1.20
  -3   0   7    0.30    1.50
   3   0  -7    1.80    1.40
  -3   0  -7    0.20    1.90
   3   0   7    0.50    1.30
   3   0   7   -1.80    1.60
   4   0  -7    2.00    1.40
  -4   0  -7    1.30    1.30
  -4   0  -7    3.70    2.00
  -4   0   7    8.40    2.40
  -4   0   7    0.40    0.90
   4   0   7   -0.70    1.80
   4   0   7    6.20    2.20
  -4   0  -7   16.30    3.80
  -5   0  -7   -0.70    2.20
  -5   0  -7    1.90    1.80
   5   0   7    2.30    1.80
  -5   0   7    2.00    1.30
  -5   0  -7   -0.30    1.30
   5   0   7    2.10    2.60
   5   0  -7   -0.80    1.30
   6   0  -7    7.00    2.40
  -6   0  -7    1.50    2.80
  -6   0  -7    2.40    1.80
  -6   0   7   -1.00    1.90
  -6   0   7   -1.60    1.50
  -7   0  -7   -0.20    1.50
  -7   0   7   -0.20    2.00
  -7   0  -7   -1.80    2.80
  -7   0   7   -0.80    1.70
  -8   0  -7   12.60    5.70
  -8   0   7    2.80    2.80
  -8   0  -7   -1.10    1.80
  -9   0  -7   -0.70    3.60
  -9   0   7   -1.10    2.40
  -9   0  -7   -0.40    2.00
 -10   0  -7   -4.50    4.40
 -10   0   7   -0.50    3.20
 -10   0  -7   -3.10    2.30
 -11   0  -7    1.60    6.10
 -11   0   7    2.80    4.40
 -11   0  -7    1.00    3.00
   0  -1   7    3.30    1.20
   0  -1  -7    2.30    0.90
   0   1  -7    0.50    0.70
   0  -1  -7    2.10    1.10
   0   1   7    6.10    1.90
   0   1  -7    1.10    0.60
   0   1  -7    0.80    0.60
   0  -1  -7   -0.30    1.30
   0   1  -7    0.40    1.50
   0   1   7    0.80    0.70
  -1  -1  -7  403.16   16.10
   1  -1   7  413.66   13.60
  -1   1   7  394.66   14.40
  -1  -1  -7  392.46   13.60
  -1  -1  -7  420.16   12.80
   1   1  -7  402.06   13.10
  -1  -1  -7  405.06   14.90
   1   1   7  425.46   15.20
   1   1   7  433.06   12.60
   1   1   7  390.46   16.20
  -1   1  -7  393.96   15.80
  -1  -1   7  396.66   13.80
   1  -1  -7  408.46   14.10
  -1   1  -7  424.36   12.40
  -1   1  -7  420.06   12.20
  -1   1  -7  400.66   12.90
  -2  -1  -7 1943.41   50.69
   2   1  -7 1952.90   51.19
   2  -1   7 1876.61   54.09
  -2  -1  -7 1883.71   54.69
  -2  -1  -7 1934.61   51.59
  -2   1   7 1912.91   52.49
  -2  -1  -7 1954.50   51.99
  -2   1   7 1845.62   48.40
  -2  -1   7 1880.81   51.79
  -2   1  -7 1932.21   54.59
  -2   1  -7 1967.10   50.49
   2   1   7 1925.81   55.29
  -2   1  -7 1919.61   49.20
  -2   1  -7 1828.52   49.20
   2  -1  -7 1928.61   51.99
  -3   1   7 1530.95   39.70
   3  -1   7 1541.35   45.80
   3  -1   7 1447.76   42.90
  -3   1   7 1578.34   44.30
  -3  -1  -7 1566.04   44.00
  -3   1   7 1558.84   40.10
   3   1  -7 1498.35   42.90
  -3  -1  -7 1524.65   42.70
  -3  -1  -7 1584.04   42.80
  -3   1  -7 1530.55   40.60
   3   1   7 1588.54   47.50
  -3   1  -7 1540.55   46.30
  -3  -1   7 1534.55   43.70
  -3   1  -7 1607.74   41.50
   3  -1  -7 1541.75   43.60
  -3   1  -7 1566.54   42.50
  -3  -1   7 1528.15   39.60
   3   1   7 1424.76   44.90
   4  -1   7 1576.24   46.40
  -4   1   7 1639.84   43.30
  -4  -1  -7 1616.94   50.49
  -4  -1  -7 1681.13   46.40
  -4   1   7 1677.33   47.80
  -4   1   7 1629.54   43.60
  -4  -1  -7 1593.74   45.80
   4   1  -7 1718.93   46.90
   4   1   7 1603.14   48.40
  -4  -1   7 1699.73   47.70
   4   1   7 1650.53   51.29
  -4   1  -7 1567.14   50.09
   4  -1  -7 1621.54   47.00
  -4   1  -7 1629.24   43.80
  -4  -1   7 1665.33   43.40
  -4   1  -7 1668.23   46.10
   5  -1   7   78.69    6.30
   5   1  -7   83.69    6.60
  -5   1   7   83.19    5.00
  -5   1   7   78.29    7.00
  -5  -1  -7   85.69    8.40
  -5  -1  -7   83.49    5.90
  -5  -1  -7   81.89    6.30
   5  -1   7   79.29    7.80
  -5   1  -7   79.99    5.20
   5   1   7   83.59    7.20
   5   1   7   89.29    8.80
  -5  -1   7   83.89    5.00
  -5   1  -7   75.89    6.10
   5  -1  -7   73.19    7.30
  -5   1  -7   77.69    8.10
  -5  -1   7   80.79    6.80
  -6  -1  -7  310.27   18.50
  -6   1   7  351.96   13.30
  -6   1   7  349.27   16.60
  -6  -1  -7  347.77   14.60
   6   1  -7  319.07   15.20
   6  -1  -7  345.97   15.90
  -6   1  -7  366.96   19.10
  -6  -1   7  364.26   16.70
  -6   1  -7  358.86   13.50
  -6  -1   7  341.07   13.30
  -7  -1  -7  200.58   10.80
  -7   1   7  196.28   12.50
  -7  -1  -7  189.28   15.00
  -7   1  -7  202.18   15.20
  -7  -1   7  193.58   12.60
  -7   1  -7  201.38   10.10
  -7  -1   7  202.18   10.30
  -8   1   7  190.28   13.00
  -8  -1  -7  204.78   16.30
  -8  -1  -7  202.38   11.40
  -8  -1   7  206.78   13.60
  -8   1  -7  209.38   10.90
  -8   1  -7  195.68   15.70
  -9   1   7  106.39   10.50
  -9  -1  -7   98.49   14.00
  -9  -1  -7  138.99    9.90
  -9  -1   7  125.79   11.30
  -9   1  -7  127.69   13.20
  -9   1  -7  125.49    8.80
 -10  -1  -7  127.29   14.20
 -10   1   7  110.99   11.30
 -10  -1  -7  114.49    9.60
 -10   1  -7  109.19   13.20
 -10   1  -7  132.19    9.60
 -10  -1   7   97.49   10.80
 -11  -1  -7    5.40    6.30
 -11  -1  -7    0.50    3.80
 -11   1  -7    2.20    5.00
 -11   1  -7    4.50    3.30
 -11  -1   7   -8.00    2.90
   0  -2  -7 7298.87  177.48
   0   2   7 7177.88  176.68
   0   2   7 7210.98  180.58
   0   2  -7 7201.98  176.38
   0  -2  -7 7070.99  181.78
   0   2  -7 6849.91  181.38
  -1  -2  -7  824.52   23.70
   1   2  -7  843.22   23.40
  -1   2   7  856.31   25.90
   1   2  -7  824.82   21.30
  -1  -2  -7  812.32   25.10
  -1   2   7  828.92   23.80
  -1  -2  -7  803.52   27.10
  -1  -2  -7  756.82   26.00
   1  -2  -7  778.02   25.00
   1   2   7  852.21   23.40
   1  -2  -7  865.81   22.30
  -1   2  -7  834.42   21.80
   1   2   7  846.92   26.90
  -1  -2   7  843.02   24.00
  -1   2  -7  837.32   23.00
  -1   2  -7  861.61   21.50
   1  -2  -7  840.32   27.00
  -1   2  -7  813.92   26.80
   1   2   7  806.52   27.80
  -2   2   7  680.23   20.80
  -2  -2  -7  717.93   25.30
  -2  -2  -7  738.93   22.20
   2  -2   7  736.43   24.40
  -2  -2  -7  738.83   23.90
  -2   2   7  700.03   23.50
   2   2  -7  765.52   22.10
   2   2  -7  753.12   19.30
  -2  -2  -7  750.82   23.70
  -2  -2   7  761.82   22.70
   2   2   7  730.73   26.20
   2  -2  -7  750.32   23.40
  -2  -2   7  683.83   19.70
   2   2   7  767.82   22.10
  -2   2  -7  745.43   25.00
   3   2  -7   83.19    5.40
  -3  -2  -7   84.09    5.40
  -3  -2  -7   68.59    5.40
  -3   2   7   76.79    5.90
   3  -2   7   74.09    4.80
  -3  -2  -7   64.09    6.50
   3  -2   7  100.69    6.90
  -3  -2  -7   67.29    6.40
  -3   2   7   82.99    4.50
  -3   2  -7   76.89    3.40
  -3  -2   7   82.29    5.70
  -3   2  -7   79.49    3.60
  -3   2  -7   75.29    6.50
   3   2   7   77.29    6.70
   3   2   7   82.59    5.40
   3  -2  -7   82.29    5.80
   3   2   7   73.19    7.20
  -3  -2   7   78.69    3.90
   4  -2   7  116.39    6.80
  -4  -2  -7  127.89    9.70
  -4  -2  -7  133.59    7.50
  -4   2   7  134.59    6.40
  -4  -2  -7  131.69    7.70
  -4   2   7  123.19    8.10
   4  -2   7  133.19    8.80
   4   2  -7  128.19    7.50
  -4   2  -7  130.79    5.50
   4   2   7  134.89    7.70
  -4   2  -7  135.89    9.50
   4   2   7  125.09    8.60
  -4  -2   7  119.59    7.90
  -4   2  -7  122.59    7.20
   4  -2  -7  127.59    7.90
  -4  -2   7  133.69    6.00
   4   2   7  130.89   10.40
   5  -2   7  283.37   14.10
  -5   2   7  308.87   14.10
  -5  -2  -7  291.87   12.90
   5   2  -7  274.37   12.80
  -5  -2  -7  265.07   15.70
   5  -2   7  308.87   17.50
  -5   2   7  278.47   11.20
  -5   2   7  279.87   10.80
  -5  -2  -7  278.57   12.80
   5  -2  -7  307.87   17.00
  -5  -2   7  291.27   13.90
  -5   2  -7  272.67   15.20
  -5  -2   7  286.97   11.00
  -6   2   7 2257.07   62.99
  -6   2   7 2091.69   58.09
  -6  -2  -7 2101.29   67.39
   6  -2   7 2131.99   64.19
  -6  -2  -7 2161.18   60.49
  -6   2  -7 2080.29   65.89
  -6  -2   7 2164.58   58.29
  -6  -2   7 2131.49   62.59
  -6   2  -7 2164.78   57.39
  -7  -2  -7  158.98   13.60
  -7   2   7  155.48   11.20
  -7  -2  -7  167.68   10.10
  -7   2   7  134.79    8.30
  -7  -2   7  168.08   11.50
  -7   2  -7  139.59   12.40
  -7   2  -7  157.28    8.40
  -8   2   7  294.97   16.70
  -8   2  -7  324.47   20.10
  -8  -2   7  320.87   17.50
  -8   2  -7  309.67   13.50
  -9   2   7   71.09    9.00
  -9  -2  -7   92.39   12.00
  -9  -2  -7   70.99    7.50
  -9   2  -7   76.89   14.00
  -9  -2   7   80.59    9.40
  -9   2  -7   76.99    6.80
 -10  -2  -7    4.90    3.20
 -10   2   7    6.60    4.10
 -10  -2  -7    4.90    5.40
 -10   2  -7    5.60    3.00
 -10  -2   7    4.40    4.50
 -10   2  -7   -4.20    4.20
 -11   2   7   22.20    6.40
 -11  -2  -7   10.30    4.40
 -11   2  -7   16.20    4.60
 -11   2  -7   12.20    6.70
 -11  -2   7   25.00    6.80
   0   3  -7    1.40    0.70
   0   3   7    2.70    1.00
   0  -3  -7   -0.10    1.50
   0   3   7   -0.60    1.20
   0  -3  -7    1.20    1.30
   0   3  -7   -0.80    0.80
   0  -3  -7    2.70    1.50
  -1   3   7   42.90    4.50
   1  -3   7   46.70    2.50
  -1  -3  -7   49.30    4.50
   1   3  -7   44.00    3.00
  -1   3   7   44.90    3.30
  -1  -3  -7   43.50    3.60
  -1  -3  -7   40.80    4.80
  -1  -3  -7   38.10    4.50
   1   3  -7   44.80    2.90
   1  -3  -7   46.60    4.30
  -1  -3   7   45.30    2.80
   1   3   7   45.80    3.50
  -1   3  -7   46.40    3.20
   1  -3  -7   42.90    4.50
  -1   3  -7   46.00    4.80
   1   3   7   39.50    5.00
   1  -3  -7   49.90    3.40
  -1  -3   7   46.00    3.40
  -2  -3  -7  868.41   25.50
  -2  -3  -7  887.81   27.80
  -2   3   7  841.52   27.00
   2   3  -7  853.51   23.00
  -2   3   7  806.62   24.90
  -2  -3  -7  848.72   27.60
   2   3  -7  852.41   24.70
  -2   3  -7  830.12   27.60
  -2  -3   7  857.51   25.40
   2   3   7  833.42   29.50
   2   3   7  837.02   25.30
   2  -3  -7  833.42   26.60
  -2  -3   7  845.02   23.80
  -2   3  -7  850.11   24.80
  -3  -3  -7  277.47   13.50
  -3  -3  -7  294.47   14.50
  -3   3   7  294.07   13.10
  -3   3   7  299.77   11.10
   3   3  -7  302.17   10.00
  -3  -3  -7  317.27   12.20
   3   3  -7  298.67   11.70
   3  -3   7  276.37   10.10
   3  -3   7  294.57   12.90
  -3  -3  -7  303.27   13.30
   3   3   7  256.57   14.00
   3  -3  -7  289.27   12.70
  -3  -3   7  309.67   12.50
   3   3   7  305.27   12.10
  -3  -3   7  304.97   10.60
  -3   3  -7  294.87   13.70
  -4   3   7  413.76   17.50
  -4  -3  -7  389.76   18.30
   4  -3   7  394.46   16.10
   4   3  -7  387.86   13.00
  -4  -3  -7  372.16   15.50
   4  -3   7  362.96   13.40
   4   3  -7  373.46   14.80
  -4   3   7  380.56   13.60
  -4   3  -7  383.86   11.20
  -4  -3   7  400.46   13.20
   4   3   7  397.76   15.50
  -4  -3   7  373.46   15.60
   4   3   7  362.36   17.30
   4  -3  -7  364.56   15.50
   4   3   7  372.36   19.20
  -4   3  -7  373.36   16.90
  -5   3   7   12.90    2.80
  -5  -3  -7   14.70    3.50
  -5  -3  -7   15.50    3.50
   5  -3   7   14.00    3.70
  -5  -3  -7   13.70    4.00
   5   3  -7   16.20    3.50
  -5   3   7   11.50    3.30
   5  -3   7   12.10    2.90
   5   3   7   12.30    3.10
   5  -3  -7   13.20    3.30
  -5  -3   7   13.10    3.20
  -5  -3   7   19.40    3.00
  -5   3  -7   16.40    2.30
  -5   3  -7   14.70    4.40
  -6   3   7   32.10    4.60
  -6   3   7   43.30    6.60
  -6  -3  -7   38.80   10.60
   6  -3   7   42.40    6.40
   6  -3   7   46.20    5.70
  -6  -3  -7   40.60    5.70
   6   3  -7   52.39    5.80
  -6  -3   7   38.20    4.50
  -6   3  -7   42.90    7.50
  -6  -3   7   45.80    6.70
  -6   3  -7   41.40    3.80
   6   3   7   52.19    6.70
  -7   3   7    7.10    3.40
  -7   3   7    4.20    2.90
  -7  -3  -7    8.70    4.20
  -7  -3  -7    3.90    2.80
  -7   3   7    4.40    2.60
  -7  -3   7   10.10    4.00
  -7  -3   7    7.90    2.80
  -7   3  -7    5.30    2.00
  -7   3  -7   14.70    5.40
  -8   3   7  125.19   19.80
  -8  -3  -7  112.49   12.30
  -8  -3  -7  117.79    9.30
  -8   3   7  121.99    8.90
  -8   3  -7  108.59   11.40
  -8  -3   7  113.99   10.50
  -8   3  -7  124.59    7.70
  -9   3   7   18.60    5.40
  -9  -3  -7   22.60    7.20
  -9  -3  -7   21.30    4.80
  -9   3  -7   21.10    6.70
  -9  -3   7   14.90    4.90
  -9   3  -7   18.80    3.80
 -10  -3  -7   19.50    7.30
 -10  -3  -7   21.50    5.50
 -10   3   7   25.20    6.10
 -10   3  -7   31.30    5.20
 -10   3  -7   35.70    8.30
 -10  -3   7   22.70    6.20
 -11  -3  -7    7.00    4.00
 -11  -3   7    0.70    4.50
 -11   3  -7    8.40    3.60
 -11   3  -7    1.00    5.10
   0  -4  -7 9417.86  240.18
   0   4  -7 9586.94  237.18
   0   4   7 9357.96  237.18
   0  -4   7 9569.64  234.78
   0  -4  -7 9414.96  239.68
   0   4   7 9694.73  240.88
   0  -4  -7 9580.74  238.18
   1   4  -7 1133.19   30.60
  -1  -4  -7 1111.39   35.20
  -1  -4  -7 1151.78   34.90
  -1   4   7 1107.49   34.60
  -1   4   7 1146.59   32.70
   1   4  -7 1158.58   31.90
  -1  -4  -7 1138.49   32.90
   1   4   7 1127.09   36.70
   1  -4  -7 1159.28   32.40
  -1  -4   7 1143.09   31.40
   1  -4  -7 1138.89   34.60
  -1   4  -7 1151.48   31.80
  -1  -4   7 1156.98   31.50
   1   4   7 1132.39   32.50
   1  -4  -7 1053.89   34.00
  -1   4  -7 1105.59   34.40
  -2  -4  -7 1452.35   44.50
  -2   4   7 1466.95   42.10
  -2  -4  -7 1500.15   45.10
  -2  -4  -7 1496.95   44.70
  -2  -4  -7 1496.55   42.00
   2   4  -7 1489.85   40.60
  -2   4   7 1453.95   43.40
   2   4  -7 1513.35   40.00
   2   4   7 1497.15   42.00
   2  -4  -7 1487.95   43.70
  -2   4  -7 1423.86   40.90
   2  -4  -7 1489.05   43.50
  -2  -4   7 1542.35   41.60
   2  -4  -7 1520.65   40.50
  -2   4  -7 1507.25   43.80
   2   4   7 1475.85   50.39
  -3  -4  -7   66.59    6.70
  -3   4   7   61.19    4.80
  -3  -4  -7   59.79    5.00
  -3   4   7   52.69    5.30
   3   4  -7   62.09    4.00
   3   4  -7   63.89    5.60
  -3  -4  -7   57.49    5.80
  -3  -4  -7   41.00    5.30
   3  -4   7   59.59    5.10
  -3  -4   7   59.59    4.20
   3   4   7   53.09    6.20
  -3   4  -7   65.09    5.80
   3   4   7   56.49    6.80
  -3   4  -7   59.19    4.70
   3   4   7   58.89    5.00
  -3  -4   7   62.79    5.20
   3  -4  -7   59.89    5.50
  -4   4   7  546.05   20.80
  -4  -4  -7  561.54   21.10
  -4   4   7  522.45   18.30
  -4  -4  -7  549.65   23.20
   4  -4   7  519.35   16.90
   4   4  -7  529.65   19.00
   4   4  -7  586.14   17.90
   4  -4   7  528.05   19.70
  -4  -4   7  563.34   18.00
   4   4   7  551.14   19.90
  -4  -4   7  548.85   20.30
   4  -4  -7  536.35   22.50
   4   4   7  556.14   25.10
  -4   4  -7  517.15   21.00
   5   4  -7  354.16   15.10
   5   4  -7  353.06   13.60
   5  -4   7  370.16   16.00
  -5   4   7  378.06   16.60
  -5   4   7  366.26   14.30
  -5  -4  -7  366.76   19.20
  -5  -4  -7  364.76   16.30
  -5   4  -7  361.16   11.30
   5  -4  -7  326.97   15.60
  -5  -4   7  342.97   16.00
  -5  -4   7  345.07   13.40
   5   4   7  353.16   15.60
  -6   4   7 2712.33   74.29
  -6   4   7 2784.82   77.79
   6   4  -7 2742.33   74.29
   6  -4   7 2530.15   74.29
  -6  -4  -7 2744.63   83.49
  -6  -4  -7 2838.32   77.39
   6  -4   7 2871.11   77.89
   6   4  -7 2506.75   78.69
  -6  -4   7 2735.13   73.79
  -6   4  -7 2853.31   80.69
  -6   4  -7 2810.02   71.09
  -6  -4   7 2719.03   78.09
   6   4   7 2802.92   77.19
  -7  -4  -7  277.77   18.90
  -7   4   7  276.47   13.30
   7   4  -7  253.57   17.40
  -7   4   7  260.87   14.90
  -7  -4  -7  285.77   14.90
   7   4   7  296.87   15.30
  -7  -4   7  272.07   12.60
  -7   4  -7  283.57   17.00
  -7  -4   7  286.47   15.80
  -7   4  -7  291.07   11.40
  -8   4   7  257.97   13.30
  -8   4   7  236.28   14.70
  -8  -4  -7  239.98   14.10
  -8  -4  -7  237.48   18.00
  -8   4  -7  254.47   11.20
  -8   4  -7  252.57   16.80
  -8  -4   7  236.38   15.30
  -9   4   7   51.69    8.00
  -9  -4  -7   55.59   10.70
  -9   4   7   56.19    6.90
  -9  -4  -7   65.19    7.80
  -9   4  -7   57.59    5.70
  -9  -4   7   55.09    9.00
  -9   4  -7   53.99    9.60
 -10  -4  -7    5.40    4.00
 -10  -4  -7    4.70    5.20
 -10   4   7    9.00    4.50
 -10   4   7    8.80    4.20
 -10  -4   7    3.10    3.90
 -10   4  -7   11.40    5.90
 -10   4  -7    3.30    2.80
 -11   4   7   17.90    5.70
 -11  -4  -7   24.70    7.70
 -11  -4  -7   10.10    4.10
 -11   4   7   14.40    5.40
 -11  -4   7   21.10    6.70
 -11   4  -7   12.60    6.40
 -11   4  -7   11.90    4.00
   0  -5   7    0.50    1.20
   0   5  -7   -1.40    1.10
   0  -5  -7    3.30    1.90
   0   5   7   -2.00    1.20
   0  -5  -7    0.10    1.40
   0  -5   7    2.70    0.90
   0   5   7    2.50    1.60
   0  -5  -7    6.30    2.50
  -1  -5  -7  106.99    8.10
   1   5  -7  115.99    6.60
  -1  -5  -7  112.89    7.90
  -1   5   7  102.59    6.70
  -1  -5  -7  110.99    6.90
  -1   5   7  107.39    7.70
   1   5  -7  113.19    5.10
   1  -5  -7  107.49    6.60
  -1   5  -7  119.59    7.50
   1  -5  -7  103.09    7.40
   1   5   7  105.79    6.70
   1  -5  -7  112.89    7.40
   1   5   7  111.29    8.60
  -1  -5   7  119.89    5.70
  -1   5  -7  119.59    6.50
  -1  -5   7  104.89    6.10
  -2   5   7  117.29    7.50
  -2   5   7  128.39    8.20
  -2  -5  -7  123.39    8.70
  -2  -5  -7  126.09    7.40
  -2  -5  -7  122.19    8.60
   2   5  -7  122.99    6.50
  -2  -5  -7  108.69    8.30
   2   5  -7  116.89    6.10
  -2   5  -7  118.39    7.50
   2   5   7  122.59    7.30
  -2   5  -7  115.59    6.60
  -2  -5   7  124.39    6.90
  -2  -5   7  116.89    6.60
   2  -5  -7  131.89    6.90
   2  -5  -7  126.09    7.80
   2  -5  -7  109.49    7.70
   3   5  -7  201.68    8.90
  -3  -5  -7  210.58   12.20
  -3  -5  -7  202.08   10.20
  -3  -5  -7  208.78   11.80
  -3  -5  -7  213.18   12.20
  -3   5   7  188.58   10.60
   3   5  -7  200.98    9.30
  -3   5   7  199.48   10.10
   3   5   7  223.88   14.00
   3  -5  -7  186.48   12.20
  -3  -5   7  210.88    9.60
   3   5   7  193.28   12.70
  -3   5  -7  190.78   10.40
  -3   5  -7  213.08    9.80
  -3  -5   7  208.38   10.10
   4  -5   7   76.29    6.00
   4   5  -7   70.49    5.60
  -4  -5  -7   82.59    7.40
  -4  -5  -7   71.49    5.90
  -4   5   7   70.29    5.80
   4   5  -7   76.29    5.40
   4  -5   7   71.49    4.30
  -4   5   7   66.69    6.40
  -4  -5  -7   69.89    7.50
  -4   5  -7   76.39    6.00
  -4  -5   7   72.09    6.40
  -4   5  -7   77.69    6.80
   4  -5  -7   77.29    6.80
   4   5   7   82.89    6.70
  -4  -5   7   76.69    5.30
  -5   5   7   21.10    3.90
   5   5  -7   19.20    3.90
   5   5  -7   19.90    3.30
  -5  -5  -7   19.80    4.20
  -5  -5  -7   19.20    5.50
  -5   5   7   15.30    3.60
   5  -5   7   17.20    3.80
  -5  -5   7   18.50    3.40
  -5   5  -7   17.10    4.40
  -5   5  -7   18.70    1.90
   5   5   7   15.30    3.90
  -5  -5   7   18.90    4.50
   6  -5   7  126.49    7.90
  -6  -5  -7  143.09   12.60
   6   5  -7  132.69    8.40
  -6  -5  -7  119.79    9.50
  -6   5   7  134.59    8.90
  -6   5   7  123.29    9.90
  -6   5  -7  125.69   10.40
  -6  -5   7  142.09   10.40
  -6   5  -7  136.49    6.20
   6   5   7  127.69    9.70
  -6  -5   7  124.29    8.00
   7  -5   7   69.09    7.90
  -7   5   7   61.39    7.50
  -7  -5  -7   75.29   12.20
   7   5  -7   71.99    8.80
  -7   5   7   69.69    6.80
   7   5  -7   79.49    6.90
  -7   5  -7   75.29    8.80
  -7  -5   7   64.39    6.40
  -7  -5   7   85.69    8.90
   7   5   7   62.19    7.10
  -7   5  -7   74.29    5.10
  -8   5   7    3.70    2.90
  -8   5   7    5.00    3.50
  -8  -5  -7    2.40    3.00
  -8  -5  -7    3.00    4.90
   8   5   7    9.00    3.80
  -8   5  -7    5.00    3.60
  -8   5  -7    5.30    2.40
  -8  -5   7    2.00    3.80
  -9   5   7    7.00    3.70
  -9   5   7    6.20    3.40
  -9  -5  -7    2.70    5.10
  -9  -5  -7    3.10    3.70
  -9   5  -7    4.10    2.70
  -9  -5   7    1.70    3.70
  -9   5  -7   10.40    4.70
 -10  -5  -7    6.00    4.20
 -10  -5  -7   -4.40    4.40
 -10   5   7    3.80    3.80
 -10   5   7    2.20    3.80
 -10   5  -7   -5.40    4.80
 -10   5  -7    0.60    2.60
 -10  -5   7   -2.10    3.50
   0   6   7 3146.39   85.59
   0  -6  -7 3150.78   83.59
   0  -6  -7 3015.60   84.69
   0  -6   7 3157.48   81.89
   0   6   7 3133.09   83.29
   0  -6  -7 3043.70   85.89
   0  -6   7 2980.90   78.29
   0   6  -7 3152.58   82.69
   0  -6  -7 3072.39   86.09
   0   6   7 3054.49   85.29
  -1   6   7  300.77   13.70
  -1  -6  -7  350.26   16.10
  -1   6   7  314.57   17.70
  -1  -6  -7  314.97   14.30
  -1  -6  -7  283.37   14.50
  -1  -6  -7  313.87   13.50
   1   6  -7  319.27   10.80
   1   6  -7  287.97   12.90
   1  -6  -7  316.97   13.70
  -1   6  -7  313.07   13.40
   1   6   7  302.67   15.70
  -1  -6   7  309.37   12.70
  -1   6  -7  310.17   12.70
   1   6   7  315.27   13.60
   1  -6  -7  340.27   14.90
   1  -6  -7  312.67   13.30
  -1  -6   7  317.67   11.50
   2   6  -7   24.40    3.80
  -2  -6  -7   31.50    5.30
  -2  -6  -7   33.20    5.60
  -2  -6  -7   25.80    4.00
  -2   6   7   26.80    4.80
  -2  -6  -7   12.90    3.40
  -2   6   7   23.50    4.30
   2   6  -7   28.80    3.00
   2  -6  -7   27.40    4.80
  -2   6  -7   17.90    3.20
   2  -6  -7   21.90    3.80
   2   6   7   29.50    5.20
   2   6   7   33.80    4.80
  -2   6  -7   29.00    4.20
  -2  -6   7   22.40    3.40
   2  -6  -7   23.90    3.60
  -2  -6   7   24.30    3.60
  -3  -6  -7    3.80    2.20
  -3  -6  -7    3.20    2.30
  -3   6   7    1.60    2.20
  -3  -6  -7    0.00    1.70
   3   6  -7    4.90    2.00
  -3  -6  -7    0.40    1.80
   3   6  -7    1.90    1.30
  -3   6   7    1.10    1.80
   3  -6  -7    1.20    1.60
   3  -6  -7    1.00    1.70
   3   6   7    5.90    2.50
  -3  -6   7    1.80    1.40
  -3  -6   7    1.30    1.60
  -3   6  -7    0.70    1.50
  -3   6  -7    2.60    1.90
   3   6   7   -5.00    2.20
  -4  -6  -7   11.20    3.20
   4   6  -7   13.80    3.00
   4   6  -7   12.30    2.90
   4  -6   7   14.70    2.10
  -4   6   7   15.20    3.70
  -4  -6  -7   16.70    4.40
  -4  -6  -7    7.50    3.30
  -4   6   7    9.40    2.90
  -4   6  -7   13.90    3.40
   4   6   7    9.90    3.50
  -4   6  -7   14.90    3.50
  -4  -6   7   12.90    3.00
  -4  -6   7   12.40    3.60
  -5   6   7   78.39    7.00
  -5  -6  -7   83.69    9.40
   5   6  -7   90.89    7.20
  -5  -6  -7   89.89    8.30
   5   6  -7   86.09    6.80
   5  -6   7   82.19    6.60
   5  -6   7   79.79    5.30
  -5   6   7   90.89    8.10
  -5  -6   7   93.49    8.20
  -5  -6   7   98.19    6.80
   5   6   7   89.99    7.90
  -5   6  -7   90.59    8.00
  -5   6  -7   77.89    7.00
   6   6  -7  860.71   29.00
  -6  -6  -7  893.61   32.60
  -6   6   7  886.51   29.70
  -6  -6  -7  888.21   36.50
  -6   6   7  871.51   31.60
  -6   6  -7  852.41   30.10
  -6   6  -7  938.51   33.40
   6   6   7  848.72   31.30
  -6  -6   7  846.52   28.60
  -6   6  -7  900.71   24.70
  -6  -6   7  902.01   32.50
  -7  -6  -7  100.19    9.40
  -7  -6  -7  101.89   11.10
   7   6  -7   87.39    7.50
  -7   6   7   75.39    7.40
   7  -6   7   84.49    7.80
   7   6  -7   82.19    9.40
  -7   6  -7   97.49    5.70
  -7   6  -7   79.49    8.00
  -7   6  -7  105.49    9.50
  -7  -6   7   97.69    9.40
  -8   6   7   12.40    3.70
  -8  -6  -7   13.30    5.10
  -8  -6  -7   11.80    4.20
   8   6  -7   12.90    4.00
  -8   6   7   12.30    4.70
  -8   6  -7    5.40    3.60
   8   6   7   11.20    4.50
  -8  -6   7   14.50    4.90
  -8   6  -7   11.50    2.70
  -9   6   7    0.10    3.00
  -9   6   7   -3.70    2.70
  -9  -6  -7   -4.90    4.30
  -9  -6  -7    3.90    3.30
  -9   6  -7   -0.40    2.50
  -9  -6   7   -0.60    3.90
  -9   6  -7    5.80    3.90
   9   6   7    1.30    3.10
 -10   6   7   17.30    7.10
 -10  -6  -7    2.50    6.00
 -10  -6  -7    7.40    4.30
 -10   6   7    4.80    4.20
 -10   6  -7    9.30    3.40
 -10   6  -7   12.50    5.00
 -10  -6   7   13.70    6.40
   0  -7  -7    1.10    1.90
   0   7   7    3.10    2.40
   0   7  -7    1.90    1.90
   0  -7  -7    1.30    1.90
   0  -7   7   -0.50    1.60
   0  -7  -7   -0.20    1.80
   0  -7   7    0.50    1.00
   0   7   7    2.40    2.00
   0  -7  -7   -1.20    1.50
  -1  -7  -7   37.20    5.40
  -1   7   7   40.00    5.90
  -1  -7  -7   39.90    4.70
   1  -7   7   33.60    4.20
  -1   7   7   41.80    6.30
   1   7  -7   44.10    5.00
  -1  -7  -7   39.10    6.40
   1   7  -7   34.10    3.10
   1  -7  -7   38.00    4.70
  -1   7  -7   32.50    4.60
  -1   7  -7   41.20    4.60
  -1  -7   7   49.30    4.00
   1  -7  -7   47.10    8.50
   1  -7  -7   47.40    5.20
  -1  -7   7   36.20    4.30
  -2   7   7   79.99    7.20
  -2  -7  -7   79.29    7.70
  -2   7   7   95.99    8.00
  -2  -7  -7   74.09    7.00
   2   7  -7   84.29    5.40
   2   7  -7   84.29    6.70
  -2  -7  -7   67.19    9.60
  -2   7  -7   85.39    7.50
  -2  -7   7   85.39    6.00
   2  -7  -7   91.99    6.80
   2   7   7   70.49    7.70
   2   7   7   81.49    7.00
   2  -7  -7   87.19    6.60
  -2  -7   7   86.29    6.60
  -2   7  -7   83.49    6.20
   2  -7  -7   82.49    7.40
  -3   7   7  513.45   21.00
   3   7  -7  518.15   18.50
  -3  -7  -7  516.75   22.40
  -3  -7  -7  520.55   22.10
  -3  -7  -7  512.25   25.60
   3   7  -7  539.45   19.70
  -3   7   7  552.14   24.40
  -3  -7  -7  509.65   20.10
  -3  -7   7  515.05   19.70
  -3   7  -7  515.15   19.10
   3  -7  -7  530.05   19.50
   3   7   7  522.35   20.80
  -3  -7   7  542.85   20.00
  -3   7  -7  533.45   19.50
  -4   7   7  215.28   11.80
   4   7  -7  200.38   10.60
   4   7  -7  218.58   11.10
  -4   7   7  226.58   12.60
  -4  -7  -7  207.58   13.20
   4  -7   7  214.08    8.00
  -4  -7  -7  210.88   13.70
  -4  -7  -7  198.68   13.60
  -4  -7   7  200.78   11.60
  -4   7  -7  221.38   11.30
   4   7   7  208.98   12.10
  -4   7  -7  215.28   11.20
   4  -7  -7  229.48   11.50
  -4  -7   7  220.08   11.00
  -5   7   7    5.00    2.50
  -5   7   7    4.30    3.00
  -5  -7  -7    8.60    4.20
  -5  -7  -7   11.20    4.10
   5  -7   7    6.20    2.50
  -5  -7   7    4.80    2.80
  -5   7  -7    5.10    3.00
   5   7   7   22.80    4.60
  -5   7  -7   10.00    3.30
  -6   7   7   76.29    8.00
   6  -7   7   69.29    6.10
  -6   7   7   59.49    6.60
   6   7  -7   59.49    6.50
  -6  -7  -7   65.19    8.10
  -6  -7  -7   50.89    9.00
  -6   7  -7   80.59    4.20
  -6  -7   7   53.29    7.50
   6   7   7   60.49    7.40
  -6   7  -7   49.90    6.90
  -6  -7   7   65.09    6.50
  -6   7  -7   56.99    7.10
   7   7  -7   97.29   11.10
  -7  -7  -7  106.09   10.20
   7  -7   7  113.19   12.70
  -7   7   7   96.79    9.30
  -7   7   7   93.69    8.30
   7   7  -7   75.19    7.50
  -7  -7  -7   95.39   11.60
  -7  -7   7   91.19    9.40
  -7   7  -7   93.99    8.80
  -7   7  -7   95.79    8.90
  -7   7  -7   86.89    5.30
   7   7   7   85.39    9.00
  -8   7   7    2.60    3.20
  -8   7   7    1.00    3.30
   8   7  -7    6.90    3.60
  -8  -7  -7   -1.50    3.40
  -8  -7  -7   -1.20    2.80
  -8   7  -7   -0.40    1.80
  -8  -7   7   -0.60    3.00
  -8   7  -7    6.30    3.60
  -8   7  -7   -6.10    2.70
   8   7   7   -1.10    3.80
  -9   7   7   41.80    7.20
  -9  -7  -7   29.70    7.50
  -9   7   7   34.60    7.30
  -9  -7  -7   28.00    6.60
  -9  -7   7   36.50    8.20
  -9   7  -7   27.50    5.60
  -9   7  -7   24.80    5.90
  -9   7  -7   31.60    6.90
   9   7   7   27.40    6.70
 -10   7   7   33.70    9.20
 -10  -7  -7   45.40    8.40
 -10  -7  -7   35.30    9.30
 -10   7   7   49.50    8.10
 -10  -7   7   32.90    7.70
 -10   7  -7   38.80    6.80
 -10   7  -7   40.80    5.50
   0   8   7  563.44   22.80
   0  -8   7  553.24   21.20
   0  -8  -7  540.35   22.90
   0  -8  -7  598.34   24.00
   0  -8  -7  571.14   21.00
   0   8   7  519.05   22.40
   0   8  -7  572.04   22.10
   1  -8   7   24.30    2.50
  -1   8   7   27.20    5.20
   1  -8   7   28.10    5.20
  -1  -8  -7   25.30    4.40
  -1  -8  -7   28.30    4.80
  -1  -8  -7   38.00    6.60
  -1   8   7   32.60    5.80
  -1  -8  -7   22.70    5.00
   1   8  -7   28.10    4.90
   1  -8   7   22.40    2.60
   1   8  -7   28.50    3.10
  -1  -8   7   27.00    4.50
   1   8   7   35.10    5.60
   1  -8  -7   26.80    4.60
   1  -8  -7   32.20    5.50
   1  -8  -7   21.90    4.60
  -1   8  -7   26.10    4.50
  -1  -8   7   31.10    4.10
   1   8   7   24.30    5.10
  -1   8  -7   24.20    3.80
  -2  -8  -7  668.63   26.50
  -2   8   7  647.04   24.90
   2   8  -7  650.73   24.00
  -2  -8  -7  654.63   26.50
   2   8  -7  630.84   21.00
  -2  -8  -7  622.54   23.60
  -2  -8  -7  673.73   25.00
  -2   8   7  655.13   25.20
   2  -8  -7  623.04   26.00
  -2  -8   7  666.03   23.60
   2   8   7  600.44   26.20
  -2   8  -7  623.74   21.60
  -2   8  -7  626.64   22.80
  -2  -8   7  620.04   22.10
   2   8   7  648.64   24.80
   3   8  -7   83.49    6.20
  -3  -8  -7   83.09    8.50
  -3  -8  -7   66.49    8.10
  -3   8   7   79.09    7.80
  -3   8   7   74.69    7.30
  -3  -8  -7   63.99    7.50
   3   8  -7   95.39    8.90
  -3   8  -7   84.69    6.20
   3  -8  -7   76.39    7.50
  -3  -8   7   79.29    6.80
   3   8   7   60.19    6.70
  -3  -8   7   81.89    7.10
   3  -8  -7   71.59    6.60
  -3   8  -7   71.79    6.60
   4   8  -7  192.08   10.70
  -4  -8  -7  219.58   13.90
   4   8  -7  204.78   11.50
  -4   8   7  203.68   12.30
  -4  -8  -7  207.98   13.90
  -4   8   7  203.48   12.30
   4  -8   7  199.28    7.80
   4  -8  -7  206.18   11.00
  -4   8  -7  202.38   11.50
   4   8   7  210.48   12.80
  -4  -8   7  194.68   12.00
  -4   8  -7  210.68   10.60
  -5   8   7   12.50    4.20
  -5  -8  -7    7.90    3.80
   5   8  -7    9.90    3.00
  -5  -8  -7   17.20    4.80
   5   8  -7    7.10    3.10
  -5   8   7    8.10    3.40
   5  -8   7    6.70    2.10
  -5   8  -7    5.30    3.10
  -5  -8   7   13.80    3.20
   5   8   7    9.90    3.90
  -5  -8   7    8.40    3.50
  -5   8  -7   15.40    3.80
  -6   8   7  113.39    9.30
   6  -8   7  106.29    7.40
  -6  -8  -7  111.49   12.00
   6   8  -7  112.09   10.20
  -6   8   7  120.29   11.00
  -6  -8  -7  112.49   10.60
   6   8  -7  108.49    8.80
  -6   8  -7   93.59    8.00
  -6  -8   7  102.59    9.80
  -6   8  -7  116.69    9.40
   6   8   7  103.09   11.40
  -7   8   7   -1.00    2.70
  -7   8   7    0.60    2.70
   7   8  -7   -1.50    2.70
  -7  -8  -7    1.90    3.20
  -7  -8  -7   -2.00    3.20
   7  -8   7   -5.20    2.60
  -7   8  -7    0.20    3.20
  -7  -8   7    4.60    3.90
  -7   8  -7   -3.90    3.70
   7   8   7    7.20    4.30
  -7   8  -7   -1.30    1.40
   8   8  -7  150.08   11.70
  -8  -8  -7  177.48   16.20
  -8   8   7  163.48   12.80
   8  -8   7  163.68   11.10
  -8   8   7  170.38   14.10
  -8  -8  -7  169.18   13.70
  -8   8  -7  164.38   11.30
  -8   8  -7  168.88   12.50
  -8   8  -7  177.08    8.40
  -8  -8   7  183.68   14.40
   8   8   7  146.69   12.90
   9   8  -7   49.90    7.80
  -9   8   7   59.79    9.30
  -9  -8  -7   43.00    9.00
  -9   8   7   73.39    8.40
  -9  -8  -7   65.79   10.50
  -9   8  -7   69.79    9.40
  -9  -8   7   58.49   10.20
   9   8   7   54.39    9.40
  -9   8  -7   59.99    7.50
  -9   8  -7   55.59    7.80
 -10   8   7    5.00    4.00
 -10  -8  -7    4.10    4.90
 -10   8   7    3.50    4.10
 -10  -8  -7   -0.10    5.60
  10   8   7    3.20    4.50
 -10   8  -7    6.30    5.10
 -10   8  -7   -2.20    3.60
 -10  -8   7    2.80    5.00
 -10   8  -7    6.60    2.90
   0  -9  -7   -0.10    1.90
   0  -9   7    3.20    2.70
   0  -9  -7    0.70    2.10
   0   9   7   -5.90    2.10
   0   9   7    7.20    3.70
   0  -9  -7   -1.10    2.00
   0   9  -7   -1.70    2.10
   1   9  -7   25.40    5.20
  -1   9   7   27.00    5.30
   1  -9   7   37.60    3.70
   1  -9   7   23.50    4.80
  -1  -9  -7   36.30    6.30
  -1  -9  -7   29.00    5.00
  -1   9   7   38.30    6.60
   1  -9   7   40.10    3.50
  -1   9  -7   32.10    5.50
   1   9   7   39.40    6.60
  -1   9  -7   31.30    4.10
   1  -9  -7   42.90    6.30
   1  -9  -7   32.50    4.80
   1   9   7   27.90    5.60
  -1  -9   7   33.60    4.80
   2   9  -7  105.79    8.90
  -2  -9  -7  105.79    9.80
   2  -9   7  118.59    5.90
   2  -9   7  114.89    5.40
  -2  -9  -7  106.39    8.80
  -2   9   7  123.99    9.80
  -2   9   7  127.89   10.10
   2   9  -7  112.99    7.10
   2  -9  -7  101.89    7.50
  -2  -9   7  104.39    7.60
  -2   9  -7  114.89    8.60
   2   9   7  109.49    9.60
   2  -9  -7  109.69    8.60
  -2   9  -7  110.19    7.00
  -2  -9   7  131.39    9.30
  -3  -9  -7  114.29   10.40
   3   9  -7  121.79    8.20
  -3   9   7  134.59   10.60
   3   9  -7  130.89    9.70
   3  -9   7  124.19    5.60
   3  -9   7  146.79    6.40
  -3  -9  -7  120.99   10.10
  -3   9   7  138.19   10.30
  -3  -9   7  108.99    8.40
   3  -9  -7  120.59    8.20
  -3   9  -7  119.99    7.40
  -3  -9   7  134.09    9.30
   3   9   7  120.79   10.00
  -3   9  -7  124.39    9.00
  -4   9   7  237.78   14.20
   4   9  -7  215.28   11.70
  -4  -9  -7  214.58   14.50
  -4  -9  -7  230.68   14.90
   4   9  -7  238.98   13.30
  -4   9   7  227.78   13.60
   4  -9   7  212.38    8.70
  -4  -9   7  199.88   12.80
  -4  -9   7  234.38   12.70
   4  -9  -7  243.68   11.90
  -4   9  -7  210.98   12.30
   4   9   7  219.48   13.90
  -4   9  -7  225.68   10.70
  -5   9   7   20.30    5.70
  -5   9   7   19.80    4.90
  -5  -9  -7   21.90    5.90
   5  -9   7   12.30    2.70
   5   9  -7   16.50    3.90
   5   9  -7   14.50    4.40
  -5   9  -7   17.80    3.90
  -5  -9   7   19.60    5.30
   5   9   7   11.70    4.10
   5  -9  -7   19.00    4.20
  -5   9  -7   12.90    4.10
  -6   9   7   45.50    7.30
   6   9  -7   30.00    5.50
  -6  -9  -7   42.20    8.60
  -6   9   7   37.30    6.20
   6   9  -7   28.40    5.70
  -6  -9  -7   24.10    6.10
  -6   9  -7   28.70    5.50
  -6  -9   7   33.70    7.10
   6   9   7   38.10    7.00
  -6   9  -7   30.20    5.00
  -7   9   7   11.90    4.30
   7   9  -7    2.10    3.40
  -7  -9  -7    3.90    3.70
  -7   9   7   14.40    5.30
  -7  -9  -7   12.30    5.00
  -7   9  -7    6.70    2.90
   7   9   7    4.10    4.10
  -7   9  -7    7.10    2.00
  -7   9  -7    8.20    3.70
  -7  -9   7    5.00    3.80
   8   9  -7   10.40    5.40
  -8  -9  -7   -3.30    4.40
  -8   9   7   -4.70    2.90
   8  -9   7    3.10    4.20
  -8   9   7    4.70    4.40
  -8  -9  -7   -0.30    3.70
   8   9   7    4.80    4.40
  -8   9  -7    6.50    2.40
  -8  -9   7    1.10    3.80
  -8   9  -7    7.50    3.30
  -8   9  -7    3.40    3.70
  -9   9   7   13.70    5.40
  -9  -9  -7    7.00    6.40
  -9   9   7   17.70    5.50
   9   9  -7    7.80    4.40
  -9  -9  -7   15.10    6.30
  -9   9  -7    6.70    3.50
  -9   9  -7   10.40    3.90
   9   9   7   11.60    5.80
  -9  -9   7   16.60    6.70
   0 -10   7 1361.86   40.80
   0 -10  -7 1311.87   42.60
   0  10   7 1389.56   47.00
   0 -10  -7 1520.25   47.80
   0  10   7 1366.16   45.10
   0  10  -7 1475.75   45.50
   1 -10   7   77.79    6.50
  -1 -10  -7   53.19    7.80
  -1  10   7   79.19    8.70
  -1 -10  -7   82.49    7.60
  -1  10   7   71.19    8.40
   1  10  -7   83.89    8.40
   1 -10   7   81.99    8.20
  -1 -10   7   85.59    8.20
  -1  10  -7   73.59    5.90
  -1 -10   7   71.69    6.50
   1  10   7   79.79    8.30
  -1  10  -7   82.39    8.00
   1 -10  -7   82.59    8.90
   1 -10  -7   73.29    6.70
   1  10   7   83.99    8.90
  -2 -10  -7 1104.19   39.30
  -2  10   7 1117.89   38.40
  -2  10   7 1106.09   39.00
   2 -10   7 1057.09   30.70
   2  10  -7 1119.09   38.00
  -2 -10  -7 1058.39   36.80
   2 -10   7 1046.20   31.40
   2  10  -7 1066.99   33.50
   2  10  -7 1045.30   35.10
   2  10   7 1127.79   39.20
  -2  10  -7 1118.59   32.60
  -2  10  -7 1073.19   36.20
  -2 -10   7 1054.49   35.10
  -2 -10   7 1122.49   40.00
   2 -10  -7 1015.50   33.60
  -3 -10  -7   17.90    5.00
   3 -10   7   23.40    3.20
  -3  10   7   24.00    5.90
  -3  10   7   12.30    4.20
  -3 -10  -7   20.60    5.60
   3  10  -7   11.10    4.20
  -3  10  -7   18.90    4.50
   3 -10  -7   16.40    3.80
  -3  10  -7   18.80    3.10
  -3 -10   7   14.80    4.10
   3  10   7   17.80    5.10
   4  10  -7  597.54   23.60
   4  10  -7  668.03   26.40
  -4  10   7  616.14   27.40
  -4  10   7  660.93   27.20
  -4 -10  -7  617.84   27.50
   4 -10   7  662.13   20.40
   4 -10   7  609.54   19.80
  -4 -10  -7  638.44   28.60
   4 -10  -7  674.33   23.00
  -4  10  -7  610.44   24.70
   4  10   7  660.63   27.90
  -4  10  -7  662.13   21.10
  -4 -10   7  633.94   26.00
  -5 -10  -7   47.20    8.10
   5  10  -7   47.10    6.50
   5  10  -7   53.09    7.60
  -5  10   7   50.99    7.80
  -5  10   7   52.29    7.30
  -5  10  -7   47.60    8.40
  -5  10  -7   53.69    4.90
   5 -10  -7   66.19    6.40
   5  10   7   52.49    8.10
  -6 -10  -7  466.35   24.00
   6  10  -7  458.15   21.70
  -6  10   7  442.66   21.70
  -6 -10  -7  464.05   24.80
  -6  10   7  493.05   22.60
  -6  10  -7  483.15   21.80
  -6 -10   7  489.65   23.70
   6 -10  -7  493.25   19.70
   6  10   7  437.76   23.20
  -6  10  -7  498.35   17.40
  -7 -10  -7    9.20    5.40
  -7  10   7   14.60    5.10
  -7 -10  -7   12.10    5.50
   7  10  -7    9.90    4.60
  -7  10   7   17.10    5.10
  -7  10  -7   17.80    3.50
  -7 -10   7   11.70    5.10
   7  10   7   18.20    5.60
  -7  10  -7   20.10    5.60
  -8  10   7  197.48   14.60
  -8 -10  -7  201.58   16.10
  -8 -10  -7  181.68   16.30
   8  10  -7  203.98   14.40
  -8  10   7  193.88   14.10
   8  10   7  177.68   14.70
  -8  10  -7  206.68    9.10
  -8 -10   7  187.08   16.30
  -8  10  -7  204.08   14.40
  -8  10  -7  181.38   10.10
  -9 -10  -7   37.20    7.90
  -9 -10  -7   22.70    8.00
  -9  10   7   43.60    8.10
   9  10  -7   33.00    7.40
  -9  10   7   36.40    7.20
  -9 -10   7   36.40    9.10
  -9  10  -7   34.60    5.90
   9  10   7   35.20    8.20
  -9  10  -7   33.00    6.70
   0 -11  -7    5.60    3.40
   0 -11   7    1.60    1.90
   0 -11  -7    0.60    2.20
   0  11  -7    0.10    2.70
   0  11   7   -0.30    3.00
   0  11  -7    2.10    1.90
   1 -11   7   30.00    4.00
  -1 -11  -7   38.50    7.00
   1  11  -7   31.80    6.50
  -1 -11  -7   27.30    5.30
   1  11  -7   25.10    5.10
  -1  11   7   29.90    6.50
   1 -11  -7   30.30    5.80
   1 -11  -7   27.10    5.00
  -1  11  -7   33.30    4.50
  -1  11  -7   29.00    5.90
  -1 -11   7   36.10    5.50
   1  11   7   25.60    6.00
   2  11  -7   -0.10    3.00
   2 -11   7    7.10    2.40
  -2 -11  -7    4.50    3.00
   2  11  -7    3.60    2.50
  -2 -11  -7    4.40    3.30
  -2  11   7    6.90    4.10
   2  11  -7    3.10    2.20
   2 -11   7    1.40    1.80
  -2  11   7    5.90    3.60
  -2  11  -7    0.60    2.80
  -2 -11   7    3.50    2.20
   2 -11  -7    3.00    2.40
   2  11   7   -0.60    2.70
  -2  11  -7   -0.60    1.60
   3 -11   7    6.40    2.20
  -3 -11  -7    7.60    4.10
   3  11  -7    6.80    3.80
   3  11  -7    5.00    2.70
  -3 -11  -7   -0.80    2.70
  -3  11   7    2.50    3.30
  -3  11   7    2.20    3.40
   3 -11   7    1.70    1.90
  -3 -11   7    0.10    2.80
  -3  11  -7    5.70    3.90
   3  11   7    5.20    4.50
  -3  11  -7    8.70    2.20
   3 -11  -7    4.10    2.40
  -4 -11  -7    6.20    4.10
  -4  11   7    1.40    3.80
  -4  11   7    7.50    4.10
   4 -11   7    9.40    2.50
  -4 -11  -7    5.50    4.10
   4  11  -7    6.50    3.00
   4  11  -7    8.20    4.10
   4  11   7    6.40    4.50
   4 -11  -7    6.50    3.00
  -4  11  -7    3.70    3.50
  -4 -11   7    2.10    3.30
  -4  11  -7    9.80    2.30
  -5 -11  -7   16.20    5.70
   5  11  -7   10.20    4.70
   5  11  -7   10.40    3.40
  -5  11   7    7.10    3.60
  -5  11   7    7.10    4.50
  -5 -11  -7   15.30    5.10
  -5 -11   7   10.20    4.60
   5  11   7    1.60    4.10
  -5  11  -7    5.20    3.30
   5 -11  -7   11.60    3.50
  -5  11  -7   11.70    2.10
  -6  11   7   24.90    6.00
   6  11  -7   18.40    5.60
   6  11  -7   14.80    4.60
  -6  11   7   27.40    6.50
  -6 -11  -7   22.90    6.70
  -6  11  -7   21.10    5.60
   6  11   7   15.00    4.90
   6 -11  -7   17.60    4.40
  -6  11  -7   25.70    3.00
  -6 -11   7   24.80    6.20
   7  11  -7   27.90    6.00
  -7  11   7   24.40    6.50
  -7 -11  -7   26.10    7.50
  -7 -11  -7   28.90    7.40
  -7  11   7   28.80    6.20
  -7  11  -7   30.60    6.20
  -7 -11   7   40.40    8.30
   7 -11  -7   35.20    5.90
   7  11   7   25.10    6.80
  -8 -11  -7    5.70    5.10
  -8  11   7    7.10    7.40
  -8  11   7    2.00    4.10
   8  11  -7    4.80    4.50
   8  11   7   10.10    5.30
  -8 -11   7   -3.20    7.40
   8 -11  -7   -5.90    3.10
   0  12  -7  489.95   22.70
   0  12  -7  441.56   17.40
   0 -12   7  457.25   19.10
   0 -12  -7  476.45   20.00
   0 -12  -7  524.35   24.10
   0  12   7  444.56   23.40
  -1 -12  -7   25.50    5.30
   1  12  -7   20.50    5.90
  -1 -12  -7   27.70    6.00
  -1  12   7   27.60    6.60
   1 -12   7   26.50    4.40
  -1  12  -7   24.30    3.70
   1 -12  -7   24.90    6.10
  -1  12  -7   18.10    3.30
  -1  12  -7   28.30    6.20
   1 -12  -7   30.20    5.00
  -1 -12   7   31.80    5.50
   1  12   7   12.90    5.30
   2  12  -7  361.56   16.80
   2  12  -7  348.47   19.40
  -2  12   7  399.06   21.00
  -2  12   7  347.47   19.20
  -2 -12  -7  365.06   18.30
  -2  12  -7  366.76   13.00
  -2  12  -7  325.27   12.10
   2  12   7  331.27   22.70
   2 -12  -7  352.56   15.40
  -2 -12   7  353.06   17.30
  -2  12  -7  332.67   18.30
  -3  12   7    2.40    4.10
   3  12  -7    2.00    3.70
  -3 -12  -7   10.50    4.80
  -3  12   7    9.50    4.20
  -3 -12  -7    9.90    4.00
   3 -12   7    9.30    2.40
   3  12  -7    4.20    2.80
  -3  12  -7    6.60    1.50
  -3  12  -7    9.20    2.60
  -3 -12   7    5.30    3.30
   3  12   7   11.50    4.40
   3 -12  -7   12.50    3.40
   4 -12   7  314.97   12.80
  -4 -12  -7  296.47   18.80
   4  12  -7  267.27   14.80
  -4  12   7  279.37   16.90
  -4 -12  -7  247.98   19.30
   4  12  -7  263.87   17.10
   4  12   7  295.87   18.90
   4 -12  -7  296.87   13.40
  -4 -12   7  290.37   17.30
  -4  12  -7  286.07   16.40
   5 -12   7    4.70    2.20
  -5  12   7   -4.90    2.90
  -5  12   7    2.60    3.50
  -5 -12  -7   -3.20    2.90
  -5 -12  -7   -1.20    3.70
   5  12  -7    3.10    3.10
   5  12  -7   -2.20    3.60
   5  12   7    0.50    3.80
   5 -12  -7   -0.40    2.50
  -5  12  -7    2.40    3.30
  -5 -12   7   -1.00    3.80
  -6 -12  -7  178.28   15.10
  -6  12   7  143.09   12.60
   6  12  -7  179.48   12.30
   6  12  -7  169.28   13.60
  -6  12   7  152.28   13.20
  -6 -12  -7  135.39   13.60
  -6 -12   7  144.19   13.70
   6  12   7  163.78   14.80
  -6  12  -7  167.08   12.90
   6 -12  -7  183.58   10.50
  -7 -12  -7   22.40    6.20
  -7  12   7   21.40    7.50
   7  12  -7   17.30    6.10
  -7  12   7   22.50    6.30
  -7 -12  -7   19.50    6.90
   7  12   7    8.90    6.30
  -7 -12   7    5.90    4.80
   7 -12  -7   16.50    4.40
  -7  12  -7   12.00    4.90
  -8  12   7   30.00    7.00
  -8  12   7   35.30    7.30
  -8 -12  -7   32.20    7.90
   8  12  -7   43.90    8.70
  -8 -12  -7   21.90    8.50
   8 -12  -7   35.30    6.00
   8  12   7   28.80    8.30
  -8 -12   7   26.00    7.90
  -8  12  -7   29.80    6.90
   0  13   7   -1.00    3.20
   0 -13  -7   -2.90    3.90
   0  13  -7   -3.50    3.20
   0 -13  -7   -4.10    2.30
  -1 -13  -7   13.10    4.50
   1  13  -7    7.50    4.70
  -1  13   7    4.70    4.20
  -1 -13  -7    5.10    3.50
   1  13  -7   10.90    3.70
   1 -13   7   10.50    3.20
  -1  13  -7    6.40    2.40
   1  13   7    5.60    4.70
  -1 -13   7   12.20    4.00
  -1  13  -7   12.80    5.90
   1 -13  -7    6.20    3.30
  -1  13  -7    9.80    2.60
   2  13  -7    8.40    4.30
  -2  13   7    5.50    4.50
   2  13  -7    6.10    5.00
  -2 -13  -7   -0.70    2.80
  -2 -13  -7    3.50    3.70
  -2  13  -7    4.20    1.70
  -2 -13   7    2.10    3.30
  -2  13  -7    1.30    1.50
   2  13   7    7.70    5.10
  -2  13  -7    7.20    3.90
   2 -13  -7    6.00    2.80
   2 -13  -7   -0.90    5.90
  -3  13   7   55.09    8.60
   3  13  -7   55.49    6.80
   3  13  -7   59.19    9.30
  -3 -13  -7   79.69   11.00
  -3 -13  -7   69.19    8.60
  -3  13   7   44.20    8.50
  -3  13  -7   46.90    7.80
  -3 -13   7   59.99    8.90
   3 -13  -7   53.99    6.00
   3  13   7   52.49    9.50
  -4  13   7   11.90    5.00
  -4  13   7   20.70    6.10
   4  13  -7   34.50    7.50
   4  13  -7   25.80    5.30
  -4 -13  -7   11.50    5.20
   4 -13   7   28.20    5.30
  -4 -13  -7   25.30    6.70
  -4  13  -7   21.70    6.00
   4  13   7   23.30    7.50
  -4 -13   7   21.20    6.10
  -5  13   7   10.30    5.40
   5  13  -7    1.60    4.00
   5  13  -7    1.60    2.90
  -5 -13  -7    0.60    4.60
  -5  13   7    3.50    4.20
  -5 -13  -7    1.60    3.60
   5  13   7    2.40    4.90
   5 -13  -7    2.90    4.80
  -5  13  -7    3.90    4.50
  -5 -13   7    3.30    4.20
  -6 -13  -7   56.59    9.60
  -6  13   7   42.80    8.60
   6  13  -7   48.30    9.10
  -6  13   7   32.80    9.10
  -6 -13  -7   43.80    9.00
  -6 -13   7   57.49    9.70
   6 -13  -7   45.40    6.00
   6  13   7   43.40    9.20
  -6  13  -7   52.39    8.30
  -7 -13  -7   33.80   11.90
  -7  13   7   26.70    6.60
   7  13  -7   17.40    7.00
  -7 -13  -7   30.50    8.20
  -7  13   7   30.00    7.20
  -7 -13   7   34.20    8.90
   7 -13  -7   27.90    5.40
   7  13   7   42.80    9.90
   0  14  -7   45.40    8.30
   0  14   7   36.90    8.30
   0  14  -7   56.19    5.50
   0 -14  -7   39.90    6.30
   0 -14  -7   30.50    6.20
   0 -14   7   39.40    6.20
  -1 -14  -7   15.40    5.10
   1 -14   7   17.10    4.30
   1  14  -7   23.40    4.50
  -1 -14  -7   15.10    5.00
  -1  14   7   12.00    5.90
   1  14  -7    8.60    4.90
  -1  14  -7    9.10    2.50
   1  14   7   16.20    5.70
  -1 -14   7   17.60    4.90
   1 -14  -7    9.80    4.20
  -1  14  -7   12.20    5.30
  -1  14  -7   14.10    3.00
   1 -14  -7   25.90    7.00
   2  14  -7   11.50    5.60
  -2 -14  -7    5.30    4.80
   2 -14   7   13.20    4.00
  -2 -14  -7    8.70    4.30
  -2  14   7   14.90    5.40
  -2 -14   7   13.30    5.40
  -2  14  -7    3.60    4.50
   2 -14  -7    9.80    3.60
   2  14   7    4.40    4.50
   2 -14  -7   17.90    6.40
  -3  14   7   12.20    5.70
   3  14  -7    3.70    4.70
  -3 -14  -7   11.30    5.40
  -3 -14  -7    1.40    4.30
  -3  14  -7    6.30    4.90
   3  14   7    4.00    5.50
   3 -14  -7   10.00    3.90
  -3 -14   7   13.60    5.40
  -4 -14  -7    2.80    3.90
  -4 -14  -7   13.50    5.10
   4  14  -7    0.70    5.40
  -4  14   7   -2.10    4.60
  -4  14   7   -0.40    3.40
   4  14  -7    2.80    3.20
  -4  14  -7    7.00    4.10
   4 -14  -7   -0.20    3.10
   4  14   7    7.00    5.20
  -4 -14   7    1.90    4.40
  -5  14   7    8.90    6.00
  -5 -14  -7   18.50    6.80
  -5 -14  -7    9.90    5.30
   5  14  -7   25.50    7.10
  -5  14   7   13.80    8.20
   5 -14  -7   17.60    3.50
   5  14   7   16.60    6.90
  -5  14  -7   21.60    5.80
  -5 -14   7   18.00    6.60
   6  14  -7   23.30    6.80
  -6 -14  -7   10.00    5.60
  -6 -14  -7    7.30    4.70
  -6  14   7   11.40    5.10
  -6  14   7   12.00    5.30
   6  14   7   12.50    7.10
  -6 -14   7    8.50    6.80
   6 -14  -7    4.20    3.50
  -6  14  -7   18.70    6.20
   0 -15  -7   -1.00    3.80
   0 -15   7    4.60    3.60
   0  15  -7   -0.60    2.30
   0  15   7   -0.30    4.80
   0  15  -7    0.70    2.60
   0 -15  -7    7.60    4.60
   0  15  -7    0.00    4.20
  -1  15   7    3.20    5.20
  -1 -15  -7    5.30    4.40
  -1 -15  -7    4.40    4.40
   1  15  -7    2.60    3.30
   1  15  -7    2.20    4.80
   1 -15  -7    5.00    4.70
  -1 -15   7   -1.30    3.70
   1 -15  -7    6.00    3.70
  -1  15  -7    4.40    4.20
  -1  15  -7    5.30    1.90
   1  15   7    9.00    5.50
  -2 -15  -7   20.10    5.90
   2  15  -7    8.80    5.20
  -2  15   7   16.70    6.40
  -2 -15  -7   15.40    5.70
   2 -15   7   30.00    5.50
   2 -15  -7   24.00    7.50
   2  15   7   14.90    6.70
  -2  15  -7   19.70    6.30
   2 -15  -7   23.90    4.70
  -2 -15   7   16.30    6.00
  -3  15   7    4.50    5.30
  -3 -15  -7   24.60    6.50
   3  15  -7   10.20    5.40
   3 -15   7   15.20    4.40
  -3 -15  -7    2.80    4.60
   3  15   7    9.40    6.60
  -3 -15   7   16.70    5.50
  -3  15  -7   16.10    5.70
   3 -15  -7   13.20    6.10
   4  15  -7   -2.40    5.00
  -4 -15  -7    2.40    4.40
  -4  15   7    8.10    4.80
  -4 -15  -7    7.40    4.70
  -4  15   7    6.90    6.80
   4 -15  -7   -2.00    2.80
  -4  15  -7    2.00    4.40
  -4 -15   7   -1.20    4.90
  -5  15   7    2.10    4.30
  -5 -15  -7    8.90    5.10
  -5 -15  -7   -3.00    4.30
   5  15  -7   -2.80    4.80
  -5  15   7    3.00    4.50
   5 -15  -7    0.90    3.00
  -5  15  -7    6.30    5.10
   5  15   7   -3.80    5.50
  -5 -15   7    1.80    5.20
   0  16   7  543.85   29.60
   0  16  -7  515.35   18.60
   0 -16  -7  583.14   28.10
   0  16  -7  556.04   27.60
   0 -16   7  595.64   25.10
   0 -16  -7  506.85   22.70
  -1 -16  -7   22.70    6.30
  -1 -16  -7   32.20    7.80
   1 -16   7   20.60    6.20
   1  16  -7   19.00    6.60
  -1  16   7   28.00    8.80
  -1  16  -7   23.20    6.90
   1 -16  -7   37.10    8.10
   1  16   7   32.00    8.00
  -1 -16   7   22.70    6.40
   1 -16  -7   26.20    5.20
  -2 -16  -7  186.28   14.00
  -2  16   7  152.98   15.50
  -2 -16  -7  206.88   16.40
   2  16  -7  171.48   15.60
  -2 -16   7  170.98   14.90
  -2  16  -7  181.08   15.00
   2 -16  -7  203.68   16.30
   2 -16  -7  191.78   11.80
   3  16  -7   23.30    7.80
  -3 -16  -7   14.00    5.20
  -3  16   7   11.20    5.90
  -3 -16  -7   19.70    6.40
  -3  16  -7   10.10    9.00
   3 -16  -7    7.30    3.80
   3 -16  -7   12.00    5.40
  -3 -16   7    7.50    6.30
   0 -17  -7   -1.80    4.30
   0 -17  -7    7.40    4.60
   0  17   7   -6.90    5.80
   0   0   8 1809.42   49.90
   0   0  -8 1848.42   53.09
   0   0  -8 1817.32   48.70
   0   0  -8 1869.81   46.30
  -1   0  -8  852.41   24.20
  -1   0  -8  815.62   28.10
  -1   0  -8  885.01   23.50
  -1   0  -8  826.72   25.50
   1   0   8  850.01   26.20
  -1   0   8  834.12   25.70
   1   0  -8  872.71   25.10
  -2   0  -8 1345.27   38.00
   2   0  -8 1412.66   39.50
  -2   0  -8 1390.96   38.70
  -2   0  -8 1452.25   38.50
  -2   0  -8 1377.56   46.00
   2   0   8 1434.76   45.30
  -2   0   8 1434.06   40.30
   3   0   8    9.80    2.80
   3   0  -8   10.20    2.30
  -3   0   8   10.50    1.30
  -3   0  -8    4.90    2.60
  -3   0  -8    7.60    1.90
  -3   0  -8    9.80    2.10
  -3   0   8    9.40    2.50
  -3   0   8   13.30    1.20
  -4   0  -8 1312.27   37.00
  -4   0  -8 1251.17   37.00
  -4   0   8 1298.07   38.60
  -4   0   8 1265.87   33.40
  -4   0  -8 1228.18   37.20
   4   0   8 1169.58   39.20
   4   0   8 1230.78   41.00
  -4   0  -8 1233.58   41.00
   4   0  -8 1234.18   37.40
   5   0   8  361.76   16.70
  -5   0  -8  400.46   14.60
  -5   0   8  395.36   13.30
   5   0  -8  412.26   16.70
  -5   0  -8  402.96   19.80
  -5   0   8  399.56   17.30
  -5   0  -8  391.56   15.90
   6   0  -8  468.55   19.40
  -6   0   8  482.25   20.40
  -6   0  -8  437.16   22.50
  -6   0   8  489.85   16.50
  -6   0  -8  480.55   17.30
  -7   0  -8   69.89    9.20
  -7   0  -8   71.69    6.10
  -7   0   8   77.09    8.10
  -8   0  -8   46.50    5.50
  -8   0   8   45.80    5.40
  -8   0   8   39.70    7.00
  -8   0  -8   37.10    8.50
  -9   0  -8    5.80    2.60
  -9   0  -8   -0.90    4.60
  -9   0   8    2.00    3.70
 -10   0  -8   65.59   11.60
 -10   0  -8   55.49    7.00
 -10   0   8   56.19    8.80
 -11   0  -8   19.60    8.40
 -11   0  -8   26.50    7.00
   0   1  -8    1.60    1.70
   0   1   8    1.50    1.40
   0   1  -8    0.80    0.50
   0   1  -8    1.10    0.90
   0  -1  -8    1.20    1.00
   0  -1   8    1.10    1.10
   0  -1  -8   -0.40    0.50
   0   1  -8   -0.40    0.50
   0  -1  -8    4.30    2.20
  -1  -1  -8  985.40   29.80
   1   1  -8 1071.29   29.70
  -1   1   8 1060.39   31.50
  -1  -1  -8 1031.30   31.60
   1  -1   8 1076.59   30.50
  -1  -1  -8 1069.59   30.20
  -1   1  -8 1044.00   29.40
   1   1   8 1020.00   32.00
  -1  -1   8 1050.59   30.50
  -1   1  -8 1091.79   28.50
  -1   1  -8 1085.49   28.50
  -1   1  -8 1071.79   33.60
  -2   1   8  205.68    9.80
   2   1  -8  201.78    8.80
  -2  -1  -8  193.68    9.20
  -2  -1  -8  204.88    8.90
  -2  -1  -8  208.48   11.40
   2  -1   8  190.48   10.70
  -2  -1  -8  210.18    8.50
   2  -1  -8  198.48    9.30
  -2  -1   8  209.58    9.40
  -2   1  -8  211.38    8.30
   2   1   8  192.18   11.40
  -2   1  -8  217.38   11.70
  -2   1  -8  204.68    7.60
  -2   1  -8  206.68    7.30
  -3   1   8   36.90    4.30
   3  -1   8   32.60    3.80
  -3  -1  -8   46.50    4.00
   3  -1   8   29.80    4.70
   3   1  -8   46.60    4.20
  -3   1   8   45.60    3.00
  -3  -1  -8   45.50    4.30
  -3   1   8   42.00    2.30
  -3  -1  -8   44.70    4.20
  -3  -1  -8   41.50    6.20
   3   1   8   51.69    5.90
  -3  -1   8   43.50    4.50
  -3   1  -8   45.20    3.80
  -3   1  -8   43.70    3.10
   3   1   8   34.00    5.50
  -3   1  -8   45.60    3.10
  -3   1  -8   37.80    5.70
   3  -1  -8   44.90    4.40
  -3  -1   8   42.70    2.30
  -4   1   8   11.90    2.10
  -4   1   8   13.40    3.20
   4   1  -8   18.30    3.40
  -4  -1  -8   10.90    3.80
  -4  -1  -8   14.10    2.80
  -4   1   8   11.40    2.00
   4  -1   8    8.10    2.60
  -4  -1  -8   13.70    3.10
   4  -1   8   14.90    3.80
  -4  -1  -8   11.40    2.50
  -4   1  -8   12.00    4.00
   4  -1  -8    5.60    2.20
  -4  -1   8    9.50    3.00
  -4   1  -8   12.70    2.50
   4   1   8    8.90    3.50
  -4   1  -8    8.80    2.50
  -4   1  -8   12.40    2.10
  -4  -1   8   10.10    1.70
   4   1   8   18.40    4.00
   5   1  -8  265.67   12.70
  -5   1   8  258.07   10.30
  -5  -1  -8  260.57   11.60
   5  -1   8  249.68   12.80
   5  -1   8  276.77   15.40
  -5   1   8  268.27   10.10
  -5  -1  -8  277.17   12.60
  -5   1   8  271.37   13.60
  -5  -1  -8  246.48   15.20
  -5  -1   8  267.37   13.60
  -5   1  -8  260.77   12.10
   5  -1  -8  270.47   14.90
  -5   1  -8  278.07   15.80
  -5   1  -8  265.07   10.40
  -5  -1   8  275.57   10.20
   6   1  -8   21.70    4.00
  -6  -1  -8   24.80    6.20
  -6  -1  -8   24.90    4.10
  -6   1   8   34.30    5.80
  -6   1   8   24.30    3.40
  -6   1  -8   26.90    6.30
  -6  -1   8   23.60    3.40
   6  -1  -8   23.10    4.40
  -6  -1   8   23.60    4.60
  -6   1  -8   26.30    3.60
  -7  -1  -8  196.18   15.60
  -7   1   8  200.98   11.30
  -7  -1  -8  198.78   10.80
  -7   1   8  205.48   13.10
  -7  -1   8  196.58   12.70
  -7   1  -8  163.98   13.90
  -7   1  -8  206.08   10.10
  -8  -1  -8   51.09    9.90
  -8   1   8   56.59    7.90
  -8  -1   8   61.89    6.20
  -8  -1   8   73.89    8.60
  -8   1  -8   56.69    9.90
  -8   1  -8   66.09    6.00
  -9  -1  -8    5.70    5.30
  -9   1   8   -1.90    3.00
  -9  -1  -8   -1.80    2.10
  -9   1  -8    7.90    5.10
  -9   1  -8    2.60    2.40
  -9  -1   8    1.00    3.30
 -10  -1  -8   21.00    7.50
 -10  -1  -8   13.90    4.10
 -10   1   8    6.90    4.90
 -10   1  -8   11.90    6.20
 -10  -1   8   11.50    4.80
 -10   1  -8   14.50    4.10
 -11   1   8    6.70    5.20
 -11  -1  -8    0.70    3.70
 -11  -1  -8    2.80    6.50
 -11   1  -8    5.00    3.50
 -11   1  -8   16.00    6.50
 -11  -1   8   -4.10    5.30
   0  -2   8  785.82   22.80
   0  -2  -8  786.52   22.50
   0   2   8  804.22   21.60
   0   2  -8  788.62   26.80
   0   2  -8  781.02   21.60
   0   2   8  806.02   25.60
   0  -2  -8  762.52   24.20
  -1  -2  -8  492.95   19.90
  -1  -2  -8  513.65   17.40
  -1  -2  -8  520.65   16.00
  -1   2   8  533.45   18.40
  -1  -2  -8  452.75   18.20
   1   2  -8  531.45   15.80
   1   2   8  511.65   15.50
   1  -2  -8  527.95   17.70
  -1   2  -8  506.95   19.50
   1  -2  -8  511.35   14.20
  -1   2  -8  523.65   14.10
  -1   2  -8  513.75   15.20
   1  -2  -8  450.15   24.80
   1   2   8  518.05   19.20
  -1  -2   8  500.45   16.40
  -1   2  -8  512.05   14.60
  -2  -2  -8  292.77   11.10
   2   2  -8  306.37   11.10
  -2  -2  -8  277.77   13.80
  -2   2   8  283.27   12.50
  -2  -2  -8  299.57   12.90
  -2  -2  -8  289.17   12.00
  -2   2  -8  290.47    8.50
   2   2   8  294.87   10.90
  -2   2  -8  293.57   13.80
  -2   2  -8  281.17   10.50
   2  -2  -8  291.97   12.20
   2   2   8  328.27   21.60
  -2  -2   8  273.17   11.40
   3  -2   8    4.30    1.60
  -3  -2  -8    5.50    2.50
  -3   2   8    5.70    1.50
   3  -2   8   -0.40    1.80
  -3   2   8    7.00    2.40
  -3  -2  -8    6.10    1.80
  -3  -2  -8   -0.70    1.60
  -3  -2  -8    4.90    2.10
   3   2  -8    0.80    1.20
  -3  -2   8    2.00    1.00
   3  -2  -8    3.40    1.70
  -3   2  -8    3.10    1.60
  -3   2  -8    4.10    0.90
  -3   2  -8    4.40    1.00
  -3  -2   8    2.70    1.60
   3   2   8    0.90    3.00
   3   2   8    4.60    1.80
  -4   2   8  309.37   10.90
   4   2  -8  304.87   12.80
   4  -2   8  287.67   12.30
  -4  -2  -8  304.57   15.90
  -4  -2  -8  293.07   13.80
  -4  -2  -8  289.47   12.70
  -4   2   8  301.87   14.00
  -4  -2  -8  292.37   14.10
  -4   2  -8  304.87   15.30
  -4   2  -8  300.37   12.30
   4   2   8  257.97   14.40
  -4  -2   8  287.77   11.80
  -4   2  -8  296.37    9.70
   4  -2  -8  265.57   12.90
  -4  -2   8  289.87   13.30
  -4   2  -8  310.07   10.60
  -5  -2  -8  318.57   14.10
  -5  -2  -8  347.27   18.10
   5   2  -8  312.97   14.10
  -5   2   8  335.17   12.40
  -5   2   8  328.67   15.50
  -5  -2  -8  321.27   14.00
   5  -2   8  327.77   16.30
  -5   2   8  328.77   11.90
   5  -2   8  302.17   13.70
  -5  -2   8  322.07   15.20
   5  -2  -8  329.47   15.20
  -5   2  -8  329.17   17.30
  -5   2  -8  333.57   11.50
  -5   2  -8  312.47   13.70
  -5  -2   8  328.47   11.80
  -6   2   8  220.18   10.20
  -6  -2  -8  226.48   11.50
  -6   2   8  237.78   13.30
  -6  -2  -8  221.28   15.30
  -6   2   8  209.38    9.80
  -6  -2   8  226.08   13.10
  -6   2  -8  219.28    9.30
  -6   2  -8  225.88   14.90
  -6  -2   8  210.08    9.70
  -7   2   8   92.29    9.00
  -7  -2  -8   93.09   10.90
  -7  -2  -8  101.69    8.00
  -7   2   8   91.59    7.00
  -7   2  -8  101.79   11.10
  -7  -2   8  104.79    9.50
  -7  -2   8   95.99    8.00
  -7   2  -8   97.69    6.50
  -8   2   8    7.40    4.10
  -8  -2  -8    9.50    5.00
  -8  -2  -8    7.00    3.20
  -8   2  -8   16.20    5.60
  -8   2  -8    8.50    2.80
  -8  -2   8    7.70    4.20
  -9  -2  -8    0.10    3.50
  -9   2   8   -3.60    2.60
  -9  -2  -8   -2.00    2.20
  -9   2  -8    7.50    5.10
  -9   2  -8    3.20    2.30
  -9  -2   8   -1.90    3.30
 -10  -2  -8   19.60    5.10
 -10   2   8   15.70    5.20
 -10  -2  -8   28.20    8.20
 -10   2  -8   20.40    4.40
 -10   2  -8   21.40    7.50
 -10  -2   8   17.40    6.10
 -11  -2  -8   43.50   15.30
 -11  -2  -8   16.80    4.80
 -11   2   8   41.80   13.10
 -11   2  -8   24.70    5.20
 -11   2  -8   18.90    7.20
 -11  -2   8   20.90    6.90
   0  -3  -8    0.70    1.60
   0   3   8   -0.20    1.30
   0   3   8    1.30    1.00
   0   3  -8   -0.10    1.00
   0  -3  -8    0.40    1.20
   0   3  -8    0.70    0.60
   0   3  -8    0.50    1.60
   0  -3  -8   -0.80    1.10
  -1  -3  -8 2584.04   69.79
  -1  -3  -8 2562.14   71.79
  -1  -3  -8 2351.36   70.79
  -1   3   8 2702.93   70.79
  -1  -3  -8 2664.23   67.89
   1   3  -8 2520.25   66.19
  -1   3   8 2609.94   66.29
   1  -3   8 2600.24   65.79
   1  -3  -8 2431.66   69.29
  -1   3  -8 2588.34   71.39
   1   3   8 2584.94   71.89
  -1  -3   8 2691.53   67.49
   1  -3  -8 2542.25   71.69
   1   3   8 2634.84   67.29
   1  -3  -8 2691.43   66.49
  -1   3  -8 2582.94   66.59
   1   3   8 2538.75   73.09
  -2  -3  -8  335.07   15.40
   2   3  -8  326.07   11.80
  -2  -3  -8  323.37   12.30
   2   3  -8  312.87   11.70
  -2   3   8  328.77   11.60
  -2  -3  -8  317.17   14.20
  -2   3   8  336.87   14.10
  -2  -3  -8  340.97   14.20
   2  -3  -8  311.67   13.40
  -2  -3   8  315.97   12.40
  -2  -3   8  337.17   10.30
   2   3   8  342.77   16.40
  -2   3  -8  322.07   11.80
  -2   3  -8  354.36   15.20
   2   3   8  334.17   12.40
   3  -3   8  144.79    6.50
  -3  -3  -8  138.49    9.70
  -3  -3  -8  143.19    8.90
  -3   3   8  138.49    7.10
   3   3  -8  148.39    5.80
  -3   3   8  148.99    8.90
   3  -3   8  150.38    9.10
   3   3  -8  147.59    7.70
  -3  -3  -8  144.19    9.10
   3   3   8  158.38   11.10
  -3   3  -8  148.09    9.60
   3   3   8  156.38    8.10
   3   3   8  156.68   10.60
  -3  -3   8  155.48    6.60
  -3  -3   8  153.88    8.40
   3  -3  -8  143.79    8.50
   4  -3   8   20.20    3.10
  -4  -3  -8   15.10    3.30
   4  -3   8   14.90    3.60
   4   3  -8   16.60    3.10
  -4  -3  -8   16.40    3.90
  -4  -3  -8   20.50    5.00
  -4  -3  -8   19.20    3.70
  -4   3   8   23.40    3.20
  -4   3   8   23.20    4.00
   4   3   8   13.60    3.00
  -4  -3   8   18.50    3.80
  -4   3  -8   19.00    4.30
  -4  -3   8   17.80    2.50
  -5  -3  -8 1003.10   36.80
   5   3  -8  975.90   31.50
   5  -3   8  972.70   33.30
  -5   3   8  979.00   29.40
  -5   3   8  967.00   32.90
  -5  -3  -8  995.60   32.10
  -5  -3  -8 1011.80   32.10
  -5   3  -8  993.90   26.80
  -5   3  -8  948.91   34.70
  -5   3  -8  964.10   31.00
   5   3   8  952.00   31.60
  -5  -3   8  964.10   28.60
  -5  -3   8  989.00   32.80
   5  -3  -8  986.50   32.60
  -6   3   8    2.90    1.80
  -6   3   8    1.90    2.60
  -6   3   8    2.30    1.90
   6   3  -8    0.50    1.60
  -6  -3  -8    4.30    3.70
  -6  -3  -8    4.30    2.60
  -6   3  -8    1.80    1.60
  -6  -3   8    3.80    2.60
  -6  -3   8    7.30    2.50
  -6   3  -8    3.80    3.00
  -7   3   8  602.84   21.80
  -7   3   8  635.04   25.50
  -7  -3  -8  616.14   29.80
  -7  -3  -8  598.94   23.30
  -7   3   8  573.44   20.80
  -7   3  -8  584.94   19.50
  -7   3  -8  635.14   28.60
  -7  -3   8  600.64   23.20
  -7  -3   8  638.84   25.70
  -8  -3  -8  149.59   10.70
  -8   3   8  173.58   12.70
  -8  -3  -8  180.48   15.60
  -8   3   8  164.68   10.40
  -8   3  -8  188.28   14.90
  -8  -3   8  170.68   12.90
  -8   3  -8  160.78    8.70
  -9  -3  -8   31.50    9.00
  -9   3   8   24.90    5.90
  -9  -3  -8   19.70    4.80
  -9   3   8   31.10    5.70
  -9  -3   8   40.60    7.90
  -9   3  -8   22.70    4.10
 -10  -3  -8   36.20    6.60
 -10   3   8   45.20    8.20
 -10   3   8   40.10    6.70
 -10  -3  -8   44.00    9.90
 -10   3  -8   49.20    5.80
 -10   3  -8   59.89   10.40
 -10  -3   8   42.70    8.30
   0  -4  -8  385.36   14.30
   0  -4   8  364.56   11.90
   0   4   8  384.46   13.40
   0   4   8  406.46   16.70
   0  -4  -8  366.96   15.90
   0   4  -8  393.16   13.60
   0  -4  -8  389.86   15.50
   1   4  -8    6.90    1.40
  -1  -4  -8    6.80    2.60
  -1   4   8    7.40    1.90
  -1  -4  -8    6.90    2.50
  -1   4   8    6.90    2.40
   1   4  -8    7.10    1.70
  -1  -4  -8    3.20    1.50
  -1  -4  -8    7.70    3.10
   1  -4  -8    8.10    2.00
  -1   4  -8    8.30    2.70
  -1  -4   8    6.80    1.50
   1   4   8    9.30    2.20
  -1  -4   8    5.20    1.50
   1  -4  -8    5.70    2.50
   1  -4  -8    6.00    2.20
  -1   4  -8    7.40    1.70
  -2  -4  -8  439.56   17.90
  -2  -4  -8  457.55   18.40
  -2   4   8  411.56   15.40
   2   4  -8  464.75   14.70
  -2  -4  -8  446.96   16.00
  -2  -4  -8  432.06   18.50
   2   4  -8  426.66   13.60
  -2   4   8  428.86   17.40
   2   4   8  434.76   15.70
   2  -4  -8  427.86   17.70
   2   4   8  392.86   19.20
  -2  -4   8  444.06   14.30
  -2  -4   8  451.65   15.60
  -2   4  -8  434.16   15.00
  -2   4  -8  436.26   17.70
   2  -4  -8  464.35   14.40
   2  -4  -8  423.06   16.90
   3   4  -8   15.80    2.20
  -3   4   8   14.80    3.00
   3   4  -8   12.60    2.60
  -3  -4  -8   22.50    4.50
  -3  -4  -8   12.20    3.20
  -3  -4  -8   11.50    3.80
  -3  -4  -8   17.20    3.10
  -3   4   8   15.70    4.90
  -3  -4   8   11.50    2.30
   3  -4  -8   11.30    2.50
  -3  -4   8   15.50    3.30
   3   4   8   16.20    2.90
  -3   4  -8   15.80    3.70
   3   4   8   20.80    4.80
  -3   4  -8   12.80    2.70
  -4  -4  -8  755.92   25.80
  -4  -4  -8  691.73   26.80
   4   4  -8  698.23   21.20
   4  -4   8  670.73   21.00
  -4   4   8  730.53   25.70
   4   4  -8  678.53   23.10
  -4  -4  -8  699.23   23.90
   4  -4   8  716.43   27.30
  -4   4   8  730.93   23.00
  -4  -4  -8  667.43   27.40
   4   4   8  724.43   24.30
  -4  -4   8  704.93   21.70
   4  -4  -8  688.83   24.90
  -4   4  -8  663.53   28.80
  -4  -4   8  678.33   24.40
   5   4  -8    8.70    2.30
  -5   4   8    3.50    2.00
  -5   4   8    0.60    2.20
   5   4  -8    3.40    2.30
   5  -4   8   -1.30    2.40
   5  -4   8    2.20    2.10
  -5  -4  -8    4.60    2.80
  -5  -4   8    2.80    1.80
  -5   4  -8    2.30    2.90
  -5  -4   8    3.30    2.60
   5   4   8    2.10    2.40
  -6  -4  -8  169.08   13.10
   6  -4   8  138.69    9.80
  -6   4   8  129.49   10.00
  -6   4   8  115.19    7.80
  -6  -4  -8  112.89    8.90
   6   4   8  119.19    9.00
  -6   4  -8  126.39    5.90
  -6  -4   8  116.69    9.60
  -6   4  -8  124.59   10.70
  -6  -4   8  107.69    7.00
   7   4  -8   -0.20    2.20
  -7   4   8    7.90    3.60
  -7  -4  -8   12.70    5.10
  -7  -4  -8   13.20    5.50
  -7   4   8    1.30    2.70
  -7  -4   8    2.70    2.20
  -7  -4   8    0.70    2.60
  -7   4  -8    5.80    2.00
  -7   4  -8    3.90    3.30
  -8   4   8    1.10    2.70
  -8  -4  -8   -2.10    3.50
  -8   4   8   -0.10    2.20
  -8  -4  -8    3.10    2.70
  -8  -4   8    2.90    3.70
  -8   4  -8    5.80    4.30
  -8   4  -8    0.30    1.80
  -9   4   8    9.10    4.60
  -9  -4  -8   10.30    6.10
  -9   4   8    6.30    3.80
  -9  -4  -8   15.40    4.30
  -9  -4   8    1.50    3.70
  -9   4  -8   10.70    4.90
  -9   4  -8    9.20    3.00
 -10   4   8   63.79    9.40
 -10   4   8   58.19    8.10
 -10  -4  -8   75.39    9.00
 -10  -4  -8   60.59   12.90
 -10   4  -8   65.19    6.50
 -10   4  -8   55.99   10.30
 -10  -4   8   57.19    9.10
   0  -5  -8    1.20    1.50
   0   5   8    1.10    1.50
   0   5   8    0.60    1.80
   0   5  -8   -0.80    1.20
   0  -5  -8    2.20    1.90
   0  -5  -8   -1.20    1.20
   0  -5   8    0.20    0.60
   1   5  -8 1230.08   35.50
  -1   5   8 1272.77   36.50
   1   5  -8 1257.47   33.40
  -1  -5  -8 1237.08   39.00
  -1  -5  -8 1260.67   36.80
  -1  -5  -8 1194.28   39.70
  -1   5   8 1274.77   39.00
  -1  -5  -8 1249.68   39.00
   1   5   8 1225.58   40.80
  -1  -5   8 1263.17   34.90
   1  -5  -8 1220.48   38.10
  -1   5  -8 1197.18   38.00
   1   5   8 1211.38   36.10
  -1  -5   8 1255.97   34.40
   1  -5  -8 1237.18   38.30
  -1   5  -8 1257.77   35.50
   1  -5  -8 1245.78   36.10
  -2  -5  -8    3.20    1.90
  -2  -5  -8    4.90    2.50
   2   5  -8    6.00    1.70
   2   5  -8    4.40    1.50
  -2   5   8    3.60    2.00
  -2  -5  -8    6.00    2.70
  -2  -5  -8    7.80    2.90
  -2  -5   8    2.90    1.50
  -2  -5   8    7.50    2.00
  -2   5  -8    3.80    1.80
   2   5   8    3.70    2.70
   2  -5  -8    2.80    1.60
  -2   5  -8    1.40    1.50
   2  -5  -8    3.10    1.70
   2  -5  -8    5.20    2.30
   2   5   8   14.20    2.90
  -3  -5  -8   11.00    3.40
  -3  -5  -8    7.00    2.60
  -3   5   8    8.90    2.90
  -3  -5  -8   11.80    3.50
   3   5  -8    9.10    2.20
  -3   5   8    9.70    3.00
   3   5  -8   15.90    2.60
  -3  -5  -8   10.20    3.30
   3   5   8   13.00    3.10
  -3  -5   8   10.70    2.40
  -3   5  -8    8.00    2.80
  -3  -5   8    9.00    2.60
   3  -5  -8    7.10    3.90
   4   5  -8  100.09    6.80
   4   5  -8   98.29    6.00
  -4  -5  -8   96.89    7.20
  -4   5   8   87.39    7.70
   4  -5   8  104.39    7.50
  -4  -5  -8   88.19    8.90
   4  -5   8   94.49    4.90
  -4  -5  -8  102.79    9.00
  -4   5   8  104.69    7.20
  -4  -5  -8   89.39    8.10
  -4   5  -8   93.89    8.20
   4   5   8  109.59    7.90
  -4  -5   8   93.59    6.20
  -4   5  -8   98.69    7.10
   4  -5  -8   91.49    7.60
  -4  -5   8  107.79    7.90
   5  -5   8  658.53   24.30
   5   5  -8  659.83   21.80
  -5   5   8  692.33   25.70
  -5  -5  -8  673.53   25.50
  -5   5   8  665.33   23.00
   5  -5   8  648.44   22.80
  -5  -5  -8  631.94   27.80
   5   5  -8  624.44   23.20
  -5   5  -8  717.33   26.80
  -5  -5   8  655.53   21.90
  -5   5  -8  664.93   23.80
   5   5   8  649.14   24.50
  -5  -5   8  660.03   25.10
  -6   5   8   21.20    4.00
  -6  -5  -8   13.10    4.10
   6  -5   8   15.70    4.40
  -6  -5  -8   13.90    5.20
   6   5  -8   13.30    4.80
   6   5  -8   15.90    4.20
  -6   5   8   25.30    5.60
  -6  -5   8   19.80    3.60
  -6   5  -8   20.30    5.40
  -6  -5   8   29.70    5.80
   6   5   8   15.10    4.10
  -6   5  -8   15.40    2.50
   7   5  -8  313.37   16.40
  -7  -5  -8  339.17   21.30
  -7   5   8  338.07   18.10
  -7   5   8  347.37   15.60
  -7  -5  -8  344.27   17.40
  -7   5  -8  365.06   12.40
  -7  -5   8  358.76   18.50
   7   5   8  315.27   17.30
  -7  -5   8  348.17   14.90
  -7   5  -8  333.17   19.00
  -8   5   8   29.80    5.40
  -8  -5  -8   22.90    6.70
  -8   5   8   20.50    5.00
  -8  -5  -8   24.20    5.40
  -8  -5   8   28.10    6.50
  -8   5  -8   30.40    6.90
  -8   5  -8   30.70    3.90
  -9  -5  -8    3.20    3.30
  -9   5   8    1.50    3.20
  -9   5   8    0.40    3.00
  -9  -5  -8    0.80    5.60
  -9   5  -8   -0.50    3.60
  -9  -5   8    3.60    3.50
 -10  -5  -8   22.70    6.20
 -10   5   8   42.90   13.00
 -10  -5  -8   31.90    7.90
 -10   5   8   29.10    6.40
 -10   5  -8   33.60    7.40
 -10  -5   8   29.60    7.20
 -10   5  -8   28.30    4.60
   0  -6  -8   79.89    7.10
   0  -6   8   76.29    5.50
   0   6   8   95.59   10.10
   0  -6  -8   86.79    6.50
   0  -6  -8   81.39    6.90
   0  -6   8   83.29    4.10
   0  -6  -8   96.59    8.20
   0   6   8   84.09    6.50
   0   6  -8   80.69    6.20
   1   6  -8   75.29    5.70
  -1  -6  -8   65.89    5.70
   1   6  -8   70.19    4.00
  -1  -6  -8   66.69    6.40
  -1  -6  -8   69.69    7.20
  -1   6   8   70.79    6.10
  -1  -6  -8   76.39    7.20
  -1   6   8   67.69    6.70
   1   6   8   77.69    6.10
   1  -6  -8   69.09    5.60
  -1   6  -8   72.49    5.50
   1   6   8   74.49    7.50
  -1  -6   8   66.59    4.50
  -1  -6   8   69.89    5.20
   1  -6  -8   67.29    6.30
  -1   6  -8   71.79    6.30
   1  -6  -8   70.79    6.60
  -2   6   8 1058.99   35.20
  -2   6   8 1154.18   36.80
   2   6  -8 1157.88   33.50
  -2  -6  -8 1193.28   35.60
  -2  -6  -8 1078.29   37.40
  -2  -6  -8 1063.49   37.40
  -2  -6  -8 1147.29   37.10
   2   6  -8 1141.19   32.20
  -2   6  -8 1138.79   33.70
   2  -6  -8 1189.98   35.90
   2   6   8 1106.79   39.90
  -2  -6   8 1102.89   33.70
  -2   6  -8 1100.09   35.20
   2  -6  -8 1134.29   33.80
  -2  -6   8 1142.09   33.70
   3   6  -8   -0.80    1.30
  -3  -6  -8    0.10    2.50
   3   6  -8   -0.10    1.60
  -3  -6  -8    8.80    2.70
  -3   6   8    1.70    2.00
  -3  -6  -8    2.60    2.60
  -3   6   8   -0.40    1.90
  -3  -6  -8   -0.30    1.70
  -3  -6   8   -1.40    1.40
  -3   6  -8    1.90    2.00
   3   6   8    1.30    2.10
  -3   6  -8    7.40    2.80
  -3  -6   8   -0.80    1.80
   3  -6  -8    1.90    2.50
   3  -6  -8    0.00    1.90
  -4  -6  -8 1731.03   54.49
  -4  -6  -8 1727.23   55.09
   4   6  -8 1625.44   48.70
  -4  -6  -8 1730.73   53.09
   4   6  -8 1657.53   47.80
  -4   6   8 1746.33   51.99
  -4   6   8 1715.13   50.19
   4   6   8 1650.53   50.59
  -4  -6   8 1703.23   48.70
  -4   6  -8 1768.72   51.49
  -4   6  -8 1742.93   49.70
  -4  -6   8 1701.53   50.59
  -5  -6  -8  113.89   10.60
   5  -6   8  102.89   11.30
  -5   6   8   89.39    8.40
   5   6  -8  102.59    7.10
   5   6  -8  106.19    7.80
  -5  -6  -8  109.39    9.30
  -5   6   8  103.59    7.80
   5   6   8  107.59    8.80
  -5  -6   8  105.19    8.80
  -5  -6   8  104.89    7.20
  -5   6  -8  118.19   10.20
  -5   6  -8   98.59    8.00
   6   6  -8   11.90    3.30
  -6  -6  -8   13.00    5.10
  -6   6   8    3.40    2.90
   6  -6   8    4.20    2.70
  -6  -6  -8    6.90    3.60
  -6   6   8    9.30    3.20
   6   6  -8    5.80    2.50
   6   6   8   10.40    4.00
  -6   6  -8    9.20    3.50
  -6   6  -8   21.70    5.10
  -6  -6   8   13.20    4.00
  -6  -6   8    5.60    3.10
  -7  -6  -8    5.70    4.50
  -7   6   8    1.30    3.00
  -7   6   8   -0.40    2.20
   7   6  -8   -0.10    2.30
  -7  -6  -8    1.10    2.60
   7   6  -8    4.00    2.50
  -7   6  -8   -0.40    2.80
  -7  -6   8    4.30    3.40
   7   6   8   -2.60    2.40
  -7   6  -8    1.00    1.40
  -8  -6  -8   30.70    6.10
  -8  -6  -8   27.70    7.40
  -8   6   8   33.10    5.80
  -8   6   8   30.60    6.30
  -8   6  -8   51.69    8.00
   8   6   8   28.50    6.20
  -8   6  -8   35.60    6.60
  -8  -6   8   41.20    7.60
  -8   6  -8   31.20    3.90
  -9  -6  -8    2.20    3.00
  -9   6   8    2.80    3.70
  -9  -6  -8    0.30    5.50
  -9  -6   8    2.20    3.70
  -9   6  -8   -2.40    1.90
  -9   6  -8    3.40    3.90
 -10  -6  -8  198.98   18.50
 -10  -6  -8  206.38   15.40
 -10   6   8  208.78   14.20
 -10   6   8  197.68   22.00
 -10   6  -8  198.78   15.20
 -10  -6   8  179.68   15.80
 -10   6  -8  204.08   10.60
   0  -7  -8   -0.30    2.00
   0  -7  -8   -0.40    1.90
   0   7  -8   -1.50    1.60
   0   7   8    1.20    2.40
   0  -7   8    1.40    1.10
   0  -7   8   -3.10    1.40
   0  -7  -8    0.90    1.80
   0   7   8   -0.40    1.80
  -1   7   8   17.00    4.20
  -1   7   8   20.90    4.20
   1   7  -8   24.70    4.10
  -1  -7  -8   20.80    4.30
   1   7  -8   20.00    2.60
  -1  -7  -8   15.80    4.40
  -1  -7  -8   11.10    3.30
   1  -7  -8   18.00    4.20
   1  -7  -8   18.70    3.90
  -1  -7   8   18.10    3.60
  -1   7  -8   16.00    3.60
   1   7   8   16.00    3.70
   1   7   8   20.90    4.50
  -1   7  -8   20.50    3.90
   1  -7  -8   16.40    3.60
  -1  -7   8   15.70    2.70
  -2   7   8  552.94   21.90
  -2   7   8  579.64   22.60
  -2  -7  -8  567.54   21.20
  -2  -7  -8  533.95   23.50
  -2  -7  -8  512.15   22.90
  -2  -7  -8  556.84   22.50
   2   7  -8  531.15   18.00
   2   7  -8  580.44   20.40
  -2   7  -8  541.15   20.50
  -2  -7   8  554.14   20.20
   2  -7  -8  544.55   22.30
   2  -7  -8  575.54   21.10
  -2  -7   8  548.95   19.50
   2   7   8  556.44   21.20
   2  -7  -8  545.45   20.10
  -2   7  -8  531.65   19.80
   3   7  -8  106.99    7.40
  -3  -7  -8  114.39    9.60
  -3  -7  -8  112.09    8.20
  -3   7   8  114.69    9.10
  -3  -7  -8  114.39    9.70
   3   7  -8  111.89    7.00
  -3   7   8  112.89   10.60
  -3   7  -8  113.29    7.70
   3  -7  -8  123.19    8.50
   3  -7  -8  112.79    7.70
  -3  -7   8  129.69    8.20
  -3  -7   8  108.29    7.80
   3   7   8  114.29    8.60
  -3   7  -8  119.99    8.20
   4   7  -8  237.38   11.50
  -4   7   8  241.38   13.20
  -4   7   8  250.47   13.80
  -4  -7  -8  238.48   15.10
  -4  -7  -8  227.78   14.20
   4   7  -8  214.88   11.10
  -4  -7  -8  230.08   14.90
   4   7   8  227.98   13.00
  -4   7  -8  235.08   12.10
   4  -7  -8  230.68   12.50
  -4  -7   8  234.28   11.80
  -4   7  -8  263.47   12.90
  -4  -7   8  223.98   12.50
  -5   7   8   28.40    5.80
  -5  -7  -8   24.60    6.10
   5  -7   8   21.80    3.10
  -5  -7  -8   20.60    6.10
   5   7  -8   22.80    4.30
  -5  -7  -8   14.70    4.20
   5   7  -8   32.90    4.80
  -5   7   8   20.20    4.60
  -5  -7   8   31.20    5.80
  -5  -7   8   30.20    4.70
  -5   7  -8   17.80    4.30
  -5   7  -8   27.40    5.30
   5   7   8   23.60    4.80
   6  -7   8   57.49    7.00
   6   7  -8   53.99    6.40
   6   7  -8   62.39    6.40
  -6  -7  -8   67.69    9.30
  -6   7   8   65.69    8.10
  -6  -7  -8   56.29    9.30
  -6   7   8   63.49    6.90
  -6  -7   8   65.09    7.90
   6   7   8   50.59    7.30
  -6   7  -8   57.19    7.10
  -6  -7   8   66.89    6.30
  -6   7  -8   73.39    7.60
   7  -7   8    0.60    3.00
   7   7  -8    1.00    2.60
  -7   7   8   -1.50    2.50
  -7   7   8   -0.90    2.70
  -7  -7  -8    2.00    2.90
  -7  -7  -8   -1.60    3.80
   7   7  -8    0.40    2.50
  -7   7  -8    2.00    3.20
   7   7   8   -2.40    2.60
  -7  -7   8    0.90    2.90
  -7   7  -8    3.90    2.90
  -8  -7  -8   69.89   11.20
  -8   7   8   83.39    9.50
  -8  -7  -8   92.49   10.10
   8   7  -8   81.29    8.30
  -8   7   8   92.09    8.60
  -8   7  -8   89.59    9.40
   8   7   8   81.09    9.50
  -8   7  -8   83.59    9.30
  -8   7  -8   86.99    5.50
  -8  -7   8   84.19   10.40
  -9  -7  -8   13.80    7.10
  -9   7   8   23.60    6.00
  -9  -7  -8   18.40    5.80
  -9   7   8   20.10    5.80
   9   7   8   22.30    5.90
  -9   7  -8   23.60    3.90
  -9  -7   8   24.30    7.30
  -9   7  -8   16.40    5.20
  -9   7  -8   17.50    5.20
 -10  -7  -8    1.00    5.60
 -10   7   8   -5.00    3.70
 -10  -7  -8    3.00    4.10
 -10   7   8   -3.00    4.20
 -10   7  -8    2.60    2.70
 -10  -7   8    5.10    5.30
 -10   7  -8   -5.50    4.10
 -10   7  -8    2.50    4.20
   0  -8  -8  233.38   14.00
   0   8   8  259.47   13.80
   0  -8   8  240.68   12.50
   0  -8  -8  250.27   15.00
   0  -8  -8  246.78   12.90
   0  -8  -8  272.77   15.30
   0  -8   8  248.38    9.60
   0   8  -8  283.87   13.90
   1   8  -8   83.19    7.10
  -1  -8  -8   82.09    8.50
  -1  -8  -8   78.89    7.00
  -1   8   8   71.49    7.70
  -1   8   8   71.99    7.30
  -1  -8  -8   71.19    7.90
   1   8  -8   68.59    4.50
  -1  -8  -8   71.19    7.00
   1  -8  -8   84.89    6.90
  -1   8  -8   65.29    6.40
  -1  -8   8   77.29    6.60
   1   8   8   83.69   15.00
  -1  -8   8   75.79    5.40
  -1   8  -8   70.19    6.40
   1   8   8   73.49    7.00
   1  -8  -8   67.89    7.50
  -2  -8  -8  682.73   26.60
   2   8  -8  706.73   22.60
  -2   8   8  679.03   26.80
   2   8  -8  734.33   25.60
  -2  -8  -8  710.63   28.60
  -2  -8  -8  699.73   28.30
  -2   8   8  768.22   28.00
  -2  -8  -8  713.03   26.10
  -2  -8   8  668.93   23.70
   2   8   8  692.33   26.30
  -2   8  -8  721.33   25.00
  -2  -8   8  733.23   25.40
   2  -8  -8  736.83   25.40
  -2   8  -8  710.23   24.60
  -3  -8  -8    3.10    3.00
  -3   8   8   -1.80    2.00
  -3  -8  -8   -6.20    2.50
  -3   8   8   11.20    4.10
  -3  -8  -8    3.40    3.20
   3   8  -8    1.20    1.70
   3   8  -8    1.60    2.70
   3  -8  -8    3.10    2.70
   3   8   8    3.10    2.80
  -3   8  -8    5.40    2.60
  -3  -8   8    6.20    2.40
  -3  -8   8    1.50    2.20
  -3   8  -8   -0.10    2.20
   3  -8  -8    0.50    2.20
  -4   8   8  662.33   25.70
   4   8  -8  609.74   23.00
  -4  -8  -8  624.74   26.80
   4   8  -8  611.74   22.50
  -4  -8  -8  606.84   26.60
  -4   8   8  621.34   25.10
   4  -8  -8  648.94   23.80
   4   8   8  601.74   24.90
  -4   8  -8  650.53   23.70
  -4   8  -8  647.24   23.20
  -4  -8   8  618.04   23.70
  -4  -8   8  654.33   24.80
  -5   8   8   72.59    7.60
  -5  -8  -8   61.89    9.50
   5   8  -8   79.39    7.10
  -5   8   8   78.39    8.30
   5   8  -8   63.89    6.50
  -5  -8   8   66.39    7.70
  -5  -8   8   71.09    6.70
  -5   8  -8   72.79    7.00
  -5   8  -8   66.99    6.90
   5   8   8   72.19    7.80
   5  -8  -8   79.09    7.40
  -6  -8  -8   48.10    8.60
  -6  -8  -8   64.69    9.30
   6   8  -8   45.40    6.40
   6   8  -8   50.29    7.00
  -6   8   8   40.90    7.10
  -6   8   8   57.59    6.60
  -6   8  -8   56.99    7.70
   6   8   8   41.60    6.90
  -6  -8   8   50.99    8.20
  -7  -8  -8   10.70    4.60
  -7   8   8    2.10    3.30
  -7   8   8    0.50    3.00
   7   8  -8   -1.60    2.60
  -7  -8  -8   -0.30    3.10
   7  -8   8    0.70    3.10
   7   8  -8    2.80    3.30
   7   8   8    6.20    3.90
  -7   8  -8    6.80    3.50
  -7  -8   8    4.70    3.90
  -7   8  -8    0.30    3.30
  -8   8   8   54.19    9.10
  -8  -8  -8   43.60    9.30
   8   8  -8   53.79    7.60
  -8  -8  -8   55.39    9.10
   8   8   8   39.80    7.40
  -8   8  -8   53.29    7.00
  -8   8  -8   48.70    7.80
  -8  -8   8   56.49    9.30
  -8   8  -8   55.69    4.20
  -9  -8  -8    2.70    4.20
  -9  -8  -8   -3.70    4.90
  -9   8   8    6.20    7.90
   9   8  -8    6.10    4.10
  -9   8   8    7.00    4.40
  -9  -8   8    1.20    5.30
  -9   8  -8    1.70    4.00
  -9   8  -8    6.90    4.10
  -9   8  -8    4.40    2.10
   0  -9   8    3.40    2.80
   0  -9   8    0.80    1.50
   0  -9  -8   -1.30    1.90
   0   9  -8    0.30    2.20
   0  -9  -8   -2.20    2.00
   0   9   8    1.90    2.60
   0  -9  -8   -1.70    2.40
  -1   9   8  627.14   26.60
   1  -9   8  677.43   20.00
  -1  -9  -8  726.83   28.70
   1  -9   8  671.63   25.40
  -1  -9  -8  656.03   25.40
   1  -9   8  661.43   20.00
  -1   9   8  733.73   28.10
   1   9  -8  684.83   25.90
  -1   9  -8  709.93   25.90
  -1  -9   8  643.34   22.40
   1  -9  -8  691.53   26.00
   1   9   8  701.83   27.10
  -1   9  -8  689.73   24.10
   1  -9  -8  694.33   24.80
  -2  -9  -8 1277.87   42.20
   2   9  -8 1342.07   41.70
  -2   9   8 1337.87   43.40
   2   9  -8 1271.37   37.40
  -2   9   8 1309.17   43.10
  -2  -9  -8 1359.96   44.70
  -2   9  -8 1261.67   40.30
  -2  -9   8 1223.48   38.80
  -2   9  -8 1265.47   38.70
   2   9   8 1292.87   42.70
   2  -9  -8 1241.68   39.40
   2  -9  -8 1197.48   40.60
  -3   9   8  313.07   16.70
  -3   9   8  296.47   16.10
   3   9  -8  298.27   15.00
  -3  -9  -8  291.17   16.50
   3   9  -8  290.77   13.10
  -3  -9  -8  283.47   16.90
  -3   9  -8  298.37   13.40
   3  -9  -8  303.87   14.20
   3   9   8  286.27   15.90
  -3  -9   8  308.07   14.80
  -3   9  -8  294.67   14.60
  -3  -9   8  300.07   14.80
  -4   9   8  204.48   13.30
  -4  -9  -8  186.58   14.20
   4   9  -8  203.68   11.10
   4   9  -8  198.58   12.00
  -4  -9  -8  206.78   14.30
  -4   9   8  211.18   13.50
  -4   9  -8  190.78   11.70
  -4   9  -8  195.68   10.50
  -4  -9   8  201.98   11.80
   4   9   8  177.58   12.70
  -4  -9   8  206.48   12.60
   4  -9  -8  201.78   11.40
  -5  -9  -8  161.58   15.60
  -5   9   8  184.78   12.80
   5   9  -8  170.48   11.30
   5  -9   8  170.18    7.80
   5   9  -8  163.68   10.60
  -5  -9  -8  195.78   14.00
  -5   9   8  173.48   12.20
  -5   9  -8  177.28   11.60
  -5  -9   8  177.58   12.60
   5   9   8  183.38   13.00
  -5   9  -8  180.68   10.50
   5  -9  -8  187.98   11.20
  -6  -9  -8   43.10    8.80
  -6  -9  -8   34.80    7.30
   6   9  -8   44.30    6.60
   6   9  -8   39.30    7.00
  -6   9   8   33.00    6.80
  -6   9   8   35.90    6.30
   6  -9  -8   36.50    6.10
  -6   9  -8   47.50    6.40
  -6  -9   8   46.50    8.20
  -6   9  -8   40.00    6.50
   6   9   8   44.40    7.70
   7   9  -8  253.27   14.50
  -7   9   8  253.77   15.20
  -7  -9  -8  245.58   16.80
  -7   9   8  233.88   15.40
  -7  -9  -8  229.38   17.50
   7   9   8  224.38   15.70
  -7   9  -8  247.18   15.00
  -7   9  -8  248.28   14.20
  -7  -9   8  245.08   16.60
  -8  -9  -8  370.66   21.30
   8  -9   8  355.46   16.40
  -8   9   8  367.26   19.20
  -8   9   8  359.96   20.10
  -8  -9  -8  343.97   22.70
  -8   9  -8  362.16   16.90
   8   9   8  326.67   20.10
  -8   9  -8  354.16   19.20
  -8  -9   8  366.36   22.00
   9   9  -8   25.30    6.30
  -9  -9  -8   44.30    8.40
  -9   9   8   39.20    7.50
  -9   9   8   36.80    8.20
  -9  -9  -8   44.00    9.50
  -9   9  -8   37.30    4.20
  -9  -9   8   47.40   10.00
  -9   9  -8   30.00    7.90
  -9   9  -8   34.30    6.20
   0 -10  -8  249.78   15.30
   0  10   8  219.58   14.40
   0 -10  -8  226.78   12.60
   0  10  -8  232.58   13.70
  -1  10   8   29.30    6.20
   1  10  -8   50.29    7.30
  -1  10   8   41.50    6.70
  -1 -10  -8   41.30    6.80
   1 -10   8   30.80    3.80
  -1 -10  -8   43.70    6.40
   1 -10   8   32.30    3.50
   1 -10  -8   38.30    7.20
  -1  10  -8   39.70    5.10
  -1 -10   8   31.90    5.40
  -1 -10   8   38.60    4.70
   1  10   8   38.40    7.10
   1 -10  -8   34.70    5.40
  -1  10  -8   44.50    6.60
  -2 -10  -8    1.20    3.00
  -2  10   8    8.80    3.90
   2  10  -8   11.40    4.00
  -2 -10  -8    7.40    4.30
  -2  10   8    0.60    2.30
   2  10  -8    2.20    1.90
   2  10  -8    2.50    2.40
  -2  10  -8   -2.60    2.30
   2 -10  -8    1.00    2.40
  -2 -10   8    0.20    2.10
   2  10   8   -1.90    1.90
  -2  10  -8    4.60    2.10
  -2 -10   8    1.20    2.60
  -3 -10  -8    5.10    3.10
  -3 -10  -8   16.50    4.90
  -3  10   8    4.30    3.50
   3  10  -8    0.70    2.30
   3  10  -8    7.00    4.00
  -3  10   8   12.30    4.80
   3  10   8    4.90    3.10
  -3  10  -8    4.40    3.00
   3 -10  -8    6.20    3.00
  -3  10  -8    8.00    2.80
  -3 -10   8    1.20    2.60
  -4  10   8   14.70    4.90
  -4 -10  -8   13.10    4.70
   4  10  -8   13.50    4.40
  -4  10   8   12.40    4.90
   4  10  -8    8.90    3.20
  -4 -10  -8   14.70    4.70
  -4 -10   8   12.00    4.60
  -4  10  -8   12.60    3.90
   4  10   8   14.90    4.60
   4 -10  -8    9.60    3.60
  -4  10  -8   12.30    3.10
   5 -10   8   14.60    2.80
  -5  10   8   14.70    5.00
   5  10  -8   15.40    4.50
   5  10  -8   21.30    4.60
  -5  10   8   14.20    4.50
  -5 -10  -8   19.40    5.90
  -5 -10  -8   15.70    5.90
   5 -10  -8   20.80    4.60
  -5  10  -8   21.30    4.30
  -5 -10   8   22.50    5.30
   5  10   8   19.10    5.50
  -5  10  -8   18.00    5.50
  -6 -10  -8   43.40    8.50
  -6  10   8   33.70    6.50
  -6 -10  -8   47.60    8.80
   6  10  -8   31.50    6.10
  -6  10   8   52.19    8.50
   6 -10  -8   41.70    6.30
   6  10   8   36.50    7.30
  -6 -10   8   46.10    8.10
  -6  10  -8   47.80    7.50
  -6  10  -8   40.90    5.30
  -7 -10  -8   12.60    5.50
   7  10  -8   12.90    4.90
  -7 -10  -8    8.70    5.00
  -7  10   8   11.40    4.90
  -7  10   8   14.70    5.10
  -7  10  -8   17.10    5.10
  -7 -10   8   10.60    5.50
   7 -10  -8   17.30    4.80
  -7  10  -8   17.90    4.00
   7  10   8   19.70    6.30
  -8  10   8    7.20    4.90
  -8  10   8   12.30    7.70
   8  10  -8    0.00    3.60
  -8 -10  -8    7.70    4.50
  -8  10  -8    0.80    3.20
  -8  10  -8    2.30    4.40
   8  10   8    1.70    4.60
  -8 -10   8    4.20    5.40
   0  11   8    0.50    2.80
   0  11  -8    0.40    2.70
   0 -11  -8   -1.30    2.20
   0 -11  -8    8.70    4.50
   1 -11   8  457.85   15.80
   1 -11   8  428.56   16.10
  -1  11   8  450.15   22.50
   1  11  -8  436.16   18.20
  -1 -11  -8  454.55   22.40
   1  11  -8  481.25   21.70
  -1 -11  -8  454.25   20.20
   1  11   8  451.85   22.70
   1 -11  -8  507.85   23.50
   1 -11  -8  455.85   18.90
  -1  11  -8  467.95   21.10
  -1  11  -8  431.96   17.50
  -1 -11   8  408.46   17.80
   2  11  -8  284.37   16.30
   2 -11   8  269.97   10.50
   2 -11   8  291.37   11.40
  -2 -11  -8  289.27   16.00
   2  11  -8  277.97   13.00
  -2  11   8  295.47   17.50
   2  11   8  286.27   17.30
   2 -11  -8  277.37   13.90
  -2  11  -8  271.37   15.60
  -2 -11   8  279.57   14.50
  -2  11  -8  315.47   13.00
  -3  11   8  270.97   16.80
  -3 -11  -8  317.27   18.40
  -3 -11  -8  250.67   16.00
   3  11  -8  295.17   14.00
  -3  11   8  315.67   17.90
   3  11  -8  310.87   17.10
   3 -11   8  290.07   11.10
   3 -11  -8  292.67   14.00
  -3  11  -8  307.67   12.40
  -3 -11   8  272.37   15.20
  -3  11  -8  275.87   15.40
   3  11   8  282.17   17.30
   4 -11   8   32.60    3.60
   4  11  -8   28.00    4.90
   4  11  -8   33.10    6.40
  -4 -11  -8   32.00    7.00
  -4  11   8   33.60    7.40
  -4  11   8   22.30    5.30
   4 -11   8   37.10    3.70
  -4 -11   8   26.70    6.00
  -4  11  -8   30.10    4.10
   4 -11  -8   36.80    5.60
   4  11   8   26.10    6.50
   5  11  -8  199.28   12.30
  -5  11   8  211.88   14.70
  -5 -11  -8  205.88   15.50
  -5  11   8  204.18   14.70
   5 -11   8  206.88    9.10
  -5 -11  -8  188.08   14.70
   5  11  -8  203.28   13.80
  -5  11  -8  210.88   13.50
   5  11   8  191.98   15.30
  -5  11  -8  201.58    9.50
  -5 -11   8  204.18   17.10
   5 -11  -8  208.48   11.80
   6  11  -8    6.30    4.20
  -6  11   8    6.40    4.70
  -6  11   8    7.50    4.10
  -6 -11  -8    3.40    3.70
  -6 -11  -8    7.70    4.30
   6  11  -8   15.30    4.20
  -6 -11   8   10.30    5.30
   6 -11  -8    6.20    3.70
  -6  11  -8    9.50    2.70
  -6  11  -8    2.00    3.50
   6  11   8    5.70    5.00
   7  11  -8   92.39   10.00
  -7  11   8  105.29   11.10
  -7 -11  -8  115.19   12.80
  -7 -11  -8  115.19   13.30
  -7  11   8  117.59   11.30
  -7  11  -8  112.49    7.00
   7  11   8  121.89   12.40
   7 -11  -8  122.19   10.00
  -7 -11   8  122.99   13.10
  -7  11  -8  112.49   11.00
  -8  11   8  168.18   13.50
  -8  11   8  152.48   13.40
   8  11  -8  170.98   13.20
  -8 -11  -8  181.98   15.70
   8 -11  -8  165.98   11.90
  -8  11  -8  149.79    9.20
   8  11   8  154.78   16.90
  -8  11  -8  154.68   13.60
   0 -12  -8  134.99   12.10
   0  12  -8  107.69    7.70
   0  12   8  124.89   12.10
   0 -12  -8  140.39   10.10
   0 -12   8  122.09    8.60
   0  12  -8  132.89   11.20
  -1  12   8    9.60    4.60
   1  12  -8    1.20    3.50
   1  12  -8    3.40    2.40
  -1 -12  -8    2.10    3.00
   1 -12   8    1.60    1.90
  -1 -12  -8    4.20    3.60
   1  12   8    1.20    3.60
  -1  12  -8   -3.20    2.20
   1 -12  -8    1.30    3.80
   1 -12  -8    1.00    2.70
  -1  12  -8    3.60    2.20
  -1  12  -8    3.10    3.60
  -2  12   8  484.65   23.70
  -2  12   8  440.86   23.30
   2 -12   8  445.06   16.60
   2  12  -8  475.75   22.90
  -2 -12  -8  427.36   21.10
  -2 -12  -8  512.75   24.70
  -2  12  -8  464.35   16.80
   2  12   8  456.75   27.80
   2 -12  -8  496.75   19.60
  -2  12  -8  442.66   21.50
  -2 -12   8  432.86   19.90
  -3 -12  -8    9.10    4.10
  -3 -12  -8    8.10    4.40
   3  12  -8    2.10    4.10
   3 -12   8   10.40    2.70
  -3  12   8   10.60    5.00
  -3  12   8    3.00    3.70
   3  12  -8    3.40    2.70
  -3 -12   8   14.60    4.40
  -3  12  -8    4.70    1.90
   3  12   8   12.90    4.60
  -3  12  -8    6.00    4.90
   3 -12  -8    5.40    3.20
  -4 -12  -8  667.43   30.10
  -4 -12  -8  698.03   31.30
   4  12  -8  686.93   29.30
  -4  12   8  676.43   29.30
  -4  12   8  733.93   42.30
   4 -12   8  766.32   22.20
   4  12  -8  652.93   25.80
  -4  12  -8  657.13   20.60
   4 -12  -8  676.23   24.50
   4  12   8  684.73   30.90
  -4  12  -8  634.14   27.20
  -4 -12   8  649.74   28.40
  -5  12   8   11.20    5.40
  -5  12   8    7.10    4.50
  -5 -12  -8    5.20    5.10
   5  12  -8   17.10    4.10
   5 -12   8   11.50    3.10
   5  12  -8    7.10    4.50
  -5 -12  -8    4.80    3.70
   5 -12  -8   11.00    4.10
  -5  12  -8   10.90    4.30
   5  12   8    4.10    5.00
  -5 -12   8   11.60    5.30
   6  12  -8   35.80    7.50
  -6  12   8   26.00    6.40
   6  12  -8   36.50    8.60
  -6 -12  -8   38.30    8.10
  -6  12   8   32.80    6.90
  -6 -12  -8   25.70    6.90
  -6 -12   8   40.60    8.30
   6 -12  -8   50.19    6.40
   6  12   8   50.09    9.10
  -6  12  -8   28.00    6.60
   7  12  -8    6.50    4.60
  -7  12   8    3.80    5.00
  -7 -12  -8    2.30    5.40
  -7  12   8    6.80    7.90
  -7  12  -8   -0.80    3.60
   7  12   8    0.10    4.00
   7 -12  -8   -1.90    3.30
  -7 -12   8   -0.50    4.80
   0 -13  -8   -6.10    2.80
   0  13  -8    1.60    3.80
   0  13  -8   -1.70    2.20
   0 -13   8    1.50    2.60
   0  13   8   -4.50    3.90
   0 -13  -8    2.80    3.20
  -1 -13  -8   31.80    6.10
  -1 -13  -8   24.20    6.50
  -1  13   8   22.60    7.00
   1  13  -8   29.20    5.10
   1  13  -8   30.10    7.00
  -1 -13   8   19.90    4.90
   1 -13  -8   26.40    5.20
  -1  13  -8   20.30    3.40
  -1  13  -8   28.40    4.50
   1 -13  -8   27.50    6.60
   1  13   8   32.80    7.90
  -2 -13  -8    0.90    3.20
  -2 -13  -8    1.50    3.30
  -2  13   8    0.10    4.10
   2 -13   8    7.10    2.70
   2  13  -8   -2.00    3.80
   2 -13  -8    3.40    4.40
   2 -13  -8    1.70    3.00
  -2  13  -8    2.10    1.90
  -2 -13   8   -4.10    2.30
   2  13   8    1.60    4.50
  -2  13  -8    2.30    3.80
  -2  13  -8    0.70    1.70
   3  13  -8    6.20    4.70
  -3  13   8    6.80    4.40
   3 -13   8   10.40    2.80
   3  13  -8    8.10    3.10
  -3  13   8    5.20    4.50
  -3 -13  -8    9.00    4.50
  -3  13  -8    6.70    1.80
   3  13   8    9.20    5.50
  -3  13  -8   16.50    5.40
   3 -13  -8    6.50    3.50
  -3 -13   8    5.90    4.00
  -4  13   8   -3.10    4.30
  -4 -13  -8    4.60    4.70
   4  13  -8   -2.30    2.70
   4  13  -8    0.70    4.20
  -4 -13  -8    5.30    4.30
   4 -13   8    4.70    2.50
  -4  13   8   -1.00    3.50
   4  13   8    2.00    4.10
  -4 -13   8   -6.40    3.10
  -4  13  -8    0.90    3.80
   4 -13  -8   -1.70    2.70
   5 -13   8   30.90    4.40
  -5 -13  -8   22.90    7.20
  -5  13   8   23.30    6.80
   5  13  -8   21.50    6.60
  -5 -13  -8   34.90    8.00
  -5  13   8   28.80    7.00
  -5 -13   8   23.00    7.00
  -5  13  -8   25.60    6.30
   5 -13  -8   34.90    5.60
   5  13   8   17.60    6.70
   6  13  -8    7.80    5.50
  -6  13   8   17.10    5.80
  -6 -13  -8    3.80    4.20
  -6 -13  -8    8.70    5.60
  -6 -13   8   14.00    6.30
  -6  13  -8   17.60    5.60
   6 -13  -8   13.60    4.30
   0 -14   8    7.50    3.50
   0  14  -8   10.60    3.50
   0 -14  -8    6.50    4.60
   0  14   8   -2.10    4.20
   0  14  -8    0.60    4.00
   0 -14  -8    3.60    3.10
   0  14  -8    5.10    3.00
   1  14  -8    6.50    4.60
   1  14  -8    5.80    3.40
  -1 -14  -8   -1.40    3.30
  -1  14   8   -0.30    4.00
  -1 -14  -8    4.40    4.70
   1 -14  -8    3.40    4.30
  -1  14  -8    3.80    4.10
  -1  14  -8   -0.90    2.40
  -1  14  -8    0.60    2.40
  -1 -14   8    1.70    3.50
   1 -14  -8   -0.90    3.20
   1  14   8   -4.10    4.60
   2 -14   8  342.97   15.30
  -2 -14  -8  342.17   18.90
   2  14  -8  328.97   20.10
  -2  14   8  336.77   21.20
  -2 -14  -8  340.07   20.70
  -2  14  -8  338.47   11.50
   2  14   8  312.87   21.10
   2 -14  -8  369.06   21.50
   2 -14  -8  314.47   15.70
  -2 -14   8  320.17   17.90
  -2  14  -8  312.77   18.90
   3 -14   8    5.80    2.80
  -3 -14  -8    2.10    4.20
  -3  14   8    2.80    5.00
   3  14  -8   -3.40    3.80
  -3 -14  -8    0.80    3.70
  -3  14  -8   -6.00    3.50
   3  14   8   -1.90    5.00
   3 -14  -8   -0.30    2.80
  -3 -14   8   -0.40    4.40
  -4  14   8  306.57   19.40
  -4  14   8  264.57   18.70
   4  14  -8  295.67   19.20
  -4 -14  -8  318.47   20.20
  -4 -14  -8  281.47   18.50
   4 -14  -8  297.57   14.10
   4  14   8  284.07   20.50
  -4  14  -8  283.37   17.90
  -4 -14   8  285.27   18.50
  -5 -14  -8    7.80    6.70
   5  14  -8    1.60    5.40
  -5  14   8   -3.70    3.60
  -5 -14  -8   13.40    6.10
  -5  14   8   -4.20    6.30
   5 -14  -8    1.90    3.30
  -5  14  -8    2.40    4.40
  -5 -14   8   11.50    6.10
  -6  14   8    7.40    5.20
   6  14  -8    1.30    5.10
  -6  14   8   -9.20    3.20
  -6 -14  -8    0.80    4.40
  -6 -14  -8    2.70    4.10
   6  14   8    7.40    5.80
  -6 -14   8    0.10    5.30
   0  15  -8    0.60    4.40
   0  15  -8    0.00    2.70
   0 -15   8    3.40    5.00
   0  15   8    3.30    5.30
   0 -15  -8   -3.80    3.60
   0 -15  -8    3.60    3.70
   1  15  -8  121.09   12.30
   1 -15   8  108.49    8.90
  -1 -15  -8   97.39   11.70
   1  15  -8  100.79    9.70
  -1 -15  -8   85.19   10.00
  -1  15   8  101.09   12.40
  -1  15  -8   98.19    6.10
   1 -15  -8  104.99    9.60
  -1  15  -8   82.69   10.90
  -1 -15   8   97.39    9.90
   1  15   8   77.79   12.00
   1 -15  -8   94.89   11.50
   2  15  -8  121.49   12.90
  -2  15   8  133.49   14.10
  -2 -15  -8  135.79   13.50
   2 -15  -8  116.49    9.50
  -2  15  -8   91.99   10.90
  -2 -15   8  131.99   12.10
   2  15   8  112.89   13.60
   2 -15  -8  129.09   13.10
  -3 -15  -8   21.10    6.40
  -3 -15  -8   34.80    8.50
  -3  15   8   21.90    7.20
   3  15  -8   32.80    8.10
  -3  15  -8   18.00    7.10
   3  15   8   17.70    6.90
   3 -15  -8   21.80    6.30
   3 -15  -8   16.10    4.80
  -3 -15   8   29.20    7.50
  -4  15   8   30.90    8.00
  -4 -15  -8   23.90    6.90
   4  15  -8   30.40    8.40
  -4 -15  -8   26.70    7.40
  -4  15   8   30.30    7.50
   4 -15  -8   23.70    4.90
  -4  15  -8   19.70    5.90
  -4 -15   8   21.80    7.40
   4  15   8   21.60    7.70
   0 -16  -8   20.50    6.50
   0  16  -8   22.60    7.00
   0  16  -8   19.80    4.10
   0 -16  -8   10.00    5.00
   0  16   8   18.90    7.30
   1  16  -8   -0.10    5.30
  -1  16   8    1.70    5.10
  -1 -16  -8    3.70    4.00
  -1 -16  -8   -0.30    4.40
   1 -16  -8   -0.50    4.10
   1 -16  -8   -1.50    4.00
   1  16   8    3.30    6.40
  -1  16  -8   -5.80    3.80
  -2  16   8   73.99   11.60
   2  16  -8   45.90    8.90
  -2 -16  -8   65.99    9.80
  -2 -16  -8   86.79   13.00
  -2  16  -8   66.19   10.20
  -2 -16   8   78.09   15.80
   2  16   8   64.59   12.30
   2 -16  -8   66.89   10.10
   2 -16  -8   77.89    8.50
   3  16  -8   -0.60    5.80
  -3 -16   8   -1.70    6.40
  -3  16  -8   -0.20    7.20
   3  16   8  -11.90    4.20
   0   0  -9   -0.30    1.80
   0   0  -9   -0.10    1.10
   0   0   9    1.80    1.50
   0   0  -9    0.40    0.60
   1   0  -9   -0.30    1.50
  -1   0   9    1.30    1.30
   1   0  -9    4.00    1.50
  -1   0  -9   -0.50    1.90
  -1   0  -9    0.50    0.90
  -1   0  -9    0.00    1.10
  -1   0  -9    1.00    1.00
  -2   0  -9    0.20    0.90
   2   0  -9    1.10    1.20
  -2   0  -9   -1.40    0.90
   2   0   9    1.50    1.90
  -2   0   9    1.10    1.10
  -2   0  -9    1.40    1.30
  -2   0  -9    0.30    1.70
  -3   0  -9    2.00    1.70
   3   0  -9    3.80    1.90
  -3   0  -9    0.00    1.20
  -3   0  -9   -0.40    1.70
  -3   0   9    0.50    1.50
  -3   0  -9    0.40    1.30
   3   0   9   -1.80    2.00
  -4   0  -9    0.20    1.40
  -4   0   9   -0.30    0.70
   4   0   9   -0.30    1.90
   4   0  -9    0.20    1.70
  -4   0  -9    0.10    1.20
  -4   0  -9   -0.60    1.90
  -4   0   9    2.80    2.20
  -4   0  -9   -1.20    1.50
   5   0  -9    1.80    2.10
  -5   0  -9    0.60    2.00
  -5   0   9   -1.20    1.80
  -5   0  -9    8.10    4.30
  -5   0   9   -0.40    1.10
  -5   0  -9    2.90    1.80
  -5   0  -9   -0.20    1.90
  -6   0  -9    0.00    3.00
   6   0  -9    2.70    1.90
  -6   0   9    1.30    2.70
  -6   0   9    0.40    1.50
  -6   0  -9    0.80    1.70
  -7   0   9    0.00    1.90
  -7   0  -9    1.00    1.70
  -7   0  -9    3.20    3.80
  -7   0   9   -1.60    2.30
  -8   0   9    3.90    3.40
  -8   0   9    2.70    2.40
  -8   0  -9    2.30    4.00
  -9   0  -9    2.90    2.40
  -9   0   9    2.40    3.50
  -9   0  -9   -4.50    4.30
 -10   0  -9    2.10    2.80
 -10   0   9    4.60    4.20
 -10   0  -9   -3.30    5.40
   0   1   9    0.70    1.40
   0  -1  -9   -1.00    0.80
   0  -1  -9    1.10    1.60
   0  -1   9   -0.30    1.20
   0  -1  -9   -1.20    0.60
   0   1  -9   -0.10    0.50
   0   1  -9   -1.10    1.60
   0   1  -9    1.70    0.60
   0   1  -9    2.10    1.00
   1  -1   9 1217.18   35.20
  -1  -1  -9 1204.28   38.60
  -1   1   9 1237.88   36.30
  -1  -1  -9 1184.28   34.40
   1   1  -9 1237.98   34.10
  -1  -1  -9 1156.38   36.00
   1  -1  -9 1215.28   38.70
  -1   1  -9 1260.27   32.90
   1   1   9 1206.88   36.90
  -1   1  -9 1253.47   32.70
  -1   1  -9 1185.18   33.80
   1  -1  -9 1223.88   35.10
  -1   1  -9 1205.18   38.50
  -1  -1   9 1253.67   35.30
  -2   1   9  399.66   15.60
  -2  -1  -9  396.66   13.60
  -2  -1  -9  400.76   14.20
   2   1  -9  402.56   14.30
  -2  -1  -9  383.36   17.40
   2  -1  -9  396.56   15.00
  -2   1  -9  413.16   17.80
   2   1   9  382.86   17.90
  -2   1  -9  406.16   13.50
  -2   1  -9  386.96   12.80
  -2  -1   9  394.06   15.00
  -2   1  -9  399.66   12.50
   3  -1   9 1866.81   56.99
   3   1  -9 1937.11   53.39
  -3  -1  -9 1914.51   57.69
  -3   1   9 1933.11   54.89
  -3  -1  -9 1965.70   52.69
  -3  -1  -9 1981.80   53.09
  -3  -1  -9 1930.81   53.09
  -3   1  -9 1910.31   50.29
   3   1   9 1832.22   57.89
   3  -1  -9 1937.11   53.99
  -3   1  -9 1947.91   52.39
  -3   1  -9 1945.41   57.59
  -3  -1   9 1924.51   54.39
  -3   1  -9 1904.71   50.29
  -4  -1  -9  281.27   15.90
  -4   1   9  309.97   10.40
   4  -1   9  308.67   17.80
  -4   1   9  318.87    9.90
  -4  -1  -9  319.57   14.80
  -4  -1  -9  318.87   13.60
  -4  -1  -9  301.57   12.40
  -4   1   9  298.37   14.20
   4   1  -9  309.37   13.50
  -4  -1   9  303.27   14.10
  -4   1  -9  310.37   13.10
  -4   1  -9  297.97   15.80
  -4  -1   9  304.77    9.70
  -4   1  -9  314.97   12.10
   4  -1  -9  288.27   13.50
   4   1   9  272.87   14.80
  -4   1  -9  285.47   11.20
  -5  -1  -9 1225.78   42.90
  -5   1   9 1248.18   33.80
  -5  -1  -9 1256.47   36.50
  -5   1   9 1204.88   34.00
   5  -1   9 1108.09   38.30
  -5   1   9 1269.47   39.70
   5   1  -9 1171.78   37.80
  -5  -1  -9 1199.98   38.80
  -5  -1  -9 1198.38   37.40
  -5  -1   9 1263.97   43.30
   5  -1  -9 1222.58   38.80
  -5   1  -9 1231.68   34.40
  -5   1  -9 1233.98   42.60
  -5   1  -9 1218.38   37.30
  -5  -1   9 1238.38   33.70
  -5   1  -9 1249.57   36.40
  -6   1   9   76.19    5.20
  -6  -1  -9   62.49    9.20
  -6   1   9   67.99    5.20
  -6   1   9   63.99    7.40
   6   1  -9   67.49    6.60
  -6  -1  -9   59.19    5.70
  -6  -1   9   57.59    6.90
  -6  -1   9   72.49    5.00
  -6   1  -9   65.29    5.10
  -6   1  -9   63.99    8.10
  -7  -1  -9   96.29   10.70
  -7   1   9   95.59    9.10
  -7   1   9   96.49    6.60
  -7  -1  -9  108.49    7.70
  -7  -1   9   91.79    6.50
  -7   1  -9   96.89   11.10
  -7  -1   9   95.09    9.10
  -7   1  -9   99.49    6.70
  -8   1   9   21.50    5.50
  -8   1   9   26.90    4.50
  -8  -1  -9   30.60    7.50
  -8  -1  -9   35.10    5.40
  -8   1  -9   26.40    8.60
  -8  -1   9   25.40    4.30
  -8  -1   9   21.10    5.50
  -8   1  -9   22.10    4.10
  -9   1   9  174.38   13.90
  -9  -1  -9  193.38   17.10
  -9  -1  -9  169.88   11.10
  -9   1  -9  174.18   10.30
  -9   1  -9  163.18   16.10
  -9  -1   9  184.18   14.20
 -10   1   9   23.60    6.70
 -10  -1  -9   17.60    7.60
 -10  -1  -9   16.50    4.50
 -10   1  -9   23.10    4.80
 -10  -1   9   17.60    6.30
 -10   1  -9   13.50    6.50
   0   2  -9   63.99    3.50
   0   2   9   56.09    5.30
   0   2  -9   61.59    2.80
   0  -2  -9   60.49    4.80
   0   2  -9   65.49    4.50
   0  -2  -9   58.79    5.90
   0  -2   9   59.29    4.20
   0   2   9   57.09    3.20
   0   2  -9   69.29    6.50
   0  -2  -9   55.59    3.70
  -1  -2  -9  345.87   15.00
  -1  -2  -9  355.66   16.20
   1   2  -9  350.66   12.10
  -1   2   9  364.16   10.20
  -1   2   9  344.07   14.60
  -1  -2  -9  364.56   12.30
   1  -2  -9  350.76   13.80
  -1   2  -9  374.96   12.60
   1   2   9  346.37   15.30
  -1   2  -9  358.06   11.40
  -1   2  -9  345.47   11.10
  -1   2  -9  360.86   16.10
  -1   2  -9  361.86   10.60
   1  -2  -9  340.07   15.70
   1   2   9  360.16   11.80
   1  -2  -9  357.86   10.20
  -2  -2  -9   49.20    4.00
   2   2  -9   51.19    4.00
  -2   2   9   50.49    5.20
  -2  -2  -9   52.89    5.90
  -2  -2  -9   54.79    4.70
  -2   2   9   50.09    2.40
  -2  -2  -9   51.19    5.00
   2  -2  -9   53.09    4.80
  -2   2  -9   50.79    5.90
  -2   2  -9   47.30    2.50
   2   2   9   47.80    4.00
  -2   2  -9   50.49    3.80
   2   2   9   49.70    6.00
  -2  -2   9   52.49    4.50
  -3  -2  -9  217.48   10.70
   3  -2   9  206.38   11.90
  -3   2   9  199.28    8.00
   3   2  -9  217.18    9.90
  -3  -2  -9  208.18   12.10
  -3  -2  -9  231.38   10.00
  -3  -2  -9  222.68   13.10
  -3   2   9  230.28   11.70
  -3   2  -9  219.88    7.00
  -3   2  -9  230.38   12.70
  -3   2  -9  206.88    9.40
   3  -2  -9  207.48   10.60
  -3  -2   9  237.18   11.10
  -4  -2  -9   96.19    6.80
   4   2  -9   84.29    6.50
  -4   2   9   86.29    5.10
  -4  -2  -9   92.29    6.60
  -4   2   9  100.09    7.90
  -4  -2  -9   94.39    7.50
  -4   2   9   93.39    4.60
   4  -2   9   84.69    7.90
  -4  -2  -9   82.79    8.40
  -4   2  -9   90.89    4.50
   4  -2  -9   79.19    6.60
  -4   2  -9   80.39    7.90
  -4  -2   9   84.49    7.10
  -4   2  -9   90.89    4.20
  -4  -2   9   90.99    4.50
  -5  -2  -9   89.99    7.10
   5  -2   9   70.39    6.50
  -5   2   9   74.79    4.80
  -5  -2  -9   83.19    6.60
  -5  -2  -9   80.89    7.70
  -5   2   9   83.29    7.60
  -5   2   9   83.99    5.50
   5   2  -9   79.69    6.80
  -5  -2  -9   80.19    8.80
  -5   2  -9   79.49    6.40
  -5  -2   9   81.49    4.90
  -5   2  -9   77.49    8.70
   5  -2  -9   65.59    6.70
  -5   2  -9   84.19    4.60
  -5   2  -9   74.59    5.20
  -5  -2   9   79.79    7.50
   6   2  -9   -2.00    1.90
  -6  -2  -9    2.40    2.30
  -6   2   9    8.90    3.20
  -6   2   9    3.80    1.70
  -6  -2  -9    2.20    3.40
  -6   2   9    2.40    1.70
  -6  -2   9    4.00    3.00
  -6  -2   9    0.20    1.50
  -6   2  -9    1.00    3.00
  -6   2  -9    1.00    1.40
  -7   2   9   61.49    5.90
  -7   2   9   52.59    7.60
  -7  -2  -9   57.19    6.10
  -7  -2   9   65.19    7.70
  -7   2  -9   56.19    4.80
  -7   2  -9   61.59    9.90
  -7  -2   9   60.49    5.40
  -8  -2  -9    9.10    3.40
  -8   2   9   15.50    4.90
  -8   2   9    8.60    3.30
  -8  -2  -9   11.20    5.70
  -8   2   9   15.00    4.00
  -8  -2   9   12.90    4.80
  -8  -2   9   15.20    3.50
  -8   2  -9    8.80    5.50
  -8   2  -9   10.30    2.90
  -9   2   9  180.48   14.00
  -9  -2  -9  166.68   16.40
  -9  -2  -9  172.58   11.70
  -9   2   9  152.98   10.60
  -9  -2   9  165.28   13.70
  -9   2  -9  163.18   16.00
  -9   2  -9  190.78   10.20
 -10   2   9    8.50    4.20
 -10  -2  -9   12.50    6.30
 -10   2   9    7.10    4.70
 -10  -2  -9    9.30    3.70
 -10  -2   9   11.90    5.60
 -10   2  -9   10.60    3.40
 -10   2  -9    8.60    6.30
   0   3  -9    2.60    0.90
   0   3   9    0.10    1.70
   0   3  -9    1.70    1.00
   0  -3  -9    2.10    1.60
   0   3   9    1.00    1.00
   0  -3  -9   -1.10    1.60
   0   3  -9    2.90    2.20
   0  -3  -9    0.00    1.20
  -1  -3  -9  321.97   15.20
  -1   3   9  316.47   10.40
   1   3  -9  311.37   10.80
  -1  -3  -9  328.17   12.00
  -1  -3  -9  279.57   14.00
   1  -3   9  308.07   10.90
  -1   3   9  352.26   14.70
  -1  -3  -9  329.07   13.50
   1   3  -9  315.97    9.50
  -1   3  -9  335.37   15.30
   1  -3  -9  321.67   10.60
  -1  -3   9  318.07   11.90
   1  -3  -9  324.07   13.50
  -1   3  -9  319.57   11.00
   1   3   9  313.47   15.00
   1   3   9  339.07   11.60
   1  -3  -9  327.97   15.10
  -2  -3  -9  226.98   11.20
   2   3  -9  236.08    9.60
  -2  -3  -9  241.48   10.20
  -2   3   9  249.38   12.10
  -2   3   9  244.88    8.70
  -2  -3  -9  225.58   11.90
   2   3  -9  241.88    7.00
  -2  -3  -9  240.38   13.10
  -2   3  -9  234.38   12.70
   2  -3  -9  224.28   11.20
   2   3   9  251.37   10.10
  -2  -3   9  234.88   10.40
   2   3   9  230.68   13.80
  -2   3  -9  235.48    9.50
   2  -3  -9  255.67   13.00
  -3  -3  -9   26.40    5.20
  -3   3   9   23.20    3.20
  -3  -3  -9   22.50    4.10
  -3  -3  -9   20.50    3.30
  -3  -3  -9   18.60    3.60
  -3   3   9   16.50    3.90
   3  -3  -9   20.20    3.50
  -3   3  -9   26.00    4.90
  -3  -3   9   29.60    4.30
  -3  -3   9   21.50    2.30
   4  -3   9  113.69    8.80
  -4  -3  -9  114.69    8.90
  -4  -3  -9  122.89    8.30
  -4  -3  -9  120.29    9.90
  -4   3   9  127.49    6.80
   4   3  -9  111.09    7.30
   4  -3   9  114.69    6.60
  -4   3   9  121.49    8.90
  -4  -3  -9  102.79    8.60
  -4   3  -9  125.49    9.60
   4  -3  -9  116.29    8.30
  -4   3  -9  114.79    7.40
   4   3   9  129.29    8.00
  -4  -3   9  119.49    8.30
   5  -3   9  116.69    7.60
  -5  -3  -9  130.89    8.80
  -5   3   9  126.79    7.20
  -5   3   9  112.29    9.00
   5   3  -9  114.89    8.00
  -5  -3  -9  124.49   11.20
  -5  -3  -9  129.69   10.00
  -5  -3   9  125.99    6.50
   5  -3  -9  119.69    8.80
  -5   3  -9  119.29   10.10
  -5   3  -9  125.49    5.10
  -5  -3   9  116.69    9.10
  -6   3   9    9.40    3.60
  -6   3   9   10.30    2.70
  -6   3   9    8.70    2.60
  -6  -3  -9   11.10    3.30
  -6  -3  -9   10.60    5.10
   6   3  -9    9.50    2.80
  -6  -3   9    7.30    2.20
  -6   3  -9    9.10    2.00
  -6  -3   9   10.70    4.00
  -6   3  -9    8.60    4.20
  -7  -3  -9   12.20    5.20
  -7   3   9    5.40    2.90
  -7   3   9    2.30    2.70
  -7   3  -9   10.50    4.80
  -7   3  -9   10.70    2.40
  -7  -3   9    3.80    3.30
  -8  -3  -9   53.39   10.00
  -8  -3  -9   63.89    7.30
  -8   3   9   60.19    8.70
  -8   3   9   48.60    6.00
  -8   3  -9   52.19    4.80
  -8   3  -9   49.50    9.20
  -8  -3   9   58.19    5.90
  -8  -3   9   56.69    8.80
  -9   3   9   -1.10    2.90
  -9   3   9   -0.50    3.80
  -9  -3  -9    0.60    2.80
  -9  -3  -9    0.00    4.80
  -9   3  -9    3.00    2.40
  -9   3  -9   -1.30    4.10
  -9  -3   9   -1.70    3.60
 -10  -3  -9    5.40    4.10
 -10   3   9    5.30    4.20
 -10  -3   9    4.10    4.60
 -10   3  -9   -1.10    4.80
 -10   3  -9    9.00    3.20
   0  -4  -9   88.39    5.90
   0  -4  -9   95.09    7.50
   0   4   9   89.89    5.10
   0  -4   9   97.89    5.80
   0   4  -9   88.69    5.40
   0   4  -9   87.39    7.40
   0  -4  -9   82.99    6.50
   0   4   9   88.29    7.50
  -1  -4  -9   61.99    4.80
  -1  -4  -9   59.79    6.30
  -1  -4  -9   67.69    5.90
   1  -4   9   57.49    3.20
  -1   4   9   65.69    6.20
  -1  -4  -9   71.09    6.50
  -1   4   9   64.79    4.30
   1   4  -9   65.59    3.90
   1   4  -9   63.09    3.70
   1  -4  -9   66.29    4.40
   1   4   9   56.49    6.50
   1  -4  -9   61.09    6.10
   1   4   9   66.39    4.70
   1  -4  -9   55.49    5.40
  -1  -4   9   59.99    4.30
  -1   4  -9   62.99    4.30
  -1   4  -9   54.69    5.90
  -2   4   9  224.18   11.70
   2   4  -9  210.98    8.70
  -2  -4  -9  193.38   11.40
   2   4  -9  199.38    7.40
  -2  -4  -9  212.38   12.30
  -2  -4  -9  211.38   11.30
  -2  -4  -9  210.78    9.80
  -2   4   9  201.38    8.90
  -2  -4   9  217.58    7.80
  -2   4  -9  201.38    9.00
  -2   4  -9  203.28   11.60
   2  -4  -9  212.68    8.10
   2   4   9  197.38    9.40
  -2  -4   9  200.58    9.50
   2  -4  -9  205.68   10.80
  -3  -4  -9   83.79    7.50
   3   4  -9   94.49    4.60
  -3  -4  -9   93.19    7.90
  -3   4   9   82.69    7.30
  -3  -4  -9   89.09    8.40
  -3   4   9   93.29    6.30
   3   4  -9   99.09    6.10
  -3  -4  -9   93.29    6.50
   3   4   9   89.89    7.40
   3  -4  -9   85.59    8.20
  -3   4  -9  106.79    6.50
  -3  -4   9   89.29    5.60
  -3   4  -9   91.29    8.00
  -3  -4   9  102.99    7.00
  -4  -4  -9  217.18   14.00
  -4  -4  -9  224.88   11.30
   4  -4   9  220.88   12.20
  -4   4   9  229.08   12.80
  -4  -4  -9  218.08   12.30
  -4  -4  -9  223.28   13.30
   4   4  -9  218.48   10.60
   4   4  -9  234.68    8.90
  -4   4   9  224.28   10.60
   4  -4   9  216.68    9.00
  -4  -4   9  227.68    9.50
   4  -4  -9  214.58   12.10
  -4   4  -9  223.78   13.10
   4   4   9  226.78   11.40
  -4  -4   9  227.78   11.90
   5  -4   9   12.60    3.90
   5   4  -9   11.20    3.00
  -5   4   9   12.70    3.10
  -5  -4  -9   19.00    4.30
  -5  -4  -9   15.40    4.40
  -5   4   9   10.40    3.40
  -5  -4  -9   15.00    4.90
  -5  -4   9   24.10    4.70
  -5  -4   9   13.50    2.60
   5   4   9   12.40    3.40
  -5   4  -9   20.00    5.30
  -6   4   9   15.20    4.00
  -6  -4  -9   27.10    6.80
  -6  -4  -9   12.20    3.90
  -6   4   9   22.90    5.40
  -6  -4   9   21.40    4.90
  -6  -4   9   16.40    3.20
   6   4   9   21.60    4.80
  -6   4  -9   18.50    2.30
  -6   4  -9   19.40    5.40
  -7   4   9   46.40    7.80
  -7   4   9   29.40    4.30
  -7  -4  -9   35.20    5.90
  -7   4   9   41.90    5.60
  -7  -4  -9   31.40    7.20
  -7   4  -9   33.30    3.40
  -7   4  -9   35.60    7.30
  -7  -4   9   23.30    5.40
  -8   4   9   37.40    7.20
  -8  -4  -9   25.60    5.40
  -8  -4  -9   18.20    6.70
  -8   4   9   23.30    4.80
  -8   4  -9   25.90    3.60
  -8  -4   9   18.00    5.60
  -8   4  -9   28.00    7.00
  -9  -4  -9  151.48   16.10
  -9  -4  -9  145.99   11.40
  -9   4   9  147.59   12.90
  -9   4   9  158.58   11.10
  -9  -4   9  159.78   13.80
  -9   4  -9  154.88   10.20
  -9   4  -9  157.28   14.40
 -10   4   9   26.70    6.00
 -10  -4  -9   19.90    5.10
 -10  -4  -9    6.70   11.70
 -10   4   9   18.10    6.10
 -10   4  -9   31.60    4.90
 -10  -4   9   14.80    6.10
 -10   4  -9   22.00    7.10
   0  -5  -9   -0.80    2.00
   0   5  -9    0.20    1.30
   0   5  -9   -3.40    1.40
   0  -5  -9    1.40    1.70
   0  -5   9   -0.90    0.70
   0   5   9   -0.70    1.20
   0   5   9    0.20    1.20
   0  -5  -9   -0.40    1.40
   0  -5  -9   -0.50    1.70
   1   5  -9  175.48    6.70
  -1  -5  -9  166.88   10.50
  -1  -5  -9  177.68   10.30
  -1  -5  -9  169.58   11.00
  -1  -5  -9  169.28    9.00
   1   5  -9  168.08    8.00
  -1   5   9  175.98   10.60
  -1   5   9  173.98    8.50
  -1   5  -9  173.18    8.20
   1   5   9  178.38    8.80
   1  -5  -9  167.68   10.20
   1   5   9  158.38   13.30
   1  -5  -9  173.28   10.20
  -1  -5   9  164.68    7.40
   1  -5  -9  171.48    8.50
  -1  -5   9  174.08    7.70
  -1   5  -9  163.58   10.20
  -2   5   9  101.89    8.00
   2   5  -9   93.29    5.20
  -2  -5  -9   85.79    7.90
  -2  -5  -9   84.29    8.00
  -2   5   9   88.29    6.40
   2   5  -9   89.89    5.30
  -2  -5  -9   89.69    6.50
  -2  -5  -9   75.39    7.10
   2  -5  -9   88.49    7.50
   2   5   9   94.99    6.50
  -2   5  -9   88.79    5.90
  -2  -5   9   86.39    6.00
  -2   5  -9   88.29    7.50
   2  -5  -9   84.89    5.40
   2  -5  -9  101.99    7.80
  -2  -5   9   86.69    5.30
  -3  -5  -9 2720.63   78.99
  -3  -5  -9 2774.42   77.79
  -3   5   9 2892.31   77.49
   3   5  -9 2725.63   71.29
  -3  -5  -9 2811.02   77.99
  -3   5   9 2664.53   74.59
   3   5  -9 2758.22   72.89
  -3  -5  -9 2657.73   78.09
   3   5   9 2743.23   74.79
  -3  -5   9 2775.52   74.69
   3  -5  -9 2579.04   76.19
  -3  -5   9 2706.53   72.49
  -3   5  -9 2719.33   77.09
   3  -5  -9 2876.01   77.49
   4   5  -9   35.30    3.80
  -4   5   9   30.50    5.30
  -4  -5  -9   31.60    4.80
  -4  -5  -9   23.90    5.10
   4   5  -9   38.90    4.40
  -4   5   9   57.19    5.80
  -4  -5  -9   31.30    6.00
  -4  -5  -9   31.30    5.60
   4  -5  -9   39.00    6.90
  -4   5  -9   36.90    5.10
   4   5   9   30.20    4.90
  -4   5  -9   32.30    5.50
  -4  -5   9   33.60    5.40
  -5   5   9  307.47   13.90
  -5  -5  -9  273.97   17.20
   5   5  -9  299.97   12.20
   5   5  -9  288.37   13.70
  -5   5   9  315.37   16.10
  -5  -5  -9  331.37   16.00
  -5  -5  -9  272.87   16.50
   5  -5   9  298.27   12.20
   5  -5   9  314.17   15.20
  -5  -5   9  319.97   12.90
  -5  -5   9  290.77   15.10
  -5   5  -9  332.77   17.00
  -5   5  -9  307.17   14.30
   5   5   9  316.37   15.10
  -6  -5  -9    2.20    2.50
  -6   5   9    1.50    2.50
  -6   5   9    0.50    2.10
  -6  -5  -9    0.00    4.00
   6   5  -9    2.90    2.20
   6   5  -9    0.00    1.90
  -6   5  -9    4.20    3.50
  -6  -5   9    0.80    3.00
  -6  -5   9   -3.10    1.60
   6   5   9    0.90    2.70
   7   5  -9    9.60    2.90
  -7   5   9    8.40    4.20
  -7  -5  -9    5.50    4.70
  -7   5   9   10.10    3.40
  -7  -5  -9    8.50    3.70
   7   5   9   12.30    3.90
  -7  -5   9    7.40    4.10
  -7   5  -9    7.40    4.70
  -7   5  -9    7.80    1.80
  -7  -5   9   11.50    2.90
  -8  -5  -9   28.50    7.80
  -8  -5  -9   26.40    5.50
  -8   5   9   40.00    7.50
  -8   5   9   32.40    5.60
  -8  -5   9   16.90    5.30
  -8   5  -9   38.70    8.10
  -8   5  -9   29.30    3.70
  -9  -5  -9  220.08   14.80
  -9  -5  -9  251.87   19.70
  -9   5   9  212.98   15.50
  -9   5   9  233.88   13.90
  -9  -5   9  237.88   16.80
  -9   5  -9  217.28   10.30
 -10   5   9   -2.40    3.40
 -10  -5  -9    1.90    5.40
 -10   5   9    3.90    5.30
 -10  -5  -9    0.10    3.30
 -10  -5   9    3.90    4.90
 -10   5  -9   -0.80    2.20
 -10   5  -9    0.30    4.40
   0  -6  -9  309.17   16.00
   0  -6  -9  305.07   13.50
   0  -6  -9  290.07   14.70
   0   6   9  296.67   15.50
   0   6   9  320.17   13.30
   0  -6  -9  300.07   14.70
   0   6  -9  313.37   13.20
   0  -6   9  301.57   10.10
   1   6  -9   17.90    2.30
   1   6  -9   20.60    3.60
  -1  -6  -9   22.60    3.80
  -1  -6  -9   10.30    3.10
  -1  -6  -9   15.70    3.70
  -1  -6  -9   17.10    4.40
  -1   6   9   24.40    5.10
  -1   6   9   16.00    3.00
   1  -6  -9    9.90    3.50
  -1  -6   9    9.90    2.40
  -1   6  -9   13.40    3.50
  -1   6  -9   15.90    3.00
   1  -6  -9   12.20    3.10
  -1  -6   9   13.40    2.50
   1  -6  -9   15.50    3.80
   1   6   9   15.10    3.30
  -2  -6  -9   54.59    6.40
  -2   6   9   52.29    5.70
   2   6  -9   56.69    4.30
  -2  -6  -9   54.69    6.60
   2   6  -9   52.59    4.80
  -2  -6  -9   53.79    6.50
  -2   6   9   61.19    6.70
  -2  -6   9   68.09    5.00
   2   6   9   59.59    5.70
   2  -6  -9   49.50    5.80
  -2   6  -9   53.99    5.10
   2  -6  -9   57.09    6.30
   2  -6  -9   60.69    5.20
  -3   6   9   26.90    4.90
   3   6  -9   31.20    3.80
  -3  -6  -9   28.00    5.90
  -3  -6  -9   38.40    6.60
  -3  -6  -9   33.10    4.70
  -3  -6  -9   18.00    4.50
  -3   6   9   27.50    4.80
   3   6  -9   34.90    3.90
   3   6   9   28.20    4.60
   3  -6  -9   26.70    5.00
  -3   6  -9   32.40    5.50
  -3  -6   9   28.80    4.10
  -3  -6   9   27.00    4.30
  -3   6  -9   29.10    4.40
   3  -6  -9   26.00    4.40
  -4   6   9   82.79    8.20
  -4  -6  -9   87.49    9.10
  -4  -6  -9   91.69   10.70
   4   6  -9   85.09    6.60
  -4   6   9   87.79    7.60
   4   6  -9   97.69    6.30
  -4  -6  -9   94.79    8.80
  -4   6  -9   89.69    8.10
   4   6   9   85.89    7.60
  -4  -6   9   80.29    6.50
  -4  -6   9   74.89    7.30
  -4   6  -9   91.59    7.30
  -5  -6  -9   25.10    6.70
  -5  -6  -9   23.60    5.10
   5  -6   9   20.10    3.80
   5   6  -9   18.80    3.70
   5   6  -9   14.10    3.00
  -5   6   9   23.40    5.70
  -5   6   9   22.10    4.30
   5   6   9   17.20    4.20
  -5  -6   9   20.60    4.80
  -5   6  -9   22.10    5.30
  -5   6  -9   16.50    4.00
  -5  -6   9   24.30    4.20
  -6   6   9   80.89    8.70
   6   6  -9   90.49    7.00
   6  -6   9   86.59    9.40
  -6  -6  -9   76.49   10.90
  -6  -6  -9   81.79    8.70
   6   6  -9   79.79    7.30
  -6   6   9   93.89    7.80
   6   6   9  100.29    8.80
  -6  -6   9   86.49    7.00
  -6   6  -9   87.89    8.90
  -6   6  -9   87.79    8.10
  -6  -6   9   76.89    8.50
  -7   6   9    1.20    3.00
   7   6  -9    4.00    2.90
  -7  -6  -9    2.30    2.80
   7   6  -9   -1.80    2.10
  -7  -6  -9    3.60    4.00
  -7   6   9   -3.30    2.50
   7   6   9   -0.80    2.90
  -7   6  -9   -2.80    2.40
  -7  -6   9    1.50    2.40
  -7  -6   9    0.40    3.10
  -7   6  -9    2.10    3.70
  -8   6   9    8.00    4.50
  -8  -6  -9   14.40    4.60
  -8  -6  -9    2.50    5.30
  -8   6   9    9.60    3.80
  -8   6  -9    8.10    4.00
  -8   6  -9    3.10    4.30
  -8  -6   9    7.50    4.20
   8   6   9    8.10    4.00
  -8   6  -9    7.60    2.10
  -9   6   9   29.00    6.30
  -9  -6  -9   23.10   11.20
  -9  -6  -9   32.40    6.60
  -9   6   9   25.70    6.70
  -9   6  -9   29.40    6.60
  -9   6  -9   29.40    7.10
  -9   6  -9   33.50    4.10
  -9  -6   9   22.50    6.60
 -10   6   9   15.90    5.40
 -10  -6  -9   10.30    5.00
 -10  -6  -9   17.50    6.90
 -10   6   9   28.30    7.30
 -10  -6   9   20.20    7.00
 -10   6  -9   19.10    3.60
 -10   6  -9   12.90    5.80
 -10   6  -9    9.40    5.90
   0  -7  -9   -2.70    1.70
   0  -7  -9    3.70    2.80
   0  -7  -9   -1.10    1.70
   0  -7   9   -0.30    0.90
   0   7   9   -1.10    2.00
   0   7   9    2.50    2.70
   0  -7  -9    0.60    2.50
   0   7  -9    0.70    2.20
  -1   7   9  895.01   30.10
   1   7  -9  887.81   25.10
  -1   7   9  939.11   32.50
  -1  -7  -9  861.81   30.80
   1   7  -9  871.91   28.70
  -1  -7  -9  894.61   32.70
  -1  -7  -9  876.71   35.40
  -1  -7  -9  905.01   30.30
   1  -7  -9  853.01   29.00
  -1  -7   9  869.61   28.10
   1   7   9  902.61   29.70
  -1   7  -9  880.01   28.60
   1  -7  -9  864.81   31.40
  -1   7  -9  822.62   32.70
   1  -7  -9  876.51   30.30
   2   7  -9   11.90    2.60
  -2   7   9   14.10    4.10
  -2  -7  -9   11.30    4.40
  -2  -7  -9   15.00    3.40
  -2  -7  -9   14.90    4.40
  -2   7   9    8.70    3.40
   2   7  -9   10.30    2.80
  -2  -7  -9   13.80    4.60
  -2   7  -9   16.80    3.60
  -2   7  -9    6.20    3.50
   2  -7  -9   14.30    3.90
  -2  -7   9   12.60    2.90
   2  -7  -9   11.70    3.30
   2   7   9    9.00    3.20
   2  -7  -9    9.40    3.50
  -3  -7  -9 2360.06   72.79
  -3   7   9 2470.95   71.09
   3   7  -9 2440.56   66.69
  -3  -7  -9 2357.66   72.09
  -3  -7  -9 2397.66   71.99
   3   7  -9 2370.86   65.99
  -3   7   9 2420.26   70.39
   3   7   9 2458.85   69.59
  -3   7  -9 2545.95   73.59
  -3   7  -9 2460.65   67.79
  -3  -7   9 2558.64   67.89
   3  -7  -9 2539.65   69.89
  -3  -7   9 2439.06   67.99
   3  -7  -9 2421.26   66.99
  -4  -7  -9   15.20    4.40
   4   7  -9   21.10    3.70
  -4   7   9   29.80    6.00
  -4  -7  -9   10.40    3.80
   4   7  -9   12.80    2.90
  -4  -7  -9   12.40    4.40
  -4   7   9    7.70    3.60
   4  -7  -9   11.30    4.00
  -4  -7   9   11.90    3.90
   4   7   9    6.50    3.40
  -4   7  -9   12.80    3.90
  -4  -7   9   21.30    3.80
  -4   7  -9    8.60    3.30
  -5  -7  -9  601.54   27.30
   5   7  -9  582.74   22.30
   5   7  -9  601.54   24.00
  -5  -7  -9  584.94   31.10
  -5  -7  -9  602.84   31.20
  -5   7   9  620.54   23.90
  -5   7   9  627.44   25.40
  -5  -7   9  618.64   24.80
  -5   7  -9  620.14   23.40
   5   7   9  612.44   24.60
  -5  -7   9  578.74   25.60
  -5   7  -9  620.64   24.60
  -6   7   9    4.50    3.40
   6   7  -9   13.70    3.50
  -6   7   9    4.30    3.20
  -6  -7  -9   10.00    3.90
   6   7  -9   16.10    3.90
  -6  -7  -9    6.60    4.40
   6  -7   9    2.30    3.40
  -6   7  -9   11.50    3.80
  -6  -7   9   13.30    3.40
   6   7   9   12.50    4.80
  -6  -7   9   12.40    4.40
  -6   7  -9   11.10    4.40
   7   7  -9   65.99    7.40
  -7   7   9   70.79    7.60
   7   7  -9   54.99    6.40
  -7  -7  -9   53.59    8.20
  -7   7   9   58.09    8.50
  -7  -7  -9   49.80    9.60
  -7   7  -9   70.89    8.70
   7   7   9   49.30    7.60
  -7   7  -9   51.29    7.40
  -7  -7   9   63.59    9.80
  -8  -7  -9   15.90    5.60
   8   7  -9   17.50    4.50
  -8   7   9   13.30    4.60
  -8  -7  -9   22.00    7.70
  -8   7   9   18.70    4.80
  -8  -7   9   12.10    5.70
  -8   7  -9   11.00    4.30
   8   7   9   16.60    5.40
  -8   7  -9   16.10    5.10
  -9  -7  -9  235.08   16.60
  -9  -7  -9  243.98   28.20
  -9   7   9  220.58   19.60
  -9   7   9  240.98   14.70
  -9   7  -9  242.38    9.70
  -9   7  -9  240.48   15.80
   9   7   9  231.68   16.80
  -9  -7   9  242.88   17.70
  -9   7  -9  229.98   15.70
   0   8   9  292.47   15.30
   0  -8   9  303.67   11.00
   0   8  -9  353.96   15.90
   0  -8  -9  311.07   17.20
   0  -8  -9  362.86   16.00
   0  -8   9  335.27   14.70
   0  -8  -9  344.57   16.10
  -1  -8  -9  548.35   25.20
  -1  -8  -9  647.84   24.20
  -1   8   9  676.83   26.50
  -1  -8  -9  610.14   24.40
  -1   8   9  637.34   24.70
   1   8  -9  649.64   23.50
  -1  -8  -9  653.53   26.70
  -1  -8   9  546.05   19.80
  -1   8  -9  630.04   23.20
   1   8   9  627.44   24.10
   1  -8  -9  656.03   24.00
  -1  -8   9  586.14   22.30
  -2   8   9   11.80    3.90
   2   8  -9   12.90    3.60
  -2   8   9   14.50    4.60
  -2  -8  -9   12.50    4.00
  -2  -8  -9   11.10    3.90
  -2  -8  -9   19.50    4.80
   2   8  -9   15.90    2.90
  -2   8  -9   10.80    3.50
  -2   8  -9   25.10    4.70
  -2  -8   9   20.60    3.90
   2   8   9   19.00    4.60
   2  -8  -9   19.20    4.50
   3   8  -9   37.50    5.30
  -3  -8  -9   29.90    6.30
  -3   8   9   44.40    7.10
  -3  -8  -9   41.40    7.20
  -3   8   9   44.90    7.20
   3   8  -9   49.70    4.70
  -3   8  -9   44.30    6.10
  -3  -8   9   48.10    5.60
   3  -8  -9   38.30    5.40
  -3   8  -9   47.70    5.60
  -3  -8   9   49.30    5.60
   3   8   9   43.40    6.50
   3  -8  -9   35.00    5.60
  -4  -8  -9   39.80    7.40
  -4   8   9   29.60    6.20
  -4  -8  -9   26.30    6.40
  -4   8   9   35.90    6.40
   4   8  -9   26.00    4.50
   4   8  -9   25.20    4.20
  -4  -8   9   25.50    5.10
   4   8   9   28.30    5.50
   4  -8  -9   36.30    6.00
  -4   8  -9   27.40    5.20
  -4   8  -9   30.40    5.30
   5   8  -9  333.47   15.60
  -5   8   9  320.47   20.80
  -5  -8  -9  348.17   20.10
   5   8  -9  342.57   15.70
  -5   8   9  360.96   17.80
  -5  -8  -9  354.46   19.10
   5   8   9  350.06   18.10
  -5   8  -9  383.16   17.30
   5  -8  -9  370.36   17.60
  -5   8  -9  387.76   17.30
  -5  -8   9  353.66   17.90
  -5  -8   9  371.96   16.40
  -6   8   9  117.89   10.70
  -6   8   9  137.69   10.70
  -6  -8  -9  140.79   13.40
   6   8  -9  104.99    8.80
  -6  -8  -9  138.29   11.90
   6   8  -9  120.69    8.90
  -6   8  -9  140.49   10.60
  -6  -8   9  132.89   11.40
   6   8   9  130.19   10.70
  -6   8  -9  130.59   11.90
   7   8  -9   89.09    8.20
  -7  -8  -9   76.59   11.90
  -7   8   9  102.49    9.30
  -7   8   9   91.89   10.00
   7   8  -9   89.09    8.10
  -7  -8  -9   89.59   10.10
   7   8   9   74.59    9.20
  -7   8  -9   78.49    8.80
  -7   8  -9  101.39    9.50
  -7  -8   9  100.49   10.90
  -8   8   9   -1.20    3.10
  -8   8   9    5.90    5.80
  -8  -8  -9    5.60    3.90
  -8  -8  -9   -5.70    4.00
   8   8  -9   -4.90    2.80
  -8  -8   9    0.40    4.40
   8   8   9    3.60    3.90
  -8   8  -9   -1.30    2.80
  -8   8  -9    0.10    3.50
  -9   8   9   61.89    8.90
  -9  -8  -9   67.09    9.80
  -9   8   9   57.99   15.00
  -9  -8  -9   56.39   11.20
  -9  -8   9   54.99   10.10
  -9   8  -9   70.19    9.00
   9   8   9   61.39   10.70
   0   9  -9    0.40    2.70
   0  -9   9    1.70    1.50
   0  -9  -9   -3.50    2.20
   0  -9  -9    0.80    2.50
   0  -9   9   -5.10    2.60
   0   9   9    0.50    2.80
  -1  -9  -9  231.48   14.80
   1   9  -9  193.48   12.10
  -1   9   9  201.48   13.20
  -1  -9  -9  215.98   12.80
  -1   9   9  213.08   14.00
  -1   9  -9  201.68   12.10
   1  -9  -9  214.78   12.20
   1  -9  -9  195.28   12.00
   1   9   9  207.68   13.10
  -1  -9   9  206.78    9.80
  -2   9   9    7.80    3.90
   2   9  -9    8.70    2.50
  -2   9   9    5.70    3.60
   2   9  -9    6.20    3.20
  -2  -9  -9   10.40    3.80
  -2  -9  -9    4.30    3.10
   2  -9  -9   11.50    3.60
  -2   9  -9    6.40    2.90
   2  -9  -9    3.60    3.00
  -2  -9   9    7.70    3.50
   2   9   9   12.40    4.10
  -2   9  -9    8.00    3.00
  -3   9   9  276.47   15.90
   3   9  -9  265.07   13.80
  -3  -9  -9  272.97   19.60
  -3   9   9  299.47   16.30
   3   9  -9  271.27   12.20
  -3  -9  -9  260.27   15.80
  -3   9  -9  284.97   13.70
  -3   9  -9  253.87   13.80
  -3  -9   9  282.97   14.30
   3   9   9  246.68   14.80
  -3  -9   9  273.77   13.90
   3  -9  -9  273.37   14.10
  -4  -9  -9   23.80    5.70
  -4  -9  -9   16.90    5.10
  -4   9   9   27.00    6.10
   4   9  -9   27.90    5.20
   4   9  -9   21.20    3.90
  -4   9   9   33.00    6.50
  -4  -9   9   27.50    4.50
  -4   9  -9   26.70    4.50
   4  -9  -9   25.50    5.20
  -4   9  -9   31.30    5.70
   4   9   9   30.20    6.30
  -4  -9   9   17.90    4.30
  -5  -9  -9  144.89   13.10
  -5   9   9  146.89   11.90
   5   9  -9  169.38   10.60
  -5   9   9  153.08   11.90
   5   9  -9  165.38   10.70
  -5  -9  -9  165.88   13.20
   5  -9  -9  167.68   11.20
  -5   9  -9  155.68   10.30
  -5  -9   9  156.28   11.80
  -5   9  -9  166.68   11.20
   5   9   9  127.79   13.30
  -6   9   9    2.70    3.80
  -6  -9  -9    4.90    5.10
   6   9  -9    2.50    2.20
  -6   9   9   -2.80    2.90
   6   9  -9   -3.60    2.40
  -6  -9  -9    1.90    3.20
  -6   9  -9    4.00    3.00
   6  -9  -9   -0.50    2.80
   6   9   9   -0.90    2.70
  -6  -9   9    0.70    3.00
  -6   9  -9   -2.40    3.20
  -7  -9  -9   29.30    7.70
   7   9  -9   36.20    6.40
  -7   9   9   34.60    7.40
  -7   9   9   29.50    6.40
   7   9  -9   35.80    6.20
  -7  -9  -9   28.40    7.00
  -7   9  -9   25.10    5.30
  -7   9  -9   30.80    6.30
  -7  -9   9   40.40    8.20
   7   9   9   13.90    5.10
  -8   9   9    0.70    3.60
  -8  -9  -9    5.70    5.30
   8   9  -9   -0.40    3.50
  -8   9   9   -3.10    3.40
  -8   9  -9   -7.00    3.90
  -8   9  -9    5.10    3.70
   8   9   9    6.50    4.70
  -8  -9   9    1.20    4.40
   0 -10  -9  206.08   12.60
   0  10  -9  223.58   13.30
   0  10   9  218.28   14.20
   0 -10   9  207.98    9.50
   0 -10  -9  239.58   15.40
   1 -10   9  360.36   12.50
  -1  10   9  379.06   19.70
  -1 -10  -9  390.86   18.50
  -1  10   9  384.96   20.30
  -1 -10  -9  426.36   21.30
   1  10  -9  420.56   19.20
   1 -10  -9  381.26   20.50
  -1 -10   9  376.66   18.10
   1 -10  -9  381.96   17.60
  -1 -10   9  390.56   15.70
  -1  10  -9  429.06   19.00
   1  10   9  389.56   19.70
  -2 -10  -9    4.10    3.50
  -2 -10  -9    1.70    4.20
  -2  10   9   -1.20    3.20
  -2  10   9   -0.10    2.90
   2  10  -9    3.70    2.00
   2  10  -9    3.70    3.30
  -2  10  -9    3.70    2.90
  -2 -10   9    3.20    2.20
  -2 -10   9    5.30    3.00
   2 -10  -9    4.00    2.80
  -2  10  -9   23.20    5.00
   2  10   9   -3.30    2.30
  -3  10   9   46.50    7.70
   3  10  -9   53.19    5.40
   3  10  -9   51.89    7.20
  -3 -10  -9   53.69    9.10
  -3 -10  -9   49.30    7.80
  -3  10  -9   59.89    6.10
  -3 -10   9   50.19    6.10
   3 -10  -9   46.20    6.00
   3  10   9   42.00    7.40
  -3  10  -9   56.79    6.80
  -4 -10  -9    0.90    3.10
   4  10  -9    2.90    2.20
  -4  10   9    2.00    3.60
  -4 -10  -9   -1.70    3.30
  -4  10   9   -0.20    2.70
   4  10  -9   -0.80    2.80
   4  10   9    3.90    4.50
   4 -10  -9    1.40    3.10
  -4  10  -9   -1.30    2.30
  -4  10  -9    1.00    2.90
  -4 -10   9   -1.10    2.40
  -5  10   9  115.19   11.10
   5  10  -9  107.09    9.60
  -5 -10  -9  114.49   11.60
   5  10  -9  119.89    9.30
  -5  10   9  123.79   11.30
  -5 -10  -9  125.69   12.20
  -5  10  -9  128.29   10.30
  -5  10  -9  120.59    8.60
   5  10   9  109.89   11.10
  -5 -10   9  103.99   10.30
   5 -10  -9  142.69   10.10
   6  10  -9   93.79    8.80
  -6  10   9   96.49   10.10
   6  10  -9   83.19    8.20
  -6  10   9   86.19   10.00
  -6 -10  -9   69.29   10.40
  -6 -10  -9   85.09   11.10
   6  10   9   78.59   10.60
   6 -10  -9   84.99    8.70
  -6 -10   9   74.49   10.10
  -6  10  -9   78.79    7.60
  -6  10  -9   77.39    8.40
  -7 -10  -9  122.49   12.90
  -7  10   9  126.99   11.90
  -7 -10  -9  140.49   14.10
   7  10  -9  117.89   10.50
  -7  10   9  126.99   11.40
   7  10  -9  104.59   10.00
   7 -10  -9  136.19   10.90
  -7  10  -9  128.69   11.40
  -7 -10   9  134.09   13.30
  -7  10  -9  114.09    9.50
   7  10   9  148.59   13.10
  -8 -10  -9   -1.90    3.80
  -8  10   9    5.40    4.70
  -8 -10  -9   -0.50    9.20
  -8  10   9    4.50    5.80
   8  10  -9    9.30    4.50
  -8  10  -9   -4.80    2.90
  -8 -10   9    2.80    5.70
  -8  10  -9    5.40    5.00
   8 -10  -9    0.20    4.30
   8  10   9   -1.90    4.40
   0 -11  -9    3.00    3.10
   0 -11   9   -0.30    1.90
   0 -11  -9    1.60    3.20
   0  11  -9   -0.60    3.40
   0  11   9    0.10    3.20
  -1  11   9   21.90    6.10
   1  11  -9   18.60    5.00
  -1 -11  -9   17.60    4.70
  -1 -11  -9   27.50    6.50
   1 -11   9   15.30    2.80
   1 -11   9   19.90    2.90
  -1  11  -9   23.50    4.50
   1  11   9   24.10    6.20
  -1  11  -9   19.80    5.40
  -1 -11   9   21.80    4.00
   1 -11  -9    8.60    4.30
   1 -11  -9   18.80    4.80
  -2  11   9   41.30    7.60
  -2 -11  -9   38.10    6.70
  -2 -11  -9   41.70    7.90
  -2  11   9   50.29    8.20
   2  11  -9   37.10    6.80
  -2  11  -9   46.80    5.50
   2 -11  -9   39.70    6.00
   2  11   9   44.10    7.70
  -2 -11   9   32.40    5.30
  -2  11  -9   42.40    7.20
  -3 -11  -9  521.05   25.30
   3  11  -9  494.75   19.50
  -3  11   9  535.25   24.80
  -3  11   9  516.35   24.60
   3  11  -9  484.55   22.40
  -3 -11  -9  471.45   25.60
  -3  11  -9  514.05   19.10
  -3  11  -9  479.65   21.80
  -3 -11   9  466.15   21.30
   3 -11  -9  523.65   20.80
  -4  11   9   21.90    6.10
   4  11  -9   26.60    5.90
  -4  11   9   17.00    5.20
  -4 -11  -9   13.30    5.70
  -4 -11  -9   31.20    7.00
   4  11  -9   27.40    4.80
  -4  11  -9   21.90    4.20
  -4  11  -9   18.90    5.10
   4 -11  -9   16.50    4.60
   4  11   9   14.90    5.50
  -4 -11   9   22.50    5.50
  -5  11   9   20.30    5.90
  -5  11   9   24.10    6.70
   5  11  -9   11.70    3.70
  -5 -11  -9   21.00    6.50
  -5 -11  -9   11.00    4.90
   5  11  -9   14.10    5.00
   5  11   9   14.40    6.20
   5 -11  -9   25.60    5.10
  -5  11  -9   16.70    3.90
  -5  11  -9   20.80    5.30
  -5 -11   9   19.70    6.30
  -6  11   9    4.10    4.40
  -6  11   9    1.10    3.70
   6  11  -9   -4.40    3.20
  -6 -11  -9   -1.70    3.90
   6  11  -9   -3.10    3.10
  -6 -11  -9    3.20    4.00
  -6  11  -9    2.20    3.90
  -6 -11   9   -5.80    4.00
   6 -11  -9   -3.00    2.90
  -6  11  -9    4.40    2.80
   6  11   9   -0.70    3.40
   7  11  -9   18.70    5.70
  -7  11   9   18.90    6.10
  -7 -11  -9   18.00    7.80
  -7  11   9    2.40    4.30
  -7 -11  -9   22.20    7.60
  -7 -11   9   12.10    6.00
   7 -11  -9    9.20    4.30
   7  11   9   16.10    6.10
  -7  11  -9   16.00    3.60
  -7  11  -9    9.40    5.00
   0 -12  -9   42.00    8.20
   0 -12  -9   41.40    6.50
   0  12  -9   38.40    7.00
   0  12   9   39.40    7.80
   0  12  -9   41.90    6.10
  -1 -12  -9   33.70    6.40
   1  12  -9   34.20    6.70
   1 -12   9   41.30    4.40
  -1  12   9   47.80    8.70
  -1 -12  -9   41.10    7.80
  -1  12  -9   34.20    6.80
   1 -12  -9   45.90    8.70
   1  12   9   34.10    8.80
  -1  12  -9   37.80    5.60
   1 -12  -9   44.30    6.80
  -1 -12   9   45.50    5.70
   2  12  -9    6.80    3.90
  -2 -12  -9    2.90    3.90
  -2 -12  -9    7.90    4.00
  -2  12   9   -3.40    3.20
  -2  12   9    0.30    3.10
   2  12   9    8.10    5.10
  -2  12  -9   -2.10    3.10
  -2 -12   9    0.40    3.10
  -2  12  -9    2.50    2.60
   2 -12  -9    3.60    3.50
   2 -12  -9   -0.80    2.50
  -3  12   9    7.60    4.40
  -3 -12  -9    7.10    4.50
  -3 -12  -9   13.40    5.30
   3  12  -9   12.80    3.60
   3  12  -9   16.50    5.80
  -3  12   9    6.50    4.50
   3  12   9   21.70    6.70
   3 -12  -9    8.00    3.60
  -3 -12   9   11.50    3.70
  -3  12  -9   12.00    3.00
  -3  12  -9    9.40    4.30
   4  12  -9    1.70    3.10
  -4  12   9    3.10    4.30
  -4 -12  -9   -2.70    3.30
  -4  12   9    6.10    4.50
   4  12  -9   -5.80    3.50
  -4 -12  -9    5.40    4.60
   4 -12  -9    0.30    2.80
   4  12   9    8.20    5.60
  -4  12  -9   -1.40    2.20
  -4  12  -9    3.60    3.40
  -4 -12   9    6.20    3.90
  -5 -12  -9    1.90    4.00
  -5 -12  -9   -3.20    3.90
  -5  12   9    4.40    5.20
   5  12  -9    0.20    3.80
   5  12  -9    0.40    2.90
  -5  12   9   -3.20    3.40
  -5 -12   9   -2.40    3.90
  -5  12  -9    8.90    4.40
   5  12   9    2.30    4.40
   5 -12  -9   -0.60    3.10
  -5  12  -9    2.00    2.20
  -6  12   9   28.40    7.20
   6  12  -9   20.20    5.50
  -6 -12  -9    4.90    5.50
  -6 -12  -9   20.80    9.00
  -6  12  -9   19.10    5.90
  -6  12  -9   15.00    2.80
  -6 -12   9    3.30    5.00
   6 -12  -9   19.20    4.90
   6  12   9    7.70    4.50
  -7 -12  -9   49.00    9.50
   7  12  -9   46.90    7.90
  -7  12   9   52.79    9.70
  -7  12   9   50.69    8.20
  -7  12  -9   55.29   13.40
   7 -12  -9   49.70    7.40
  -7 -12   9   46.20   10.10
   0  13  -9   -4.20    2.50
   0  13   9   -1.90    3.70
   0 -13  -9    0.30    2.80
   0  13  -9   -4.20    2.90
   0  13  -9   -2.90    2.70
   0 -13  -9    4.90    4.30
   1 -13   9  107.29    7.70
   1  13  -9  125.19   11.80
  -1 -13  -9  125.89   10.70
  -1 -13  -9  138.49   12.70
  -1  13   9  127.49   13.20
  -1 -13   9   98.29    8.90
   1 -13  -9  123.19   12.40
   1 -13  -9  118.09    9.70
  -1  13  -9  120.69    7.90
   1  13   9  139.09   13.80
  -1  13  -9  131.79   13.40
  -1  13  -9  128.59    8.60
  -2 -13  -9   56.69    9.80
   2  13  -9   51.19    8.60
   2 -13   9   43.00    5.10
  -2  13   9   47.80    9.30
   2  13   9   52.99    9.70
   2 -13  -9   47.30    9.00
   2 -13  -9   52.89    6.90
  -2  13  -9   52.99    5.50
  -2  13  -9   35.10    7.20
  -2  13  -9   47.70    4.80
  -2 -13   9   60.79    8.10
  -3 -13  -9 1208.88   44.10
  -3 -13  -9 1227.38   46.20
  -3  13   9 1238.18   46.00
  -3  13   9 1215.08   45.30
   3  13  -9 1255.27   44.80
  -3 -13   9 1175.78   42.00
  -3  13  -9 1190.78   34.80
  -3  13  -9 1177.78   43.10
   3  13   9 1259.17   47.30
   3 -13  -9 1217.18   39.50
  -4 -13  -9   17.20    6.10
  -4 -13  -9    7.40    4.90
  -4  13   9   10.50    4.90
   4  13  -9    7.00    5.60
  -4  13   9   11.50    5.70
   4  13  -9   13.90    5.50
   4 -13  -9    3.10    3.60
  -4 -13   9    7.70    4.80
  -4  13  -9    7.50    4.90
  -4  13  -9    8.90    2.40
   4  13   9    9.90    5.60
  -5  13   9  153.18   13.70
   5  13  -9  107.89   11.60
  -5 -13  -9  111.39   12.50
  -5 -13  -9  122.29   23.60
  -5 -13   9  108.79   12.40
   5 -13  -9  127.69    9.60
  -5  13  -9  125.69   11.50
   5  13   9  133.09   13.70
  -6  13   9   -1.80    3.50
   6  13  -9  -10.20    3.60
  -6 -13  -9   -5.30    4.30
  -6 -13  -9    6.00    5.70
  -6  13   9   -3.90    4.60
  -6  13  -9    5.20    4.10
   6  13   9   -3.00    5.10
  -6 -13   9   -5.10    4.70
   6 -13  -9   -0.80    3.90
   0 -14   9    2.10    3.80
   0  14   9    2.50    5.20
   0 -14  -9   -1.30    3.60
   0  14  -9    1.90    3.90
   0 -14  -9   10.00    4.70
   0  14  -9    4.20    3.10
  -1  14   9   36.20    8.40
   1  14  -9   48.50    8.30
  -1 -14  -9   37.90    7.60
  -1 -14  -9   30.20    6.30
   1 -14   9   28.30    5.10
  -1  14  -9   38.40    5.20
   1 -14  -9   29.20    6.90
  -1  14  -9   43.60    5.10
   1  14   9   32.70    8.20
   1 -14  -9   41.30    6.90
  -1  14  -9   33.40    7.20
  -1 -14   9   38.10    6.70
   2  14  -9    6.30    4.90
  -2 -14  -9    2.40    4.40
  -2  14   9   -3.60    4.60
   2 -14   9   -1.50    2.90
  -2 -14  -9    5.20    4.90
   2  14   9    5.60    5.50
   2 -14  -9    1.30    4.30
  -2  14  -9    0.40    2.20
  -2 -14   9    2.70    3.90
  -2  14  -9    7.60    4.70
   2 -14  -9    4.40    3.60
  -3 -14  -9   15.00    5.80
  -3  14   9   -5.00    4.10
   3  14  -9    5.80    5.10
  -3 -14  -9   11.00    5.30
   3  14   9    3.80    5.70
   3 -14  -9    3.60    3.70
   3 -14  -9   -0.20    4.00
  -3  14  -9    6.00    4.90
  -3 -14   9   10.20    5.30
  -4 -14  -9    6.10    4.90
  -4  14   9   -3.40    4.00
  -4  14   9    6.60    5.10
  -4 -14  -9    6.00    8.10
   4  14  -9    1.80    5.50
   4 -14  -9    1.00    3.40
   4  14   9   -8.30    4.80
  -4 -14   9   -1.70    4.20
  -4  14  -9    8.20    4.70
  -5 -14  -9   34.80    8.00
  -5  14   9   25.80    7.60
  -5  14   9   19.30    6.20
   5  14  -9   26.10    7.40
  -5 -14  -9   25.80    7.40
   5  14   9   20.20    8.70
  -5 -14   9   39.00    8.50
  -5  14  -9   31.70    7.20
   5 -14  -9   29.60    5.60
   0  15  -9    5.40    4.60
   0  15   9   -3.60    5.60
   0 -15  -9    1.70    3.80
   0 -15  -9    4.90    4.50
   0  15  -9   -6.40    2.80
  -1  15   9  155.28   15.70
  -1 -15  -9  157.08   15.10
   1  15  -9  184.88   14.80
   1  15   9  141.99   15.20
   1 -15  -9  172.78   12.30
  -1  15  -9  151.38   13.30
  -1 -15   9  122.09   11.70
  -1  15  -9  150.08    8.80
   1 -15  -9  147.99   14.20
  -2 -15  -9   22.70    7.00
  -2 -15  -9   36.50    7.60
  -2  15   9   20.20    6.10
   2  15  -9   18.70    7.10
  -2 -15   9   27.00    6.80
   2  15   9   24.80    8.40
   2 -15  -9   33.90    6.60
  -2  15  -9   14.40    6.10
   2 -15  -9   14.40    5.40
   3  15  -9  315.97   20.40
  -3 -15  -9  337.57   20.40
  -3  15   9  336.97   22.00
  -3 -15  -9  369.56   23.20
   3  15   9  325.37   25.80
  -3  15  -9  348.77   20.50
  -3 -15   9  301.87   19.50
   3 -15  -9  321.97   21.30
   3 -15  -9  311.67   16.10
   0  16   9   24.00   10.20
   0  16  -9   28.30    7.70
   0 -16  -9   15.70    6.00
   0 -16  -9   19.10    8.70
  -1 -16  -9  127.59   14.90
  -1 -16  -9   99.59   11.60
  -1  16   9  138.19   15.20
   1  16  -9  114.09   12.80
  -1  16  -9   89.49   11.00
   1  16   9   95.99   16.60
   1 -16  -9  113.29   10.60
   0   0 -10   53.69    5.90
   0   0  10   49.90    4.80
   0   0 -10   52.09    4.00
  -1   0  10  372.96   14.90
   1   0 -10  379.56   13.90
   1   0  10  389.06   15.50
   1   0 -10  387.56   17.70
  -1   0 -10  375.66   17.50
  -1   0 -10  375.26   13.10
  -1   0 -10  389.16   12.30
  -2   0  10 3114.29   84.59
  -2   0 -10 3143.89   88.19
  -2   0 -10 3133.89   81.39
  -2   0 -10 3218.08   81.59
   2   0 -10 3156.68   83.29
  -3   0 -10   17.40    2.80
  -3   0 -10   19.60    2.90
  -3   0 -10   16.80    4.30
  -3   0 -10   17.20    3.10
   3   0 -10   15.10    3.00
  -3   0  10   10.90    2.90
  -4   0 -10 3384.26   95.99
   4   0 -10 3346.87   91.19
  -4   0 -10 3385.96   88.79
  -4   0 -10 3417.96   88.19
  -4   0  10 3378.76   92.59
  -4   0  10 3374.66   84.39
  -4   0 -10 3485.45   93.29
  -5   0 -10  341.87   13.30
  -5   0 -10  343.77   14.50
  -5   0  10  351.96   11.80
  -5   0  10  360.66   12.20
  -5   0  10  354.16   16.70
  -5   0 -10  351.06   15.40
  -5   0 -10  340.07   18.70
  -6   0 -10   23.80    6.30
  -6   0  10   33.40    3.60
  -6   0 -10   34.20    4.20
  -6   0  10   30.00    3.60
   6   0 -10   32.70    5.30
  -6   0 -10   32.10    5.20
  -6   0  10   50.09    7.30
  -7   0  10   24.40    5.80
  -7   0 -10   43.50   12.60
  -7   0  10   27.10    3.90
  -7   0 -10   31.20    4.70
  -8   0  10  164.38    9.20
  -8   0 -10  163.18    9.80
  -8   0  10  167.18   13.30
  -8   0 -10  147.79   14.80
  -9   0 -10   21.20    7.70
  -9   0 -10   13.60    3.80
  -9   0  10   22.00    6.00
 -10   0 -10  434.36   27.50
 -10   0 -10  399.76   18.30
 -10   0  10  423.36   23.60
   0  -1 -10   -0.90    0.70
   0   1 -10    0.00    1.10
   0  -1 -10    1.10    1.40
   0   1  10    1.40    1.70
   0  -1 -10   -0.90    1.80
   0   1 -10    0.20    1.70
  -1  -1 -10  253.77   11.90
  -1  -1 -10  262.57   14.00
  -1  -1 -10  261.37    9.50
   1   1 -10  255.27   13.80
   1  -1  10  252.57   11.30
   1   1 -10  269.57   10.40
  -1  -1 -10  257.47   10.60
  -1   1  10  264.87   12.20
   1  -1 -10  265.27   11.20
   1  -1 -10  261.17   13.80
  -1   1 -10  266.17    9.10
   1   1  10  270.67   12.70
  -1   1 -10  243.78   13.50
  -1   1 -10  249.58   10.20
  -1  -1  10  251.47   11.20
  -1   1 -10  263.47    9.40
  -2   1  10  375.76   15.80
  -2  -1 -10  395.86   15.10
   2   1 -10  371.06   15.70
  -2  -1 -10  369.46   17.60
  -2  -1 -10  376.16   14.00
  -2  -1 -10  392.46   13.70
  -2   1 -10  394.66   13.00
  -2   1 -10  415.76   13.60
  -2   1 -10  395.06   12.50
  -2  -1  10  383.86   15.30
   2  -1 -10  381.66   15.00
  -2   1 -10  386.96   17.90
  -3  -1 -10    9.30    3.70
  -3  -1 -10   13.50    2.80
  -3  -1 -10   12.20    2.60
   3   1 -10   10.30    2.80
  -3  -1 -10   11.70    2.70
  -3   1  10    9.00    3.10
   3  -1 -10   13.40    3.10
  -3   1 -10   14.80    2.10
  -3   1 -10   12.60    2.70
  -3   1 -10   13.20    2.10
  -3  -1  10    9.50    3.00
  -3   1 -10   13.20    4.10
  -4  -1 -10  127.99    7.60
  -4  -1 -10  110.39    9.90
  -4   1  10  132.69   10.60
  -4  -1 -10  125.49    7.80
   4   1 -10  135.59    8.40
  -4  -1 -10  124.99    7.90
  -4   1  10  126.79    4.80
  -4   1  10  118.49    5.70
  -4   1 -10  119.39    6.10
  -4   1 -10  123.19    9.00
  -4   1 -10  127.19    6.10
   4  -1 -10  113.09    8.20
  -4  -1  10  124.09    8.90
  -4   1 -10  120.09   10.10
  -5   1  10   57.19    7.50
  -5  -1 -10   39.10    4.50
   5   1 -10   35.10    5.10
  -5   1  10   37.60    3.50
  -5  -1 -10   34.30    7.00
  -5   1  10   35.70    3.10
  -5  -1 -10   40.20    5.90
  -5   1 -10   39.50    3.70
  -5   1 -10   30.90    3.90
  -5  -1  10   35.60    4.60
  -5   1 -10   39.50    6.10
  -5   1 -10   38.30    7.30
   5  -1 -10   34.20    5.60
  -5  -1  10   42.20    6.40
  -6  -1 -10   38.00    7.80
   6   1 -10   32.00    5.20
  -6   1  10   45.50    4.30
  -6  -1 -10   36.40    5.00
  -6   1  10   42.50    6.90
  -6   1  10   49.30    4.10
  -6   1 -10   38.30    3.90
  -6  -1  10   41.60    4.00
  -6   1 -10   26.50    4.30
  -6   1 -10   31.80    7.20
  -6  -1  10   32.30    5.80
  -7   1  10   58.59    5.40
  -7   1  10   53.99    8.10
  -7  -1 -10   72.49   10.80
  -7   1  10   66.59    5.50
  -7  -1 -10   65.09    6.20
  -7  -1  10   72.69    5.60
  -7   1 -10   65.99    5.40
  -7   1 -10   68.79   10.70
  -7  -1  10   46.00    7.10
  -8  -1 -10   91.29    7.80
  -8  -1 -10   73.99   12.00
  -8   1  10   96.19    7.60
  -8   1  10   76.29   11.00
  -8   1  10   99.69    7.20
  -8   1 -10   98.99   11.80
  -8  -1  10  101.09   10.70
  -8  -1  10   95.29    7.10
  -8   1 -10   97.09    7.20
  -9   1  10   -2.90    2.60
  -9   1  10    2.20    3.90
  -9  -1 -10    1.10    2.50
  -9  -1 -10   -1.60    4.60
  -9  -1  10    2.40    4.20
  -9   1 -10   11.20    5.80
  -9   1 -10   -1.80    2.10
 -10   1  10    1.10    4.20
 -10  -1 -10    2.20    2.90
 -10   1  10    1.40    3.70
 -10  -1 -10   -3.70    5.90
 -10   1 -10   -4.30    5.10
 -10  -1  10   -4.10    3.80
 -10   1 -10   -3.80    2.40
   0   2 -10  368.56   17.00
   0  -2 -10  358.16   11.90
   0   2  10  358.86   15.60
   0  -2 -10  366.66   16.70
   0   2 -10  356.16   10.70
   0   2 -10  347.27   11.50
   0  -2  10  355.56   13.30
   0   2 -10  348.37   10.20
   0   2  10  368.06   10.90
   0  -2 -10  354.26   14.00
  -1  -2 -10  309.07   14.30
  -1  -2 -10  337.37   11.70
  -1  -2 -10  324.37   13.20
  -1   2  10  327.67   14.40
  -1  -2 -10  328.47   15.90
   1   2 -10  323.87   11.60
   1  -2  10  263.27   11.80
  -1   2 -10  316.17   10.70
   1  -2 -10  303.27   13.10
  -1   2 -10  336.57   16.00
   1   2  10  346.47   15.50
  -1   2 -10  327.87   10.10
  -1   2 -10  325.27   10.60
  -1   2 -10  347.47   11.40
  -1  -2  10  322.57   12.80
   1  -2 -10  325.97   16.00
  -2  -2 -10 1090.89   32.20
  -2  -2 -10 1098.79   37.60
  -2   2  10 1127.39   35.40
  -2  -2 -10 1120.99   34.80
   2   2 -10 1103.19   32.50
  -2  -2 -10 1131.09   36.00
  -2   2 -10 1110.69   37.50
  -2   2 -10 1151.08   31.90
  -2  -2  10 1139.69   33.90
   2  -2 -10 1110.19   37.30
   2  -2 -10 1145.99   34.40
  -3   2  10   23.10    1.80
  -3   2  10   18.70    1.50
  -3   2  10   21.00    4.00
  -3  -2 -10   22.90    4.00
  -3  -2 -10   17.40    4.50
  -3  -2 -10   22.40    4.40
   3   2 -10   19.40    3.30
  -3  -2 -10   23.10    3.50
  -3   2 -10   30.20    3.70
  -3  -2  10   18.40    3.80
   3  -2 -10   21.30    3.70
  -3   2 -10   20.70    1.80
  -3   2 -10   20.90    4.80
   4   2 -10 1468.65   44.60
  -4   2  10 1474.35   41.30
  -4   2  10 1615.04   47.40
  -4  -2 -10 1515.05   50.39
  -4   2  10 1548.84   39.90
  -4  -2 -10 1565.54   46.30
  -4  -2 -10 1570.24   44.80
  -4   2 -10 1526.85   44.10
  -4   2 -10 1548.84   39.80
  -4  -2  10 1512.15   46.20
  -4  -2  10 1522.95   39.80
  -4   2 -10 1496.25   49.30
   4  -2 -10 1486.35   46.10
  -5   2  10  444.86   14.40
  -5  -2 -10  467.65   17.80
  -5  -2 -10  443.66   22.30
   5   2 -10  447.46   18.10
  -5   2  10  463.45   15.50
  -5  -2 -10  445.46   19.40
   5  -2  10  379.76   19.60
  -5   2  10  442.86   19.70
   5  -2 -10  432.06   18.70
  -5   2 -10  467.25   14.10
  -5   2 -10  454.75   14.70
  -5  -2  10  443.56   14.30
  -5   2 -10  427.26   21.30
  -6   2  10   62.99    7.60
  -6   2  10   70.49    5.50
   6   2 -10   62.49    6.40
  -6  -2 -10   62.99    6.10
  -6  -2 -10   56.39    8.70
  -6  -2 -10   73.19    7.90
  -6   2  10   66.09    4.90
  -6  -2  10   65.39    4.80
  -6   2 -10   67.79    5.40
  -6   2 -10   66.79    8.60
  -6   2 -10   71.29    4.70
  -6  -2  10   67.19    7.60
  -7   2  10   -2.30    3.80
  -7  -2 -10    2.30    3.70
  -7   2  10    0.70    3.00
  -7   2  10    5.40    2.40
  -7   2 -10    3.60    1.90
  -7  -2  10    5.20    3.80
  -7  -2  10    8.70    2.50
  -7   2 -10    8.70    4.30
  -8  -2 -10   65.79    7.00
  -8   2  10   64.79    9.60
  -8   2  10   60.19    6.60
  -8  -2 -10   69.89   11.40
  -8   2  10   61.49    6.10
  -8   2 -10   80.39    6.10
  -8  -2  10   56.39    8.90
  -8   2 -10   79.29   12.30
  -8  -2  10   67.99    6.20
  -9   2  10    8.70    4.00
  -9  -2 -10    8.70    3.80
  -9  -2 -10    6.60    4.90
  -9   2  10    9.30    4.90
  -9   2 -10   16.70    6.80
  -9   2 -10   12.30    3.30
  -9  -2  10    4.80    4.60
 -10   2  10  175.68   15.40
 -10   2  10  177.38   12.60
 -10  -2 -10  168.38   12.40
 -10  -2 -10  228.18   20.80
 -10   2 -10  189.58   10.80
 -10   2 -10  208.08   18.80
 -10  -2  10  202.28   16.00
   0   3 -10   -1.10    0.90
   0   3  10   -0.40    1.80
   0   3  10    0.70    0.90
   0  -3  10    0.50    1.20
   0  -3 -10   -2.10    1.80
   0   3 -10    0.70    0.80
   0  -3 -10   -1.60    1.10
   0  -3 -10    0.90    1.40
   0   3 -10    4.20    2.30
  -1  -3 -10  878.71   31.50
  -1  -3 -10  905.21   28.90
   1  -3  10  864.01   26.10
  -1   3  10  917.11   24.60
   1   3 -10  887.21   25.50
  -1   3  10  880.11   30.10
  -1  -3 -10  935.31   27.00
  -1  -3 -10  862.51   30.50
   1   3  10  927.11   26.10
  -1  -3  10  912.51   27.30
   1  -3 -10  904.51   31.40
  -1   3 -10  897.41   25.60
   1  -3 -10  919.91   24.80
  -1   3 -10  953.40   32.10
   1   3  10  924.11   31.70
   1  -3 -10  874.71   28.80
   2   3 -10 1207.98   34.20
  -2   3  10 1156.98   31.80
  -2  -3 -10 1175.58   37.80
  -2  -3 -10 1208.08   35.00
  -2  -3 -10 1203.68   36.80
  -2   3  10 1212.78   38.10
  -2  -3 -10 1191.18   39.90
   2   3  10 1246.38   34.70
  -2   3 -10 1216.88   39.70
  -2   3 -10 1219.38   34.00
  -2  -3  10 1183.18   35.60
   2  -3 -10 1215.18   39.60
   2  -3 -10 1231.28   37.30
  -2   3 -10 1209.08   34.10
   3   3 -10   25.00    3.90
  -3  -3 -10   33.80    5.40
  -3  -3 -10   30.00    4.90
  -3  -3 -10   28.50    5.70
  -3   3  10   24.60    5.20
  -3  -3 -10   29.20    4.10
  -3  -3  10   31.00    4.70
   3  -3 -10   23.20    4.00
   3   3  10   27.60    4.00
  -3   3 -10   41.90    4.20
  -3   3 -10   28.30    5.50
  -4  -3 -10  389.16   17.30
  -4   3  10  344.07   13.60
  -4  -3 -10  368.36   19.00
  -4   3  10  401.16   17.60
  -4  -3 -10  371.66   16.00
  -4  -3 -10  371.96   15.30
   4   3 -10  372.26   15.10
   4   3  10  354.46   15.00
   4  -3 -10  341.07   18.00
  -4   3 -10  359.86   18.20
  -4  -3  10  358.86   12.20
  -4  -3  10  360.66   16.20
  -5  -3 -10  401.36   19.00
  -5   3  10  409.36   18.90
   5  -3  10  368.16   15.80
  -5  -3 -10  401.36   21.10
  -5   3  10  426.96   15.30
   5   3 -10  392.96   16.70
  -5   3  10  403.86   13.70
  -5  -3 -10  394.36   17.10
  -5  -3  10  427.26   18.60
  -5  -3  10  394.26   13.70
  -5   3 -10  388.86   19.90
  -6   3  10   62.29    7.60
  -6   3  10   60.99    5.10
  -6  -3 -10   67.49    6.70
  -6  -3 -10   67.79    9.20
  -6   3  10   66.89    5.80
   6   3 -10   66.99    6.60
  -6   3 -10   80.99    4.30
  -6  -3  10   70.99    5.10
  -6   3 -10   66.79    9.70
  -6  -3  10   57.69    7.20
  -7  -3 -10  199.28   16.00
  -7   3  10  183.28   10.80
  -7   3  10  169.18   12.60
  -7  -3 -10  171.18   11.00
  -7   3  10  167.48    9.70
  -7   3 -10  162.78    7.60
  -7   3 -10  178.08   14.50
  -7  -3  10  166.58    9.00
  -7  -3  10  170.78   12.80
  -8  -3 -10  308.27   16.00
  -8   3  10  316.67   15.00
  -8   3  10  333.77   18.90
  -8  -3 -10  362.36   23.10
  -8   3 -10  349.77   22.30
  -8   3 -10  319.27   12.60
  -8  -3  10  303.17   14.20
  -8  -3  10  335.77   19.10
  -9   3  10   -2.30    3.90
  -9  -3 -10   -1.40    2.60
  -9  -3 -10   -2.20    4.80
  -9   3  10    1.70    3.30
  -9   3 -10    1.30    2.00
  -9   3 -10    6.50    5.10
  -9  -3  10    3.70    4.40
 -10   3  10    4.40    4.60
 -10   3  10   -2.00    3.80
 -10  -3 -10    1.50    6.50
 -10  -3 -10    0.20    2.70
 -10   3 -10    1.10    2.50
 -10  -3  10   -7.50    3.30
 -10   3 -10    2.40    5.60
   0   4  10  134.49    9.50
   0   4  10  115.69    6.00
   0  -4 -10  103.19    8.70
   0  -4 -10  133.09    7.10
   0  -4 -10  130.49    9.60
   0   4 -10  123.39    6.30
   0   4 -10  129.69    9.60
   0  -4 -10  115.49    7.90
  -1   4  10   25.50    4.80
   1   4 -10   29.40    2.50
   1  -4  10   19.80    2.40
  -1   4  10   25.00    2.80
  -1  -4 -10   19.80    4.50
  -1  -4 -10   22.90    4.10
  -1  -4 -10   27.00    3.80
   1   4 -10   22.20    2.30
  -1  -4 -10   19.70    4.30
   1  -4 -10   28.90    4.60
   1  -4 -10   23.10    4.60
  -1  -4  10   28.00    3.20
   1   4  10   18.40    3.00
  -1   4 -10   25.40    3.00
  -1   4 -10   15.80    4.00
   1  -4 -10   26.50    2.80
  -2  -4 -10   83.49    5.90
  -2  -4 -10   68.69    7.40
  -2   4  10   83.89    4.90
   2   4 -10   65.59    4.60
   2   4 -10   77.39    4.10
  -2  -4 -10   68.49    6.90
  -2  -4 -10   69.09    6.60
   2   4  10   70.99    5.40
  -2   4 -10   72.99    7.40
   2  -4 -10   87.39    7.00
   2  -4 -10   76.99    7.60
  -2  -4  10   75.49    5.70
  -2   4 -10   75.49    5.10
  -3   4  10    2.00    2.20
   3   4 -10   -0.30    0.90
  -3  -4 -10    0.60    2.90
  -3  -4 -10    1.10    2.10
  -3  -4 -10    2.50    2.30
  -3   4  10   -3.50    1.30
   3   4 -10   -0.30    1.30
   3   4  10    3.40    2.20
  -3  -4  10   -0.50    1.10
   3  -4 -10   -0.30    1.80
  -3   4 -10   -1.60    1.50
  -3  -4  10    2.80    2.00
  -3   4 -10    0.50    2.40
   3  -4 -10   -1.20    2.00
  -4  -4 -10   90.39    7.70
  -4  -4 -10   85.49    7.00
  -4  -4 -10   98.69    9.30
   4   4 -10  100.09    6.90
  -4  -4 -10   79.79    7.80
  -4   4  10   87.49    6.50
  -4   4  10  101.79    8.70
   4   4  10   84.39    6.90
   4  -4 -10   89.89    7.80
  -4  -4  10   98.79    5.90
  -4   4 -10   85.09    8.40
  -4  -4  10   98.19    7.80
  -4   4 -10   91.19    6.90
  -5  -4 -10    1.30    3.50
  -5  -4 -10    3.50    2.40
  -5   4  10    1.30    2.70
  -5   4  10    2.80    2.30
  -5  -4 -10   -0.20    2.60
   5  -4  10    1.70    1.90
   5   4 -10    8.30    2.90
  -5  -4  10    1.90    2.50
   5   4  10   -0.30    2.20
  -5   4 -10    4.00    3.20
  -5  -4  10    1.60    1.60
  -6  -4 -10   35.10    7.60
  -6   4  10   46.60    5.30
  -6  -4 -10   48.20    8.00
  -6   4  10   47.80    7.70
  -6  -4 -10   43.30    7.60
  -6   4 -10   47.50    8.10
  -6  -4  10   44.20    6.60
  -6  -4  10   42.70    4.50
  -7  -4 -10   39.70    6.20
  -7   4  10   42.30    5.60
  -7   4  10   32.30    4.70
  -7  -4 -10   35.10    7.60
  -7  -4  10   24.00    5.90
  -7   4 -10   31.90    3.60
  -7   4 -10   32.60    3.00
  -7   4 -10   32.90    7.20
  -7  -4  10   34.00    5.30
  -8  -4 -10   -1.70    2.70
  -8   4  10    6.00    3.90
  -8  -4 -10    1.20    4.40
  -8   4  10   -0.60    3.00
  -8  -4  10   -6.10    3.10
  -8  -4  10   -0.30    2.70
  -8   4 -10   -6.00    3.70
  -8   4 -10    1.10    1.70
  -9  -4 -10   -4.70    4.50
  -9   4  10    0.60    3.20
  -9  -4 -10    4.80    3.10
  -9   4  10    1.70    3.70
  -9   4 -10    9.50    5.80
  -9  -4  10    1.60    4.30
 -10   4  10    6.50    5.20
 -10  -4 -10    9.90    6.60
 -10  -4 -10    4.60    3.50
 -10   4  10   11.40    4.80
 -10   4 -10    7.20    2.80
 -10   4 -10    6.50    5.90
 -10  -4  10    7.00    5.00
   0   5  10    0.60    1.30
   0  -5 -10   -0.70    1.60
   0   5 -10   -1.20    1.20
   0   5  10    0.50    2.20
   0   5 -10   -1.40    1.70
   0  -5  10    0.20    1.30
   0  -5 -10   -2.30    1.50
   0  -5 -10   -4.50    1.70
   0  -5 -10    0.10    1.90
  -1   5  10  616.74   19.90
  -1  -5 -10  613.64   24.60
   1   5 -10  604.74   17.80
  -1  -5 -10  586.94   23.00
  -1  -5 -10  597.44   24.10
  -1  -5 -10  620.74   21.30
  -1   5  10  585.74   24.10
   1   5 -10  635.34   19.30
  -1   5 -10  613.94   20.00
   1  -5 -10  595.34   23.60
  -1  -5  10  587.54   19.40
   1   5  10  625.34   20.60
   1  -5 -10  636.14   20.20
  -1   5 -10  570.84   23.50
   1  -5 -10  648.34   23.30
  -2  -5 -10  889.61   32.40
  -2  -5 -10  934.21   33.10
  -2   5  10  897.21   31.70
  -2   5  10  895.61   28.10
  -2  -5 -10  914.81   29.30
   2   5 -10  927.21   26.90
  -2  -5 -10  907.11   31.90
   2   5 -10  928.61   26.00
   2   5  10  935.01   29.00
  -2   5 -10  902.71   32.00
   2  -5 -10  909.91   31.00
  -2  -5  10  945.81   28.60
   2  -5 -10  925.71   32.00
   2  -5 -10  937.01   27.00
  -2   5 -10  909.11   27.90
  -3  -5 -10   43.20    6.40
  -3  -5 -10   28.30    5.80
   3   5 -10   29.30    3.60
  -3   5  10   26.20    4.30
   3   5 -10   32.80    3.10
  -3  -5 -10   35.70    6.00
  -3   5  10   26.20    5.00
  -3  -5 -10   26.30    4.30
  -3   5 -10   41.40    6.40
   3  -5 -10   25.00    4.20
   3  -5 -10   34.40    6.10
  -3  -5  10   31.90    4.80
   3   5  10   26.20    4.30
  -3   5 -10   35.80    4.70
  -3  -5  10   30.20    3.40
  -4  -5 -10  240.68   15.50
   4   5 -10  246.48   11.80
  -4   5  10  260.07   14.40
  -4   5  10  274.97   13.00
   4   5 -10  246.58   10.00
  -4  -5 -10  265.87   15.10
  -4  -5 -10  267.77   14.50
  -4   5 -10  258.77   12.50
  -4  -5  10  254.27   13.30
   4   5  10  260.07   13.10
  -4  -5  10  270.97   11.10
  -4   5 -10  295.07   15.50
  -5   5  10  261.87   15.00
   5   5 -10  246.58   12.60
  -5  -5 -10  251.07   15.70
   5   5 -10  272.87   10.80
  -5   5  10  241.88   12.40
   5  -5  10  281.27   10.80
  -5  -5 -10  236.78   17.90
  -5  -5 -10  264.97   14.50
  -5   5 -10  259.97   15.40
  -5  -5  10  236.18   13.80
   5   5  10  271.17   13.90
  -5   5 -10  262.97   13.30
  -5  -5  10  270.67   11.60
   6   5 -10   30.10    4.90
  -6  -5 -10   26.10    6.80
  -6   5  10   26.90    6.10
  -6   5  10   22.10    4.40
  -6  -5 -10   26.30    5.10
  -6   5 -10   21.20    4.70
   6   5  10   19.70    4.80
  -6  -5  10   18.20    5.00
  -6  -5  10   19.00    3.60
  -6   5 -10   23.70    6.30
   7   5 -10  143.29   10.30
  -7  -5 -10  127.39   10.30
  -7   5  10  146.89   12.00
  -7  -5 -10  113.89   12.50
  -7   5  10  146.99    9.90
  -7  -5  10  141.69   11.80
  -7   5 -10  132.69   12.30
  -8  -5 -10  266.67   20.00
  -8   5  10  254.27   16.90
  -8  -5 -10  215.78   14.30
  -8   5  10  258.57   13.80
  -8   5 -10  268.37   18.00
  -8  -5  10  248.08   16.70
  -8   5 -10  250.27    9.40
  -9  -5 -10    0.20    3.00
  -9   5  10    0.40    4.30
  -9   5  10    0.50    3.60
  -9   5 -10   10.60    5.30
  -9  -5  10    1.90    4.30
  -9   5 -10    2.50    2.00
   0  -6 -10   65.09    7.00
   0   6 -10   65.49    5.60
   0  -6 -10   62.69    5.70
   0   6  10   76.39    7.90
   0   6  10   71.69    5.80
   0   6 -10   69.79    7.20
   0  -6 -10   77.49    8.20
   0  -6  10   61.39    3.80
  -1   6  10    4.90    2.30
  -1  -6 -10    4.80    2.10
   1   6 -10    4.00    1.90
  -1  -6 -10    2.70    2.30
  -1   6  10    1.50    2.40
  -1  -6 -10    7.50    3.50
  -1  -6  10    2.90    1.60
   1  -6 -10    4.40    2.30
   1   6  10    4.20    2.40
   1  -6 -10    3.20    2.70
  -1   6 -10    2.10    2.00
  -1   6 -10    2.90    2.70
   2   6 -10 1059.59   30.20
  -2  -6 -10 1029.90   32.90
  -2  -6 -10 1045.00   35.80
  -2  -6 -10  967.50   35.70
  -2   6  10 1052.89   35.60
  -2   6  10  969.30   32.00
   2   6 -10 1028.60   29.50
  -2  -6 -10 1061.89   36.30
  -2   6 -10 1010.00   34.80
  -2   6 -10 1004.70   31.30
   2  -6 -10 1025.30   30.90
   2  -6 -10 1095.19   35.40
   2   6  10  996.70   32.30
  -2  -6  10 1078.09   35.60
  -2  -6  10 1013.90   30.20
   2  -6 -10  973.40   34.40
  -3  -6 -10   16.30    3.80
  -3  -6 -10   18.20    4.80
   3   6 -10   20.10    3.10
  -3   6  10   25.60    5.30
  -3   6  10   16.20    4.00
  -3  -6 -10   21.10    5.40
   3   6 -10   21.70    3.40
   3   6  10   19.60    4.20
  -3   6 -10   27.60    4.30
  -3  -6  10   24.10    3.70
  -3   6 -10   21.80    4.90
   3  -6 -10   23.40    5.10
  -3  -6  10   31.50    5.00
   4   6 -10 1157.08   36.70
  -4   6  10 1220.58   39.10
  -4  -6 -10 1187.18   42.90
  -4   6  10 1232.78   41.10
   4   6 -10 1215.38   35.20
  -4  -6 -10 1266.77   41.90
  -4   6 -10 1252.67   38.00
   4  -6 -10 1292.47   41.20
  -4  -6  10 1210.88   36.40
  -4   6 -10 1262.17   41.20
   4   6  10 1206.58   38.90
  -4  -6  10 1208.38   39.10
  -5   6  10  119.29   10.30
  -5  -6 -10  112.69   11.40
   5   6 -10  120.99    7.20
   5   6 -10  109.69    8.20
  -5   6  10  118.29   10.60
  -5  -6 -10  131.39   12.40
  -5  -6  10  107.59    9.30
  -5   6 -10  119.09    8.80
  -5  -6  10  124.99    8.10
   5   6  10  117.39    9.10
  -5   6 -10  121.49   10.20
  -6  -6 -10   56.79    8.50
  -6   6  10   64.79    6.70
   6   6 -10   45.50    6.50
  -6  -6 -10   51.09    8.20
   6  -6  10   38.30    6.20
  -6  -6 -10   42.60    8.10
  -6   6  10   68.79   15.20
   6   6  10   51.79    7.40
  -6  -6  10   48.40    5.50
  -6   6 -10   40.20    7.10
  -6  -6  10   43.50    7.50
  -6   6 -10   44.40    6.60
  -7  -6 -10   26.50    6.00
   7   6 -10   31.00    5.50
  -7  -6 -10   47.50    9.70
  -7   6  10   21.90    5.10
  -7   6  10   29.50    6.10
  -7  -6  10   32.20    5.00
  -7  -6  10   29.00    6.40
  -7   6 -10   23.30    6.60
   7   6  10   36.40    6.80
  -7   6 -10   26.80    5.80
  -8   6  10   99.69   10.90
  -8  -6 -10  100.29   10.10
  -8  -6 -10   80.69   13.10
  -8   6  10   86.59    8.70
  -8  -6  10   99.89   11.20
  -8   6 -10   88.39   10.70
  -8   6 -10   89.29    9.50
  -9  -6 -10    4.30    4.30
  -9   6  10    6.30    4.40
  -9   6  10    4.10    4.50
  -9   6 -10   21.20    5.90
  -9   6 -10    5.30    4.40
  -9  -6  10    3.50    4.40
   0  -7 -10   -1.80    2.00
   0   7 -10   -1.60    1.80
   0  -7 -10    1.20    2.60
   0  -7 -10   -1.50    2.30
   0   7  10    2.30    2.50
   0  -7 -10   -3.10    1.70
   0   7 -10    3.00    2.60
   0   7  10    2.90    2.50
   0  -7  10    2.30    1.20
  -1  -7 -10   40.90    6.20
  -1   7  10   32.60    6.10
  -1  -7 -10   42.30    6.90
  -1  -7 -10   33.40    6.20
  -1  -7 -10   43.10    6.70
   1   7 -10   51.39    5.30
  -1   7  10   45.20    5.30
  -1   7 -10   37.50    5.90
   1  -7 -10   41.20    6.60
  -1   7 -10   35.10    5.20
   1   7  10   42.50    5.60
  -1  -7  10   35.60    4.40
   1  -7 -10   42.50    6.40
   1  -7 -10   36.10    5.30
  -2  -7 -10   49.10    7.50
  -2  -7 -10   26.50    5.30
  -2  -7 -10   43.20    6.90
   2   7 -10   50.89    5.10
  -2  -7 -10   44.60    5.30
  -2   7  10   57.89    7.10
  -2   7  10   36.20    5.40
   2   7 -10   42.00    3.90
   2  -7 -10   52.19    5.30
  -2   7 -10   54.39    6.40
   2  -7 -10   46.70    6.70
  -2  -7  10   45.60    4.80
  -2   7 -10   43.00    5.10
  -2  -7  10   36.60    4.70
   2   7  10   38.70    5.60
  -3  -7 -10   77.09    8.60
  -3   7  10   85.09    7.90
   3   7 -10   87.19    6.30
   3   7 -10   82.59    5.90
  -3  -7 -10   87.29    8.80
  -3   7  10   92.89    9.00
  -3  -7 -10   83.69    8.70
   3  -7 -10   87.19    8.20
  -3   7 -10   93.79    7.20
  -3  -7  10   84.29    7.10
  -3   7 -10   80.89    7.90
   3   7  10   84.49    7.60
  -3  -7  10   81.59    6.40
  -4   7  10   45.90    6.70
  -4  -7 -10   31.00    6.40
  -4  -7 -10   39.20    7.30
  -4   7  10   37.60    6.10
   4   7 -10   42.30    4.60
   4   7 -10   37.70    4.80
   4  -7 -10   47.10    6.90
  -4  -7  10   43.00    6.10
  -4   7 -10   39.00    5.70
  -4  -7  10   48.50    5.30
  -4   7 -10   59.49    7.10
   4   7  10   40.90    6.20
   5   7 -10   22.20    3.90
  -5   7  10   33.00    5.90
  -5  -7 -10   13.30    4.20
  -5  -7 -10   20.60    5.50
  -5   7  10   30.10    6.40
   5   7 -10   18.80    3.80
  -5  -7 -10   10.20    4.90
  -5   7 -10   23.50    5.60
   5   7  10   17.50    4.50
   5  -7 -10   14.40    4.60
  -5  -7  10   21.70    4.90
  -5  -7  10   33.70    4.70
  -5   7 -10   25.60    4.90
   6   7 -10    4.90    2.80
   6   7 -10    6.50    2.70
  -6   7  10    7.10    4.10
  -6   7  10    0.10    3.40
  -6  -7 -10    6.20    4.20
  -6  -7 -10    4.10    3.90
   6  -7  10   11.90    2.70
  -6  -7  10    0.80    3.20
  -6   7 -10    7.80    3.60
   6   7  10    4.20    4.00
  -6   7 -10    5.20    3.50
  -6  -7  10   10.20    3.60
  -7  -7 -10   -4.90    3.90
  -7   7  10    2.40    3.60
   7   7 -10   -1.60    2.30
   7   7 -10    1.50    3.10
  -7   7  10    1.40    2.90
  -7  -7 -10    1.70    3.10
  -7  -7  10   -3.70    3.10
  -7   7 -10   -0.60    3.90
  -7   7 -10    1.10    3.20
   7   7  10    3.00    3.50
  -8   7  10   25.50    6.10
  -8  -7 -10   14.00    6.10
  -8   7  10   23.80    5.80
  -8  -7 -10   25.20    5.90
  -8   7 -10   19.90    5.50
  -8   7 -10   17.70    5.80
  -8  -7  10   14.90    5.80
   8   7  10   13.80    5.30
  -9  -7 -10   20.10    7.50
  -9   7  10   22.80    6.10
  -9   7  10   19.30    6.30
  -9  -7 -10   20.70    6.10
  -9  -7  10   21.60    7.10
  -9   7 -10   18.20    5.40
   0  -8 -10  111.29    8.40
   0  -8  10  107.29    5.30
   0  -8 -10  119.79   10.70
   0   8  10  102.59    8.40
   0  -8 -10  114.19    9.20
   0   8 -10  104.39    8.20
   0   8 -10  110.99    9.00
  -1  -8 -10   44.40    6.90
  -1  -8 -10   33.90    5.40
  -1   8  10   39.70    7.30
  -1   8  10   47.40    6.60
  -1  -8 -10   48.70    8.30
   1   8 -10   46.90    5.70
  -1  -8  10   35.50    5.20
   1   8  10   40.50    5.90
  -1   8 -10   37.40    5.50
  -1   8 -10   29.40    5.40
   1  -8 -10   35.20    6.10
  -2  -8 -10  905.21   33.00
  -2   8  10  854.21   31.30
   2   8 -10  935.11   29.50
  -2  -8 -10  890.01   34.00
   2   8 -10  862.01   26.30
  -2   8  10  925.41   33.60
  -2  -8  10  858.31   28.30
  -2  -8  10  846.62   29.10
  -2   8 -10  873.31   30.90
   2   8  10  866.81   30.80
  -2   8 -10  890.31   29.70
   2  -8 -10  885.61   31.30
   3   8 -10    1.00    2.50
  -3  -8 -10    7.20    4.40
  -3   8  10    9.50    4.10
  -3   8  10   -1.30    2.60
   3   8 -10    6.00    2.50
  -3   8 -10    2.40    2.60
   3  -8 -10    2.90    2.50
   3   8  10    7.00    3.40
  -3  -8  10    4.80    3.10
  -3   8 -10    8.90    3.60
  -3  -8  10    3.80    3.10
   3  -8 -10    2.90    3.00
  -4  -8 -10  768.62   31.90
   4   8 -10  703.73   25.70
  -4  -8 -10  730.83   30.60
  -4   8  10  776.62   30.10
  -4   8  10  772.72   29.20
  -4  -8  10  773.62   26.60
  -4   8 -10  747.73   27.90
  -4   8 -10  756.72   27.10
   4   8  10  733.33   28.50
   4  -8 -10  780.12   28.70
  -4  -8  10  757.22   28.00
  -5  -8 -10   51.99    7.70
  -5   8  10   58.79    8.50
   5   8 -10   56.99    6.30
  -5   8  10   77.29    8.40
   5   8 -10   66.29    6.50
  -5  -8 -10   89.89   10.40
   5   8  10   75.99    8.50
  -5  -8  10   80.09   11.70
  -5   8 -10   71.29    7.50
  -5  -8  10   63.79    8.50
  -5   8 -10   67.09    7.60
   5  -8 -10   87.89    8.60
   6   8 -10   20.40    4.00
   6   8 -10   21.20    4.20
  -6   8  10   21.40    5.50
  -6  -8 -10   21.50    5.50
  -6   8  10   25.20    5.40
  -6  -8 -10   23.50    6.80
  -6   8 -10   22.40    4.90
  -6   8 -10   18.70    5.00
   6  -8 -10   22.50    5.40
  -6  -8  10   21.70    4.40
   6   8  10   17.40    4.90
  -6  -8  10   16.40    5.00
  -7  -8 -10    0.40    3.30
  -7   8  10    1.50    3.50
  -7   8  10   -2.80    3.50
  -7  -8 -10    4.30    5.80
   7   8 -10    1.90    3.00
   7   8 -10    4.80    3.20
   7   8  10    1.90    3.60
  -7   8 -10    2.50    3.80
  -7  -8  10    3.40    4.20
  -7   8 -10   -0.70    2.70
  -8  -8 -10  106.79   12.50
  -8  -8 -10  107.59   13.20
  -8   8  10  106.79   11.50
  -8   8  10  125.59   11.40
   8   8 -10  112.69    9.30
   8   8  10  103.29   11.50
  -8   8 -10  120.59   10.90
  -8  -8  10  115.79   12.60
  -8   8 -10  107.39   10.90
   0   9 -10   -3.10    2.00
   0  -9 -10    1.30    2.70
   0   9 -10    1.50    2.60
   0   9  10   -1.50    2.30
   0  -9 -10   -1.70    2.30
  -1   9  10  136.79   10.60
   1   9 -10  154.98   10.40
  -1  -9 -10  175.48   16.60
  -1   9  10  146.69   12.20
  -1  -9 -10  144.69   10.80
   1  -9 -10  139.79   10.20
   1   9  10  151.18   11.00
   1  -9 -10  147.49   10.60
   1  -9 -10  136.69   12.00
  -1   9 -10  146.69   10.20
  -1   9 -10  140.29   10.00
  -1  -9  10  124.89   10.90
   2   9 -10  100.29    8.20
   2   9 -10   93.29    5.90
  -2  -9 -10   87.79    9.80
  -2   9  10   93.99    9.70
  -2   9  10   86.79    8.80
  -2  -9 -10   85.59    8.50
  -2   9 -10   89.09    8.00
  -2   9 -10  105.39    8.40
   2  -9 -10   85.99    8.20
  -2  -9  10   79.19    6.70
   2   9  10   91.19    8.70
   2  -9 -10   90.39    7.90
  -2  -9  10   92.79    8.10
   3   9 -10  124.09    9.10
  -3   9  10  132.89   10.80
   3   9 -10  127.39    7.80
  -3  -9 -10  131.79   11.70
  -3   9  10  136.79   11.40
  -3  -9 -10  117.29   11.10
  -3   9 -10  123.79    9.40
   3   9  10  132.79   10.50
   3  -9 -10  129.69    9.90
  -3   9 -10  141.39    9.90
  -3  -9  10  116.09    8.80
  -4  -9 -10   -0.10    3.60
   4   9 -10    5.50    3.00
  -4   9  10    0.50    3.10
  -4  -9 -10    0.20    3.10
  -4   9  10   17.80    4.90
  -4  -9  10    2.30    3.20
  -4   9 -10    4.80    3.40
  -4  -9  10    7.80    3.10
   4  -9 -10    7.70    3.40
   4   9  10    6.90    4.00
  -4   9 -10    5.90    3.70
  -5   9  10   10.30    4.60
   5   9 -10   13.90    3.50
  -5   9  10   12.70    5.30
   5   9 -10   12.30    3.90
  -5  -9 -10   20.50    6.50
  -5  -9 -10   12.40    5.10
   5  -9 -10   14.60    4.60
   5   9  10   12.00    5.00
  -5  -9  10   16.60    4.90
  -5   9 -10   15.70    4.40
  -5  -9  10    8.30    4.00
  -5   9 -10   11.30    4.10
   6   9 -10   13.50    4.20
  -6   9  10   11.30    4.80
   6   9 -10    9.80    3.70
  -6  -9 -10   13.40    5.50
  -6   9  10    5.30    4.30
  -6  -9 -10   14.80    4.90
  -6  -9  10   18.20    6.00
  -6   9 -10   16.90    4.80
   6  -9 -10   12.00    4.60
   6   9  10   11.60    4.50
  -6   9 -10   13.40    4.10
   7   9 -10   37.80    5.90
  -7   9  10   48.00    8.20
  -7  -9 -10   53.69   10.40
  -7   9  10   50.09    8.70
   7   9 -10   41.00    6.40
  -7  -9 -10   43.60    8.20
  -7   9 -10   59.29    7.40
   7   9  10   40.90    8.00
  -7   9 -10   49.50    7.90
  -7  -9  10   37.60    7.90
  -8   9  10   36.00    7.20
  -8  -9 -10   33.50    8.50
  -8   9  10   27.60    7.10
   8   9 -10   29.20    5.70
  -8  -9 -10   31.70    7.10
  -8   9 -10   31.40    6.60
  -8   9 -10   32.60    6.30
   8   9  10   38.20   11.50
  -8  -9  10   31.80    8.40
   0  10 -10    3.20    3.30
   0 -10  10    3.00    1.80
   0 -10 -10    4.50    3.20
   0 -10 -10    1.90    2.90
   0  10 -10    2.40    3.20
   0  10  10    0.20    3.40
  -1 -10 -10   48.50    8.60
  -1  10  10   37.20    6.90
   1  10 -10   33.10    5.70
  -1 -10 -10   33.10    6.20
  -1  10  10   19.00    5.20
  -1  10 -10   32.50    5.90
   1  10  10   31.80    6.20
  -1 -10  10   26.60    5.60
  -1  10 -10   31.50    5.60
   1 -10 -10   31.80    5.90
   1 -10 -10   24.90    5.90
  -2  10  10   35.30    7.40
  -2  10  10   29.20    6.50
  -2 -10 -10   22.20    6.40
  -2 -10 -10   23.40    5.60
   2  10 -10   27.20    3.80
   2  10 -10   29.40    5.70
   2 -10 -10   31.10    5.80
  -2 -10  10   20.90    5.10
  -2  10 -10   26.70    5.20
   2  10  10   21.50    5.60
  -2 -10  10   18.40    4.00
  -2  10 -10   24.90    5.00
  -3  10  10    1.00    3.30
  -3  10  10   -2.10    3.50
  -3 -10 -10    6.50    3.80
   3  10 -10    5.70    2.60
  -3 -10 -10    6.00    3.80
   3  10 -10    0.90    2.90
  -3  10 -10    2.10    2.80
   3 -10 -10    2.70    3.10
   3  10  10    2.90    3.40
  -3  10 -10    2.20    3.00
  -3 -10  10   -0.50    3.20
  -3 -10  10    0.40    2.60
   4  10 -10    9.00    3.70
  -4  10  10   -2.90    3.00
  -4  10  10    9.00    4.10
   4  10 -10    6.70    3.10
  -4 -10 -10   -0.40    3.50
  -4 -10 -10    6.30    3.70
   4 -10 -10   10.70    3.80
  -4  10 -10    4.70    3.40
  -4  10 -10    2.50    4.00
   4  10  10    5.90    4.20
  -4 -10  10    4.90    3.10
  -5 -10 -10   22.90    6.30
  -5 -10 -10   28.00    6.70
   5  10 -10   27.20    4.90
  -5  10  10   19.10    5.50
  -5  10  10   29.60    6.90
   5  10 -10   25.30    5.70
   5 -10 -10   23.60    5.50
  -5  10 -10   23.30    4.70
  -5 -10  10   20.50    5.50
  -5  10 -10   24.90    5.80
   5  10  10   19.20    5.20
  -6 -10 -10   -1.60    4.40
  -6  10  10    5.50    3.90
  -6  10  10    7.80    4.30
   6  10 -10    2.20    3.00
  -6 -10 -10   10.70    5.30
   6  10 -10   -3.30    2.90
  -6  10 -10    5.60    4.00
  -6 -10  10    5.70    4.60
  -6  10 -10   -3.70    3.00
   6 -10 -10    2.10    3.20
   6  10  10    3.50    4.30
   7  10 -10    3.40    3.80
  -7 -10 -10   10.10    4.90
  -7  10  10   11.40    4.40
  -7  10  10   -1.90    4.30
  -7  10 -10   12.70    4.20
   7  10  10   -0.40    4.30
  -7 -10  10    0.90    4.70
  -7  10 -10   -1.20    3.60
   0 -11  10   -0.60    1.70
   0  11 -10    1.30    3.10
   0 -11 -10    4.00    3.40
   0 -11 -10   -2.00    2.50
   0  11 -10   -4.90    2.40
   0  11  10   -0.80    3.50
   1  11 -10  206.08   13.60
  -1 -11 -10  204.88   13.50
  -1  11  10  160.68   13.50
  -1 -11 -10  215.58   15.40
  -1  11 -10  176.48   12.60
   1  11  10  215.88   14.90
   1 -11 -10  197.88   14.90
  -1  11 -10  194.08   12.00
   1 -11 -10  204.98   12.70
   2  11 -10   16.50    4.70
  -2  11  10   16.10    5.40
  -2  11  10   27.50    6.10
  -2 -11 -10   16.60    5.20
  -2 -11  10   15.20    6.60
   2 -11 -10   21.60    5.10
  -2  11 -10   19.90    4.50
   2  11  10   14.70    5.30
  -2  11 -10   21.60    5.30
  -3 -11 -10  149.99   12.90
   3  11 -10  153.48    9.30
   3  11 -10  172.28   12.00
  -3 -11 -10  155.88   13.50
  -3  11  10  156.48   13.60
  -3  11  10  178.88   13.50
  -3  11 -10  170.88   10.50
   3 -11 -10  164.68   11.10
  -3  11 -10  154.78   11.40
  -3 -11  10  148.89   10.90
   3  11  10  162.68   13.00
  -4  11  10   -1.70    4.00
  -4 -11 -10    3.60    4.20
  -4 -11 -10    0.00    4.20
   4  11 -10    7.40    4.10
  -4  11  10   -2.50    3.30
   4  11 -10    5.00    2.20
  -4  11 -10    1.90    3.50
   4  11  10    0.00    3.60
  -4  11 -10    6.40    3.00
   4 -11 -10    9.40    4.00
  -4 -11  10    3.40    3.60
  -5  11  10   53.19    8.30
   5  11 -10   65.79    7.80
  -5  11  10   58.09    9.50
  -5 -11 -10   34.10    7.00
   5  11 -10   56.09    6.60
  -5 -11 -10   62.29    9.80
   5 -11 -10   57.99    7.60
  -5  11 -10   63.19    6.80
  -5  11 -10   53.79    8.10
  -5 -11  10   51.39    8.50
   5  11  10   51.89    9.10
  -6  11  10    4.90    4.00
  -6  11  10    0.50    4.30
   6  11 -10    3.80    3.90
  -6 -11 -10   -5.20    4.30
   6 -11 -10   -3.00    3.70
   6  11  10    0.80    4.70
  -6 -11  10   -0.90    4.60
  -6  11 -10    1.30    3.10
  -6  11 -10    0.90    3.60
  -7  11  10   12.90    6.30
   7  11 -10   16.00    5.10
  -7 -11 -10   10.90   10.00
  -7 -11 -10   17.20    6.30
  -7  11  10   22.00    7.20
   7  11  10   23.90   10.10
   7 -11 -10   23.90    6.50
  -7 -11  10    8.90    6.50
  -7  11 -10   15.50    4.50
  -7  11 -10   23.50    6.30
   0  12  10   35.00    7.50
   0 -12  10   35.50    4.60
   0  12 -10   43.90    6.70
   0 -12 -10   33.40    6.50
   0  12 -10   43.30    7.50
   0 -12 -10   43.30    6.90
  -1 -12 -10   -0.20    3.30
   1  12 -10    4.40    4.30
  -1  12  10   -4.40    3.60
  -1 -12 -10    1.10    3.50
  -1  12 -10    3.60    3.80
   1 -12 -10    2.00    2.90
   1 -12 -10   -1.80    3.30
  -1  12 -10   -2.10    2.70
  -1 -12  10    0.90    3.20
   1  12  10    1.70    4.60
  -2 -12 -10  239.68   15.70
  -2  12  10  239.08   17.10
   2  12 -10  239.08   15.20
  -2  12  10  255.67   17.30
  -2 -12 -10  265.57   17.90
  -2 -12  10  207.48   15.40
   2 -12 -10  280.77   18.30
   2 -12 -10  252.67   14.20
  -2  12 -10  246.28   15.20
   2  12  10  261.87   17.50
   3  12 -10    2.80    3.60
  -3  12  10    3.20    4.30
   3  12 -10   -0.30    2.50
  -3 -12 -10    0.90    3.60
  -3 -12 -10    2.70    4.30
  -3  12  10    5.80    4.40
   3  12  10   -3.10    4.40
  -3  12 -10    4.60    2.70
  -3 -12  10    3.40    3.40
   3 -12 -10    2.60    3.40
  -3  12 -10    3.00    3.40
  -4 -12 -10  345.87   21.20
   4  12 -10  361.86   18.80
  -4 -12 -10  330.67   20.20
  -4  12  10  339.67   21.00
   4  12 -10  322.07   15.70
  -4  12  10  321.37   19.80
   4  12  10  356.56   21.10
   4 -12 -10  330.87   16.50
  -4  12 -10  334.57   18.30
  -4  12 -10  331.97   14.60
  -4 -12  10  315.57   18.50
  -5  12  10    3.90    4.00
   5  12 -10    7.70    4.90
  -5 -12 -10    9.40    6.00
  -5 -12 -10    0.30    5.50
  -5  12  10    5.00    4.80
  -5 -12  10    2.70    5.40
   5 -12 -10    1.50    3.50
  -5  12 -10   12.80    4.60
   5  12  10    3.90    5.40
  -5  12 -10    9.20    3.30
  -6 -12 -10   18.90    6.10
  -6 -12 -10    9.90   10.80
   6  12 -10   18.40    5.10
  -6  12  10   28.40    7.60
   6 -12 -10   21.30    5.10
   6  12  10    8.10    5.80
  -6  12 -10   18.50    4.10
  -6  12 -10   29.90    6.80
  -6 -12  10   17.80    6.30
   0  13 -10   -4.80    2.70
   0  13 -10   -1.30    3.00
   0 -13  10   -3.40    2.60
   0  13  10   -3.70    5.10
   0  13 -10    1.50    4.10
   0 -13 -10    2.60    3.20
   0 -13 -10   -1.20    3.40
  -1  13  10    7.70    5.70
  -1 -13 -10   12.00    5.30
   1  13 -10   19.30    6.00
  -1 -13 -10   15.90    5.50
   1 -13 -10   12.90    4.60
  -1  13 -10   11.40    5.00
   1 -13 -10    9.00    4.80
   1  13  10   22.00    7.10
  -1  13 -10    9.60    3.90
  -1 -13  10    8.30    3.80
   2  13 -10    6.00    4.90
  -2 -13 -10    7.10    4.40
  -2  13  10    4.30    5.00
  -2 -13 -10    2.00    4.10
  -2  13 -10   -2.10    2.70
   2 -13 -10    1.50    3.30
  -2 -13  10    3.80    3.40
   2 -13 -10    5.80    5.00
  -2  13 -10   -2.30    3.50
   2  13  10    0.10    4.50
  -3 -13 -10   11.10    4.90
  -3  13  10    4.70    4.60
   3  13 -10    1.10    4.30
  -3 -13 -10    4.10    4.00
  -3 -13  10    6.00    4.70
   3 -13 -10    1.10    3.80
  -3  13 -10    4.00    4.00
  -3  13 -10    4.00    3.00
   3  13  10    3.70    5.60
  -4 -13 -10   -4.60    4.10
  -4  13  10   -2.50    3.60
  -4  13  10    1.70    5.10
  -4  13 -10    1.90    2.50
   4 -13 -10   -4.50    3.30
  -4 -13  10    1.00    4.80
  -4  13 -10    0.40    4.00
   4  13  10   -2.00    4.70
   5  13 -10   12.30    5.20
  -5  13  10    0.40    5.40
  -5  13  10    3.70    8.10
  -5 -13 -10   13.60    5.80
  -5 -13 -10    9.60    5.60
  -5  13 -10    3.40    4.20
  -5 -13  10   10.50    5.50
   5 -13 -10    2.90    3.60
   5  13  10   18.20    6.30
   0 -14 -10  116.09   12.10
   0  14 -10  138.59   12.50
   0  14  10  119.49   13.20
   0  14 -10  129.69    9.80
   0 -14 -10  126.09   12.80
   1  14 -10   10.30    4.90
  -1  14  10   10.40    6.60
  -1 -14 -10    5.10    4.60
  -1 -14 -10    8.70    4.30
   1 -14 -10   14.30    5.20
  -1  14 -10   11.30    5.50
   1 -14 -10    4.90    4.40
  -1  14 -10    3.40    3.90
  -1 -14  10    8.50    3.80
   1  14  10    6.20    5.90
   2  14 -10  219.68   15.60
  -2 -14 -10  203.98   15.10
  -2  14  10  207.08   17.20
  -2 -14 -10  234.08   17.20
  -2 -14  10  177.88   13.40
   2 -14 -10  207.98   17.10
  -2  14 -10  225.78   11.10
   2  14  10  201.28   17.40
   2 -14 -10  194.88   13.00
  -2  14 -10  203.48   15.10
   3  14 -10   -1.10    4.30
  -3 -14 -10    4.20    4.50
  -3  14  10    4.80    5.00
  -3 -14 -10    1.10    4.10
   3  14  10   -4.50    4.90
  -3  14 -10    7.80    4.50
   3 -14 -10    1.40    3.10
  -3 -14  10    3.70    4.40
   3 -14 -10    4.70    4.80
  -3  14 -10    5.90    2.80
  -4  14  10  201.98   16.30
  -4  14  10  198.48   16.10
  -4 -14 -10  187.78   16.20
   4  14 -10  166.88   14.40
  -4 -14 -10  170.78   15.00
   4  14  10  169.68   16.80
  -4 -14  10  195.68   15.80
  -4  14 -10  196.58   14.80
   4 -14 -10  195.48   12.70
   0 -15 -10    3.20    4.20
   0  15  10   -6.60    4.80
   0  15 -10   -4.70    3.10
  -1 -15 -10   28.10    6.80
   1  15 -10   20.00    6.70
  -1 -15 -10   15.50    5.80
  -1  15  10   16.30    7.60
  -1  15 -10   24.40    6.80
  -1  15 -10   19.30    4.40
   1 -15 -10   29.60    6.30
   1  15  10   21.40    7.90
  -2 -15 -10   57.09   11.50
   2  15 -10   54.59    9.70
  -2 -15 -10   48.70    8.50
  -2  15  10   58.89   10.80
   2  15  10   45.20    9.80
   2 -15 -10   51.99    7.70
   2 -15 -10   26.40   10.90
  -2  15 -10   56.29    8.60
   0   0  11   -1.10    1.40
   0   0 -11    1.30    2.50
   0   0 -11    0.80    1.00
  -1   0 -11   -1.70    1.70
  -1   0 -11    0.30    1.10
   1   0  11   -1.50    1.20
  -1   0 -11   -1.70    1.50
   1   0 -11    3.50    3.00
  -1   0 -11    1.20    1.10
  -1   0  11    2.70    1.60
   1   0 -11    0.70    1.30
   2   0 -11   -0.10    1.40
  -2   0  11    1.20    2.10
  -2   0 -11   -0.80    1.30
  -2   0 -11    0.90    2.30
  -2   0 -11    2.10    1.40
  -2   0 -11    5.90    1.60
  -3   0 -11    0.50    1.60
  -3   0 -11    2.10    1.60
   3   0 -11   -1.00    1.40
  -3   0 -11   -1.40    1.10
  -3   0 -11   -1.20    2.50
  -3   0  11   -0.90    1.90
  -4   0 -11   12.00    2.60
  -4   0  11   -0.60    1.70
  -4   0 -11   -1.90    1.70
  -4   0 -11   -3.20    2.10
  -4   0 -11    0.00    1.40
  -5   0  11    0.90    1.00
  -5   0 -11   -0.90    1.30
  -5   0 -11   -2.50    1.40
  -5   0  11   -0.30    1.20
  -5   0  11    0.60    2.30
  -5   0 -11   -3.40    2.60
   5   0 -11   -1.40    1.90
  -6   0 -11   -2.90    1.90
   6   0 -11    0.90    2.80
  -6   0  11    3.10    1.80
  -6   0  11   -1.70    1.50
  -6   0  11    2.00    3.00
  -6   0 -11   -0.90    1.70
  -6   0 -11    0.40    3.60
  -7   0 -11   -1.60    1.70
  -7   0  11    0.90    1.80
  -7   0  11   -1.30    2.80
  -7   0  11   -0.40    2.00
  -7   0 -11   -1.50    2.30
  -7   0 -11   -8.50    3.00
  -8   0  11    0.20    2.70
  -8   0 -11    2.50    3.80
  -8   0  11   -1.30    2.60
  -8   0  11    2.70    3.80
  -8   0 -11    2.30    2.30
  -9   0 -11   -0.60    5.00
  -9   0 -11    1.40    2.40
  -9   0  11   -2.60    3.60
   0   1 -11    2.70    2.50
   0  -1 -11    3.20    2.40
   0  -1 -11   -0.20    1.10
   0  -1  11    1.10    1.40
   0   1 -11   -1.30    1.10
   0   1  11    0.20    1.50
  -1  -1 -11   75.69    4.50
   1   1 -11   73.29    7.90
   1   1 -11   82.79    5.20
  -1   1  11   70.59    6.30
  -1  -1 -11   74.39    6.30
  -1  -1 -11   74.39    5.30
  -1  -1 -11   81.69    8.00
   1  -1  11   69.79    5.80
  -1   1 -11   67.19    3.70
   1  -1 -11   68.09    7.40
  -1   1 -11   76.29    5.90
  -1   1 -11   71.29    7.50
   1  -1 -11   73.59    5.60
  -1   1 -11   84.49    4.20
  -1   1 -11   71.29    4.40
   1   1  11   74.79    6.70
  -1  -1  11   75.89    5.90
  -2  -1 -11   58.19    4.50
  -2  -1 -11   58.19    4.90
  -2   1  11   69.09    6.40
  -2  -1 -11   57.89    5.40
  -2  -1 -11   59.19    7.20
  -2   1 -11   53.09    6.00
   2  -1 -11   59.09    5.40
  -2   1 -11   63.09    4.00
  -2   1 -11   69.49    7.70
   2  -1 -11   65.69    7.20
  -2   1 -11   57.69    4.30
  -2  -1  11   76.39    6.20
  -3  -1 -11 1860.11   56.89
  -3   1  11 1728.73   52.89
  -3  -1 -11 1753.22   49.90
  -3  -1 -11 1800.52   50.59
  -3  -1 -11 1786.12   49.99
   3   1 -11 1799.92   51.09
  -3   1 -11 1828.72   56.49
  -3   1 -11 1770.62   47.90
  -3   1 -11 1825.12   47.60
   3  -1 -11 1797.62   51.89
  -3  -1  11 1818.22   52.69
  -3   1 -11 1833.52   49.90
  -4  -1 -11    2.70    2.00
   4   1 -11    3.60    2.10
  -4   1  11    6.00    3.00
  -4  -1 -11    4.10    3.30
  -4  -1 -11    8.50    2.60
  -4   1 -11    7.10    1.80
   4  -1 -11    3.50    2.10
  -4   1 -11    8.20    2.70
  -4  -1  11   11.20    3.60
  -4   1 -11    3.90    1.50
  -4   1 -11    1.30    2.80
  -5  -1 -11    4.00    4.00
  -5  -1 -11   -0.10    1.70
   5   1 -11    1.20    2.20
  -5  -1 -11   -1.60    2.00
  -5   1  11   -0.10    2.40
  -5   1  11    2.10    1.40
  -5   1 -11    2.40    1.50
  -5   1 -11    2.70    1.60
  -5   1 -11    2.00    3.40
   5  -1 -11    3.60    2.20
  -5  -1  11   16.40    4.50
  -5  -1  11    1.00    1.20
  -5  -1  11    2.60    1.30
  -6  -1 -11   56.49    9.20
  -6  -1 -11   51.89    7.00
  -6   1  11   59.29    4.30
   6   1 -11   52.39    6.30
  -6  -1 -11   61.19    5.70
  -6   1  11   53.89    7.90
  -6   1  11   57.99    4.70
  -6   1 -11   53.09    8.60
  -6  -1  11   55.09    4.20
  -6  -1  11   58.99    4.40
  -6   1 -11   58.99    4.70
  -6   1 -11   54.49    5.10
  -6  -1  11   64.49    7.60
  -7   1  11   22.20    5.20
  -7   1  11   35.90    4.10
  -7  -1 -11   43.10    6.60
  -7  -1 -11   33.10    7.70
  -7   1  11   33.70    4.50
  -7  -1 -11   27.50    5.60
  -7  -1  11   41.10    4.30
  -7   1 -11   32.40    7.20
  -7   1 -11   44.70    5.50
  -7  -1  11   21.20    5.30
  -7   1 -11   36.40    4.30
  -8   1  11   52.79    8.20
  -8   1  11   62.99    6.70
  -8  -1 -11   61.39   11.40
  -8  -1 -11   61.89    6.50
  -8   1 -11   61.69   10.70
  -8  -1  11   59.29    9.30
  -9   1  11  221.18   16.40
  -9   1  11  226.88   12.70
  -9  -1 -11  225.98   12.80
  -9  -1 -11  205.18   18.40
  -9   1 -11  240.18   19.50
  -9  -1  11  207.48   16.10
  -9   1 -11  213.58   11.40
   0  -2 -11 1395.16   44.40
   0  -2 -11 1362.16   40.10
   0   2  11 1371.16   42.60
   0  -2  11 1425.06   39.70
   0   2 -11 1390.26   44.80
   0   2 -11 1381.96   37.10
   0  -2 -11 1291.27   36.40
  -1   2  11  440.76   18.20
   1   2 -11  452.95   20.30
  -1  -2 -11  443.66   16.40
   1  -2  11  399.26   15.70
  -1  -2 -11  418.16   14.50
   1   2 -11  442.76   14.80
  -1  -2 -11  457.65   20.30
  -1  -2 -11  406.46   17.60
  -1   2 -11  432.26   13.90
  -1   2 -11  441.96   13.20
  -1   2 -11  451.85   20.10
   1  -2 -11  414.36   16.60
   1   2  11  438.76   19.00
   1  -2 -11  450.15   20.10
  -1  -2  11  430.06   16.30
  -1   2 -11  451.95   13.60
  -1   2 -11  468.55   16.70
  -2   2  11  753.72   26.10
   2   2 -11  711.53   22.80
  -2  -2 -11  737.03   28.30
  -2  -2 -11  721.03   25.00
  -2  -2 -11  684.23   22.30
  -2   2 -11  739.13   19.60
  -2   2 -11  707.53   21.60
  -2   2 -11  692.53   19.70
  -2   2 -11  710.93   21.80
   2  -2 -11  733.23   28.10
  -2  -2  11  697.23   24.20
  -2   2 -11  716.93   28.00
   2  -2 -11  738.53   24.80
  -3   2  11   14.30    3.90
  -3  -2 -11    0.10    1.70
  -3  -2 -11   -2.30    1.20
  -3  -2 -11    4.40    3.30
   3   2 -11    1.60    1.50
   3  -2 -11    2.00    1.90
  -3   2 -11    3.90    3.00
  -3  -2  11   -0.40    1.70
  -3   2 -11   -0.90    1.70
  -4  -2 -11  272.07   12.60
  -4  -2 -11  278.47   12.80
  -4  -2 -11  269.57   16.20
  -4   2  11  283.07    8.40
  -4  -2 -11  307.57   16.70
  -4   2  11  270.37   14.60
   4   2 -11  253.87   12.60
  -4  -2  11  268.27   14.00
  -4   2 -11  277.07    8.90
  -4   2 -11  270.97   15.90
  -4   2 -11  284.97    9.00
   4  -2 -11  311.97   16.40
  -5   2  11  438.06   19.90
  -5  -2 -11  418.86   17.10
  -5   2  11  403.36   14.50
  -5  -2 -11  429.66   18.50
  -5  -2 -11  429.66   22.20
   5   2 -11  415.76   17.60
  -5   2  11  429.46   13.50
  -5   2 -11  434.86   21.80
  -5  -2  11  401.46   13.10
  -5  -2  11  417.76   19.10
   5  -2 -11  424.06   18.60
  -5   2 -11  442.76   13.30
  -6   2  11  327.07   12.40
  -6  -2 -11  360.66   21.00
  -6   2  11  330.67   17.80
   6   2 -11  339.77   16.30
  -6  -2 -11  351.86   15.40
  -6   2  11  359.86   13.60
  -6  -2 -11  328.67   17.10
  -6  -2  11  364.16   18.40
  -6   2 -11  352.06   12.00
  -6   2 -11  366.26   20.70
  -6   2 -11  342.37   12.70
  -6  -2  11  353.06   12.50
  -7   2  11   23.50    4.10
  -7   2  11   24.20    3.80
  -7  -2 -11   24.00    5.20
  -7   2  11   26.70    6.10
  -7  -2 -11   31.80    7.70
  -7  -2 -11   38.90    5.70
  -7   2 -11   30.00    3.60
  -7  -2  11   35.20    6.80
  -7   2 -11   28.20    7.20
  -7   2 -11   21.70    3.80
  -7  -2  11   36.60    4.10
  -8  -2 -11  177.18   11.10
  -8   2  11  166.88   13.60
  -8   2  11  152.18    9.80
  -8  -2 -11  191.28   17.20
  -8   2  11  178.38    9.80
  -8   2 -11  174.78    8.80
  -8  -2  11  176.38   14.20
  -8  -2  11  149.09   10.40
  -8   2 -11  170.58   15.70
  -9  -2 -11   10.40    7.40
  -9   2  11    6.20    3.80
  -9   2  11    0.90    3.90
  -9  -2 -11    3.60    3.20
  -9   2 -11    2.40    2.30
  -9  -2  11    6.90    5.00
  -9   2 -11    2.40    4.90
   0  -3 -11    0.00    1.80
   0   3 -11    0.60    0.90
   0   3  11    0.70    2.10
   0  -3 -11    1.70    2.00
   0   3 -11   -0.60    1.00
   0  -3  11    0.40    1.20
   0   3 -11   -0.90    1.20
   0  -3 -11    2.30    2.40
   0   3 -11    1.30    0.90
   0   3 -11    0.00    2.30
   0   3  11    4.00    1.40
   0  -3 -11    2.10    1.50
  -1   3  11   20.10    1.90
  -1  -3 -11   13.90    2.60
  -1   3  11   19.50    4.30
  -1  -3 -11   20.20    4.70
  -1  -3 -11   10.70    3.50
   1  -3  11   20.00    3.20
   1   3 -11   17.40    2.50
  -1  -3 -11   23.10    4.00
  -1   3 -11   11.50    4.10
  -1  -3  11   22.60    3.50
   1   3  11   21.00    2.80
   1  -3 -11   15.00    1.80
   1  -3 -11   20.30    4.00
  -1   3 -11   17.20    2.40
  -1   3 -11   19.80    2.40
   1  -3 -11   17.80    4.70
  -2   3  11   74.39    7.20
  -2  -3 -11   65.49    5.20
  -2  -3 -11   74.59    6.40
  -2  -3 -11   75.39    7.00
  -2  -3 -11   64.29    7.30
   2   3 -11   73.59    5.00
  -2   3 -11   71.39    4.90
   2  -3 -11   70.19    7.60
   2  -3 -11   69.09    6.20
   2   3  11   67.39    5.10
  -2   3 -11   68.69    4.90
  -2   3 -11   73.79    8.00
  -2  -3  11   74.69    5.80
  -3  -3 -11  234.38   12.20
  -3  -3 -11  241.18   12.60
  -3  -3 -11  239.28   11.10
  -3  -3 -11  243.78   14.80
   3   3 -11  243.88   12.30
  -3   3  11  231.08   13.10
  -3   3  11  237.58    8.10
  -3  -3  11  242.08   12.20
   3   3  11  244.28   11.30
  -3   3 -11  234.38   14.30
   3  -3 -11  232.68   12.30
  -3   3 -11  244.08   10.70
  -3   3 -11  240.28   10.60
  -4  -3 -11   40.00    4.80
  -4   3  11   37.00    5.70
  -4   3  11   46.50    3.40
  -4   3  11   44.00    3.80
  -4  -3 -11   49.90    5.80
  -4  -3 -11   53.59    6.00
   4   3 -11   54.79    5.30
  -4  -3 -11   48.10    7.60
  -4  -3  11   47.90    6.00
  -4   3 -11   44.00    7.10
  -4   3 -11   50.49    5.10
   4  -3 -11   49.50    5.90
   5  -3  11   24.00    5.60
  -5   3  11   15.00    2.40
  -5  -3 -11   18.60    4.10
  -5   3  11   18.90    4.80
  -5  -3 -11   29.60    5.60
  -5   3  11   18.30    3.30
   5   3 -11   24.60    4.10
  -5   3 -11   32.20    6.40
  -5  -3  11   20.20    4.00
  -5  -3  11   16.90    4.70
  -6  -3 -11    4.70    3.10
  -6  -3 -11    6.80    4.50
  -6  -3 -11    2.00    3.50
  -6   3  11    9.30    2.40
  -6   3  11    4.70    2.60
  -6   3  11    3.90    3.30
   6   3 -11    8.70    4.20
  -6   3 -11    9.30    5.00
  -6  -3  11    9.80    3.70
  -6  -3  11    9.00    2.40
  -7  -3 -11   -0.90    2.90
  -7   3  11    2.70    2.20
  -7  -3 -11   -0.30    4.90
  -7  -3 -11    2.00    2.90
  -7   3  11   -3.90    3.00
  -7   3  11    4.80    4.40
  -7   3 -11    1.20    1.90
  -7   3 -11    4.40    5.50
  -7  -3  11   -1.90    2.00
  -7  -3  11    6.00    4.00
  -7   3 -11    1.80    1.40
  -8  -3 -11   31.70    8.30
  -8   3  11   21.10    4.10
  -8  -3 -11   14.60    4.40
  -8   3  11   20.40    6.00
  -8   3  11   18.60    4.50
  -8  -3  11   19.90    6.90
  -8   3 -11   17.00    3.90
  -8   3 -11   25.90    3.50
  -8  -3  11   23.90    6.40
  -8   3 -11   18.10    7.30
  -9   3  11   41.50    8.20
  -9   3  11   32.80    5.70
  -9  -3 -11   37.00    6.30
  -9  -3  11   26.90    6.40
  -9   3 -11   29.80    9.00
  -9   3 -11   35.60    4.50
   0   4 -11 1055.69   29.70
   0   4  11 1006.60   35.80
   0  -4 -11 1072.59   31.00
   0  -4 -11 1048.40   33.80
   0   4  11 1053.99   29.70
   0  -4 -11 1049.00   36.20
   0   4 -11 1073.69   36.90
   0  -4 -11 1023.20   36.00
  -1   4  11  735.33   21.20
   1  -4  11  713.93   21.60
   1   4 -11  738.93   21.20
  -1  -4 -11  723.63   25.60
  -1  -4 -11  747.73   23.70
  -1  -4 -11  701.93   27.20
  -1  -4 -11  723.53   28.00
  -1   4  11  735.13   27.20
   1  -4 -11  740.53   27.80
   1   4  11  726.93   22.60
   1  -4 -11  681.53   25.30
  -1  -4  11  751.42   23.40
  -1   4 -11  730.63   28.10
  -1   4 -11  756.72   22.30
   1  -4 -11  724.83   21.50
  -2  -4 -11 1049.89   36.80
  -2  -4 -11 1010.70   33.80
  -2  -4 -11 1000.90   34.90
  -2  -4 -11 1021.40   31.80
  -2   4  11 1033.90   28.80
   2   4 -11 1021.20   30.00
  -2   4  11 1053.39   35.20
   2  -4 -11 1023.30   33.90
  -2   4 -11 1072.19   36.60
  -2   4 -11 1038.20   30.40
   2  -4 -11 1044.90   36.20
  -2  -4  11 1096.59   32.30
   2   4  11 1038.30   31.20
  -3   4  11    8.70    2.00
  -3   4  11   10.00    3.40
  -3  -4 -11   13.00    3.10
  -3  -4 -11   11.70    3.20
   3   4 -11   10.90    2.50
  -3  -4 -11   15.70    4.00
  -3  -4 -11    8.40    4.10
  -3   4 -11   10.20    4.10
  -3  -4  11   12.30    3.30
   3  -4 -11   17.00    4.80
   3  -4 -11    7.30    2.90
   3   4  11   14.70    3.20
  -3   4 -11   15.60    3.10
  -3   4 -11   13.00    2.90
  -4  -4 -11  587.04   21.80
  -4  -4 -11  569.24   25.80
  -4  -4 -11  603.44   23.40
  -4   4  11  593.44   24.20
   4   4 -11  578.34   21.00
  -4  -4 -11  598.24   24.00
  -4   4  11  539.65   19.50
  -4   4 -11  595.84   25.50
   4  -4 -11  570.04   23.10
  -4  -4  11  643.24   23.50
  -4   4 -11  593.04   21.20
  -4   4 -11  626.84   21.50
  -4  -4  11  577.54   17.50
   4   4  11  602.04   21.90
  -5  -4 -11  461.95   21.40
  -5   4  11  466.15   17.90
  -5  -4 -11  470.45   19.90
  -5   4  11  495.55   21.70
   5   4 -11  453.15   18.50
  -5  -4 -11  475.95   23.90
  -5  -4  11  469.25   16.00
  -5   4 -11  431.26   22.00
  -5  -4  11  457.65   20.40
  -6   4  11  261.67   15.70
  -6  -4 -11  256.07   14.00
  -6  -4 -11  249.28   15.90
  -6   4  11  243.78   10.70
  -6  -4 -11  254.87   17.70
  -6   4  11  253.87   12.30
  -6  -4  11  260.07   15.40
  -6  -4  11  247.28   10.90
  -6   4 -11  257.47   16.90
  -7   4  11   88.99    9.80
  -7  -4 -11   87.59   12.60
  -7  -4 -11   74.19    8.10
  -7   4  11   80.39    7.20
  -7   4  11   60.19    6.20
  -7  -4 -11   71.49   10.10
  -7  -4  11   68.29    6.20
  -7  -4  11   61.39    8.70
  -7   4 -11   67.89   10.50
  -8  -4 -11  168.28   16.90
  -8   4  11  175.28   14.20
  -8  -4 -11  163.28   11.90
  -8   4  11  171.88   11.00
  -8  -4  11  169.98   14.00
  -8   4 -11  163.18   15.10
  -8   4 -11  181.08    7.50
  -8  -4  11  169.18   10.20
  -8   4 -11  163.28    8.00
  -9  -4 -11    8.30    7.00
  -9   4  11   13.20    5.80
  -9  -4 -11    6.00    3.30
  -9   4  11    0.90    3.40
  -9   4 -11    4.30    5.20
  -9  -4  11    1.00    3.80
  -9   4 -11    4.30    2.30
   0   5  11    2.20    3.80
   0  -5  11    1.40    1.30
   0  -5 -11   -0.50    2.40
   0   5  11    2.50    1.70
   0   5 -11    2.40    2.80
   0  -5 -11    2.10    2.40
   0   5 -11   -1.20    1.40
   0  -5 -11    1.00    2.50
  -1   5  11    9.30    2.30
  -1  -5 -11    5.90    3.00
  -1  -5 -11   10.30    3.70
   1   5 -11    8.50    1.60
   1   5 -11    8.90    2.00
  -1  -5 -11    7.90    3.10
  -1   5  11   11.60    3.90
  -1  -5 -11   15.00    3.00
   1   5  11    8.90    2.50
   1  -5 -11    8.90    2.30
  -1   5 -11   10.70    3.50
  -1   5 -11    7.60    2.40
  -1  -5  11    9.00    2.40
   1  -5 -11    1.90    2.30
   1  -5 -11    5.80    3.20
  -2   5  11  384.86   18.30
   2   5 -11  385.36   13.70
  -2   5  11  414.36   14.40
  -2  -5 -11  402.06   16.00
   2   5 -11  389.86   12.20
  -2  -5 -11  358.16   18.10
  -2  -5 -11  411.16   19.50
  -2  -5 -11  402.56   18.00
  -2   5 -11  392.66   14.70
   2  -5 -11  389.96   13.40
   2  -5 -11  396.56   18.60
  -2  -5  11  383.46   15.40
   2   5  11  377.56   15.50
  -2   5 -11  391.46   18.80
   2  -5 -11  404.36   21.90
  -3   5  11  296.97   15.60
   3   5 -11  260.27   11.40
  -3  -5 -11  266.97   15.80
  -3  -5 -11  279.57   13.00
  -3  -5 -11  292.27   15.30
  -3  -5 -11  273.67   14.90
  -3   5  11  257.87   11.60
   3   5 -11  274.97    9.30
  -3   5 -11  268.77   12.00
  -3   5 -11  270.77   15.40
  -3  -5  11  264.77    9.70
   3   5  11  294.07   13.20
  -3  -5  11  280.17   13.20
   3  -5 -11  272.87   15.30
   3  -5 -11  263.67   14.10
  -4  -5 -11   99.99    8.80
  -4  -5 -11   88.49   10.90
  -4  -5 -11   99.69    9.10
   4   5 -11   87.99    6.70
  -4   5  11   80.49    6.70
  -4   5  11  100.69    9.20
   4   5 -11   89.19    4.80
   4  -5 -11   98.29    9.20
  -4  -5  11   99.29    8.20
  -4   5 -11  100.39    7.40
  -4   5 -11   93.29    9.10
   4   5  11  100.99    7.90
  -4  -5  11   80.99    5.60
  -5   5  11   53.39    7.90
  -5  -5 -11   52.39    8.00
  -5  -5 -11   53.79    8.80
  -5  -5 -11   50.79    7.70
   5   5 -11   53.39    5.80
  -5   5  11   52.69    6.30
  -5  -5  11   58.29    7.20
   5   5  11   70.29    7.30
  -5   5 -11   65.49    6.80
  -5   5 -11   63.39    8.10
  -5  -5  11   65.19    5.30
  -6   5  11   87.99    9.50
  -6  -5 -11   88.49   10.70
  -6  -5 -11   64.89   10.50
   6   5 -11   88.59    7.60
  -6  -5 -11   83.69    8.60
   6   5  11   86.69    8.40
  -6  -5  11   78.99    8.90
  -6   5 -11   92.39   10.00
  -6  -5  11   84.09    6.40
  -6   5 -11   89.49    8.10
   7   5 -11    6.50    2.50
  -7  -5 -11    8.20    5.70
  -7   5  11    1.20    3.00
  -7   5  11   -1.90    2.70
  -7  -5 -11    3.60    3.20
  -7  -5 -11    6.00    4.50
  -7   5  11    1.60    3.50
  -7  -5  11    3.90    4.10
  -7  -5  11    7.00    3.60
  -7   5 -11    2.30    4.40
  -7   5 -11    4.10    3.40
  -8  -5 -11   21.00    6.20
  -8   5  11   39.00    7.80
  -8  -5 -11   38.00    9.00
  -8  -5 -11   39.70    6.90
  -8   5  11   41.90    6.50
  -8  -5  11   34.60    5.60
  -8   5 -11   37.50    8.30
  -8  -5  11   31.10    7.40
  -9  -5 -11   29.80    6.50
  -9   5  11   21.80    5.20
  -9  -5 -11   31.50    9.10
  -9   5  11   27.60    7.70
  -9   5 -11   25.30    7.30
  -9  -5  11   39.20    8.20
   0  -6 -11   16.70    4.40
   0   6 -11   12.30    4.00
   0   6 -11   21.00    3.60
   0  -6 -11   13.40    4.40
   0  -6  11   15.70    2.40
   0   6  11   18.50    3.30
   0  -6 -11   13.30    3.10
   0  -6 -11    9.10    3.40
   0   6  11   16.40    5.00
   1   6 -11  203.48    9.20
  -1   6  11  194.88   12.80
  -1  -6 -11  189.88   10.60
  -1  -6 -11  187.88   12.80
  -1   6  11  187.18    9.50
  -1  -6 -11  216.38   13.00
   1  -6 -11  207.18   12.10
  -1   6 -11  200.98    9.90
  -1   6 -11  175.78   12.00
   1   6  11  191.98    9.90
   1  -6 -11  182.78   12.00
   1  -6 -11  176.78    9.50
   2   6 -11  234.38    9.50
  -2   6  11  235.18   11.20
  -2   6  11  236.88   14.20
  -2  -6 -11  230.08   15.60
  -2  -6 -11  235.38   14.40
  -2  -6 -11  238.38   14.60
   2   6 -11  238.58    9.60
  -2   6 -11  224.28   13.60
   2  -6 -11  219.48   12.90
   2  -6 -11  256.77   14.10
  -2  -6  11  234.58    9.60
   2   6  11  255.57   12.10
  -2  -6  11  247.78   11.50
   2  -6 -11  233.08   10.30
  -2   6 -11  235.18   11.10
  -3   6  11    7.20    3.10
  -3  -6 -11   11.00    4.30
  -3  -6 -11   10.10    2.90
   3   6 -11    8.10    2.00
  -3  -6 -11    1.50    3.70
   3   6 -11   10.20    2.50
  -3   6  11   12.30    4.20
  -3  -6 -11   15.10    4.60
  -3  -6  11    8.30    2.90
  -3   6 -11    9.20    3.00
   3  -6 -11    9.60    4.00
   3   6  11   15.00    3.80
  -3   6 -11   10.60    3.90
  -3  -6  11   13.10    2.70
  -4   6  11  226.78   14.30
  -4  -6 -11  228.48   15.40
  -4  -6 -11  209.58   17.70
   4   6 -11  225.68   11.20
  -4   6  11  223.88   12.20
  -4  -6 -11  226.28   14.80
   4   6 -11  223.08    9.40
  -4   6 -11  232.08   14.50
  -4   6 -11  229.18   11.90
   4   6  11  224.18   12.50
   4  -6 -11  247.28   14.60
  -4  -6  11  247.38   13.30
  -4  -6  11  227.58   10.50
   5   6 -11  140.89    7.50
   5   6 -11  130.79    9.00
  -5   6  11  148.79   11.60
  -5  -6 -11  133.69   13.50
  -5  -6 -11  123.99   12.10
  -5  -6 -11  133.99   10.90
  -5   6  11  133.19   10.10
  -5  -6  11  130.59    8.10
  -5   6 -11  144.49    9.90
  -5  -6  11  144.19   10.90
  -5   6 -11  134.99   11.20
   5   6  11  148.09   10.60
  -6   6  11    5.80    3.40
  -6  -6 -11    9.10    5.00
   6   6 -11    5.20    2.60
  -6  -6 -11    2.00    2.90
   6  -6  11    4.10    2.40
  -6   6  11    2.80    3.30
  -6  -6 -11    8.00    4.30
  -6  -6  11    6.00    3.10
  -6   6 -11    6.20    3.40
  -6   6 -11    9.80    4.20
  -6  -6  11   10.50    4.70
  -7   6  11   51.69    8.60
  -7  -6 -11   47.20    7.50
  -7   6  11   61.09    7.20
  -7  -6 -11   73.89   11.90
   7   6 -11   58.89    7.20
   7   6  11   55.49    8.20
  -7   6 -11   67.79    8.30
  -7   6 -11   74.59    9.50
  -7  -6  11   52.79    7.90
  -7  -6  11   51.59    8.10
  -8  -6 -11   15.10   11.00
  -8   6  11   12.20    4.70
  -8  -6 -11   13.80    4.50
  -8   6  11   13.60    5.20
  -8   6 -11   16.90    5.40
  -8  -6  11   21.40    6.70
  -9  -6 -11    7.30    4.70
  -9   6  11    2.60    4.70
  -9  -6 -11    1.50    5.20
  -9   6  11   -6.10    4.00
  -9   6 -11   -3.00    3.90
  -9   6 -11    3.30    5.20
  -9  -6  11   -3.60    4.40
   0  -7 -11    1.00    2.70
   0  -7 -11    1.20    3.00
   0   7 -11   -2.80    1.60
   0  -7 -11   -1.90    2.20
   0  -7  11   -0.50    0.90
   0   7 -11    3.20    3.20
   0  -7 -11   -0.90    1.80
   0   7  11    1.60    2.70
   1   7 -11    0.20    1.90
  -1   7  11    3.70    3.40
  -1  -7 -11    1.10    2.90
  -1  -7 -11    0.60    2.80
  -1  -7 -11   16.70    4.40
  -1   7  11   -2.80    1.80
   1  -7 -11    1.60    2.00
   1  -7 -11    4.30    3.30
  -1   7 -11    0.20    2.60
  -1   7 -11    4.10    2.60
   1   7  11    2.10    2.40
  -2  -7 -11   27.30    6.40
   2   7 -11   23.40    3.60
  -2   7  11   22.70    5.60
  -2  -7 -11   25.20    5.40
  -2  -7 -11   27.00    6.10
  -2   7  11   34.40    5.30
  -2  -7 -11   29.50    4.70
   2   7 -11   36.40    3.40
  -2   7 -11   23.80    4.10
  -2  -7  11   29.10    4.20
  -2   7 -11   28.40    5.70
   2  -7 -11   19.80    3.60
   2  -7 -11   22.40    5.10
  -2  -7  11   25.70    4.10
   2   7  11   24.80    4.50
  -3  -7 -11  593.64   26.00
  -3   7  11  660.53   26.20
  -3  -7 -11  618.14   28.00
   3   7 -11  589.64   20.30
  -3   7  11  557.94   22.60
  -3  -7 -11  619.64   29.60
   3   7 -11  599.84   19.90
  -3  -7  11  580.94   20.60
  -3   7 -11  616.64   22.10
   3   7  11  598.54   23.30
   3  -7 -11  589.74   24.70
  -3  -7  11  610.44   22.60
  -3   7 -11  606.94   24.90
  -4  -7 -11   99.89   10.10
  -4   7  11  115.59   10.70
  -4  -7 -11  102.39    9.90
  -4   7  11  114.49   10.20
  -4  -7 -11  109.39   10.70
   4   7 -11  107.99    6.80
  -4  -7  11  104.49    8.80
  -4   7 -11  105.79    9.80
  -4   7 -11  110.09    8.30
  -4  -7  11  106.19    7.60
   4   7  11  111.69    9.10
   4  -7 -11  129.09   10.40
  -5   7  11   33.70    6.20
  -5  -7 -11   25.80    5.40
  -5  -7 -11   43.40    9.50
   5   7 -11   34.50    4.60
  -5  -7 -11   35.30    7.40
   5   7 -11   32.00    5.00
  -5  -7  11   25.80    4.70
  -5   7 -11   34.80    5.60
   5   7  11   30.00    5.80
   5  -7 -11   34.60    6.40
  -5  -7  11   31.10    5.90
  -5   7 -11   31.70    6.40
  -6   7  11   94.79   10.10
   6   7 -11   96.19    8.30
   6   7 -11   89.39    7.00
  -6   7  11  107.09    9.50
  -6  -7 -11   92.59   11.50
  -6  -7 -11   98.79    9.90
  -6   7 -11   94.99   10.00
  -6  -7  11  101.99   10.40
   6   7  11   92.49    9.40
  -7  -7 -11    0.50    3.80
   7   7 -11   11.40    3.60
  -7   7  11    3.70    4.50
  -7   7  11   12.00    4.10
  -7  -7 -11    6.10    3.70
  -7   7 -11    4.00    4.60
   7   7  11    3.60    3.70
  -7  -7  11   14.00    4.30
  -7   7 -11    4.10    3.80
  -7  -7  11    8.50    5.00
  -8  -7 -11   -2.70    7.20
  -8  -7 -11    4.90    5.00
  -8   7  11   -2.90    3.40
  -8   7  11   -1.60    3.40
  -8   7 -11    6.10    3.70
   8   7  11    7.80    4.70
  -8  -7  11    5.40    5.40
  -8   7 -11    4.10    4.20
   0   8  11 1420.66   43.70
   0  -8 -11 1388.26   45.60
   0   8 -11 1343.07   45.80
   0   8 -11 1464.55   43.30
   0  -8 -11 1392.96   43.60
  -1   8  11   -2.80    2.70
   1   8 -11   -3.70    2.10
  -1   8  11    3.90    2.80
  -1  -8 -11    2.90    3.70
  -1  -8 -11    2.50    3.20
  -1  -8 -11    4.10    2.10
  -1   8 -11   -0.10    2.20
   1  -8 -11    0.40    2.70
   1  -8 -11    0.20    2.80
   1   8  11    0.40    2.10
  -1   8 -11   -1.20    3.00
   2   8 -11   67.09    4.60
  -2   8  11   60.89    7.00
  -2   8  11   61.89    8.80
  -2  -8 -11   70.09    8.30
   2   8 -11   68.19    6.30
  -2  -8 -11   74.99    9.00
   2   8  11   68.19    6.90
  -2   8 -11   64.89    7.50
   2  -8 -11   64.49    7.50
  -2  -8  11   60.19    6.30
  -2  -8  11   55.09    5.50
  -2   8 -11   60.99    6.20
  -3   8  11    7.50    3.80
  -3  -8 -11    6.00    3.50
   3   8 -11    8.60    2.70
  -3   8  11    5.30    3.30
   3   8 -11    7.70    2.40
  -3  -8 -11    5.10    3.70
  -3  -8  11    5.10    2.90
  -3   8 -11   10.70    3.50
   3   8  11    7.90    3.40
   3  -8 -11   13.10    4.30
  -3   8 -11   10.50    4.20
   3  -8 -11    6.00    2.80
  -3  -8  11    7.40    3.20
   4   8 -11    6.50    2.80
  -4   8  11    6.30    4.10
  -4  -8 -11   10.30    4.20
  -4   8  11    6.90    3.60
  -4  -8 -11   11.50    5.10
   4   8 -11    7.70    2.60
   4  -8 -11    3.10    3.70
  -4   8 -11   12.50    4.40
   4   8  11   14.90    4.60
  -4  -8  11    8.90    3.50
  -4   8 -11   10.40    3.60
  -4  -8  11   15.60    3.90
  -5   8  11   11.60    4.50
   5   8 -11    4.90    2.90
  -5   8  11   14.50    4.90
  -5  -8 -11    9.70    4.40
   5   8 -11   11.50    3.20
  -5  -8 -11   17.20    5.80
  -5  -8  11   17.60    6.20
   5  -8 -11   13.40    4.70
  -5  -8  11   13.00    4.80
  -5   8 -11   14.40    4.40
  -5   8 -11   11.00    4.10
   6   8 -11  299.57   14.20
   6   8 -11  298.17   15.20
  -6  -8 -11  304.47   20.10
  -6  -8 -11  323.87   18.70
  -6   8  11  329.77   19.30
  -6   8  11  309.97   17.40
   6   8  11  313.17   17.90
  -6  -8  11  308.87   15.40
  -6  -8  11  314.07   18.30
  -6   8 -11  322.27   17.60
   6  -8 -11  321.57   18.00
  -6   8 -11  329.77   16.90
  -7   8  11   17.60    5.40
  -7  -8 -11   11.70    4.90
  -7   8  11   11.10    4.80
   7   8 -11   21.20    4.60
   7   8 -11   15.20    4.80
  -7  -8 -11   14.00    6.30
  -7   8 -11    8.60    4.40
   7   8  11   11.10    4.90
  -7  -8  11    7.70    5.40
  -7   8 -11   13.70    5.50
  -8   8  11   30.20    7.10
  -8   8  11   45.80   10.90
  -8  -8 -11   39.10    7.60
  -8  -8 -11   53.49   11.20
  -8   8 -11   44.00    7.80
  -8  -8  11   29.20    7.60
  -8   8 -11   34.40    7.30
   8   8  11   32.40    7.20
   0   9 -11   -2.50    2.50
   0   9  11   -2.90    2.40
   0  -9  11   -1.10    1.50
   0  -9 -11    2.60    2.90
   0  -9 -11    1.50    2.90
   0   9 -11    4.00    3.10
   1   9 -11   -0.90    2.20
  -1   9  11   -0.30    2.90
  -1  -9 -11   -1.40    2.80
  -1  -9 -11    1.60    3.30
  -1   9  11    2.10    3.30
  -1   9 -11    3.00    2.90
   1  -9 -11   -0.80    2.80
   1  -9 -11    0.00    3.10
   1  -9 -11    6.70    3.60
  -1  -9  11    1.50    1.90
   1   9  11   -0.40    2.70
  -1  -9  11    2.90    2.80
  -2   9  11    6.40    3.80
  -2  -9 -11   12.10    4.70
   2   9 -11   10.70    3.50
  -2   9  11    9.30    4.70
  -2  -9  11    2.00    2.60
   2   9  11    7.50    3.80
   2  -9 -11   17.30    4.60
  -2   9 -11    6.50    2.90
  -2   9 -11   12.50    3.80
   2  -9 -11   10.60    3.50
   3   9 -11  154.28    8.50
   3   9 -11  152.18    9.80
  -3  -9 -11  179.18   13.80
  -3   9  11  163.88   12.00
  -3  -9 -11  159.38   12.80
  -3   9 -11  164.98   10.60
  -3   9 -11  149.19   10.80
  -3  -9  11  142.19    9.90
  -3  -9  11  155.88   11.60
   3  -9 -11  153.78   11.30
   3   9  11  163.78   11.80
  -4   9  11   10.90    4.70
  -4  -9 -11   12.00    4.90
   4   9 -11   16.90    3.40
  -4   9  11   20.00    5.20
   4   9 -11   16.80    3.80
  -4  -9 -11   22.40    6.20
  -4   9 -11   30.00    5.60
  -4   9 -11   13.70    4.40
  -4  -9  11   24.70    5.30
   4   9  11   15.60    4.60
   4  -9 -11   18.50    5.10
  -4  -9  11   17.30    7.20
  -5  -9 -11    8.60    4.80
   5   9 -11    2.50    3.20
  -5   9  11    4.60    4.20
   5   9 -11    6.50    2.70
  -5   9  11    2.60    3.70
  -5  -9 -11    8.20    4.10
  -5  -9  11   28.80    5.70
   5  -9 -11    6.10    4.20
  -5   9 -11   18.90    5.10
   5   9  11    1.20    3.70
  -5  -9  11    1.00    3.40
  -6  -9 -11   11.00    5.10
  -6   9  11   16.40    5.50
  -6   9  11    5.40    4.90
  -6  -9 -11   20.50    6.50
   6   9 -11   12.10    4.20
   6   9 -11   10.30    3.80
   6  -9 -11   10.80    4.90
  -6   9 -11   14.70    5.00
  -6  -9  11    9.20    4.50
   6   9  11   21.30    5.80
  -6   9 -11   14.40    4.90
   7   9 -11   -4.60    3.10
  -7  -9 -11    4.70    4.90
  -7  -9 -11   -0.30    4.30
  -7   9  11    4.40    4.30
  -7   9  11    1.70    4.20
  -7   9 -11   -5.10    3.70
  -7  -9  11    0.70    4.70
   7   9  11    5.00    4.50
  -7   9 -11   -3.00    3.40
   7  -9 -11    0.50    4.70
   0 -10 -11 1325.97   46.30
   0 -10  11 1162.88   34.30
   0  10  11 1230.18   42.70
   0  10 -11 1281.97   42.80
   0 -10 -11 1246.18   42.50
   0  10 -11 1297.27   41.60
  -1 -10 -11   46.60    8.50
  -1  10  11   33.20    9.00
  -1  10  11   35.90    6.90
   1  10 -11   27.80    5.80
  -1 -10 -11   31.20    7.10
  -1 -10  11   29.40    4.20
  -1 -10  11   22.80    5.40
  -1  10 -11   41.60    6.80
   1 -10 -11   23.90    6.20
  -1  10 -11   21.70    5.30
   1  10  11   33.90    6.30
   1 -10 -11   34.80    6.30
  -2 -10 -11  244.68   16.30
  -2  10  11  203.58   14.60
  -2 -10 -11  231.08   15.00
   2  10 -11  219.58    9.60
   2  10 -11  236.68   13.40
  -2  10  11  219.78   15.70
  -2  10 -11  228.08   13.40
   2  10  11  242.18   14.70
  -2 -10  11  193.98   12.80
  -2  10 -11  213.78   13.00
   2 -10 -11  217.68   13.40
  -2 -10  11  211.88   11.50
   3  10 -11    0.90    2.00
  -3  10  11   -0.30    3.70
   3  10 -11   -3.80    2.40
  -3 -10 -11    3.40    3.70
  -3 -10 -11   -0.50    3.40
  -3  10  11    9.00    5.00
   3 -10 -11    8.70    4.00
  -3 -10  11   -3.20    2.70
  -3  10 -11    5.10    3.40
  -3  10 -11   -0.20    3.10
   3  10  11    1.80    3.70
  -3 -10  11   -5.40    3.30
  -4 -10 -11   53.19    8.50
  -4  10  11   71.79    9.90
  -4 -10 -11   74.89    9.80
   4  10 -11   88.29    7.90
   4  10 -11   69.89    6.60
  -4  10  11   86.79   10.30
  -4  10 -11   76.29    8.10
   4  10  11   72.59   10.00
   4 -10 -11   82.19    8.60
  -4  10 -11   76.39    8.10
  -4 -10  11   69.29    8.40
   5  10 -11   78.69    7.80
  -5 -10 -11   62.19   10.10
  -5  10  11   93.99   10.80
   5  10 -11   74.19    7.50
  -5  10  11   86.19   10.00
  -5 -10 -11   67.89   10.30
   5 -10 -11   72.99    8.60
  -5  10 -11   71.89    8.40
  -5  10 -11   71.09    8.30
   5  10  11   72.59   10.00
  -5 -10  11   64.79    9.00
   6  10 -11  427.66   19.80
  -6  10  11  479.75   24.20
  -6  10  11  509.85   25.00
  -6 -10 -11  475.75   36.60
  -6 -10 -11  475.15   26.20
  -6  10 -11  465.15   20.90
   6 -10 -11  482.35   22.30
  -6  10 -11  481.95   22.40
   6  10  11  448.16   23.60
  -6 -10  11  452.85   23.90
  -7  10  11    3.40    4.40
  -7 -10 -11   -1.40    5.50
  -7  10  11    6.40    4.90
  -7 -10 -11    0.00    4.00
   7  10 -11    4.70    3.80
   7 -10 -11    0.10    4.00
  -7 -10  11    7.30    5.60
  -7  10 -11    8.00    4.50
   7  10  11    5.10    4.70
  -7  10 -11    5.30    4.10
   0  11  11   -1.40    3.30
   0 -11 -11   -3.00    2.50
   0 -11 -11   -2.50    3.00
   0  11 -11   -1.70    2.80
   0 -11  11   -4.80    1.70
   0  11 -11    0.00    3.10
  -1  11  11    1.50    4.20
   1  11 -11   -6.50    2.50
  -1 -11 -11    4.80    4.30
  -1 -11 -11    6.30    3.90
  -1 -11  11    2.00    2.60
   1  11  11    5.80    4.10
  -1  11 -11   10.60    4.20
   1 -11 -11    4.20    3.30
  -1  11 -11   -1.10    2.90
   1 -11 -11    1.90    3.50
  -2 -11 -11   90.19   10.80
  -2 -11 -11  105.09   10.90
  -2  11  11   84.39   10.60
  -2  11  11   95.89   10.80
   2  11 -11   89.09    9.20
  -2 -11  11   96.19    8.10
   2  11  11   90.09    9.90
  -2  11 -11  101.89    9.00
   2 -11 -11  100.49    9.50
  -2  11 -11   97.59    9.60
  -3  11  11    5.80    4.30
   3  11 -11   11.60    4.50
   3  11 -11   12.20    3.20
  -3 -11 -11    9.80    4.90
  -3  11  11   12.60    5.50
  -3 -11 -11    8.30    4.00
  -3 -11  11    8.40    3.70
  -3  11 -11   11.60    4.40
  -3  11 -11   13.20    4.20
   3  11  11    4.00    4.90
   3 -11 -11   16.90    4.30
  -4  11  11   45.20    8.00
   4  11 -11   46.90    7.00
  -4 -11 -11   35.40    7.10
  -4  11  11   39.80    8.20
   4  11 -11   51.09    5.90
  -4 -11 -11   30.10    7.20
   4  11  11   29.60    7.10
  -4 -11  11   34.30    6.50
  -4  11 -11   45.60    6.90
  -4  11 -11   42.40    6.40
   4 -11 -11   45.50    6.90
  -5  11  11   23.80    6.80
  -5 -11 -11   36.00    8.00
  -5 -11 -11   41.40   10.10
  -5  11  11   18.70    6.30
   5  11 -11   30.80    6.00
  -5  11 -11   29.00    5.60
  -5  11 -11   22.20    5.80
   5  11  11   15.70    5.70
  -5 -11  11   15.80    6.00
   5 -11 -11   27.40    6.40
  -6  11  11   12.00    6.80
   6  11 -11   14.20    4.80
  -6  11  11   29.10    6.90
  -6 -11 -11   13.20    6.90
  -6 -11 -11   13.60    5.40
   6 -11 -11   12.30    5.50
   6  11  11   27.20    7.20
  -6 -11  11   17.10    7.00
  -6  11 -11   24.90    5.60
  -6  11 -11   21.00    5.80
   0  12 -11  318.77   17.00
   0 -12 -11  363.76   20.80
   0 -12 -11  297.97   17.40
   0 -12  11  286.17   12.00
   0  12 -11  338.77   17.90
  -1  12  11   -0.90    4.80
  -1 -12 -11    2.20    3.50
  -1 -12 -11   -0.20    3.40
   1  12 -11    0.60    3.70
   1 -12 -11    0.80    3.70
  -1  12 -11   13.90    4.90
  -1  12 -11    6.00    3.40
  -1 -12  11    4.90    3.00
   1  12  11    3.00    4.40
   1 -12 -11    5.40    4.40
  -2 -12 -11  113.99   12.20
   2  12 -11   77.79    9.40
  -2 -12 -11  111.99   11.30
  -2  12  11   92.59   12.30
  -2  12  11  106.59   12.00
   2  12  11  112.29   11.50
  -2  12 -11  105.39   10.40
  -2 -12  11  110.19    9.00
   2 -12 -11  101.59    9.60
  -2  12 -11  104.99    8.90
   2 -12 -11  101.49   12.00
   3  12 -11   -5.70    3.10
  -3 -12 -11    2.80    4.30
  -3 -12 -11    4.20    3.90
  -3  12  11   -3.40    4.80
  -3  12  11    2.50    3.40
   3  12 -11   -3.20    2.20
  -3  12 -11   -0.50    3.50
  -3 -12  11    2.90    3.70
   3  12  11    2.60    4.00
  -3  12 -11   -1.20    3.00
   3 -12 -11    0.40    3.30
  -4 -12 -11   83.89   10.90
  -4  12  11   62.79   10.00
  -4  12  11   95.39   11.40
   4  12 -11   59.79    8.60
  -4  12 -11   78.59    9.10
   4 -12 -11   55.89    7.90
  -4 -12  11   59.49    9.00
   4  12  11   82.29   11.50
  -5 -12 -11    6.50    5.20
  -5  12  11    0.30    4.70
  -5 -12 -11    8.50    5.40
   5  12 -11    6.20    4.40
  -5  12  11    4.20    5.80
  -5 -12  11   -0.60    5.00
   5  12  11    7.10    5.90
   5 -12 -11    7.70    4.80
  -5  12 -11    3.20    4.40
   0 -13 -11   -0.20    3.70
   0  13 -11   -1.10    4.20
   0 -13  11   -3.20    2.50
   0 -13 -11   -1.90    3.00
   0  13 -11   -1.50    3.40
   0  13  11   -0.60    4.70
  -1 -13 -11    8.00    4.10
  -1 -13 -11   21.90    6.80
  -1  13  11    9.60    6.20
   1  13 -11   15.90    5.50
   1 -13 -11   13.90    5.80
  -1 -13  11    7.50    4.70
  -1  13 -11    5.20    4.00
  -1  13 -11   16.20    4.60
   1  13  11    9.60    5.20
   1 -13 -11   10.70    5.10
  -2  13  11   48.40    9.60
   2  13 -11   68.69    9.80
  -2 -13 -11   56.09    9.30
  -2 -13 -11   67.09   10.20
  -2  13 -11   72.99    7.50
  -2 -13  11   60.99    7.90
   2  13  11   65.99   10.80
   2 -13 -11   67.59    8.70
  -2  13 -11   70.09    9.50
   2 -13 -11   58.99    9.40
   3  13 -11   99.49   10.50
  -3  13  11   96.89   12.10
  -3 -13 -11   91.69   10.90
  -3 -13 -11  111.49   13.70
  -3  13  11  106.29   12.70
   3  13  11   89.99   12.70
  -3  13 -11  107.39   11.20
   3 -13 -11  107.49    9.90
  -3 -13  11   90.89   10.30
  -4  13  11   68.89   11.00
  -4  13  11   79.79   11.70
  -4 -13 -11   87.69   11.00
  -4 -13 -11   96.99   11.70
  -4  13 -11   82.99    9.90
  -4 -13  11   75.09   10.50
  -4  13 -11   84.39    7.20
   4  13  11   80.69   11.30
   4 -13 -11   84.29    9.30
   0 -14 -11   20.80    6.20
   0  14 -11   19.40    6.00
   0  14  11    5.70    5.90
   0 -14 -11    3.60    5.10
   0  14 -11   15.80    4.80
  -1 -14 -11    5.80    4.00
  -1 -14 -11   -0.30    4.20
   1  14 -11    2.10    4.10
  -1  14  11    2.90    6.20
   1 -14 -11    9.50    4.60
  -1  14 -11    7.30    4.60
   1  14  11    2.20    5.50
  -1  14 -11    2.90    3.70
   1 -14 -11   11.10    7.80
  -2  14  11   -3.40    5.20
   2  14 -11    0.30    4.20
  -2 -14 -11   -4.70    4.20
  -2 -14 -11    3.90    8.90
  -2  14 -11   -0.50    4.40
   2 -14 -11    2.00    4.60
  -2  14 -11   10.00    4.80
   2 -14 -11    5.70    4.30
   2  14  11    4.90    5.10
  -3 -14 -11    7.30    5.20
   3  14 -11    2.50    5.00
  -3 -14 -11   -0.80    4.60
  -3  14  11    8.40    6.50
  -3  14 -11    6.70    5.00
   3 -14 -11   26.70   13.40
   3 -14 -11   -6.30    3.80
   3  14  11    4.40    5.80
   0   0  12  113.29    8.00
   0   0 -12   96.79    7.40
   0   0 -12  120.79   10.10
   0   0 -12  102.09    6.30
   1   0 -12    4.40    3.30
  -1   0 -12    8.10    2.20
  -1   0  12    5.90    2.40
   1   0 -12    4.50    1.80
  -1   0 -12    2.50    1.90
   1   0  12    2.40    2.20
  -1   0 -12    2.50    3.00
  -1   0 -12    7.20    1.50
  -2   0 -12  135.59    7.50
  -2   0 -12  130.49    6.60
  -2   0 -12  128.19   10.60
   2   0 -12  106.19   10.00
  -2   0 -12  126.99    6.60
   2   0 -12  123.59    7.70
  -2   0  12  129.59    8.90
  -3   0 -12   16.70    3.00
  -3   0 -12   28.00    3.50
   3   0 -12   10.30    2.80
  -3   0  12   24.20    4.80
  -3   0 -12   20.80    3.20
  -3   0 -12   14.40    4.40
   4   0 -12   63.29    6.10
  -4   0 -12   58.79    8.90
  -4   0 -12   66.49    4.90
  -4   0 -12   62.79    5.80
  -4   0 -12   62.09    4.80
   5   0 -12   19.90    5.20
  -5   0  12   13.80    4.30
  -5   0 -12   11.10    2.70
  -5   0 -12    3.20    6.40
  -5   0 -12   14.20    2.90
  -6   0 -12   22.20    6.00
  -6   0  12   21.90    5.60
  -6   0  12   20.10    2.70
  -6   0 -12   16.70    3.50
  -6   0  12   22.90    3.90
  -6   0 -12   19.70    3.40
  -7   0  12   33.60    4.00
  -7   0 -12   31.90    7.80
  -7   0 -12   40.80    6.00
  -7   0  12   39.70    4.50
  -7   0 -12   37.90    4.70
  -7   0  12   40.50    7.40
  -8   0  12   11.90    3.50
  -8   0  12   14.70    5.30
  -8   0 -12   15.80    3.70
  -8   0  12   15.90    3.80
  -8   0 -12   10.80    4.20
  -8   0 -12   17.90    7.10
  -9   0 -12   19.60    4.20
  -9   0 -12   19.10    7.80
  -9   0  12    5.40    4.00
  -9   0  12    7.60    5.50
   0  -1 -12    0.70    1.60
   0   1  12   -1.90    1.50
   0  -1  12    1.50    1.90
   0  -1 -12   -0.20    2.10
   0   1 -12   -1.50    2.10
   0   1 -12   -0.30    1.20
   0   1 -12    0.10    1.60
   0  -1 -12   -0.30    1.40
  -1  -1 -12  280.67   11.30
  -1  -1 -12  270.37   12.30
  -1   1  12  260.37   13.20
   1  -1  12  242.88   12.00
   1   1 -12  254.57   10.70
   1   1 -12  249.28   14.90
  -1  -1 -12  258.57   12.50
  -1  -1 -12  267.07   15.10
  -1  -1  12  242.98   12.00
  -1   1 -12  242.58    8.70
  -1   1 -12  267.77   10.90
  -1   1 -12  240.08    8.40
   1   1  12  243.48   13.40
  -1   1 -12  232.18   14.40
  -1   1 -12  253.27    9.70
   1  -1 -12  266.87   15.40
   1  -1 -12  252.17   11.50
   2   1 -12    4.40    2.50
  -2   1  12    2.70    2.30
  -2  -1 -12   10.30    2.30
  -2  -1 -12    4.50    3.50
  -2  -1 -12    4.60    2.20
  -2  -1 -12    6.30    2.20
  -2   1 -12    6.40    1.50
  -2   1 -12    6.60    2.00
   2  -1 -12    9.10    4.10
   2  -1 -12    7.70    2.50
  -2  -1  12    5.80    2.70
  -2   1 -12    6.10    1.80
  -2   1 -12    5.10    3.40
  -3  -1 -12   27.80    3.70
  -3   1  12   30.90    5.60
  -3  -1 -12   31.40    4.50
  -3  -1 -12   32.90    4.30
  -3  -1 -12   32.10    6.60
   3   1 -12   35.60    4.90
  -3   1 -12   37.00    6.90
  -3   1 -12   30.20    2.90
  -3   1 -12   32.60    3.80
  -3   1 -12   28.80    3.00
   3  -1 -12   32.50    4.60
  -3  -1  12   35.60    5.60
  -4  -1 -12   -0.20    2.50
  -4  -1 -12    3.60    2.20
  -4  -1 -12    3.10    2.10
   4   1 -12    2.80    2.00
  -4   1  12    1.80    2.60
  -4   1 -12   -0.10    1.30
  -4   1 -12    1.60    1.90
  -4  -1  12   -2.00    2.00
   4  -1 -12    0.10    2.00
  -4   1 -12    2.40    1.40
  -4   1 -12    6.80    3.30
  -5   1  12   79.39    8.30
   5   1 -12   71.59    6.80
  -5  -1 -12   69.49    6.10
  -5  -1 -12   66.29    5.70
  -5  -1 -12   54.49    8.90
  -5  -1  12   71.69    8.10
  -5   1 -12   65.89    4.50
  -5   1 -12   72.99    9.00
   5  -1 -12   68.49    7.10
  -5   1 -12   56.69    4.50
  -6   1  12    2.50    2.20
  -6   1  12   -3.30    2.50
  -6  -1 -12   -1.50    3.80
   6   1 -12    4.70    3.10
  -6  -1 -12    2.00    2.30
  -6  -1 -12    4.10    2.70
  -6   1  12    2.10    1.90
  -6   1 -12    4.50    4.20
  -6   1 -12    1.10    1.60
  -6  -1  12   -1.50    2.50
  -6  -1  12    1.80    1.40
  -6   1 -12    2.90    2.10
  -6  -1  12    6.00    1.60
  -7  -1 -12  132.99   13.90
  -7  -1 -12  147.19   12.50
  -7   1  12  159.98    8.40
  -7   1  12  148.89    7.70
  -7   1  12  164.68   12.90
  -7  -1 -12  142.49    9.20
  -7   1 -12  143.79    9.00
  -7   1 -12  143.59   14.10
  -7  -1  12  171.18   13.20
  -7  -1  12  156.18    7.90
  -7  -1  12  158.18    7.70
  -7   1 -12  151.58    8.00
  -8   1  12    2.20    2.70
  -8  -1 -12   -0.10    5.40
  -8  -1 -12    1.00    3.70
  -8  -1 -12   -1.50    2.30
  -8   1  12   -2.80    3.00
  -8   1 -12   -1.90    4.50
  -8  -1  12    0.90    2.60
  -8   1 -12   -5.80    2.30
  -8  -1  12   -2.80    2.70
  -8   1 -12   -0.20    2.10
  -8  -1  12   -2.80    3.80
  -9  -1 -12    9.10    3.50
  -9   1  12   13.40    6.00
  -9   1  12   11.00    4.30
  -9   1 -12    7.30    5.70
  -9  -1  12    5.30    3.90
  -9  -1  12   12.10    6.00
  -9   1 -12   11.80    3.40
   0   2 -12    1.20    1.60
   0  -2 -12    0.20    2.60
   0   2  12    2.20    2.60
   0  -2  12    1.10    1.60
   0   2 -12    1.00    2.90
   0   2 -12   -0.50    1.00
   0  -2 -12   -1.50    2.00
   0  -2 -12    1.20    1.00
   0  -2 -12   -3.80    1.30
  -1  -2 -12   17.40    4.20
  -1  -2 -12   15.10    4.70
  -1   2  12   18.50    4.40
  -1  -2 -12   16.00    3.00
   1   2 -12   14.20    2.50
   1   2 -12   11.00    4.40
  -1  -2 -12   15.60    2.50
   1  -2  12   11.90    2.90
  -1  -2  12   12.40    3.10
   1   2  12   10.20    3.80
  -1   2 -12   18.50    2.20
  -1   2 -12   16.90    2.20
   1  -2 -12   15.90    4.90
  -1   2 -12   18.20    5.00
   1  -2 -12   12.90    2.90
  -2  -2 -12   82.09    8.50
  -2  -2 -12   94.39    7.40
  -2   2  12   93.39    8.10
  -2  -2 -12   82.99    5.60
   2   2 -12   89.79    6.00
  -2  -2  12   89.59    7.10
   2  -2 -12   72.09    6.50
  -2   2 -12   83.19    5.30
  -2   2 -12   95.99    9.20
  -2   2 -12   84.49    4.00
   2  -2 -12   87.99    8.80
  -2   2 -12   87.59    5.30
  -2   2 -12   89.89    3.90
  -3  -2 -12    1.80    1.60
   3   2 -12    1.70    1.90
  -3   2  12    5.10    3.20
  -3  -2 -12    1.70    2.10
  -3  -2 -12    2.80    2.10
  -3  -2 -12   -2.00    2.70
  -3   2 -12    1.10    1.70
   3  -2 -12    0.50    1.80
  -3   2 -12    8.40    4.00
  -3  -2  12    1.90    2.30
  -4  -2 -12   84.19    9.60
   4   2 -12   98.99    7.50
  -4   2  12  102.39    9.00
  -4  -2 -12  117.69    7.70
  -4  -2 -12  106.49    7.70
   4  -2 -12  100.79    9.50
  -4   2 -12  104.59    7.20
  -4   2 -12   96.09   10.10
  -4  -2  12  115.79    9.00
  -5   2  12   18.40    5.10
  -5  -2 -12   14.40    4.00
   5   2 -12    9.50    3.20
  -5   2  12   11.50    1.70
  -5   2  12   12.60    2.10
  -5  -2 -12   35.70    7.20
  -5  -2 -12   17.10    3.70
  -5   2 -12   14.20    1.90
  -5  -2  12   13.30    4.50
  -5   2 -12   12.80    1.90
  -5   2 -12   12.50    4.60
   5  -2 -12   16.90    4.20
  -6  -2 -12    5.00    4.30
  -6   2  12    0.80    1.80
  -6   2  12    1.50    1.70
  -6   2  12   -3.70    2.40
  -6  -2 -12    1.50    2.70
  -6  -2 -12    5.30    3.10
   6   2 -12    3.30    2.50
  -6  -2  12    3.00    3.50
  -6  -2  12   -2.30    1.30
  -6   2 -12    1.50    1.20
  -6   2 -12    2.70    1.50
  -6   2 -12   -3.30    3.50
  -7  -2 -12   36.00    8.40
  -7   2  12   51.59    8.40
  -7  -2 -12   42.80    6.10
  -7   2  12   45.40    5.60
  -7  -2 -12   38.60    6.90
  -7   2  12   52.09    4.90
  -7  -2  12   44.60    4.60
  -7   2 -12   48.40    9.40
  -7   2 -12   47.70    4.20
  -7  -2  12   40.40    7.20
  -7   2 -12   51.79    4.90
  -8  -2 -12    3.20    5.10
  -8   2  12    2.00    4.00
  -8   2  12    5.20    3.40
  -8  -2 -12    3.00    3.00
  -8   2 -12    6.30    2.20
  -8   2 -12   10.00    5.30
  -8   2 -12    2.80    2.20
  -8  -2  12    2.80    3.20
  -8  -2  12   -0.60    5.10
  -9  -2 -12    2.50    3.00
  -9   2  12    2.80    4.10
  -9   2  12   -5.40    3.50
  -9  -2 -12   -5.70    4.80
  -9  -2  12    4.50    5.30
  -9   2 -12    5.30    2.40
  -9   2 -12   -0.50    5.80
   0  -3 -12    0.50    2.60
   0   3 -12    0.60    0.90
   0  -3  12    2.40    1.90
   0  -3 -12   -0.90    2.20
   0  -3 -12   -1.60    1.50
   0   3  12    1.20    2.60
   0   3 -12    3.80    3.10
  -1   3  12 1230.38   40.40
  -1  -3 -12 1226.78   40.10
  -1  -3 -12 1165.38   37.50
  -1  -3 -12 1200.08   41.70
  -1  -3 -12 1233.78   35.40
   1   3 -12 1251.37   42.80
   1   3 -12 1199.08   34.10
  -1  -3  12 1281.97   41.00
  -1   3 -12 1226.58   42.00
   1  -3 -12 1289.37   42.30
   1  -3 -12 1213.68   38.10
  -1   3 -12 1265.87   34.00
  -1   3 -12 1254.67   33.60
  -2  -3 -12   -0.40    1.60
  -2  -3 -12   -0.50    2.60
   2   3 -12    2.60    1.60
  -2   3  12   -1.60    2.20
  -2  -3 -12    9.90    3.60
  -2  -3 -12    1.60    1.70
  -2   3 -12    0.00    2.90
  -2   3 -12   -0.30    1.50
   2  -3 -12   -3.90    1.30
   2  -3 -12   -1.30    2.50
  -2   3 -12    0.60    1.50
  -2  -3  12    0.90    1.80
  -3  -3 -12  538.95   20.40
  -3  -3 -12  518.75   24.00
  -3   3  12  519.45   21.90
  -3  -3 -12  476.15   18.70
  -3  -3 -12  526.85   20.80
  -3   3 -12  531.05   18.30
  -3  -3  12  518.75   20.50
  -3   3 -12  534.55   23.80
  -3   3 -12  519.05   18.30
   3  -3 -12  518.85   23.40
  -4  -3 -12   75.19    7.00
  -4  -3 -12   57.29   10.30
  -4  -3 -12   70.29    6.90
  -4  -3 -12   76.99    6.40
  -4   3  12   71.29    7.70
   4   3 -12   62.19    5.90
  -4   3  12   74.29    3.30
   4  -3 -12   81.29    7.50
  -4   3 -12   79.29    6.10
  -4   3 -12   61.39    8.10
  -4  -3  12   68.49    7.40
  -5   3  12  301.47   16.50
  -5  -3 -12  285.97   14.30
   5   3 -12  269.97   13.80
  -5  -3 -12  295.67   18.30
  -5   3  12  275.07   11.10
  -5  -3 -12  297.67   15.30
  -5  -3  12  321.27   19.20
  -5   3 -12  295.87   17.80
  -6   3  12   63.19    4.70
  -6  -3 -12   59.79   10.10
  -6  -3 -12   67.09    6.90
  -6   3  12   82.29    9.10
  -6   3  12   63.99    5.80
  -6  -3 -12   61.39    8.20
  -6  -3  12   71.39    8.60
  -6  -3  12   69.49    4.90
  -6   3 -12   70.29   12.10
  -7   3  12  465.55   23.10
  -7  -3 -12  436.36   22.00
  -7  -3 -12  442.56   19.50
  -7  -3 -12  449.16   25.90
  -7   3  12  473.15   18.00
  -7   3  12  456.45   16.50
  -7  -3  12  442.66   22.60
  -7  -3  12  440.06   16.10
  -7   3 -12  469.05   25.20
  -8  -3 -12    7.90    5.90
  -8   3  12    6.60    4.70
  -8   3  12    3.10    3.50
  -8   3  12    9.50    4.80
  -8  -3 -12    7.60    3.40
  -8   3 -12    5.10    2.00
  -8   3 -12    3.20    2.30
  -8  -3  12    3.50    3.70
  -8   3 -12   -2.20    4.80
  -8  -3  12    7.70    5.40
  -9   3  12   50.59    7.10
  -9  -3 -12   80.09    8.40
  -9  -3 -12   58.39   10.60
  -9   3  12   76.79   11.20
  -9   3 -12   65.29    5.40
  -9   3 -12   61.59   11.30
  -9  -3  12   59.99   10.30
   0   4  12  258.47    9.80
   0  -4 -12  254.67   10.60
   0   4  12  287.47   15.70
   0  -4 -12  246.08   14.70
   0   4 -12  273.27   15.90
   0  -4 -12  270.17   15.50
   0   4 -12  272.27    9.70
   0   4 -12  259.97    8.70
   0  -4 -12  258.67   13.00
  -1  -4 -12  154.58   11.60
  -1  -4 -12  184.18    9.20
  -1  -4 -12  180.88   10.50
  -1  -4 -12  166.48   11.50
   1   4 -12  167.08    7.10
   1  -4  12  165.58    7.70
   1   4 -12  165.48   12.40
  -1   4  12  171.98    6.90
   1   4  12  183.58    8.30
  -1   4 -12  171.78    7.50
  -1   4 -12  168.08    7.80
  -1   4 -12  185.58   12.70
   1  -4 -12  164.68   12.00
   1  -4 -12  175.08   10.50
  -1  -4  12  169.98    9.00
  -2   4  12    6.50    3.40
  -2  -4 -12    2.40    3.30
  -2   4  12    2.60    1.10
   2   4 -12    2.50    1.50
  -2  -4 -12    3.90    1.90
  -2  -4 -12    5.70    3.00
  -2  -4 -12    4.30    2.60
   2   4  12    0.80    1.80
   2  -4 -12    4.80    2.80
  -2  -4  12    3.10    2.10
   2  -4 -12    4.60    2.70
  -2   4 -12    1.20    1.60
  -2   4 -12    3.70    1.90
  -2   4 -12    1.60    2.90
  -3  -4 -12    8.60    3.80
  -3   4  12    2.20    3.00
  -3  -4 -12    7.00    2.90
   3   4 -12    3.90    2.00
  -3   4  12    1.20    1.00
  -3   4 -12    0.70    2.30
   3  -4 -12    1.50    1.90
  -3   4 -12    0.90    2.80
   3   4  12    4.80    2.30
   3  -4 -12    0.20    3.10
  -3  -4  12    3.80    2.50
  -3   4 -12    3.30    1.80
   4   4 -12   43.30    4.90
  -4  -4 -12   27.80    6.20
  -4  -4 -12   46.20    6.60
  -4   4  12   38.90    3.70
  -4   4  12   31.20    6.00
  -4  -4 -12   42.60    6.50
  -4  -4  12   36.20    5.70
  -4   4 -12   32.00    6.70
  -4   4 -12   46.20    5.10
  -4   4 -12   46.90    5.30
  -5  -4 -12  166.88   11.70
  -5  -4 -12  144.89   10.20
   5   4 -12  123.69    8.80
  -5   4  12  133.69    6.50
  -5  -4 -12  137.69   12.40
  -5   4  12  134.49    8.10
  -5   4  12  157.78   11.90
  -5   4 -12  138.59   12.00
  -5  -4  12  132.99   10.70
  -5   4 -12  139.89    9.30
  -5  -4  12  132.49    6.00
  -6   4  12   67.09    6.90
  -6  -4 -12   65.59   10.60
  -6  -4 -12   67.69    8.10
  -6   4  12   70.39    5.20
  -6   4  12   49.00    7.60
  -6  -4 -12   69.79    7.40
  -6  -4  12   68.09    5.40
  -6   4 -12   56.49    9.10
  -6  -4  12   68.39    9.30
  -7   4  12   10.70    3.40
  -7   4  12   15.60    6.00
  -7  -4 -12   23.60    5.30
  -7  -4 -12   16.60    5.80
  -7  -4 -12   10.60    5.60
  -7  -4  12   22.40    3.90
  -7   4 -12   13.90    6.20
  -7  -4  12   16.70    5.40
  -8   4  12    3.40    3.60
  -8  -4 -12   -1.70    5.80
  -8   4  12   -2.10    4.10
  -8  -4 -12   -0.70    2.90
  -8  -4  12   -1.00    4.00
  -8   4 -12   -4.40    4.40
  -9  -4 -12   -3.30    3.30
  -9   4  12    3.10    4.00
  -9   4  12   -0.50    4.80
  -9  -4 -12   -2.70    5.10
  -9   4 -12   -4.40    4.60
  -9  -4  12   -3.30    3.60
   0  -5 -12   -0.20    3.30
   0  -5 -12    2.70    1.90
   0   5 -12    1.70    3.00
   0  -5 -12    0.40    2.40
   0  -5  12   -1.60    1.20
   0   5  12    1.70    1.60
   0   5  12   -0.80    2.50
  -1  -5 -12  461.05   19.60
  -1   5  12  431.36   15.10
  -1  -5 -12  427.96   20.60
  -1   5  12  471.95   21.30
  -1  -5 -12  432.66   21.00
   1   5 -12  460.95   13.90
  -1  -5 -12  437.46   17.40
   1  -5 -12  461.75   21.00
   1  -5 -12  447.16   15.40
  -1   5 -12  473.35   16.30
   1   5  12  463.55   16.40
  -1   5 -12  457.85   21.30
   1  -5 -12  449.36   21.90
  -1  -5  12  458.45   16.50
  -2  -5 -12   39.60    4.80
  -2   5  12   37.40    6.40
  -2   5  12   36.80    3.60
   2   5 -12   45.00    3.80
  -2  -5 -12   50.59    7.10
  -2  -5 -12   36.20    6.60
  -2  -5 -12   43.10    6.40
  -2   5 -12   41.80    4.30
  -2   5 -12   39.60    7.00
  -2  -5  12   34.40    4.80
   2  -5 -12   43.20    6.30
   2  -5 -12   41.70    7.00
  -3   5  12  427.96   20.20
  -3  -5 -12  433.06   24.80
  -3   5  12  426.56   15.00
   3   5 -12  432.26   16.00
  -3  -5 -12  421.26   19.60
  -3  -5 -12  455.15   20.40
  -3  -5 -12  399.76   17.20
  -3  -5  12  464.05   18.40
  -3   5 -12  425.06   20.90
   3   5  12  446.96   17.50
   3  -5 -12  380.66   21.00
  -3   5 -12  457.85   16.80
   3  -5 -12  432.06   20.80
   4   5 -12    6.50    2.50
  -4  -5 -12    8.50    3.40
  -4  -5 -12   12.20    4.10
  -4   5  12    7.40    2.80
  -4   5  12   10.10    3.90
  -4  -5 -12    8.70    4.30
   4  -5 -12   13.30    4.70
  -4  -5  12    9.60    3.30
  -4   5 -12    8.20    3.90
  -4  -5  12    9.90    1.90
  -4   5 -12    5.60    2.80
   4   5  12    4.20    2.90
  -5  -5 -12   80.19    9.40
  -5   5  12  121.79   10.90
  -5   5  12   90.99    7.40
  -5  -5 -12   99.19   11.10
  -5  -5 -12  101.69    9.20
   5   5 -12   96.99    7.70
  -5  -5  12  104.59    6.10
  -5   5 -12  111.99   11.00
   5   5  12  108.79    8.60
  -5   5 -12  109.09    8.40
  -5  -5  12   97.99    9.20
  -6   5  12   16.20    4.70
  -6   5  12   19.20    5.50
  -6  -5 -12   20.20    6.60
  -6  -5 -12   20.00    4.80
  -6  -5 -12   21.80    6.30
   6   5 -12   17.20    4.30
  -6   5 -12   18.40    5.90
  -6   5 -12   17.00    4.80
  -6  -5  12   21.20    5.70
  -6  -5  12   19.20    3.70
   7   5 -12  167.88   11.40
  -7  -5 -12  180.18   16.60
  -7   5  12  196.98   14.80
  -7   5  12  172.18   11.50
  -7  -5 -12  178.98   12.60
  -7   5 -12  187.68   12.70
  -7   5 -12  180.68   15.30
  -7  -5  12  213.28   14.90
  -7  -5  12  186.38   10.20
  -8   5  12   23.40    5.60
  -8  -5 -12   29.40    6.10
  -8  -5 -12   40.40   10.00
  -8   5  12   29.90    7.20
  -8   5 -12   35.40    8.70
  -8   5 -12   22.10    5.70
  -8  -5  12   21.10    6.10
   0  -6 -12  408.26   16.50
   0   6 -12  428.46   15.90
   0   6 -12  416.76   20.60
   0  -6 -12  390.66   19.60
   0  -6  12  427.36   14.00
   0  -6 -12  420.16   20.70
   0  -6 -12  386.26   18.80
   0   6  12  465.25   21.80
   0   6  12  415.76   15.70
  -1  -6 -12  158.78    9.70
  -1  -6 -12  148.49   11.00
  -1  -6 -12  170.28   12.30
  -1  -6 -12  154.88   11.80
  -1   6  12  161.38   12.20
  -1   6  12  152.48    8.20
   1   6 -12  172.18    7.80
  -1   6 -12  167.18    9.10
   1  -6 -12  149.29   11.40
   1   6  12  163.18    9.10
   1  -6 -12  162.58    8.50
   1  -6 -12  153.08   10.60
  -1   6 -12  145.49   11.60
  -2  -6 -12   10.90    3.00
   2   6 -12    4.90    1.70
  -2  -6 -12    2.50    2.80
  -2  -6 -12   10.90    5.40
  -2   6  12    8.80    4.10
  -2  -6 -12   12.20    5.60
  -2   6  12    5.10    2.40
   2   6 -12    9.80    2.10
   2  -6 -12    6.70    3.80
   2  -6 -12    2.30    2.00
   2   6  12    1.60    2.40
  -2  -6  12    9.40    2.90
  -2   6 -12   10.90    4.20
  -2   6 -12   10.10    2.80
  -3  -6 -12    5.30    3.30
  -3  -6 -12    8.80    4.10
  -3  -6 -12    3.90    3.60
  -3   6  12    3.20    2.50
   3   6 -12    4.70    1.60
   3   6 -12    1.80    1.70
  -3   6  12    1.90    3.40
  -3  -6  12    1.60    2.50
  -3   6 -12    7.70    2.80
   3  -6 -12    0.30    2.30
  -3   6 -12    4.60    3.60
   3   6  12    9.90    3.20
  -4   6  12    5.90    4.00
  -4  -6 -12    7.00    4.20
  -4  -6 -12    6.80    3.20
   4   6 -12    8.20    3.20
  -4  -6 -12    8.90    4.40
  -4   6  12    6.00    3.10
   4   6 -12    4.20    1.60
  -4  -6  12    6.40    3.10
   4  -6 -12   10.90    5.30
   4   6  12    6.70    3.10
  -4   6 -12    3.60    2.60
  -4  -6  12    6.50    2.50
  -4   6 -12   10.60    4.30
  -5  -6 -12  225.98   16.50
   5   6 -12  208.08   11.70
  -5  -6 -12  234.38   14.40
  -5  -6 -12  211.78   15.30
  -5   6  12  222.48   12.50
  -5   6  12  224.58   14.80
  -5   6 -12  260.37   13.20
  -5  -6  12  207.08   10.20
   5   6  12  218.78   13.00
   5  -6 -12  223.88   15.10
  -5  -6  12  213.38   13.80
  -5   6 -12  246.08   15.60
  -6  -6 -12  185.78   13.10
  -6   6  12  184.08   13.80
   6   6 -12  160.78   10.70
  -6  -6 -12  156.98   14.20
  -6   6  12  159.88   11.30
  -6  -6 -12  159.88   13.60
  -6  -6  12  181.18   13.40
  -6   6 -12  167.58   11.90
  -6  -6  12  162.78    9.50
   6   6  12  156.28   11.70
  -6   6 -12  167.18   13.80
  -7  -6 -12   -1.30    3.80
  -7  -6 -12   -3.90    3.10
  -7   6  12    0.20    3.70
   7   6 -12   -0.70    2.80
  -7   6  12   -1.70    3.60
  -7   6 -12    2.00    5.00
  -7   6 -12   -2.20    3.10
  -7  -6  12    8.70    4.80
  -7  -6  12   -4.40    3.60
  -8   6  12   15.30    4.90
  -8  -6 -12   12.50    4.50
  -8   6  12    9.20    4.80
  -8  -6 -12   17.70    6.60
  -8   6 -12   12.40    5.00
  -8  -6  12   18.30    6.30
  -8   6 -12   17.00    6.90
   0  -7  12   -0.20    1.50
   0   7 -12   -0.70    2.10
   0  -7 -12   -0.40    2.20
   0   7 -12   -1.80    3.10
   0   7  12    2.80    3.10
   0  -7 -12   -3.60    2.10
   0  -7 -12   -1.10    2.60
   0  -7 -12   -4.40    2.60
  -1   7  12   88.59    9.60
  -1   7  12  112.49    7.60
  -1  -7 -12  106.99    9.70
  -1  -7 -12   97.69    9.60
  -1  -7 -12  101.09    8.20
   1   7 -12  101.89    6.80
  -1  -7 -12   95.69    9.80
  -1  -7  12   96.09    9.40
   1  -7 -12   93.79    7.10
   1  -7 -12  108.09    9.80
  -1   7 -12   93.69    7.30
   1   7  12   99.09    7.60
  -1   7 -12   79.59    8.90
  -2  -7 -12  123.99    8.80
  -2  -7 -12  115.99   10.60
  -2  -7 -12  105.09    9.80
   2   7 -12  106.99    6.60
  -2   7  12  111.79    7.90
   2   7 -12  131.59    6.40
  -2  -7 -12  120.39   10.60
  -2   7  12  113.19   10.60
  -2  -7  12  108.09    7.70
  -2   7 -12  116.39   10.10
   2  -7 -12  104.59    7.20
  -2   7 -12  117.89    7.90
   2   7  12  117.99    8.40
   2  -7 -12  122.09   10.30
  -3   7  12  148.99    9.50
   3   7 -12  126.79    6.90
  -3  -7 -12  148.59   12.10
   3   7 -12  139.29    7.70
  -3   7  12  127.29   11.30
  -3  -7 -12  135.89   11.60
  -3  -7 -12  129.29   11.20
   3   7  12  141.99    9.80
  -3   7 -12  134.49    8.90
  -3   7 -12  118.29   10.80
  -3  -7  12  125.79    7.60
   3  -7 -12  150.48   11.40
  -3  -7  12  127.99    9.10
   4   7 -12   73.19    5.40
  -4   7  12   61.79    8.40
  -4  -7 -12   79.39    9.90
  -4   7  12   75.69   10.00
  -4  -7 -12   66.39    8.40
   4   7 -12   77.89    6.30
  -4  -7 -12   71.59    9.90
  -4  -7  12   72.59    6.10
  -4   7 -12   82.29    7.10
  -4  -7  12  101.79    8.80
  -4   7 -12   64.29    8.10
   4   7  12   79.79    7.80
   5   7 -12   25.10    3.70
  -5  -7 -12   24.40    6.40
  -5  -7 -12   32.00    6.30
   5   7 -12   29.30    4.80
  -5   7  12   29.30    6.80
  -5   7  12   31.80    5.60
  -5   7 -12   30.90    6.50
  -5  -7  12   27.40    4.50
  -5   7 -12   28.00    5.40
   5  -7 -12   33.70    6.90
  -5  -7  12   31.00    6.40
   5   7  12   26.80    5.50
  -6   7  12   30.00    7.10
  -6  -7 -12   31.80    6.60
  -6   7  12   32.30    6.70
  -6  -7 -12   33.20    7.60
   6   7 -12   26.40    5.10
   6   7  12   23.60    6.00
  -6   7 -12   25.20    6.50
  -6  -7  12   23.10    5.90
  -6   7 -12   28.40    5.90
  -6  -7  12   30.80    4.40
   6  -7 -12   26.90    6.60
  -7   7  12   36.70    7.40
  -7   7  12   37.80    6.90
  -7  -7 -12   49.70    8.00
  -7  -7  12   36.90    8.30
   7   7  12   31.20    6.50
  -7   7 -12   40.20    8.00
  -7   7 -12   33.10    6.50
  -8  -7 -12   25.20    6.00
  -8   7  12   24.20    9.30
  -8  -7 -12   38.70    9.80
  -8   7  12   33.10    7.10
  -8   7 -12   27.50    6.40
  -8  -7  12   30.40    8.30
  -8   7 -12   25.10    7.50
   0   8 -12  225.88   11.90
   0  -8 -12  195.88   13.70
   0   8  12  232.18   12.30
   0   8 -12  208.18   14.00
   0  -8 -12  223.08   15.20
   0  -8 -12  185.08   11.40
  -1  -8 -12   13.10    5.40
  -1  -8 -12   10.00    4.10
  -1   8  12    8.40    4.40
  -1  -8 -12    9.90    3.90
   1   8 -12   11.00    3.30
  -1   8  12   17.90    4.10
   1  -8 -12   12.50    4.90
   1  -8 -12   18.80    4.30
   1   8  12   14.90    3.90
   1  -8 -12   11.90    4.30
  -1  -8  12    9.80    2.70
  -1   8 -12   13.90    3.50
  -1   8 -12   13.70    4.60
   2   8 -12   21.20    4.00
  -2   8  12   30.80    5.00
  -2  -8 -12   30.30    6.20
  -2  -8 -12   19.80    4.90
  -2   8  12   26.60    6.20
   2   8 -12   27.40    3.30
   2  -8 -12   19.10    5.00
   2   8  12   25.40    5.30
  -2  -8  12   23.60    4.10
  -2   8 -12   27.90    4.80
  -2  -8  12   25.50    4.40
  -2   8 -12   29.70    6.10
   3   8 -12    2.70    2.40
  -3  -8 -12   -3.70    2.80
  -3   8  12    1.90    2.90
  -3  -8 -12    4.70    3.50
   3   8 -12    1.10    2.00
  -3   8  12    1.40    3.00
  -3   8 -12    6.60    3.10
  -3   8 -12    1.60    3.40
   3   8  12    5.40    3.30
  -3  -8  12    2.90    2.60
  -3  -8  12   -6.70    2.30
   3  -8 -12    4.90    3.40
  -4  -8 -12    4.40    3.80
  -4   8  12    9.00    4.40
  -4  -8 -12    2.40    3.40
   4   8 -12    2.00    2.20
   4   8 -12   -0.60    1.90
  -4   8  12   -1.60    2.90
  -4   8 -12    3.20    2.80
  -4   8 -12    4.40    3.60
   4  -8 -12   11.80    5.30
  -4  -8  12   -1.10    2.70
  -4  -8  12   -0.20    2.70
   4   8  12    0.10    2.70
  -5   8  12   25.70    5.70
   5   8 -12   27.50    4.60
   5   8 -12   25.30    4.30
  -5   8  12   21.70    5.90
  -5  -8 -12   28.20    6.30
  -5  -8 -12   34.00    8.30
  -5  -8  12   30.00    5.20
   5   8  12   19.80    5.60
  -5   8 -12   35.60    6.80
  -5  -8  12   24.80    5.70
  -5   8 -12   23.00    5.10
   5  -8 -12   34.90    6.80
  -6  -8 -12   39.10    7.60
   6   8 -12   44.00    7.00
  -6   8  12   45.60    8.00
   6   8 -12   39.50    5.40
  -6  -8 -12   35.80    8.50
  -6   8  12   57.49    9.40
  -6  -8  12   34.20    7.40
   6  -8 -12   39.30    7.50
  -6   8 -12   33.10    6.30
   6   8  12   31.40    6.00
  -6   8 -12   41.60    7.80
  -7   8  12    2.30    4.00
  -7   8  12    5.20    4.60
  -7  -8 -12    0.70    3.90
   7   8  12    5.80    3.80
  -7   8 -12   -8.10    3.70
  -7   8 -12    4.90    4.10
   7  -8 -12    0.30    4.00
  -7  -8  12   -1.60    4.10
   0   9  12   -0.90    2.90
   0   9 -12   -2.10    3.00
   0   9 -12   -2.20    2.50
   0  -9 -12    2.00    3.30
   0  -9 -12    1.90    4.10
   1   9 -12  775.42   28.30
  -1   9  12  817.92   29.80
  -1  -9 -12  754.92   31.20
  -1   9  12  845.02   34.20
  -1  -9 -12  895.81   34.60
  -1   9 -12  813.22   31.30
   1  -9 -12  826.02   34.10
  -1   9 -12  834.52   29.30
  -1  -9  12  772.52   25.20
   1   9  12  788.72   29.70
  -2  -9 -12  137.69   12.60
   2   9 -12  145.39    6.70
  -2   9  12  154.38   11.30
  -2   9  12  141.79   13.10
  -2  -9 -12  122.09   11.50
   2  -9 -12  136.99    9.90
  -2   9 -12  135.89   11.10
  -2   9 -12  147.19   10.10
   2  -9 -12  156.48   13.70
  -2  -9  12  146.49    9.10
  -2  -9  12  127.49    9.40
   2   9  12  146.49   10.80
  -3   9  12    5.20    3.80
  -3   9  12    2.50    3.60
  -3  -9 -12   11.30    4.70
  -3  -9 -12   10.10    5.00
   3   9 -12   10.20    2.50
  -3   9 -12   13.20    4.50
  -3   9 -12    7.70    3.70
  -3  -9  12   12.20    3.90
  -3  -9  12    4.40    3.60
   3   9  12    9.60    4.00
  -4  -9 -12  109.79   11.20
  -4   9  12  107.89   11.30
  -4  -9 -12  120.79   11.70
   4   9 -12  111.29    8.00
   4   9 -12  104.59    7.80
  -4   9  12  104.29   10.20
  -4   9 -12  120.19    9.50
  -4  -9  12  111.79    9.80
   4  -9 -12  107.59   10.40
  -4   9 -12  107.99   10.10
  -5   9  12  275.57   17.60
  -5   9  12  248.98   16.00
  -5  -9 -12  250.07   17.90
   5   9 -12  252.67   17.40
   5   9 -12  239.48   12.20
  -5  -9 -12  235.78   16.70
  -5  -9  12  246.78   13.60
   5   9  12  232.28   15.30
  -5  -9  12  226.08   15.40
   5  -9 -12  264.97   16.10
  -5   9 -12  245.58   14.40
  -5   9 -12  258.27   15.40
  -6   9  12   42.30    8.40
  -6  -9 -12   40.70   12.70
   6   9 -12   54.99    6.40
  -6   9  12   38.60    7.40
   6   9  12   37.60    7.50
  -6   9 -12   51.29    7.70
   6  -9 -12   50.89    8.70
  -6   9 -12   48.80    7.60
  -6  -9  12   48.40    8.40
  -7  -9 -12  329.27   20.30
  -7   9  12  306.77   23.90
   7   9 -12  311.47   15.60
  -7   9  12  320.57   19.10
  -7  -9 -12  323.07   22.30
  -7  -9  12  288.17   19.70
   7   9  12  300.07   19.10
  -7   9 -12  335.47   18.90
   7  -9 -12  362.26   20.40
  -7   9 -12  334.27   18.50
   0 -10 -12    9.70    3.80
   0 -10 -12    9.00    4.50
   0  10 -12   11.30    4.80
   0  10  12    9.90    3.90
   0  10 -12    5.60    3.40
  -1  10  12   39.50    7.10
   1  10 -12   53.19    7.20
  -1 -10 -12   59.69    9.60
  -1 -10 -12   38.50    7.00
  -1 -10  12   36.50    4.60
  -1  10 -12   50.09    7.20
   1  10  12   45.10    7.30
  -1  10 -12   47.50    7.40
   1 -10 -12   51.09    7.80
   1 -10 -12   41.20    8.30
  -2 -10 -12   18.90    5.40
   2  10 -12   28.20    5.50
  -2 -10 -12   18.00    5.90
  -2  10  12   20.10    5.70
  -2  10  12   25.40    5.60
  -2 -10  12    5.40    4.70
   2  10  12   20.70    5.10
  -2 -10  12   22.00    4.10
  -2  10 -12   16.80    5.20
   2 -10 -12   23.10    6.20
  -2  10 -12   18.00    4.90
  -3  10  12    1.00    4.00
   3  10 -12    6.60    2.30
  -3 -10 -12   -1.50    3.50
  -3  10  12   -3.00    3.40
  -3 -10 -12    4.40    4.10
   3  10 -12    1.60    3.00
  -3 -10  12    1.70    3.30
   3  10  12    3.30    4.10
  -3 -10  12    0.10    4.20
  -3  10 -12    6.40    3.70
   3 -10 -12    3.50    3.90
  -3  10 -12    7.90    3.70
  -4  10  12   30.70    7.20
   4  10 -12   32.20    4.80
  -4 -10 -12   40.30    7.80
  -4 -10 -12   31.10    7.70
   4  10 -12   36.60    5.70
  -4  10  12   27.60    6.80
  -4 -10  12   35.30    6.30
  -4  10 -12   38.70    6.30
   4  10  12   30.40    6.40
   4 -10 -12   40.20    7.10
  -4 -10  12   33.10    6.50
  -5  10  12    8.70    5.40
  -5  10  12   14.00    5.90
   5  10 -12   11.00    4.00
  -5 -10 -12    6.50    5.30
  -5  10 -12   18.20    5.40
   5  10  12    5.90    5.50
  -5 -10  12   10.10    5.20
   5 -10 -12    0.90    3.80
  -5  10 -12    9.90    4.50
  -6  10  12    5.70    4.90
  -6  10  12   16.00    6.50
  -6 -10 -12    4.70    4.20
   6  10 -12    0.70    3.40
  -6  10 -12    9.20    4.40
  -6 -10  12    8.30    6.20
  -6  10 -12    9.90    4.50
   6  10  12    2.00    4.30
   6 -10 -12    1.30    4.60
   0  11 -12   -0.90    3.60
   0 -11 -12    1.00    4.30
   0  11 -12    1.00    3.30
   0  11  12   -5.00    4.10
   0 -11 -12   -4.30    2.70
  -1 -11 -12  583.74   27.90
  -1  11  12  525.55   25.20
  -1 -11 -12  528.95   24.90
   1  11 -12  592.44   24.20
   1 -11 -12  573.34   27.70
  -1  11 -12  580.74   23.90
   1  11  12  571.74   25.60
  -1 -11  12  504.95   19.00
   1 -11 -12  509.65   23.90
  -1  11 -12  564.64   24.00
   2  11 -12   71.89    8.50
  -2 -11 -12   43.60    8.00
  -2 -11 -12   55.29    8.90
  -2  11  12   64.69   10.40
  -2  11  12   65.29    9.60
  -2  11 -12   68.99    8.40
  -2 -11  12   64.99    7.00
   2 -11 -12   55.99    8.40
  -2  11 -12   67.69    8.10
   2 -11 -12   45.30    7.90
   2  11  12   60.79   13.80
   3  11 -12   52.19    7.60
   3  11 -12   62.49    5.70
  -3 -11 -12   56.79    9.50
  -3 -11 -12   65.69   10.30
  -3  11  12   70.89   10.90
  -3  11  12   45.70    8.40
  -3  11 -12   70.49    8.00
  -3  11 -12   67.29    7.70
   3  11  12   83.09    9.90
   3 -11 -12   74.69    8.50
  -3 -11  12   57.69    7.80
   4  11 -12   68.49    8.10
  -4 -11 -12   60.39    9.80
  -4  11  12   83.19   11.20
  -4  11  12   71.69   10.50
  -4 -11  12   73.39    9.70
  -4  11 -12   76.89    8.60
  -4  11 -12   59.39    7.80
   4  11  12   75.29   10.60
   4 -11 -12   84.29    9.70
  -5 -11 -12  182.28   16.00
  -5  11  12  191.18   15.40
   5  11 -12  192.08   12.40
  -5  11  12  191.08   15.80
  -5  11 -12  199.98   12.90
   5 -11 -12  214.98   14.50
   5  11  12  194.98   15.20
  -5 -11  12  187.58   14.80
  -5  11 -12  183.18   13.20
   0 -12 -12  197.38   14.10
   0 -12 -12  194.98   15.70
   0  12 -12  207.68   13.90
   0  12 -12  186.68   13.50
   0  12  12  192.28   18.30
  -1 -12 -12  149.09   12.10
  -1  12  12  140.79   15.40
   1  12 -12  154.48   12.20
  -1 -12 -12  173.88   15.00
  -1  12 -12  155.38   11.80
   1  12  12  153.28   13.90
  -1  12 -12  152.88   11.50
  -1 -12  12  119.49    8.70
   1 -12 -12  150.88   12.00
   1 -12 -12  150.88   13.90
  -2 -12 -12   13.60    5.00
   2  12 -12    1.50    3.90
  -2  12  12   -3.10    3.40
  -2  12  12   -0.80    4.70
  -2 -12 -12    1.90    5.20
  -2  12 -12    2.50    3.40
   2 -12 -12    1.40    4.40
   2  12  12    0.50    3.90
   2 -12 -12   -0.10    3.20
  -2 -12  12   -3.70    2.80
  -3 -12 -12    9.20    5.10
  -3 -12 -12   -2.20    4.10
   3  12 -12   -2.90    3.50
  -3  12  12    6.60    4.50
  -3  12 -12    5.40    3.80
  -3  12 -12    2.90    3.40
   3  12  12   -1.00    4.20
   3 -12 -12    0.00    3.60
  -3 -12  12    2.20    4.30
  -4 -12 -12   12.30    5.60
  -4 -12 -12   11.50    5.00
   4  12 -12    6.40    4.30
  -4  12  12    2.50    5.80
  -4  12  12    2.50    4.80
   4 -12 -12    9.10    4.20
  -4  12 -12    2.90    4.50
  -4 -12  12   11.10    6.00
  -4  12 -12   12.60    4.20
   4  12  12    1.90    4.90
   0  13 -12   -5.00    3.60
   0  13  12   -3.30    5.10
   0 -13 -12   -2.20    3.60
   0 -13 -12    5.80    4.70
   0  13 -12    0.50    4.80
  -1 -13 -12   11.90    5.30
   1  13 -12    5.70    5.10
   1  13 -12    5.90    5.30
  -1 -13 -12   14.50    5.80
  -1  13  12    9.30    5.70
   1  13  12   13.90    6.40
  -1  13 -12    9.40    5.10
   1 -13 -12   11.90    6.00
   1 -13 -12   10.50    5.00
  -1  13 -12   14.30    4.70
   2  13 -12  -10.30    3.50
  -2 -13 -12    5.00    7.40
  -2  13  12   -8.80    4.10
  -2 -13 -12    2.80    4.60
  -2  13 -12    2.00    4.20
  -2  13 -12   -2.60    3.10
   2 -13 -12   -2.90    3.70
   2 -13 -12   -0.90    3.80
   2  13  12    8.30    6.10
  -3 -13 -12   25.10    6.80
  -3  13  12   10.90    6.40
  -3 -13 -12    5.20    4.90
  -3  13  12   16.90    7.10
   3  13 -12   15.30    5.90
   3 -13 -12   19.60    5.70
  -3  13 -12   18.10    4.80
  -3  13 -12   22.10    5.70
   3  13  12   20.20    7.50
   3 -13 -12   25.20   10.10
   0 -14 -12  141.69   13.10
   0  14 -12  162.68   13.60
   0 -14 -12  161.68   14.80
   0  14 -12  160.28   12.20
   0  14  12  153.38   15.60
   1  14 -12   37.60    7.50
  -1 -14 -12   38.50    8.10
  -1  14  12   36.70    9.20
   1  14  12   39.40    9.50
  -1  14 -12   55.99    8.70
   0   0 -13   -3.00    2.40
   0   0 -13   -1.20    2.00
   0   0 -13   -0.20    1.20
   0   0  13   -1.80    1.80
  -1   0  13   -0.50    2.00
   1   0 -13   -0.50    2.00
  -1   0 -13   -0.70    0.90
   1   0 -13   -0.80    1.30
  -1   0 -13    0.50    1.10
  -1   0 -13   -0.20    1.80
  -1   0 -13    2.90    3.20
  -1   0 -13   -0.50    1.40
   1   0  13   -3.40    1.60
   2   0 -13    0.70    3.10
  -2   0 -13   -1.80    2.80
  -2   0  13   -3.70    1.90
  -2   0 -13    5.80    1.90
  -2   0 -13    1.70    1.30
   2   0 -13    1.00    1.90
  -2   0 -13    0.30    1.80
  -3   0 -13   -0.20    1.50
  -3   0 -13   -0.20    3.60
  -3   0  13    2.00    2.80
   3   0 -13   -0.90    1.90
  -3   0 -13    7.50    2.20
  -3   0 -13    0.40    1.80
  -4   0  13   -1.40    2.70
  -4   0 -13    0.20    3.80
  -4   0 -13    0.60    1.40
  -4   0 -13    0.00    1.90
   4   0 -13   -0.50    2.10
  -4   0 -13   -0.40    1.40
  -5   0 -13    3.40    4.10
   5   0 -13   -2.40    2.30
  -5   0 -13   -3.00    1.40
  -5   0  13   -1.00    2.70
  -6   0  13   -2.80    2.70
  -6   0 -13    0.80    1.80
  -6   0 -13    0.50    1.80
  -6   0 -13    1.70    4.10
  -7   0  13   -3.60    2.10
  -7   0 -13   -5.60    4.30
  -7   0  13   -2.50    3.00
  -8   0  13   -0.50    4.00
  -8   0 -13    8.20    5.90
  -8   0 -13   -2.60    2.20
   0  -1  13   -1.70    1.60
   0  -1 -13    8.20    4.00
   0   1  13    4.30    2.80
   0   1 -13    0.20    1.20
   0   1 -13   -1.10    1.60
   0   1 -13   -1.20    2.30
   0  -1 -13   -0.30    2.10
  -1  -1 -13  362.76   18.70
  -1   1  13  331.47   16.20
   1   1 -13  349.67   13.40
  -1  -1 -13  346.47   13.70
  -1  -1 -13  344.17   14.50
   1  -1  13  313.87   21.00
   1   1 -13  334.57   18.60
  -1  -1 -13  338.97   15.20
  -1   1 -13  332.47   10.50
   1  -1 -13  327.17   14.20
  -1   1 -13  354.86   12.30
  -1  -1  13  349.47   15.60
  -1   1 -13  327.97   10.70
   1  -1 -13  361.86   18.70
  -1   1 -13  315.77   17.90
  -1   1 -13  345.57   13.30
  -2   1  13  850.61   29.90
  -2  -1 -13  800.82   25.90
  -2  -1 -13  840.82   27.40
  -2  -1 -13  820.72   24.90
   2   1 -13  838.82   28.30
  -2  -1 -13  788.82   31.90
   2   1 -13  859.51   33.50
  -2   1 -13  813.82   32.50
  -2   1 -13  787.22   24.40
  -2  -1  13  840.32   28.90
  -2   1 -13  844.02   24.00
   2  -1 -13  821.32   27.50
   2  -1 -13  820.92   32.70
  -2   1 -13  820.82   24.50
  -3  -1 -13  834.02   26.00
  -3  -1 -13  795.12   25.70
  -3  -1 -13  859.21   26.80
  -3   1  13  840.22   30.00
   3   1 -13  814.62   27.20
  -3   1 -13  824.42   23.50
   3  -1 -13  786.82   27.80
  -3   1 -13  807.12   25.60
  -3  -1  13  820.52   29.40
  -3   1 -13  797.52   23.60
  -3   1 -13  757.52   32.00
  -4  -1 -13  180.98    9.50
  -4  -1 -13  173.88    9.10
  -4  -1 -13  160.28   13.10
  -4  -1 -13  168.18    9.60
   4   1 -13  162.48   10.10
  -4   1  13  160.68   11.70
  -4   1 -13  171.28    7.30
  -4  -1  13  176.18   11.80
  -4   1 -13  192.78    8.30
   4  -1 -13  168.88   10.80
  -4   1 -13  167.28    9.70
  -5  -1 -13   91.49    6.80
  -5  -1 -13   75.49    6.40
  -5  -1 -13   80.79   10.20
  -5   1  13   73.19    9.00
   5   1 -13   93.39   10.70
  -5   1 -13   95.09   10.80
  -5   1 -13   85.99    5.30
  -5  -1  13   84.29    8.60
   5  -1 -13   87.49    8.20
  -5   1 -13   87.29    5.10
  -6   1  13   77.89   10.40
  -6  -1 -13   66.19    6.00
  -6  -1 -13   67.19    6.50
  -6  -1 -13   68.49   10.90
   6   1 -13   68.79    7.50
  -6   1 -13   51.39    4.60
  -6  -1  13   63.19    9.60
  -6   1 -13   60.89    4.70
  -6   1 -13   59.19    9.90
  -7  -1 -13   85.59    8.00
  -7  -1 -13  112.49   13.00
  -7   1  13   90.59   10.50
  -7   1  13   99.49    5.50
  -7  -1 -13   98.09    7.40
  -7   1  13   83.59    6.20
  -7  -1  13   93.89   10.90
  -7   1 -13   96.79    6.20
  -7  -1  13   96.29    5.60
  -7   1 -13   86.19    6.30
  -7   1 -13   67.49   11.20
  -8  -1 -13  212.08   18.60
  -8   1  13  194.68   10.50
  -8   1  13  212.28   15.90
  -8  -1 -13  186.98   11.00
  -8   1 -13  191.88   18.60
  -8   1 -13  210.28    9.90
  -8  -1  13  190.98    9.90
  -8  -1  13  185.98   15.60
   0   2 -13 1427.06   38.40
   0  -2  13 1407.06   42.00
   0  -2 -13 1394.46   41.70
   0  -2 -13 1402.16   47.10
   0  -2 -13 1321.57   44.00
   0   2  13 1443.66   45.50
   0   2 -13 1405.56   40.10
   0   2 -13 1390.06   47.40
   1   2 -13   20.30    5.30
  -1  -2 -13   29.50    5.50
   1   2 -13   32.30    3.60
  -1   2  13   30.90    5.90
  -1  -2 -13   29.10    3.20
  -1  -2 -13   25.90    4.10
   1  -2  13   26.60    4.40
  -1  -2 -13   25.70    6.20
   1  -2 -13   25.50    4.00
  -1  -2  13   29.60    4.70
  -1   2 -13   32.80    2.90
  -1   2 -13   27.50    2.70
  -1   2 -13   27.30    2.50
  -1   2 -13   24.60    5.90
   1  -2 -13   24.00    5.90
  -1   2 -13   24.60    3.00
  -2   2  13   53.79    6.70
  -2  -2 -13   57.29    6.40
   2   2 -13   37.80    4.30
  -2  -2 -13   45.00    7.50
  -2  -2 -13   49.10    4.50
  -2  -2  13   61.59    6.30
  -2   2 -13   60.49    4.50
   2  -2 -13   51.89    5.60
  -2   2 -13   46.70    4.00
   2  -2 -13   39.80    7.10
  -2   2 -13   44.70    7.90
  -3   2  13    9.60    4.10
  -3  -2 -13    7.90    3.00
   3   2 -13    9.40    3.00
  -3  -2 -13    2.70    2.00
  -3  -2 -13    9.30    4.10
  -3  -2 -13    5.20    2.30
  -3   2 -13   19.60    5.50
   3  -2 -13   19.70    5.50
  -3   2 -13   10.10    2.90
  -3  -2  13    5.90    3.10
   3  -2 -13    9.90    3.30
  -3   2 -13   10.90    2.80
  -4  -2 -13   15.10    3.70
  -4  -2 -13   11.00    4.10
  -4  -2 -13   26.60    4.30
  -4  -2 -13   14.90    3.80
   4   2 -13   11.50    3.10
  -4   2  13   21.10    5.00
   4  -2 -13   22.40    4.60
  -4   2 -13   22.70    6.30
  -4  -2  13   15.60    4.10
  -4   2 -13   22.00    4.20
  -5   2  13   18.00    5.00
  -5  -2 -13    8.60    3.20
  -5  -2 -13   20.40    5.50
   5   2 -13   12.20    3.70
  -5  -2  13   15.10    4.60
  -5   2 -13    6.20    4.80
  -6  -2 -13  350.06   21.70
  -6   2  13  323.67   11.50
  -6   2  13  364.36   19.60
  -6  -2 -13  330.37   16.40
  -6  -2 -13  368.86   15.70
   6   2 -13  324.07   16.60
  -6   2 -13  343.57   21.30
  -6  -2  13  349.96   19.00
  -6   2 -13  362.06   11.10
  -7   2  13   52.79    4.50
  -7   2  13   51.99    5.70
  -7  -2 -13   48.30    9.30
  -7  -2 -13   52.59    6.20
  -7   2  13   56.09    9.20
  -7  -2 -13   49.60    8.20
  -7  -2  13   64.39    9.60
  -7   2 -13   54.29    4.10
  -7  -2  13   52.09    4.30
  -7   2 -13   41.60    9.20
  -7   2 -13   45.20    4.00
  -8   2  13   46.70    9.10
  -8  -2 -13   53.59    6.50
  -8   2  13   48.90    6.10
  -8  -2  13   54.29    9.40
  -8   2 -13   45.80    4.30
  -8  -2  13   38.00    5.00
  -8   2 -13   47.30    9.40
   0   3  13   -2.80    2.00
   0  -3 -13    1.20    2.00
   0  -3 -13    4.80    2.60
   0   3 -13    0.50    1.40
   0  -3 -13   -0.90    1.20
   0  -3  13    2.10    1.80
   0   3 -13   -0.10    2.70
   0  -3 -13    2.00    3.20
   0   3 -13    1.50    1.80
   1   3 -13    9.90    4.40
   1   3 -13    3.40    1.50
  -1  -3 -13   -0.30    2.10
  -1  -3 -13    5.40    3.80
  -1  -3 -13    3.40    2.10
  -1  -3 -13    1.90    2.10
  -1   3  13   -3.50    2.00
  -1   3 -13    0.70    1.40
   1  -3 -13    0.10    2.00
  -1   3 -13    3.80    2.00
  -1   3 -13    1.00    3.40
   1  -3 -13    2.80    3.00
  -1  -3  13    0.30    2.60
  -2  -3 -13   88.59    6.20
  -2  -3 -13   82.69    7.00
   2   3 -13   87.09    5.90
  -2   3  13   98.09    9.00
  -2  -3 -13   90.79    8.10
   2  -3 -13   98.69   11.20
   2  -3 -13   92.99    7.50
  -2   3 -13   93.99    5.60
  -2   3 -13   96.59    5.80
  -2   3 -13   78.69    9.20
  -2  -3  13   78.39    7.20
  -3  -3 -13  228.88   12.60
  -3   3  13  236.48   14.00
  -3  -3 -13  198.18   11.30
  -3  -3 -13  213.18   14.70
  -3   3 -13  224.18   10.20
   3  -3 -13  237.48   15.40
  -3   3 -13  213.18   10.10
  -3   3 -13  212.88   14.70
   3  -3 -13  200.58   12.10
  -3  -3  13  191.18   11.80
  -4  -3 -13   46.30    5.90
  -4   3  13   52.19    7.90
  -4  -3 -13   36.80    7.60
   4   3 -13   42.80    5.10
  -4  -3 -13   47.60    6.50
  -4  -3 -13   44.90    5.40
  -4   3 -13   48.50    5.40
  -4   3 -13   36.10    5.00
   4  -3 -13   43.40    6.20
  -4  -3  13   39.30    6.40
  -4   3 -13   42.80    7.90
  -5  -3 -13   -2.80    3.90
   5   3 -13    1.90    2.60
  -5   3  13    0.00    3.10
  -5  -3 -13   -4.40    2.50
  -5  -3 -13    2.80    2.70
  -5  -3  13    3.30    3.30
  -5   3 -13    5.30    4.70
  -6   3  13    4.20    1.80
  -6  -3 -13    8.20    5.30
  -6   3  13    4.30    3.90
  -6  -3 -13    9.30    3.90
  -6   3  13    3.00    2.40
  -6  -3 -13    7.40    3.10
  -6  -3  13   -0.20    3.10
  -6   3 -13    3.80    4.90
  -7  -3 -13   -1.00    4.40
  -7   3  13   11.20    3.00
  -7  -3 -13    4.70    5.30
  -7  -3 -13    0.00    2.70
  -7   3  13    4.10    3.40
  -7   3  13    0.30    3.70
  -7  -3  13   -4.90    1.70
  -7   3 -13    5.50    5.10
  -7  -3  13    0.80    2.40
  -7  -3  13   -0.40    3.60
  -8  -3 -13   27.00    5.30
  -8  -3 -13   44.10   11.40
  -8   3  13   36.90    7.70
  -8   3 -13   37.10    8.80
   0   4 -13 1323.67   34.20
   0  -4 -13 1326.77   45.90
   0  -4 -13 1306.77   41.40
   0   4  13 1323.07   36.00
   0   4 -13 1293.77   45.60
   0   4  13 1335.47   48.70
   0  -4 -13 1370.86   44.60
   0  -4 -13 1312.27   37.00
  -1   4  13   34.50    2.60
  -1  -4 -13   37.20    4.50
   1   4 -13   29.30    3.00
  -1  -4 -13   32.60    6.10
  -1  -4 -13   39.10    5.60
  -1   4  13   37.60    6.20
   1   4 -13   34.70    7.40
  -1   4 -13   36.40    3.60
  -1  -4  13   33.60    4.70
   1  -4 -13   26.70    2.60
   1  -4 -13   34.10    6.60
   1   4  13   38.30    4.00
   1  -4 -13   32.70    5.30
  -1   4 -13   35.60    3.20
  -1   4 -13   31.90    6.30
  -2   4  13   22.00    5.10
  -2  -4 -13   15.00    5.50
  -2  -4 -13   15.40    4.60
   2   4 -13   26.30    3.70
  -2  -4 -13    8.90    3.30
  -2  -4 -13   17.40    3.20
   2  -4 -13   13.30    3.90
  -2  -4  13   15.60    3.80
  -2   4 -13   16.40    2.90
  -2   4 -13   16.30    2.80
  -2   4 -13   18.90    5.60
   2   4  13   17.20    3.50
   3   4 -13    1.70    1.80
  -3   4  13    4.20    3.20
  -3  -4 -13    2.30    2.20
  -3  -4 -13    6.80    3.20
  -3  -4 -13    3.30    2.90
  -3  -4 -13    3.50    3.40
   3  -4 -13   -3.70    2.00
  -3   4 -13    0.80    2.00
  -3   4 -13   -0.40    2.90
   3  -4 -13    0.40    3.20
  -3  -4  13    2.10    2.50
  -4  -4 -13   28.70    6.90
  -4   4  13   35.30    6.80
   4   4 -13   35.80    5.00
  -4  -4 -13   27.40    5.10
  -4   4  13   27.40    2.20
  -4  -4 -13   32.60    6.10
  -4   4 -13   27.70    4.50
  -4   4 -13   29.70    4.70
  -4   4 -13   23.70    5.90
  -4  -4  13   28.40    5.50
   4  -4 -13   26.50    6.60
  -5   4  13    4.60    2.00
  -5   4  13    5.30    3.50
   5   4 -13    7.70    2.70
  -5  -4 -13   11.10    3.60
  -5  -4 -13    4.40    3.00
  -5  -4 -13    0.40    3.40
  -6  -4 -13  528.25   23.90
  -6   4  13  501.75   16.70
  -6  -4 -13  533.65   22.20
  -6   4  13  475.95   18.60
  -6  -4 -13  527.55   27.60
  -6  -4  13  548.05   24.70
  -6  -4  13  494.65   15.50
  -6   4 -13  530.55   21.80
  -6   4 -13  580.14   27.70
  -7  -4 -13   62.49   10.70
  -7   4  13   48.20    6.40
  -7  -4 -13   65.29    7.50
  -7   4  13   54.59    6.40
  -7   4  13   51.09    8.60
  -7  -4  13   58.09    7.20
  -7  -4  13   59.59    9.50
  -7   4 -13   64.79   10.20
  -8  -4 -13   69.09   12.00
  -8   4  13   72.89   11.10
  -8  -4 -13   77.19    8.60
  -8   4  13   80.29    8.30
  -8   4 -13   77.39   12.20
  -8  -4  13   45.40    8.90
   0  -5  13   -0.20    1.70
   0   5 -13    2.20    3.50
   0  -5 -13   -2.30    1.80
   0  -5 -13   -3.10    2.20
   0   5  13   -2.80    2.50
   0   5 -13   -0.50    1.40
   0   5  13    2.90    1.80
  -1   5  13  268.47   10.10
  -1   5  13  289.37   16.30
  -1  -5 -13  283.27   12.80
   1   5 -13  265.27    9.20
  -1  -5 -13  239.48   15.50
   1   5 -13  282.37   17.20
  -1  -5 -13  262.57   14.30
  -1   5 -13  261.97   16.20
  -1  -5  13  266.27   12.00
  -1   5 -13  279.77   11.60
   1  -5 -13  266.77   10.20
   1   5  13  267.47   11.30
  -1   5 -13  275.07   10.50
  -2   5  13   98.59    9.50
  -2   5  13  104.69    5.20
  -2  -5 -13   97.09    8.50
  -2  -5 -13  109.49   10.90
   2   5 -13  103.59    5.90
  -2  -5 -13  100.19   10.00
   2  -5 -13   86.89    8.00
  -2   5 -13  100.49    6.40
  -2   5 -13  110.29    6.80
  -2  -5  13   92.99    7.40
   2  -5 -13   94.19   10.70
  -2   5 -13  111.29   10.50
   2   5  13   99.49    8.30
  -3  -5 -13   40.50    5.60
  -3  -5 -13   45.70    7.10
  -3   5  13   41.70    6.90
  -3   5  13   44.80    3.60
   3   5 -13   45.40    4.40
  -3  -5 -13   35.50    5.90
  -3  -5 -13   34.80    6.90
  -3  -5  13   38.50    5.90
   3  -5 -13   51.79    8.40
  -3   5 -13   50.79    8.20
  -3   5 -13   36.50    4.60
   3   5  13   38.50    5.30
   4   5 -13    2.90    2.20
  -4   5  13    3.00    2.10
  -4  -5 -13    0.90    3.30
  -4  -5 -13   -1.10    2.90
  -4   5  13    3.00    3.50
  -4  -5 -13    2.10    2.60
   4  -5 -13    3.10    3.70
  -4  -5  13    6.90    3.80
   4   5  13    3.90    3.10
  -4   5 -13    0.70    2.10
  -4   5 -13    3.00    3.90
   5   5 -13  116.29    8.60
  -5  -5 -13  141.49   13.50
  -5  -5 -13  119.59   10.20
  -5   5  13  134.29   11.70
  -5  -5 -13  116.99   10.70
  -5   5  13  114.29    7.50
  -5  -5  13  101.19    9.90
   5  -5 -13  135.99   12.20
  -5   5 -13  137.09    9.60
  -5   5 -13  123.89   12.00
  -6   5  13    2.50    3.30
  -6  -5 -13    5.60    4.80
  -6  -5 -13    9.00    3.80
   6   5 -13    4.50    2.50
  -6   5  13    4.50    2.30
  -6   5  13    4.90    3.70
  -6  -5 -13    7.00    4.30
  -6   5 -13    1.10    3.30
  -6   5 -13    7.50    5.20
  -6  -5  13    5.20    3.70
  -6  -5  13    0.40    4.00
  -7  -5 -13   68.89    8.30
  -7   5  13   64.79   10.40
  -7   5 -13   54.09    8.00
  -7  -5  13   55.09    9.20
  -7   5 -13   64.49   10.50
  -8   5  13   25.30    7.10
  -8  -5 -13   32.60    9.60
  -8   5  13   25.20    6.00
  -8  -5 -13   23.40    5.90
  -8  -5  13   24.80    7.20
  -8   5 -13   22.00    5.90
  -8   5 -13   25.40    8.10
   0  -6 -13  298.07   17.00
   0  -6 -13  300.87   17.40
   0  -6 -13  274.97   15.30
   0  -6 -13  286.97   12.90
   0   6 -13  287.37   11.80
   0   6  13  285.07   12.10
   0   6  13  345.27   18.90
   0   6 -13  304.67   17.70
   0  -6  13  282.97   11.10
  -1   6  13  165.58   12.90
  -1  -6 -13  157.68   12.30
   1   6 -13  158.68    6.90
  -1  -6 -13  147.39   12.80
  -1  -6 -13  162.28    9.70
  -1   6  13  156.28    8.00
  -1  -6 -13  176.68   12.80
   1   6 -13  151.78   12.70
   1  -6 -13  148.19    7.90
  -1   6 -13  157.18   12.30
  -1   6 -13  154.48    8.80
   1   6  13  143.39    9.40
   1  -6 -13  147.69   11.50
   1  -6 -13  136.39   10.70
  -2  -6 -13    2.50    3.30
  -2   6  13    5.20    2.10
   2   6 -13   -0.20    1.30
  -2  -6 -13   -0.20    3.30
  -2  -6 -13    6.50    2.70
  -2  -6 -13   -1.50    2.60
   2   6 -13    0.30    1.00
  -2   6  13    4.40    3.70
   2   6  13    1.30    2.50
  -2   6 -13   -2.00    1.80
  -2  -6  13   -0.60    1.90
   2  -6 -13    1.50    3.30
  -2   6 -13   -0.30    3.50
  -3   6  13    6.10    3.60
  -3  -6 -13   13.20    4.60
   3   6 -13   11.40    2.90
  -3   6  13   10.00    2.40
  -3  -6 -13    7.60    4.20
  -3  -6 -13    9.20    4.00
   3   6  13   14.70    3.80
  -3   6 -13   12.00    5.20
   3  -6 -13   10.80    4.20
  -3  -6  13   11.40    3.80
  -3   6 -13    7.80    3.10
   4   6 -13    9.50    2.70
  -4   6  13    2.50    3.30
  -4  -6 -13    5.60    4.00
  -4  -6 -13    7.20    4.10
  -4   6  13   15.40    3.60
   4  -6 -13    7.10    4.70
  -4  -6  13    2.70    3.10
   4   6  13    9.40    3.50
  -4   6 -13    2.70    2.60
  -4   6 -13   12.80    4.90
  -5   6  13   24.80    4.40
  -5  -6 -13   24.80    6.60
  -5   6  13   21.60    5.70
  -5  -6 -13   24.10    7.20
  -5  -6 -13   19.40    5.40
   5   6 -13   21.40    4.10
   5   6  13   28.50    5.80
  -5   6 -13   21.90    4.90
   5  -6 -13   29.90    7.10
  -5   6 -13   17.50    6.00
  -5  -6  13   13.80    5.00
  -6  -6 -13  100.89   11.30
  -6  -6 -13  114.89   10.50
  -6   6  13   95.99   11.50
  -6  -6 -13  100.19   12.20
  -6   6  13  118.39   11.70
   6   6 -13  103.29    8.60
  -6  -6  13  104.39   10.90
  -6   6 -13  128.09   11.80
  -6  -6  13  110.69    7.40
   6  -6 -13  117.19   12.20
  -6   6 -13  124.59   14.80
  -7  -6 -13   61.09    8.70
  -7   6  13   56.29    9.30
  -7   6  13   54.69    7.90
  -7   6 -13   65.99   10.70
  -7  -6  13   60.49    9.50
  -7   6 -13   69.79    9.00
   0  -7 -13    2.50    3.00
   0   7 -13   -4.60    2.80
   0  -7 -13    0.20    3.00
   0  -7  13   -1.70    1.50
   0   7 -13    3.50    2.40
   0  -7 -13    1.70    3.20
  -1  -7 -13  577.94   22.20
  -1   7  13  550.54   20.10
   1   7 -13  571.64   19.10
  -1  -7 -13  585.94   25.90
  -1   7  13  598.14   26.90
  -1  -7 -13  603.54   26.50
   1   7 -13  603.84   27.10
  -1  -7 -13  562.24   27.70
   1  -7 -13  567.24   26.70
  -1   7 -13  601.14   21.50
   1   7  13  575.14   21.20
   1  -7 -13  535.15   24.90
  -1  -7  13  590.74   19.70
   1  -7 -13  545.55   20.30
  -1   7 -13  556.24   25.30
  -2  -7 -13  156.98   12.10
  -2  -7 -13  154.58   12.30
  -2   7  13  147.89   12.40
  -2   7  13  154.68    8.90
   2   7 -13  160.68    7.40
   2   7 -13  151.88    7.20
  -2  -7 -13  156.68   12.40
  -2   7 -13  152.28   12.40
  -2  -7  13  140.29    9.00
  -2   7 -13  151.68    9.30
   2  -7 -13  150.68   12.00
   2   7  13  137.19    9.50
   2  -7 -13  141.69    8.20
  -3   7  13  214.08   15.00
  -3  -7 -13  216.98   14.90
   3   7 -13  217.68    8.70
  -3  -7 -13  212.78   15.30
  -3   7  13  224.18   11.30
  -3  -7 -13  231.88   15.20
   3   7 -13  221.08   10.10
   3   7  13  224.58   12.60
   3  -7 -13  241.88   15.00
  -3   7 -13  199.08   14.30
  -3   7 -13  219.38   11.70
  -3  -7  13  225.68   12.50
  -4   7  13   36.50    5.60
   4   7 -13   45.10    5.10
  -4  -7 -13   53.29    8.40
  -4  -7 -13   49.60    8.70
  -4  -7 -13   43.50    8.10
   4   7 -13   45.30    3.90
   4  -7 -13   40.70    7.50
  -4  -7  13   45.50    6.70
   4   7  13   55.09    6.70
  -4   7 -13   55.29    8.70
  -4  -7  13   42.20    4.70
  -4   7 -13   44.00    6.00
  -5  -7 -13  165.28   14.50
  -5  -7 -13  160.88   12.90
   5   7 -13  169.68   10.30
  -5   7  13  170.78   13.90
  -5   7 -13  190.38   13.80
  -5  -7  13  169.18   12.70
  -5  -7  13  160.28    9.00
  -5   7 -13  175.48   11.50
   5  -7 -13  171.08   13.70
  -6   7  13   15.60    5.90
  -6  -7 -13   16.50    5.30
  -6   7  13   19.70    5.60
  -6  -7 -13   22.90    8.00
   6   7  13   12.80    4.60
   6  -7 -13   15.10    5.70
  -6   7 -13   18.40    4.90
  -6   7 -13   12.40    6.50
  -6  -7  13   17.30    5.80
  -7   7  13  124.99   12.80
  -7   7  13  130.89   12.10
  -7  -7 -13  159.98   15.50
  -7   7 -13  152.88   13.90
  -7   7 -13  130.59   11.60
  -7  -7  13  149.99   14.10
   7  -7 -13  165.98   14.20
   0  -8 -13  122.39    9.00
   0   8 -13  127.89   11.60
   0   8 -13  103.59    8.10
   0   8  13  108.09    8.40
   0  -8 -13  119.19   10.90
   0  -8 -13  104.69   11.00
   1   8 -13   78.79    6.50
  -1   8  13   68.59    6.70
  -1   8  13   85.49    9.90
  -1  -8 -13   75.99    9.40
   1   8 -13   75.29    9.40
  -1  -8 -13   55.19    8.70
  -1   8 -13   61.79    6.70
   1  -8 -13   67.59    9.50
  -1   8 -13   75.59    8.90
   1  -8 -13   50.39    7.80
  -1  -8  13   58.69    5.50
   1   8  13   57.79    6.80
  -2  -8 -13   42.50    8.00
   2   8 -13   28.00    4.10
  -2   8  13   33.30    7.00
   2   8 -13   37.50    3.30
  -2  -8 -13   31.70    6.70
  -2   8  13   33.00    5.10
   2   8  13   26.20    5.30
  -2   8 -13   29.50    6.60
  -2  -8  13   35.30    5.20
   2  -8 -13   30.70    4.90
  -2   8 -13   40.00    5.80
   2  -8 -13   30.70    6.40
  -3   8  13    2.80    7.20
   3   8 -13    1.20    2.00
  -3   8  13    3.20    3.20
  -3  -8 -13    5.40    4.20
   3   8 -13   -2.60    2.00
  -3  -8 -13    4.40    3.20
  -3  -8  13    4.70    3.40
  -3   8 -13    0.80    2.80
  -3   8 -13    3.50    3.70
   3  -8 -13    1.70    3.80
   3   8  13    3.30    3.40
  -4   8  13   -1.90    3.40
  -4  -8 -13    2.30    3.70
  -4  -8 -13    4.90    3.90
   4   8 -13    4.50    2.60
   4   8 -13    1.80    2.10
  -4   8  13    3.60    4.20
   4  -8 -13    9.50    4.90
  -4   8 -13    8.30    3.80
  -4  -8  13   -1.90    3.10
  -4  -8  13    2.90    3.20
  -4   8 -13    4.20    3.90
   4   8  13    0.90    3.00
  -5  -8 -13   44.60    9.50
  -5   8  13   45.20    7.30
   5   8 -13   45.00    5.10
  -5  -8 -13   64.49    9.80
  -5   8  13   63.79    9.40
   5  -8 -13   51.09    8.60
  -5   8 -13   58.89    8.80
  -5  -8  13   49.99    6.20
  -5   8 -13   52.39    8.50
   5   8  13   54.99    7.90
  -5  -8  13   58.59    8.60
  -6  -8 -13   24.50    7.80
  -6   8  13   20.10    6.50
  -6  -8 -13   13.70    6.10
  -6   8  13   28.10    6.30
   6   8  13   30.50    6.50
   6  -8 -13   24.50    6.50
  -6  -8  13   21.00    6.80
  -6   8 -13   15.90    4.80
  -6   8 -13   30.30    6.90
  -7  -8 -13   13.80    5.50
  -7  -8 -13    9.00    6.30
  -7   8  13    5.00    7.10
  -7   8  13   12.60    6.10
  -7   8 -13    6.80    4.40
   7  -8 -13    8.10    5.80
  -7   8 -13    9.60    5.10
   7   8  13    1.90    4.00
  -7  -8  13   12.50    6.50
   0   9 -13   -5.10    3.40
   0   9 -13    4.10    3.20
   0   9  13    2.00    3.00
   0  -9 -13    0.20    2.10
   0  -9 -13   -0.20    3.10
  -1   9  13   33.80    5.70
  -1   9  13   39.70    8.40
   1   9 -13   44.10    8.00
  -1  -9 -13   39.10    7.80
  -1  -9 -13   35.80    6.80
  -1   9 -13   38.50    7.40
   1  -9 -13   44.30    7.50
  -1   9 -13   43.60    6.50
  -1  -9  13   27.30    3.90
   1   9  13   34.90    6.00
   1  -9 -13   35.70    7.20
  -2  -9 -13   28.30    6.60
  -2   9  13   25.10    5.60
  -2   9  13   21.80    5.90
  -2  -9 -13   21.70    5.80
   2   9 -13   19.60    4.30
   2  -9 -13   22.30    5.70
  -2   9 -13   27.40    5.20
  -2   9 -13   24.50    6.20
   2   9  13   29.90    5.50
  -2  -9  13   15.60    4.10
   2  -9 -13   16.80    4.50
   3   9 -13  174.98    9.50
  -3  -9 -13  148.29   13.10
  -3   9  13  159.58   14.00
  -3  -9 -13  152.08   13.50
   3   9 -13  173.88    8.60
  -3   9  13  171.38   12.00
  -3   9 -13  163.18   10.90
   3  -9 -13  178.38   13.10
  -3  -9  13  154.78   10.90
   3   9  13  145.19   11.40
  -3  -9  13  145.09   10.00
  -3   9 -13  153.18   12.30
  -4   9  13    6.40    4.50
  -4  -9 -13   15.80    5.40
  -4  -9 -13    7.20    4.60
   4   9 -13   16.00    3.80
   4   9 -13    7.50    3.10
  -4   9  13    7.10    4.40
  -4   9 -13   11.30    4.10
  -4  -9  13    2.70    4.00
   4   9  13    6.40    4.70
   4  -9 -13   15.40    5.20
  -4  -9  13    9.60    4.80
  -4   9 -13   14.10    4.60
  -5   9  13   28.60    6.70
   5   9 -13   33.30    6.50
  -5   9  13   33.70    8.00
  -5  -9 -13   17.30    6.00
  -5  -9  13   25.20    6.40
  -5   9 -13   26.80    5.80
  -5   9 -13   22.70    6.20
   5  -9 -13   26.90    6.90
   5   9  13   30.70    6.60
  -6   9  13   -0.80    4.10
   6   9 -13   -6.00    2.40
  -6  -9 -13   -8.30    3.40
  -6  -9 -13    2.40    4.00
  -6   9  13    1.50    4.90
  -6   9 -13   -2.20    3.60
  -6   9 -13   -2.10    3.90
   6   9  13    6.00    4.50
  -6  -9  13   -5.80    5.20
   6  -9 -13    3.00    4.50
   0  10  13  300.97   16.50
   0  10 -13  297.57   17.90
   0 -10 -13  305.47   17.90
   0 -10 -13  314.67   19.70
   0  10 -13  305.77   15.70
  -1 -10 -13   37.00    7.60
   1  10 -13   27.60    9.90
   1  10 -13   27.70    5.40
  -1 -10 -13   29.80    6.80
  -1  10  13   33.70    6.70
  -1  10 -13   24.70    6.10
   1 -10 -13   26.80    6.30
   1  10  13   25.80    6.20
  -1 -10  13   31.80    4.30
  -1  10 -13   37.60    6.30
   1 -10 -13   25.10    6.60
  -2 -10 -13   52.39    8.60
  -2  10  13   59.99   10.10
   2  10 -13   59.39    6.80
  -2 -10 -13   47.80    8.70
  -2  10  13   65.69    8.60
   2 -10 -13   83.89   10.30
   2 -10 -13   57.69    8.60
  -2  10 -13   50.79    7.30
  -2  10 -13   48.30    7.70
   2  10  13   56.79    8.20
   3  10 -13    5.80    3.50
  -3 -10 -13   -0.40    3.90
  -3  10  13    2.60    4.20
  -3 -10 -13    4.60    4.60
   3  10 -13    2.50    3.40
  -3  10  13    6.30    4.60
   3  10  13    4.00    4.30
  -3 -10  13   -5.60    6.60
   3 -10 -13    5.30    4.00
  -3  10 -13    0.00    3.90
  -3 -10  13    0.80    3.20
  -3  10 -13    0.50    3.00
  -4 -10 -13   17.00    9.80
   4  10 -13   11.10    3.80
  -4  10  13   12.80    5.50
  -4 -10 -13    7.60    4.70
  -4  10  13   19.00    5.70
   4 -10 -13   19.50    5.80
  -4 -10  13    5.20    4.60
  -4  10 -13   20.20    5.00
   4  10  13   13.00    5.60
  -4  10 -13   19.20    5.00
  -5  10  13   73.49    9.80
  -5  10  13   91.09   11.30
  -5 -10 -13   64.99    9.90
  -5 -10 -13   64.99   12.60
   5  10 -13   86.79    7.70
  -5 -10  13   72.99   10.40
  -5  10 -13   86.69    9.90
   5 -10 -13   85.29   10.40
  -5  10 -13   85.49    8.90
   5  10  13   73.09   10.20
   0  11 -13   -0.80    3.70
   0 -11 -13    1.00    3.70
   0  11  13    4.10    4.50
   0  11 -13   -4.40    3.10
   0 -11 -13   -3.60    3.40
   1  11 -13   50.79    7.30
  -1 -11 -13   39.00    7.80
  -1 -11 -13   46.30    8.50
  -1  11  13   65.69    9.30
  -1 -11  13   45.90    5.50
  -1  11 -13   52.39    7.40
   1 -11 -13   52.09    8.90
   1  11  13   35.40    7.30
   1 -11 -13   43.00    8.10
  -1  11 -13   69.29    9.40
  -2 -11 -13   25.90    6.80
   2  11 -13   25.10    5.50
  -2 -11 -13   21.90    7.20
  -2  11  13   14.80    5.90
  -2  11  13   16.80    6.20
  -2  11 -13   20.80    5.00
   2 -11 -13   11.50    5.20
  -2  11 -13   16.00    5.50
   2  11  13   21.90    6.40
   2 -11 -13   24.30    7.40
  -3 -11 -13   11.10    5.30
  -3 -11 -13    7.30    4.70
  -3  11  13   -3.50    4.40
  -3  11  13   -2.00    3.90
   3  11 -13    6.70    2.60
   3  11 -13   12.30    4.20
   3  11  13    9.30    4.40
  -3  11 -13    3.10    4.10
   3 -11 -13    2.20    4.10
  -3 -11  13   -0.50    4.00
  -4  11  13   -4.30    4.30
  -4 -11 -13   -3.00    4.00
  -4  11  13    5.80    4.70
   4  11 -13    9.50    3.80
  -4 -11  13    1.20    6.90
   4  11  13   -2.00    4.20
  -4  11 -13    1.60    4.00
  -4  11 -13    4.40    3.70
   4 -11 -13   -2.20    3.80
   0  12  13   20.00    7.20
   0 -12 -13   40.00    8.70
   0 -12 -13   21.70    6.30
   0  12 -13   28.90    6.40
   0  12 -13   20.20    5.90
  -1 -12 -13    0.80    3.70
  -1 -12 -13    3.80    6.50
   1  12 -13    0.10    3.80
   1  12 -13  -10.20    3.80
   1  12  13   -1.40    4.40
   1 -12 -13    3.50    4.90
  -1  12 -13    3.80    3.90
   1 -12 -13    1.00    3.90
   2  12 -13    1.00    4.10
  -2 -12 -13   14.40    5.80
  -2 -12 -13    1.30    4.20
   2 -12 -13    9.80    4.80
  -2  12 -13   10.20    4.80
   2  12  13   11.80    5.60
  -2  12 -13   12.70    5.60
   2 -12 -13    3.10    7.40
  -3  12  13   10.40    5.50
   3  12 -13   -3.10    4.00
  -3 -12 -13    6.50    5.40
  -3 -12 -13    7.20    4.70
  -3  12 -13   11.40    4.60
  -3  12 -13   -3.60    3.50
   3 -12 -13    6.70    4.70
   3  12  13   -4.30    5.10
   0 -13 -13    4.10    5.20
   0  13  13   -3.40    5.30
   0  13 -13   -3.70    4.00
   0  13 -13    0.10    7.00
   0 -13 -13    4.20    4.20
  -1 -13 -13  188.48   16.00
  -1  13  13  170.28   15.30
   1  13 -13  179.38   13.70
  -1 -13 -13  183.48   14.40
   1  13 -13  183.38   14.40
   1 -13 -13  160.48   13.40
  -1  13 -13  175.98   13.20
  -1  13 -13  181.48   13.30
   1  13  13  176.48   15.80
   1 -13 -13  207.38   16.70
   0   0  14 1029.10   35.10
   0   0 -14 1017.40   33.60
   0   0 -14 1011.60   38.30
   0   0 -14 1065.19   31.50
  -1   0 -14  892.11   27.30
   1   0 -14  906.81   35.20
  -1   0 -14  897.71   35.10
  -1   0  14  885.31   31.50
  -1   0 -14  913.81   29.00
   1   0 -14  847.12   32.30
  -1   0 -14  887.41   24.20
   2   0 -14  379.06   15.90
  -2   0 -14  396.06   15.10
  -2   0 -14  390.66   14.30
  -2   0 -14  386.66   20.70
  -2   0  14  379.56   18.10
  -2   0 -14  372.56   13.50
   2   0 -14  407.66   21.70
   3   0 -14   49.60    8.40
   3   0 -14   52.19    5.80
  -3   0 -14   57.89    4.90
  -3   0 -14   56.49    8.90
  -3   0  14   57.69    7.90
  -3   0 -14   56.39    4.50
  -3   0 -14   55.99    5.10
  -4   0  14  225.88   14.00
  -4   0 -14  214.48   15.60
  -4   0 -14  216.88    9.50
  -4   0 -14  196.18    9.20
   4   0 -14  202.18   12.10
  -4   0 -14  206.48   10.90
   5   0 -14  323.27   16.60
  -5   0 -14  373.96   13.60
  -5   0 -14  332.07   13.30
  -5   0  14  356.26   19.00
  -5   0 -14  342.67   21.10
  -6   0 -14  453.45   25.80
  -6   0 -14  457.65   16.90
  -6   0 -14  464.25   16.50
  -6   0  14  463.65   23.00
  -7   0  14  201.88   15.60
  -7   0 -14  208.38   17.90
  -7   0 -14  225.78   10.50
  -8   0 -14  106.09    7.30
  -8   0 -14  143.29   16.00
  -8   0  14   95.89   12.00
   0  -1 -14    0.50    2.30
   0   1 -14    1.30    1.70
   0  -1 -14    5.30    3.70
   0   1 -14    4.50    3.80
   0   1 -14    0.30    2.20
   0   1  14   -0.80    2.80
   0  -1  14   -0.80    1.90
  -1  -1 -14    8.30    2.50
  -1  -1 -14    3.10    3.60
   1   1 -14    5.60    2.30
  -1   1  14    4.70    3.30
  -1  -1 -14    6.50    3.10
   1   1 -14    9.60    4.40
  -1  -1 -14    5.70    1.40
  -1   1 -14    2.20    4.00
  -1   1 -14    4.80    1.90
  -1  -1  14    4.00    2.90
  -1   1 -14    6.20    2.30
   1  -1 -14    5.20    2.40
   1  -1 -14    5.30    3.40
  -2   1  14    0.80    2.90
  -2  -1 -14   -2.70    2.40
  -2  -1 -14    0.60    1.80
   2   1 -14   -4.40    1.50
  -2  -1 -14   -0.30    2.00
   2   1 -14    4.30    4.10
  -2  -1 -14    0.40    1.80
  -2   1 -14    1.70    1.40
  -2  -1  14    0.20    2.80
  -2   1 -14   -1.90    1.30
  -2   1 -14    2.60    1.60
   2  -1 -14    2.00    2.20
   2  -1 -14    0.50    3.50
  -2   1 -14    2.30    3.10
  -2   1 -14    2.80    1.90
   3   1 -14  149.09    9.20
  -3  -1 -14  130.09    7.70
  -3  -1 -14  146.49    8.60
  -3  -1 -14  144.99   12.30
  -3   1  14  145.09   11.20
  -3  -1 -14  130.79    7.80
   3  -1 -14  128.49    9.30
  -3  -1  14  142.59   10.50
  -3   1 -14  124.79   11.90
   3  -1 -14  134.39   12.60
  -3   1 -14  140.29    6.40
  -3   1 -14  132.99    7.70
  -4  -1 -14    2.20    2.20
  -4  -1 -14    2.80    2.60
  -4   1  14   -1.80    3.20
   4   1 -14    3.70    2.30
  -4  -1 -14    2.00    3.40
  -4  -1 -14    2.00    2.10
  -4   1 -14    1.10    1.30
  -4   1 -14    4.70    2.60
  -4  -1  14    2.10    3.30
  -4   1 -14    0.90    1.20
  -4   1 -14    0.30    4.10
  -5  -1 -14    1.90    2.20
  -5   1  14    3.10    3.90
  -5  -1 -14    3.40    2.60
  -5  -1 -14    4.70    4.20
  -5   1 -14    1.60    1.50
  -5   1 -14    2.80    1.70
   5  -1 -14    3.00    2.90
  -5   1 -14    3.60    4.40
  -5  -1  14    4.10    3.70
  -6  -1 -14   -3.30    2.00
   6   1 -14   -1.60    3.40
  -6   1  14   -6.80    3.30
  -6  -1 -14   -3.40    3.90
  -6  -1 -14   -3.00    1.80
  -6  -1  14   -6.20    3.40
  -6   1 -14   -3.00    1.60
  -6   1 -14    1.00    1.60
  -6   1 -14   -0.10    4.10
  -7  -1 -14   23.30    4.20
  -7   1  14   28.30    7.20
  -7  -1 -14   29.20    7.80
  -7  -1  14   16.50    5.80
  -7   1 -14   28.70    8.30
  -7   1 -14   22.80    3.30
  -7   1 -14   19.30    4.10
  -8   1  14   -2.00    4.20
  -8  -1 -14   -1.10    2.40
  -8  -1 -14   -8.40    9.00
  -8   1 -14    0.60    2.00
   0  -2 -14  519.25   20.50
   0  -2 -14  570.94   26.00
   0   2  14  595.14   24.90
   0   2 -14  604.04   30.60
   0   2 -14  583.74   19.60
   0   2 -14  577.04   18.10
   0  -2 -14  548.55   23.20
  -1  -2 -14  347.97   19.30
   1   2 -14  348.07   19.80
  -1  -2 -14  347.27   14.80
  -1   2  14  362.46   17.80
  -1  -2 -14  339.57   16.40
   1   2 -14  347.47   13.20
   1  -2 -14  342.87   19.20
  -1   2 -14  345.67   10.60
  -1   2 -14  345.97   12.10
  -1   2 -14  337.57   14.60
  -1  -2  14  340.67   15.70
   1  -2 -14  367.86   15.70
  -2  -2 -14  182.08   11.00
   2   2 -14  173.48    9.20
  -2  -2 -14  172.08   13.30
  -2   2  14  173.78   13.80
  -2  -2 -14  169.98    8.50
   2   2 -14  200.78   15.00
  -2  -2  14  160.48   10.60
   2  -2 -14  174.98   10.50
  -2   2 -14  168.78    7.90
  -2   2 -14  169.58    7.70
  -2   2 -14  182.08   13.80
   2  -2 -14  204.18   14.50
  -3  -2 -14   12.90    3.00
   3   2 -14    6.30    2.30
  -3  -2 -14    5.50    2.60
  -3  -2 -14    8.70    4.20
  -3   2  14    9.50    3.70
  -3  -2 -14    8.10    3.20
  -3  -2  14   14.90    4.60
  -3   2 -14    2.00    2.20
  -3   2 -14    3.00    4.20
   3  -2 -14    7.50    4.50
   3  -2 -14   12.30    3.40
  -3   2 -14    7.50    2.50
  -4  -2 -14   60.59    6.30
  -4  -2 -14   61.69    6.00
  -4   2  14   60.19    8.90
  -4  -2 -14   56.09    6.10
   4   2 -14   64.89    6.50
  -4  -2 -14   62.49    9.70
  -4   2 -14   59.89    6.10
   4  -2 -14   59.39    7.10
  -4  -2  14   71.39    8.20
  -4   2 -14   79.49   10.10
   4  -2 -14   45.70    8.20
   5   2 -14  121.59    9.30
  -5  -2 -14  133.79   12.70
  -5  -2 -14  130.19    8.80
  -5   2  14  136.59   11.80
  -5  -2 -14  127.79    8.80
  -5  -2  14  134.79   11.50
  -5   2 -14  121.69   12.60
   6   2 -14  178.48   11.70
  -6  -2 -14  191.48   16.20
  -6  -2 -14  165.88   10.20
  -6   2  14  202.18   14.80
  -6  -2 -14  163.48   12.10
  -6   2 -14  178.38   15.60
  -6  -2  14  184.78   14.10
  -7   2  14  105.09   12.00
  -7  -2 -14  124.59    9.00
  -7  -2 -14   99.29   15.80
  -7   2 -14  118.49   13.40
  -7  -2  14  119.29   12.30
  -8  -2 -14   39.00    5.90
  -8  -2 -14   21.10    8.40
  -8   2  14   38.80    8.40
  -8   2 -14   35.40    9.70
  -8  -2  14   41.30    9.00
   0   3  14    3.00    3.20
   0   3 -14   -0.40    3.90
   0  -3 -14    4.00    3.80
   0  -3 -14    2.50    2.40
   0   3 -14   -2.40    1.40
   0  -3  14   -3.20    1.80
   0   3 -14    0.80    1.20
   0  -3 -14    3.30    2.80
  -1  -3 -14  145.59   10.60
  -1  -3 -14  152.68    7.60
   1   3 -14  155.78   12.70
  -1  -3 -14  137.99    9.20
   1   3 -14  141.39    7.00
  -1  -3 -14  131.89   12.00
  -1   3 -14  135.49    5.70
   1  -3 -14  132.69    9.10
   1  -3 -14  135.49   11.60
  -1  -3  14  129.59    9.00
  -1   3 -14  148.39    6.30
   2   3 -14   -0.20    3.20
  -2  -3 -14    7.30    3.00
  -2  -3 -14    2.10    1.90
  -2  -3 -14    3.70    3.30
   2   3 -14    1.60    1.60
  -2   3  14    1.20    3.10
  -2  -3 -14    3.70    3.00
   2  -3 -14    1.50    2.60
  -2   3 -14    5.10    6.70
  -2   3 -14    1.30    1.70
  -2  -3  14    3.50    2.80
  -2   3 -14    1.40    1.80
   2  -3 -14   -0.50    3.80
  -3  -3 -14  686.63   25.10
   3   3 -14  678.53   24.00
  -3  -3 -14  710.63   25.30
  -3  -3 -14  688.73   29.30
  -3   3  14  713.53   28.50
  -3  -3 -14  675.83   30.10
   3  -3 -14  694.73   29.20
  -3  -3  14  664.13   26.20
   3  -3 -14  762.12   31.30
  -3   3 -14  687.93   30.10
  -3   3 -14  708.73   22.70
  -3   3 -14  691.53   23.00
  -4  -3 -14   28.00    6.50
  -4   3  14   29.60    6.20
   4   3 -14   40.20    4.90
  -4  -3 -14   35.40    5.60
  -4  -3 -14   29.50    5.10
  -4   3 -14   24.70    6.80
   4  -3 -14   31.90    7.20
  -4   3 -14   38.00    5.20
  -4   3 -14   34.10    4.90
  -4  -3  14   35.70    6.30
  -5  -3 -14   -1.40    2.90
  -5  -3 -14   -0.20    2.80
  -5   3  14   11.40    5.00
   5   3 -14    6.10    2.80
  -5  -3 -14    6.50    3.20
  -5  -3  14    8.90    4.40
  -5   3 -14    6.40    4.70
  -5   3 -14    9.90    3.50
  -6   3  14    9.10    5.30
   6   3 -14   17.90    4.80
  -6  -3 -14   20.10    4.50
  -6  -3 -14   13.40    4.40
  -6  -3 -14   23.40    7.00
  -6   3 -14   17.20    6.60
  -6  -3  14   15.20    5.80
  -7   3  14   99.29    6.60
  -7   3  14  111.49   12.20
  -7  -3 -14  102.59   16.30
  -7  -3 -14  112.59    9.20
  -7  -3  14  142.29   13.00
  -7   3 -14  118.09   13.60
   0  -4 -14    4.90    3.60
   0  -4 -14   10.50    3.00
   0   4 -14   -2.10    5.00
   0   4  14   16.20    5.00
   0  -4 -14    0.20    3.40
  -1  -4 -14    5.20    2.50
  -1   4  14    2.70    3.30
  -1  -4 -14    4.70    3.80
  -1  -4 -14    5.10    3.10
   1   4 -14    4.80    1.70
   1   4 -14    4.80    4.30
  -1  -4 -14   -0.10    2.10
   1  -4 -14    4.70    3.40
  -1   4 -14    4.10    1.60
   1  -4 -14    2.40    2.50
  -1  -4  14    2.40    2.50
  -1   4 -14    3.20    1.70
  -2   4  14   56.39    8.00
   2   4 -14   66.29   10.20
   2   4 -14   67.89    5.00
  -2  -4 -14   73.79    9.30
  -2  -4 -14   68.79    6.00
  -2  -4 -14   65.99    6.90
  -2  -4 -14   85.69    8.50
   2  -4 -14   60.99    9.10
  -2  -4  14   63.49    6.80
  -2   4 -14   72.59    5.30
  -2   4 -14   65.39    5.00
  -3  -4 -14   -1.00    2.70
   3   4 -14    3.10    2.00
  -3  -4 -14    4.50    2.70
  -3   4  14    1.90    3.30
  -3  -4 -14    3.90    2.50
  -3  -4 -14    4.70    3.20
  -3  -4  14    3.50    3.10
  -3   4 -14   -0.20    3.90
   3  -4 -14   -0.90    2.40
  -3   4 -14    9.70    4.80
   3  -4 -14   -0.10    3.00
   4   4 -14  119.89    8.00
  -4  -4 -14  105.99    9.10
  -4   4  14   94.59   10.30
  -4  -4 -14   91.39   10.60
  -4  -4 -14  106.29    9.10
  -4   4 -14  107.49    7.80
  -4  -4  14  123.99   10.30
  -4   4 -14   97.69   12.80
   4  -4 -14  105.89   11.30
  -4   4 -14  115.29   11.60
  -5  -4 -14   -5.90    2.70
  -5  -4 -14   -0.10    2.60
  -5   4  14    3.30    4.40
   5   4 -14    1.10    2.30
  -5  -4 -14   -1.20    3.90
  -5   4 -14    0.50    2.60
  -5  -4  14    1.30    3.20
  -5   4 -14    2.30    4.40
   5  -4 -14   -0.30    4.20
  -6  -4 -14   -1.20    4.60
  -6   4  14   -0.70    1.90
  -6   4  14    2.90    4.30
  -6  -4 -14   -2.30    2.50
  -6   4 -14    2.50    4.70
  -6   4 -14   -2.40    3.00
  -6  -4  14    0.40    4.00
  -7  -4 -14    4.70    3.10
  -7   4  14    1.60    4.50
  -7   4  14    0.20    3.40
  -7   4 -14    3.80    5.30
  -7   4 -14   -3.20    3.70
  -7  -4  14   -3.00    4.10
   0  -5 -14    1.50    1.90
   0  -5 -14   -1.10    2.90
   0   5 -14   -2.00    4.00
   0   5  14    0.50    1.70
   0  -5 -14    3.50    3.70
   0   5  14   -2.70    3.00
   0  -5  14   -3.00    1.70
   0   5 -14    0.90    1.00
   0   5 -14   -0.70    1.20
   0  -5 -14   -1.30    2.70
  -1  -5 -14   80.69    8.10
   1   5 -14   87.09   10.30
  -1  -5 -14   93.89   10.00
  -1   5  14  105.59   10.40
  -1  -5 -14   96.39    6.90
  -1   5  14   98.79    5.00
  -1  -5 -14   93.89    9.30
  -1  -5  14   89.39    7.00
  -1   5 -14   85.89    5.20
   1  -5 -14   83.09    8.20
   1   5  14   94.19    6.30
   1  -5 -14   76.29    4.60
   1  -5 -14  106.09   10.60
  -1   5 -14   89.69    6.10
  -1   5 -14   92.39   13.30
  -2  -5 -14   30.10    6.00
  -2   5  14   27.20    2.50
  -2  -5 -14   22.40    5.10
   2   5 -14   25.30    3.30
  -2  -5 -14   25.60    5.90
  -2   5  14   17.90    5.30
  -2   5 -14   25.10    3.90
   2  -5 -14   24.20    5.70
   2  -5 -14   23.90    5.20
  -2  -5  14   13.80    4.00
  -2   5 -14   17.90    3.40
   2   5  14   29.70    4.50
  -2   5 -14   30.30    8.00
  -3  -5 -14  414.96   19.70
  -3   5  14  402.86   20.80
  -3  -5 -14  385.56   21.30
  -3  -5 -14  373.46   16.50
  -3  -5 -14  387.26   20.20
   3   5 -14  368.16   14.70
   3   5  14  383.46   16.40
  -3   5 -14  381.86   15.40
   3  -5 -14  401.46   21.00
  -3  -5  14  402.16   17.90
  -4   5  14   29.70    2.60
  -4  -5 -14   26.90    5.50
  -4   5  14   26.80    2.60
  -4  -5 -14   20.80    5.40
  -4   5  14   28.60    6.30
  -4  -5 -14   24.30    6.40
  -4   5 -14   24.60    4.80
  -4  -5  14   27.70    5.50
   4  -5 -14   11.70    5.30
  -4   5 -14   26.60    7.10
  -5  -5 -14   20.80    5.30
  -5  -5 -14   25.00    6.90
  -5   5  14   27.50    3.30
   5   5 -14   18.90    4.40
  -5  -5 -14   22.70    5.10
  -5   5 -14   28.80    7.20
  -5   5 -14   21.30    4.80
   5  -5 -14   15.60    5.90
  -5  -5  14   15.90    5.30
  -6   5  14   19.00    5.70
  -6  -5 -14    7.60   10.30
  -6   5  14   14.70    3.50
  -6  -5 -14   19.80    5.20
  -6  -5  14   14.40    5.50
  -6   5 -14   16.80    5.80
  -7  -5 -14   35.10    8.30
  -7  -5 -14   38.10    6.90
  -7   5  14   34.30    5.80
  -7   5  14   27.50    7.50
  -7   5 -14   23.90    7.70
  -7   5 -14   47.00    7.40
  -7  -5  14   36.10    8.20
   0  -6 -14  226.68   13.80
   0   6 -14  216.08   18.40
   0   6 -14  244.88    9.80
   0  -6 -14  248.18   15.90
   0  -6  14  217.38    9.80
   0  -6 -14  224.48   11.00
   0   6  14  249.28   10.70
   0   6  14  256.17   16.90
   0  -6 -14  241.08   15.80
  -1   6  14  153.78   13.10
   1   6 -14  174.18   14.20
  -1  -6 -14  159.68   11.70
  -1  -6 -14  173.08   10.00
  -1  -6 -14  161.38   12.50
  -1   6  14  164.98    8.00
  -1  -6 -14  182.58   13.50
   1  -6 -14  158.18    8.00
   1  -6 -14  184.28   14.00
  -1   6 -14  148.79    8.80
   1  -6 -14  155.58   12.80
  -1   6 -14  121.39   13.90
   1   6  14  169.08    9.80
  -2   6  14  381.26   20.60
  -2  -6 -14  377.06   19.80
  -2  -6 -14  373.46   20.80
  -2   6  14  388.86   13.40
  -2  -6 -14  376.56   24.00
  -2  -6 -14  394.36   17.10
  -2   6 -14  376.46   15.40
   2  -6 -14  393.16   20.50
  -2   6 -14  381.96   14.80
   2   6  14  389.56   16.00
  -2  -6  14  381.66   16.50
  -2   6 -14  374.66   21.20
  -3   6  14   55.39    9.00
   3   6 -14   45.10    4.70
  -3  -6 -14   43.30    7.80
  -3  -6 -14   40.20    6.90
  -3   6  14   33.60    3.80
  -3   6 -14   52.49    5.60
  -3   6 -14   44.40    5.40
   3  -6 -14   38.30    7.40
   3   6  14   44.80    5.90
  -3   6 -14   40.50   11.60
  -3  -6  14   59.99    6.90
  -4   6  14  345.17   19.80
   4   6 -14  347.67   15.00
  -4   6  14  343.37   13.00
  -4  -6 -14  393.96   19.70
  -4  -6 -14  322.47   20.10
  -4  -6  14  333.77   17.80
  -4   6 -14  349.77   15.70
   4   6  14  380.26   17.10
  -4   6 -14  353.66   20.80
   4  -6 -14  353.36   20.20
  -5  -6 -14   32.70    6.70
  -5  -6 -14   43.60    8.90
  -5   6  14   41.50    5.10
  -5  -6 -14   55.79    8.40
   5   6 -14   44.50    7.10
  -5   6  14   61.79    9.90
  -5   6 -14   53.69    6.60
  -5   6 -14   48.20    8.90
  -5  -6  14   48.90    8.30
   5  -6 -14   41.20    8.10
  -6  -6 -14  111.29   14.60
  -6  -6 -14  109.69   10.50
  -6   6  14   99.79   11.50
  -6   6  14   98.59    8.30
  -6   6 -14  115.69   12.50
   6  -6 -14  124.89   12.90
  -6  -6  14  111.09   12.00
  -6   6 -14  109.89    9.50
  -7  -6 -14   42.40   10.20
  -7   6  14   32.20    6.90
  -7   6 -14   31.40    6.70
  -7   6 -14   38.90    8.30
  -7  -6  14   28.40    7.30
   0  -7 -14   -3.30    2.50
   0   7 -14    0.20    4.10
   0  -7 -14   -5.80    2.20
   0  -7 -14   -1.10    3.60
   0   7 -14    1.10    2.30
  -1  -7 -14    0.80    2.60
   1   7 -14   -1.00    1.50
  -1   7  14    2.60    4.10
  -1  -7 -14    6.30    2.80
   1   7 -14   -1.90    3.80
  -1  -7 -14    0.80    3.40
  -1   7  14    4.00    2.30
   1  -7 -14    1.00    2.20
   1  -7 -14   -4.50    2.80
   1  -7 -14    1.40    3.30
  -1   7 -14    0.70    2.50
   1   7  14    3.20    2.60
  -1  -7  14   -2.30    1.90
  -1   7 -14    4.20    4.50
   2   7 -14   40.20    3.10
  -2  -7 -14   50.89    8.80
  -2   7  14   36.10    6.90
  -2  -7 -14   47.60    7.80
  -2   7  14   45.50    5.10
  -2   7 -14   45.70    8.20
   2  -7 -14   46.50    8.00
   2   7  14   38.00    5.50
  -2  -7  14   36.70    5.30
  -2   7 -14   44.50    5.70
  -3  -7 -14   39.40    8.40
  -3   7  14   33.40    4.60
  -3  -7 -14   30.40    7.10
  -3   7  14   32.50    7.10
   3   7 -14   31.40    3.80
  -3  -7 -14   34.60    6.70
  -3   7 -14   36.10    7.30
  -3   7 -14   38.40    5.50
   3  -7 -14   39.30    7.70
   3   7  14   33.10    5.80
  -3  -7  14   33.00    5.90
  -4  -7 -14   19.50    5.70
   4   7 -14   10.50    3.20
  -4  -7 -14    8.70    5.10
  -4   7  14   12.50    3.60
  -4   7  14   11.90    5.60
  -4  -7  14    6.00    4.10
  -4   7 -14   16.10    4.10
   4   7  14    5.20    3.50
   4  -7 -14   25.00    6.50
  -5  -7 -14   18.50    7.80
  -5  -7 -14   19.10    5.60
  -5   7  14   18.70    5.90
  -5   7  14   14.90    4.20
  -5  -7  14   18.70    5.70
   5  -7 -14   10.00    4.90
  -5   7 -14   18.10    4.60
   5   7  14   10.20    4.40
  -5   7 -14   27.70    7.20
  -6  -7 -14    3.60    6.10
  -6   7  14   10.00    4.70
  -6   7  14   10.30    5.50
  -6  -7 -14   10.70    4.60
  -6   7 -14    8.90    4.30
   6   7  14    6.50    4.30
  -6  -7  14   15.90    6.10
  -6   7 -14   12.10    5.60
   6  -7 -14    4.80    4.80
   0  -8 -14  293.37   18.30
   0  -8 -14  266.07   16.70
   0   8 -14  267.97   12.70
   0   8 -14  256.77   17.20
   0   8  14  245.88   12.90
   0  -8 -14  262.47   13.40
  -1   8  14  144.19    9.20
   1   8 -14  148.69   13.30
  -1  -8 -14  130.59   12.20
  -1   8  14  141.69   13.20
   1   8 -14  144.59    8.20
  -1  -8 -14  165.08   13.30
   1   8  14  136.49    9.60
   1  -8 -14  141.59   12.20
  -1   8 -14  151.38   10.60
   1  -8 -14  155.18   13.70
  -1   8 -14  120.79   13.70
  -1  -8  14  140.59    8.30
  -2   8  14  240.38   16.40
   2   8 -14  216.98    9.40
  -2  -8 -14  206.88   15.20
  -2  -8 -14  222.38   15.70
   2  -8 -14  220.68   15.30
  -2  -8  14  203.28   11.40
  -2   8 -14  203.88   14.80
   2   8  14  234.78   12.90
  -2   8 -14  202.48   12.10
   3   8 -14   18.90    3.20
   3   8 -14   16.10    2.70
  -3  -8 -14   19.60    5.50
  -3   8  14   17.00    6.20
  -3  -8 -14   13.00    5.20
   3   8  14   16.10    4.30
   3  -8 -14   14.30    5.60
  -3   8 -14   24.60    6.70
  -3  -8  14   13.80    4.50
  -3   8 -14   18.10    4.10
  -4  -8 -14  150.48   14.10
  -4   8  14  145.69   10.30
  -4  -8 -14  152.98   12.90
  -4   8  14  146.09   13.70
   4   8 -14  153.68    7.10
  -4  -8  14  152.98   11.80
  -4   8 -14  132.19   14.10
   4   8  14  121.29   10.60
   4  -8 -14  159.08   13.30
  -4   8 -14  154.18   10.40
  -5  -8 -14   25.80    6.90
  -5   8  14   24.00    5.90
  -5   8  14   30.90    7.10
  -5  -8 -14   36.00    9.60
  -5  -8  14   22.20    6.00
  -5   8 -14   27.00    6.70
  -5   8 -14   16.50    5.50
   5   8  14   34.40    6.50
   5  -8 -14   20.70    6.30
  -6   8  14  126.79   13.20
  -6  -8 -14  127.39   14.10
  -6  -8 -14   99.59   10.70
  -6   8  14  112.99   10.60
  -6   8 -14  114.69   12.00
  -6  -8  14   93.89   11.80
   6   8  14  107.29   11.20
   6  -8 -14  125.09   12.40
  -6   8 -14  102.39    9.80
   0   9 -14   -4.90    3.60
   0   9  14   -0.90    2.90
   0   9 -14    4.00    3.00
   0  -9 -14    2.00    3.80
   0  -9 -14   -1.00    3.20
  -1  -9 -14    3.80    4.40
  -1  -9 -14   10.30    4.80
  -1   9  14    6.60    3.40
   1   9 -14    4.70    4.70
   1   9 -14    4.90    3.00
  -1   9  14    4.60    4.90
   1  -9 -14    0.80    4.20
  -1  -9  14   -0.60    2.50
  -1   9 -14    3.00    3.00
   1  -9 -14   10.30    4.50
  -1   9 -14    5.80    6.30
   1   9  14    2.40    3.10
  -2  -9 -14   51.99    9.50
  -2   9  14   39.00    7.90
  -2   9  14   64.59    7.50
  -2  -9 -14   47.60    8.10
   2   9 -14   55.59    5.60
   2  -9 -14   35.00    7.30
  -2   9 -14   63.09    7.10
   2   9  14   58.39    7.70
  -2   9 -14   59.69    9.10
   2  -9 -14   43.60    6.00
  -3   9  14   31.30    6.10
  -3  -9 -14   34.20    6.90
   3   9 -14   27.10    4.00
   3   9 -14   28.60    3.70
  -3   9  14   31.30    7.40
  -3  -9 -14   17.20    6.20
  -3  -9  14   31.30    6.00
  -3   9 -14   36.20    7.40
   3  -9 -14   28.40    6.70
  -3   9 -14   19.90    5.10
   3   9  14   23.40    5.80
  -4   9  14   -1.60    4.00
   4   9 -14    2.20    2.60
  -4  -9 -14   -3.70    2.90
  -4   9  14    8.90    4.10
   4   9  14    8.10    4.40
  -4   9 -14    4.60    3.50
  -4   9 -14    1.70    4.30
  -4  -9  14    2.90    4.10
   4  -9 -14    5.60    4.80
  -5   9  14    2.10    4.60
   5   9 -14    3.70    3.00
  -5   9  14    0.60    4.00
  -5  -9 -14    4.50    5.20
  -5  -9 -14    3.00    4.30
  -5  -9  14    5.40    5.40
   5   9  14   11.70    5.10
   5  -9 -14   -0.40    4.20
  -5   9 -14    9.70    4.50
   0 -10 -14   30.70    7.30
   0 -10 -14   38.90    7.50
   0  10  14   32.60    6.10
   0  10 -14   31.80    6.50
   0  10 -14   31.40    5.60
   1  10 -14    2.10    4.30
  -1 -10 -14    2.70    4.40
   1  10 -14    5.30    3.50
  -1 -10 -14    1.00    3.60
  -1  10  14    4.50    4.50
   1 -10 -14    7.00    5.60
   1 -10 -14   -2.20    3.40
  -1  10 -14   -3.10    3.40
   1  10  14    0.30    3.30
  -2  10  14   10.70    4.70
  -2  10  14    7.80    5.20
   2  10 -14    1.80    2.90
  -2 -10 -14    1.60    5.90
  -2 -10 -14    5.20    4.90
  -2  10 -14    0.60    4.10
   2 -10 -14    8.20    6.60
  -2  10 -14    6.90    3.70
   2 -10 -14    1.20    4.00
   2  10  14    3.90    4.10
  -3 -10 -14    7.90    5.40
  -3  10  14   -0.80    3.70
  -3 -10 -14   13.60    6.10
  -3  10  14    0.40    4.00
  -3  10 -14    0.00    3.40
  -3  10 -14   -5.20    3.30
   3 -10 -14    2.70    4.40
   3  10  14   -8.00    3.30
   4  10 -14   -4.70    4.00
  -4 -10 -14   -2.70    3.60
  -4  10  14   -6.20    3.90
  -4  10  14   -6.80    3.60
   4 -10 -14    1.50    4.00
  -4  10 -14   -9.90    3.50
   4  10  14   -2.60    4.40
  -4  10 -14   -0.90    3.40
   0  11 -14   -2.60    3.70
   0  11  14    0.30    4.70
   0 -11 -14    0.70    6.00
   0  11 -14   -0.10    3.40
   0 -11 -14   -0.60    3.90
   1  11 -14   -3.80    3.20
  -1 -11 -14    2.40    4.40
  -1 -11 -14   -1.10    4.30
  -1  11  14   12.60    5.20
   1  11 -14    2.80    4.30
   1 -11 -14    3.50    5.30
  -1  11 -14   -4.70    3.30
   1 -11 -14    1.90    4.10
   1  11  14   -9.70    3.70
  -2  11  14   -1.90    4.00
  -2 -11 -14   15.20    5.40
   2  11 -14    7.70    4.10
  -2 -11 -14    5.30    4.50
  -2  11  14    5.30    5.20
   2 -11 -14   11.50    5.60
   2  11  14    8.50    4.90
   2 -11 -14   10.50    5.20
  -2  11 -14   11.50    4.90
  -2  11 -14    6.40    4.80
  -3 -11 -14   53.59    9.60
  -3 -11 -14   33.90    8.20
  -3  11  14   38.80    8.10
   3  11 -14   43.90    6.40
  -3  11  14   42.10    8.90
   3  11  14   50.59    8.40
   3 -11 -14   43.40    7.80
  -3  11 -14   55.09    8.40
  -3  11 -14   42.30    7.90
   0 -12 -14   34.10    7.70
   0 -12 -14   20.70    6.60
   0  12  14   29.20    7.20
   0  12 -14   21.60    6.80
   0  12 -14   39.90    7.00
  -1 -12 -14    3.40    4.70
  -1 -12 -14   12.70    5.60
  -1  12  14    1.80    5.60
   1  12 -14   -3.40    4.30
   1  12 -14    3.80    4.50
   1  12  14    4.70    5.20
  -1  12 -14    9.80    4.40
   1 -12 -14   10.10    5.30
   1 -12 -14    9.30    5.30
   0   0 -15   -1.40    3.00
   0   0  15   -0.70    2.60
   0   0 -15    0.20    2.10
   0   0 -15   -0.90    1.70
  -1   0 -15    1.00    1.80
   1   0 -15    1.30    3.80
  -1   0 -15    0.80    2.00
  -1   0  15   -0.10    3.10
  -1   0 -15    7.00    4.20
   1   0 -15    0.60    2.10
  -2   0 -15   -0.80    2.90
   2   0 -15    0.40    2.00
  -2   0 -15    1.40    1.60
  -2   0 -15   -3.60    1.60
  -2   0 -15   -2.40    1.30
   2   0 -15    1.20    3.70
  -2   0 -15    2.60    2.00
  -2   0  15   -1.60    2.90
  -3   0 -15   -2.90    1.30
  -3   0 -15    0.70    3.80
  -3   0 -15    7.30    2.60
   3   0 -15    2.90    4.20
   3   0 -15    0.60    2.10
  -3   0 -15    0.70    2.40
  -3   0  15   -1.90    2.60
  -4   0  15   -4.40    3.00
  -4   0 -15   -0.60    1.60
  -4   0 -15    2.80    3.40
  -4   0 -15    5.10    2.40
   4   0 -15   -2.20    2.40
  -4   0 -15   -0.70    1.50
  -5   0 -15   -3.50    1.50
   5   0 -15   -0.30    2.90
  -5   0 -15   -2.60    1.70
  -5   0  15   -3.10    3.80
  -5   0 -15    5.60    4.70
  -6   0  15   -2.30    4.10
  -6   0 -15    8.20    6.20
  -6   0 -15   -0.30    2.90
  -6   0 -15   -0.40    1.80
  -7   0 -15   -1.40    1.90
  -7   0 -15   -3.80    4.70
  -7   0  15   -2.10    4.80
   0  -1  15    3.40    2.50
   0  -1 -15   -2.10    3.00
   0   1 -15    0.70    1.60
   0   1 -15    0.70    3.80
   0   1  15   -1.40    3.10
   0   1 -15    0.40    2.00
   0  -1 -15    3.60    2.90
   1   1 -15  269.37   17.90
  -1  -1 -15  269.47   17.50
   1   1 -15  290.77   12.50
  -1   1  15  286.87   16.10
  -1  -1 -15  300.87   12.90
  -1  -1 -15  267.07   13.80
  -1   1 -15  301.97   12.20
   1  -1 -15  295.97   18.50
  -1   1 -15  305.47   11.40
   1  -1 -15  285.37   13.50
  -1   1 -15  272.27   17.70
  -1  -1  15  303.67   15.50
  -2  -1 -15   47.20    5.60
  -2   1  15   40.60    7.20
  -2  -1 -15   49.99    4.90
  -2  -1 -15   47.60    4.30
  -2  -1 -15   36.10    7.20
   2   1 -15   40.90    8.20
  -2  -1  15   51.89    7.00
  -2   1 -15   43.30    3.90
   2  -1 -15   65.39    6.50
  -2   1 -15   38.50    7.80
   2  -1 -15   34.30    7.40
  -2   1 -15   50.89    4.20
  -2   1 -15   51.89    4.60
  -2   1 -15   43.00    3.60
  -3  -1 -15   34.40    7.60
   3   1 -15   32.90    7.30
   3   1 -15   38.10    5.20
  -3   1  15   29.90    6.10
  -3  -1 -15   27.20    3.90
  -3  -1 -15   36.10    4.90
  -3  -1 -15   41.80    4.60
  -3   1 -15   34.80    4.80
  -3  -1  15   27.80    6.10
   3  -1 -15   31.00    7.20
  -3   1 -15   32.40    3.30
  -3   1 -15   32.50    7.40
  -3   1 -15   30.10    4.00
  -3   1 -15   38.80    3.20
   3  -1 -15   30.80    5.20
   4   1 -15    6.70    2.80
  -4  -1 -15    3.00    1.90
  -4  -1 -15    2.00    2.60
  -4  -1 -15    1.60    2.20
  -4  -1 -15    0.00    3.40
  -4   1  15   -5.70    2.40
  -4  -1  15    2.50    3.30
   4  -1 -15    2.40    2.80
  -4   1 -15    2.30    4.10
  -4   1 -15    3.30    2.40
   4  -1 -15   -1.80    3.30
  -4   1 -15    0.20    1.30
  -5  -1 -15  224.68   17.40
  -5   1  15  222.38   15.40
  -5  -1 -15  203.68   10.50
   5   1 -15  200.48   12.70
  -5   1 -15  212.08   17.10
  -5  -1  15  214.28   15.20
  -5   1 -15  226.08    8.20
  -6   1  15   12.00    5.50
  -6  -1 -15   13.50    6.30
  -6  -1 -15    9.70    3.00
  -6  -1  15    6.40    4.80
  -6   1 -15   11.60    6.10
  -7   1  15   43.50    8.60
  -7  -1 -15   52.99    5.50
  -7  -1  15   51.99    9.10
  -7   1 -15   49.30    4.10
   0   2 -15    6.50    2.00
   0  -2 -15    6.70    2.90
   0   2  15    5.10    3.40
   0  -2 -15   18.90    5.60
   0   2 -15    8.50    2.80
   0  -2  15    9.10    4.60
   0  -2 -15    8.70    4.50
   0   2 -15   10.00    4.60
  -1  -2 -15    2.80    2.20
  -1   2  15    0.40    3.20
   1   2 -15    0.90    3.30
  -1  -2 -15    2.30    1.40
   1   2 -15    2.00    1.70
  -1  -2 -15    1.00    2.90
  -1  -2 -15    5.30    3.60
  -1  -2  15    5.00    3.00
  -1   2 -15    5.00    1.70
  -1   2 -15    2.40    1.40
  -1   2 -15    5.90    4.50
   1  -2 -15    4.50    2.70
   1  -2 -15    4.10    3.70
  -2  -2 -15  163.38   10.80
   2   2 -15  189.08   15.20
  -2   2  15  178.58   12.90
   2   2 -15  190.18    9.60
  -2  -2 -15  155.28    8.40
  -2  -2 -15  170.28   13.60
   2  -2 -15  168.78   13.90
   2  -2 -15  177.88   11.00
  -2   2 -15  159.88    7.60
  -2   2 -15  185.78   14.70
  -2  -2  15  181.58   11.60
  -2   2 -15  166.78    7.40
  -3   2  15    6.60    3.80
  -3  -2 -15   -2.50    3.00
  -3  -2 -15   -1.20    1.80
  -3  -2 -15    3.60    2.30
   3   2 -15   -4.90    3.60
   3   2 -15   -1.70    2.00
   3  -2 -15    9.10    3.50
  -3  -2  15   -1.60    3.10
  -3   2 -15    0.50    2.00
  -3   2 -15    2.50    3.80
   3  -2 -15    0.40    3.80
  -4  -2 -15  187.08   11.50
  -4  -2 -15  185.88   10.60
  -4   2  15  193.98   14.20
   4   2 -15  193.88   11.20
  -4  -2 -15  206.88   11.20
  -4  -2 -15  198.18   15.20
  -4   2 -15  182.78   10.10
   4  -2 -15  179.58   12.00
  -4  -2  15  191.38   13.80
   4  -2 -15  207.68   16.40
  -4   2 -15  191.48   10.40
  -4   2 -15  200.98   15.80
  -5  -2 -15    0.10    3.80
   5   2 -15    3.30    2.70
  -5  -2 -15   -3.00    2.30
  -5  -2 -15   -1.70    2.20
  -5   2  15    2.10    4.30
  -5  -2  15    1.70    3.90
  -5   2 -15   -3.60    3.90
  -6   2  15   10.30    5.80
  -6  -2 -15    3.10    3.00
  -6  -2 -15    0.90    5.30
  -6   2 -15   16.40    7.10
  -6  -2  15   -9.90    3.40
  -7  -2 -15    0.10    5.20
  -7  -2 -15    5.30    3.00
  -7   2  15    3.40    4.80
  -7   2 -15    8.70    6.10
  -7  -2  15   -4.00    4.00
   0  -3 -15    0.00    1.90
   0  -3  15   -0.90    2.30
   0   3 -15    2.30    1.50
   0   3 -15   -0.50    1.00
   0  -3 -15    1.90    3.60
   0   3  15    0.80    2.90
   0   3 -15   -3.70    2.90
   0  -3 -15    0.10    2.80
  -1  -3 -15   34.40    5.30
   1   3 -15   31.60    7.10
   1   3 -15   33.30    4.70
  -1  -3 -15   35.90    6.00
  -1  -3 -15   39.80    3.60
  -1  -3 -15   26.80    6.20
   1   3 -15   34.20    3.60
  -1   3  15   24.20    6.30
   1  -3 -15   33.30    5.60
   1  -3 -15   33.70    7.30
  -1  -3  15   26.50    5.10
  -1   3 -15   32.90    7.40
   1  -3 -15   29.90    6.20
  -2  -3 -15   21.20    5.80
  -2  -3 -15   18.20    3.90
  -2  -3 -15   18.40    3.40
  -2   3  15   27.20    6.20
  -2  -3 -15   18.40    4.60
   2   3 -15   21.80    6.30
   2   3 -15   18.90    3.10
   2  -3 -15   13.40    5.00
  -2   3 -15   15.70    5.20
   2  -3 -15   25.30    4.90
  -2  -3  15   16.00    4.10
  -2   3 -15   19.60    2.90
  -2   3 -15   20.20    2.90
  -3  -3 -15   29.20    4.40
  -3  -3 -15   26.00    6.80
   3   3 -15   35.80    4.40
  -3   3  15   28.10    6.30
  -3  -3 -15   32.20    5.10
  -3  -3 -15   30.80    5.50
  -3   3 -15   36.90    4.30
  -3   3 -15   33.30    4.60
  -3   3 -15   32.50    7.50
   3  -3 -15   29.90    5.40
  -3  -3  15   39.40    6.60
   3  -3 -15   43.10    8.50
  -4   3  15   11.30    4.90
   4   3 -15    7.80    3.00
  -4  -3 -15    9.30    3.20
  -4  -3 -15   11.80    5.60
  -4  -3 -15    9.20    3.30
  -4   3 -15   14.50    5.80
  -4   3 -15    7.70    3.20
  -4   3 -15    9.10    3.10
   4  -3 -15    1.50    4.80
  -4  -3  15    9.20    4.30
  -5  -3 -15   29.70    5.20
   5   3 -15   21.70    4.70
  -5   3  15   31.80    7.40
  -5  -3 -15   25.50    7.20
  -5   3 -15   24.70    7.30
   5  -3 -15   27.60    7.60
  -5  -3  15   17.30    5.10
  -5   3 -15   22.90    4.80
  -6  -3 -15    5.30    5.50
  -6   3  15   12.00    5.40
  -6  -3 -15   10.80    3.70
  -6  -3  15    8.00    4.90
  -6   3 -15   16.00    4.80
  -6   3 -15   12.60    5.50
  -7   3  15   14.20    6.60
  -7  -3 -15   14.10    4.00
  -7  -3 -15   11.30    5.80
  -7  -3  15    3.90    5.40
  -7   3 -15   12.50    6.30
   0   4  15   47.50    8.30
   0  -4 -15   45.90    7.80
   0  -4 -15   42.10    3.00
   0  -4 -15   54.29    9.20
   0   4 -15   39.60    8.30
   0  -4 -15   50.69    7.80
  -1  -4 -15   22.10    6.20
  -1  -4 -15   23.70    5.70
  -1  -4 -15   26.60    3.60
  -1  -4 -15   25.40    4.90
   1   4 -15   18.20    2.60
  -1   4  15   20.30    5.90
   1   4 -15   37.70    8.20
   1   4 -15   18.80    3.20
   1  -4 -15   23.20    5.30
  -1  -4  15   22.10    4.40
   1  -4 -15   19.60    6.20
  -1   4 -15   21.50    6.40
  -1   4 -15   22.60    2.70
  -1   4 -15   20.70    2.30
   1  -4 -15   32.40    6.90
  -2  -4 -15  279.67   18.00
   2   4 -15  331.67   20.60
  -2  -4 -15  293.57   13.10
  -2  -4 -15  275.77   14.50
  -2   4  15  302.97   17.70
  -2  -4 -15  278.07   16.00
   2   4 -15  293.07   11.70
   2  -4 -15  329.17   19.30
  -2   4 -15  298.57   11.50
  -2   4 -15  300.47   18.60
   2  -4 -15  269.07   14.80
  -2  -4  15  283.37   14.70
  -2   4 -15  281.37   11.50
  -3  -4 -15   -0.70    2.70
  -3   4  15   -0.80    3.40
   3   4 -15    2.20    2.00
  -3  -4 -15    5.60    3.30
  -3  -4 -15    6.90    2.70
  -3  -4 -15    9.70    5.30
  -3   4 -15    5.40    4.10
  -3  -4  15   -6.10    2.00
  -3   4 -15    0.60    3.00
   3  -4 -15    0.70    3.80
  -4  -4 -15  238.78   13.80
  -4   4  15  259.57   16.90
  -4  -4 -15  257.97   14.40
  -4  -4 -15  271.57   18.60
   4   4 -15  226.58   12.00
  -4   4 -15  247.38   12.20
  -4   4 -15  233.18   17.10
   4  -4 -15  286.67   18.50
  -4  -4  15  247.98   15.30
  -5   4  15   -3.50    2.80
  -5  -4 -15    0.30    2.60
  -5  -4 -15    4.60    5.00
  -5   4 -15    8.10    4.60
  -5  -4  15    0.10    3.70
  -5   4 -15    3.20    3.00
   5  -4 -15   -5.10    3.50
  -6  -4 -15   13.70    4.20
  -6   4  15   20.30    6.00
  -6   4 -15    5.80    4.20
  -6   4 -15   24.10    7.10
  -6  -4  15   14.80    6.00
   0   5  15    3.30    4.00
   0  -5 -15   -3.40    1.50
   0   5 -15   -1.70    3.80
   0  -5 -15    5.40    3.40
   0  -5 -15   -0.40    2.80
   0  -5  15   -2.60    2.00
   0  -5 -15   -0.70    3.60
  -1   5  15   13.00    5.20
  -1  -5 -15   13.70    4.70
  -1  -5 -15   14.10    4.00
  -1  -5 -15   15.80    3.40
  -1  -5 -15   17.70    5.60
   1   5 -15   18.50    6.10
  -1   5 -15   15.80    2.70
   1  -5 -15   12.40    4.50
  -1   5 -15   15.00    2.40
   1  -5 -15   16.80    4.50
   1  -5 -15   10.40    4.70
  -1  -5  15    6.60    3.50
  -1   5 -15   19.80    6.50
  -2  -5 -15  201.38   13.60
   2   5 -15  195.48   16.10
  -2  -5 -15  165.78   11.70
  -2   5  15  185.98   14.10
   2   5 -15  182.38    8.30
  -2  -5 -15  171.08   14.30
  -2  -5  15  164.28   10.80
  -2   5 -15  162.68    8.90
  -2   5 -15  170.88   14.20
   2  -5 -15  226.08   15.50
  -2   5 -15  174.18    8.70
  -3  -5 -15  222.48   12.00
  -3   5  15  215.58   15.30
  -3  -5 -15  230.88   14.40
  -3  -5 -15  206.78   13.20
   3   5 -15  187.38    9.70
  -3  -5 -15  192.78   15.30
  -3  -5  15  207.48   12.90
  -3   5 -15  195.88   10.30
   3  -5 -15  207.78   15.60
  -3   5 -15  203.08   15.40
  -4  -5 -15    5.40    4.10
  -4  -5 -15    7.70    4.30
   4   5 -15    6.30    2.80
  -4  -5 -15    9.40    4.40
  -4   5  15    9.30    4.60
  -4  -5  15    2.50    4.40
  -4   5 -15    8.60    3.50
   4  -5 -15    8.60    5.50
  -4   5 -15   16.50    6.10
  -5  -5 -15   17.20   10.60
  -5   5  15   19.80    6.00
  -5  -5 -15   19.40    5.00
   5  -5 -15   21.10    7.20
  -5   5 -15   31.90    5.60
  -5   5 -15   21.60    6.70
  -6  -5 -15    1.40    4.50
  -6   5  15    2.50    4.40
  -6  -5 -15    8.40    3.90
  -6   5 -15    0.90    5.20
  -6  -5  15    3.70    4.70
  -6   5 -15   -4.70    3.20
   0  -6 -15  106.39   10.80
   0  -6 -15   91.89    9.20
   0   6  15  110.09    6.70
   0   6 -15  104.19    4.60
   0  -6 -15  123.59   11.20
   0  -6 -15  121.29    7.00
   0   6 -15  104.39    5.00
   0  -6  15   82.49    6.20
   0   6 -15  100.79   11.40
  -1   6  15   47.20    8.60
  -1   6  15   45.40    4.20
  -1  -6 -15   58.79    5.90
   1   6 -15   42.60    8.50
  -1  -6 -15   46.30    8.20
  -1  -6 -15   50.29    7.20
  -1  -6 -15   48.50    8.80
  -1   6 -15   49.00    4.10
   1  -6 -15   63.69   10.10
   1  -6 -15   54.49    9.20
   1   6  15   50.49    5.40
  -1   6 -15   55.99    9.20
   1  -6 -15   39.30    3.90
  -1   6 -15   54.49    5.20
   2   6 -15   20.40    7.00
  -2  -6 -15   24.70    5.50
  -2   6  15   17.70    6.00
  -2  -6 -15   30.60    4.80
  -2  -6 -15   27.00    6.30
   2   6 -15   26.70    3.20
  -2   6  15   24.80    3.00
  -2  -6 -15   26.60    6.50
  -2   6 -15   27.90    6.70
  -2  -6  15   24.20    5.10
   2   6  15   27.00    4.70
  -2   6 -15   23.60    4.20
  -2   6 -15   26.80    3.80
   2  -6 -15   22.70    7.00
  -3  -6 -15    3.70    4.50
  -3  -6 -15    2.20    3.40
  -3   6  15    2.60    4.00
  -3  -6 -15    1.90    4.10
  -3   6  15    1.00    1.50
   3   6 -15    1.40    2.00
  -3   6 -15   -1.10    3.80
   3   6  15   -0.90    2.80
   3  -6 -15   -3.80    3.60
  -3  -6  15   -4.70    2.90
  -3   6 -15    1.70    2.80
  -3   6 -15    0.20    2.30
  -4   6  15   -9.30    3.70
  -4  -6 -15    7.80    5.10
  -4  -6 -15    0.90    3.30
   4  -6 -15    0.80    4.70
  -4   6 -15    2.70    2.80
  -4  -6  15   -4.70    3.00
  -4   6 -15   12.80    5.10
  -5   6  15   41.00    8.30
  -5  -6 -15   28.40    6.30
  -5   6  15   24.40    3.20
   5  -6 -15   16.10    6.30
  -5   6 -15   32.70    7.50
  -5  -6  15   30.20    7.00
  -5   6 -15   25.60    5.00
  -6   6  15   23.50    7.30
  -6  -6 -15   14.20    7.50
  -6  -6 -15   23.20    6.10
  -6   6 -15   29.80    5.70
   6  -6 -15   15.30   10.10
  -6   6 -15   32.10    7.80
  -6  -6  15   19.50    7.10
   0  -7 -15    0.40    2.40
   0   7  15    3.10    2.70
   0   7 -15   -0.70    4.00
   0  -7 -15    2.90    3.30
   0   7 -15    1.30    1.90
   0  -7 -15    4.00    3.80
  -1   7  15   97.69   11.80
  -1  -7 -15  121.09   11.50
   1   7 -15   99.69   11.80
  -1  -7 -15  127.09    8.50
  -1  -7 -15  112.29   11.30
  -1   7  15  123.09    7.40
   1   7  15   98.49    7.70
  -1  -7  15   93.49    7.30
   1  -7 -15   93.19    6.60
  -1   7 -15  117.69   11.80
   1  -7 -15  124.09   12.30
  -1   7 -15  121.09    8.00
   1  -7 -15  108.39   11.30
  -2   7  15  168.58   14.30
  -2   7  15  160.38    8.30
  -2  -7 -15  154.28   13.20
   2   7 -15  149.19   14.00
  -2  -7 -15  161.28   13.90
   2  -7 -15  160.28   13.40
   2   7  15  148.19    9.90
  -2   7 -15  157.98    9.70
  -2   7 -15  154.38   13.80
  -2  -7  15  143.89   10.20
  -2   7 -15  163.08    9.80
  -3   7  15  182.98   15.30
   3   7 -15  178.88    8.90
  -3   7  15  182.58    8.80
  -3  -7 -15  189.98   14.30
  -3  -7 -15  186.08   15.20
   3   7  15  173.28   11.30
   3  -7 -15  208.68   15.30
  -3   7 -15  185.98   10.70
  -3   7 -15  191.58   15.10
  -3  -7  15  174.68   11.80
  -4   7  15   12.70    5.70
  -4   7  15    7.30    2.90
  -4  -7 -15   14.70    4.70
  -4  -7 -15   11.60    9.10
   4   7  15   12.00    4.30
   4  -7 -15   14.00    6.30
  -4   7 -15   17.20    6.00
  -4   7 -15   24.30    5.00
  -4  -7  15   11.80    5.10
  -5   7  15   89.29   11.80
  -5  -7 -15  103.79   10.70
  -5  -7 -15   86.39   12.80
  -5   7  15   96.59    7.50
  -5   7 -15   92.19    8.60
  -5  -7  15   93.69   11.00
   5  -7 -15  106.39   12.00
  -5   7 -15  120.49   12.50
   0   8  15   28.90    5.00
   0  -8 -15   35.10    7.70
   0  -8 -15   29.30    7.20
   0   8 -15   47.50    8.80
   0  -8 -15   34.50    5.10
   0   8 -15   38.00    5.00
  -1  -8 -15   93.59   11.00
  -1  -8 -15   81.89   10.40
   1   8 -15   79.69    5.50
   1   8 -15   79.59   11.30
  -1   8  15   88.79    7.30
  -1   8 -15   69.89   10.30
   1  -8 -15   89.49   11.10
   1   8  15   79.99    7.60
  -1  -8  15   75.19    6.50
   1  -8 -15   78.79    9.80
  -1   8 -15   90.79   10.60
  -2  -8 -15   66.69    9.70
  -2   8  15   68.89    6.70
  -2  -8 -15   62.49    9.60
   2   8 -15   69.29    4.10
   2   8 -15   61.09   10.20
  -2   8  15   63.29    9.80
   2   8  15   71.69    7.50
  -2   8 -15   77.29   10.00
  -2   8 -15   86.99    7.90
   2  -8 -15   85.69   10.00
   3   8 -15   -4.10    1.70
  -3  -8 -15    5.10    4.50
  -3  -8 -15    1.20    5.80
  -3   8  15    1.70    4.60
  -3   8  15   -0.80    2.70
  -3   8 -15    3.50    3.30
  -3   8 -15   -1.80    3.70
   3  -8 -15   -2.30    4.30
  -3  -8  15    0.30    3.60
   3   8  15    0.60    3.60
  -4   8  15  163.08   15.00
  -4  -8 -15  170.18   16.40
  -4   8  15  165.28    9.90
  -4  -8  15  148.69   12.80
  -4   8 -15  177.58   14.20
   4  -8 -15  154.18   13.70
  -4   8 -15  187.98   11.60
  -5  -8 -15   54.39   10.30
  -5   8  15   57.69    9.40
  -5  -8 -15   64.79    9.70
  -5   8 -15   62.39    9.80
  -5   8 -15   48.40    7.10
   5   8  15   31.90    6.80
   0   9  15   -5.10    2.70
   0   9 -15   -2.70    2.70
   0  -9 -15    3.40    4.70
   0  -9 -15    3.90    4.30
   0   9 -15    4.00    4.70
   1   9 -15   47.50    5.60
  -1  -9 -15   47.60    8.80
   1   9 -15   44.60    9.00
  -1  -9 -15   40.40    9.50
  -1   9  15   41.90    6.00
   1   9  15   37.00    6.10
   1  -9 -15   34.00    7.10
  -1   9 -15   45.60    8.70
   1  -9 -15   41.60    9.80
  -1   9 -15   47.00    6.50
   2   9 -15    5.70    5.00
   2   9 -15    3.50    2.70
  -2  -9 -15   -0.90    4.10
  -2   9  15    1.00    4.40
  -2  -9 -15    8.70    4.70
  -2   9  15    0.40    3.90
   2   9  15    2.70    3.90
   2  -9 -15   10.10    5.80
  -2   9 -15    5.40    3.60
  -2   9 -15    6.60    5.00
   2  -9 -15    2.90    7.50
  -3  -9 -15    9.00    6.50
  -3   9  15   -0.10    3.70
  -3   9  15   -3.10    4.70
  -3  -9 -15    0.90    4.70
   3  -9 -15    1.20    4.70
   3   9  15   -3.40    3.60
  -3   9 -15   -1.40    4.80
  -3   9 -15    8.00    3.70
  -4  -9 -15    0.50    3.70
  -4  -9 -15  -10.30    4.00
  -4   9  15   -0.50    4.40
   4   9  15    1.80    4.40
   4  -9 -15   -6.10    4.10
  -4   9 -15    0.60    4.20
  -4   9 -15   -0.20    3.10
   0  10 -15    9.40    5.80
   0  10  15   10.20    4.40
   0 -10 -15   12.80    5.60
   0 -10 -15   12.30    5.70
   0  10 -15    3.40    3.50
  -1 -10 -15   28.40    7.40
  -1  10  15   31.10    6.10
   1  10 -15   27.70    7.90
  -1 -10 -15   36.20    7.90
   1  10 -15   38.60    6.70
   1 -10 -15   23.90    6.40
  -1  10 -15   38.10    7.70
  -1  10 -15   32.40    5.70
   1 -10 -15   32.40    7.50
   1  10  15   22.90    5.80
   2  10 -15  188.38   16.00
  -2 -10 -15  178.18   15.20
  -2  10  15  156.68   15.30
   2  10 -15  172.98    9.80
  -2 -10 -15  180.38   15.80
  -2  10  15  152.38   11.70
   2 -10 -15  184.48   16.00
  -2  10 -15  175.58   12.10
   2  10  15  158.18   12.20
   2 -10 -15  142.49   13.20
  -2  10 -15  167.98   14.10
   0   0 -16  235.88   11.40
   0   0  16  235.38   14.70
   0   0 -16  259.67   13.30
   0   0 -16  247.48   17.20
   1   0 -16   -0.90    2.80
  -1   0  16    0.10    3.10
   1   0 -16    1.50    4.00
  -1   0 -16    0.10    1.80
  -1   0 -16   -0.50    4.30
   1   0 -16   -2.50    1.60
  -1   0 -16    1.10    2.30
  -2   0 -16   26.00    3.60
  -2   0 -16   27.30    3.20
   2   0 -16   24.40    4.20
   2   0 -16   32.00    7.90
  -2   0  16   33.80    6.90
  -2   0 -16   25.80    7.00
  -2   0 -16   21.00    2.60
  -2   0 -16   28.10    4.20
   3   0 -16   24.00    4.70
  -3   0 -16   18.70    3.40
  -3   0 -16   13.90    5.60
  -3   0  16   11.20    4.80
  -3   0 -16   18.70    3.00
   3   0 -16   21.00    7.20
  -3   0 -16   21.00    3.40
   4   0 -16  172.08   15.50
  -4   0 -16  163.98    8.00
   4   0 -16  153.98   11.00
  -4   0  16  177.78   13.50
  -4   0 -16  151.88   14.40
  -4   0 -16  170.48    9.60
  -5   0 -16   -1.70    4.20
  -5   0  16   -7.00    3.60
  -5   0 -16   -4.10    1.60
  -6   0  16   27.20    7.10
  -6   0 -16   44.40   15.10
   0   1 -16    3.80    3.90
   0  -1  16   -5.20    2.70
   0   1  16    1.60    2.90
   0  -1 -16    3.70    4.60
   0   1 -16    0.80    2.20
   0   1 -16    1.80    2.00
   0  -1 -16    5.30    3.30
  -1  -1 -16   66.79    5.90
   1   1 -16   62.59    7.00
   1   1 -16   62.39   10.20
  -1   1  16   66.69    9.20
   1   1 -16   57.69    5.60
  -1  -1 -16   54.89    9.40
   1  -1 -16   60.99    9.90
  -1  -1  16   62.49    7.70
  -1   1 -16   66.49    5.40
   1  -1 -16   67.09    8.10
  -1   1 -16   62.09    4.70
  -1   1 -16   60.09    9.50
   1  -1 -16   70.59    6.70
  -2  -1 -16    6.60    5.00
  -2   1  16    7.60    4.60
  -2  -1 -16   19.10    2.90
  -2  -1 -16   15.50    3.30
  -2  -1 -16   20.20    4.60
   2   1 -16   16.00    6.20
   2  -1 -16   18.40    6.40
  -2   1 -16   20.60    5.90
  -2   1 -16   19.10    2.80
  -2   1 -16   13.90    2.40
  -2  -1  16   11.90    4.70
  -2   1 -16   15.60    2.60
   2  -1 -16   19.40    4.40
  -2   1 -16   12.10    2.00
  -3  -1 -16   74.49    5.90
  -3  -1 -16   63.59    5.60
   3   1 -16   66.19   11.20
   3   1 -16   56.69    6.30
  -3  -1 -16   51.69    9.50
  -3  -1 -16   65.39    7.20
  -3   1  16   70.99    9.70
  -3  -1  16   59.79    8.60
  -3   1 -16   65.89    5.30
   3  -1 -16   65.39   11.10
  -3   1 -16   63.49    5.40
   3  -1 -16   60.79    7.10
  -3   1 -16   44.40    9.10
   4   1 -16    7.50    5.00
  -4  -1 -16   22.30    6.40
  -4  -1 -16   13.50    3.90
  -4   1  16    8.50    4.70
   4   1 -16   19.20    6.50
  -4  -1 -16   17.10    3.40
  -4  -1 -16    8.50    2.70
  -4   1 -16   15.10    5.90
  -4   1 -16   17.90    3.70
   4  -1 -16    9.40    5.90
  -4  -1  16   18.80    5.80
  -5   1  16   35.00    8.10
  -5  -1 -16   39.70    4.70
  -5  -1  16   41.40    8.00
  -5   1 -16   26.10    7.80
  -6   1  16   14.80    6.30
  -6  -1 -16   10.50    7.50
  -6  -1 -16   11.30    3.10
  -6  -1  16   20.50    7.00
  -6   1 -16   13.80    7.80
   0   2 -16   84.39    5.30
   0  -2  16   73.39    7.70
   0   2 -16   84.59    6.10
   0  -2 -16   85.59   10.40
   0   2 -16   92.79   11.10
   0  -2 -16   87.19    8.80
   0   2  16   67.79    9.70
   0  -2 -16   75.69    7.00
  -1  -2 -16   26.90    4.40
  -1   2  16   31.90    7.50
   1   2 -16   26.20    4.80
   1   2 -16   19.90    3.40
   1   2 -16   21.40    6.40
  -1  -2 -16   24.30    5.20
  -1  -2 -16   23.10    6.70
   1  -2 -16   21.20    4.60
  -1   2 -16   22.00    2.60
  -1   2 -16   23.40    2.90
   1  -2 -16   15.90    5.30
  -1  -2  16   28.80    5.80
  -1   2 -16   18.10    5.80
   1  -2 -16   30.30    6.60
  -2  -2 -16   14.60    2.90
  -2  -2 -16   12.70    5.30
   2   2 -16   17.40    6.40
  -2  -2 -16   12.60    4.00
   2   2 -16   16.30    3.40
  -2   2  16    6.00    4.70
  -2  -2 -16    8.90    3.10
  -2   2 -16   20.60    2.60
   2  -2 -16   18.60    6.20
  -2   2 -16   10.10    5.60
   2  -2 -16   16.40    4.20
  -2   2 -16   17.20    2.50
  -2  -2  16   10.30    4.60
  -3  -2 -16    4.30    2.80
  -3  -2 -16    4.30    2.70
  -3  -2 -16   11.30    4.90
  -3   2  16    2.00    4.00
   3   2 -16   -0.40    4.40
   3   2 -16    1.80    2.50
  -3  -2 -16    7.30    2.60
   3  -2 -16    5.90    4.90
  -3   2 -16    4.60    4.50
  -3   2 -16    3.80    2.50
  -3  -2  16    5.40    4.40
  -3   2 -16    5.90    2.50
  -4  -2 -16   69.29    6.80
  -4  -2 -16   67.19   10.50
  -4   2  16   64.19    9.40
   4  -2 -16   92.79   13.10
  -4   2 -16   76.89    6.60
   4  -2 -16   63.09    7.70
  -4   2 -16   80.69   11.90
  -4  -2  16   70.59   10.10
  -4   2 -16   64.59    6.20
  -5  -2 -16   18.80    4.00
  -5  -2 -16   15.30    7.70
  -5   2  16   26.10    7.00
   5  -2 -16   14.00    6.20
  -5  -2  16   22.20    5.80
  -5   2 -16   15.40    7.00
  -5   2 -16   16.30    4.30
  -6   2  16   22.20    6.90
  -6  -2 -16   13.10    3.60
  -6  -2 -16   12.40    6.70
  -6  -2  16   10.90    6.70
   0   3 -16   -1.60    4.20
   0  -3 -16   -3.20    2.90
   0   3  16   -1.10    4.70
   0  -3 -16   -4.60    2.00
   0   3 -16   -0.60    1.40
   0  -3 -16   -0.20    3.60
   0  -3  16    1.20    2.60
   1   3 -16  273.77   18.30
   1   3 -16  246.08   11.20
  -1   3  16  217.08   15.80
   1   3 -16  226.78    9.60
  -1  -3 -16  206.78    9.20
  -1  -3 -16  227.48   12.30
  -1  -3 -16  236.98   16.80
  -1  -3 -16  249.68   14.70
   1  -3 -16  245.48   15.70
  -1   3 -16  222.38   16.80
   1  -3 -16  222.68   12.60
   1  -3 -16  237.08   16.90
  -1  -3  16  216.98   13.00
   2   3 -16   97.99   12.30
  -2  -3 -16  114.39    7.30
  -2   3  16   91.29   10.60
  -2  -3 -16  111.19    9.50
   2   3 -16  104.29    6.90
  -2  -3 -16  116.99   11.90
  -2  -3 -16   95.09    7.90
  -2   3 -16  115.19    5.80
  -2  -3  16  112.29    9.50
   2  -3 -16  118.79   12.70
  -2   3 -16  101.79   11.10
   2  -3 -16  108.49   13.40
  -2   3 -16  102.19    5.80
  -3  -3 -16  336.07   16.20
   3   3 -16  311.67   13.90
  -3  -3 -16  347.67   17.40
  -3  -3 -16  320.37   20.40
   3   3 -16  336.47   22.10
  -3   3  16  333.97   19.30
  -3  -3  16  295.77   16.80
  -3   3 -16  306.07   20.00
   3  -3 -16  332.27   20.60
  -3   3 -16  302.07   12.70
   3  -3 -16  279.67   15.70
  -3   3 -16  303.97   12.40
  -4  -3 -16   59.39   11.70
  -4   3  16   68.89   10.10
  -4  -3 -16   65.29    7.00
  -4   3 -16   49.60    5.90
   4  -3 -16   58.39   10.00
  -4  -3  16   59.49    8.90
  -4   3 -16   51.19    9.10
  -5   3  16  201.48   15.60
  -5  -3 -16  211.38   12.30
  -5  -3  16  179.38   14.80
  -5   3 -16  182.88   16.30
  -5   3 -16  206.88   11.90
   5  -3 -16  247.78   19.00
  -6   3  16   70.99   11.30
  -6  -3 -16   58.39   10.70
  -6  -3 -16   76.79    7.60
   6  -3 -16   64.69   11.30
  -6   3 -16   62.59   10.80
  -6   3 -16   75.09    9.70
  -6  -3  16   55.29    9.30
   0   4 -16    0.60    3.50
   0  -4 -16    0.70    2.60
   0  -4 -16    2.80    3.90
   0  -4 -16    1.30    2.90
   0   4  16    2.40    4.00
   1   4 -16   88.09   11.40
  -1  -4 -16   53.69    9.00
  -1  -4 -16   48.60    7.70
   1   4 -16   54.29    4.60
  -1  -4 -16   51.79    6.50
  -1   4  16   51.99    9.20
   1   4 -16   59.49    4.00
  -1  -4 -16   58.69    4.40
   1  -4 -16   35.60    6.70
  -1  -4  16   52.99    6.90
   1  -4 -16   67.19    9.50
   1  -4 -16   46.80    8.90
  -1   4 -16   49.30    9.10
   2   4 -16    2.00    4.30
  -2  -4 -16   -3.60    2.30
   2   4 -16    1.00    1.60
  -2   4  16   -4.60    3.70
  -2  -4 -16   -2.10    2.70
  -2  -4 -16    8.00    4.60
  -2  -4 -16   -0.40    2.90
  -2   4 -16    6.00    1.90
  -2  -4  16    0.10    2.90
  -2   4 -16   -2.10    3.50
   2  -4 -16    4.10    4.30
   2  -4 -16    7.40    3.20
  -2   4 -16    3.40    2.10
   3   4 -16   11.20    5.90
  -3   4  16   -6.30    3.60
  -3  -4 -16    1.40    3.10
  -3  -4 -16   -2.80    3.50
   3   4 -16    1.10    2.10
  -3   4 -16   -3.80    2.10
   3  -4 -16   -2.70    4.10
  -3  -4  16    4.60    3.90
  -3   4 -16    3.60    4.60
  -3   4 -16   -1.80    2.40
  -4  -4 -16   -1.10    2.40
  -4  -4 -16   -4.80    4.40
  -4   4  16    0.10    3.60
  -4  -4  16   -2.10    3.90
  -4   4 -16   -1.00    2.60
   4  -4 -16   -2.70    3.50
  -4   4 -16   -0.10    4.30
  -5   4  16   46.60    9.20
  -5  -4 -16   32.80    6.20
  -5  -4 -16   33.30    8.10
  -5   4 -16   37.00    8.60
  -5   4 -16   35.10    5.70
  -5  -4  16   32.00    7.50
   5  -4 -16   22.70    9.50
   0  -5 -16   -0.70    2.80
   0   5 -16   -3.50    3.70
   0  -5 -16   -1.30    3.80
   0  -5  16   -2.50    2.50
  -1  -5 -16  177.58    8.80
  -1  -5 -16  188.78   13.70
  -1  -5 -16  144.59   13.40
   1   5 -16  166.98   15.30
  -1   5  16  174.48   14.70
  -1  -5  16  156.18   11.00
  -1   5 -16  179.98    7.30
  -1   5 -16  173.08   14.90
   1  -5 -16  177.58   14.40
   1  -5 -16  199.08   14.70
  -1   5 -16  165.08    6.20
   1  -5 -16  157.28   11.50
  -2  -5 -16   39.90    8.50
   2   5 -16   49.99    4.50
  -2   5  16   40.20    8.10
  -2  -5 -16   48.50    7.70
   2   5 -16   44.80    9.90
  -2  -5 -16   50.99    6.60
  -2  -5 -16   56.49    8.50
   2  -5 -16   58.89    9.60
  -2   5 -16   47.20    5.10
  -2   5 -16   50.99    9.20
  -2  -5  16   43.00    6.50
  -2   5 -16   48.30    5.80
  -3   5  16   51.89    9.00
  -3  -5 -16   39.80    9.20
  -3  -5 -16   49.60    7.90
   3   5 -16   41.30    8.90
  -3   5 -16   37.80    8.30
  -3   5 -16   44.10    5.40
  -3  -5  16   43.40    7.40
   3  -5 -16   41.70    8.90
  -4  -5 -16   61.59   10.40
  -4   5  16   48.80   12.40
   4  -5 -16   43.60   10.20
  -4   5 -16   40.60    5.50
  -4  -5  16   54.49    8.60
  -4   5 -16   38.70    8.50
  -5   5  16  124.09   13.00
  -5  -5 -16  126.29   13.90
  -5  -5 -16  120.89   10.50
  -5  -5  16  114.69   12.30
  -5   5 -16  125.19    9.60
  -5   5 -16  120.69   13.10
   0  -6 -16   15.90    5.60
   0  -6 -16   19.50    5.80
   0  -6  16   17.00    4.70
   0   6 -16   19.50    7.10
  -1   6  16   52.19    9.10
  -1  -6 -16   63.89    9.30
  -1  -6 -16   60.89   10.00
  -1  -6 -16   56.09    7.70
   1   6 -16   63.69   10.70
  -1   6 -16   56.29    4.70
   1  -6 -16   68.39   10.50
  -1   6 -16   63.89   10.20
  -1  -6  16   54.39    6.50
   1  -6 -16   56.19    9.30
  -2  -6 -16   12.90    4.50
   2   6 -16   -1.50    4.70
  -2  -6 -16   13.80    5.10
  -2   6  16    8.90    5.40
   2  -6 -16   13.20    5.90
  -2   6 -16    9.70    5.20
  -2  -6  16   11.60    4.00
  -2   6 -16   12.20    3.20
  -3  -6 -16    7.20    4.00
  -3  -6 -16   10.00    5.50
  -3   6  16   13.60   11.20
  -3  -6  16   -1.00    4.60
  -3   6 -16   10.50    5.60
  -3   6 -16   13.20    3.50
   3  -6 -16   11.00    5.20
  -4   6  16   25.70    7.50
  -4  -6 -16   23.60    6.90
  -4  -6 -16   33.10    7.30
  -4   6 -16   30.40    5.40
  -4  -6  16   38.20    7.60
  -4   6 -16   31.80    7.70
   0   7  16    2.30    2.60
   0  -7 -16   -3.60    3.10
   0   7 -16   -0.70    4.20
   0   7 -16   -2.60    1.40
   0  -7 -16   -0.30    3.60
  -1   7  16   22.00    3.40
  -1  -7 -16   18.50    6.00
  -1   7  16   25.00    7.70
  -1  -7 -16   27.00    6.40
   1   7 -16    5.70    5.60
   1  -7 -16   36.00   10.00
  -1   7 -16   25.60    3.70
  -1   7 -16   12.40    6.00
   1   7  16   23.30    4.20
   1  -7 -16   15.00    6.00
  -2  -7 -16    1.50    4.80
  -2  -7 -16   -1.10    3.60
  -2   7  16   -2.60    1.90
  -2   7  16    1.50    5.20
   2   7 -16   -2.90    4.50
   2  -7 -16    1.70    3.50
   2   7  16    6.50    3.40
   2  -7 -16    2.80    3.80
  -2   7 -16   -2.20    3.70
  -3   7  16   64.29   10.00
  -3  -7 -16   84.79   12.60
   3  -7 -16  103.59   13.20
   3   7  16   84.69    8.40
  -3   7 -16   80.79    7.40
  -3   7 -16   86.89   10.80
  -4  -7 -16    5.00    5.30
  -4   7  16    8.20    5.50
  -4  -7 -16    1.50    5.60
   4  -7 -16   -1.30    4.40
  -4   7 -16    3.00    3.20
  -4   7 -16   -2.30    4.30
   0   8 -16   19.20    3.30
   0  -8 -16   28.70    8.90
   0  -8 -16   13.80    8.70
   0   8  16   16.40    4.10
   0   8 -16   20.20    6.30
  -1   8  16    3.90    3.40
  -1   8  16    8.60    5.40
  -1  -8 -16   -5.80    4.30
   1   8 -16    9.10    5.80
  -1  -8 -16    4.50    5.50
  -1   8 -16   10.30    3.40
   1   8  16    6.50    4.00
  -1   8 -16   -2.80    4.60
   1  -8 -16    8.50    4.80
   2   8 -16   -3.10    4.80
  -2   8  16   -6.90    3.90
  -2   8  16    1.90    2.80
  -2   8 -16   -7.00    3.90
   2   8  16    1.70    3.90
   2  -8 -16    1.90    4.60
   2  -8 -16   10.60    5.00
  -2   8 -16    2.90    3.40
  -3   8  16   12.00    6.00
  -3  -8 -16   15.30    5.70
  -3  -8 -16    7.90    5.20
   3  -8 -16    5.70    8.70
  -3   8 -16    4.80    3.60
  -3   8 -16    4.00    5.10
   3   8  16    7.40    4.20
   0  -9 -16   -7.30    2.80
   0  -9 -16    5.70    5.10
   0   9  16   -3.50    3.10
   0   9 -16   -6.00    4.60
  -1  -9 -16   13.30    5.80
   1   9 -16   12.50    6.10
  -1   9  16   20.30    4.80
  -1   9 -16   18.20    4.50
   1   9  16   12.20    4.80
   1  -9 -16   31.00    8.10
   1  -9 -16   15.00    7.10
  -1   9 -16   20.00    7.40
   0   0 -17    1.30    5.10
   0   0 -17   -0.30    2.10
   0   0  17   -6.20    3.30
   0   0 -17    5.70    3.00
  -1   0  17   -8.60    3.50
  -1   0 -17   -1.30    2.00
  -1   0 -17    2.40    5.10
   1   0 -17   -2.50    3.70
   1   0 -17   -3.50    2.50
   1   0 -17   -2.40    2.10
  -2   0 -17    1.50    2.10
  -2   0  17   -6.60    3.60
  -2   0 -17    0.00    1.80
   2   0 -17    3.10    4.90
  -2   0 -17    2.20    3.80
  -3   0  17    7.50    4.40
  -3   0 -17    5.80    4.80
   3   0 -17   -8.70    5.00
  -3   0 -17   -2.70    2.00
  -3   0 -17    1.90    2.00
  -4   0 -17   -2.10    1.60
   4   0 -17   -6.70    4.30
  -4   0 -17    8.90    5.20
  -4   0  17   -5.40    3.90
  -5   0 -17    2.30    1.80
   5   0 -17   -1.60    5.60
  -5   0 -17   -1.40    5.20
  -5   0  17   -0.50    4.80
   0   1 -17    1.30    1.80
   0   1 -17   -1.50    2.10
   0  -1 -17    0.00    2.70
   0   1  17   -6.90    3.90
   0  -1 -17    1.40    4.60
   0  -1  17   -4.50    3.10
   0   1 -17   -0.50    4.80
   0  -1 -17    1.00    2.90
  -1  -1 -17  312.07   14.80
  -1  -1 -17  331.97   20.80
  -1  -1 -17  328.97   15.70
   1   1 -17  348.57   16.30
   1   1 -17  324.27   14.10
   1   1 -17  320.77   20.90
  -1   1  17  331.27   19.10
   1  -1 -17  332.97   20.80
  -1   1 -17  348.17   13.10
  -1   1 -17  307.17   16.50
  -1  -1  17  325.67   18.10
   1  -1 -17  317.97   17.40
  -1   1 -17  310.37   20.90
   2   1 -17   60.29   10.60
  -2   1  17   67.79   10.00
  -2  -1 -17   48.70    3.30
  -2  -1 -17   74.79    6.70
  -2  -1 -17   44.80    8.60
  -2   1 -17   64.39    4.30
   2  -1 -17   68.99   11.40
  -2   1 -17   55.99    9.70
  -2   1 -17   63.59    4.50
  -2  -1  17   65.39    9.10
   3   1 -17  133.89   16.60
  -3   1  17  102.39   11.70
  -3  -1 -17  117.89    7.70
  -3  -1  17   97.69   10.90
   3  -1 -17   96.29   15.70
  -3   1 -17  105.19   12.70
  -3   1 -17  106.99    6.50
  -4   1  17   26.10    7.20
   4   1 -17   14.80    6.40
  -4  -1 -17   12.70    3.20
  -4  -1  17   15.20    6.20
  -4   1 -17   12.60    3.70
   4  -1 -17    8.60    6.30
  -5  -1 -17   83.19    6.30
  -5   1  17   76.89   11.20
  -5  -1 -17   72.39   11.50
   5  -1 -17   85.79   13.30
  -5   1 -17   81.99   19.30
  -5  -1  17   81.89   11.60
   0  -2 -17   21.20    6.90
   0  -2 -17   14.00    5.10
   0   2 -17   21.50    7.10
   0   2  17   17.70    6.20
   0  -2  17   12.10    4.60
   0   2 -17   17.20    3.30
   0   2 -17   19.70    3.30
  -1  -2 -17  104.09    9.30
   1   2 -17  114.09    9.50
   1   2 -17   90.39   11.50
   1   2 -17   93.59    6.20
  -1   2  17   73.49   10.30
  -1  -2 -17  104.09   12.10
   1  -2 -17  112.89   10.60
  -1  -2  17   94.39    9.80
  -1   2 -17  118.79   13.20
   1  -2 -17  100.59   11.70
  -2   2  17  105.69   11.70
  -2  -2 -17  127.99    9.30
  -2  -2 -17  108.39   13.80
   2   2 -17  132.19   13.70
  -2  -2  17  100.99   10.60
  -2   2 -17  108.69   12.40
   2  -2 -17   85.59   14.60
  -3  -2 -17   -1.50    4.50
  -3  -2 -17    5.40    3.10
  -3   2  17    2.30    4.60
   3   2 -17   -2.80    3.80
  -3   2 -17    0.40    4.80
  -3  -2  17   -2.90    3.60
   3  -2 -17   -1.80    4.50
  -3   2 -17   -4.80    1.80
   4   2 -17  161.68   16.10
  -4   2  17  110.09   12.70
  -4  -2 -17  142.79   16.30
  -4  -2 -17  140.49    9.30
  -4  -2  17  120.39   12.40
  -4   2 -17  146.79   17.20
  -4   2 -17  127.59    8.40
   4  -2 -17  135.89   15.10
   0  -3 -17    4.30    5.00
   0   3 -17    6.50    5.10
   0  -3 -17   -0.60    3.00
  -1  -3 -17   35.30    6.40
   1   3 -17   32.10    8.00
  -1   3  17   27.50    7.00
   1   3 -17   31.50    5.70
  -1  -3 -17   40.70   10.00
   1   3 -17   28.50    4.10
  -1   3 -17   22.90    7.20
   1  -3 -17   42.40    7.50
  -1  -3  17   18.30    5.30
   1  -3 -17   33.00    8.10
  -2   3  17    9.20    5.30
   2   3 -17   13.60    6.30
  -2  -3 -17   12.70    4.30
  -2  -3 -17   14.80    9.30
  -2   3 -17   19.00    6.20
  -2  -3  17    9.70    4.90
   3   3 -17   18.80    7.10
  -3  -3 -17   15.60    4.50
  -3   3  17   19.70    6.80
  -3   3 -17    8.30    5.70
  -3  -3  17    2.90    4.80
  -3   3 -17   12.50    3.20
   3  -3 -17   24.70    8.60
  -4   3  17    1.30    4.80
  -4  -3 -17    5.50    3.20
  -4  -3 -17   -3.30    4.00
   4   3 -17    5.20    5.10
   4  -3 -17   -5.70    4.00
  -4  -3  17    0.80    4.50
  -4   3 -17    0.00    5.50
  -4   3 -17    2.10    2.80
   0  -4 -17   26.00    6.30
   0   4 -17   40.10    8.90
  -1   4  17  166.98   14.80
  -1  -4 -17  187.78   13.50
   1   4 -17  201.68   17.00
   1  -4 -17  195.88   14.60
  -1  -4  17  151.78   11.30
  -1   4 -17  164.18   14.80
  -2  -4 -17  193.78   13.10
   2   4 -17  191.88   17.40
  -2  -4 -17  143.79   14.20
  -2   4  17  165.38   14.60
  -2   4 -17  183.68   15.70
   2  -4 -17  155.08   16.40
  -2  -4  17  169.58   12.80
  -2   4 -17  159.28    8.40
   3   4 -17   -1.80    6.00
  -3   4  17   -5.20    4.10
  -3  -4 -17    8.90    3.90
  -3  -4 -17   -2.90    4.50
  -3  -4  17   -4.80    4.10
  -3   4 -17   -2.10    2.20
  -3   4 -17   -4.70    3.70
  -4   4  17  183.88   17.70
  -4  -4 -17  208.18   13.00
  -4  -4 -17  194.58   16.80
  -4  -4  17  200.48   15.30
  -4   4 -17  206.38   17.30
  -4   4 -17  185.28   10.40
   4  -4 -17  231.58   17.60
   0  -5 -17    3.00    4.60
   0  -5 -17    0.00    3.20
   0   5 -17    0.30    4.90
  -1   5  17   44.40    8.30
  -1  -5 -17   46.10   10.10
   1   5 -17   45.80    9.80
  -1  -5 -17   57.19    8.60
   1  -5 -17   53.39    8.80
  -1   5 -17   42.90    9.80
   1  -5 -17   45.20   10.20
  -2  -5 -17   -0.90    7.30
   2   5 -17    7.10    9.00
   2   5 -17   -4.20    1.90
  -2   5  17   -1.10    4.60
  -2  -5 -17    2.20    3.50
  -2   5 -17    2.90    3.70
   2  -5 -17    8.80    5.90
   2  -5 -17   -0.80    5.00
  -2   5 -17   -0.40    4.60
  -3  -5 -17   -0.80    3.30
  -3  -5 -17   -4.50    4.00
  -3   5  17   -4.50    4.20
  -3   5 -17   -2.30    4.30
   3  -5 -17    6.60    5.80
   0  -6 -17    0.10    4.30
   0   6 -17    5.60    5.00
  -1   6  17   47.50    9.50
  -1  -6 -17   42.20   10.50
   1   6 -17   61.19   10.70
   1  -6 -17   50.79    9.70
   1  -6 -17   44.30   13.10
  -1   6 -17   55.99    9.80
  -2  -6 -17   25.60    8.20
  -2   6  17   22.40    7.50
  -2  -6 -17   21.70    7.00
  -2   6 -17   26.60    7.50
   2  -6 -17   37.00    8.00
  -3   6  17    1.50    5.20
  -3  -6 -17    1.10    3.90
  -3  -6 -17    4.10    4.40
   3   6 -17   -2.30    6.20
  -3   6 -17    1.10    5.20
  -3   6 -17    2.60    3.00
   3  -6 -17   -8.30    3.80
   0   7 -17   -2.50    4.80
   0  -7 -17    2.90    4.30
   0  -7 -17   -6.60    4.20
  -1  -7 -17  139.09   13.40
   1   7 -17  170.28   15.90
  -1  -7 -17  139.79   13.90
  -1   7  17  176.38   21.60
   1  -7 -17  164.98   14.30
  -1   7 -17  149.99   14.40
   1  -7 -17  158.48   14.40
   0   0 -18  408.26   17.90
   1   0 -18   50.39    9.70
  -1   0  18   49.99    9.10
   1   0 -18   63.59    7.70
  -1   0 -18   61.09    6.10
  -2   0 -18   68.79   13.30
  -2   0  18   60.39    9.60
  -2   0 -18   93.89    6.60
   2   0 -18   94.69   13.90
   2   0 -18  102.49   10.10
  -3   0 -18    5.70    2.40
  -3   0 -18    7.00    5.70
  -3   0  18   -3.00    5.10
   3   0 -18    3.10    5.70
   0  -1 -18    0.40    5.60
   0   1 -18    4.20    2.30
   0  -1 -18    3.60    3.40
  -1   1  18   -5.80    4.00
  -1  -1 -18   -0.50    2.60
  -1  -1 -18   -7.40    4.20
   1   1 -18   -2.10    6.90
   1   1 -18   -3.30    2.50
  -1  -1  18   -6.80    4.20
   1  -1 -18   -4.60    4.10
  -1   1 -18   -1.20    1.90
   1  -1 -18    1.20    3.10
   2   1 -18    7.20    6.40
   2   1 -18   13.90    4.40
  -2  -1 -18    3.90    5.40
  -2  -1 -18    9.50    3.20
  -2   1  18   15.40    6.30
   2  -1 -18   15.20    5.40
  -2  -1  18    7.80    6.00
   2  -1 -18    8.20    5.70
  -3   1  18   12.50    6.60
  -3  -1 -18   21.80    7.00
   3   1 -18   12.50    6.90
  -3  -1 -18   15.40    3.40
   3  -1 -18    9.50    6.40
  -3   1 -18   28.20    7.60
  -3  -1  18   27.10   10.60
   0  -2 -18   92.39    9.40
   0   2 -18  100.19    6.30
   0   2 -18  131.59   23.20
   0  -2 -18   98.09   12.70
  -1  -2 -18   61.09    7.50
  -1  -2 -18   41.00    8.80
   1   2 -18   48.30   15.70
  -1   2  18   47.50    9.40
   1   2 -18   61.79    6.20
   1  -2 -18   38.30    8.50
  -1   2 -18   52.49   11.70
   1  -2 -18   37.90    7.10
  -2  -2 -18   30.20    5.50
  -2  -2 -18   24.70    7.50
  -2   2  18   31.30    8.70
   2   2 -18   29.10    8.10
   2   2 -18   39.10    6.20
   2  -2 -18   37.20    7.60
   2  -2 -18   35.30    8.40
   0  -3 -18   -3.90    3.10
   0  -3 -18   -4.70    4.50
   0   3 -18    3.60    7.20
  -1  -3 -18    7.40    5.80
  -1  -3 -18    4.70    3.90
   1   3 -18   -3.20    5.30
   1   3 -18   -0.20    2.10
  -1   3  18    2.00    5.20
  -1   3 -18   -2.30    4.40
   1  -3 -18   -4.50    3.30
   1  -3 -18    2.00    4.40
  -2  -3 -18   41.40    6.60
  -2  -3 -18   28.00    8.10
   2   3 -18   39.60    5.70
   2   3 -18   25.60    8.30
  -2   3  18   26.60    7.60
   2  -3 -18   40.40    9.10
  -2   3 -18   18.20   10.10
   2  -3 -18   44.30   13.30
   0  -4 -18   88.39   11.50
   0  -4 -18   80.39   10.00
   1   4 -18    6.80    8.10
  -1  -4 -18    9.00    6.00
  -1  -4 -18   20.90    5.70
  -1   4  18    7.80    5.90
   1  -4 -18   10.40    6.10
   1  -4 -18   15.30    6.90
  -1   4 -18   13.60    6.40

_computing_structure_solution     'SHELXT 2014/4 (Sheldrick, 2014)'
;
_shelx_hkl_checksum              9920
loop_
_space_group_symop_operation_xyz
'x, y, z'
'-x+1/2, -y, z+1/2'
'-x, y+1/2, -z+1/2'
'x+1/2, -y+1/2, -z'
'-x, -y, -z'
'x-1/2, y, -z-1/2'
'x, -y-1/2, z-1/2'
'-x-1/2, y-1/2, z'
loop_
_atom_site_label
_atom_site_type_symbol
_atom_site_fract_x
_atom_site_fract_y
_atom_site_fract_z
_atom_site_U_iso_or_equiv
_atom_site_adp_type
_atom_site_occupancy
_atom_site_site_symmetry_order
_atom_site_calc_flag
_atom_site_refinement_flags_posn
_atom_site_refinement_flags_adp
Hg1 Hg 0.50701(2) 0.57295(2) 0.39131(2) 0.05326(9) Uani 1 1 d . .
I1 I 0.65192(3) 0.42119(2) 0.44551(2) 0.04501(11) Uani 1 1 d . .
I2 I 0.33604(4) 0.53719(3) 0.26124(2) 0.06374(14) Uani 1 1 d . .
S1 S 0.64660(16) 0.70722(10) 0.38895(13) 0.0674(5) Uani 1 1 d . .
N1 N 0.5306(5) 0.8156(3) 0.5118(3) 0.0606(13) Uani 1 1 d . .
N2 N 0.4557(5) 0.8337(3) 0.3822(3) 0.0539(11) Uani 1 1 d . .
C2 C 0.5405(5) 0.7849(3) 0.4290(3) 0.0447(12) Uani 1 1 d . .
C4 C 0.3948(7) 0.8952(4) 0.4345(5) 0.0726(19) Uani 1 1 d . .
H4 H 0.3329 0.9370 0.4171 0.087 Uiso 1 1 calc R U
C3 C 0.4407(7) 0.8836(5) 0.5137(5) 0.0733(19) Uani 1 1 d . .
H3 H 0.4165 0.9160 0.5628 0.088 Uiso 1 1 calc R U
C5 C 0.4302(9) 0.8232(5) 0.2891(4) 0.083(2) Uani 1 1 d . .
H5A H 0.5111 0.8302 0.2572 0.125 Uiso 1 1 calc R U
H5B H 0.3680 0.8672 0.2703 0.125 Uiso 1 1 calc R U
H5C H 0.3949 0.7652 0.2783 0.125 Uiso 1 1 calc R U
C1 C 0.6080(9) 0.7808(6) 0.5841(5) 0.103(3) Uani 1 1 d . .
H1A H 0.5975 0.7176 0.5870 0.155 Uiso 1 1 calc R U
H1B H 0.5784 0.8070 0.6378 0.155 Uiso 1 1 calc R U
H1C H 0.6993 0.7949 0.5752 0.155 Uiso 1 1 calc R U
loop_
_atom_site_aniso_label
_atom_site_aniso_U_11
_atom_site_aniso_U_22
_atom_site_aniso_U_33
_atom_site_aniso_U_23
_atom_site_aniso_U_13
_atom_site_aniso_U_12
Hg1 0.06834(18) 0.03883(13) 0.05261(14) 0.00266(9) -0.01362(10) -0.00503(10)
I1 0.0511(2) 0.04156(19) 0.04238(18) 0.00142(13) 0.00287(14) 0.01366(15)
I2 0.0663(3) 0.0805(3) 0.0444(2) 0.00848(18) -0.01554(17) -0.0097(2)
S1 0.0522(9) 0.0386(7) 0.1113(13) -0.0045(8) 0.0155(9) -0.0032(7)
N1 0.071(3) 0.058(3) 0.053(3) -0.002(2) 0.004(2) -0.029(3)
N2 0.067(3) 0.042(3) 0.053(3) 0.004(2) 0.010(2) 0.003(2)
C2 0.055(3) 0.031(3) 0.047(3) -0.001(2) 0.010(2) -0.013(2)
C4 0.077(5) 0.051(4) 0.090(5) -0.011(3) 0.018(4) 0.010(3)
C3 0.086(5) 0.062(4) 0.072(4) -0.023(3) 0.031(4) -0.010(4)
C5 0.124(7) 0.073(5) 0.054(4) 0.006(3) -0.009(4) 0.008(4)
C1 0.134(7) 0.111(6) 0.064(4) 0.022(4) -0.026(5) -0.065(6)
loop_
_atom_type_symbol
_atom_type_description
_atom_type_scat_dispersion_real
_atom_type_scat_dispersion_imag
_atom_type_scat_source
C C 0.0033 0.0016 'International Tables Vol C Tables 4.2.6.8 and 6.1.1.4'
H H 0.0000 0.0000 'International Tables Vol C Tables 4.2.6.8 and 6.1.1.4'
Hg Hg -2.3894 9.2266 'International Tables Vol C Tables 4.2.6.8 and 6.1.1.4'
I I -0.4742 1.8119 'International Tables Vol C Tables 4.2.6.8 and 6.1.1.4'
N N 0.0061 0.0033 'International Tables Vol C Tables 4.2.6.8 and 6.1.1.4'
S S 0.1246 0.1234 'International Tables Vol C Tables 4.2.6.8 and 6.1.1.4'
loop_
_geom_angle_atom_site_label_1
_geom_angle_atom_site_label_2
_geom_angle_atom_site_label_3
_geom_angle
_geom_angle_site_symmetry_3
S1 Hg1 I2 121.48(5) .
S1 Hg1 I1 111.56(4) .
I2 Hg1 I1 112.774(14) .
S1 Hg1 I1 107.37(4) 5_666
I2 Hg1 I1 106.082(14) 5_666
I1 Hg1 I1 93.407(11) 5_666
Hg1 I1 Hg1 86.592(11) 5_666
C2 S1 Hg1 101.30(17) .
C2 N1 C3 108.9(5) .
C2 N1 C1 123.2(6) .
C3 N1 C1 127.8(6) .
C2 N2 C4 110.3(5) .
C2 N2 C5 125.2(5) .
C4 N2 C5 124.4(6) .
N2 C2 N1 105.4(5) .
N2 C2 S1 126.2(4) .
N1 C2 S1 128.3(5) .
C3 C4 N2 106.9(6) .
C3 C4 H4 126.6 .
N2 C4 H4 126.6 .
C4 C3 N1 108.5(6) .
C4 C3 H3 125.8 .
N1 C3 H3 125.8 .
N2 C5 H5A 109.5 .
N2 C5 H5B 109.5 .
H5A C5 H5B 109.5 .
N2 C5 H5C 109.5 .
H5A C5 H5C 109.5 .
H5B C5 H5C 109.5 .
N1 C1 H1A 109.5 .
N1 C1 H1B 109.5 .
H1A C1 H1B 109.5 .
N1 C1 H1C 109.5 .
H1A C1 H1C 109.5 .
H1B C1 H1C 109.5 .
loop_
_geom_bond_atom_site_label_1
_geom_bond_atom_site_label_2
_geom_bond_distance
_geom_bond_site_symmetry_2
Hg1 S1 2.4713(15) .
Hg1 I2 2.6944(4) .
Hg1 I1 2.8438(4) .
Hg1 I1 2.9733(4) 5_666
I1 Hg1 2.9733(4) 5_666
S1 C2 1.705(5) .
N1 C2 1.352(7) .
N1 C3 1.373(9) .
N1 C1 1.455(9) .
N2 C2 1.340(7) .
N2 C4 1.372(7) .
N2 C5 1.456(7) .
C4 C3 1.308(10) .
C4 H4 0.9300 .
C3 H3 0.9300 .
C5 H5A 0.9600 .
C5 H5B 0.9600 .
C5 H5C 0.9600 .
C1 H1A 0.9600 .
C1 H1B 0.9600 .
C1 H1C 0.9600 .
