#------------------------------------------------------------------------------
#$Date: 2018-10-30 01:17:58 +0200 (Tue, 30 Oct 2018) $
#$Revision: 211694 $
#$URL: file:///home/coder/svn-repositories/cod/cif/1/55/01/1550131.cif $
#------------------------------------------------------------------------------
#
# This file is available in the Crystallography Open Database (COD),
# http://www.crystallography.net/
#
# All data on this site have been placed in the public domain by the
# contributors.
#
data_1550131
loop_
_publ_author_name
'Condakes, Matthew'
'Rosen, Rachel'
'Harwood, Stephen'
'Maimone, Thomas'
_publ_section_title
;
 A Copper-Catalyzed Double Coupling Enables a 3-Step Synthesis of the
 Quassinoid Core Architecture
;
_journal_name_full               'Chemical Science'
_journal_paper_doi               10.1039/C8SC03835J
_journal_year                    2019
_chemical_absolute_configuration ad
_chemical_formula_moiety         'C16 H20 O2'
_chemical_formula_sum            'C16 H20 O2'
_chemical_formula_weight         244.32
_space_group_crystal_system      orthorhombic
_space_group_IT_number           19
_space_group_name_Hall           'P 2ac 2ab'
_space_group_name_H-M_alt        'P 21 21 21'
_symmetry_space_group_name_Hall  'P 2ac 2ab'
_symmetry_space_group_name_H-M   'P 21 21 21'
_atom_sites_solution_hydrogens   mixed
_atom_sites_solution_primary     dual
_audit_creation_date             2018-04-03
_audit_creation_method
;
Olex2 1.2-ac3
(compiled 2017.08.10 svn.r3458 for OlexSys, GUI svn.r5381)
;
_audit_update_record
;
2018-07-19 deposited with the CCDC.
2018-10-29 downloaded from the CCDC.
;
_cell_angle_alpha                90
_cell_angle_beta                 90
_cell_angle_gamma                90
_cell_formula_units_Z            4
_cell_length_a                   5.52630(10)
_cell_length_b                   7.5880(2)
_cell_length_c                   31.5641(6)
_cell_measurement_reflns_used    7361
_cell_measurement_temperature    100(2)
_cell_measurement_theta_max      78.7320
_cell_measurement_theta_min      5.5690
_cell_volume                     1323.60(5)
_computing_cell_refinement       'CrysAlisPro 1.171.39.45f (Rigaku OD, 2018)'
_computing_data_collection       'CrysAlisPro 1.171.39.45f (Rigaku OD, 2018)'
_computing_data_reduction        'CrysAlisPro 1.171.39.45f (Rigaku OD, 2018)'
_computing_molecular_graphics    'Olex2 (Dolomanov et al., 2009)'
_computing_publication_material  'Olex2 (Dolomanov et al., 2009)'
_computing_structure_refinement  'ShelXL (Sheldrick, 2015)'
_computing_structure_solution    'ShelXT (Sheldrick, 2015)'
_diffrn_ambient_temperature      100(2)
_diffrn_detector                 'CCD plate'
_diffrn_detector_type            'Pilatus 200K'
_diffrn_measured_fraction_theta_full 0.992
_diffrn_measured_fraction_theta_max 0.993
_diffrn_measurement_details
;
List of Runs (angles in degrees, time in seconds):

  # Type    Start    End  Width  t~exp~   \w     \q     \k     \f   Frames
#--------------------------------------------------------------------------
  1  \w    -73.00  23.00   0.50    0.50    --    0.00 -82.00-144.00  192
  2  \w    -75.00   8.00   0.50    0.50    --    0.00 -43.00  -6.00  166
  3  \w      9.00  34.00   0.50    0.50    --    0.00  43.00 145.00   50
  4  \w    -92.00 -67.00   0.50    0.50    -- -100.00 110.00-133.00   50
  5  \w   -149.00-123.00   0.50    0.50    -- -100.00 -82.00-144.00   52
  6  \w    -76.00 -51.00   0.50    0.50    -- -100.00  43.00 145.00   50
  7  \w   -158.00-133.00   0.50    0.50    -- -100.00 -43.00  -6.00   50
  8  \w   -135.00-109.00   0.50    0.50    -- -100.00-110.00 132.00   52
  9  \w    105.00 130.00   0.50    0.50    --  106.00 110.00-133.00   50
 10  \w    106.00 131.00   0.50    0.50    --  106.00  82.00 -22.00   50
 11  \w     57.00  82.00   0.50    0.50    --  106.00 -82.00-144.00   50
 12  \w    152.00 178.00   0.50    0.50    --  106.00  43.00 145.00   52
 13  \w     16.00  42.00   0.50    0.50    --    0.00  77.00  60.00   52
 14  \w      2.00  31.00   0.50    0.50    --    0.00 -99.00   0.00   58
 15  \w    -57.00   7.00   0.50    0.50    --    0.00 -38.00 150.00  128
 16  \w    -72.00 -26.00   0.50    0.50    -- -100.00  30.00  60.00   92
 17  \w    -80.00 -26.00   0.50    0.50    -- -100.00  45.00-120.00  108
 18  \w    -71.00 -28.00   0.50    0.50    -- -100.00  30.00 -30.00   86
 19  \w    -70.00 -23.00   0.50    0.50    -- -100.00  30.00-150.00   94
 20  \w    -77.00 -26.00   0.50    0.50    -- -100.00  45.00 -90.00  102
 21  \w     30.00  57.00   0.50    0.50    --  106.00 -94.00  60.00   54
 22  \w     31.00  69.00   0.50    0.50    --  106.00 -45.00  30.00   76
 23  \w     31.00  61.00   0.50    0.50    --  106.00 -30.00  30.00   60
 24  \w     71.00 109.00   0.50    0.50    --  106.00 -94.00  60.00   76
 25  \w     70.00 108.00   0.50    0.50    --  106.00 -94.00-150.00   76
 26  \w     31.00  65.00   0.50    0.50    --  106.00 -94.00-150.00   68
 27  \w     36.00  72.00   0.50    0.50    --  106.00 -45.00 -90.00   72
;
_diffrn_measurement_device       'four-circle diffractometer'
_diffrn_measurement_device_type  'ROD, Synergy Custom DW system, Pilatus 200K'
_diffrn_measurement_method       '\w scans'
_diffrn_orient_matrix_type
'CrysAlisPro convention (1999,Acta A55,543-557)'
_diffrn_orient_matrix_UB_11      -0.0278463000
_diffrn_orient_matrix_UB_12      0.0380591000
_diffrn_orient_matrix_UB_13      -0.0476948000
_diffrn_orient_matrix_UB_21      0.2418839000
_diffrn_orient_matrix_UB_22      0.1010171000
_diffrn_orient_matrix_UB_23      0.0003204000
_diffrn_orient_matrix_UB_31      0.1356902000
_diffrn_orient_matrix_UB_32      -0.1719560000
_diffrn_orient_matrix_UB_33      -0.0103772000
_diffrn_radiation_monochromator  mirror
_diffrn_radiation_probe          x-ray
_diffrn_radiation_type           CuK\a
_diffrn_radiation_wavelength     1.54184
_diffrn_reflns_av_R_equivalents  0.0288
_diffrn_reflns_av_unetI/netI     0.0177
_diffrn_reflns_Laue_measured_fraction_full 0.992
_diffrn_reflns_Laue_measured_fraction_max 0.993
_diffrn_reflns_limit_h_max       6
_diffrn_reflns_limit_h_min       -6
_diffrn_reflns_limit_k_max       7
_diffrn_reflns_limit_k_min       -9
_diffrn_reflns_limit_l_max       39
_diffrn_reflns_limit_l_min       -39
_diffrn_reflns_number            8543
_diffrn_reflns_point_group_measured_fraction_full 0.968
_diffrn_reflns_point_group_measured_fraction_max 0.956
_diffrn_reflns_theta_full        67.684
_diffrn_reflns_theta_max         74.490
_diffrn_reflns_theta_min         5.607
_diffrn_source                   'Rotating-anode X-ray tube'
_diffrn_source_type              'Rigaku (Cu) X-ray Source'
_exptl_absorpt_coefficient_mu    0.622
_exptl_absorpt_correction_T_max  1.00000
_exptl_absorpt_correction_T_min  0.80174
_exptl_absorpt_correction_type   multi-scan
_exptl_absorpt_process_details
;
CrysAlisPro 1.171.39.45f (Rigaku Oxford Diffraction, 2018)
Empirical absorption correction using spherical harmonics,
 implemented in SCALE3 ABSPACK scaling algorithm.
;
_exptl_crystal_colour            colourless
_exptl_crystal_colour_primary    colourless
_exptl_crystal_density_diffrn    1.226
_exptl_crystal_description       block
_exptl_crystal_F_000             528
_exptl_crystal_size_max          0.22
_exptl_crystal_size_mid          0.22
_exptl_crystal_size_min          0.05
_refine_diff_density_max         0.205
_refine_diff_density_min         -0.195
_refine_diff_density_rms         0.037
_refine_ls_abs_structure_details
;
 Flack x determined using 961 quotients [(I+)-(I-)]/[(I+)+(I-)]
 (Parsons, Flack and Wagner, Acta Cryst. B69 (2013) 249-259).
;
_refine_ls_abs_structure_Flack   0.32(9)
_refine_ls_extinction_method     none
_refine_ls_goodness_of_fit_ref   1.069
_refine_ls_hydrogen_treatment    mixed
_refine_ls_matrix_type           full
_refine_ls_number_parameters     177
_refine_ls_number_reflns         2588
_refine_ls_number_restraints     0
_refine_ls_restrained_S_all      1.069
_refine_ls_R_factor_all          0.0334
_refine_ls_R_factor_gt           0.0330
_refine_ls_shift/su_max          0.001
_refine_ls_shift/su_mean         0.000
_refine_ls_structure_factor_coef Fsqd
_refine_ls_weighting_details
'w=1/[\s^2^(Fo^2^)+(0.0482P)^2^+0.3399P] where P=(Fo^2^+2Fc^2^)/3'
_refine_ls_weighting_scheme      calc
_refine_ls_wR_factor_gt          0.0866
_refine_ls_wR_factor_ref         0.0869
_reflns_Friedel_coverage         0.611
_reflns_Friedel_fraction_full    0.932
_reflns_Friedel_fraction_max     0.902
_reflns_number_gt                2552
_reflns_number_total             2588
_reflns_threshold_expression     'I > 2\s(I)'
_cod_data_source_file            c8sc03835j2.cif
_cod_data_source_block           rr001
_cod_database_code               1550131
_shelx_shelxl_version_number     2017/1
_chemical_oxdiff_formula         'C O H'
_shelx_space_group_comment
;
The symmetry employed for this shelxl refinement is uniquely defined
by the following loop, which should always be used as a source of
symmetry information in preference to the above space-group names.
They are only intended as comments.
;
_reflns_odcompleteness_completeness 99.21
_reflns_odcompleteness_iscentric 1
_reflns_odcompleteness_theta     74.33
_olex2_refinement_description
;
1. Fixed Uiso
 At 1.2 times of:
  All C(H) groups, All C(H,H) groups
 At 1.5 times of:
  All C(H,H,H) groups
2.a Ternary CH refined with riding coordinates:
 C9(H9), C6(H6)
2.b Secondary CH2 refined with riding coordinates:
 C8(H8A,H8B), C7(H7A,H7B)
2.c Aromatic/amide H refined with riding coordinates:
 C11(H11), C12(H12), C15(H15), C14(H14), C2(H2)
2.d Idealised Me refined as rotating group:
 C16(H16A,H16B,H16C), C5(H5A,H5B,H5C)
;
_shelx_res_file
;
TITL rr001_a.res in P2(1)2(1)2(1)
    rr001.res
    created by SHELXL-2017/1 at 14:20:39 on 03-Apr-2018
REM Old TITL rr001_a.res in P2(1)2(1)2(1)
REM SHELXT solution in P2(1)2(1)2(1)
REM R1 0.104, Rweak 0.025, Alpha 0.001, Orientation as input
REM Flack x = 0.284 ( 0.093 ) from Parsons' quotients
REM Formula found by SHELXT: C16 O2
CELL 1.54184 5.5263 7.588 31.5641 90 90 90
ZERR 4 0.0001 0.0002 0.0006 0 0 0
LATT -1
SYMM 0.5-X,-Y,0.5+Z
SYMM -X,0.5+Y,0.5-Z
SYMM 0.5+X,0.5-Y,-Z
SFAC C H O
UNIT 64 80 8

L.S. 10
PLAN  20
BOND $H
list 4
fmap 2
ACTA
REM <olex2.extras>
REM <HklSrc "%.\\rr001.hkl">
REM </olex2.extras>

WGHT    0.048200    0.339900
FVAR       1.30220
O2    3    0.179379    0.654020    0.792451    11.00000    0.02497    0.02267 =
         0.01510    0.00048   -0.00038   -0.00312
O1    3    0.044765    0.768789    0.513979    11.00000    0.02604    0.04146 =
         0.01523    0.00590    0.00071    0.00319
C13   1    0.217818    0.643673    0.749508    11.00000    0.01925    0.01679 =
         0.01553    0.00187   -0.00158    0.00240
C11   1    0.130118    0.551962    0.678211    11.00000    0.01727    0.01816 =
         0.01863   -0.00171   -0.00146   -0.00162
AFIX  43
H11   2    0.031964    0.490317    0.659418    11.00000   -1.20000
AFIX   0
C12   1    0.071692    0.552553    0.721437    11.00000    0.01776    0.01823 =
         0.01848    0.00127    0.00114   -0.00236
AFIX  43
H12   2   -0.063944    0.492297    0.731150    11.00000   -1.20000
AFIX   0
C15   1    0.475570    0.731373    0.691981    11.00000    0.01557    0.01914 =
         0.02239    0.00109    0.00033   -0.00199
AFIX  43
H15   2    0.611703    0.791355    0.682383    11.00000   -1.20000
AFIX   0
C14   1    0.421305    0.733613    0.734706    11.00000    0.01734    0.01904 =
         0.02030   -0.00112   -0.00480   -0.00105
AFIX  43
H14   2    0.519906    0.794768    0.753520    11.00000   -1.20000
AFIX   0
C10   1    0.330861    0.641137    0.662798    11.00000    0.01631    0.01714 =
         0.01786   -0.00003    0.00002    0.00082
C16   1   -0.035350    0.574057    0.808282    11.00000    0.02465    0.02580 =
         0.01820    0.00245    0.00350   -0.00020
AFIX 137
H16A  2   -0.173163    0.621376    0.793672    11.00000   -1.50000
H16B  2   -0.049910    0.597824    0.838045    11.00000   -1.50000
H16C  2   -0.027803    0.449041    0.803804    11.00000   -1.50000
AFIX   0
C3    1    0.292771    0.501321    0.588840    11.00000    0.01894    0.02221 =
         0.01547   -0.00078    0.00367   -0.00125
C4    1    0.112145    0.525342    0.560824    11.00000    0.02037    0.02740 =
         0.01545   -0.00197    0.00225   -0.00178
C9    1    0.393628    0.651644    0.615751    11.00000    0.01580    0.02229 =
         0.01789   -0.00043    0.00101   -0.00156
AFIX  13
H9    2    0.570324    0.644656    0.613726    11.00000   -1.20000
AFIX   0
C8    1    0.320177    0.832292    0.597714    11.00000    0.02495    0.02076 =
         0.01848    0.00103    0.00190   -0.00327
AFIX  23
H8A   2    0.361643    0.924285    0.617780    11.00000   -1.20000
H8B   2    0.407654    0.854444    0.571609    11.00000   -1.20000
AFIX   0
C7    1    0.049468    0.835364    0.589176    11.00000    0.02519    0.02385 =
         0.01806    0.00206    0.00122    0.00319
AFIX  23
H7A   2   -0.037573    0.809392    0.615122    11.00000   -1.20000
H7B   2    0.001915    0.951946    0.579710    11.00000   -1.20000
AFIX   0
C6    1   -0.015951    0.700333    0.555526    11.00000    0.01788    0.03189 =
         0.01494    0.00215    0.00226    0.00152
AFIX  13
H6    2   -0.190902    0.679736    0.556626    11.00000   -1.20000
AFIX   0
C1    1    0.577933    0.287481    0.622293    11.00000    0.02729    0.02438 =
         0.03245   -0.00096   -0.00098    0.00194
C5    1    0.018059    0.384874    0.531313    11.00000    0.02922    0.03319 =
         0.02219   -0.00507   -0.00374   -0.00020
AFIX 137
H5A   2    0.148957    0.339783    0.514511    11.00000   -1.50000
H5B   2   -0.102960    0.434574    0.513056    11.00000   -1.50000
H5C   2   -0.051715    0.290842    0.547586    11.00000   -1.50000
AFIX   0
C2    1    0.410008    0.329008    0.593862    11.00000    0.02715    0.02291 =
         0.02428   -0.00430    0.00072    0.00034
AFIX  43
H2    2    0.362113    0.240275    0.575348    11.00000   -1.20000
AFIX   0
H1    2   -0.080989    0.778912    0.499481    11.00000    0.07159
H1A   2    0.638833    0.170434    0.623196    11.00000    0.03225
H1B   2    0.641560    0.370036    0.643762    11.00000    0.03720
HKLF 4




REM  rr001_a.res in P2(1)2(1)2(1)
REM R1 =  0.0330 for    2552 Fo > 4sig(Fo)  and  0.0334 for all    2588 data
REM    177 parameters refined using      0 restraints

END

WGHT      0.0482      0.3399

REM Highest difference peak  0.205,  deepest hole -0.195,  1-sigma level  0.037
Q1    1   0.0722  0.2728  0.5380  11.00000  0.05    0.20
Q2    1   0.3415  0.7364  0.6067  11.00000  0.05    0.19
Q3    1   0.0386  0.4224  0.5012  11.00000  0.05    0.19
Q4    1   0.3685  0.6380  0.6402  11.00000  0.05    0.18
Q5    1   0.0287  0.7615  0.5714  11.00000  0.05    0.17
Q6    1   0.0692  0.4523  0.5477  11.00000  0.05    0.16
Q7    1   0.2545  0.5392  0.5625  11.00000  0.05    0.15
Q8    1   0.4319  0.6411  0.6784  11.00000  0.05    0.15
Q9    1   0.3391  0.5666  0.6032  11.00000  0.05    0.15
Q10   1   0.0651  0.6107  0.5557  11.00000  0.05    0.14
Q11   1   0.3396  0.4166  0.5958  11.00000  0.05    0.14
Q12   1  -0.1836  0.3169  0.5420  11.00000  0.05    0.13
Q13   1   0.1064  0.6442  0.7338  11.00000  0.05    0.12
Q14   1  -0.2190  0.6230  0.5533  11.00000  0.05    0.12
Q15   1   0.2788  0.5681  0.6715  11.00000  0.05    0.12
Q16   1   0.0639  0.6438  0.4984  11.00000  0.05    0.12
Q17   1   0.3158  0.6825  0.7421  11.00000  0.05    0.12
Q18   1  -0.2005  0.7148  0.8047  11.00000  0.05    0.11
Q19   1  -0.2343  0.7050  0.5478  11.00000  0.05    0.11
Q20   1  -0.2065  0.4396  0.5335  11.00000  0.05    0.11
;
_shelx_res_checksum              13908
_shelx_hkl_file
;
   0   0  -3    0.12    0.14
   0   0   3    0.54    0.23
   0   0  -3    0.14    0.13
   0   0   3    0.10    0.13
   0   0  -4    8.46    0.38
   0   0   4    7.29    0.37
   0   0   5    0.15    0.23
   0   0   5    0.24    0.26
   0   0  -5    0.13    0.24
   0   0   7    1.07    0.47
   0   0   7    0.35    0.41
   0   0  -7    0.48    0.43
   0   0   8  713.98    6.70
   0   0   8  715.96    6.78
   0   0   9    0.49    0.43
   0   0   9    3.38    0.54
   0   0  10 7656.40   54.14
   0   0  11    0.28    0.36
   0   0  11    1.10    0.42
   0   0 -12  408.40    5.43
   0   0  12  433.77    5.55
   0   0 -13    0.02    0.39
   0   0  13    0.15    0.38
   0   0  13    0.08    0.50
   0   0  14 1469.42   13.53
   0   0  14 1563.24   13.70
   0   0  14 1406.36   13.97
   0   0 -14 1319.67   13.20
   0   0 -15   -0.25    0.43
   0   0  15    1.34    0.51
   0   0  15    0.23    0.43
   0   0  15    0.18    0.52
   0   0  16   71.89    2.33
   0   0  16   66.70    2.49
   0   0  17    0.27    0.50
   0   0 -17    1.59    0.57
   0   0  18   10.81    1.15
   0   0  18    5.69    0.82
   0   0 -18    3.32    0.64
   0   0 -18   11.67    1.15
   0   0  19    0.53    0.48
   0   0 -19    0.17    0.60
   0   0 -20  269.26    5.41
   0   0 -20  288.73    5.82
   0   0 -21    0.22    0.71
   0   0 -22   38.39    2.21
   0   0 -23   -0.26    0.79
   0   0 -24    8.97    1.40
   0   0 -25    0.32    0.92
   0   0 -25    1.73    1.46
   0   0 -26  746.89   14.12
   0   0 -27    0.95    1.77
   0   0 -28 1572.89   22.01
   0   0 -29    0.74    1.66
   0   0 -30  147.68    6.26
   0   0 -31    2.46    1.65
   0   0 -32  872.69   14.97
   0   0 -33    1.25    1.49
   0   0 -34  269.45    7.29
   0   0 -35   -0.09    1.22
   0   0 -36   19.51    1.97
   0   0  36   20.61    1.89
   0   0 -37    0.03    0.91
   0   0  37   -0.20    0.93
   0   0  38  445.72    7.04
   0   0 -38  389.43    6.67
   0   0 -39    0.02    0.58
   0   0  39    0.53    0.56
   0   1   0    0.75    0.18
   0   1   0    0.46    0.32
   0  -1  -3    7.74    0.35
   0   1  -3    6.61    0.52
   0   1   3   14.64    0.44
   0  -1   3    6.74    0.33
   0   1  -3   16.94    0.48
   0   1  -4 2080.30   15.63
   0  -1   4 2095.58   14.76
   0   1  -4 2078.97   14.63
   0  -1   5   74.69    1.31
   0   1  -5   67.18    1.55
   0   1   5   71.74    1.29
   0   1  -5   68.81    1.12
   0   1  -5   73.77    1.59
   0  -1  -5   73.89    1.35
   0   1  -6  248.89    3.29
   0  -1  -6  237.97    2.94
   0   1   6  253.90    2.97
   0  -1   6  262.44    2.98
   0   1  -6  248.60    2.96
   0   1  -7   55.56    1.50
   0   1  -7   47.54    1.24
   0   1   7   57.69    1.35
   0  -1   7   55.68    1.33
   0   1  -7   45.87    1.44
   0   1  -8 1013.03    9.06
   0   1  -8  883.99    9.28
   0   1   8 1029.92    8.66
   0   1  -8  912.11    8.43
   0  -1   8  992.27    8.59
   0   1   9    9.79    0.64
   0  -1   9   11.09    0.60
   0  -1   9   10.91    0.71
   0   1  -9    9.83    0.77
   0   1  -9   14.91    0.79
   0   1  -9    8.34    0.85
   0   1   9   14.51    0.79
   0  -1  10    7.37    0.64
   0  -1  10    6.72    0.54
   0   1 -10    6.46    0.60
   0   1 -10    7.24    0.69
   0  -1 -10    6.59    0.61
   0   1  10    6.34    0.60
   0   1  10    6.06    0.55
   0   1 -10    6.14    0.83
   0   1 -11 1394.68   14.77
   0  -1  11 1439.69   14.01
   0  -1 -11 1546.48   13.43
   0  -1  11 1527.02   12.51
   0  -1  11 1492.60   13.74
   0   1  11 1592.69   13.44
   0   1 -11 1538.65   13.60
   0   1  11 1583.50   12.93
   0  -1  11 1526.82   13.28
   0   1 -11 1672.89   13.60
   0  -1  12 1165.14    9.93
   0   1  12 1126.73   10.71
   0  -1  12 1141.74   11.25
   0   1 -12 1109.13   11.03
   0  -1 -12 1069.55   10.57
   0  -1  12 1127.94   11.55
   0   1 -12 1021.89   10.47
   0   1  12 1182.74   10.37
   0  -1  12 1108.49   10.57
   0   1  13 1765.74   14.88
   0   1  13 1812.32   15.50
   0   1 -13 1813.63   15.70
   0  -1  13 1728.95   15.26
   0  -1  13 1736.19   15.86
   0  -1 -13 1677.58   15.54
   0  -1 -13 1760.34   15.35
   0   1 -13 1645.93   15.15
   0  -1  13 1678.54   16.16
   0  -1  14 1079.06   11.19
   0  -1  14 1044.63   10.58
   0  -1 -14  950.35   10.34
   0   1  14  938.90   12.17
   0   1  14 1019.11   10.01
   0  -1 -14 1058.61   10.87
   0   1 -14 1035.03   10.64
   0   1 -14 1033.67   10.55
   0  -1  14  967.01   11.15
   0   1  14  973.15   10.46
   0   1 -15  739.72    8.92
   0   1  15  779.72   10.67
   0  -1  15  807.67    9.52
   0  -1 -15  719.88    8.98
   0  -1  15  786.51    9.76
   0   1  15  800.46    8.60
   0  -1 -15  728.19    8.83
   0   1 -15  810.75    9.15
   0  -1  16 2485.00   23.16
   0   1  16 2766.44   24.95
   0   1 -16 2410.96   22.00
   0  -1 -16 2494.67   22.25
   0   1  16 2651.67   21.56
   0  -1  16 2782.64   23.29
   0  -1 -16 2567.66   22.23
   0  -1 -17 3433.99   29.32
   0  -1  17 3614.46   30.08
   0   1  17 3553.51   31.61
   0   1  17 3610.50   28.40
   0   1 -17 3454.89   29.30
   0  -1  17 3513.80   30.46
   0  -1 -17 3624.88   29.56
   0  -1 -18  405.77    6.75
   0  -1 -18  403.19    6.52
   0   1 -18  395.92    6.69
   0  -1 -18  410.33    6.78
   0  -1  18  417.24    7.14
   0   1  19    1.66    0.50
   0  -1  19    0.08    0.59
   0   1 -19    2.25    0.51
   0  -1 -19    0.51    0.63
   0  -1 -20   55.23    2.51
   0  -1 -20   65.55    3.54
   0  -1  20   60.62    2.97
   0  -1 -21  521.42    8.44
   0  -1  21  537.71    9.86
   0  -1 -21  502.88   10.19
   0  -1  21  523.37    9.42
   0  -1  22  217.61    5.89
   0  -1 -22  217.17    5.37
   0  -1 -23  437.17    8.14
   0  -1  23  406.20    8.73
   0  -1 -24  194.16    5.43
   0  -1  24  182.63    5.70
   0  -1 -25  264.80    6.61
   0  -1 -26  134.04    4.79
   0  -1 -27  107.68    4.39
   0   1 -27  118.13    5.41
   0  -1 -28    2.11    1.40
   0   1 -28    1.72    1.51
   0   1 -29  751.80   14.05
   0   1 -30  306.36    8.61
   0   1 -31   21.89    2.55
   0  -1 -32  152.15    5.23
   0   1 -32  158.49    5.39
   0   1 -32  145.28    5.61
   0   1 -33  212.44    6.50
   0  -1  33  230.42    6.53
   0  -1 -33  217.10    6.08
   0   1 -33  226.00    6.23
   0  -1 -34    2.09    1.24
   0   1 -34    1.70    1.23
   0  -1  34    2.00    1.30
   0   1 -34    1.64    1.33
   0  -1 -35    2.62    1.21
   0   1 -35    1.28    1.16
   0  -1  35    2.42    1.19
   0   1 -35    2.35    1.14
   0   1 -36  235.80    5.76
   0   1 -36  239.29    5.58
   0  -1 -36  224.23    5.78
   0  -1 -36  241.44    5.48
   0   1 -37   23.38    1.69
   0   1 -37   28.82    1.87
   0  -1  37   27.92    1.97
   0  -1 -37   28.01    1.83
   0  -1 -37   26.59    2.01
   0  -1  38  190.80    4.34
   0  -1 -38  186.81    4.55
   0   1  38  188.72    4.31
   0  -1 -38  184.89    4.05
   0   1 -38  189.16    4.12
   0  -1 -39  254.39    4.71
   0  -1  39  246.61    4.54
   0   1 -39  248.72    4.27
   0  -1 -39  258.84    4.32
   0   2  -2  526.81    6.26
   0   2  -2  527.49    4.81
   0   2   2  510.30    6.31
   0   2  -4  226.44    3.68
   0   2  -4  230.09    2.38
   0   2  -5  223.17    2.59
   0   2  -5  218.22    3.70
   0   2  -6   59.37    1.30
   0  -2  -6   58.82    1.69
   0   2  -6   64.25    1.39
   0   2  -6   59.20    1.90
   0   2  -7 1833.54   13.57
   0   2  -7 1751.06   15.54
   0  -2  -7 1848.67   15.31
   0   2  -7 1736.40   13.99
   0   2  -8 3824.36   31.56
   0   2  -8 4262.94   32.16
   0  -2   8 3976.35   32.26
   0  -2  -8 4240.43   31.86
   0   2  -8 4522.75   30.72
   0   2  -9   80.45    2.35
   0  -2   9   75.16    2.39
   0  -2  -9   88.06    1.94
   0   2  -9   90.70    1.99
   0  -2  -9   80.32    2.28
   0   2  -9   83.46    2.31
   0  -2 -10  580.40    6.24
   0   2 -10  578.66    7.06
   0  -2 -10  588.68    7.09
   0   2 -10  565.70    6.25
   0  -2 -11  579.78    7.26
   0   2 -11  587.53    7.25
   0   2 -11  517.81    7.27
   0   2 -11  594.39    6.59
   0  -2  11  486.91    7.29
   0  -2 -11  546.42    6.34
   0  -2  12   55.04    2.29
   0   2 -12   63.64    2.22
   0   2 -12   55.73    2.40
   0  -2  12   56.91    2.31
   0   2 -12   68.68    2.04
   0   2  12   62.47    1.76
   0  -2 -12   63.58    1.97
   0  -2 -12   65.57    2.24
   0  -2  13 2850.80   25.46
   0   2 -13 3056.46   24.75
   0  -2  13 3318.19   26.07
   0   2 -13 2999.21   23.83
   0   2  13 3006.75   22.89
   0  -2 -13 2351.30   23.78
   0   2 -13 2646.50   26.16
   0  -2 -13 3039.96   23.69
   0  -2 -14  227.91    4.18
   0   2  14  217.07    3.72
   0   2 -14  220.62    4.19
   0  -2  14  223.49    5.02
   0   2 -14  220.03    4.55
   0  -2  15 2045.22   23.09
   0  -2  15 2175.61   21.49
   0   2 -15 2401.06   20.83
   0  -2 -15 2294.49   22.54
   0  -2 -15 2260.57   19.85
   0   2  15 2221.03   18.85
   0   2 -15 2245.48   19.99
   0  -2  15 2268.38   21.75
   0  -2 -16  326.49    6.21
   0  -2  16  367.70    7.03
   0   2 -16  347.82    5.97
   0   2  16  418.63    5.72
   0  -2  16  407.11    7.29
   0  -2 -16  378.97    6.10
   0  -2  16  370.41    7.89
   0   2 -16  361.26    6.34
   0  -2 -16  351.76    7.36
   0   2 -17    7.43    0.89
   0  -2 -17    7.36    0.90
   0   2  17   11.37    0.93
   0  -2 -17   12.08    1.57
   0  -2  17    9.02    1.38
   0  -2  18    9.12    1.45
   0  -2 -18    9.38    1.52
   0  -2 -19  905.49   13.45
   0  -2  19  787.35   12.95
   0  -2  20  392.63    8.67
   0  -2 -20  397.28    8.80
   0  -2 -21 1486.81   19.41
   0  -2  21 1419.60   18.70
   0  -2 -22  234.50    7.16
   0  -2  22  232.88    6.74
   0  -2  23  667.36   12.52
   0  -2  23  635.99   11.69
   0  -2 -23  674.39   12.84
   0  -2  24   14.43    1.99
   0  -2  24   16.54    2.00
   0  -2 -24   13.30    1.79
   0  -2  25   11.07    1.76
   0  -2 -25   10.77    2.18
   0  -2 -25    9.38    1.73
   0  -2  25    8.81    1.55
   0  -2  26    3.27    1.32
   0  -2 -26    1.96    1.73
   0  -2  26    1.54    1.15
   0  -2 -26    3.37    1.46
   0  -2  26    1.54    0.97
   0   2 -27    1.45    1.27
   0  -2 -27    0.48    1.30
   0  -2  27    0.70    0.92
   0  -2  27    0.47    0.99
   0  -2  27    0.56    1.18
   0  -2 -27    0.61    1.76
   0  -2 -28  581.13   10.63
   0  -2  28  551.36   10.88
   0   2 -28  555.59   11.37
   0  -2  28  557.03   10.91
   0  -2 -29  297.42    8.70
   0  -2  29  276.94    7.24
   0  -2 -29  309.68    7.61
   0  -2  29  305.42    7.91
   0   2 -29  296.32    8.16
   0  -2  30    1.24    0.90
   0  -2  30    0.95    1.25
   0   2 -30    0.40    1.21
   0  -2 -30    1.98    1.86
   0  -2 -30    1.25    1.47
   0   2 -31   15.56    2.02
   0  -2 -31   16.74    1.87
   0  -2 -31   17.03    2.57
   0   2 -31   17.80    1.93
   0  -2  31   15.90    2.17
   0  -2 -32  183.42    6.39
   0  -2  32  185.29    5.94
   0   2 -32  180.85    5.77
   0   2 -32  184.59    5.37
   0  -2 -32  188.90    5.35
   0   2 -33   54.70    2.86
   0  -2  33   51.59    3.19
   0  -2 -33   52.55    3.38
   0   2 -33   53.59    3.06
   0  -2 -33   58.75    2.96
   0  -2  34   27.64    2.31
   0  -2 -34   29.34    2.51
   0  -2 -34   26.75    1.97
   0   2 -34   26.20    1.99
   0   2 -34   23.82    2.01
   0  -2 -35  388.24    7.95
   0  -2  35  395.89    7.78
   0  -2 -35  369.29    6.63
   0   2 -35  353.82    6.81
   0   2 -35  369.02    6.69
   0  -2 -36  277.96    6.33
   0  -2  36  287.80    6.16
   0   2 -37   30.65    1.61
   0  -2 -37   32.15    2.06
   0   2  38    7.33    0.93
   0   2 -38    5.26    0.67
   0  -2 -38    6.69    1.00
   0   3   0    1.07    0.44
   0   3   0    0.74    0.54
   0   3  -1  602.76    7.85
   0   3   1  585.46    7.82
   0   3  -2  115.96    3.11
   0   3   2  111.36    3.16
   0   3  -2  119.99    2.77
   0   3  -3 1354.19   11.08
   0   3  -3 1417.89   12.99
   0  -3   3 1349.42   14.38
   0   3   3 1342.63   14.00
   0   3  -3 1397.64   13.75
   0   3  -4    9.58    0.89
   0   3  -4    9.27    0.99
   0   3   4    8.99    1.04
   0  -3   4    7.73    1.01
   0   3  -4    8.00    0.51
   0  -3   5 4951.24   41.15
   0   3   5 5046.46   41.11
   0   3  -5 5297.33   39.77
   0   3  -5 5454.09   40.74
   0   3  -5 5283.51   36.89
   0  -3  -5 5308.62   39.32
   0   3  -6 1538.87   11.90
   0   3  -6 1458.08   11.77
   0   3  -6 1550.38   15.25
   0  -3   6 1504.65   15.66
   0  -3  -6 1598.67   11.90
   0   3   6 1565.09   16.05
   0   3  -6 1612.11   14.56
   0  -3  -6 1679.34   14.62
   0   3  -7    1.97    0.33
   0   3  -7    2.15    0.69
   0  -3  -7    1.86    0.52
   0   3  -7    1.35    0.24
   0   3  -7    2.60    0.67
   0  -3   7    1.66    0.70
   0  -3   8 3427.40   30.25
   0   3  -8 3542.06   25.72
   0   3  -8 3750.33   30.32
   0   3  -8 3862.87   29.59
   0   3  -8 3523.93   26.59
   0   3  -8 3661.13   26.63
   0  -3  -8 3805.50   29.18
   0   3  -9  166.05    2.81
   0  -3  -9  170.70    3.81
   0   3  -9  164.26    2.22
   0   3  -9  165.19    2.41
   0   3  -9  165.23    4.01
   0  -3  10  437.44    7.41
   0  -3 -10  515.13    5.83
   0   3 -10  480.24    7.37
   0  -3 -10  505.24    7.18
   0   3 -10  465.03    5.65
   0   3 -11  200.32    4.66
   0   3 -11  204.43    3.57
   0  -3 -11  201.68    4.44
   0   3 -12   18.16    1.08
   0  -3  12   15.67    1.44
   0  -3  12   17.52    1.87
   0  -3 -12   19.07    1.10
   0  -3 -12   18.97    1.39
   0   3 -12   15.25    1.39
   0  -3 -13  100.59    3.23
   0  -3 -13  100.57    2.62
   0   3 -13   80.86    3.21
   0  -3 -13   97.38    3.50
   0   3 -13   88.83    2.53
   0  -3  13   98.09    4.22
   0   3 -13   92.61    3.16
   0  -3  13   81.41    3.26
   0  -3 -14  802.89   11.32
   0  -3 -14  717.97   10.54
   0  -3 -14  831.41    9.33
   0   3  14  840.19    8.84
   0  -3  14  815.83   13.29
   0   3 -14  765.14    9.33
   0  -3  14  757.81   11.11
   0  -3  15  146.60    4.60
   0   3 -15  142.61    3.58
   0  -3  15  153.71    5.56
   0  -3 -15  151.29    4.76
   0  -3 -15  150.29    4.68
   0  -3  16 1755.33   19.74
   0  -3  16 1765.28   22.06
   0  -3 -16 1707.12   19.71
   0  -3 -16 1763.40   19.15
   0  -3 -17  390.98    6.86
   0  -3  17  384.53    9.12
   0  -3 -17  364.98    7.96
   0  -3 -18  384.70    7.12
   0  -3  18  400.53    9.53
   0  -3 -18  373.29    8.31
   0  -3  18  388.26    8.26
   0  -3  19  205.92    6.90
   0  -3 -19  202.47    6.21
   0  -3 -19  206.09    5.20
   0  -3  19  198.62    5.93
   0  -3  20   -0.06    1.13
   0  -3  20    0.10    0.95
   0  -3 -20    0.15    0.94
   0  -3 -20    0.05    1.13
   0  -3  21 1023.01   15.25
   0  -3  21 1048.32   16.78
   0  -3 -21 1072.39   14.09
   0  -3 -21 1099.28   16.31
   0  -3 -22   13.47    1.75
   0  -3  22    9.88    1.85
   0  -3 -22    9.25    1.96
   0  -3  22   12.17    1.84
   0  -3  23  988.24   16.35
   0  -3  23  985.71   15.26
   0  -3  23 1014.47   17.09
   0  -3 -23 1020.16   16.18
   0  -3 -24 1225.98   18.53
   0  -3  24 1260.10   17.71
   0  -3  24 1264.11   19.68
   0  -3  24 1308.81   19.08
   0  -3 -24 1304.21   16.71
   0  -3  25   41.66    3.19
   0  -3 -25   37.84    3.34
   0  -3 -25   37.01    2.82
   0  -3  25   41.20    3.40
   0  -3  25   40.93    3.01
   0  -3  26    9.54    1.74
   0  -3  26    8.86    1.83
   0  -3  26    8.95    1.71
   0  -3 -26   10.17    2.12
   0  -3  27   91.16    4.77
   0  -3 -27   86.53    3.66
   0  -3  27   80.95    4.12
   0   3 -27   77.17    3.88
   0   3 -27   79.86    3.52
   0  -3  27   85.23    4.33
   0  -3 -27   88.39    4.71
   0  -3 -28  187.11    6.68
   0   3 -28  170.73    5.07
   0  -3  28  189.13    6.63
   0  -3 -28  191.74    5.33
   0   3 -28  171.27    5.68
   0  -3  28  174.74    6.01
   0  -3  28  175.52    5.96
   0  -3 -29   27.34    2.09
   0  -3  29   26.43    2.49
   0  -3 -29   20.81    2.64
   0   3 -29   23.86    2.17
   0  -3  29   24.86    2.47
   0   3 -29   25.32    2.03
   0   3 -30   63.00    2.97
   0  -3  30   62.18    3.59
   0   3 -30   60.14    3.13
   0  -3  30   65.21    3.55
   0  -3 -30   61.18    3.86
   0   3 -31    7.64    1.23
   0  -3  31    4.77    1.54
   0  -3 -31    9.16    1.80
   0   3 -31    5.02    1.15
   0  -3  31    6.15    1.27
   0   3 -32   76.09    2.97
   0  -3  32   81.49    3.87
   0  -3 -32   76.71    3.97
   0   3 -32   75.05    3.05
   0  -3  32   73.57    3.18
   0  -3 -33  110.97    4.48
   0  -3  33  121.01    4.40
   0   3 -33  108.07    3.33
   0  -3 -34  114.53    4.28
   0   3 -34  102.56    3.01
   0  -3  34  110.42    4.02
   0  -3 -35   16.73    1.72
   0   3 -35   13.10    1.03
   0  -3 -36   90.85    3.18
   0  -3  37   13.62    1.17
   0  -4   0   15.12    1.63
   0   4   0   12.70    1.07
   0  -4  -1  348.32    7.50
   0   4  -1  390.43    6.05
   0   4   1  375.76    5.90
   0   4  -1  354.51    6.72
   0   4   1  344.20    6.63
   0   4   2  391.47    7.19
   0  -4   2  411.08    8.13
   0  -4  -2  402.55    8.10
   0   4  -2  413.96    6.38
   0   4  -2  417.53    7.26
   0   4   3  983.46   10.97
   0   4   3  978.00   12.50
   0  -4   3  983.98   13.47
   0   4  -3  982.38   12.28
   0  -4  -3  963.11   13.40
   0  -4   4  473.26    8.73
   0  -4  -4  458.92    8.58
   0   4  -4  464.25    7.72
   0   4   4  460.11    8.13
   0  -4   5   66.23    3.13
   0   4   5   67.22    2.99
   0   4  -5   70.60    2.86
   0   4  -5   74.91    2.66
   0  -4  -5   64.26    3.10
   0  -4  -6    0.53    0.70
   0   4  -6    1.53    0.70
   0  -4   6    1.72    0.77
   0  -4   6    1.35    0.81
   0   4   6    1.16    0.64
   0  -4   6    0.70    0.67
   0   4  -6    0.98    0.54
   0   4   7  123.43    4.10
   0  -4   7  118.42    4.16
   0   4  -7  135.83    3.74
   0  -4  -7  124.64    3.78
   0  -4   7  132.41    4.22
   0   4  -7  135.49    4.13
   0  -4   8   68.68    3.13
   0  -4   8   66.62    3.17
   0   4   8   67.40    3.15
   0   4  -8   71.79    3.07
   0  -4  -8   75.19    2.96
   0  -4  -8   71.10    2.92
   0  -4   9  938.76   14.80
   0  -4  -9  979.31   12.52
   0  -4 -10    2.36    0.89
   0  -4  10    2.70    1.16
   0  -4  10    2.48    0.93
   0  -4 -11  147.86    4.33
   0  -4  11  148.30    5.63
   0  -4 -11  150.13    4.33
   0  -4  12   96.27    4.58
   0  -4 -12   86.47    3.43
   0  -4 -12   98.71    3.56
   0  -4 -13 1201.70   14.92
   0  -4  13 1180.67   15.54
   0  -4 -14  466.21    8.60
   0  -4  14  477.38    9.26
   0  -4  15  238.30    6.52
   0  -4 -15  241.91    5.35
   0  -4 -15  228.69    6.06
   0  -4  16  892.45   13.81
   0  -4 -16  922.98   11.69
   0  -4 -17    1.10    0.89
   0  -4 -17    0.49    0.93
   0  -4  17    1.81    1.45
   0  -4  17    0.11    0.93
   0  -4  18   72.57    3.82
   0  -4 -18   73.70    3.19
   0  -4  18   75.30    4.52
   0  -4 -19    2.52    1.24
   0  -4 -19    3.42    1.14
   0  -4  19    3.85    1.37
   0  -4  19    4.19    1.72
   0  -4  20  269.86    7.62
   0  -4 -20  258.38    6.31
   0  -4  20  270.17    8.64
   0  -4 -20  250.16    6.86
   0  -4  21  634.70   12.30
   0  -4 -21  614.56   11.55
   0  -4  22  761.86   14.85
   0  -4 -22  737.61   11.70
   0  -4  22  761.43   13.41
   0  -4  23 1184.13   17.54
   0  -4 -23 1154.27   17.44
   0  -4  23 1218.37   19.94
   0  -4 -23 1181.02   15.75
   0  -4 -24 1013.48   14.36
   0  -4 -24  965.58   15.48
   0  -4  24 1000.69   17.01
   0  -4  24  929.57   15.37
   0  -4  24  970.55   17.45
   0  -4  25   24.75    2.97
   0  -4  25   25.85    2.67
   0  -4  25   26.77    2.84
   0  -4 -25   28.72    2.82
   0  -4 -25   27.13    2.52
   0  -4  26   52.31    3.87
   0  -4 -26   46.96    3.10
   0  -4 -26   45.73    3.37
   0  -4  26   52.73    3.49
   0  -4  26   50.71    3.60
   0  -4  27    8.83    1.84
   0  -4  27    6.90    1.83
   0  -4 -27    7.62    1.76
   0  -4 -27    7.53    1.85
   0  -4  27    8.74    1.79
   0  -4  28  530.89   10.44
   0  -4  28  579.72   11.79
   0  -4  28  517.68   10.75
   0  -4 -28  532.15   10.84
   0  -4 -28  563.29   10.05
   0  -4  29   24.16    2.26
   0  -4  29   28.11    2.61
   0  -4 -29   25.83    2.30
   0  -4 -29   27.75    2.59
   0  -4 -30   30.98    2.58
   0  -4 -30   31.61    2.39
   0  -4  30   34.17    2.64
   0  -4 -31  111.64    4.34
   0  -4  31  112.23    4.24
   0  -4 -32   82.27    3.50
   0  -4  32   76.29    3.15
   0  -4  33  323.27    5.85
   0  -4  34    2.80    0.79
   0  -4  35   73.40    2.27
   0  -5   0    0.28    0.62
   0  -5   0    0.65    0.73
   0  -5   1  104.68    3.86
   0  -5  -1  105.81    3.91
   0  -5   1  105.56    3.99
   0  -5   2  651.67   10.47
   0  -5   2  635.80   10.69
   0  -5  -2  673.80   10.62
   0  -5   3    6.65    1.22
   0  -5   3    8.88    1.31
   0  -5   4   12.13    1.60
   0  -5   4   10.37    1.42
   0  -5  -4   10.51    1.38
   0  -5  -5 3784.19   34.26
   0  -5   5 3767.71   34.96
   0  -5  -5 3927.83   34.27
   0  -5   5 3970.62   35.35
   0  -5   6   25.43    2.13
   0  -5   6   24.39    2.52
   0  -5  -6   22.52    1.91
   0  -5   6   26.72    2.20
   0  -5  -6   23.48    2.03
   0  -5  -7 1011.40   13.63
   0  -5   7  986.67   16.28
   0  -5   7 1024.99   14.50
   0  -5  -7 1032.03   13.63
   0  -5   8  454.89    9.07
   0  -5   8  438.82   10.40
   0  -5   8  455.71    9.10
   0  -5  -8  448.55    8.54
   0  -5  -8  458.12    8.64
   0  -5   9  172.63    5.56
   0  -5  -9  176.39    5.29
   0  -5   9  172.64    5.58
   0  -5   9  178.92    6.58
   0  -5  -9  168.53    5.14
   0  -5  10  216.83    6.51
   0  -5 -10  206.34    5.77
   0  -5  11  150.73    6.19
   0  -5 -11  158.39    5.07
   0  -5  11  162.01    5.48
   0  -5 -12  242.50    6.37
   0  -5  12  219.53    7.65
   0  -5  12  223.39    6.61
   0  -5  13   68.85    3.70
   0  -5  13   74.43    4.57
   0  -5 -14  771.10   10.41
   0  -5  14  731.72   14.70
   0  -5  15  177.67    7.22
   0  -5 -15  181.93    4.76
   0  -5 -16  112.88    3.80
   0  -5 -17    2.71    1.08
   0  -5 -18   76.43    3.30
   0  -5  19   53.80    4.35
   0  -5 -19   59.41    3.02
   0  -5 -20   69.10    3.78
   0  -5 -20   69.51    3.29
   0  -5  20   75.99    4.86
   0  -5 -21    5.86    1.51
   0  -5 -21    3.59    1.30
   0  -5  21    4.44    1.93
   0  -5 -22  236.54    6.07
   0  -5  22  255.94    8.56
   0  -5  23    4.71    1.94
   0  -5 -23    4.90    1.42
   0  -5 -24    4.53    1.40
   0  -5  24    4.74    1.92
   0  -5  24    4.37    1.90
   0  -5  25  465.86   10.80
   0  -5  25  458.82   11.04
   0  -5 -25  454.80    8.51
   0  -5  26  112.63    5.22
   0  -5 -26  105.69    3.93
   0  -5  26  107.72    5.03
   0  -5  27    0.18    1.03
   0  -5  27    0.49    1.27
   0  -5 -27    0.07    1.07
   0  -5  27    0.28    1.14
   0  -5  28   14.08    2.00
   0  -5  28   13.16    1.83
   0  -5 -28   13.53    1.67
   0  -5  28   12.43    1.63
   0  -5  29  130.85    4.77
   0  -5  29  125.44    4.16
   0  -5 -29  113.00    3.73
   0  -5  29  123.76    4.45
   0  -5  30  357.39    6.79
   0  -5  30  384.71    7.71
   0  -5  31   96.34    3.43
   0  -5  31   92.89    3.08
   0  -5  32   60.42    2.23
   0  -5  32   56.40    2.29
   0  -5  33   12.26    0.90
   0  -6   0  770.21   13.65
   0  -6   1    3.17    1.32
   0  -6   1    4.54    1.35
   0  -6   2  136.77    5.64
   0  -6  -2  126.10    4.65
   0  -6   2  121.75    4.50
   0  -6   2  132.70    5.00
   0  -6   3    8.84    1.67
   0  -6  -3    7.57    1.59
   0  -6   3    9.12    1.82
   0  -6   3    7.35    1.38
   0  -6  -3    7.61    1.58
   0  -6   4 1281.09   19.45
   0  -6   4 1334.70   17.77
   0  -6  -4 1311.94   17.00
   0  -6  -4 1316.14   16.88
   0  -6   4 1293.35   16.80
   0  -6   5  495.10   10.04
   0  -6   5  503.80    9.63
   0  -6  -5  470.74    9.34
   0  -6   5  494.18   11.37
   0  -6  -5  488.42    9.56
   0  -6  -6 2047.36   22.84
   0  -6   6 2128.61   23.23
   0  -6  -6 2066.25   22.89
   0  -6   6 2141.53   23.84
   0  -6   7  672.19   13.81
   0  -6  -7  676.96   11.63
   0  -6  -7  674.30   11.46
   0  -6   7  676.55   12.02
   0  -6  -8    3.30    1.46
   0  -6   8    3.46    1.34
   0  -6  -8    3.08    1.40
   0  -6   8    2.56    1.58
   0  -6  -9  318.86    7.79
   0  -6   9  300.64    7.94
   0  -6  -9  319.16    7.73
   0  -6   9  324.38    9.39
   0  -6  10   91.31    4.38
   0  -6  10   89.31    4.98
   0  -6 -10   83.90    4.05
   0  -6 -10   80.41    3.97
   0  -6 -11   78.38    4.08
   0  -6  11   88.48    4.29
   0  -6 -11   82.36    2.95
   0  -6 -11   84.47    4.07
   0  -6  11   87.64    5.00
   0  -6 -12  166.00    6.08
   0  -6  12  188.64    7.38
   0  -6  12  186.95    6.25
   0  -6 -12  183.64    4.51
   0  -6 -13  190.14    4.69
   0  -6  13  196.84    6.48
   0  -6  13  185.03    7.36
   0  -6  14    2.02    1.39
   0  -6  14    1.61    1.62
   0  -6 -14    1.11    0.83
   0  -6  15   32.68    2.84
   0  -6 -15   31.90    2.05
   0  -6  15   33.32    3.52
   0  -6  16  722.48   12.94
   0  -6  16  739.30   15.18
   0  -6  17   35.09    2.92
   0  -6 -17   36.87    2.27
   0  -6  17   44.62    3.93
   0  -6  17   34.81    3.34
   0  -6  18    9.55    2.24
   0  -6 -18    8.99    1.33
   0  -6  18    9.70    1.87
   0  -6  18    9.83    2.38
   0  -6  19    0.91    1.34
   0  -6  19    0.15    1.75
   0  -6  19    1.24    1.82
   0  -6 -19    0.56    0.96
   0  -6  20  566.77   11.00
   0  -6  20  582.14   12.57
   0  -6 -20  561.44    9.05
   0  -6 -21  380.56    7.19
   0  -6  21  371.02    9.95
   0  -6  21  389.30    8.75
   0  -6  22   28.98    2.93
   0  -6  22   25.78    2.40
   0  -6 -22   27.02    2.03
   0  -6 -23  896.50   11.66
   0  -6  23  904.02   15.29
   0  -6  23  869.72   13.15
   0  -6  24  722.16   11.19
   0  -6 -24  685.62    9.81
   0  -6  24  697.60   12.77
   0  -6  25  389.32    7.59
   0  -6  25  401.28    9.08
   0  -6  26  822.13   11.29
   0  -6  26  910.88   13.43
   0  -6  27   68.51    2.75
   0  -6  27   68.70    3.41
   0  -6  27   70.89    3.33
   0  -6  28    8.27    1.04
   0  -6  28    9.47    1.42
   0  -6  29   69.56    2.28
   0  -6  29   72.87    2.88
   0  -6  30    4.12    0.80
   0  -6  30    3.26    0.53
   0  -7   0    0.70    1.27
   0  -7   0    0.68    1.29
   0  -7  -1  223.57    6.45
   0  -7   1  224.03    6.43
   0  -7   1  225.10    6.90
   0  -7  -1  229.94    6.62
   0  -7   1  234.21    6.73
   0  -7  -2    0.72    1.32
   0  -7   2    0.12    0.99
   0  -7  -2    0.70    1.31
   0  -7  -3    3.65    1.55
   0  -7  -3    4.50    1.50
   0  -7   3    3.43    1.31
   0  -7  -4  137.32    5.12
   0  -7   4  140.79    5.81
   0  -7  -4  142.62    5.21
   0  -7  -5  145.11    5.29
   0  -7   5  159.47    6.21
   0  -7   5  150.51    5.50
   0  -7  -5  151.59    5.35
   0  -7  -6  212.48    6.31
   0  -7   6  224.02    7.44
   0  -7  -6  214.53    6.34
   0  -7   6  218.85    6.55
   0  -7   7   81.79    4.60
   0  -7  -7   84.03    4.02
   0  -7   7   86.23    4.14
   0  -7  -7   91.10    4.24
   0  -7   7   78.47    3.96
   0  -7   8  318.83    9.24
   0  -7  -8  331.21    7.86
   0  -7   8  320.86    8.22
   0  -7  -8  334.44    8.00
   0  -7   8  327.28    8.16
   0  -7   9  181.05    6.19
   0  -7   9  170.15    5.85
   0  -7  -9  180.01    5.74
   0  -7  -9  176.47    5.89
   0  -7   9  182.60    6.88
   0  -7  10  102.74    5.21
   0  -7 -10  104.41    4.90
   0  -7  10   95.07    4.62
   0  -7  10  104.76    4.55
   0  -7  11    6.36    1.62
   0  -7  11    6.53    1.95
   0  -7 -11    1.15    3.16
   0  -7  11    2.74    1.32
   0  -7 -12  117.55    4.78
   0  -7  12  122.61    5.69
   0  -7 -12  121.39    6.12
   0  -7  12  120.50    4.83
   0  -7  12  117.61    5.14
   0  -7  12  117.59    4.86
   0  -7 -13   17.46    2.00
   0  -7  13   16.15    1.94
   0  -7  13   20.12    2.22
   0  -7 -13   20.50    4.81
   0  -7  13   18.56    2.30
   0  -7  13   19.11    2.61
   0  -7  14  164.29    5.53
   0  -7  14  161.58    6.44
   0  -7 -14  159.29    7.39
   0  -7  14  148.59    5.83
   0  -7  14  151.69    5.11
   0  -7  15   51.28    2.86
   0  -7  15   52.28    3.17
   0  -7  15   52.69    3.83
   0  -7 -15   43.85    6.49
   0  -7  15   50.05    3.44
   0  -7  16   18.85    2.08
   0  -7  16   21.62    2.37
   0  -7  16   23.09    2.68
   0  -7  17   19.64    2.26
   0  -7  17   19.51    2.50
   0  -7  17   19.79    2.01
   0  -7  18    0.19    1.26
   0  -7  18    0.34    1.26
   0  -7  18    0.70    1.01
   0  -7  19    3.84    1.58
   0  -7  19    5.46    1.29
   0  -7  19    6.37    1.52
   0  -7  20   20.25    2.29
   0  -7  20   20.62    2.18
   0  -7  20   18.68    1.76
   0  -7  21   48.22    3.13
   0  -7  21   46.38    2.49
   0  -7  21   47.49    2.95
   0  -7  22    4.50    1.30
   0  -7  22    3.71    1.34
   0  -7  22    3.28    0.96
   0  -7  23   74.26    3.34
   0  -7  23   73.24    2.68
   0  -7  24  107.38    2.99
   0  -7  24  116.02    3.89
   0  -7  25  240.48    5.43
   0  -7  25  250.68    5.37
   0  -7  26   17.14    0.96
   0  -7  26   24.69    1.56
   0  -8   0    6.68    1.52
   0  -8   0    5.70    1.53
   0  -8  -1  128.72    4.50
   0  -8   1  135.39    4.68
   0  -8   1  123.23    4.43
   0  -8  -1  133.07    4.65
   0  -8  -2    4.05    1.40
   0  -8  -2    4.00    1.43
   0  -8   2    3.43    1.30
   0  -8   2    3.44    1.40
   0  -8  -3   31.88    2.48
   0  -8  -3   33.12    2.49
   0  -8   3   31.52    2.41
   0  -8   3   29.78    2.37
   0  -8   4   97.33    3.92
   0  -8   4  100.18    3.97
   0  -8  -4   99.39    4.09
   0  -8  -4  100.14    4.02
   0  -8  -5    4.30    1.59
   0  -8  -5    5.52    1.58
   0  -8  -5    5.32    1.45
   0  -8   5    6.41    1.73
   0  -8   5    4.50    1.39
   0  -8   5    5.54    1.44
   0  -8   6    2.75    1.24
   0  -8  -6    2.70    1.77
   0  -8  -6    2.96    1.48
   0  -8  -6    3.71    1.34
   0  -8   6    4.08    1.57
   0  -8   6    3.28    1.35
   0  -8  -7   27.23    2.54
   0  -8   7   27.99    2.27
   0  -8  -7   31.50    3.07
   0  -8   7   30.25    2.63
   0  -8   7   29.27    2.33
   0  -8   8  109.94    4.09
   0  -8  -8  118.55    4.71
   0  -8   8  110.97    4.54
   0  -8  -8  120.55    5.04
   0  -8   8  116.54    4.22
   0  -8  -9  476.62    9.07
   0  -8  -9  454.38    9.13
   0  -8   9  453.67    9.06
   0  -8  10  126.71    4.71
   0  -8 -10  124.75    4.51
   0  -8  10  117.04    4.39
   0  -8 -10  126.43    5.59
   0  -8  11   37.13    2.62
   0  -8 -11   37.23    4.58
   0  -8  11   35.30    2.43
   0  -8  12   69.91    3.12
   0  -8  12   64.93    3.38
   0  -8 -12   66.51    5.25
   0  -8  13  111.28    4.28
   0  -8  13  103.19    3.55
   0  -8  14    1.28    0.69
   0  -8  14    0.79    0.93
   0  -8  15   23.30    2.01
   0  -8  16    1.23    0.89
   0  -8  17   14.17    1.58
   0  -8  18   91.41    3.40
   0  -8  19  640.40    9.25
   0  -8  20    1.10    0.52
   0  -8  20    1.43    0.73
   0  -8  21  140.64    3.45
   0  -9   0    0.32    1.23
   0  -9   0   -0.59    1.07
   0  -9   1  152.71    3.83
   0  -9  -1  155.22    4.01
   0  -9  -1  152.80    4.54
   0  -9  -2  142.63    4.41
   0  -9   2  144.53    3.70
   0  -9   2  136.72    3.54
   0  -9  -2  148.04    3.98
   0  -9  -3  159.11    4.59
   0  -9  -3  154.76    4.18
   0  -9   3  153.42    3.78
   0  -9   3  151.01    3.71
   0  -9   3  160.51    4.59
   0  -9   4   44.67    2.04
   0  -9  -4   47.39    2.90
   0  -9  -4   44.55    2.45
   0  -9   4   42.58    2.01
   0  -9   4   43.93    2.45
   0  -9  -5    0.49    0.84
   0  -9  -5    2.45    2.30
   0  -9   5    0.75    0.72
   0  -9   5    0.94    0.74
   0  -9   5    1.07    0.90
   0  -9   6   18.90    1.38
   0  -9   6   20.62    1.39
   0  -9   6   19.93    1.61
   0  -9  -6   19.12    1.60
   0  -9  -6   19.50    2.84
   0  -9   7    7.22    1.08
   0  -9   7    8.60    1.05
   0  -9   7    8.35    0.97
   0  -9  -7    7.14    1.08
   0  -9  -7    8.02    2.75
   0  -9   8  132.21    3.50
   0  -9   8  135.64    3.31
   0  -9   8  138.93    3.18
   0  -9   9    2.77    0.65
   0  -9   9    2.68    0.73
   0  -9   9    1.62    0.60
   0  -9  10    1.77    0.56
   0  -9  10    1.62    0.64
   0  -9  11   42.65    1.67
   0  -9  11   38.82    1.45
   0  -9  12   15.02    1.00
   0  -9  12   14.11    0.84
   1   0   0    0.10    0.41
   1   0   1  256.24    3.24
   1   0  -1  246.83    3.27
   1   0   3   25.82    1.16
  -1   0   3   24.39    0.97
   1   0   3   26.27    0.65
  -1   0   3   26.56    0.66
   1   0   4 1794.41   13.13
  -1   0   4 1751.11   13.58
  -1   0   4 1723.06   14.00
  -1   0   4 1768.64   13.17
   1   0   6   83.62    1.72
  -1   0   6   74.55    1.57
   1   0  -6   75.36    1.31
  -1   0   6   68.86    1.69
  -1   0   6   80.28    1.73
  -1   0   8  834.17    8.73
   1   0  -8  825.06    6.97
  -1   0   9    1.92    0.46
   1   0  -9    0.59    0.27
  -1   0   9    0.41    0.36
  -1   0   9    1.28    0.55
   1   0   9    0.89    0.46
  -1   0 -10 2323.19   19.32
  -1   0  10 2616.99   19.49
   1   0 -10 2364.47   19.10
  -1   0  10 2520.66   19.44
  -1   0  10 2460.63   20.43
   1   0 -10 2332.92   18.11
   1   0  10 2519.14   19.42
  -1   0  11   50.48    1.73
   1   0 -11   52.19    1.38
  -1   0 -11   48.26    1.69
  -1   0  11   55.93    1.83
   1   0  11   54.77    1.79
  -1   0  11   51.22    2.02
   1   0 -11   48.48    1.89
   1   0 -11   55.66    1.73
   1   0 -12  765.35    8.27
   1   0 -12  738.49    8.94
  -1   0  12  833.99    8.63
  -1   0  12  734.83    9.12
  -1   0  12  780.53    8.61
   1   0  12  810.18    8.64
  -1   0 -12  719.93    8.31
   1   0  12  764.55    8.54
   1   0 -12  768.38    7.37
   1   0 -13  264.28    4.32
   1   0  13  254.89    4.43
   1   0  13  270.74    4.57
  -1   0  13  272.10    4.56
  -1   0  13  273.18    5.04
   1   0 -13  226.29    3.45
  -1   0 -13  215.11    4.11
  -1   0  13  251.41    4.31
   1   0 -13  206.41    4.38
  -1   0  14 5282.67   39.19
  -1   0  14 5362.71   40.25
   1   0  14 5396.08   39.20
   1   0  14 5141.80   39.05
  -1   0  14 5252.04   38.79
  -1   0 -14 4987.98   38.80
   1   0 -14 5071.50   38.38
  -1   0  15 1688.29   15.98
  -1   0  15 1635.42   16.58
  -1   0  15 1649.94   15.73
   1   0 -15 1649.20   15.49
   1   0  15 1726.10   16.03
   1   0  15 1710.12   16.01
  -1   0  16  945.37   11.05
   1   0 -16  906.28   10.35
  -1   0  16  957.11   11.64
  -1   0 -16  904.77   10.78
   1   0  16  973.60   11.08
  -1   0  16  958.08   10.75
   1   0  16  948.03   10.95
  -1   0 -16  929.04   12.32
   1   0 -17  189.05    4.11
  -1   0  17  178.42    4.14
  -1   0 -17  188.96    4.44
  -1   0  17  190.59    4.43
   1   0  17  179.90    4.30
  -1   0 -17  192.28    5.21
   1   0  17  176.49    4.24
  -1   0  17  194.34    4.71
  -1   0 -18  115.32    4.16
  -1   0  18  117.03    3.70
   1   0  18  116.88    3.55
  -1   0  18  104.72    3.39
   1   0 -18  114.19    3.24
   1   0 -19  215.24    4.72
  -1   0 -19  225.15    6.04
  -1   0  19  229.27    5.42
  -1   0 -20  245.52    4.93
  -1   0 -20  255.29    6.65
  -1   0 -21  222.85    6.38
  -1   0 -21  214.45    4.77
  -1   0 -22  282.15    7.37
  -1   0 -22  259.51    5.49
  -1   0 -23  436.47    7.58
  -1   0 -23  456.71    9.82
  -1   0 -24  256.23    7.38
  -1   0 -24  249.11    5.72
  -1   0 -25  329.24    6.78
  -1   0 -25  320.35    8.41
  -1   0 -26    4.91    1.65
  -1   0 -26    4.05    1.13
  -1   0 -27  324.81    8.61
  -1   0 -27  305.47    6.74
  -1   0 -28    2.24    1.48
  -1   0 -29   81.69    4.43
   1   0 -30  516.54   11.73
  -1   0 -30  521.64   11.48
  -1   0 -30  501.74   10.88
   1   0 -31  165.84    6.41
  -1   0 -31  158.97    6.26
   1   0  32   17.66    2.02
  -1   0 -32   20.72    2.37
   1   0 -32   22.03    2.63
  -1   0 -33    3.73    1.58
   1   0 -33    2.20    1.51
   1   0  33    2.08    1.06
  -1   0 -33    2.94    1.40
   1   0 -34   28.94    2.61
  -1   0 -34   23.13    2.10
  -1   0 -34   28.00    2.58
   1   0  34   21.26    1.82
   1   0  35   17.81    1.75
   1   0 -35   16.71    2.04
  -1   0 -35   14.93    1.99
  -1   0  35   16.53    1.71
  -1   0 -35   17.27    1.90
  -1   0 -36   76.53    3.25
   1   0  36   84.30    3.25
  -1   0  36   87.15    3.34
   1   0 -36   82.43    3.78
  -1   0 -36   72.44    3.52
   1   0 -37  199.03    5.32
  -1   0  37  212.25    4.80
   1   0  37  203.87    4.67
   1   0 -37  192.77    5.05
  -1   0 -37  196.17    5.27
   1   0 -38  134.78    3.93
  -1   0 -38  137.16    3.89
   1   0 -38  135.56    3.84
   1   0  38  129.39    3.28
  -1   0  38  141.82    3.50
  -1   0  39   63.61    1.99
   1   0 -39   59.81    2.08
  -1  -1 -38   67.13    2.34
   1   1 -38   62.03    2.39
   1  -1  38   64.63    2.25
   1   1 -38   73.39    2.81
  -1   1  38   72.26    2.39
  -1  -1 -37    4.30    1.08
  -1   1  37    3.88    0.89
   1  -1  37    1.11    0.52
   1  -1  37    3.52    0.86
   1   1 -37    3.53    1.09
  -1  -1 -37    4.08    1.02
   1   1 -37    3.54    1.04
   1   1 -37    3.12    0.93
  -1  -1 -36   91.80    3.90
   1   1 -36   97.52    3.45
   1   1 -36   94.50    3.71
  -1  -1 -36  101.62    3.47
  -1  -1 -36   85.38    3.54
   1   1 -36   93.25    3.84
   1  -1  36   92.28    3.36
   1   1 -35   47.58    3.02
   1   1 -35   39.62    2.50
   1  -1  35   34.90    2.41
  -1  -1 -35   39.94    2.89
   1   1 -35   45.33    2.87
  -1  -1 -35   42.33    2.78
   1  -1  35   47.41    2.63
   1  -1  34  136.83    4.90
   1   1 -34  143.26    5.25
   1   1 -34  150.25    5.48
   1  -1  34  160.34    5.05
   1   1 -34  150.53    4.81
  -1  -1 -34  139.99    5.46
  -1  -1 -34  159.38    5.45
  -1  -1 -33   39.08    2.89
   1  -1  33   46.40    2.96
   1   1 -33   45.11    3.26
  -1  -1 -33   45.89    3.34
   1   1 -33   42.48    3.17
   1   1 -33   45.84    2.90
   1   1 -32  238.28    7.36
  -1  -1 -32  234.09    7.51
   1  -1  32  249.51    6.76
   1   1 -32  237.27    6.48
   1   1 -31   19.14    2.64
   1   1 -31   19.67    2.22
  -1  -1 -31   17.30    2.47
   1  -1  31   21.26    2.22
  -1  -1 -31   18.71    2.57
  -1  -1 -30  119.84    4.36
  -1  -1 -30  134.16    5.89
   1   1 -30  127.04    5.09
  -1  -1 -30  129.87    5.72
  -1  -1 -29  148.78    6.14
   1   1 -29  154.23    5.47
  -1  -1 -29  154.98    4.95
  -1  -1 -29  156.36    6.50
   1   1 -28   26.48    2.49
  -1  -1 -28   26.20    2.87
  -1  -1 -28   27.98    2.91
  -1  -1 -28   25.21    2.16
   1  -1  27  118.86    4.60
  -1  -1 -27  128.42    5.75
  -1  -1 -27  116.47    4.33
  -1  -1 -27  123.74    5.61
   1   1 -27  130.85    4.95
  -1  -1 -26  511.67   11.53
  -1  -1 -26  506.98    9.26
   1  -1  26  507.82   10.04
   1   1 -26  501.37    9.98
  -1  -1 -26  508.48   11.30
   1   1 -25 1050.88   14.81
  -1  -1 -25 1019.42   16.63
  -1  -1 -25 1014.94   16.64
  -1  -1 -25  989.77   13.55
  -1  -1 -24 2835.66   26.72
   1  -1  24 2762.33   29.13
  -1  -1 -23  335.12    6.73
   1  -1  23  338.38    8.11
  -1  -1 -23  352.10    8.82
  -1  -1 -22   66.97    3.82
  -1  -1 -22   67.93    2.88
   1  -1  22   68.36    3.56
  -1  -1 -21  583.85    8.68
   1  -1  21  576.43   10.53
  -1  -1 -21  558.21   10.94
  -1  -1 -20  499.94    7.73
   1  -1  20  515.36    9.73
   1  -1  20  508.32    9.84
   1  -1  19   27.77    2.19
  -1  -1 -19   23.05    1.52
   1  -1  19   25.99    2.15
  -1  -1 -19   23.58    2.18
  -1  -1 -18  250.21    4.88
   1  -1  18  265.22    6.63
   1  -1  18  260.13    6.57
   1   1 -18  261.92    4.89
   1   1 -17  684.97    7.80
  -1  -1 -17  631.81   10.50
  -1   1  17  650.86    8.70
   1   1 -17  621.24    8.07
  -1   1  17  641.12    9.82
   1   1 -17  651.61    9.54
   1  -1  17  665.33    9.43
   1  -1  17  643.56   10.53
   1  -1  17  595.17    8.99
   1  -1  17  636.25   10.47
  -1  -1 -17  697.67    9.23
   1  -1  16  441.30    7.09
  -1   1  16  446.41    7.60
  -1   1  16  408.29    5.23
   1  -1  16  437.72    7.14
  -1  -1 -16  447.05    6.80
   1  -1  16  422.72    8.08
   1   1 -16  408.48    5.63
   1  -1  16  416.48    8.08
   1   1 -16  456.49    6.38
  -1  -1 -16  437.61    8.16
  -1   1  16  439.99    6.67
   1   1 -16  473.99    7.57
   1   1 -15  148.14    2.95
  -1  -1 -15  145.64    4.38
   1   1 -15  150.86    3.30
   1   1 -15  143.12    3.83
  -1  -1 -15  149.83    3.54
  -1   1  15  155.29    3.59
  -1   1  15  141.04    4.12
   1  -1  15  143.04    3.73
   1   1 -14  499.97    7.45
  -1  -1 -14  481.19    6.68
  -1   1  14  523.61    8.01
  -1   1  14  520.00    6.90
   1   1 -14  458.33    5.69
  -1   1  14  496.27    5.44
   1   1 -14  459.54    6.24
   1  -1  14  515.60    7.27
  -1   1  13  473.80    7.40
   1   1 -13  451.27    6.79
   1   1 -13  463.77    5.98
  -1   1  13  483.14    6.38
   1  -1  13  463.54    6.65
  -1  -1 -13  450.52    6.21
   1   1 -13  472.87    5.42
   1   1 -12  533.06    7.26
  -1   1  12  585.84    8.03
   1  -1  12  538.63    7.09
  -1   1  12  567.94    6.83
  -1   1  12  527.67    5.31
   1   1 -12  555.85    6.49
  -1  -1 -12  558.67    6.76
   1  -1  11 2838.64   23.31
   1   1 -11 2765.59   22.41
   1  -1  11 2928.60   23.45
  -1   1  11 2803.05   20.88
  -1   1  11 3013.75   23.15
  -1  -1 -11 2894.45   22.76
   1   1 -11 2909.55   23.76
   1   1 -10   18.72    0.99
  -1  -1 -10   17.04    0.96
   1   1 -10   15.60    1.06
  -1   1  10   20.46    1.07
   1  -1  10   18.97    1.12
   1  -1  10   19.80    1.13
   1   1 -10   19.25    1.32
  -1   1  10   17.13    0.63
   1  -1   9 1183.57   10.89
   1   1  -9 1235.06   11.81
   1   1  -9 1148.65   11.01
  -1   1   9 1249.99   10.66
  -1  -1  -9 1227.84   10.63
   1   1  -9 1151.04   10.41
   1  -1   9 1195.44   10.96
  -1   1   8  463.63    5.39
   1  -1   8  448.05    5.50
   1   1  -8  458.61    5.33
   1   1  -8  477.78    6.07
  -1  -1  -8  447.74    5.25
   1  -1   8  439.58    5.51
  -1   1   7 1057.31    9.58
   1   1  -7 1032.73    9.48
   1   1  -7 1059.99   10.34
   1   1  -7 1073.37   10.01
  -1   1   7 1100.41    9.90
   1   1  -7 1075.06   10.09
   1   1  -6 1501.85   12.42
   1   1  -6 1488.06   12.26
   1   1  -6 1478.41   13.07
  -1   1   6 1473.56   12.60
  -1   1   6 1493.46   12.28
  -1   1   5  927.24    8.42
   1   1  -5  906.01    8.38
   1   1  -5  916.11    8.89
  -1   1   3 2720.56   20.84
  -1   1   3 2905.06   21.28
   1   1  -3 2686.47   21.62
   1   1  -3 2746.01   20.34
   1  -1   3 2808.52   20.55
   1  -1   3 2829.41   21.06
   1   1  -2 1341.10   10.21
   1  -1   2 1361.36   10.31
  -1   1   2 1270.10   10.70
   1  -1   2 1242.24   10.42
   1  -1   2 1231.38   10.80
  -1   1   1 9999.00   68.63
  -1   1   0 8631.69   59.36
  -1   1  -1 9988.74   68.36
  -1   1  -2 1242.00   10.72
  -1  -1   2 1230.26   10.94
  -1  -1   2 1237.36   11.26
  -1   1  -2 1241.03   10.84
  -1  -1   3 2853.13   20.44
  -1  -1   3 2848.83   20.75
  -1   1  -3 2901.71   20.25
  -1   1  -5  888.47    8.05
  -1  -1   5  887.57    8.22
  -1   1  -6 1456.88   11.95
  -1  -1   6 1462.14   12.11
  -1  -1   7 1108.38    9.66
  -1   1  -7 1125.17   10.06
   1  -1  -7 1014.58    9.80
  -1  -1   7 1015.16    9.60
   1  -1  -8  496.63    5.76
  -1   1  -8  449.48    5.94
  -1  -1   8  467.46    5.62
  -1  -1   8  462.88    5.42
  -1   1  -8  483.03    5.47
  -1  -1   9 1198.02   11.27
  -1  -1   9 1212.34   10.82
  -1   1  -9 1268.35   11.03
  -1   1  -9 1255.05   12.10
  -1   1 -10   19.22    1.28
  -1  -1  10   17.89    1.07
   1  -1 -10   19.57    1.14
   1  -1 -10   17.67    1.09
  -1  -1  10   16.28    0.95
   1  -1 -11 3012.56   23.53
   1  -1 -11 2604.64   22.97
  -1   1 -11 2830.45   22.56
  -1  -1  11 2772.84   22.44
  -1  -1  11 2854.66   23.07
  -1  -1  12  556.60    7.22
  -1  -1  12  540.24    6.69
   1   1  12  531.84    6.77
   1  -1 -12  568.88    7.39
   1  -1 -12  525.71    7.24
   1   1  12  570.82    7.96
  -1   1 -12  555.14    6.76
   1  -1 -13  481.23    6.81
   1  -1 -13  453.69    6.76
  -1  -1  13  435.89    6.07
  -1   1 -13  476.16    6.37
  -1  -1  13  431.40    6.50
   1   1  13  458.97    7.30
   1   1  13  451.98    6.30
   1  -1 -14  531.61    7.60
   1  -1 -14  492.42    7.26
  -1  -1  14  481.57    7.20
   1   1  14  506.76    7.01
   1   1  14  523.98    8.07
  -1   1 -14  500.68    6.98
  -1  -1  14  545.60    7.01
  -1  -1  15  143.05    3.38
   1   1  15  143.89    3.55
   1  -1 -15  138.09    3.66
  -1   1 -15  155.98    3.62
  -1  -1  15  145.56    3.79
   1   1  15  149.20    4.24
   1  -1 -15  153.89    3.96
   1   1  16  439.76    6.85
   1   1  16  468.66    7.81
  -1  -1  16  429.14    7.15
   1  -1 -16  456.45    7.46
  -1  -1  16  421.09    6.47
  -1   1 -16  466.68    6.96
   1  -1 -16  448.26    7.18
   1  -1 -17  629.16    9.36
  -1  -1  17  634.56    9.27
  -1   1 -17  623.89    9.70
  -1   1 -17  667.10    9.04
   1   1  17  686.14   10.06
   1  -1 -17  629.44    9.11
  -1  -1  17  608.51    8.34
   1  -1 -17  625.86    8.99
   1   1  17  686.09    9.12
  -1   1 -18  250.19    6.00
   1  -1 -18  250.66    5.51
  -1   1 -19   24.88    2.00
  -1   1 -20  474.10    8.96
  -1   1 -21  559.82   10.14
  -1   1 -22   65.38    3.43
  -1   1 -23  330.05    7.89
  -1   1 -24 2836.78   29.38
   1  -1 -25 1064.48   15.02
   1  -1 -25 1101.29   17.28
  -1   1 -26  504.16   10.50
   1  -1 -26  540.11   11.80
   1  -1 -26  537.85   10.22
   1  -1 -27  129.92    5.91
   1  -1 -27  124.88    4.87
   1  -1 -27  130.85    5.77
   1  -1 -28   26.19    2.96
  -1   1 -28   23.58    2.37
   1   1  28   22.70    2.19
   1  -1 -28   33.08    3.22
   1  -1 -28   26.07    2.55
   1  -1 -29  155.47    6.29
  -1   1 -29  151.14    5.55
   1  -1 -29  147.27    5.40
   1  -1 -29  163.50    6.55
   1  -1 -30  140.71    5.95
   1  -1 -30  132.15    6.01
  -1   1 -30  129.01    5.06
   1  -1 -30  134.17    5.19
   1  -1 -31   17.19    2.53
  -1  -1  31   20.00    2.31
  -1   1 -31   18.06    2.12
   1  -1 -31   20.13    2.68
   1  -1 -31   19.62    2.19
   1  -1 -32  239.17    7.61
   1  -1 -32  250.11    7.48
  -1  -1  32  219.62    6.44
   1  -1 -32  244.18    6.51
  -1   1 -32  216.02    6.23
  -1   1 -33   46.61    3.25
   1  -1 -33   45.01    3.42
  -1  -1  33   42.67    2.83
   1  -1 -33   45.63    2.85
  -1   1 -33   44.14    2.76
   1  -1 -33   42.28    3.19
   1  -1 -34  150.58    4.78
  -1   1 -34  143.79    5.28
   1  -1 -34  156.08    5.77
   1  -1 -34  144.52    5.25
  -1  -1  34  156.20    4.95
   1  -1 -35   44.86    3.04
  -1   1 -35   44.18    2.91
  -1   1 -35   39.13    2.30
   1  -1 -35   42.59    2.85
   1  -1 -35   43.53    2.57
  -1  -1  35   44.78    2.58
  -1   1 -36   86.73    3.62
   1  -1 -36   90.85    3.88
   1  -1 -36   94.16    3.36
  -1  -1  36   97.43    3.46
   1  -1 -36   96.63    3.84
  -1   1 -36  101.65    3.48
   1  -1 -37    3.56    0.96
   1  -1 -37    3.89    1.14
  -1   1 -37    3.49    0.95
  -1   1 -37    3.06    1.04
  -1  -1  37    3.50    0.87
   1   1  37    2.19    0.76
  -1   1 -38   57.57    2.45
   1  -1 -38   61.09    2.42
  -1   1 -38   66.09    2.27
   1   1  38   61.24    2.14
  -1  -1  38   66.84    2.35
  -1   2  38   13.38    0.98
   1   2 -38   14.27    1.17
   1  -2  37   73.81    2.65
   1   2 -37   91.36    2.73
   1   2 -36  101.84    3.75
  -1  -2 -36  103.09    3.72
   1  -2  36  105.44    3.41
   1   2 -36   96.09    3.24
   1   2 -35   25.43    1.78
  -1  -2 -35   27.53    1.82
  -1  -2 -35   26.37    2.25
   1  -2  35   25.92    2.11
   1   2 -35   27.14    2.28
   1  -2  35   25.64    1.92
   1   2 -35   23.89    1.96
   1   2 -34   40.72    2.38
   1   2 -34   40.22    2.64
  -1  -2 -34   39.61    2.27
   1  -2  34   39.71    2.50
   1  -2  33  184.54    5.45
  -1  -2 -33  172.79    6.19
   1   2 -33  161.40    4.83
   1   2 -33  179.41    5.69
   1  -2  32  250.40    6.69
   1   2 -32  245.33    7.06
  -1  -2 -32  246.03    7.63
   1   2 -32  231.26    6.00
  -1  -2 -32  249.37    6.10
   1   2 -31   23.47    2.14
  -1  -2 -31   27.41    2.91
   1  -2  31   21.13    1.89
  -1  -2 -31   25.44    2.25
   1  -2  31   23.38    2.30
   1   2 -31   23.47    2.55
  -1  -2 -30   33.74    2.56
   1   2 -30   33.04    2.52
  -1  -2 -30   30.65    3.16
   1  -2  30   34.68    2.48
   1  -2  30   36.62    2.78
   1  -2  29  303.49    7.84
   1  -2  29  280.12    7.48
   1   2 -29  311.11    7.44
  -1  -2 -29  309.14    9.21
  -1  -2 -29  305.84    7.23
   1   2 -28    2.46    1.25
  -1  -2 -28    2.98    1.92
  -1  -2 -28    2.05    1.35
   1  -2  28    6.72    1.47
   1  -2  28    3.08    1.31
  -1  -2 -27  220.97    6.19
   1  -2  27  220.78    6.59
   1  -2  27  209.90    6.73
  -1  -2 -27  222.38    7.78
   1   2 -27  228.57    6.40
  -1  -2 -26  447.92    8.87
   1  -2  26  449.65    9.53
  -1  -2 -26  450.08   11.10
   1   2 -26  423.73    8.95
   1   2 -25 1161.19   15.84
  -1  -2 -25 1168.21   18.68
  -1  -2 -25 1204.56   15.46
   1  -2  25 1207.91   16.62
  -1  -2 -24  172.02    6.64
  -1  -2 -24  169.90    5.09
   1  -2  24  175.07    5.70
   1  -2  24  174.66    6.25
   1  -2  24  171.34    6.24
   1   2 -24  175.87    5.46
  -1  -2 -23   41.77    2.53
  -1  -2 -23   40.88    3.30
   1  -2  23   42.22    3.20
   1   2 -23   42.12    2.70
   1  -2  23   44.06    3.21
  -1  -2 -22  369.43    9.30
   1   2 -22  352.25    7.58
   1  -2  22  374.39    9.16
  -1  -2 -22  349.54    7.10
   1  -2  21  676.09   12.61
   1   2 -21  681.55   10.73
   1  -2  21  666.10   12.40
  -1  -2 -21  652.56   12.52
  -1  -2 -20  364.57    8.89
  -1  -2 -20  368.95    6.85
   1  -2  20  362.88    8.79
   1  -2  20  375.56    8.97
   1  -2  19  169.49    5.84
  -1  -2 -19  185.88    6.01
   1  -2  19  190.66    6.18
  -1  -2 -19  184.13    6.03
  -1  -2 -18   97.52    4.27
   1  -2  18   98.52    4.30
   1  -2  18  102.46    4.40
  -1  -2 -18  104.17    4.33
   1  -2  17 1642.72   20.22
  -1  -2 -17 1686.57   19.58
   1  -2  17 1684.82   20.24
  -1  -2 -16  379.66    7.90
   1   2 -16  369.73    6.25
   1   2 -16  350.90    6.63
  -1  -2 -16  337.06    7.53
   1  -2  16  339.30    7.84
  -1   2  16  378.20    6.09
   1  -2  16  352.08    8.04
   1  -2  16  350.51    6.88
  -1  -2 -16  337.35    5.80
  -1  -2 -15 1589.18   17.94
   1   2 -15 1451.79   15.79
  -1  -2 -15 1499.51   17.72
  -1  -2 -15 1554.62   15.14
   1  -2  15 1538.24   16.49
   1   2 -15 1632.74   15.80
  -1   2  15 1577.84   15.01
   1  -2  15 1494.43   16.11
   1  -2  15 1501.07   18.53
   1  -2  15 1491.97   18.26
   1  -2  14 1098.32   12.21
  -1  -2 -14 1010.80   13.10
   1   2 -14  962.96   11.39
  -1  -2 -14  958.26   12.89
   1  -2  14 1005.89   12.03
   1  -2  14 1032.27   13.91
  -1   2  14 1026.73   10.77
  -1   2  14  884.52    7.86
   1   2 -14 1014.54   11.08
   1   2 -14 1073.32   13.36
   1  -2  14  999.94   13.86
  -1  -2 -14 1040.50   10.75
   1  -2  13  117.62    3.36
   1   2 -13  109.22    2.98
   1  -2  13   99.66    3.83
   1  -2  13  105.70    3.28
   1   2 -13  107.24    3.07
   1  -2  13  104.14    3.94
  -1   2  13   96.44    1.50
  -1  -2 -13  106.64    3.73
   1   2 -13  112.85    3.73
  -1   2  13  118.44    2.89
  -1  -2 -13  112.70    2.81
   1  -2  12  163.11    3.85
   1  -2  12  147.46    3.76
   1   2 -12  141.42    3.46
   1   2 -12  167.59    3.66
   1   2 -12  163.10    4.23
  -1   2  12  135.84    1.76
  -1  -2 -12  142.04    3.09
  -1   2  12  175.99    3.44
  -1   2  11  165.53    3.27
  -1  -2 -11  173.98    3.24
   1  -2  11  172.56    3.86
  -1   2  11  148.45    1.71
   1   2 -11  159.52    3.47
   1   2 -11  172.64    4.07
   1   2 -11  174.05    3.67
   1  -2  11  158.11    3.77
   1   2 -10  336.47    5.19
   1   2 -10  339.59    5.20
   1   2 -10  335.91    5.43
  -1   2  10  371.79    4.93
   1  -2  10  372.93    5.86
  -1  -2 -10  360.85    4.74
   1  -2  10  385.49    5.78
  -1   2  10  326.15    2.83
   1   2  -9 2383.95   20.01
   1   2  -9 2412.17   20.46
   1  -2   9 2438.79   20.55
  -1   2   9 2500.08   19.53
   1   2  -9 2332.99   20.29
   1  -2   9 2273.72   20.61
   1   2  -9 2499.23   20.53
  -1  -2  -9 2459.44   19.18
   1  -2   8 1720.98   15.83
   1   2  -8 1737.44   15.64
  -1  -2  -8 1866.36   14.40
   1   2  -8 1756.23   15.47
   1  -2   8 1700.85   15.43
   1   2  -8 1718.07   15.25
  -1   2   8 1579.98   14.15
   1   2  -7 1940.37   16.27
   1   2  -7 1977.51   16.78
  -1  -2  -7 1993.97   15.17
   1  -2   7 1775.11   16.48
   1   2  -7 1864.69   16.45
   1  -2   7 1915.27   16.35
  -1   2   7 1764.10   14.94
   1  -2   6  790.17    8.33
   1   2  -6  821.44    8.94
   1   2  -6  782.30    8.65
   1   2  -6  840.04    8.42
  -1   2   6  777.23    7.44
   1  -2   6  784.95    8.05
   1  -2   6  755.48    8.57
  -1   2   5  674.15    6.42
   1   2  -5  679.15    7.76
   1  -2   5  631.13    7.44
   1  -2   5  668.41    7.22
   1   2  -5  640.96    7.23
  -1   2   5  669.19    5.02
   1  -2   5  654.26    6.83
   1   2  -4   51.72    1.67
  -1   2   4   52.05    0.85
  -1   2   4   53.89    1.34
   1  -2   3 2107.63   16.69
  -1   2   3 2077.32   17.52
  -1   2   3 2172.72   15.45
  -1   2   3 2141.74   18.05
  -1   2   3 2217.76   16.43
   1   2  -3 2101.85   17.54
  -1   2   2 3424.76   26.96
  -1   2   2 3655.96   26.04
  -1   2   2 3502.36   24.97
  -1   2   2 3531.03   25.61
  -1   2   2 3434.58   27.07
   1   2  -2 3643.98   27.07
  -1   2   1 8516.48   61.33
  -1   2   1 8704.31   60.03
  -1   2   0  386.96    4.96
  -1   2   0  397.47    4.09
  -1   2  -1 8652.36   60.04
  -1   2  -1 8324.61   58.75
   1   2   2 3661.25   27.51
  -1  -2   2 3538.75   24.59
  -1  -2   2 3628.07   26.31
  -1  -2   2 3605.66   25.97
  -1   2  -2 3659.92   26.29
  -1  -2   2 3564.39   27.44
  -1  -2   3 2131.34   17.46
  -1   2  -3 2065.71   16.30
  -1  -2   3 2160.25   15.89
   1   2   3 2166.81   17.62
  -1   2  -3 2053.56   16.95
  -1   2  -4   54.98    1.54
  -1  -2   4   49.76    1.27
  -1   2  -4   56.08    1.13
  -1   2  -4   52.57    1.64
   1   2   4   48.84    1.44
  -1  -2   4   50.08    1.74
   1   2   5  652.08    6.91
  -1  -2   5  609.85    7.24
  -1   2  -5  651.17    7.11
  -1   2  -5  694.80    7.07
  -1  -2   5  653.45    6.27
  -1   2  -6  822.07    7.54
  -1   2  -6  798.82    8.32
  -1  -2   6  818.91    7.53
  -1   2  -6  837.15    8.38
   1   2   6  801.38    8.19
  -1   2  -7 1854.56   15.95
  -1   2  -7 1820.75   15.86
  -1   2  -7 1914.57   14.99
  -1  -2   7 1879.91   14.87
  -1  -2   7 1818.89   16.48
  -1   2  -8 1682.25   15.28
  -1  -2   8 1718.03   15.93
  -1  -2   8 1793.68   14.41
  -1   2  -8 1761.23   14.40
  -1   2  -8 1774.41   15.39
  -1   2  -9 2269.39   20.02
  -1  -2   9 2482.10   20.84
   1  -2  -9 2352.20   19.66
  -1  -2   9 2543.45   19.25
  -1   2  -9 2319.38   19.99
  -1   2  -9 2354.92   18.90
   1  -2 -10  305.51    4.91
  -1   2 -10  387.11    5.55
  -1  -2  10  352.94    4.76
  -1   2 -10  382.94    4.89
  -1   2 -10  359.38    5.54
  -1  -2  10  336.55    5.64
   1  -2 -11  154.54    3.42
  -1   2 -11  176.37    3.30
  -1   2 -11  176.31    4.09
  -1  -2  11  158.51    3.82
  -1   2 -11  162.02    3.57
  -1  -2  11  171.53    3.20
   1  -2 -12  151.36    3.52
  -1   2 -12  149.88    4.04
  -1   2 -12  153.09    3.58
  -1   2 -12  154.41    3.26
  -1  -2  12  152.53    3.82
  -1  -2  12  156.10    3.17
   1  -2 -13  105.35    3.02
  -1   2 -13  109.21    3.60
  -1  -2  13  109.43    3.34
  -1  -2  13  118.69    2.79
  -1   2 -13  109.16    2.77
   1  -2 -14  993.72   11.52
  -1   2 -14 1000.88   13.03
   1  -2 -14 1003.71   13.25
   1   2  14 1012.00   11.23
  -1  -2  14  949.50   10.38
  -1   2 -14 1069.53   11.02
  -1  -2  14 1039.26   12.34
   1  -2 -15 1497.16   15.50
   1   2  15 1545.83   15.14
  -1  -2  15 1438.34   18.04
   1  -2 -15 1460.43   17.36
  -1   2 -15 1490.82   14.81
  -1  -2  15 1544.29   14.49
  -1  -2  15 1373.69   15.91
   1  -2 -16  350.63    6.45
   1   2  16  373.82    6.29
   1  -2 -16  341.70    7.59
  -1  -2  16  359.30    6.96
  -1  -2  16  349.80    7.83
  -1  -2  16  370.08    5.90
   1  -2 -16  333.46    6.06
  -1   2 -16  330.52    5.78
   1  -2 -17 1622.26   19.73
  -1  -2  17 1662.69   19.81
   1  -2 -18   97.54    4.22
  -1  -2  18   89.08    3.91
   1  -2 -18   99.75    3.46
  -1  -2  19  180.69    5.66
   1  -2 -19  190.66    4.97
   1  -2 -19  186.26    6.01
  -1   2 -19  175.01    4.89
  -1  -2  20  389.57    8.45
   1  -2 -20  376.38    8.95
   1  -2 -20  377.50    7.45
  -1   2 -21  668.81   10.71
   1  -2 -21  678.35   12.55
   1  -2 -21  655.46   10.42
   1  -2 -21  682.04   12.41
   1  -2 -22  356.54    7.68
   1  -2 -22  396.23    9.53
   1  -2 -22  354.48    7.47
  -1  -2  22  370.73    8.31
  -1   2 -22  337.94    7.48
   1  -2 -22  409.82    9.52
   1  -2 -23   40.90    3.32
  -1  -2  23   41.51    2.76
   1  -2 -23   40.72    2.60
   1  -2 -23   41.35    2.76
   1  -2 -23   38.86    3.21
  -1   2 -23   38.74    2.57
   1  -2 -24  166.92    6.52
  -1   2 -24  155.27    5.13
   1  -2 -24  173.38    5.32
  -1  -2  24  165.27    5.66
   1  -2 -24  180.98    5.69
   1  -2 -24  183.96    6.63
   1  -2 -25 1224.07   15.92
   1  -2 -25 1138.15   18.17
  -1   2 -25 1083.77   15.56
  -1  -2  25 1317.43   17.41
   1  -2 -25 1205.54   16.18
   1  -2 -25 1190.69   18.67
  -1   2 -26  402.75    8.65
   1  -2 -26  438.94   10.87
  -1  -2  26  436.78    9.53
   1  -2 -26  429.28    8.80
  -1   2 -27  189.99    5.72
   1  -2 -27  219.18    7.45
   1  -2 -27  225.03    7.79
  -1  -2  27  209.35    6.53
  -1  -2  27  207.79    6.59
   1  -2 -27  232.51    6.39
  -1   2 -28    2.30    1.11
   1  -2 -28    2.43    1.25
  -1  -2  28    2.40    1.02
   1  -2 -28    3.26    1.87
  -1  -2  28    1.17    1.19
   1  -2 -28    3.52    1.88
   1  -2 -29  302.53    9.02
   1  -2 -29  317.00    7.43
   1  -2 -29  294.59    8.56
  -1  -2  29  293.04    7.66
   1  -2 -30   34.61    3.11
   1  -2 -30   33.69    3.26
   1  -2 -30   33.70    2.55
  -1  -2  30   32.48    2.76
  -1   2 -30   30.58    2.33
   1  -2 -31   22.93    2.67
  -1  -2  31   23.95    2.35
   1  -2 -31   22.68    2.09
  -1   2 -31   21.82    1.92
   1  -2 -31   27.26    2.94
   1  -2 -32  230.21    5.92
  -1  -2  32  241.66    6.54
   1  -2 -32  238.26    7.59
   1  -2 -32  256.16    7.23
   1  -2 -33  179.41    5.81
   1  -2 -33  171.90    4.93
   1  -2 -33  174.17    6.22
  -1  -2  33  178.92    5.43
  -1   2 -34   40.51    2.31
   1  -2 -34   39.39    2.30
  -1  -2  34   39.91    2.49
   1  -2 -34   40.17    2.78
  -1   2 -35   23.91    2.08
  -1   2 -35   24.24    1.73
   1  -2 -35   24.36    1.73
  -1  -2  35   25.63    1.94
   1  -2 -35   23.26    2.07
  -1  -2  36  100.28    3.33
  -1   2 -36   99.52    2.99
   1  -2 -36   90.11    3.35
  -1   2 -36   94.96    3.55
  -1   2 -37  103.30    3.32
  -1   2 -37  100.13    2.61
   1  -2 -38   11.16    1.07
  -1   2 -38    9.90    0.72
  -1   2 -38   10.99    1.01
   1  -3  36   16.00    1.44
   1   3 -36   18.29    1.51
   1   3 -35    4.00    0.73
   1  -3  35    5.67    1.17
   1   3 -34   50.96    2.36
   1   3 -33   52.91    2.70
  -1  -3 -33   57.99    3.34
   1  -3  33   56.31    2.88
   1   3 -32   57.56    2.58
   1   3 -32   60.77    3.13
   1  -3  32   64.08    3.25
  -1  -3 -32   68.77    3.24
  -1  -3 -32   66.27    3.73
   1  -3  32   60.75    2.92
  -1  -3 -31   63.40    3.76
  -1  -3 -31   60.82    3.24
   1  -3  31   55.75    3.19
   1  -3  31   54.70    3.02
   1   3 -31   50.66    2.58
   1   3 -31   58.50    3.29
  -1  -3 -30    6.67    2.08
   1  -3  30    6.40    1.55
   1  -3  30    6.65    1.45
   1   3 -30    6.39    1.23
  -1  -3 -30    5.90    1.62
   1  -3  29  155.54    5.44
  -1  -3 -29  163.34    6.37
  -1  -3 -29  163.06    5.33
   1  -3  29  158.37    5.76
   1   3 -29  145.71    4.64
   1  -3  28  121.08    5.25
  -1  -3 -28  115.99    5.54
   1   3 -28  112.48    4.15
   1  -3  28  117.46    4.83
  -1  -3 -28  117.39    4.58
  -1  -3 -27  287.46    7.17
   1   3 -27  260.86    6.51
  -1  -3 -27  293.47    8.65
   1  -3  27  279.80    7.52
   1  -3  27  293.07    8.40
  -1  -3 -27  270.68    8.97
  -1  -3 -26  253.55    6.67
  -1  -3 -26  232.29    7.63
   1   3 -26  219.10    5.96
  -1  -3 -26  229.26    8.14
   1  -3  26  226.25    6.87
   1  -3  26  268.92    8.14
   1  -3  26  249.71    7.80
  -1  -3 -25   84.38    4.69
   1  -3  25   90.11    4.80
   1   3 -25   82.04    3.65
   1  -3  25   80.24    4.13
   1  -3  25   89.41    4.80
  -1  -3 -25   95.39    4.07
  -1  -3 -25   85.00    5.06
   1  -3  24  555.14   12.10
  -1  -3 -24  488.19   10.68
  -1  -3 -24  532.83   12.48
   1   3 -24  519.16    9.40
   1  -3  24  557.59   12.01
  -1  -3 -24  516.76    9.53
   1  -3  24  510.12   10.46
   1  -3  23   56.94    3.92
  -1  -3 -23   48.82    3.52
   1  -3  23   61.65    3.53
  -1  -3 -23   56.12    4.12
  -1  -3 -23   60.83    3.22
   1  -3  23   64.95    4.17
   1   3 -23   55.23    2.99
   1  -3  22 1329.24   17.71
   1  -3  22 1348.14   20.09
  -1  -3 -22 1304.38   19.92
   1  -3  22 1287.56   19.46
   1   3 -22 1293.90   16.04
  -1  -3 -21  155.29    6.34
   1  -3  21  159.32    5.46
   1  -3  21  170.57    6.44
  -1  -3 -21  151.90    5.72
   1   3 -21  154.31    4.77
   1  -3  21  147.19    6.05
  -1  -3 -20  638.17   12.92
   1  -3  20  673.02   12.92
   1  -3  20  680.30   12.98
  -1  -3 -20  630.06   11.90
   1  -3  20  616.70   11.08
   1   3 -20  631.12   10.03
   1  -3  19   27.31    2.67
   1  -3  19   30.35    2.75
  -1  -3 -19   31.93    2.89
   1  -3  19   29.70    2.31
  -1  -3 -19   28.35    2.54
   1   3 -19   29.87    2.01
   1  -3  18    5.04    1.50
   1  -3  18    6.45    1.56
  -1  -3 -18    7.32    1.66
   1  -3  18    6.69    1.26
  -1  -3 -18    6.50    1.52
   1   3 -18    7.88    1.12
   1  -3  17  127.25    5.24
   1  -3  17  129.03    4.49
  -1  -3 -17  136.09    4.94
   1  -3  17  116.28    5.04
  -1  -3 -17  115.30    4.94
  -1  -3 -16  443.39    9.62
   1  -3  16  441.42    9.70
  -1  -3 -16  431.68    8.81
   1  -3  15   53.33    2.75
  -1  -3 -15   49.43    3.10
  -1  -3 -15   51.27    2.88
   1  -3  14   39.46    2.32
  -1  -3 -14   37.55    2.65
  -1  -3 -14   32.84    2.29
   1  -3  13   91.98    3.41
  -1  -3 -13   93.92    3.47
   1  -3  13   82.47    3.85
  -1  -3 -13   98.37    3.19
   1  -3  13   86.45    3.37
  -1  -3 -13   97.86    3.82
  -1  -3 -13   98.70    4.06
   1   3 -13  100.52    3.67
  -1  -3 -13   94.39    2.50
  -1   3  13   93.56    2.56
  -1  -3 -12 1220.66   13.42
   1  -3  12 1217.14   14.63
   1   3 -12 1239.24   13.93
  -1  -3 -12 1264.62   11.96
  -1  -3 -12 1182.66   15.75
   1   3 -12 1335.01   14.25
   1  -3  12 1330.56   14.91
  -1  -3 -12 1159.22   14.94
  -1   3  12 1233.86   11.88
   1  -3  12 1218.99   16.34
   1  -3  11  433.19    8.76
   1   3 -11  473.67    7.41
   1  -3  11  487.45    7.86
  -1  -3 -11  433.24    5.67
   1   3 -11  481.56    7.50
  -1   3  11  487.62    5.96
  -1  -3 -11  436.33    8.08
   1  -3  11  461.82    7.83
  -1  -3 -11  468.07    7.02
   1  -3  10  666.26   10.52
  -1  -3 -10  650.14    9.46
   1   3 -10  767.83    9.06
   1   3 -10  690.97    8.20
  -1   3  10  426.85    4.18
  -1  -3 -10  636.51    7.89
  -1  -3 -10  738.06    6.97
  -1   3  10  477.62    4.29
  -1   3  10  671.02    6.69
   1   3 -10  708.30    8.70
   1  -3  10  689.66    7.67
   1  -3  10  638.80    8.94
  -1   3   9 1504.39   11.70
  -1  -3  -9 1696.32   15.41
   1  -3   9 1766.83   17.38
   1   3  -9 1811.57   16.74
  -1  -3  -9 1719.09   13.80
   1   3  -9 1769.47   16.37
   1  -3   9 1699.69   18.79
  -1   3   9 1662.08   13.63
   1   3  -9 1601.06   15.61
   1  -3   9 1777.72   14.93
  -1   3   9 1533.59   11.82
   1  -3   8 2113.46   20.25
  -1  -3  -8 2129.83   18.35
   1   3  -8 2131.66   19.22
   1   3  -8 2270.42   19.76
  -1   3   8 2023.73   15.27
  -1  -3  -8 2097.90   16.61
   1   3  -8 2203.16   19.48
  -1   3   8 2039.49   16.60
   1  -3   8 2083.60   17.41
  -1   3   7   98.03    1.59
   1   3  -7  105.56    3.05
   1  -3   7   91.42    2.21
   1  -3   7   98.13    3.20
  -1   3   7   97.66    1.99
   1   3  -7  108.26    3.12
   1   3  -7  101.08    3.06
  -1  -3  -7   97.03    2.54
  -1   3   7   93.54    3.19
   1  -3   6  693.07    9.30
  -1   3   6  613.98    5.89
   1   3  -6  716.34    8.81
  -1  -3  -6  651.34    7.53
   1   3  -6  670.38    8.77
  -1   3   6  744.08    6.60
  -1   3   6  648.54    9.09
   1  -3   6  675.70    6.97
   1   3  -5   16.66    1.24
   1  -3   5   13.92    1.28
  -1   3   5   14.09    1.05
  -1   3   5   15.02    1.28
  -1   3   5   13.94    0.66
   1   3  -5   16.96    1.30
  -1   3   5   14.28    0.65
  -1   3   5   13.46    0.76
  -1  -3  -5   16.01    0.97
  -1   3   4 2423.31   18.42
  -1  -3  -4 2386.59   19.50
   1   3  -4 2601.39   21.50
  -1   3   4 2353.55   21.64
  -1   3   4 2463.76   20.72
   1  -3   4 2617.04   22.51
  -1   3   4 2400.05   18.69
  -1   3   4 2412.61   18.14
  -1  -3  -4 2510.09   17.97
  -1   3   3 2605.05   23.02
  -1   3   3 2706.39   21.98
  -1   3   3 2578.51   19.66
  -1   3   3 2731.09   19.13
  -1  -3  -3 2607.79   20.46
  -1  -3  -3 2616.44   18.98
   1   3  -3 2651.41   22.79
  -1   3   3 2542.03   19.76
  -1   3   2 3362.09   26.13
  -1   3   2 3319.57   27.85
  -1   3   2 3214.78   28.57
  -1   3   2 3699.58   25.26
  -1  -3  -2 3635.08   25.09
   1   3  -2 3862.90   29.33
  -1   3   1 2065.35   17.96
   1   3  -1 2176.69   19.21
  -1   3   1 2165.63   16.74
  -1   3   1 2038.27   18.77
  -1   3   1 2098.46   15.41
  -1   3   0   48.74    1.80
  -1   3   0   49.87    1.03
  -1   3   0   43.87    1.86
  -1   3   0   46.47    1.43
   1   3   0   42.92    1.88
   1   3   1 2163.85   18.77
  -1   3  -1 2130.64   17.85
  -1   3  -1 2088.20   18.54
  -1   3  -1 2074.92   16.64
  -1   3  -2 3310.49   26.62
   1   3   2 3679.37   28.93
  -1   3  -2 3514.37   27.71
  -1   3  -2 3577.73   25.23
  -1   3  -2 3341.42   28.18
  -1   3  -2 3538.54   24.82
   1   3   3 2674.04   22.90
  -1  -3   3 2722.56   19.55
  -1   3  -3 2659.66   22.37
  -1   3  -4 2425.24   20.18
   1   3   4 2533.37   22.24
  -1  -3   4 2607.39   18.98
  -1  -3   4 2477.53   18.24
  -1   3  -4 2476.70   18.26
  -1   3  -4 2381.84   21.09
  -1  -3   4 2384.40   22.21
  -1  -3   5   16.32    1.32
   1   3   5   16.83    1.37
  -1  -3   5   15.51    0.66
  -1   3  -5   13.79    0.63
  -1   3  -5   12.37    1.04
  -1   3  -5   13.33    0.96
  -1  -3   6  696.95    6.01
  -1   3  -6  635.04    7.46
  -1   3  -6  667.61    8.20
   1   3   6  641.46    6.61
  -1   3  -6  707.71    6.13
   1   3   6  704.43    9.09
  -1  -3   6  660.28    8.82
   1   3   7   93.33    2.24
  -1   3  -7  101.16    2.94
  -1   3  -7   88.32    2.59
  -1  -3   7  101.44    1.96
  -1   3  -7   95.63    1.96
   1   3   7  109.81    3.45
  -1  -3   7  100.66    3.23
  -1   3  -8 2142.06   16.78
  -1   3  -8 2037.00   18.47
  -1   3  -8 2107.73   19.08
   1   3   8 2034.31   17.54
  -1  -3   8 2047.70   16.44
  -1  -3   9 1726.45   17.71
  -1   3  -9 1732.83   16.28
  -1   3  -9 1730.38   14.47
   1   3   9 1683.91   15.46
  -1   3  -9 1750.93   16.78
  -1   3 -10  642.54    8.53
  -1  -3  10  664.68    9.51
  -1  -3  10  686.92    7.13
  -1   3 -10  682.53    7.45
  -1   3 -10  683.17    8.92
   1   3  10  652.03    8.21
  -1   3 -11  457.37    7.25
  -1   3 -11  463.63    7.11
  -1  -3  11  442.27    5.63
  -1   3 -12 1245.42   13.68
  -1   3 -12 1218.82   13.87
  -1  -3  12 1244.68   14.86
  -1   3 -12 1288.94   12.23
  -1  -3  12 1311.34   12.04
   1  -3 -12 1188.22   15.97
   1  -3 -13   90.60    3.40
  -1   3 -13   91.29    2.50
  -1  -3  13   94.24    3.52
  -1   3 -13   90.10    3.46
  -1  -3  13   92.02    3.44
   1  -3 -13   85.51    3.82
  -1  -3  13   94.82    2.50
   1  -3 -14   38.46    2.24
  -1   3 -14   39.15    1.67
  -1  -3  14   34.60    2.18
   1  -3 -14   35.05    2.61
   1  -3 -14   40.99    2.77
   1  -3 -14   34.78    1.82
   1  -3 -15   55.20    2.77
   1  -3 -15   53.80    2.34
  -1  -3  15   54.95    2.80
   1  -3 -15   52.15    3.21
   1  -3 -15   60.17    3.43
   1  -3 -16  454.66    7.45
  -1  -3  16  453.93   10.34
   1  -3 -16  464.07    9.79
  -1  -3  16  484.29    8.96
   1  -3 -16  444.67    8.55
   1  -3 -16  473.21    8.76
   1  -3 -17  120.10    3.76
   1  -3 -17  121.75    5.05
  -1  -3  17  125.42    4.51
   1  -3 -17  126.90    4.51
  -1  -3  17  128.41    5.41
   1  -3 -18    6.78    1.35
   1  -3 -18    5.86    1.12
   1  -3 -18    6.91    1.62
  -1  -3  18    7.26    1.34
  -1  -3  18    6.09    1.49
   1  -3 -19   32.11    2.19
   1  -3 -19   31.79    2.03
  -1  -3  19   32.29    2.82
   1  -3 -19   29.22    2.78
   1  -3 -19   30.50    2.52
  -1  -3  19   31.53    2.42
   1  -3 -20  664.27   11.79
   1  -3 -20  651.34   10.34
  -1  -3  20  632.97   12.59
  -1  -3  20  633.24   11.27
   1  -3 -20  619.69   12.61
   1  -3 -21  155.99    5.69
   1  -3 -21  154.31    4.62
  -1  -3  21  147.47    5.84
   1  -3 -21  153.04    6.25
  -1  -3  21  162.30    5.55
   1  -3 -21  169.78    5.20
  -1  -3  22 1273.44   18.78
   1  -3 -22 1370.63   16.94
   1  -3 -22 1294.67   15.94
   1  -3 -22 1350.41   20.14
   1  -3 -22 1332.46   18.43
  -1  -3  22 1272.15   17.60
   1  -3 -23   54.39    3.58
   1  -3 -23   53.35    2.86
  -1  -3  23   57.04    3.67
  -1  -3  23   55.48    3.43
   1  -3 -23   54.36    4.07
   1  -3 -23   64.84    3.46
  -1  -3  24  556.14   11.36
   1  -3 -24  522.01   12.23
  -1  -3  24  538.12   10.72
   1  -3 -24  532.35   10.23
   1  -3 -24  526.34   11.06
   1  -3 -24  529.27    9.36
   1  -3 -25   88.45    5.09
  -1  -3  25   87.44    4.26
   1  -3 -25   86.35    3.67
   1  -3 -25   85.49    4.47
   1  -3 -25   87.80    4.16
  -1  -3  25   78.57    4.12
   1  -3 -26  214.20    5.79
   1  -3 -26  227.15    7.11
  -1  -3  26  234.38    6.97
  -1  -3  26  235.70    6.95
   1  -3 -26  224.07    6.65
   1  -3 -26  228.50    8.07
   1  -3 -27  290.15    8.01
  -1  -3  27  267.51    8.01
  -1  -3  27  280.14    7.46
   1  -3 -27  273.79    8.86
  -1  -3  27  271.18    7.48
   1  -3 -27  267.96    6.50
   1  -3 -28  125.54    4.33
  -1  -3  28  112.05    4.77
  -1  -3  28  119.50    5.13
   1  -3 -28  124.56    5.26
   1  -3 -29  151.79    4.69
  -1  -3  29  152.04    5.47
   1  -3 -29  148.44    5.66
  -1  -3  30    5.57    1.52
   1  -3 -30    7.44    1.67
  -1  -3  30    6.42    1.32
  -1   3 -31   53.38    2.60
  -1  -3  31   55.52    3.20
  -1  -3  31   52.88    2.81
   1  -3 -31   53.42    3.22
  -1   3 -32   60.05    2.58
  -1  -3  32   63.53    3.24
   1  -3 -32   59.21    3.17
  -1  -3  33   59.68    2.97
  -1   3 -33   52.96    2.26
  -1   3 -34   48.48    1.94
   1  -3 -34   56.02    2.77
  -1   3 -35    3.69    0.59
   1  -3 -35    6.12    1.15
  -1   3 -36   16.76    1.36
   1  -4  35   17.78    1.39
   1   4 -35   15.69    1.22
   1  -4  34   71.34    2.71
   1  -4  34   76.92    3.11
   1  -4  33   50.26    2.23
   1  -4  32  100.79    3.58
  -1  -4 -32  106.63    3.67
   1  -4  31    3.36    1.09
   1  -4  30  117.26    4.54
   1   4 -30  109.03    3.72
   1  -4  29  130.95    5.14
   1   4 -29  114.14    4.09
   1  -4  28   20.26    2.34
  -1  -4 -28   21.02    2.53
  -1  -4 -27  110.36    5.14
   1  -4  27  105.78    5.14
   1  -4  26  325.97    8.95
   1  -4  26  311.43    8.92
   1  -4  25  667.81   13.56
   1  -4  25  627.91   11.97
  -1  -4 -25  643.96   12.91
   1  -4  25  644.97   13.23
  -1  -4 -24  253.29    6.50
  -1  -4 -24  262.14    8.06
   1  -4  24  277.07    8.72
   1  -4  24  272.43    7.61
   1  -4  24  262.26    8.37
  -1  -4 -23  247.38    6.36
  -1  -4 -23  241.94    7.84
   1  -4  23  250.97    8.37
   1  -4  23  234.55    7.09
   1  -4  23  232.30    7.90
   1  -4  22   66.34    3.88
  -1  -4 -22   60.95    3.24
   1  -4  22   76.00    4.73
   1  -4  22   71.81    4.47
  -1  -4 -22   64.61    4.20
   1  -4  21  609.82   13.11
  -1  -4 -21  626.17   10.22
   1  -4  21  617.81   11.75
   1  -4  20  308.82    9.17
  -1  -4 -20  302.93    8.50
  -1  -4 -20  296.79    6.76
  -1  -4 -19 1268.30   18.35
   1  -4  19 1250.15   17.59
  -1  -4 -18    4.53    1.65
   1  -4  18    5.29    1.38
  -1  -4 -17  290.87    7.84
   1  -4  17  285.07    7.42
   1  -4  16  398.21    9.97
  -1  -4 -16  414.74    9.23
   1  -4  16  409.96    8.84
   1  -4  16  412.25   10.09
  -1  -4 -15   69.22    3.70
  -1  -4 -15   65.18    3.88
   1  -4  15   60.78    3.86
  -1  -4 -14   15.44    2.58
   1  -4  14   13.77    1.98
  -1  -4 -14   14.23    1.87
   1  -4  14    8.57    1.71
  -1  -4 -13    3.78    1.19
   1  -4  13    6.56    1.50
  -1  -4 -13    2.47    1.82
   1  -4  13    3.47    0.92
   1  -4  13    4.83    1.38
   1  -4  12  139.49    5.41
  -1  -4 -12  153.05    4.73
  -1  -4 -12  140.31    4.94
  -1  -4 -12  154.73    4.84
   1  -4  12  138.53    4.44
  -1  -4 -11  388.31    7.46
   1  -4  11  391.65    8.97
  -1  -4 -11  398.28    7.16
  -1  -4 -11  388.39    7.97
  -1  -4 -10  249.58    5.74
   1  -4  10  247.80    5.36
   1  -4  10  233.90    6.77
  -1  -4 -10  255.15    5.53
  -1  -4 -10  248.94    6.23
   1  -4   9  158.23    4.14
   1  -4   9  156.89    5.39
  -1  -4  -9  139.14    3.71
  -1  -4  -9  145.97    4.08
  -1  -4  -9  142.14    4.72
  -1  -4  -9  134.80    4.05
   1  -4   8  391.78    6.71
  -1  -4  -8  377.84    6.25
  -1  -4  -8  397.91    6.90
   1  -4   8  399.86    8.62
   1   4  -8  416.44    7.04
  -1  -4  -8  383.11    6.86
  -1  -4  -8  382.70    7.99
  -1  -4  -7 1164.68   12.56
  -1   4   7 1149.18   14.91
   1  -4   7 1183.96   16.04
   1  -4   7 1183.61   13.19
  -1  -4  -7 1160.22   13.36
  -1  -4  -7 1144.88   15.56
   1  -4   7 1208.06   15.48
  -1  -4  -6 1440.92   14.11
  -1   4   6 1418.42   16.72
   1  -4   6 1402.12   17.95
   1  -4   6 1449.18   16.84
   1  -4   6 1386.73   14.87
  -1  -4  -5  161.71    3.54
  -1   4   5  171.77    4.79
   1  -4   5  170.93    5.26
  -1  -4  -5  161.02    5.10
   1   4  -5  158.12    4.34
   1   4  -5  175.95    4.59
   1  -4   5  170.32    4.86
  -1   4   4  143.87    2.76
   1   4  -4  138.31    4.00
  -1  -4  -4  137.94    3.08
   1  -4   4  133.60    4.57
   1   4  -4  148.03    4.20
  -1  -4  -4  137.59    4.73
  -1   4   4  126.34    4.01
   1   4  -3 1000.17   12.30
  -1   4   3  926.05   12.25
  -1   4   3  996.75    9.60
  -1  -4  -3  942.16   13.59
   1   4  -3 1008.66   12.29
   1   4  -2  640.50    9.40
  -1   4   2  609.08    8.09
   1   4  -2  639.48    9.27
  -1  -4  -2  598.81   10.43
  -1   4   2  571.90    9.02
  -1   4   2  595.10    6.92
  -1   4   1  849.25   11.39
  -1   4   1  886.49   10.02
   1   4  -1  831.47   11.06
  -1   4   1  890.27    9.11
  -1  -4  -1  791.32   12.40
  -1   4   0  691.47    9.82
  -1  -4   0  686.90   11.37
  -1   4   0  657.01    8.32
  -1   4   0  655.65    7.64
  -1   4  -1  829.69    9.05
  -1   4  -1  867.44    9.83
   1   4   1  856.87   11.36
  -1   4  -1  810.42   10.87
  -1  -4   1  815.49   12.55
  -1   4  -2  623.88    7.85
   1   4   2  608.12    9.15
  -1  -4   2  593.49   10.45
  -1   4  -2  594.06    8.93
  -1  -4   2  592.76   10.28
  -1   4  -2  583.00    7.40
  -1   4  -3  929.51   10.24
   1   4   3  950.29   12.16
  -1  -4   3  938.33   13.48
  -1   4  -3  963.86   11.98
  -1   4  -3  916.91   10.12
  -1   4  -4  124.76    3.12
  -1   4  -4  128.90    3.12
  -1  -4   4  132.99    4.68
  -1  -4   4  130.02    4.54
   1   4   4  127.19    3.96
  -1   4  -5  161.04    3.66
  -1   4  -5  164.28    3.55
   1   4   5  163.78    4.67
  -1   4  -5  173.00    4.46
  -1  -4   5  165.58    5.15
  -1  -4   5  156.80    5.03
  -1   4  -6 1466.53   15.73
  -1   4  -6 1368.75   13.53
   1   4   6 1466.57   16.69
  -1   4  -6 1349.94   14.01
  -1  -4   6 1413.93   17.55
  -1  -4   6 1389.56   17.23
  -1  -4   7 1148.12   14.95
  -1   4  -7 1113.05   11.62
  -1   4  -7 1083.32   12.20
   1  -4  -7 1210.24   13.52
   1  -4  -7 1196.80   14.16
  -1  -4   7 1145.82   15.39
  -1  -4   7 1147.25   15.09
  -1   4  -7 1174.30   13.81
   1   4   7 1134.49   14.57
  -1   4  -8  355.83    6.20
   1  -4  -8  406.00    7.49
  -1  -4   8  415.16    8.59
   1  -4  -8  407.84    7.14
  -1  -4   8  367.08    7.81
  -1  -4   9  140.03    4.32
   1  -4  -9  160.81    4.34
  -1  -4   9  150.78    5.09
  -1  -4   9  139.39    4.66
   1  -4  -9  156.19    4.57
   1  -4 -10  243.06    5.89
  -1  -4  10  250.94    6.75
   1  -4 -10  251.30    5.60
  -1  -4  11  375.06    7.87
   1  -4 -11  422.86    7.53
   1  -4 -11  383.53    7.71
  -1  -4  11  411.35    8.79
   1  -4 -11  430.13    8.09
   1  -4 -12  137.06    4.44
   1  -4 -12  134.34    3.52
  -1  -4  12  157.71    5.36
  -1  -4  12  135.92    4.57
   1  -4 -12  151.18    4.70
   1  -4 -13    1.92    1.34
   1  -4 -13    3.17    0.78
  -1  -4  13    3.13    0.93
  -1  -4  13    3.45    1.25
   1  -4 -14   13.69    1.29
   1  -4 -14   12.76    2.39
   1  -4 -15   57.51    2.55
   1  -4 -15   63.61    4.17
  -1  -4  15   66.39    4.38
  -1  -4  15   66.03    3.46
  -1  -4  16  433.66   11.12
  -1  -4  16  406.64    9.03
   1  -4 -16  423.56    7.45
   1  -4 -17  297.26    8.33
  -1  -4  17  284.69    9.01
  -1  -4  17  260.66    7.26
   1  -4 -17  261.19    5.97
   1  -4 -18    4.26    1.24
  -1  -4  18    3.85    1.58
  -1  -4  18    3.61    1.33
   1  -4 -18    3.22    1.13
  -1  -4  19 1255.23   17.70
   1  -4 -19 1230.06   16.45
  -1  -4  20  310.69    9.40
  -1  -4  20  317.09    8.25
   1  -4 -20  309.10    7.04
   1  -4 -20  305.33    7.66
  -1  -4  21  596.11   11.82
   1  -4 -21  581.09   10.18
   1  -4 -21  582.41   10.92
  -1  -4  22   61.76    4.18
   1  -4 -22   70.89    3.57
  -1  -4  22   59.28    3.73
   1  -4 -22   67.35    3.67
  -1  -4  23  229.53    7.78
   1  -4 -23  223.97    6.23
  -1  -4  23  234.67    7.18
   1  -4 -23  230.78    6.82
   1  -4 -24  251.19    7.04
  -1  -4  24  271.08    7.67
  -1  -4  24  255.20    7.98
   1  -4 -24  263.40    6.81
   1  -4 -25  567.65   10.64
  -1  -4  25  649.50   12.66
   1  -4 -25  547.57   10.45
  -1  -4  25  661.85   12.04
   1  -4 -26  245.22    6.53
   1  -4 -26  251.97    6.67
  -1  -4  27  106.01    4.64
  -1  -4  27  104.16    5.07
  -1  -4  28   19.32    2.04
  -1  -4  28   21.80    2.42
   1  -4 -28   19.11    2.06
  -1  -4  29  116.60    4.34
  -1  -4  29  119.99    4.89
  -1  -4  30  115.21    4.44
  -1  -4  31    2.80    0.96
  -1  -4  31    1.92    0.79
  -1  -4  32   97.80    2.97
  -1  -4  32   98.84    3.31
  -1   4 -35   15.85    1.16
   1  -5  33   31.05    1.57
   1  -5  33   42.25    1.70
   1  -5  32   16.99    1.41
   1  -5  32   16.51    1.34
   1  -5  32   17.34    1.29
   1  -5  31    2.17    0.94
   1  -5  31    3.11    0.93
   1  -5  31    2.36    0.83
  -1  -5 -31    1.32    0.86
  -1  -5 -30  170.77    4.29
   1  -5  30  167.27    4.78
   1  -5  29    3.57    1.24
  -1  -5 -29    2.78    1.16
  -1  -5 -28   18.26    1.85
   1  -5  28   20.73    2.13
   1  -5  27   17.74    2.19
  -1  -5 -27   19.56    1.87
   1  -5  26   89.87    4.57
   1  -5  26   87.51    4.47
  -1  -5 -26   82.31    3.51
   1  -5  25  287.40    8.38
  -1  -5 -25  279.17    6.44
   1  -5  24   61.42    4.08
  -1  -5 -24   62.62    3.17
   1  -5  23  640.78   13.94
  -1  -5 -23  743.21   11.22
  -1  -5 -22  376.32    7.72
   1  -5  21  466.73   11.42
  -1  -5 -21  490.44    8.86
   1  -5  20 1685.75   23.49
  -1  -5 -20 1644.23   18.36
   1  -5  19  763.85   14.91
   1  -5  19  764.39   14.89
  -1  -5 -19  781.69   11.31
   1  -5  18  115.42    5.71
   1  -5  18  107.24    5.42
   1  -5  17  193.32    7.13
   1  -5  17  194.36    7.23
   1  -5  16   18.40    2.52
   1  -5  16   15.79    2.45
   1  -5  15  207.80    5.93
  -1  -5 -15  216.46    6.87
   1  -5  15  210.58    7.38
  -1  -5 -14   40.14    3.98
   1  -5  14   35.15    3.15
   1  -5  14   32.17    2.44
   1  -5  14   35.22    3.23
  -1  -5 -13   24.03    3.22
   1  -5  13   24.27    2.45
   1  -5  13   19.72    2.00
   1  -5  13   23.94    2.63
   1  -5  13   23.94    2.67
   1  -5  12   18.50    2.20
   1  -5  12   17.56    2.31
  -1  -5 -12   21.69    2.85
   1  -5  12   18.51    2.35
   1  -5  12   19.48    1.99
  -1  -5 -11   68.74    3.61
   1  -5  11   70.44    3.75
   1  -5  11   69.05    4.06
   1  -5  11   64.52    3.44
   1  -5  11   69.17    4.10
  -1  -5 -11   71.61    3.30
  -1  -5 -11   70.68    3.83
  -1  -5 -10  464.26    9.98
   1  -5  10  442.81    9.53
   1  -5  10  454.88   10.43
  -1  -5 -10  465.34    8.74
   1  -5  10  452.92   10.45
  -1  -5 -10  478.46    8.64
  -1  -5  -9 1034.15   13.99
  -1  -5  -9 1074.51   13.96
   1  -5   9 1079.16   15.61
   1  -5   9 1062.86   16.41
   1  -5   9 1071.46   16.62
  -1  -5  -9 1098.27   16.28
   1  -5   8  364.83    8.27
   1  -5   8  352.69    6.81
   1  -5   8  360.54    8.87
  -1  -5  -8  331.01    7.03
   1  -5   8  330.59    8.40
  -1  -5  -8  316.89    8.25
  -1  -5  -8  321.97    6.99
   1  -5   7  339.57    6.59
   1  -5   7  338.40    7.88
  -1  -5  -7  325.34    6.86
   1  -5   7  346.74    8.69
   1  -5   7  329.34    8.17
  -1  -5  -7  318.44    6.78
  -1  -5  -7  330.49    8.36
   1  -5   6  138.39    4.07
  -1  -5  -6  121.99    4.08
  -1  -5  -6  128.60    4.18
   1  -5   6  130.30    4.91
   1  -5   6  141.52    5.39
  -1  -5  -6  129.21    5.17
   1  -5   6  136.78    4.91
  -1  -5  -5   10.13    1.33
   1  -5   5   14.30    1.76
   1  -5   5   14.54    1.39
  -1  -5  -5   11.02    1.35
   1  -5   5   15.17    1.74
  -1  -5  -5   12.23    1.81
   1  -5   4    4.47    0.89
  -1  -5  -4    4.79    1.04
   1  -5   4    3.51    1.09
  -1  -5  -4    4.72    1.01
   1  -5   4    3.62    1.14
   1  -5   4    3.16    0.98
  -1  -5  -4    5.05    1.40
   1  -5   3   22.90    2.12
  -1  -5  -3   22.20    2.25
   1  -5   3   23.30    2.07
  -1  -5  -3   23.29    1.83
   1  -5   3   22.56    1.65
  -1  -5  -3   22.51    2.35
   1  -5   2  180.94    5.62
  -1  -5  -2  183.44    6.08
   1  -5   2  191.58    4.64
   1  -5   2  194.53    5.62
  -1  -5  -2  181.22    6.10
  -1  -5  -1  574.91   11.03
  -1  -5  -1  551.39   10.99
   1  -5   1  547.95    8.39
   1  -5   1  587.11   10.16
   1  -5   0   49.65    2.88
   1  -5   0   49.52    2.32
  -1  -5   0   52.42    3.25
  -1  -5   0   47.16    3.30
  -1  -5   0   52.37    2.69
  -1  -5   1  581.51   11.15
   1  -5  -1  592.89   10.23
   1  -5  -1  574.41    8.48
  -1  -5   1  552.73    9.28
   1  -5  -2  181.77    4.44
  -1  -5   2  193.31    6.21
   1  -5  -2  199.10    5.62
  -1  -5   2  176.74    4.98
  -1  -5   3   21.22    1.82
   1  -5  -3   20.76    1.51
  -1  -5   3   20.51    2.19
   1  -5  -3   25.19    2.13
  -1  -5   3   18.73    2.13
  -1  -5   4    4.81    1.05
   1  -5  -4    3.27    0.94
  -1  -5   4    5.38    1.41
  -1  -5   4    3.54    1.24
   1  -5  -5   14.11    1.49
  -1  -5   5   12.73    1.79
  -1  -5   5   11.73    1.78
  -1  -5   5   12.31    1.46
   1  -5  -6  138.88    4.37
   1  -5  -6  139.73    4.75
  -1  -5   6  139.00    4.55
  -1  -5   6  140.28    5.38
   1  -5  -7  361.39    7.79
   1  -5  -7  353.70    7.21
  -1  -5   7  350.08    8.72
  -1  -5   7  340.48    7.44
   1  -5  -8  365.29    7.41
  -1  -5   8  350.13    8.70
  -1  -5   8  340.35    7.49
  -1  -5   8  322.98    8.30
   1  -5  -8  370.39    7.95
   1  -5  -9 1140.88   14.60
  -1  -5   9 1078.27   14.82
  -1  -5   9 1102.49   16.67
   1  -5  -9 1139.59   15.29
  -1  -5   9 1075.19   16.13
  -1  -5  10  485.32   10.40
  -1  -5  10  463.05   10.00
   1  -5 -10  484.37    8.92
   1  -5 -10  485.47    9.43
  -1  -5  11   68.79    3.77
   1  -5 -11   70.46    3.36
   1  -5 -11   65.86    3.54
   1  -5 -11   75.45    3.76
  -1  -5  11   70.97    4.04
  -1  -5  11   71.87    3.49
  -1  -5  12   20.88    2.05
   1  -5 -12   22.23    2.34
  -1  -5  12   22.50    2.47
   1  -5 -12   20.69    2.08
   1  -5 -13   25.49    2.26
   1  -5 -13   23.32    2.73
  -1  -5  13   22.44    2.13
   1  -5 -14   38.05    3.60
  -1  -5  14   32.80    2.56
   1  -5 -14   33.94    2.01
   1  -5 -15  207.19    5.05
  -1  -5  15  210.69    6.31
   1  -5 -16   18.31    5.24
  -1  -5  16   19.43    2.84
  -1  -5  16   16.25    1.94
   1  -5 -16   15.73    1.60
   1  -5 -17  208.81    5.33
  -1  -5  17  209.64    6.33
   1  -5 -17  219.02    8.44
  -1  -5  17  213.47    8.18
  -1  -5  18  119.23    4.76
  -1  -5  18  117.54    6.10
   1  -5 -18  113.97    4.00
  -1  -5  19  762.49   15.74
   1  -5 -19  725.58   11.03
  -1  -5  19  753.85   12.56
  -1  -5  20 1730.54   20.87
   1  -5 -20 1667.08   18.85
   1  -5 -21  468.82    8.71
  -1  -5  21  492.75    9.82
   1  -5 -22  370.90    7.67
  -1  -5  22  386.77    8.53
  -1  -5  23  760.59   12.25
   1  -5 -23  758.11   11.43
  -1  -5  24   58.25    3.85
  -1  -5  24   57.37    3.17
   1  -5 -24   50.13    2.82
  -1  -5  25  266.90    6.56
  -1  -5  25  274.43    7.86
  -1  -5  25  279.61    8.38
  -1  -5  26   83.31    4.13
  -1  -5  26   80.35    3.44
  -1  -5  26   86.46    4.56
  -1  -5  27   20.23    2.06
  -1  -5  27   20.31    2.35
  -1  -5  27   16.32    1.59
  -1  -5  28   17.06    1.76
  -1  -5  28   19.54    2.12
  -1  -5  28   16.31    1.47
  -1  -5  29    2.46    1.12
  -1  -5  29    2.63    0.90
  -1  -5  29    2.46    0.72
  -1  -5  30  127.56    3.05
  -1  -5  30  158.24    4.56
  -1  -5  31    1.61    0.70
  -1  -5  32   13.22    1.02
   1  -6  30  237.48    4.05
   1  -6  30  230.69    4.41
  -1  -6 -29   42.37    1.80
   1  -6  29   40.38    1.86
   1  -6  29   42.57    2.09
  -1  -6 -28    8.01    1.04
   1  -6  28    8.06    1.13
  -1  -6 -27    8.36    1.20
   1  -6  27    8.01    1.26
  -1  -6 -26   40.28    2.14
   1  -6  26   36.17    2.28
   1  -6  25   56.53    3.26
  -1  -6 -25   60.25    2.64
  -1  -6 -24   58.39    2.72
   1  -6  24   54.71    3.33
   1  -6  23   37.23    2.97
  -1  -6 -23   35.60    2.22
   1  -6  22    5.31    1.80
  -1  -6 -22    6.08    1.32
   1  -6  22    2.58    1.43
   1  -6  21    0.33    1.54
   1  -6  21    0.19    1.34
  -1  -6 -21    0.83    1.10
   1  -6  20  159.26    6.34
   1  -6  20  155.76    6.10
  -1  -6 -20  142.90    4.33
  -1  -6 -19   85.55    3.39
   1  -6  19   84.51    4.77
   1  -6  19   82.89    4.57
   1  -6  18  441.44   10.92
  -1  -6 -18  454.99    8.03
   1  -6  18  468.87   10.93
  -1  -6 -17   28.99    2.12
   1  -6  17   29.17    3.11
   1  -6  17   30.22    3.04
  -1  -6 -16   48.73    2.59
   1  -6  16   39.77    3.47
   1  -6  16   47.13    3.69
   1  -6  15   72.84    4.44
   1  -6  15   72.87    3.64
   1  -6  15   71.83    4.36
   1  -6  14  331.97    9.46
   1  -6  14  352.27    8.25
   1  -6  14  345.37    9.41
  -1  -6 -14  362.95    9.02
  -1  -6 -13  334.33    8.63
   1  -6  13  344.65    9.54
  -1  -6 -13  328.27    8.50
   1  -6  13  347.56    8.31
   1  -6  13  354.16    9.53
  -1  -6 -12  295.61    7.86
   1  -6  12  284.30    8.62
  -1  -6 -12  278.87    7.84
   1  -6  12  270.45    7.41
   1  -6  12  279.33    8.46
  -1  -6 -11  239.42    6.97
   1  -6  11  242.33    7.85
  -1  -6 -11  245.09    7.35
   1  -6  11  251.33    7.78
   1  -6  11  245.72    7.10
  -1  -6 -10  334.96    7.58
   1  -6  10  353.88    9.45
  -1  -6 -10  342.55    8.70
   1  -6  10  332.05    8.38
   1  -6  10  351.70    9.05
  -1  -6 -10  335.21    7.84
   1  -6   9   27.75    2.66
   1  -6   9   28.48    2.83
  -1  -6  -9   35.55    2.53
   1  -6   9   30.07    2.74
  -1  -6  -9   39.55    3.06
   1  -6   9   28.36    2.64
  -1  -6  -9   37.17    2.78
  -1  -6  -8  128.80    4.71
  -1  -6  -8  129.42    5.32
   1  -6   8  127.48    5.57
  -1  -6  -8  131.03    4.69
   1  -6   8  123.02    5.25
   1  -6   8  128.11    5.23
   1  -6   8  132.58    5.31
  -1  -6  -7  276.01    6.80
   1  -6   7  260.27    7.51
  -1  -6  -7  251.73    7.44
   1  -6   7  269.63    7.49
   1  -6   7  279.40    8.10
  -1  -6  -7  281.38    6.93
   1  -6   6  628.72   12.46
  -1  -6  -6  584.11   11.70
   1  -6   6  643.19   11.75
   1  -6   6  606.11   11.31
  -1  -6  -6  608.37   10.43
  -1  -6  -6  614.85   10.52
  -1  -6  -5  175.18    6.77
   1  -6   5  193.98    6.52
  -1  -6  -5  179.53    6.27
  -1  -6  -5  191.12    5.61
   1  -6   5  192.51    6.28
  -1  -6  -5  183.37    5.48
  -1  -6  -4  978.25   13.75
   1  -6   4 1007.86   15.60
  -1  -6  -4  941.26   13.50
  -1  -6  -4  944.04   15.36
  -1  -6  -4  941.17   16.54
   1  -6   4 1013.07   15.13
  -1  -6  -3  201.78    5.74
   1  -6   3  209.31    5.15
  -1  -6  -3  193.33    5.60
   1  -6   3  209.93    6.51
  -1  -6  -3  194.99    6.51
   1  -6   3  215.56    6.60
  -1  -6  -3  191.42    7.08
  -1  -6  -2  320.27    8.47
   1  -6   2  345.11    6.67
  -1  -6  -2  321.23    7.31
  -1  -6  -2  330.97    7.41
  -1  -6  -2  329.57    9.30
   1  -6   2  344.46    8.30
  -1  -6  -1   19.65    1.99
  -1  -6  -1   15.88    1.86
  -1  -6  -1   17.72    2.46
  -1  -6  -1   20.74    2.34
   1  -6   1   22.42    1.74
   1  -6   1   20.26    2.30
   1  -6   0  594.09    9.03
  -1  -6   0  592.19   11.87
  -1  -6   0  589.11   10.25
   1  -6   0  622.64   11.45
   1  -6  -1   22.73    2.12
  -1  -6   1   19.47    2.28
   1  -6  -2  324.73    7.36
  -1  -6   2  340.57    8.82
  -1  -6   3  201.58    6.76
  -1  -6   3  192.11    7.06
   1  -6  -4 1032.30   15.04
   1  -6  -4  999.71   14.02
  -1  -6   4 1029.68   16.25
  -1  -6   4  990.21   14.24
   1  -6  -5  193.60    5.65
   1  -6  -5  187.80    6.05
  -1  -6   5  180.77    5.66
  -1  -6   5  192.03    6.69
  -1  -6   5  187.57    6.95
   1  -6  -6  633.19   10.72
  -1  -6   6  649.61   12.59
   1  -6  -6  664.49   11.71
   1  -6  -7  292.87    7.12
  -1  -6   7  278.74    7.08
  -1  -6   7  282.17    8.17
   1  -6  -7  297.89    7.60
   1  -6  -8  143.04    4.90
   1  -6  -8  127.89    5.28
  -1  -6   8  132.70    5.60
   1  -6  -8  137.05    5.20
  -1  -6   8  135.49    4.93
   1  -6  -9   34.22    2.83
   1  -6  -9   34.77    2.54
   1  -6  -9   32.95    2.89
  -1  -6   9   38.96    3.78
  -1  -6   9   36.82    3.16
  -1  -6   9   34.45    2.59
  -1  -6  10  355.82   10.75
   1  -6 -10  364.04    7.95
  -1  -6  10  338.17    7.90
   1  -6 -10  330.01    8.53
  -1  -6  10  351.06    9.10
   1  -6 -10  361.27    8.69
   1  -6 -11  255.49    7.31
  -1  -6  11  269.11    9.39
   1  -6 -11  248.77    7.26
  -1  -6  11  250.50    6.76
  -1  -6  12  290.98   10.03
  -1  -6  12  285.91    7.29
   1  -6 -12  276.03    7.55
   1  -6 -12  303.98    8.16
  -1  -6  13  356.41   11.03
   1  -6 -13  348.12    8.36
  -1  -6  13  348.94    8.09
  -1  -6  14  374.84   10.99
  -1  -6  14  359.89    8.15
   1  -6 -14  375.68    9.48
  -1  -6  15   74.99    5.11
  -1  -6  15   69.42    3.57
  -1  -6  16   45.80    2.93
   1  -6 -16   46.10    6.23
  -1  -6  17   30.89    2.44
   1  -6 -17   45.03    6.78
  -1  -6  18  443.64    8.90
  -1  -6  19   86.81    5.18
  -1  -6  19   85.15    3.77
  -1  -6  20  157.54    6.65
  -1  -6  20  144.28    4.79
  -1  -6  21    0.78    1.51
  -1  -6  21    0.81    0.84
  -1  -6  22    3.91    1.72
  -1  -6  22    3.59    0.98
  -1  -6  23   36.10    2.96
  -1  -6  23   30.54    2.03
  -1  -6  24   59.53    3.50
  -1  -6  24   55.74    2.49
  -1  -6  25   57.71    3.23
  -1  -6  25   53.60    2.25
  -1  -6  26   39.88    2.51
  -1  -6  26   40.49    2.79
  -1  -6  27    7.75    1.17
  -1  -6  27    8.67    1.45
  -1  -6  28    7.25    0.99
  -1  -6  28    8.21    1.22
  -1  -6  29   47.46    2.18
   1  -7  26   57.12    2.10
   1  -7  26   58.76    1.86
   1  -7  25   38.27    1.92
   1  -7  25   36.92    1.69
   1  -7  24  354.00    5.93
   1  -7  24  368.14    6.62
   1  -7  23  290.95    6.10
   1  -7  23  272.08    5.48
   1  -7  22  368.46    7.66
   1  -7  22  368.67    7.28
   1  -7  21   94.23    3.98
   1  -7  21   94.88    3.79
   1  -7  20  284.78    7.20
   1  -7  20  290.86    6.92
   1  -7  19  294.26    7.53
   1  -7  19  310.74    7.36
   1  -7  18   21.67    2.27
   1  -7  18   21.67    2.15
   1  -7  17   22.33    2.36
   1  -7  17   25.75    2.38
   1  -7  16   93.04    4.47
   1  -7  16   89.67    4.18
   1  -7  15   93.74    4.55
   1  -7  15   97.92    4.38
   1  -7  15   95.08    3.75
   1  -7  14    7.40    1.50
   1  -7  14    6.98    1.43
   1  -7  14    7.53    1.71
   1  -7  13   82.48    4.32
   1  -7  13   88.35    4.00
   1  -7  13   87.37    4.17
   1  -7  12   13.84    2.03
  -1  -7 -12   13.77    4.33
   1  -7  12   14.62    1.92
   1  -7  12   15.24    1.89
   1  -7  11   19.13    2.27
  -1  -7 -11   19.42    3.90
   1  -7  11   18.06    2.16
   1  -7  11   21.42    2.18
   1  -7  10   33.85    2.88
   1  -7  10   38.69    2.95
   1  -7  10   36.68    2.70
  -1  -7 -10   36.85    4.03
  -1  -7  -9  100.13    4.83
   1  -7   9  113.40    4.92
   1  -7   9   98.64    4.67
  -1  -7  -8   87.67    3.83
   1  -7   8   80.68    4.23
   1  -7   8   79.14    4.29
  -1  -7  -8   86.33    4.25
  -1  -7  -7   43.31    3.11
   1  -7   7   41.94    3.02
  -1  -7  -7   46.70    2.91
   1  -7   7   47.78    3.50
  -1  -7  -7   44.67    2.93
  -1  -7  -6  317.90    7.48
   1  -7   6  308.11    8.01
   1  -7   6  326.77    8.80
  -1  -7  -6  319.37    7.79
  -1  -7  -6  322.74    7.49
   1  -7   5  136.52    5.15
   1  -7   5  139.61    5.83
  -1  -7  -5  140.06    5.15
  -1  -7  -5  151.59    5.08
   1  -7   5  128.33    5.19
  -1  -7  -5  144.81    4.97
  -1  -7  -4    9.07    1.56
  -1  -7  -4   11.24    1.74
   1  -7   4    8.30    2.06
   1  -7   4    9.74    1.93
  -1  -7  -4    9.47    1.63
  -1  -7  -3   40.45    2.76
  -1  -7  -3   41.80    3.19
  -1  -7  -3   39.85    2.79
   1  -7   3   44.58    2.91
   1  -7   3   44.54    3.63
  -1  -7  -3   40.78    2.88
  -1  -7  -2  405.34    8.44
  -1  -7  -2  408.07   10.06
  -1  -7  -2  415.02    8.63
  -1  -7  -2  400.65    9.14
   1  -7   2  413.61    8.68
  -1  -7  -1  119.00    4.53
  -1  -7  -1  130.18    5.70
   1  -7   1  129.02    4.77
  -1  -7  -1  128.13    4.75
  -1  -7  -1  121.01    4.95
  -1  -7   0  683.71   11.45
  -1  -7   0  662.20   13.47
   1  -7   0  685.04   12.06
  -1  -7   0  679.50   11.27
   1  -7   0  668.32   13.48
  -1  -7   0  663.81   12.13
   1  -7   0  664.20   11.32
   1  -7  -1  128.76    5.12
  -1  -7   1  124.73    5.74
   1  -7  -1  133.90    4.87
  -1  -7   1  119.42    4.54
   1  -7  -1  139.10    6.05
  -1  -7   1  123.55    5.03
  -1  -7   1  116.59    4.54
  -1  -7   2  406.39    8.46
   1  -7  -2  413.73    9.20
  -1  -7   2  423.64   10.77
   1  -7  -2  398.03    8.52
  -1  -7   2  414.09    8.71
   1  -7  -2  403.30   10.15
  -1  -7   2  406.91    9.34
   1  -7  -3   45.55    3.19
  -1  -7   3   39.00    2.70
  -1  -7   3   38.44    3.41
  -1  -7   3   40.68    2.84
   1  -7  -3   41.23    3.45
  -1  -7   3   39.55    2.97
   1  -7  -3   48.59    3.03
  -1  -7   4    9.91    1.65
   1  -7  -4    8.64    1.83
  -1  -7   4   10.02    2.04
   1  -7  -4    7.74    1.52
  -1  -7   4   10.83    1.76
   1  -7  -4    9.04    2.11
  -1  -7   5  141.44    6.40
   1  -7  -5  148.37    5.10
   1  -7  -5  141.31    5.89
  -1  -7   5  143.58    5.52
   1  -7  -5  145.23    5.38
   1  -7  -6  315.77    7.98
   1  -7  -6  325.69    7.58
   1  -7  -6  323.55    8.78
  -1  -7   6  324.58    8.30
  -1  -7   6  329.51    9.77
  -1  -7   7   49.23    3.94
   1  -7  -7   46.72    2.94
   1  -7  -7   43.85    3.37
  -1  -7   7   44.92    3.15
   1  -7  -7   47.11    3.25
  -1  -7   8   81.49    4.99
   1  -7  -8   90.72    3.92
   1  -7  -8   87.28    4.27
   1  -7  -8   76.82    4.20
  -1  -7   9  111.51    5.75
   1  -7  -9  100.51    4.73
   1  -7  -9  109.57    4.82
  -1  -7  10   36.42    3.51
   1  -7 -10   31.88    2.79
  -1  -7  10   34.58    2.46
   1  -7 -10   35.47    3.42
  -1  -7  11   18.13    2.70
   1  -7 -11   19.59    2.22
  -1  -7  11   20.39    1.97
   1  -7 -11   20.64    3.41
  -1  -7  12   17.69    2.66
   1  -7 -12   18.14    3.97
   1  -7 -12   15.15    1.96
  -1  -7  12   15.66    1.76
   1  -7 -13   92.66    6.27
  -1  -7  13   91.49    5.14
  -1  -7  13   87.06    3.65
   1  -7 -13   89.74    3.99
  -1  -7  14    7.42    2.07
   1  -7 -14    7.01    5.47
  -1  -7  14    7.45    1.32
  -1  -7  15  101.76    5.24
   1  -7 -15  109.13    6.99
  -1  -7  15   90.76    3.59
  -1  -7  16   98.05    5.07
  -1  -7  16   89.85    3.44
  -1  -7  17   24.60    2.67
  -1  -7  17   23.76    1.82
  -1  -7  18   19.72    2.31
  -1  -7  18   21.48    2.52
  -1  -7  18   17.63    1.53
  -1  -7  19  307.21    7.84
  -1  -7  19  281.54    5.58
  -1  -7  20  270.00    5.12
  -1  -7  20  292.31    7.47
  -1  -7  21   90.81    4.02
  -1  -7  21   79.11    2.49
  -1  -7  22  369.70    7.82
  -1  -7  22  384.95    8.03
  -1  -7  23  304.72    6.70
  -1  -7  23  298.26    6.66
  -1  -7  24  392.94    7.14
  -1  -7  24  377.22    7.06
  -1  -7  25   37.41    1.95
  -1  -7  25   41.16    2.13
  -1  -7  26   62.95    2.29
   1  -8  19    9.98    0.87
   1  -8  18   27.43    1.46
   1  -8  17  179.16    3.86
   1  -8  13   37.83    2.13
   1  -8  12   46.95    2.38
   1  -8  12   44.93    2.48
   1  -8  11   31.17    2.22
   1  -8  11   33.40    2.09
   1  -8  10   13.92    1.54
   1  -8  10   13.68    1.72
   1  -8   9  343.73    6.80
  -1  -8  -9  359.49    7.60
   1  -8   9  372.06    7.94
   1  -8   8   35.86    2.30
   1  -8   8   36.49    2.68
  -1  -8  -8   39.96    3.93
  -1  -8  -7  143.01    5.07
   1  -8   7  136.95    4.28
   1  -8   7  132.41    4.99
  -1  -8  -6    6.12    2.56
   1  -8   6    4.69    1.25
   1  -8   6    4.33    1.56
  -1  -8  -5    7.44    2.27
   1  -8   5    8.93    1.83
   1  -8   5    8.50    1.47
  -1  -8  -4  488.76    8.59
   1  -8   4  463.93    8.40
   1  -8   4  481.92   10.04
  -1  -8  -4  494.17    8.59
  -1  -8  -3  142.81    4.55
   1  -8   3  132.81    4.34
   1  -8   3  130.47    5.27
  -1  -8  -3  132.94    4.36
  -1  -8  -2   31.13    2.30
   1  -8   2   29.48    2.24
  -1  -8  -2   27.25    2.21
  -1  -8  -1  288.51    6.33
  -1  -8  -1  299.00    6.65
   1  -8   1  297.32    6.62
   1  -8   0   97.09    3.79
  -1  -8   0   86.97    3.66
   1  -8   0   88.49    4.38
  -1  -8   0   92.09    3.55
   1  -8   0   93.58    3.95
  -1  -8   1  286.72    6.27
   1  -8  -1  294.75    6.90
   1  -8  -1  302.93    6.70
   1  -8  -1  295.85    7.94
  -1  -8   1  293.44    6.68
   1  -8  -2   30.93    2.29
  -1  -8   2   27.39    2.17
   1  -8  -2   26.55    2.73
  -1  -8   2   29.84    2.10
   1  -8  -2   29.97    2.46
   1  -8  -3  133.79    4.69
   1  -8  -3  137.72    4.42
   1  -8  -3  131.60    5.29
  -1  -8   3  133.06    4.38
  -1  -8   3  134.18    4.17
  -1  -8   4  468.33    8.48
   1  -8  -4  467.71    9.92
   1  -8  -4  471.54    8.46
  -1  -8   4  454.23    7.90
   1  -8  -5    6.66    1.69
  -1  -8   5    7.47    1.55
  -1  -8   5    6.87    1.41
   1  -8  -5    8.98    1.81
  -1  -8   5    6.73    1.23
  -1  -8   6    3.92    1.04
   1  -8  -6    4.61    1.80
  -1  -8   6    4.71    1.33
  -1  -8   6    4.02    1.24
   1  -8  -6    3.22    1.46
  -1  -8   7  131.58    3.91
  -1  -8   7  136.71    5.21
  -1  -8   7  137.53    4.34
   1  -8  -7  151.19    5.08
   1  -8  -7  133.42    5.05
  -1  -8   8   35.32    2.82
  -1  -8   8   34.57    2.28
   1  -8  -8   35.99    2.71
   1  -8  -8   44.73    3.47
  -1  -8   8   38.68    2.14
  -1  -8   9  345.38    8.28
  -1  -8   9  345.96    6.92
   1  -8  -9  336.75    7.65
  -1  -8   9  356.00    6.38
  -1  -8  10   11.34    1.24
   1  -8 -10   15.58    3.76
  -1  -8  10   14.15    1.90
  -1  -8  10   11.18    1.46
   1  -8 -10   13.78    1.75
  -1  -8  11   31.51    1.80
   1  -8 -11   35.82    4.48
  -1  -8  11   32.41    2.56
  -1  -8  11   32.07    2.20
  -1  -8  11   33.72    2.15
  -1  -8  12   46.34    2.04
  -1  -8  12   44.10    2.90
  -1  -8  12   45.16    2.41
   1  -8 -12   49.00    5.00
  -1  -8  12   48.17    2.45
  -1  -8  13   38.62    2.66
  -1  -8  13   37.96    2.16
  -1  -8  13   35.34    2.00
  -1  -8  13   36.04    1.74
  -1  -8  14   20.43    1.31
  -1  -8  14   21.92    2.06
  -1  -8  15   45.76    2.69
  -1  -8  15   38.30    1.58
  -1  -8  16   30.39    2.20
  -1  -8  17  186.49    5.03
  -1  -8  18   26.82    1.90
  -1  -8  18   24.77    1.43
  -1  -8  19   12.40    0.96
  -1  -8  19   12.94    1.31
  -1  -8  20    5.61    0.88
  -1  -8  20    5.11    0.62
   1  -9  11   48.98    1.71
   1  -9  10   33.78    1.53
   1  -9   9   28.58    1.49
   1  -9   9   27.27    1.28
   1  -9   8    3.08    0.64
   1  -9   7    3.74    0.69
  -1  -9  -6   91.13    2.99
   1  -9   6   88.85    2.51
   1  -9   5  164.63    3.51
   1  -9   5  171.22    4.34
   1  -9   4   16.56    1.21
  -1  -9  -4   18.18    1.55
   1  -9   4   18.25    1.65
   1  -9   3   62.09    2.18
  -1  -9  -3   70.15    2.89
   1  -9   3   68.11    2.92
  -1  -9  -2  134.79    4.04
  -1  -9  -1  326.99    6.51
  -1  -9  -1  288.00    4.54
  -1  -9   0   24.02    1.90
   1  -9   0   21.37    1.90
  -1  -9   0   19.93    1.57
  -1  -9   1  280.08    4.32
   1  -9  -1  310.23    6.34
   1  -9  -2  136.48    4.08
  -1  -9   2  100.36    2.49
  -1  -9   3   70.37    2.34
  -1  -9   3   67.89    2.84
   1  -9  -3   61.66    2.81
  -1  -9   4   17.16    1.23
  -1  -9   4   18.64    1.57
   1  -9  -4   19.86    1.71
   1  -9  -4   17.56    2.18
  -1  -9   5  181.12    3.69
  -1  -9   5  178.76    4.32
   1  -9  -5  174.28    4.40
   1  -9  -5  172.21    4.46
  -1  -9   6   93.54    2.57
  -1  -9   6   86.87    2.92
   1  -9  -6   98.08    3.62
   1  -9  -7    4.08    2.50
  -1  -9   7    3.82    0.72
  -1  -9   7    4.68    0.84
  -1  -9   8    2.10    0.61
  -1  -9   8    2.64    0.62
  -1  -9   9   28.80    1.34
  -1  -9  10   30.33    1.30
  -1  -9  11   39.29    1.38
   2   0   0 9455.27   68.05
  -2   0   1    5.58    0.77
   2   0  -1    6.22    0.78
   2   0   1    5.54    0.73
  -2   0  -1    6.12    0.81
   2   0   2 1931.27   16.53
   2   0  -2 1993.14   17.17
  -2   0   3  699.67    8.57
   2   0   3  725.85    8.31
   2   0   4  776.20    9.18
  -2   0   4  832.13    9.07
   2   0   4  850.91    8.90
  -2   0   4  798.88    5.99
  -2   0   5 1855.05   16.52
   2   0   5 1800.99   15.93
   2   0   5 1816.41   13.18
   2   0   5 1806.49   16.90
   2   0  -6  852.32    7.50
  -2   0   6  838.70    7.19
  -2   0   6  855.14    8.77
  -2   0   6  767.73    9.19
   2   0   6  837.30    9.06
   2   0   6  784.12    6.98
   2   0   6  765.42    9.66
   2   0   7  787.74    8.42
  -2   0   7  808.54    8.24
  -2   0   7  764.13    9.83
  -2   0   7  797.01    9.10
  -2   0   7  802.98    7.30
   2   0  -7  774.40    7.06
   2   0  -8  140.71    2.14
  -2   0   8  124.85    2.69
  -2   0   8  127.58    3.65
  -2   0   8  127.07    3.18
   2   0   8  127.43    2.91
  -2   0   8  128.52    2.36
   2   0   8  114.82    3.31
   2   0   9 1236.38   12.22
   2   0   9 1207.31   13.47
  -2   0   9 1172.65   12.40
  -2   0   9 1256.72   11.08
  -2   0   9 1218.38   13.86
   2   0  -9 1212.92   10.13
   2   0  10  275.46    4.85
  -2   0  10  301.75    4.50
   2   0  10  279.84    5.57
  -2   0  10  287.94    5.87
  -2   0  10  270.60    4.92
   2   0  10  286.74    4.17
  -2   0  10  277.16    4.19
   2   0 -10  285.91    3.41
   2   0 -11   40.65    1.14
   2   0  11   39.28    2.08
   2   0  11   37.04    1.75
  -2   0  11   41.65    2.26
  -2   0  11   36.78    1.77
   2   0  11   38.94    1.49
  -2   0  11   38.46    1.51
   2   0  12  764.89    9.35
   2   0 -12  726.68    6.83
  -2   0  12  809.58   10.96
  -2   0  12  709.69    9.11
   2   0  12  751.51    8.28
  -2   0  12  730.39    8.35
   2   0  12  699.12    9.98
  -2   0 -12  777.83    9.40
  -2   0  13   53.37    2.20
  -2   0  13   58.03    2.76
   2   0  13   53.69    1.94
   2   0  13   60.46    2.37
  -2   0  13   55.34    2.01
   2   0  13   52.16    2.65
  -2   0 -13   53.23    2.20
   2   0  13   57.99    2.69
   2   0  14   23.79    1.54
  -2   0  14   22.15    1.48
  -2   0  14   22.51    1.81
   2   0  14   22.59    1.34
  -2   0  14   21.10    1.32
  -2   0 -14   19.17    1.38
   2   0  14   19.88    1.70
  -2   0 -14   17.87    1.48
  -2   0  15  868.92   12.39
   2   0  15  901.51   10.24
  -2   0  15  806.01   10.05
   2   0  15  827.58   12.02
  -2   0 -15  836.46   11.37
   2   0  16  559.30    7.99
  -2   0  16  554.28    8.08
   2   0  16  562.07    9.61
  -2   0  17  569.37    8.61
  -2   0 -17  583.97    9.79
   2   0  17  583.10    9.96
  -2   0 -18    3.34    1.07
   2   0  18    2.77    0.94
  -2   0 -19  746.34   12.04
   2   0  19  753.05   11.92
  -2   0 -20  384.87    8.41
   2   0  20  363.20    8.08
   2   0  21  161.09    5.30
  -2   0 -21  144.34    5.21
  -2   0 -22  257.37    7.12
   2   0  22  270.61    7.00
  -2   0 -23   57.47    3.46
   2   0  23   69.76    3.54
  -2   0 -24 1248.37   17.39
   2   0  24 1331.78   17.14
   2   0  25  729.07   14.05
   2   0  25  733.58   11.85
   2   0 -26  651.30   12.16
  -2   0 -26  629.15   12.22
   2   0  26  642.77   13.01
   2   0 -27  294.61    8.08
  -2   0 -27  299.13    8.27
   2   0  27  316.53    8.75
  -2   0 -28  765.48   13.12
   2   0 -28  763.77   13.47
  -2   0 -28  791.32   13.83
   2   0  28  766.23   14.24
   2   0 -29  194.81    6.46
  -2   0 -29  190.80    6.47
   2   0  29  185.89    6.53
  -2   0 -29  194.48    6.18
   2   0 -30   32.14    2.72
  -2   0 -30   33.82    2.83
   2   0  30   30.34    2.67
  -2   0 -30   32.21    2.59
   2   0 -31    1.33    1.18
  -2   0 -31   -0.27    1.19
   2   0 -31   -0.38    1.65
   2   0  31    0.64    1.00
   2   0  31   -0.33    0.86
  -2   0 -31    0.69    1.01
   2   0 -32   36.74    2.65
  -2   0 -32   33.64    2.62
   2   0  32   37.73    2.57
  -2   0  32   33.17    2.23
   2   0 -32   35.30    3.04
  -2   0 -32   31.21    2.33
  -2   0 -33    2.26    1.02
  -2   0 -33    2.03    1.11
   2   0  33    1.61    0.86
  -2   0  33    2.11    0.84
   2   0 -33    2.24    1.38
   2   0 -34    0.14    1.13
  -2   0 -34    0.20    0.80
   2   0  34   -0.13    0.64
  -2   0  34    1.09    0.69
   2   0  35    1.19    0.95
  -2   0 -35    0.59    0.72
   2   0 -35   -0.33    1.15
  -2   0  35   -0.26    0.58
   2   0  36   85.45    3.25
  -2   0  36   74.58    2.35
   2   0  37    4.92    0.91
   2   0 -37    5.60    1.01
  -2  -1 -37   18.79    1.27
   2   1 -37   18.78    1.44
   2  -1  37   16.59    1.25
   2  -1  36   32.10    1.65
  -2   1  36   33.25    1.50
   2   1 -36   42.51    2.42
   2  -1  36   47.28    2.35
   2  -1  35   71.16    2.86
  -2   1  35   66.61    2.44
   2  -1  34    9.18    1.34
  -2   1  34    7.27    1.05
   2  -1  33   27.88    2.34
  -2  -1 -33   24.46    2.17
  -2  -1 -32    2.51    1.32
   2   1 -32    3.24    1.32
   2   1 -32    2.30    1.17
  -2  -1 -32    1.60    1.17
   2  -1  32    3.46    1.39
   2   1 -31  389.06    8.27
   2   1 -31  371.44    8.34
  -2  -1 -31  352.40    8.65
   2  -1  31  379.20    9.23
  -2  -1 -31  378.39    8.62
   2   1 -30  149.27    5.35
  -2  -1 -30  159.29    5.96
   2   1 -30  156.46    5.36
   2  -1  30  156.94    4.98
  -2  -1 -30  145.15    5.55
  -2  -1 -30  135.36    4.05
   2  -1  30  162.44    6.33
  -2  -1 -29  325.20    8.56
   2   1 -29  334.64    7.93
   2  -1  29  299.72    9.02
  -2  -1 -29  311.64    8.50
   2  -1  29  321.17    7.41
   2  -1  29  306.21    7.12
  -2  -1 -29  317.87    6.52
   2  -1  28  198.22    5.81
   2  -1  28  196.47    5.96
  -2  -1 -28  197.14    5.21
  -2  -1 -28  208.25    6.94
  -2  -1 -28  185.63    6.61
   2   1 -28  190.11    6.11
   2   1 -27  940.17   14.31
  -2  -1 -27  912.57   15.35
   2  -1  27  913.43   13.55
   2  -1  27  929.90   14.36
  -2  -1 -27  887.71   12.26
  -2  -1 -27  949.07   15.65
   2   1 -26 1058.72   15.51
  -2  -1 -26 1134.62   17.40
  -2  -1 -26 1067.67   16.84
   2  -1  26 1131.65   16.35
  -2  -1 -26 1122.27   13.96
   2   1 -25   32.80    2.67
  -2  -1 -25   37.07    3.07
  -2  -1 -25   37.15    2.32
   2  -1  25   40.58    2.94
  -2  -1 -25   37.85    3.21
   2   1 -24   33.93    2.68
  -2  -1 -24   38.98    3.05
   2  -1  24   40.63    3.02
  -2  -1 -24   38.21    2.27
  -2  -1 -24   41.72    3.29
  -2  -1 -23   86.51    4.33
   2   1 -23   80.11    3.86
   2  -1  23   86.62    4.23
  -2  -1 -23   80.39    3.15
  -2  -1 -23   81.27    4.35
  -2  -1 -22   81.80    4.12
   2  -1  22   93.86    4.36
  -2  -1 -22   90.73    3.26
   2   1 -22   88.14    3.97
  -2  -1 -22   87.77    4.21
  -2  -1 -21   36.00    2.04
   2   1 -21   37.31    2.61
  -2  -1 -21   36.17    2.72
   2  -1  21   36.37    2.80
  -2  -1 -21   31.98    2.63
   2   1 -20  404.89    8.31
  -2  -1 -20  386.59    8.52
   2  -1  20  399.65    9.02
  -2  -1 -20  365.45    6.57
  -2  -1 -20  364.21    8.40
   2   1 -19  410.64    8.25
  -2  -1 -19  394.92    8.37
   2   1 -18  479.18    8.71
   2  -1  18  473.93    9.60
  -2  -1 -17   60.59    3.01
  -2  -1 -17   55.91    3.01
   2  -1  17   65.03    3.39
   2   1 -17   61.74    2.97
   2   1 -16  475.30    8.34
   2   1 -16  502.68    8.22
  -2  -1 -16  439.54    8.19
   2  -1  16  511.11    9.66
  -2  -1 -16  423.18    8.20
  -2   1  16  443.35    7.23
  -2  -1 -15  992.52   13.32
  -2   1  15 1118.35   12.28
   2   1 -15 1141.40   13.67
  -2  -1 -15 1005.04   13.22
   2  -1  15 1024.37   14.80
   2  -1  15 1079.46   12.24
   2   1 -14  723.72    9.86
  -2  -1 -14  657.95   10.26
   2  -1  14  671.64    9.27
  -2   1  14  627.18   10.41
   2   1 -14  659.32    9.68
  -2   1  14  682.60    8.72
  -2   1  14  759.90    9.47
   2   1 -14  712.19    8.14
  -2  -1 -14  693.55    9.12
   2  -1  14  673.60   11.08
   2  -1  14  684.88    8.82
   2  -1  14  680.39   10.36
   2  -1  13  898.36   10.92
   2   1 -13 1046.99   10.24
   2  -1  13  912.01   12.11
   2   1 -13  945.59   11.44
  -2   1  13  927.82   12.72
  -2   1  13  932.69   10.74
  -2   1  13 1008.90   11.12
   2  -1  13  931.49   13.07
  -2  -1 -13  970.69   10.96
   2  -1  13  891.21   10.39
  -2  -1 -13  769.18   11.58
   2  -1  12  527.93    7.68
  -2   1  12  586.70    9.30
   2   1 -12  519.93    7.91
  -2   1  12  574.16    7.80
  -2   1  12  538.87    7.52
   2  -1  12  553.43    9.38
   2  -1  12  522.27    7.07
  -2  -1 -12  539.00    7.57
   2  -1  12  500.60    8.29
   2   1 -12  637.54    7.18
  -2  -1 -12  493.96    8.39
  -2  -1 -11   18.77    1.29
   2  -1  11   17.18    1.42
  -2   1  11   17.43    1.53
  -2   1  11   17.05    1.23
  -2   1  11   16.26    1.15
   2  -1  11   18.05    1.26
   2  -1  11   15.09    1.05
   2  -1  11   15.19    1.56
   2   1 -11   19.82    1.13
   2  -1  10 2638.79   22.48
  -2   1  10 2767.65   22.42
  -2   1  10 2832.78   22.74
   2  -1  10 2669.16   24.17
  -2   1  10 2731.61   24.87
  -2   1  10 2576.38   22.57
   2   1 -10 2695.49   21.68
   2  -1  10 2503.04   21.49
   2   1  -9  488.42    6.08
   2  -1   9  456.77    6.40
  -2   1   9  474.13    6.62
  -2   1   9  493.21    6.70
  -2   1   9  497.67    6.43
   2  -1   9  441.60    5.76
   2  -1   9  489.54    7.50
  -2   1   8  826.73    9.29
  -2   1   8  816.60    9.32
   2  -1   8  774.84    8.13
  -2   1   8  798.66    8.69
   2  -1   8  798.16    9.96
   2  -1   8  830.32    9.11
   2  -1   7 1482.15   13.45
  -2   1   7 1365.50   12.81
  -2   1   7 1580.68   14.08
  -2   1   7 1305.30   14.76
  -2   1   7 1490.11   14.01
   2   1  -7 1534.28   13.43
   2  -1   7 1445.34   14.72
   2  -1   6  414.59    5.47
  -2   1   6  406.88    5.95
  -2   1   6  422.68    6.12
  -2   1   6  429.17    6.69
   2   1  -6  409.09    6.70
  -2   1   6  427.69    5.18
   2  -1   6  422.11    6.46
   2  -1   5 2587.07   20.20
  -2   1   5 2642.45   21.59
  -2   1   5 2727.90   21.77
   2  -1   5 2411.50   19.03
  -2   1   5 2375.43   22.03
   2  -1   5 2469.67   21.72
   2  -1   4 1709.47   16.47
  -2   1   4 1781.50   16.75
  -2   1   4 1794.54   16.44
  -2   1   4 1891.78   17.44
   2  -1   4 1828.31   15.12
  -2   1   4 1864.38   14.28
   2  -1   4 1814.60   14.13
   2  -1   3  535.24    5.76
  -2   1   3  495.08    7.06
  -2   1   3  510.45    4.86
  -2   1   3  484.75    6.83
  -2   1   3  554.24    7.21
  -2   1   2  118.49    3.06
   2   1  -2   96.77    2.90
  -2   1   2  103.13    1.51
  -2   1   2  117.16    3.02
  -2   1   1 1395.50   12.96
   2   1  -1 1178.94   12.88
  -2  -1  -1 1386.25   13.20
  -2   1   1 1225.22    9.34
  -2   1   1 1325.95   12.71
   2   1   0  221.03    4.18
  -2   1   0  231.95    1.60
  -2  -1   0  269.86    4.37
  -2   1   0  256.30    4.28
  -2   1  -1 1270.66    9.29
   2  -1  -1 1273.02   10.02
  -2   1  -1 1252.00   12.71
  -2   1  -2  107.33    1.55
   2  -1  -2  106.63    1.58
  -2  -1   3  492.00    6.76
   2  -1  -3  525.18    4.29
  -2   1  -3  501.93    4.88
  -2  -1   3  512.56    6.93
   2   1   4 1940.84   14.51
  -2  -1   4 1825.61   14.37
  -2  -1   4 1879.51   17.02
  -2  -1   4 1735.16   16.38
   2   1   4 1832.85   17.15
  -2  -1   5 2578.32   21.37
  -2  -1   5 2510.50   19.15
   2   1   6  428.74    6.64
  -2  -1   6  448.04    4.97
  -2  -1   6  433.68    6.24
  -2  -1   6  446.85    5.04
  -2  -1   7 1520.91   12.16
  -2  -1   7 1377.75   12.54
  -2  -1   7 1442.32   13.96
   2   1   7 1559.03   15.24
   2   1   8  852.22   10.33
  -2  -1   8  877.26    7.79
  -2  -1   8  804.74    8.43
  -2  -1   8  809.58    9.38
   2   1   9  471.07    6.16
   2   1   9  452.44    7.24
  -2  -1   9  459.39    6.54
  -2  -1  10 2664.05   23.14
   2   1  10 2766.20   22.56
  -2  -1  10 2815.75   22.43
   2   1  10 2655.67   24.47
  -2  -1  11   19.24    1.31
  -2  -1  11   17.78    1.17
   2   1  11   17.91    1.32
   2   1  11   17.68    1.44
  -2   1 -11   16.51    1.25
  -2  -1  12  600.14    8.00
   2  -1 -12  549.14    7.96
   2   1  12  577.81    7.46
  -2  -1  12  558.89    7.44
  -2   1 -12  597.21    7.86
   2   1  12  534.93    8.59
   2  -1 -13  916.70   11.14
  -2  -1  13  938.11   10.81
   2   1  13  984.89   13.00
   2   1  13  921.98   10.25
  -2   1 -13  956.38   11.02
  -2  -1  13  866.64   10.28
   2   1  13  884.68   11.96
   2  -1 -14  711.09    9.73
   2   1  14  676.37    8.51
  -2  -1  14  705.99    9.23
   2   1  14  697.09   10.89
  -2   1 -14  697.49    9.16
   2   1  14  671.33    9.89
   2   1  14  659.48   10.28
  -2  -1  14  641.33    8.70
   2  -1 -14  666.31    9.57
   2   1  15 1101.99   12.15
   2   1  15 1080.75   13.55
  -2  -1  15 1084.15   12.39
   2  -1 -16  482.26    8.48
  -2  -1  16  455.94    7.45
   2  -1 -16  509.98    8.33
   2   1  16  524.28    9.56
   2   1  16  476.72    8.33
   2  -1 -16  470.30    8.26
   2  -1 -17   60.11    2.98
   2  -1 -17   68.21    3.10
   2   1  17   62.04    2.90
   2   1  17   61.59    3.30
  -2   1 -18  428.10    8.01
   2  -1 -18  477.96    8.65
   2  -1 -18  455.88    8.77
   2   1  18  426.58    9.17
   2   1  18  465.82    8.39
   2  -1 -19  425.89    8.29
   2  -1 -19  407.93    8.49
   2   1  19  397.48    9.06
  -2   1 -19  381.29    7.73
   2  -1 -20  405.65    8.31
   2  -1 -20  404.26    8.69
   2   1  20  395.04    9.04
   2   1  21   35.94    2.80
   2  -1 -21   37.97    2.61
  -2   1 -21   34.04    2.45
   2  -1 -21   35.65    2.67
   2  -1 -22   86.95    3.92
   2  -1 -22   91.69    4.27
   2   1  22   85.37    4.25
  -2   1 -22   80.06    3.66
   2   1  23   79.52    4.28
   2  -1 -23   83.11    3.85
   2  -1 -23   88.04    4.29
  -2   1 -23   75.40    3.61
   2  -1 -24   42.28    3.16
   2   1  24   41.40    3.13
   2  -1 -24   37.75    2.77
  -2   1 -24   37.03    2.58
   2  -1 -25   38.48    2.81
   2   1  25   35.75    2.87
  -2   1 -25   32.21    2.34
   2  -1 -26 1089.05   15.50
   2  -1 -26 1138.72   17.07
   2   1  26 1145.09   16.55
  -2   1 -27  793.26   12.51
   2   1  27 1001.90   15.04
   2  -1 -27  945.29   14.29
   2  -1 -27  938.88   15.43
  -2  -1  27  861.98   13.63
   2  -1 -28  178.77    5.98
   2  -1 -28  199.15    6.78
   2   1  28  207.62    6.33
  -2  -1  28  204.17    6.01
  -2   1 -28  167.41    5.33
  -2   1 -29  277.17    6.77
   2  -1 -29  313.80    7.72
   2  -1 -29  359.37    9.33
   2  -1 -29  308.85    8.36
   2   1  29  332.74    7.80
  -2  -1  29  350.92    7.78
  -2   1 -30  152.62    5.50
   2  -1 -30  159.88    5.87
   2   1  30  159.74    5.07
   2  -1 -30  158.76    5.39
  -2  -1  30  156.19    5.07
   2  -1 -30  172.36    6.32
   2  -1 -31  383.64    8.30
  -2   1 -31  357.24    8.23
  -2  -1  31  346.09    7.51
   2  -1 -31  420.72    9.55
   2  -1 -31  365.56    8.68
  -2   1 -31  317.61    6.69
   2  -1 -32    3.01    1.36
  -2   1 -32    3.41    1.19
   2  -1 -32    4.48    1.35
  -2  -1  32    4.18    1.08
   2  -1 -32    3.87    1.57
   2  -1 -33   24.56    2.39
  -2   1 -33   23.98    2.04
  -2  -1  33   22.85    1.76
  -2   1 -34    6.16    1.17
  -2  -1  34    7.49    1.09
   2  -1 -34    6.94    1.51
  -2   1 -35   65.07    2.68
  -2  -1  35   66.30    2.44
   2  -1 -35   74.54    3.24
   2   1  35   77.10    3.24
   2   1  36   45.38    2.22
   2  -1 -36   46.95    2.37
  -2   1 -37   19.22    1.25
   2  -1 -37   17.67    1.32
   2   1  37   17.81    1.28
   2   2 -36   19.53    1.48
   2  -2  36   17.50    1.31
   2  -2  35   98.19    3.39
   2   2 -35   96.43    3.46
   2   2 -34  143.62    4.68
   2  -2  34  133.36    4.01
   2  -2  34  142.26    4.60
   2  -2  33   45.10    2.90
   2   2 -33   47.96    3.02
   2  -2  33   39.74    2.47
   2  -2  32  129.32    5.03
  -2  -2 -32  114.34    3.55
   2  -2  31   65.81    3.92
   2  -2  31   58.96    2.87
  -2  -2 -31   56.91    2.71
   2  -2  30  145.00    5.90
  -2  -2 -30  143.82    5.63
   2  -2  30  141.34    4.81
  -2  -2 -30  136.04    4.28
   2   2 -29  143.82    4.95
  -2  -2 -29  137.47    5.64
   2  -2  29  138.11    4.72
  -2  -2 -29  136.30    5.66
   2  -2  29  150.63    5.29
  -2  -2 -29  145.35    4.53
  -2  -2 -28  667.79   10.54
   2   2 -28  670.44   11.40
  -2  -2 -28  657.98   13.00
  -2  -2 -28  703.05   13.32
   2  -2  28  655.65   11.11
   2  -2  28  725.06   12.60
   2   2 -27  128.50    4.89
  -2  -2 -27  133.09    5.74
   2  -2  27  138.04    4.87
   2  -2  27  133.69    5.36
  -2  -2 -27  137.63    4.53
   2   2 -26  483.11    9.68
  -2  -2 -26  452.75   10.71
   2  -2  26  450.26    9.13
   2  -2  26  477.55   10.55
  -2  -2 -26  441.50    8.39
  -2  -2 -26  463.17   11.06
   2   2 -25  594.33   11.06
  -2  -2 -25  600.03   12.48
   2  -2  25  619.44   10.85
   2  -2  25  617.46   12.20
  -2  -2 -25  600.16    9.90
   2   2 -24  489.62    9.82
  -2  -2 -24  480.24   10.93
   2  -2  24  499.02    9.56
   2  -2  24  517.11   11.11
  -2  -2 -24  502.85    8.86
  -2  -2 -24  491.08   11.39
  -2  -2 -23 1196.21   18.21
   2  -2  23 1195.37   16.09
   2  -2  23 1254.64   18.50
  -2  -2 -23 1191.56   14.91
  -2  -2 -23 1211.81   18.75
   2   2 -22  309.35    7.51
  -2  -2 -22  275.89    7.99
   2  -2  22  301.33    7.07
   2  -2  22  305.09    8.42
  -2  -2 -22  285.78    6.38
  -2  -2 -22  318.42    8.84
   2   2 -21   83.84    3.86
  -2  -2 -21   81.25    4.22
   2  -2  21   85.10    3.66
  -2  -2 -21   97.24    4.85
   2  -2  21   90.84    4.54
  -2  -2 -20  429.36   10.11
   2   2 -20  452.61    8.93
  -2  -2 -20  420.09    9.55
   2  -2  20  437.73    8.40
   2  -2  20  435.91   10.05
   2   2 -19  322.83    7.31
  -2  -2 -19  288.46    7.66
   2  -2  19  301.68    6.69
   2  -2  19  309.81    8.28
  -2  -2 -19  290.66    8.14
  -2  -2 -18   54.78    3.53
   2   2 -18   51.73    2.85
  -2  -2 -18   48.45    3.07
   2  -2  18   49.69    2.62
   2  -2  18   55.40    3.46
   2   2 -17  421.17    8.02
   2  -2  17  397.08    9.32
   2  -2  17  401.99    7.48
   2  -2  17  426.86    9.61
  -2  -2 -17  435.08    9.54
   2   2 -16  225.83    5.67
  -2  -2 -16  230.32    6.27
   2  -2  16  242.43    5.50
  -2  -2 -16  232.39    6.74
   2   2 -15  362.70    7.10
   2  -2  15  384.93    8.78
  -2  -2 -15  377.25    8.35
   2   2 -14   69.47    2.91
   2  -2  14   62.15    3.48
  -2  -2 -14   63.25    3.08
  -2   2  14   62.75    2.90
   2  -2  14   64.91    2.71
  -2  -2 -14   72.25    3.54
   2   2 -13  576.85    8.48
   2  -2  13  599.37    8.46
   2  -2  13  587.67   10.72
   2  -2  13  563.97    8.32
  -2  -2 -13  552.73    9.39
  -2   2  13  593.42    8.24
  -2   2  13  582.82    9.17
  -2  -2 -13  595.66    8.05
  -2  -2 -13  597.17   10.26
   2   2 -13  637.93    8.53
   2  -2  13  571.20    9.15
   2   2 -12  233.09    4.73
   2   2 -12  202.60    4.64
   2  -2  12  195.55    4.46
   2  -2  12  211.37    6.04
  -2   2  12  225.39    4.47
   2  -2  12  213.21    4.80
  -2  -2 -12  219.62    5.76
  -2  -2 -12  195.15    4.17
   2  -2  12  196.60    4.90
   2  -2  11   90.56    2.92
   2   2 -11   97.92    3.00
  -2  -2 -11   93.48    3.63
   2   2 -11   87.24    2.88
  -2   2  11   93.88    3.69
   2  -2  11   83.49    2.73
   2  -2  11   93.61    3.89
  -2   2  11   94.11    2.75
   2  -2  11   89.88    3.81
  -2  -2 -11   84.23    2.58
   2   2 -11   88.62    3.17
   2  -2  11   81.60    2.98
   2   2 -10  693.99    8.93
  -2   2  10  728.88    9.38
   2  -2  10  664.99    9.35
  -2   2  10  761.49   10.97
   2  -2  10  686.64    8.80
  -2   2  10  693.26    8.52
   2  -2  10  718.34   11.29
   2  -2  10  699.45    8.99
   2  -2  10  738.29   11.34
  -2  -2 -10  745.32    8.73
   2   2 -10  710.20    9.34
  -2  -2 -10  668.61   10.38
   2   2  -9  669.66    8.59
   2  -2   9  679.68    8.43
  -2   2   9  618.51    8.45
  -2   2   9  704.85   10.26
   2   2  -9  622.95    9.43
  -2   2   9  625.97    7.88
   2  -2   9  637.64   10.38
   2   2  -9  631.84    8.40
   2  -2   9  652.18   10.34
   2  -2   9  633.16    8.01
   2  -2   9  654.39    8.92
   2   2  -8  338.45    5.71
   2  -2   8  331.50    5.33
   2  -2   8  317.39    5.68
   2   2  -8  298.82    5.03
  -2   2   8  326.12    5.64
   2  -2   8  324.21    5.26
   2   2  -8  319.18    6.26
  -2   2   8  328.51    6.52
  -2   2   8  316.79    5.07
   2  -2   8  316.53    6.73
   2   2  -7 2752.90   23.86
   2  -2   7 2741.48   22.97
  -2   2   7 3062.26   24.39
   2   2  -7 2730.12   25.09
  -2   2   7 3026.77   25.91
  -2   2   7 2690.62   22.83
   2   2  -7 2637.89   22.58
  -2   2   7 2690.23   23.29
   2  -2   7 2972.48   23.34
   2  -2   7 2767.14   23.98
   2  -2   6   55.66    2.15
   2  -2   6   67.24    2.09
   2   2  -6   58.81    1.78
   2   2  -6   55.02    2.44
  -2   2   6   60.75    2.58
  -2   2   6   63.79    2.14
  -2   2   6   64.36    2.13
   2  -2   6   61.84    2.04
  -2   2   5 1032.88   11.15
   2  -2   5 1018.42   10.16
  -2   2   5 1045.89   10.31
  -2   2   5  937.11   11.00
  -2   2   5  969.84   10.41
   2   2  -5  989.17   11.92
  -2   2   5  878.25   11.37
   2   2  -5 1016.94    9.53
   2  -2   5 1081.78   10.33
  -2   2   4  260.86    4.94
  -2   2   4  228.77    3.93
  -2   2   4  263.71    4.52
   2   2  -4  223.09    4.92
  -2   2   4  251.76    4.97
   2   2  -4  222.66    3.46
   2  -2   4  239.49    3.89
  -2   2   4  236.46    4.54
   2  -2   3 1274.65   11.29
  -2   2   3 1193.43   12.06
   2   2  -3 1188.50   13.40
  -2   2   3 1104.43   12.60
  -2   2   3 1198.47   12.87
  -2   2   3 1249.53   11.38
   2   2  -3 1225.53   10.81
  -2   2   3 1355.12   12.95
  -2   2   2 1493.47   13.86
   2   2  -2 1425.86   12.15
  -2   2   2 1450.02   14.27
  -2   2   2 1493.70   13.95
  -2   2   1  918.42    9.96
  -2   2   1  915.33   10.14
  -2   2   1  914.87   10.07
   2   2  -1  928.90    8.57
  -2   2   0 2285.13   20.06
  -2   2   0 2308.38   18.48
  -2   2  -1  867.75    9.52
  -2  -2   1  874.00    9.61
  -2   2  -2 1460.72   12.62
  -2   2  -2 1445.88   13.62
  -2  -2   2 1426.22   14.21
   2   2   3 1270.89   11.39
  -2   2  -3 1268.66   10.94
  -2  -2   4  229.17    4.15
   2   2   4  234.64    3.93
  -2   2  -4  233.74    3.55
  -2  -2   4  237.19    4.45
  -2  -2   5 1123.35   11.58
   2   2   5 1076.61   10.60
  -2  -2   5 1045.61   10.85
  -2   2  -5 1002.88    9.84
  -2  -2   5 1104.22   10.81
   2   2   6   59.86    2.28
  -2   2  -6   54.98    1.71
  -2  -2   6   62.53    2.08
  -2  -2   6   61.52    2.07
   2   2   6   62.64    2.08
  -2   2  -7 2785.42   22.69
   2   2   7 2757.90   23.20
   2   2   7 2747.28   24.00
  -2  -2   8  323.63    5.34
   2   2   8  315.33    5.71
  -2  -2   9  629.85    8.09
  -2   2  -9  628.54    8.35
   2   2   9  607.26    8.77
  -2  -2  10  688.86    8.88
  -2  -2  10  697.66   10.65
  -2   2 -10  716.95    8.65
  -2  -2  10  739.93    8.78
   2   2  10  669.73    9.41
  -2   2 -10  706.71    9.36
  -2   2 -11   88.06    3.06
   2  -2 -11   91.59    2.91
  -2  -2  11   84.43    2.79
  -2  -2  11   90.20    2.73
  -2  -2  11   85.10    3.45
  -2   2 -11   93.16    2.79
   2   2  11   89.68    3.15
  -2  -2  12  215.59    4.72
   2  -2 -12  205.66    4.54
  -2  -2  12  203.30    5.54
  -2   2 -12  208.29    4.39
   2   2  12  210.96    5.15
   2  -2 -13  676.26    9.09
   2  -2 -13  563.30    8.58
  -2  -2  13  555.14    8.42
   2   2  13  559.27    9.09
  -2  -2  13  661.40    8.73
   2   2  13  670.15    9.68
  -2  -2  13  529.00    9.47
  -2   2 -13  605.56    8.22
   2   2  13  601.57    9.58
   2  -2 -14   76.61    3.03
   2  -2 -14   74.40    2.86
  -2  -2  14   68.35    2.82
   2  -2 -14   67.09    3.11
   2   2  14   65.14    2.94
  -2  -2  14   74.34    3.33
   2   2  14   70.36    3.21
   2  -2 -15  372.38    7.13
   2  -2 -15  385.83    7.90
   2   2  15  367.22    7.37
  -2  -2  15  388.85    7.08
   2  -2 -16  251.39    5.87
   2  -2 -16  237.69    6.33
   2   2  16  242.34    5.94
  -2  -2  16  252.47    5.76
   2  -2 -17  375.03    7.51
   2  -2 -17  396.50    8.49
   2   2  17  391.05    7.82
  -2  -2  17  366.02    7.33
   2  -2 -18   50.93    2.78
  -2  -2  18   51.33    3.14
   2  -2 -18   46.92    3.01
   2   2  18   53.07    2.84
  -2  -2  18   45.70    2.58
   2  -2 -19  301.70    6.96
   2  -2 -19  297.26    7.76
   2   2  19  304.81    7.01
   2  -2 -20  447.41    8.70
   2  -2 -20  449.11    9.71
  -2  -2  20  423.04    8.40
   2  -2 -21   85.02    3.79
   2  -2 -21   82.74    4.25
  -2  -2  21   91.40    3.88
   2  -2 -22  315.47    7.40
   2  -2 -22  295.85    8.12
   2  -2 -23 1203.69   18.10
  -2  -2  23 1243.79   16.56
   2  -2 -24  467.88    9.51
  -2  -2  24  481.68    9.67
   2  -2 -24  502.13   10.99
   2  -2 -25  612.99   12.43
  -2  -2  25  604.42   10.98
   2  -2 -25  584.65   12.05
   2  -2 -26  451.59    9.28
   2  -2 -26  461.70   10.66
   2  -2 -26  480.45   10.59
   2  -2 -27  141.20    5.04
   2  -2 -27  139.16    4.88
   2  -2 -27  134.10    5.69
  -2  -2  27  138.50    5.03
   2  -2 -27  140.23    5.68
   2  -2 -28  677.83   12.62
   2  -2 -28  655.45   11.25
   2  -2 -28  670.73   12.99
  -2  -2  28  687.05   11.51
   2  -2 -29  135.28    4.83
   2  -2 -29  150.97    4.74
   2  -2 -29  155.25    5.93
  -2  -2  29  136.21    4.81
   2  -2 -29  154.66    5.74
  -2  -2  30  136.18    4.67
   2  -2 -30  149.27    5.46
  -2  -2  31   56.94    2.89
   2  -2 -31   57.45    3.36
  -2  -2  32  121.00    3.98
   2  -2 -32  127.34    4.63
  -2   2 -33   40.50    2.37
  -2  -2  33   41.17    2.20
   2  -2 -33   38.71    2.53
   2   2  33   45.59    2.61
   2  -2 -34  139.15    4.24
   2   2  34  134.56    4.09
  -2   2 -35   87.88    2.66
   2   2  35   91.40    3.00
  -2   2 -36   18.72    1.10
   2   2  36   16.85    1.14
   2  -3  35    2.60    0.75
   2   3 -35    1.53    0.55
   2  -3  34  207.24    5.07
   2   3 -34  178.78    4.27
   2   3 -33   53.86    2.65
   2  -3  33   34.79    1.78
   2  -3  32   88.49    3.23
  -2  -3 -32   85.48    3.07
   2  -3  31  107.65    3.96
  -2  -3 -31  116.56    3.79
   2  -3  30   13.56    1.73
  -2  -3 -30   13.97    1.69
   2  -3  29  109.61    4.58
  -2  -3 -29  112.37    4.05
   2  -3  28  117.81    4.35
   2  -3  28  133.51    5.33
  -2  -3 -28  130.19    4.48
   2  -3  28  119.79    4.50
   2  -3  27   86.40    3.84
   2  -3  27   90.29    4.49
  -2  -3 -27   88.12    3.78
   2  -3  26   24.46    2.14
   2  -3  26   23.95    2.70
  -2  -3 -26   28.96    2.38
   2  -3  25   38.92    2.69
   2  -3  25   37.77    3.16
  -2  -3 -25   41.28    2.75
   2  -3  24    6.64    1.36
   2  -3  24    7.28    1.87
  -2  -3 -24    7.64    1.54
  -2  -3 -23  656.96   10.63
   2  -3  23  633.52   11.21
   2  -3  23  671.59   13.18
   2   3 -22  181.96    5.51
   2  -3  22  179.45    5.68
   2  -3  22  184.76    6.75
   2   3 -21  287.67    6.93
   2  -3  21  274.02    6.98
   2  -3  21  292.83    8.56
   2   3 -20  176.26    5.29
   2  -3  20  178.95    5.51
   2  -3  20  183.12    6.72
   2   3 -19  799.62   11.93
   2  -3  19  815.81   12.44
   2  -3  19  789.95   14.59
   2   3 -18  304.81    6.76
   2  -3  18  294.99    6.95
  -2  -3 -18  288.30    8.36
   2   3 -17   98.13    3.68
   2  -3  17   93.76    3.79
  -2  -3 -17  107.09    4.93
   2  -3  16   85.56    4.51
   2  -3  16   80.53    3.43
  -2  -3 -16   85.33    4.43
  -2  -3 -15  111.56    4.91
   2  -3  15  112.20    4.99
   2  -3  15  107.22    3.89
   2  -3  15  108.29    4.96
   2  -3  14  443.84    9.96
   2  -3  14  441.36    9.91
  -2  -3 -14  435.43    9.52
   2  -3  13  230.02    5.37
   2  -3  13  216.87    6.73
   2  -3  13  226.30    6.84
   2  -3  12  305.95    6.26
   2  -3  12  316.51    8.01
   2  -3  12  309.13    7.87
   2  -3  11  853.97   10.85
   2  -3  11  829.95   13.23
  -2   3  11  796.27    9.53
   2  -3  11  781.93   12.75
   2  -3  11  788.08   11.44
  -2   3  11  758.55   11.04
   2  -3  10   86.19    3.13
   2  -3  10   86.73    3.11
   2  -3  10   81.70    3.15
   2   3 -10   82.48    3.37
   2  -3  10   82.61    3.87
  -2   3  10   74.91    2.41
   2   3 -10   82.47    2.99
  -2   3  10   79.24    3.08
   2  -3  10   81.51    3.79
   2  -3  10   82.44    3.42
   2  -3   9  140.70    3.89
   2  -3   9  143.78    4.10
   2  -3   9  147.78    4.05
   2   3  -9  144.19    4.41
   2   3  -9  139.11    3.55
   2  -3   9  142.61    4.95
  -2   3   9  140.48    3.22
   2  -3   9  146.59    4.95
   2  -3   9  141.70    4.46
  -2   3   8  664.10    8.98
   2  -3   8  718.93    9.41
   2   3  -8  751.57   10.13
  -2   3   8  682.68    9.68
   2  -3   8  725.88    9.77
   2   3  -8  707.05   10.49
   2   3  -8  719.06    8.89
   2  -3   8  718.30   11.54
  -2   3   8  620.31    7.86
   2  -3   8  739.03    9.91
   2  -3   8  662.94   10.96
   2  -3   8  737.54   10.89
  -2  -3  -8  754.79    8.30
   2  -3   7  224.55    4.97
   2   3  -7  229.03    5.23
  -2   3   7  215.50    4.82
   2  -3   7  229.31    5.06
   2  -3   7  228.94    4.69
   2   3  -7  216.15    5.32
  -2   3   7  224.84    4.63
  -2   3   7  234.66    4.14
   2  -3   7  221.85    5.97
   2  -3   7  228.38    5.71
   2  -3   7  213.26    5.68
   2   3  -7  232.82    4.45
  -2  -3  -7  242.11    4.08
   2  -3   6  730.92    8.89
   2   3  -6  639.42    9.46
  -2   3   6  630.12    8.79
  -2   3   6  579.06    8.71
   2   3  -6  657.27    9.93
  -2   3   6  671.17    7.64
   2  -3   6  673.86   10.54
   2   3  -6  618.91    7.95
   2  -3   6  658.02   10.27
   2  -3   6  610.86   10.06
  -2   3   6  635.70    8.36
  -2   3   5 1613.49   16.43
   2   3  -5 1572.22   17.50
  -2   3   5 1496.12   15.56
  -2   3   5 1660.80   14.55
   2  -3   5 1549.17   17.65
   2   3  -5 1736.33   15.37
   2  -3   5 1520.93   17.83
   2  -3   5 1542.01   17.41
  -2   3   5 1634.03   15.38
  -2   3   4  221.15    4.82
   2   3  -4  231.99    5.54
  -2   3   4  242.87    5.26
  -2   3   4  214.06    3.82
  -2   3   4  211.89    4.47
   2   3  -4  236.39    4.39
   2  -3   4  233.39    5.83
  -2   3   4  230.61    4.44
   2   3  -3  818.91    9.07
  -2   3   3  769.26    9.87
  -2   3   3  772.28    8.30
  -2   3   3  707.64    9.62
  -2   3   3  672.27    8.81
   2  -3   3  759.40   11.24
  -2   3   3  711.68    8.72
  -2   3   2 1978.20   18.68
  -2   3   2 1871.47   16.46
  -2   3   2 1806.44   17.90
  -2   3   2 1873.62   17.54
   2  -3   2 1940.78   20.50
   2   3  -2 1930.01   17.20
  -2   3   1 1321.41   12.99
  -2   3   1 1339.54   14.78
  -2   3   1 1343.30   14.03
  -2   3   1 1406.43   13.87
   2   3  -1 1515.13   13.97
  -2  -3  -1 1494.83   13.47
  -2   3   0  548.30    6.98
  -2  -3   0  613.23    7.21
  -2   3   0  550.83    8.26
  -2   3   0  648.70    8.03
   2  -3   0  580.84    9.68
  -2   3   0  578.15    7.57
   2   3   0  612.10    7.76
  -2   3  -1 1415.19   13.46
  -2  -3   1 1498.86   13.40
  -2   3  -1 1341.81   13.51
   2   3   1 1457.50   14.10
   2  -3  -1 1485.57   17.01
  -2   3  -1 1353.58   13.60
  -2  -3   2 1972.46   16.83
  -2   3  -2 1925.63   17.04
   2   3   2 1919.25   17.82
  -2   3  -2 1975.50   17.45
  -2  -3   3  706.77    7.95
   2   3   3  726.87    8.93
  -2  -3   3  722.29   11.58
   2  -3  -3  717.39   10.83
  -2   3  -3  737.04    8.62
  -2  -3   3  732.01    8.66
  -2  -3   4  247.25    4.08
  -2  -3   4  231.62    4.42
  -2   3  -4  241.87    4.46
   2   3   4  236.44    4.65
  -2  -3   4  223.99    6.14
   2  -3  -4  214.09    5.56
   2   3   5 1733.50   16.51
  -2  -3   5 1716.36   15.11
  -2   3  -5 1674.22   15.71
  -2  -3   5 1684.32   19.63
  -2  -3   5 1717.98   15.94
   2   3   6  683.02    9.07
  -2  -3   6  669.73    7.72
  -2   3  -6  668.68    8.28
   2  -3  -6  662.08   10.29
  -2  -3   6  665.66    8.52
   2   3   7  235.33    5.04
  -2  -3   7  236.69    4.12
   2  -3  -7  228.44    5.69
  -2   3  -7  224.90    4.41
  -2   3  -7  237.35    4.15
  -2  -3   7  239.27    5.23
  -2  -3   7  247.78    4.80
   2   3   8  722.19    9.93
   2  -3  -8  711.89    9.95
  -2  -3   8  750.81    8.39
  -2  -3   8  641.86   11.45
   2  -3  -8  692.18   10.59
  -2   3  -8  723.67    8.25
  -2   3  -8  667.07    8.70
  -2  -3   8  742.23   10.07
  -2  -3   8  736.39    9.37
   2   3   9  136.54    3.69
   2   3   9  140.73    4.07
  -2  -3   9  140.96    4.12
   2  -3  -9  135.81    3.99
  -2   3  -9  125.00    3.38
  -2  -3   9  148.73    5.07
   2  -3  -9  146.69    4.50
  -2   3  -9  135.12    3.11
  -2  -3  10   86.29    3.28
   2  -3 -10   81.35    3.15
  -2   3 -10   76.84    2.86
  -2  -3  10   85.06    3.89
  -2   3 -10   78.49    2.40
   2  -3 -10   76.46    3.26
   2   3  10   81.96    3.18
   2   3  10   76.67    2.82
  -2   3 -11  717.24   10.62
  -2  -3  11  799.31   11.15
   2  -3 -11  750.47   10.76
   2  -3 -11  783.67   11.28
   2  -3 -11  790.21   10.27
   2   3  11  754.79   10.44
   2  -3 -12  301.00    6.44
  -2  -3  12  307.77    6.50
   2  -3 -12  312.58    6.18
  -2  -3  13  223.10    6.45
   2  -3 -13  213.46    5.41
   2  -3 -13  228.65    5.48
   2  -3 -14  430.76    8.00
   2  -3 -14  427.36    7.79
   2  -3 -15  114.24    4.06
  -2  -3  15  110.12    4.03
  -2  -3  15  122.74    4.91
   2  -3 -16   87.07    3.64
  -2  -3  16   85.11    3.60
   2  -3 -17  100.21    3.66
   2  -3 -17  100.85    3.98
  -2  -3  17   98.57    3.97
   2  -3 -18  294.79    6.56
   2  -3 -18  312.09    7.20
  -2  -3  18  301.91    8.78
  -2  -3  18  301.31    7.20
   2  -3 -19  834.89   12.03
   2  -3 -19  850.69   12.66
  -2  -3  19  777.15   14.55
  -2  -3  19  784.58   12.60
   2  -3 -19  806.67   12.68
   2  -3 -20  179.38    5.25
   2  -3 -20  181.76    5.50
  -2  -3  20  184.29    6.64
  -2  -3  20  175.31    5.55
   2  -3 -20  176.97    5.67
   2  -3 -21  295.47    7.09
  -2  -3  21  300.44    8.50
  -2  -3  21  278.86    7.20
   2  -3 -21  285.83    6.75
   2  -3 -22  182.53    5.89
   2  -3 -22  173.15    5.25
   2  -3 -22  190.57    5.65
  -2  -3  22  186.46    6.50
  -2  -3  22  180.02    5.80
   2  -3 -23  627.81   11.56
   2  -3 -23  656.09   10.82
   2  -3 -23  657.32   10.94
  -2  -3  23  646.02   12.36
  -2  -3  23  656.53   11.62
   2  -3 -24    7.26    1.59
   2  -3 -24    8.26    1.40
  -2  -3  24    7.45    1.54
   2  -3 -25   36.47    2.78
   2  -3 -25   38.73    2.50
  -2  -3  25   40.45    2.89
  -2  -3  26   22.55    2.15
   2  -3 -26   24.33    2.31
  -2  -3  27   97.31    4.15
   2  -3 -27   81.91    3.90
  -2  -3  28  128.08    4.62
   2  -3 -28  121.34    4.60
   2   3  28  130.49    4.75
  -2  -3  29  103.05    4.23
   2  -3 -29   95.56    3.98
   2   3  29  105.32    4.11
   2   3  30   11.85    1.46
   2   3  31   98.47    3.58
   2   3  32   79.79    2.95
   2   3  33   42.05    1.89
  -2   3 -33   40.49    1.68
  -2   3 -33   44.90    2.15
  -2   3 -34  109.94    2.91
   2  -4  33  109.55    3.37
   2  -4  33  103.97    3.04
   2  -4  32  200.70    4.70
   2  -4  32  202.08    5.08
   2  -4  32  185.59    4.35
  -2  -4 -32  197.43    4.24
   2  -4  31   36.02    2.43
   2  -4  31   32.83    2.12
   2   4 -31   32.21    1.90
  -2  -4 -31   35.75    2.07
   2  -4  30    7.45    1.46
   2  -4  30    8.36    1.39
  -2  -4 -30    8.90    1.41
   2  -4  29   33.77    2.77
   2  -4  29   35.95    2.63
   2  -4  28  102.87    4.61
   2  -4  28  107.21    4.50
  -2  -4 -28  105.72    3.91
   2  -4  27   45.70    3.18
  -2  -4 -27   48.31    2.84
   2  -4  26   64.73    3.85
  -2  -4 -26   75.26    3.49
  -2  -4 -25  119.63    4.41
   2  -4  25  112.29    5.17
  -2  -4 -24   10.58    1.79
   2  -4  24    9.31    1.96
   2  -4  23   65.79    4.19
  -2  -4 -23   88.79    3.86
  -2  -4 -22  351.15    7.83
   2  -4  20  361.85    9.97
   2  -4  19  518.08   12.17
   2  -4  19  573.54   12.35
   2  -4  18  665.27   13.38
   2  -4  18  612.54   13.17
   2  -4  17  124.68    5.74
   2  -4  17  146.01    6.20
   2  -4  16  512.96   11.78
   2  -4  16  597.12   12.46
   2  -4  15  243.16    7.70
   2  -4  15  247.59    7.86
   2  -4  14  236.14    7.53
   2  -4  14  253.03    7.83
   2  -4  13  119.59    5.30
   2  -4  13  126.77    5.45
   2  -4  13  116.25    4.46
   2  -4  12   26.99    2.59
   2  -4  12   25.82    2.23
  -2  -4 -12   29.91    2.47
   2  -4  11  128.05    5.27
   2  -4  11  119.75    5.03
   2  -4  11  113.60    4.48
  -2  -4 -11  133.63    5.06
   2  -4  10   97.54    4.57
   2  -4  10   97.80    4.47
   2  -4  10   97.04    4.08
  -2  -4 -10   92.54    4.25
  -2  -4 -10   91.50    3.28
   2  -4   9   10.69    1.39
   2  -4   9   12.87    1.80
   2  -4   9   12.61    1.67
   2  -4   9   13.32    1.76
  -2  -4  -9   10.94    1.28
   2  -4   8  105.97    3.67
  -2  -4  -8  104.54    3.38
   2  -4   8  104.76    4.47
   2  -4   8   99.45    4.17
   2  -4   8  100.71    4.05
   2  -4   8   95.87    4.17
  -2  -4  -7  114.48    3.56
   2  -4   7  130.58    4.87
   2  -4   7  132.65    4.82
   2  -4   7  133.85    4.76
   2  -4   7  124.75    4.00
   2  -4   7  131.60    4.55
   2  -4   6  869.15   11.71
   2  -4   6  860.45   12.45
   2  -4   6  876.57   13.24
  -2  -4  -6  862.50   10.88
   2  -4   6  883.81   13.37
   2  -4   6  877.86   12.98
   2  -4   5    3.39    0.92
   2  -4   5    4.60    1.07
   2  -4   5    2.98    1.00
  -2  -4  -5    2.16    0.67
   2  -4   5    2.84    0.97
   2  -4   4 1619.22   17.01
   2  -4   4 1447.64   17.71
  -2  -4  -4 1515.39   15.68
  -2   4   4 1479.80   16.73
   2  -4   4 1602.74   19.24
   2  -4   4 1516.56   17.60
   2  -4   4 1578.70   17.62
   2  -4   3  276.98    5.95
  -2  -4  -3  255.50    5.18
  -2   4   3  265.84    5.78
   2  -4   3  261.67    6.10
   2  -4   3  269.99    6.15
  -2   4   2 1796.14   18.76
   2  -4   2 1861.26   19.56
  -2   4   1 1014.42   12.59
   2  -4   1 1060.91   13.38
  -2   4   0 1116.07   13.22
   2  -4   0 1121.62   13.75
   2  -4  -1 1074.06   13.32
   2  -4  -1 1019.78   14.78
  -2   4  -1 1040.18   12.39
   2  -4  -1 1050.90   13.17
  -2  -4   2 1941.97   23.47
   2  -4  -2 1892.15   21.73
   2  -4  -2 1937.90   19.69
  -2   4  -2 1876.22   18.87
  -2   4  -3  268.99    5.60
  -2  -4   3  265.95    7.44
   2  -4  -3  274.06    5.98
  -2   4  -4 1523.85   16.26
   2  -4  -4 1532.67   18.80
   2  -4  -5    2.85    0.89
   2  -4  -5    0.57    1.02
   2  -4  -6  874.04   11.72
   2  -4  -6  879.37   10.99
   2  -4  -6  905.50   13.42
   2  -4  -7  131.61    4.11
   2  -4  -7  134.02    3.81
   2  -4  -7  144.47    4.97
   2  -4  -8  102.13    3.34
   2  -4  -8  101.42    4.19
   2  -4  -8  101.86    3.63
   2  -4  -9   10.31    1.59
   2  -4  -9   10.79    1.36
   2  -4 -10   92.65    3.58
  -2  -4  10   89.42    4.42
   2  -4 -10  100.72    4.19
  -2  -4  10   96.68    4.32
   2  -4 -10   99.80    3.71
   2  -4 -11  120.53    4.13
   2  -4 -11  119.80    4.09
  -2  -4  11  119.66    5.09
   2  -4 -11  115.90    4.51
  -2  -4  11  118.64    4.79
   2  -4 -12   24.96    1.97
  -2  -4  12   31.14    2.75
   2  -4 -12   24.15    2.20
  -2  -4  12   29.45    2.46
   2  -4 -12   25.28    2.34
   2  -4 -13  117.60    4.54
   2  -4 -13  116.70    4.15
  -2  -4  13  126.50    5.26
  -2  -4  13  125.22    4.84
   2  -4 -13  115.95    4.49
   2  -4 -14  234.98    5.98
  -2  -4  14  242.92    6.73
   2  -4 -14  253.72    6.86
   2  -4 -15  251.44    6.23
  -2  -4  15  250.43    7.70
   2  -4 -15  263.03    7.21
   2  -4 -16  584.65    9.95
   2  -4 -17  139.34    4.65
  -2  -4  17  135.08    6.42
   2  -4 -18  680.71   10.94
  -2  -4  18  689.40   14.53
   2  -4 -19  593.75   10.02
  -2  -4  19  548.08   12.88
   2  -4 -20  406.71    8.11
  -2  -4  20  414.68   10.81
   2  -4 -21  650.48   10.38
  -2  -4  21  645.30   13.43
   2  -4 -22  359.51    7.34
  -2  -4  22  392.24   10.03
  -2  -4  23   86.13    4.58
  -2  -4  24   10.05    1.77
  -2  -4  25  111.99    4.75
  -2  -4  26   66.77    3.46
  -2  -4  28   96.60    4.30
  -2  -4  29   35.73    2.49
  -2  -4  30    9.84    1.32
   2  -5  31  126.38    3.24
  -2  -5 -31  129.92    3.02
   2  -5  31  126.59    3.17
   2  -5  30   70.07    2.66
   2  -5  30   79.03    2.92
  -2  -5 -30   77.09    2.58
   2  -5  30   79.47    2.77
   2  -5  29   10.49    1.32
   2  -5  29   11.09    1.36
   2  -5  29   10.28    1.31
   2  -5  28   50.38    2.69
   2  -5  28   55.90    2.94
   2  -5  28   53.14    2.71
   2  -5  27   13.76    1.64
   2  -5  27   10.86    1.66
   2  -5  27   13.05    1.63
   2  -5  26    7.48    1.44
   2  -5  26    6.83    1.50
   2  -5  25   72.17    3.68
   2  -5  25   82.79    3.89
   2  -5  24  143.95    5.38
   2  -5  24  146.45    5.21
   2  -5  23  110.90    4.74
   2  -5  23  102.04    4.77
  -2  -5 -23  114.09    4.15
   2  -5  23  103.15    4.61
   2  -5  22  272.94    7.60
   2  -5  22  263.95    7.77
  -2  -5 -22  280.00    6.50
   2  -5  22  271.55    7.57
   2  -5  21   82.22    4.26
   2  -5  21   79.00    4.41
  -2  -5 -21   75.86    3.48
   2  -5  20  314.53    9.04
   2  -5  20  332.62    9.17
   2  -5  20  339.53    8.66
   2  -5  19   83.38    4.87
   2  -5  19   86.65    4.86
   2  -5  19   86.31    4.48
   2  -5  18  874.97   15.72
   2  -5  18  894.89   15.82
   2  -5  18  912.24   14.96
   2  -5  17   27.23    2.96
   2  -5  17   29.85    3.08
   2  -5  17   30.30    2.82
   2  -5  16  193.51    7.09
   2  -5  16  207.36    7.35
   2  -5  16  211.54    6.87
   2  -5  15  324.67    9.18
   2  -5  15  351.26    9.55
   2  -5  15  323.59    8.53
   2  -5  14  606.29   12.75
   2  -5  14  659.23   13.20
   2  -5  14  656.61   11.44
  -2  -5 -14  589.61   11.39
   2  -5  14  639.13   12.09
   2  -5  13  414.54   10.33
   2  -5  13  424.80   10.43
  -2  -5 -13  434.92    9.67
   2  -5  13  421.78    9.65
   2  -5  12  108.13    5.17
   2  -5  12  112.19    5.28
   2  -5  12  108.00    4.61
  -2  -5 -12  110.41    4.91
   2  -5  12  107.03    4.80
   2  -5  11    0.81    1.02
   2  -5  11    1.96    1.37
   2  -5  11    1.48    1.16
   2  -5  11    0.92    1.31
  -2  -5 -11    1.31    1.22
   2  -5  11    0.52    1.14
   2  -5  10  132.32    4.49
   2  -5  10  128.27    5.46
   2  -5  10  124.61    5.01
   2  -5  10  128.52    5.39
  -2  -5 -10  125.73    5.35
   2  -5  10  131.24    5.17
  -2  -5 -10  119.91    4.19
  -2  -5  -9    2.70    1.21
   2  -5   9    2.54    1.28
   2  -5   9    2.18    1.05
   2  -5   9    7.42    1.67
   2  -5   9    3.89    1.35
  -2  -5  -9    2.49    1.27
   2  -5   9    4.07    1.31
   2  -5   8   30.82    2.23
   2  -5   8   33.22    2.78
  -2  -5  -8   28.61    2.04
   2  -5   8   30.03    2.66
   2  -5   8   28.20    2.52
  -2  -5  -8   33.11    3.02
   2  -5   8   32.67    2.61
  -2  -5  -8   26.49    2.09
   2  -5   7   50.03    2.83
  -2  -5  -7   51.85    2.67
   2  -5   7   55.08    3.44
   2  -5   7   52.42    3.40
   2  -5   7   52.29    3.20
  -2  -5  -7   56.40    3.73
   2  -5   7   57.94    3.39
  -2  -5  -7   51.65    2.66
  -2  -5  -6  400.82    7.57
   2  -5   6  442.38    9.43
   2  -5   6  412.08    9.52
   2  -5   6  403.57    8.72
  -2  -5  -6  433.94   10.26
   2  -5   6  428.33    8.12
   2  -5   6  421.33    8.94
  -2  -5  -6  370.02    7.12
   2  -5   5  254.62    6.18
   2  -5   5  244.07    6.76
  -2  -5  -5  236.59    5.65
   2  -5   5  261.25    7.50
   2  -5   5  232.13    6.34
  -2  -5  -5  245.51    7.78
   2  -5   5  240.10    6.61
  -2  -5  -5  220.16    5.26
   2  -5   4  422.58    8.18
   2  -5   4  437.75    9.88
  -2  -5  -4  450.99   10.62
   2  -5   4  437.10    8.95
   2  -5   3   81.74    3.45
  -2  -5  -3   79.79    3.19
   2  -5   3   80.14    4.34
   2  -5   3   80.62    3.73
   2  -5   2  306.55    6.78
  -2  -5  -2  299.84    8.80
  -2  -5  -2  319.95    8.88
   2  -5   2  311.38    7.27
   2  -5   1  135.50    4.40
  -2  -5  -1  139.73    4.23
  -2  -5  -1  145.06    6.04
  -2  -5  -1  150.79    6.07
   2  -5   1  133.36    4.70
   2  -5   0  166.10    4.86
  -2  -5   0  176.12    6.70
   2  -5   0  165.35    6.07
  -2  -5   0  158.10    6.33
   2  -5   0  173.13    5.29
   2  -5  -1  131.94    4.32
   2  -5  -1  127.26    3.95
  -2  -5   1  142.58    6.03
   2  -5  -1  132.80    5.42
   2  -5  -1  131.20    4.57
   2  -5  -2  314.25    6.81
   2  -5  -2  304.24    6.25
  -2  -5   2  313.28    8.82
   2  -5  -2  321.50    8.42
   2  -5  -3   78.52    3.40
   2  -5  -3   78.44    3.13
  -2  -5   3   86.69    4.71
   2  -5  -3   84.30    4.29
   2  -5  -4  413.23    8.02
   2  -5  -4  409.30    7.49
   2  -5  -4  409.70    8.22
  -2  -5   4  446.00   10.50
   2  -5  -4  413.57    9.51
  -2  -5   4  450.99   10.50
   2  -5  -5  246.63    6.22
   2  -5  -5  248.27    6.10
   2  -5  -5  241.67    5.64
  -2  -5   5  258.69    7.99
   2  -5  -5  242.40    7.19
  -2  -5   5  252.33    7.79
   2  -5  -6  420.87    8.31
   2  -5  -6  403.93    7.92
   2  -5  -6  423.04    7.68
  -2  -5   6  387.31    9.95
   2  -5  -6  432.72    9.73
  -2  -5   6  400.92    9.91
   2  -5  -7   49.17    2.72
   2  -5  -7   52.39    2.66
  -2  -5   7   62.61    3.97
   2  -5  -7   49.19    3.38
  -2  -5   7   53.00    3.65
   2  -5  -7   54.66    2.98
   2  -5  -8   27.84    2.06
   2  -5  -8   29.83    2.05
  -2  -5   8   33.63    3.09
   2  -5  -8   30.48    2.68
  -2  -5   8   33.11    2.89
   2  -5  -8   32.64    2.42
   2  -5  -9    3.63    1.26
  -2  -5   9    1.84    1.53
   2  -5  -9    3.57    1.48
  -2  -5   9    2.76    1.34
  -2  -5  10  127.45    5.68
   2  -5 -10  124.37    5.11
  -2  -5  10  124.73    5.29
   2  -5 -10  128.08    4.59
   2  -5 -11    1.15    1.33
   2  -5 -11    1.60    1.25
  -2  -5  11    1.18    1.14
   2  -5 -12  116.61    4.92
  -2  -5  12  109.14    4.90
   2  -5 -12  115.99    4.76
   2  -5 -13  444.26    9.58
   2  -5 -13  435.13    9.13
  -2  -5  14  612.42   11.75
   2  -5 -14  667.47   11.72
  -2  -5  15  304.14    7.86
   2  -5 -15  348.41    8.88
  -2  -5  16  213.16    8.42
   2  -5 -16  221.17    7.85
  -2  -5  17   35.49    3.60
  -2  -5  18  907.15   17.37
  -2  -5  19   84.85    5.09
  -2  -5  20  346.55    9.85
  -2  -5  21   76.02    4.54
  -2  -5  22  291.80    8.46
  -2  -5  23  110.94    5.02
  -2  -5  24  147.82    5.44
  -2  -5  25   90.26    4.01
  -2  -5  26    5.52    1.16
  -2  -5  27   12.77    1.37
  -2  -5  27   12.38    1.72
  -2  -5  28   57.05    2.96
  -2  -5  29   11.22    1.33
  -2  -5  30   69.94    2.49
  -2  -6 -28   24.68    1.31
   2  -6  28   22.91    1.29
   2  -6  27   49.62    2.09
   2  -6  27   50.21    2.36
  -2  -6 -27   52.43    2.03
   2  -6  26  103.97    3.57
  -2  -6 -26  101.91    3.04
   2  -6  26   93.21    3.10
   2  -6  25   12.94    1.59
  -2  -6 -25   14.94    1.42
   2  -6  25   13.34    1.46
   2  -6  24   42.10    2.61
  -2  -6 -24   45.63    2.24
   2  -6  24   43.31    2.49
   2  -6  23   57.26    3.15
   2  -6  23   55.21    2.91
   2  -6  22   71.18    3.67
  -2  -6 -22   73.74    3.00
   2  -6  22   75.06    3.53
   2  -6  21   40.15    2.76
   2  -6  21   38.18    2.87
  -2  -6 -21   41.77    2.37
   2  -6  20  136.48    5.03
   2  -6  20  143.18    5.34
  -2  -6 -20  152.61    4.38
   2  -6  19  273.78    7.56
  -2  -6 -19  284.95    6.10
   2  -6  19  270.48    7.26
   2  -6  18  211.50    6.88
   2  -6  18  213.61    6.79
   2  -6  18  211.56    6.44
   2  -6  17  122.78    5.33
   2  -6  17  124.35    5.26
   2  -6  17  122.57    5.07
   2  -6  16   49.87    3.58
   2  -6  16   55.47    3.68
   2  -6  16   57.95    3.57
   2  -6  15   74.14    4.33
   2  -6  15   79.21    4.29
   2  -6  15   73.30    4.07
   2  -6  14   16.45    2.23
   2  -6  14   16.52    2.20
   2  -6  14   17.68    2.24
   2  -6  13  106.20    5.04
   2  -6  13   96.41    4.70
   2  -6  13   99.86    4.46
   2  -6  13  103.87    4.71
   2  -6  12    7.21    1.68
   2  -6  12    8.80    1.77
   2  -6  12    7.04    1.66
   2  -6  12    7.86    1.80
   2  -6  11  279.01    8.14
   2  -6  11  269.89    7.64
   2  -6  11  257.43    7.36
  -2  -6 -11  254.60    7.84
   2  -6  11  284.57    7.76
   2  -6  10  275.08    7.98
  -2  -6 -10  273.37    8.48
   2  -6  10  270.50    7.55
   2  -6  10  256.70    7.44
  -2  -6 -10  277.78    8.33
   2  -6  10  275.01    7.64
   2  -6   9  187.99    6.54
  -2  -6  -9  176.89    6.84
   2  -6   9  178.03    6.25
   2  -6   9  186.61    6.13
  -2  -6  -9  188.36    6.96
   2  -6   9  196.78    6.40
  -2  -6  -9  177.35    5.28
  -2  -6  -8    4.91    1.60
   2  -6   8    5.00    1.44
  -2  -6  -8    4.37    1.78
   2  -6   8    6.67    1.40
   2  -6   8    5.73    1.79
  -2  -6  -8    7.22    1.91
   2  -6   8    4.64    1.49
   2  -6   7  122.03    4.40
  -2  -6  -7  130.23    4.38
   2  -6   7  122.91    5.05
  -2  -6  -7  128.34    5.88
   2  -6   7  122.83    5.40
   2  -6   7  118.68    4.65
  -2  -6  -7  132.07    5.92
   2  -6   7  123.09    5.03
  -2  -6  -7  126.50    4.38
   2  -6   6  125.13    4.44
  -2  -6  -6  131.81    4.43
   2  -6   6  127.75    5.04
  -2  -6  -6  132.60    5.88
   2  -6   6  130.48    5.66
  -2  -6  -6  126.59    5.84
   2  -6   6  134.20    5.22
  -2  -6  -6  119.06    4.21
   2  -6   5  318.28    7.06
  -2  -6  -5  311.49    6.93
  -2  -6  -5  299.75    8.97
   2  -6   5  325.79    9.02
  -2  -6  -5  317.25    9.19
   2  -6   5  327.76    8.09
  -2  -6  -5  304.43    6.66
   2  -6   4  421.85    8.18
  -2  -6  -4  411.17    8.07
  -2  -6  -4  403.62   10.39
   2  -6   4  438.52   10.56
  -2  -6  -4  416.84   10.70
   2  -6   4  424.17    9.24
   2  -6   3  435.23    8.30
  -2  -6  -3  445.08    8.42
  -2  -6  -3  441.18   10.85
   2  -6   3  439.53   10.70
  -2  -6  -3  430.67   10.92
   2  -6   3  450.91    9.48
  -2  -6  -3  407.58    7.72
   2  -6   2  449.06    8.41
  -2  -6  -2  460.97    8.59
   2  -6   2  440.95    8.41
  -2  -6  -2  457.22   11.16
  -2  -6  -2  479.10   11.57
   2  -6   2  480.36    9.84
  -2  -6  -2  435.38    7.99
   2  -6   1  713.05   11.02
  -2  -6  -1  719.82   11.12
   2  -6   1  687.48   10.76
  -2  -6  -1  727.61   14.53
   2  -6   0 1215.78   15.05
   2  -6   0 1140.98   14.80
  -2  -6   0 1261.21   15.47
  -2  -6   0 1247.73   19.39
   2  -6   0 1205.99   18.92
  -2  -6   0 1155.08   19.00
   2  -6  -1  723.70   10.93
   2  -6  -1  702.69   10.86
  -2  -6   1  726.23   11.20
  -2  -6   1  738.98   14.44
   2  -6  -1  737.77   14.16
   2  -6  -2  459.22    9.37
   2  -6  -2  458.53    8.43
   2  -6  -2  441.58    8.32
  -2  -6   2  462.03    8.73
  -2  -6   2  505.73   11.63
   2  -6  -2  499.52   11.48
   2  -6  -3  441.03    9.03
   2  -6  -3  409.78    8.03
   2  -6  -3  441.01    8.14
  -2  -6   3  439.06   10.82
   2  -6  -3  423.26   10.47
  -2  -6   3  425.33   10.81
   2  -6  -4  395.27    8.58
   2  -6  -4  399.61    7.69
   2  -6  -4  405.55    7.92
  -2  -6   4  418.22   10.50
   2  -6  -4  420.19   10.26
  -2  -6   4  404.33   10.55
   2  -6  -5  294.40    6.51
   2  -6  -5  304.21    6.71
  -2  -6   5  319.94    9.19
   2  -6  -5  285.01    8.49
  -2  -6   5  301.85    9.01
   2  -6  -5  308.45    7.39
   2  -6  -6  124.42    4.13
   2  -6  -6  133.57    4.37
  -2  -6   6  136.26    6.07
   2  -6  -6  136.67    5.76
  -2  -6   6  126.69    5.78
   2  -6  -6  130.06    4.80
   2  -6  -7  122.78    4.06
   2  -6  -7  131.81    4.35
  -2  -6   7  139.62    6.07
   2  -6  -7  130.86    5.63
  -2  -6   7  126.28    5.76
   2  -6  -7  132.59    4.84
   2  -6  -8    6.42    1.50
   2  -6  -8    4.47    1.01
  -2  -6   8    3.90    1.73
   2  -6  -8    4.91    1.73
  -2  -6   8    7.19    1.86
   2  -6  -9  176.03    4.82
  -2  -6   9  189.77    6.99
   2  -6  -9  188.90    6.56
  -2  -6   9  187.45    6.76
   2  -6  -9  189.84    5.79
   2  -6 -10  260.91    5.86
  -2  -6  10  288.88    8.36
  -2  -6  10  293.55    8.66
   2  -6 -10  270.16    7.75
   2  -6 -10  275.21    7.01
   2  -6 -11  253.07    5.68
  -2  -6  11  283.59    8.52
   2  -6 -11  276.05    7.77
  -2  -6  11  273.26    8.16
   2  -6 -11  280.50    7.25
   2  -6 -12    7.33    3.04
  -2  -6  12    7.94    2.06
   2  -6 -12    9.70    1.96
   2  -6 -13   99.04    5.37
   2  -6 -14   17.64    4.47
  -2  -6  15   77.87    5.30
   2  -6 -15   81.80    5.94
  -2  -6  16   55.59    4.35
  -2  -6  17  127.47    6.20
  -2  -6  18  228.11    7.90
  -2  -6  19  301.63    8.85
  -2  -6  20  142.67    5.94
  -2  -6  21   41.64    3.15
  -2  -6  22   77.38    3.93
  -2  -6  23   55.68    3.18
  -2  -6  24   42.23    2.55
  -2  -6  25   12.82    1.39
  -2  -6  25   13.26    1.64
  -2  -6  26   80.11    2.78
  -2  -6  26   96.85    3.62
  -2  -6  27   52.87    2.44
  -2  -6  28   21.08    1.36
   2  -7  24   24.38    1.32
   2  -7  24   28.19    1.32
   2  -7  23   65.78    2.35
   2  -7  23   73.57    2.36
   2  -7  22   56.64    2.37
   2  -7  22   61.96    2.35
  -2  -7 -21  325.92    5.21
   2  -7  21  334.38    6.02
   2  -7  20   44.45    2.33
  -2  -7 -20   48.99    2.06
   2  -7  20   47.64    2.40
   2  -7  19  141.81    4.25
  -2  -7 -19  149.74    3.62
   2  -7  19  150.39    4.38
   2  -7  18    2.82    0.96
  -2  -7 -18    3.96    0.94
   2  -7  18    3.21    1.10
  -2  -7 -17  161.65    3.93
   2  -7  17  156.40    4.74
   2  -7  17  164.81    4.87
  -2  -7 -16   93.48    3.02
   2  -7  16   83.81    3.62
  -2  -7 -15    2.10    0.93
   2  -7  15    1.90    1.19
   2  -7  14   35.67    2.59
   2  -7  13   54.91    3.16
  -2  -7 -12  155.61    5.45
   2  -7  12  169.71    5.46
  -2  -7 -11  130.63    5.05
   2  -7  11  123.81    4.73
  -2  -7 -10   48.54    3.23
   2  -7  10   48.39    3.24
   2  -7  10   46.85    3.06
  -2  -7  -9   32.93    2.75
   2  -7   9   34.30    2.87
   2  -7   9   32.96    2.64
   2  -7   8  192.36    5.16
  -2  -7  -8  181.95    6.23
   2  -7   8  191.92    6.05
   2  -7   8  194.47    6.37
   2  -7   7   73.01    3.22
  -2  -7  -7   74.06    4.07
   2  -7   7   81.33    4.31
   2  -7   7   84.17    4.06
  -2  -7  -7   76.06    3.37
   2  -7   6   40.55    2.45
  -2  -7  -6   38.11    3.01
   2  -7   6   43.25    3.34
  -2  -7  -6   41.09    2.58
  -2  -7  -5  370.64    7.36
   2  -7   5  356.56    7.21
  -2  -7  -5  352.11    8.91
   2  -7   5  365.41    9.30
  -2  -7  -5  340.06    6.76
  -2  -7  -4   79.51    3.39
   2  -7   4   70.63    3.18
   2  -7   4   78.05    4.46
  -2  -7  -4   69.99    3.12
  -2  -7  -3  254.37    6.16
   2  -7   3  264.75    6.17
  -2  -7  -3  260.79    7.59
   2  -7   3  268.69    8.15
  -2  -7  -3  259.89    5.75
   2  -7   2  210.89    6.22
  -2  -7  -2  208.57    5.55
   2  -7   2  200.43    5.33
  -2  -7  -2  204.83    6.76
  -2  -7  -2  196.45    4.98
   2  -7   1   25.46    2.46
  -2  -7  -1   25.37    2.10
   2  -7   1   26.80    2.05
  -2  -7  -1   22.22    2.51
   2  -7   0  472.55    9.38
   2  -7   0  461.03    7.79
   2  -7   0  443.53    8.26
  -2  -7   0  455.86    8.46
   2  -7   0  461.31   11.05
   2  -7  -1   25.67    2.36
   2  -7  -1   22.00    1.72
   2  -7  -1   24.37    1.98
  -2  -7   1   25.39    2.09
  -2  -7   1   24.10    2.63
   2  -7  -1   26.24    3.10
   2  -7  -2  206.67    5.42
  -2  -7   2  210.24    5.57
  -2  -7   2  212.32    6.97
   2  -7  -2  210.21    7.27
   2  -7  -2  202.42    6.00
   2  -7  -3  257.83    6.07
  -2  -7   3  242.27    6.06
  -2  -7   3  259.36    7.81
   2  -7  -3  269.70    8.19
   2  -7  -3  278.04    6.93
   2  -7  -4   71.24    3.15
  -2  -7   4   72.51    3.30
  -2  -7   4   72.47    4.15
   2  -7  -4   72.83    4.35
   2  -7  -4   72.08    3.64
   2  -7  -5  364.53    7.18
  -2  -7   5  370.07    7.47
  -2  -7   5  371.62    9.35
   2  -7  -5  356.03    9.24
   2  -7  -5  368.56    8.03
  -2  -7   6   40.61    2.51
  -2  -7   6   41.85    3.19
   2  -7  -6   37.52    3.19
   2  -7  -6   40.44    2.79
  -2  -7   7   72.73    3.27
  -2  -7   7   85.49    4.46
   2  -7  -7   80.00    4.30
   2  -7  -7   79.22    3.70
  -2  -7   8  196.15    7.65
  -2  -7   8  183.77    5.13
  -2  -7   8  195.21    6.54
   2  -7  -8  187.97    6.36
   2  -7  -8  193.75    5.78
  -2  -7   9   41.90    3.73
  -2  -7   9   37.45    3.08
   2  -7  -9   28.77    2.71
   2  -7  -9   33.23    2.99
  -2  -7  10   50.77    4.07
   2  -7 -10   48.51    3.36
   2  -7 -10   47.09    3.79
  -2  -7  11  123.77    6.07
   2  -7 -11  137.66    5.52
  -2  -7  12  169.92    6.86
   2  -7 -12  167.90    6.22
  -2  -7  13   60.15    4.06
   2  -7 -13   56.06    5.11
  -2  -7  14   36.76    3.27
  -2  -7  18    3.74    1.53
  -2  -7  19  168.26    5.45
  -2  -7  20   46.27    2.82
  -2  -7  20   48.10    2.82
  -2  -7  21  344.22    7.06
  -2  -7  21  328.93    7.02
  -2  -7  22   64.76    2.75
  -2  -7  22   64.15    2.84
  -2  -7  23   76.40    2.65
  -2  -7  23   82.33    2.95
  -2  -7  24   29.90    1.66
   2  -8  17   59.34    2.02
   2  -8  16   29.91    1.57
   2  -8  13    7.93    1.14
   2  -8  12   41.97    2.19
   2  -8  11  106.18    3.46
   2  -8  10   -0.19    1.02
   2  -8   9  137.16    4.10
   2  -8   8   30.69    2.11
   2  -8   7   20.65    1.84
   2  -8   6  139.45    4.23
   2  -8   5  147.93    4.40
   2  -8   4  100.67    3.72
   2  -8   4  104.28    4.44
   2  -8   3  366.15    8.33
   2  -8   3  384.83    7.31
   2  -8   2   54.66    2.84
   2  -8   1  256.88    5.95
  -2  -8   0  116.11    3.48
  -2  -8   0  109.59    3.97
   2  -8   0  118.52    4.82
  -2  -8   1  256.34    5.22
  -2  -8   1  242.38    6.00
   2  -8  -1  256.60    6.99
   2  -8  -1  252.46    5.91
  -2  -8   2   56.11    2.44
  -2  -8   2   54.40    2.83
   2  -8  -2   58.44    2.87
  -2  -8   3  382.18    8.56
  -2  -8   3  372.13    6.46
  -2  -8   3  366.62    7.46
   2  -8  -3  374.85    8.41
   2  -8  -3  387.82    7.34
  -2  -8   4  103.94    4.43
  -2  -8   4  102.71    3.22
   2  -8  -4  105.23    4.48
   2  -8  -4  107.16    3.85
  -2  -8   5  145.72    5.25
  -2  -8   5  147.51    3.84
   2  -8  -5  154.26    4.58
  -2  -8   6  133.09    4.95
  -2  -8   6  130.48    3.56
  -2  -8   7   16.76    1.95
  -2  -8   7   18.05    1.41
   2  -8  -7   20.55    2.73
  -2  -8   8   29.08    2.43
  -2  -8   8   30.54    1.71
   2  -8  -8   31.54    3.33
  -2  -8   9  137.29    4.86
  -2  -8   9  131.51    3.37
   2  -8 -10    1.32    3.27
  -2  -8  10    0.05    0.98
  -2  -8  10   -0.28    0.58
  -2  -8  11  111.61    4.24
  -2  -8  11  102.32    2.79
  -2  -8  12   44.97    2.68
  -2  -8  12   39.16    1.67
  -2  -8  13    9.26    1.43
  -2  -8  13    7.34    0.78
  -2  -8  14   22.73    1.86
  -2  -8  14   18.12    1.03
  -2  -8  15   49.03    2.48
  -2  -8  15   36.87    1.30
  -2  -8  16   31.18    1.90
  -2  -8  17   64.03    2.49
  -2  -9  -4   41.49    1.80
   2  -9   4   50.17    1.76
  -2  -9  -3  229.01    4.44
   2  -9   3  226.46    3.86
   2  -9   2    3.88    0.94
  -2  -9  -2    3.98    0.80
  -2  -9  -1   88.19    2.79
   2  -9   1   90.46    2.51
  -2  -9   0   10.74    1.12
   2  -9   0   11.50    1.43
   2  -9  -1   89.89    2.58
   2  -9  -2    3.18    1.52
  -2  -9   2    4.08    0.83
  -2  -9   3  226.74    4.39
   2  -9  -3  236.49    4.08
  -2  -9   4   46.93    1.88
   3   0   0    1.25    0.70
   3   0   1   42.88    2.27
   3   0   1   48.05    2.47
  -3   0   1   44.42    2.37
  -3   0   2 1950.92   19.68
   3   0   2 1905.05   19.88
  -3   0   2 1914.76   19.84
  -3   0   3 6280.71   48.85
   3   0   3 6196.64   49.51
  -3   0   4  125.65    3.88
   3   0   4  119.16    2.95
   3   0   4  113.72    3.57
   3   0   4  128.51    4.20
  -3   0   4  111.52    3.80
  -3   0   5    0.84    0.69
   3   0   5    0.67    0.42
   3   0   5    0.39    0.48
   3   0   5    0.92    0.75
  -3   0   5    0.49    0.51
  -3   0   6 2695.35   23.64
   3   0   6 2672.89   24.01
  -3   0   7   35.25    1.82
   3   0   7   32.20    1.86
   3   0   7   31.06    1.81
   3   0   7   35.02    1.74
   3   0   8  442.38    6.93
   3   0   8  437.05    7.20
   3   0   9  130.32    3.64
  -3   0   9  148.25    3.69
   3   0  10   61.13    2.62
   3   0  10   52.52    2.55
   3   0 -10   56.16    2.64
   3   0  10   57.47    3.18
   3   0  11    1.89    0.74
   3   0  11    2.38    1.07
   3   0  11    1.86    0.74
   3   0 -11    1.51    0.75
   3   0  11    1.61    0.97
   3   0  12  140.07    5.12
   3   0  12  127.90    3.95
   3   0  12  146.10    5.14
   3   0  13 1583.36   19.93
   3   0  13 1495.33   19.16
   3   0  14  429.06    9.65
   3   0  14  396.91    8.92
   3   0  15  407.07    9.78
   3   0  15  515.96   10.24
   3   0  16    2.19    1.21
   3   0 -16    2.70    1.17
   3   0  16    2.02    1.26
   3   0  17  472.45   10.60
   3   0  17  468.57    9.97
   3   0 -18  192.10    5.97
   3   0  18  211.52    7.15
   3   0  18  210.96    6.63
   3   0  19    2.28    1.35
   3   0  19    2.23    1.23
   3   0  20    5.84    1.78
   3   0  21   25.15    2.80
   3   0  22  366.76    9.70
   3   0  23  256.29    8.14
   3   0  24   31.12    2.93
   3   0  24   30.22    3.11
   3   0  25    4.87    1.83
   3   0  25    5.59    1.64
   3   0  26   47.74    3.46
   3   0  26   41.09    3.40
   3   0  27  445.55    9.99
   3   0  27  361.35    9.26
   3   0  28   18.43    2.18
   3   0  28   13.13    2.13
   3   0  29  378.14    8.49
   3   0  29  305.43    7.87
   3   0  30   29.46    2.33
   3   0  30   23.00    2.29
   3   0  31   74.91    3.28
   3   0 -31   77.76    3.87
   3   0  32    0.77    1.01
   3   0 -32    0.92    0.94
   3   0  32    0.36    0.69
   3   0 -32    1.55    1.23
   3   0  33   57.43    2.80
   3   0  33   57.51    2.24
   3   0 -33   71.54    2.72
   3   0 -33   74.17    3.23
   3   0 -34    1.56    0.68
   3   0 -34    1.29    0.83
   3   0 -35   36.10    1.76
   3  -1  35  119.50    3.09
   3   1 -35  124.98    2.88
   3  -1  34   33.50    1.87
   3   1 -34   36.52    1.83
   3  -1  34   30.25    1.65
   3   1 -34   36.32    2.14
   3  -1  33  123.38    3.84
   3  -1  33  125.53    3.76
   3   1 -33  125.66    4.28
   3  -1  32   80.76    3.37
   3   1 -32   84.51    3.85
   3  -1  32   76.60    3.28
   3  -1  31   11.50    1.60
   3  -1  31   11.46    1.56
   3  -1  30   35.81    2.72
   3  -1  30   38.56    2.68
   3  -1  29    6.81    1.66
   3  -1  29    9.35    1.67
   3  -1  28  213.61    6.84
   3  -1  28  203.48    6.40
   3  -1  27  719.51   13.32
   3  -1  27  664.21   12.48
   3  -1  26  495.74   11.25
   3  -1  26  524.02   11.03
   3  -1  25  261.29    8.37
   3  -1  25  272.37    7.68
   3  -1  25  272.69    7.96
   3  -1  24  587.67   12.80
   3  -1  24  570.45   11.51
   3  -1  24  612.01   12.55
   3  -1  23  101.68    5.38
   3  -1  23  102.95    4.80
   3  -1  23  104.51    5.08
   3  -1  22   26.70    3.06
   3  -1  22   25.76    2.67
  -3  -1 -22   24.69    1.69
   3  -1  22   27.38    2.82
   3  -1  21  296.33    9.13
   3  -1  21  305.78    8.39
  -3  -1 -21  280.75    5.65
   3  -1  21  316.16    8.71
   3  -1  20 1460.54   21.71
   3  -1  20 1466.14   20.57
   3  -1  20 1527.75   21.13
   3  -1  19 1449.62   19.90
   3  -1  19 1357.70   19.49
   3  -1  18 1043.02   16.68
   3  -1  18 1047.98   16.31
   3  -1  17  612.91   12.18
   3  -1  17  636.32   11.92
   3   1 -16   26.45    2.19
   3  -1  16   23.06    2.41
   3  -1  16   25.14    2.36
   3   1 -15  134.29    4.52
   3  -1  15  123.01    5.15
   3  -1  14  263.15    7.61
   3  -1  14  269.38    7.55
   3  -1  14  252.61    6.97
   3   1 -13  110.94    3.99
   3  -1  13  109.22    4.74
   3  -1  13  111.53    4.78
   3  -1  13   99.60    4.18
   3   1 -12  179.90    5.10
   3  -1  12  189.52    6.05
   3  -1  12  177.67    5.49
   3   1 -11  900.55   12.04
   3  -1  11  860.97   13.47
   3  -1  11  888.14   13.10
   3  -1  10  160.23    5.26
   3  -1  10  156.43    4.98
   3  -1   9  282.09    5.80
   3  -1   9  300.03    7.27
   3  -1   9  292.02    5.48
   3  -1   9  272.12    5.93
   3  -1   9  303.92    7.25
   3  -1   9  307.10    7.00
   3  -1   8  264.79    6.39
   3  -1   8  248.58    5.29
  -3   1   8  268.25    5.63
   3  -1   8  261.00    5.02
   3  -1   8  257.88    6.57
   3  -1   8  256.39    6.55
   3  -1   7   44.05    2.56
   3  -1   7   40.44    1.88
   3  -1   7   38.15    2.01
  -3   1   7   45.80    2.26
   3  -1   7   41.61    2.15
   3  -1   7   40.09    2.56
   3  -1   7   35.51    2.11
   3  -1   7   41.57    2.62
   3  -1   6    5.11    1.03
   3  -1   6    4.55    0.70
   3  -1   6    7.89    0.98
  -3   1   6    4.99    0.84
   3  -1   6    5.54    0.92
  -3   1   6    4.91    0.88
   3  -1   6    5.56    1.17
   3  -1   6    4.66    1.05
  -3   1   6    4.12    0.89
   3  -1   5   19.09    1.69
   3  -1   5   18.53    1.19
  -3   1   5   24.04    1.73
  -3   1   5   20.75    1.63
   3  -1   5   19.18    1.49
   3  -1   5   21.01    1.87
   3  -1   5   19.52    1.76
  -3   1   5   20.97    1.73
  -3   1   4  200.53    5.01
   3  -1   4  190.80    5.21
   3  -1   4  191.19    4.62
   3   1  -4  191.67    5.25
   3  -1   4  199.11    5.54
   3  -1   4  202.86    5.43
   3  -1   4  205.47    3.90
  -3   1   4  216.39    5.34
  -3   1   3   61.00    2.68
   3  -1   3   61.43    1.98
   3   1  -3   58.38    2.83
   3  -1   3   63.30    2.98
  -3   1   3   68.66    2.99
   3  -1   2  843.73    8.95
   3   1  -2  851.08   11.95
   3  -1   2  918.79   12.31
  -3   1   2  913.13   11.79
  -3   1   2  874.09   11.92
   3   1  -1  373.65    7.27
   3  -1   1  384.61    7.32
  -3   1   1  392.44    7.36
   3   1   0   82.92    3.28
   3  -1   0   98.81    3.53
   3   1   1  372.13    7.18
   3  -1  -1  379.39    7.14
  -3  -1   1  385.58    7.26
  -3  -1   2  961.53   12.10
   3   1   2  894.87   11.98
   3   1   2  862.97   11.92
   3  -1  -2  966.12   12.21
  -3  -1   2  865.63   11.82
   3   1   3   59.25    2.77
   3   1   3   64.72    2.94
  -3  -1   3   57.89    2.59
  -3  -1   3   62.78    2.82
   3   1   4  196.62    5.34
  -3  -1   4  207.73    5.02
   3   1   4  205.56    5.21
   3   1   4  198.86    5.28
  -3  -1   4  216.15    5.29
   3   1   5   21.60    1.84
  -3  -1   5   22.42    1.32
  -3  -1   5   20.81    1.60
   3   1   5   19.56    1.53
   3   1   5   18.23    1.58
   3   1   5   21.86    1.80
  -3  -1   5   20.51    1.69
   3   1   6    6.38    1.12
   3   1   6    7.38    1.02
  -3  -1   6    6.12    0.93
   3   1   6    6.86    1.03
   3  -1  -6    8.76    1.15
   3   1   6    6.08    1.15
  -3  -1   6    6.22    1.03
   3   1   7   40.14    2.46
   3   1   7   43.89    2.20
   3   1   7   37.34    2.20
   3  -1  -7   37.90    2.19
   3   1   7   37.59    2.42
   3  -1  -7   37.13    2.17
   3   1   8  260.20    6.34
   3   1   8  251.02    5.42
   3   1   8  258.39    5.92
   3  -1  -8  255.07    5.92
   3   1   8  249.21    6.30
   3  -1  -8  241.53    5.58
   3   1   9  326.94    6.30
   3   1   9  310.74    5.96
   3   1   9  315.93    6.61
   3   1   9  325.32    7.34
   3  -1  -9  313.35    6.37
   3   1   9  309.12    7.11
   3   1  10  163.67    4.43
   3   1  10  176.85    4.36
   3   1  10  138.55    4.34
   3   1  10  168.42    5.31
   3  -1 -10  150.99    4.37
   3   1  10  158.60    5.05
   3   1  11  863.01   11.40
   3  -1 -11  879.04   12.14
   3   1  11  892.90   13.47
   3   1  11  893.19   13.13
   3   1  12  187.57    4.90
   3  -1 -12  188.33    5.33
   3   1  12  195.02    5.99
   3   1  12  175.39    5.51
   3   1  13  100.47    4.38
   3   1  13  104.94    4.28
   3  -1 -14  283.43    6.64
   3   1  14  283.76    7.52
   3   1  14  262.50    7.08
   3  -1 -15  121.18    4.31
   3   1  15  113.82    4.83
   3   1  15  111.23    4.65
   3  -1 -16   26.21    2.20
   3   1  16   25.77    2.43
   3   1  16   23.56    2.37
   3  -1 -17  609.19   10.54
   3   1  17  612.00   11.94
   3   1  17  630.66   12.05
   3   1  18 1026.12   16.36
   3   1  18 1013.27   16.18
   3   1  19 1376.47   19.31
   3   1  19 1415.81   19.89
   3   1  20 1490.07   20.67
   3   1  20 1636.48   21.85
   3   1  21  300.28    8.30
   3   1  21  346.04    9.22
   3   1  22   29.90    2.74
   3   1  22   37.81    3.22
   3   1  23   87.02    4.52
   3   1  23   96.98    4.96
   3   1  24  601.32   11.70
   3   1  24  621.99   12.81
   3   1  25  254.96    7.30
   3   1  25  283.51    8.30
   3   1  26  510.11   10.39
   3   1  26  511.24   11.26
   3   1  27  690.02   11.84
   3   1  27  721.17   13.16
   3  -1 -28  222.80    6.14
   3   1  28  204.69    6.59
   3  -1 -29    9.39    1.59
   3   1  29    6.35    1.15
   3  -1 -29   10.03    1.78
   3   1  29    7.49    1.58
   3  -1 -30   34.23    2.34
   3   1  30   32.34    2.01
   3  -1 -30   34.47    2.62
   3   1  30   35.67    2.64
   3  -1 -31   11.25    1.46
   3  -1 -31   10.52    1.57
   3   1  31   10.26    1.55
   3  -1 -32   76.94    2.91
   3  -1 -32   76.09    3.22
   3   1  32   78.77    3.38
   3   1  33  129.39    3.98
   3   1  34   35.84    1.92
   3   1  35  106.46    2.93
   3  -2  34  155.49    3.65
   3  -2  33   43.49    2.23
   3  -2  32    5.91    0.95
   3  -2  32    8.52    1.32
   3  -2  31   13.03    1.42
   3  -2  31   13.18    1.67
   3  -2  30   68.18    3.16
   3  -2  30   73.24    3.62
   3  -2  29    6.68    1.60
  -3  -2 -29    5.81    0.94
   3  -2  29    6.85    1.32
   3  -2  28  286.87    7.19
  -3  -2 -28  270.42    5.38
   3  -2  28  284.62    7.09
   3  -2  27  328.41    8.06
  -3  -2 -27  305.32    5.94
   3  -2  27  320.01    7.84
   3  -2  26  810.50   13.52
   3  -2  26  768.77   13.11
  -3  -2 -25  150.12    4.28
   3  -2  25  151.07    5.72
   3  -2  25  146.64    5.60
   3  -2  24   56.47    3.76
  -3  -2 -24   54.58    2.65
   3  -2  24   57.85    3.63
   3  -2  23  233.75    8.08
   3  -2  23  246.71    7.75
  -3  -2 -23  231.10    5.45
   3  -2  22  199.31    7.56
   3  -2  22  207.60    7.10
  -3  -2 -22  192.39    5.00
   3  -2  21  252.13    8.38
   3  -2  21  226.96    7.68
   3  -2  21  243.86    7.42
   3  -2  20  310.00    8.90
   3  -2  20  326.12    8.57
   3  -2  19  696.40   14.13
   3  -2  19  715.63   13.76
   3  -2  19  683.33   12.80
   3  -2  18  590.92   12.87
   3  -2  18  617.66   11.81
   3  -2  17  612.56   12.95
   3  -2  17  625.26   12.81
   3  -2  17  636.70   11.79
   3  -2  16  404.96   10.18
   3  -2  16  391.08    8.96
   3   2 -15  140.10    4.62
   3  -2  15  141.71    5.80
   3  -2  15  144.89    5.20
   3  -2  14 1469.00   20.51
   3  -2  14 1513.27   19.25
   3  -2  13  281.66    6.00
   3   2 -13  293.32    6.55
   3  -2  13  302.59    8.06
   3  -2  13  303.23    8.21
   3  -2  13  297.23    7.27
   3  -2  12  318.81    6.28
   3   2 -12  304.53    6.58
   3  -2  12  309.79    8.01
   3  -2  12  293.03    8.00
   3  -2  12  306.08    7.34
   3  -2  11  440.13    8.77
   3  -2  11  425.00    7.48
   3   2 -11  457.63    8.05
   3  -2  11  414.59    9.21
   3  -2  11  443.64    9.64
   3  -2  10  679.78   10.95
   3   2 -10  616.55    9.65
   3  -2  10  653.69   11.50
   3  -2  10  654.79   11.72
   3  -2  10  641.08    9.46
   3  -2   9  338.07    7.32
   3  -2   9  333.80    6.47
   3   2  -9  342.38    6.63
   3  -2   9  316.49    7.63
   3  -2   9  326.03    7.84
   3  -2   8  189.64    5.29
   3  -2   8  170.84    4.45
   3  -2   8  175.72    5.51
   3  -2   8  181.36    5.63
   3  -2   7   47.74    2.65
   3  -2   7   43.52    2.24
   3  -2   7   45.47    2.19
   3  -2   7   46.51    2.32
   3  -2   7   49.94    2.93
   3  -2   7   46.01    2.82
   3  -2   6  377.14    6.94
   3  -2   6  373.51    7.55
   3  -2   6  398.73    6.69
   3  -2   6  373.35    6.80
   3  -2   6  379.59    8.14
   3  -2   6  368.75    7.95
   3  -2   5  375.31    6.94
   3  -2   5  374.76    6.46
   3  -2   5  400.27    6.92
   3  -2   5  401.15    8.17
   3  -2   5  374.66    7.90
   3  -2   4  503.81    8.08
   3  -2   4  457.31    7.22
  -3   2   4  480.75    8.00
   3  -2   4  472.23    7.64
   3  -2   4  518.49    9.24
   3  -2   4  491.35    8.99
  -3   2   4  491.55    8.60
  -3   2   3 1916.32   19.15
   3  -2   3 1877.03   18.64
   3  -2   3 1930.73   20.42
   3  -2   3 1852.82   20.16
  -3   2   2   14.66    1.33
   3  -2   2   19.67    1.54
   3  -2   2   15.95    1.55
   3  -2   2   14.16    1.55
  -3   2   1  123.43    3.85
   3  -2   1  134.06    3.87
   3  -2   1  135.44    4.37
  -3  -2   0 1113.59   13.40
   3  -2   0 1106.37   13.00
   3  -2   0 1116.78   13.48
  -3  -2   1  127.15    3.90
   3  -2  -1  130.64    3.86
   3  -2  -1  125.96    3.93
  -3  -2   2   16.19    1.39
   3  -2  -2   15.99    1.41
   3  -2  -2   16.65    1.57
   3  -2  -2   15.79    1.42
   3  -2  -3 1808.95   18.28
   3  -2  -3 1818.51   19.12
  -3  -2   3 1767.64   19.24
   3   2   4  466.41    7.71
   3  -2  -4  492.76    7.82
   3  -2  -4  481.46    8.35
  -3  -2   4  476.49    9.39
  -3  -2   4  452.73    8.16
   3   2   5  368.93    6.80
   3  -2  -5  358.21    6.69
   3  -2  -5  396.10    7.56
   3   2   5  433.16    8.01
  -3  -2   5  399.90    8.43
   3   2   6  341.43    7.28
   3   2   6  372.27    6.78
   3  -2  -6  333.39    6.98
   3   2   6  327.26    6.99
  -3  -2   6  377.03    8.16
   3   2   7   46.93    2.64
   3   2   7   41.66    2.19
   3   2   7   43.14    2.52
  -3  -2   7   45.49    2.81
   3   2   8  190.79    5.38
   3   2   8  175.17    4.49
   3   2   8  184.05    4.26
   3   2   8  167.93    5.02
  -3  -2   8  193.38    5.72
   3   2   9  325.79    7.30
   3  -2  -9  325.40    6.76
   3   2   9  334.02    6.41
   3   2   9  344.15    7.39
  -3  -2   9  352.36    7.82
   3   2  10  657.06    9.64
   3  -2 -10  649.07    9.91
   3  -2 -10  643.90   10.46
   3   2  10  647.88   10.68
  -3  -2  10  666.04   11.27
   3   2  11  422.29    8.64
   3  -2 -11  422.75    8.01
   3  -2 -11  401.67    8.20
   3   2  11  407.75    8.34
  -3  -2  11  409.14    8.58
   3  -2 -12  313.94    6.83
   3  -2 -12  310.41    7.19
  -3  -2  12  320.50    7.41
   3   2  12  299.70    7.34
   3  -2 -13  313.32    6.78
   3  -2 -13  302.32    7.20
   3   2  13  298.16    7.22
  -3  -2  13  305.82    7.31
   3   2  13  315.08    7.58
   3   2  14 1593.83   19.31
  -3  -2  14 1549.03   19.07
   3   2  14 1583.52   19.92
   3  -2 -15  140.21    4.60
   3  -2 -15  143.02    5.12
   3   2  15  138.55    4.98
   3   2  15  141.86    5.25
   3  -2 -16  408.05    8.86
   3   2  16  396.42    8.72
   3   2  16  399.19    9.20
   3  -2 -17  646.07   11.48
   3   2  17  635.75   11.35
   3   2  17  664.22   12.22
   3  -2 -18  595.02   10.99
   3   2  18  600.78   11.74
   3  -2 -19  686.04   11.99
   3   2  19  667.54   12.90
   3  -2 -20  318.09    8.08
   3   2  20  307.70    7.65
   3   2  20  330.94    8.81
   3  -2 -21  235.57    6.88
   3   2  21  226.38    6.47
   3  -2 -22  204.78    6.38
   3   2  22  211.57    6.97
   3   2  23  230.40    6.33
   3   2  23  245.28    7.66
   3  -2 -24   56.82    3.38
   3   2  24   48.85    2.84
   3  -2 -24   55.28    3.38
   3   2  24   61.24    3.77
   3  -2 -25  146.06    5.21
   3   2  25  141.53    4.61
   3  -2 -25  148.46    5.35
   3   2  25  157.89    5.91
   3  -2 -26  797.47   12.57
   3  -2 -26  758.36   12.61
   3   2  26  801.69   13.63
   3  -2 -27  327.97    7.43
   3  -2 -27  310.03    7.38
   3   2  27  335.48    8.19
   3  -2 -28  290.29    6.73
   3   2  28  292.95    7.42
   3  -2 -29    8.59    1.38
   3   2  29    6.23    1.33
   3   2  30   69.03    3.24
   3   2  31   12.99    1.44
   3   2  32    7.81    1.08
   3   2  33   36.67    1.81
   3   3 -33   17.52    1.28
   3   3 -32   73.65    2.87
   3  -3  31   91.61    3.43
  -3  -3 -31   75.98    2.15
   3  -3  30   83.50    3.53
  -3  -3 -30   74.33    2.42
   3  -3  29  178.02    5.46
   3  -3  29  181.28    5.31
  -3  -3 -29  173.60    4.05
   3  -3  28   41.03    2.90
   3  -3  28   43.00    2.79
  -3  -3 -28   41.35    2.16
   3  -3  27  278.96    7.52
   3  -3  27  296.79    7.43
  -3  -3 -27  290.39    5.83
   3  -3  26  252.91    7.51
   3  -3  26  273.04    7.41
  -3  -3 -26  264.95    5.71
   3  -3  25   47.14    2.84
   3  -3  25   50.16    3.56
   3  -3  25   47.43    3.32
  -3  -3 -25   47.83    2.55
   3  -3  24  101.51    4.20
   3  -3  24  118.90    5.48
   3  -3  24  115.09    5.14
  -3  -3 -24  106.02    3.79
   3  -3  23   66.23    3.48
   3  -3  23   64.64    4.28
   3  -3  23   62.39    4.03
  -3  -3 -23   66.73    3.07
   3  -3  22  132.82    5.00
   3  -3  22  140.99    6.25
   3  -3  22  137.21    5.81
   3  -3  21  606.86   13.05
   3  -3  21  592.61   11.00
   3  -3  20    8.10    2.03
   3  -3  20    8.10    1.50
   3  -3  19  359.84    8.45
   3  -3  19  387.71   10.27
   3  -3  18  224.54    6.55
   3  -3  18  232.58    7.88
   3  -3  17  638.53   13.20
   3  -3  17  625.52   13.16
   3  -3  16  223.79    6.41
   3  -3  16  242.93    7.81
   3  -3  16  226.27    7.77
   3  -3  15  195.65    5.89
   3  -3  15  192.47    6.84
   3  -3  14  150.32    4.68
   3  -3  14  142.00    4.94
   3   3 -14  149.36    4.54
   3  -3  14  152.35    5.93
   3  -3  14  152.14    6.10
   3  -3  13  364.86    7.98
   3  -3  13  328.60    7.14
   3   3 -13  358.86    7.12
   3  -3  13  338.36    8.70
   3  -3  13  373.83    9.34
   3  -3  12   99.80    3.77
   3  -3  12  104.99    4.17
   3   3 -12  103.57    3.66
   3  -3  12  100.69    4.64
   3  -3  12  104.46    4.90
   3  -3  11  684.69   10.44
   3  -3  11  717.56   11.44
   3   3 -11  682.40   10.06
   3  -3  11  686.92   12.23
   3  -3  11  682.32   12.67
   3   3 -10  450.60    7.75
   3  -3  10  428.11    9.23
   3  -3  10  464.02    9.96
   3  -3  10  447.43    8.13
   3  -3   9  716.75   10.67
   3  -3   9  742.12   11.41
   3   3  -9  715.51   10.11
   3  -3   9  741.28   12.65
   3  -3   8  438.55    8.00
   3   3  -8  452.70    7.57
   3  -3   8  432.86    8.94
   3  -3   8  425.87    9.17
   3  -3   7   28.72    2.02
   3   3  -7   29.14    1.84
   3  -3   7   29.38    2.30
   3  -3   7   29.29    2.37
   3  -3   6  144.26    4.38
   3  -3   6  144.04    4.88
   3  -3   5 1029.76   13.50
   3  -3   5 1040.82   14.26
   3  -3   5 1048.95   14.60
   3  -3   4  643.73   10.15
   3  -3   4  609.25    8.97
   3  -3   4  666.38   10.52
   3  -3   4  602.12   10.48
   3  -3   3  231.05    5.78
   3  -3   3  236.07    5.17
   3  -3   3  236.41    6.15
   3  -3   2   91.52    3.62
   3  -3   2   85.16    3.07
   3  -3   2   89.81    3.69
   3  -3   1  144.18    3.94
   3  -3   1  144.02    4.60
   3  -3   0  115.75    3.49
   3  -3   0  124.03    4.22
   3  -3  -1  142.31    3.88
   3  -3  -2   83.47    2.98
   3   3   3  237.40    5.34
   3  -3  -3  237.47    5.16
   3   3   4  608.88    9.08
   3  -3  -4  607.27    8.88
   3   3   5  995.76   12.40
  -3  -3   5 1043.27   16.16
   3  -3  -6  155.45    4.88
  -3  -3   6  157.06    5.74
   3  -3  -7   26.37    1.80
   3   3   7   26.51    1.71
   3  -3  -7   26.75    2.12
  -3  -3   7   28.01    2.60
   3  -3  -8  436.91    7.54
   3  -3  -8  439.07    8.60
  -3  -3   8  456.53   10.01
   3   3   9  701.96   11.25
   3   3   9  714.83    9.97
   3  -3  -9  841.06   10.93
   3  -3  -9  757.44   11.79
  -3  -3   9  795.02   13.56
   3   3  10  446.26    8.68
   3   3  10  429.11    7.30
   3  -3 -10  466.16    7.87
   3  -3 -10  433.81    8.84
  -3  -3  10  465.93   10.20
   3   3  11  689.33   11.43
   3  -3 -11  790.02   10.75
   3  -3 -11  712.42   11.73
  -3  -3  11  761.40   13.35
   3   3  12  109.02    4.29
   3  -3 -12  116.65    3.83
   3  -3 -12  110.95    4.49
   3   3  13  355.52    8.03
   3  -3 -13  355.43    8.09
   3   3  13  348.39    7.51
  -3  -3  13  341.04    8.69
   3   3  14  137.20    4.96
   3  -3 -14  158.16    5.32
   3  -3 -14  162.56    4.70
   3   3  14  138.10    4.62
  -3  -3  14  145.27    5.56
   3   3  15  198.71    6.07
   3  -3 -15  218.57    6.31
   3   3  15  191.63    5.47
  -3  -3  15  216.37    6.89
   3   3  16  229.90    6.64
   3  -3 -16  242.71    6.71
   3   3  17  609.48   11.42
   3  -3 -17  645.55   11.45
   3   3  18  236.63    6.92
   3  -3 -18  226.05    6.58
   3  -3 -19  365.64    8.46
  -3  -3  19  371.41    9.70
   3   3  19  367.02    8.69
   3  -3 -20   10.62    1.77
  -3  -3  20    8.31    1.70
   3   3  20    9.29    1.58
   3  -3 -21  600.95   11.00
   3   3  21  593.50   11.27
   3   3  22  138.78    5.16
   3  -3 -22  131.16    4.90
   3   3  23   67.73    3.58
   3  -3 -23   65.80    3.46
   3   3  24  103.18    4.32
   3  -3 -24  119.74    4.50
   3   3  25   53.44    3.01
   3  -3 -25   47.34    2.85
   3   3  26  248.59    6.29
   3  -3 -26  257.63    6.18
   3   3  27  282.73    6.51
   3   3  28   37.77    2.24
   3   3  29  159.12    4.28
   3   3  30   61.57    2.37
   3  -4  31   41.18    1.83
  -3  -4 -31   25.53    1.06
   3  -4  30   47.83    2.25
  -3  -4 -30   41.52    1.64
   3  -4  29  253.57    5.62
  -3  -4 -29  255.51    4.61
   3  -4  28   20.29    1.82
   3  -4  28   21.51    1.87
  -3  -4 -28   23.33    1.57
  -3  -4 -27   24.76    1.71
   3  -4  27   22.40    2.01
   3  -4  27   23.90    2.08
   3  -4  26   32.17    2.48
   3  -4  26   28.39    2.40
  -3  -4 -26   31.42    2.01
   3  -4  25  999.50   14.63
   3  -4  25  954.18   14.38
  -3  -4 -25  996.29   12.29
   3  -4  25  929.92   12.90
   3  -4  24    4.31    1.46
  -3  -4 -24    3.57    1.23
   3  -4  24    4.03    1.17
   3  -4  23   81.53    4.18
  -3  -4 -23   78.92    3.32
   3  -4  23   80.86    3.69
   3  -4  22  419.72    9.82
   3  -4  21  202.95    6.83
   3  -4  21  181.38    6.59
   3  -4  20  235.38    7.49
   3  -4  20  236.44    7.69
   3  -4  19    3.96    1.54
   3  -4  19    3.12    1.81
   3  -4  18  672.90   13.23
   3  -4  18  678.55   13.58
   3  -4  17  141.38    5.80
   3  -4  17  135.65    6.05
   3  -4  17  132.58    5.03
   3  -4  16  171.20    6.30
   3  -4  16  176.98    6.81
   3  -4  16  166.06    5.56
   3  -4  15  213.80    6.95
   3  -4  15  204.98    6.18
   3  -4  14   56.87    3.60
  -3  -4 -14   61.20    3.62
   3  -4  14   64.41    4.13
   3  -4  14   57.66    3.28
   3  -4  13  207.65    5.97
   3  -4  13  220.68    6.77
  -3  -4 -13  213.74    6.81
   3  -4  13  217.21    7.30
   3  -4  13  214.27    6.20
   3  -4  12  174.63    5.51
   3  -4  12  191.72    6.22
   3  -4  12  197.56    6.82
   3  -4  12  186.56    5.72
   3  -4  11  199.13    5.73
   3  -4  11  205.05    6.26
   3  -4  11  208.37    6.85
   3  -4  11  188.80    5.68
   3  -4  10 1020.64   14.95
   3  -4  10  995.98   15.90
   3  -4  10 1017.16   14.30
   3  -4   9   61.79    3.18
   3  -4   9   59.50    3.25
   3  -4   9   56.01    3.49
   3  -4   9   56.93    3.06
   3  -4   8  141.57    4.84
   3  -4   8  142.92    4.88
   3  -4   8  143.57    5.43
   3  -4   8  139.95    4.64
   3  -4   7  585.99   10.00
   3  -4   7  563.32   10.81
   3  -4   7  578.49    9.75
   3  -4   6  530.59   10.28
   3  -4   6  528.65    9.11
   3  -4   5  373.68    8.36
   3  -4   5  364.34    7.30
   3  -4   4  159.68    5.26
   3  -4   3  158.43    5.17
   3  -4   1  236.59    6.33
   3  -4   0  132.40    4.70
  -3  -4   0  139.12    5.97
   3  -4  -1  217.65    6.10
  -3  -4   1  238.01    7.86
  -3  -4   2  325.02    9.19
  -3  -4   3  184.16    6.74
  -3  -4   4  175.92    6.62
  -3  -4   5  417.39   10.35
  -3  -4   6  471.89   11.07
  -3  -4   7  604.50   12.54
  -3  -4   8  150.25    6.10
  -3  -4   9   69.10    4.22
  -3  -4  10 1174.80   18.34
  -3  -4  11  207.22    7.15
  -3  -4  12  186.23    6.78
   3  -4 -13  218.88    6.44
  -3  -4  13  215.93    7.26
  -3  -4  13  215.28    6.82
   3  -4 -14   59.96    3.41
  -3  -4  14   63.25    3.97
  -3  -4  14   60.59    3.59
   3  -4 -15  219.26    6.44
  -3  -4  15  236.25    7.53
  -3  -4  15  214.56    6.59
   3  -4 -16  178.01    5.80
   3  -4 -17  142.89    5.17
   3  -4 -18  673.26   11.70
  -3  -4  18  703.83   14.45
   3  -4 -19    3.71    1.33
  -3  -4  19    3.75    1.57
   3  -4 -20  239.69    6.42
  -3  -4  20  233.48    7.66
   3  -4 -21  194.77    5.66
  -3  -4  21  206.99    6.82
  -3  -4  22  386.43    8.90
  -3  -4  28   20.09    1.62
  -3  -5 -28   85.52    2.30
  -3  -5 -27  119.13    3.01
  -3  -5 -26   34.35    1.78
   3  -5  25   59.23    2.96
  -3  -5 -25   65.78    2.53
   3  -5  24  112.93    4.21
  -3  -5 -24  118.16    3.52
   3  -5  23  163.73    5.28
  -3  -5 -23  155.16    4.20
   3  -5  22   13.67    1.87
  -3  -5 -22   12.50    1.53
   3  -5  22   11.48    1.50
   3  -5  21   49.66    3.23
  -3  -5 -21   44.21    2.58
   3  -5  21   43.75    2.64
   3  -5  20   92.74    4.47
   3  -5  20   88.45    3.76
   3  -5  19   65.63    3.40
   3  -5  19   68.86    3.99
   3  -5  19   65.28    3.32
   3  -5  18   98.58    4.18
   3  -5  18   96.53    4.78
   3  -5  18   90.46    3.95
   3  -5  17   24.26    2.23
   3  -5  17   26.43    2.77
   3  -5  17   22.89    2.15
   3  -5  16   41.06    2.78
   3  -5  16   43.80    3.37
   3  -5  16   40.64    2.77
   3  -5  15   49.66    3.01
   3  -5  15   51.39    3.69
   3  -5  15   54.23    3.18
   3  -5  14   53.75    3.13
   3  -5  14   58.51    3.84
  -3  -5 -14   55.16    3.39
   3  -5  14   53.45    3.14
   3  -5  13   55.65    3.71
  -3  -5 -13   54.30    3.48
   3  -5  13   52.39    3.10
   3  -5  12  125.55    5.36
  -3  -5 -12  113.14    5.07
   3  -5  12  121.40    4.70
   3  -5  11   19.78    2.33
  -3  -5 -11   26.50    2.70
   3  -5  11   19.61    2.11
   3  -5  10  360.09    8.94
  -3  -5 -10  387.54    9.86
   3  -5  10  363.39    8.16
  -3  -5  -9   74.83    4.46
   3  -5   9   76.11    4.01
   3  -5   9   77.78    3.70
   3  -5   8  256.83    7.21
   3  -5   8  259.97    6.69
   3  -5   7   57.30    3.22
  -3  -5  -7   65.28    4.30
   3  -5   7   54.79    3.30
   3  -5   7   56.43    3.12
   3  -5   6  105.67    4.24
  -3  -5  -6  108.53    5.48
   3  -5   6   96.67    4.25
   3  -5   6   98.25    4.02
   3  -5   5  477.96    9.35
  -3  -5  -5  465.12   11.40
   3  -5   5  437.99    9.03
   3  -5   5  433.18    8.60
   3  -5   4  597.54   10.60
  -3  -5  -4  579.15   13.41
   3  -5   4  583.94   10.00
  -3  -5  -3  350.09   10.33
   3  -5   3  349.01    7.50
   3  -5   2 1064.08   14.74
   3  -5   2 1073.51   14.07
   3  -5   1  779.04   12.14
   3  -5   0    6.80    1.53
   3  -5  -1  737.69   11.11
   3  -5  -1  788.19   12.15
   3  -5  -2 1040.61   13.55
   3  -5  -2 1053.11   14.87
   3  -5  -3  350.79    7.17
   3  -5  -3  374.85    8.21
   3  -5  -4  577.46   10.53
   3  -5  -4  564.34    9.39
   3  -5  -5  470.65    9.31
  -3  -5   5  453.66   11.32
  -3  -5   5  462.25   11.27
   3  -5  -5  448.91    8.20
   3  -5  -6   96.69    4.13
  -3  -5   6  100.47    5.26
  -3  -5   6  102.17    5.23
   3  -5  -6   99.43    3.70
   3  -5  -7   55.08    3.19
  -3  -5   7   59.24    4.17
  -3  -5   7   63.11    4.20
   3  -5  -7   56.72    2.89
   3  -5  -8  261.54    6.75
  -3  -5   8  260.33    8.13
   3  -5  -8  267.45    6.23
  -3  -5   9   79.88    4.71
  -3  -5   9   84.02    4.63
  -3  -5  10  367.85    9.91
  -3  -5  10  347.70    9.31
  -3  -5  11   22.11    2.70
  -3  -5  11   20.74    2.48
  -3  -5  12  139.65    5.95
  -3  -5  12  130.89    5.45
  -3  -5  13   54.66    3.80
  -3  -5  13   52.29    3.41
  -3  -5  14   64.03    4.07
  -3  -5  14   52.15    3.31
  -3  -5  15   52.38    3.18
  -3  -5  17   30.21    3.16
  -3  -5  18   95.80    5.07
  -3  -5  19   69.32    4.17
  -3  -5  20   90.19    4.53
  -3  -5  21   47.89    3.18
  -3  -5  22   10.91    1.59
  -3  -5  23  152.00    4.71
  -3  -5  27   99.28    3.22
   3  -6  24   24.16    1.58
   3  -6  23   84.05    3.01
   3  -6  22   66.36    2.85
  -3  -6 -22   68.29    2.46
  -3  -6 -21   94.97    3.90
   3  -6  21   97.37    3.60
  -3  -6 -21  106.39    3.14
  -3  -6 -20  118.36    4.49
   3  -6  20  119.58    4.15
  -3  -6 -19  112.32    4.63
   3  -6  19  117.16    4.30
  -3  -6 -18  143.76    5.56
   3  -6  18  160.76    5.14
   3  -6  17  272.23    6.87
   3  -6  17  259.96    6.00
   3  -6  16    6.96    1.47
   3  -6  16    7.31    1.30
   3  -6  15    4.81    1.36
   3  -6  15    4.50    1.21
  -3  -6 -14   55.39    3.88
   3  -6  14   54.41    3.21
   3  -6  14   52.51    2.88
  -3  -6 -13  240.57    7.99
   3  -6  13  254.05    6.89
   3  -6  13  249.95    6.25
  -3  -6 -12  194.65    7.17
   3  -6  12  193.52    5.93
  -3  -6 -12  189.28    6.17
   3  -6  12  188.83    5.49
  -3  -6 -11  116.83    5.69
   3  -6  11  121.60    4.67
  -3  -6 -11  127.36    5.23
   3  -6  11  120.30    4.39
  -3  -6 -10   47.56    3.80
   3  -6  10   45.11    2.86
  -3  -6 -10   46.15    3.36
   3  -6  10   49.05    2.85
  -3  -6  -9  113.63    5.64
  -3  -6  -9  116.53    5.26
   3  -6   9  117.41    4.38
   3  -6   8   38.47    2.67
  -3  -6  -8   35.75    3.47
  -3  -6  -8   35.04    3.10
   3  -6   8   38.02    2.57
   3  -6   7  254.55    6.46
  -3  -6  -7  250.47    8.35
  -3  -6  -7  251.72    7.96
   3  -6   7  254.95    6.52
   3  -6   6  509.67    9.19
  -3  -6  -6  491.64   11.41
   3  -6   6  485.70    9.16
   3  -6   5  176.35    5.31
  -3  -6  -5  167.43    6.84
  -3  -6  -5  175.44    6.83
   3  -6   4  346.14    7.57
  -3  -6  -4  366.13   10.03
  -3  -6  -4  368.64   10.02
   3  -6   3  555.17    9.75
  -3  -6  -3  562.56   12.77
  -3  -6  -3  579.45   12.84
   3  -6   2   22.09    2.03
   3  -6   2   23.10    2.11
  -3  -6  -2   21.85    2.93
  -3  -6  -2   20.23    2.95
   3  -6   1   40.34    2.54
   3  -6   1   42.66    2.67
  -3  -6  -1   41.95    3.68
  -3  -6  -1   51.28    4.11
   3  -6   0    5.17    1.21
   3  -6   0    4.18    1.25
  -3  -6   0    4.02    1.95
  -3  -6   0    3.69    2.04
   3  -6  -1   42.11    2.54
   3  -6  -1   41.15    2.69
  -3  -6   1   44.17    3.75
   3  -6  -2   24.78    2.13
  -3  -6   2   20.69    2.79
   3  -6  -2   22.16    1.93
   3  -6  -3  535.78    9.49
   3  -6  -3  535.16    9.16
   3  -6  -4  341.76    7.32
  -3  -6   4  360.10    9.83
  -3  -6   4  347.58    9.71
   3  -6  -4  350.36    7.15
   3  -6  -5  162.32    4.93
  -3  -6   5  149.43    6.39
  -3  -6   5  164.80    6.58
   3  -6  -5  169.17    4.84
   3  -6  -6  462.52    8.59
  -3  -6   6  457.20   11.03
   3  -6  -6  470.12    8.43
   3  -6  -7  227.41    5.81
  -3  -6   7  242.58    7.77
   3  -6  -8   40.67    2.53
  -3  -6   8   33.27    2.97
   3  -6  -9  111.54    3.97
  -3  -6   9  107.18    4.98
   3  -6 -10   46.53    2.62
  -3  -6  10   46.33    3.28
   3  -6 -11  122.93    4.11
  -3  -6  11  122.51    5.09
   3  -6 -12  200.60    5.16
  -3  -6  12  200.87    6.37
  -3  -6  13  260.15    7.04
  -3  -6  14   63.02    4.38
  -3  -6  15    4.10    1.75
  -3  -6  16    7.42    1.91
  -3  -6  17  290.70    8.23
  -3  -6  18  158.32    5.73
  -3  -6  19  134.27    5.01
  -3  -6  20  129.11    4.62
  -3  -6  21  102.51    3.79
  -3  -6  22   63.33    2.67
  -3  -6  23   53.90    2.13
  -3  -6  24   26.10    1.76
  -3  -6  25   10.70    1.03
  -3  -7 -20   56.16    1.70
  -3  -7 -19  111.88    2.57
  -3  -7 -18  230.08    4.01
  -3  -7 -17   43.61    1.79
  -3  -7 -16  105.23    2.87
  -3  -7 -15    7.04    1.03
  -3  -7 -14    0.33    0.94
  -3  -7 -13  104.51    4.12
  -3  -7 -12  280.15    7.02
  -3  -7 -11  123.59    4.75
  -3  -7 -10   45.76    3.03
  -3  -7  -9    6.15    1.56
  -3  -7  -8  113.91    4.77
  -3  -7  -7   34.94    2.84
  -3  -7  -6  133.55    5.30
  -3  -7  -5  325.99    8.27
  -3  -7  -5  323.20    8.64
  -3  -7  -4  226.29    6.86
  -3  -7  -4  226.06    7.22
  -3  -7  -3  387.83    9.18
  -3  -7  -3  413.06    9.95
   3  -7   2  415.93    7.25
  -3  -7  -2  431.28    9.70
  -3  -7  -2  436.28   10.36
   3  -7   1   87.45    3.24
  -3  -7  -1   99.80    4.67
  -3  -7  -1  100.45    4.99
   3  -7   0   14.00    1.46
  -3  -7   0   16.00    2.19
  -3  -7   0   16.17    2.50
   3  -7  -1   92.40    3.30
  -3  -7   1  105.52    4.78
   3  -7  -2  408.23    7.13
  -3  -7   2  451.37    9.93
   3  -7  -3  387.38    6.82
  -3  -7   3  412.83    9.44
  -3  -7   3  406.95    9.74
  -3  -7   4  224.20    6.78
  -3  -7   4  230.27    7.15
  -3  -7   5  338.44    8.26
  -3  -7   5  313.14    8.53
  -3  -7   6  137.93    5.26
  -3  -7   7   32.83    2.72
  -3  -7   8  117.16    4.71
  -3  -7   9    6.57    1.82
  -3  -7  10   47.70    3.52
  -3  -7  14    0.57    1.23
  -3  -7  15    7.42    1.46
  -3  -7  16  130.58    4.57
  -3  -7  17   46.69    2.60
  -3  -7  18  233.51    5.37
  -3  -7  19   94.17    3.05
  -3  -7  20   45.94    1.88
  -3  -7  20   52.79    2.21
  -3  -8  -5   62.29    2.57
  -3  -8  -4    7.00    1.06
  -3  -8  -3   41.95    2.20
  -3  -8  -2   36.87    2.10
  -3  -8  -1   18.33    1.57
  -3  -8   0   75.55    2.96
  -3  -8   1   18.20    1.54
  -3  -8   2   35.46    2.35
  -3  -8   2   34.36    2.05
  -3  -8   3   45.59    2.59
  -3  -8   4    7.82    1.29
  -3  -8   5   69.54    3.17
  -3  -8   6  193.33    5.10
  -3  -8   7   37.66    2.31
  -3  -8   8  116.38    3.86
  -3  -8   9   57.32    2.67
  -3  -8  10   76.99    2.97
  -3  -8  11   33.64    1.90
  -3  -8  12   21.63    1.51
   4   0   0   21.44    1.95
   4   0   0   18.86    1.98
   4   0   0   20.94    2.16
   4   0   1 1969.92   20.83
   4   0   1 1899.64   20.55
   4   0  -1 1712.13   18.79
   4   0  -1 1789.10   21.18
   4   0   2   96.89    3.90
   4   0   2  100.87    3.97
   4   0  -2   96.69    3.52
   4   0   2  103.04    4.65
   4   0  -2   97.39    4.21
   4   0   3  164.87    5.07
   4   0   3  165.36    5.01
   4   0  -3  150.48    4.50
   4   0   3  173.15    5.72
   4   0   3  150.76    5.22
   4   0  -3  154.17    5.27
   4   0   4 1024.10   13.63
   4   0   4  942.21   13.11
   4   0  -4  903.45   12.51
   4   0   4 1017.61   14.83
   4   0   4  939.92   14.06
   4   0  -4  962.83   14.24
   4   0   5  115.38    4.14
   4   0   5  121.07    4.19
   4   0  -5  124.52    4.15
   4   0   5  126.02    5.00
   4   0   5  116.39    4.66
   4   0  -5  119.69    4.72
   4   0   6   12.98    1.56
   4   0   6   15.82    1.63
   4   0  -6   13.98    1.55
   4   0   6   14.93    1.92
   4   0   6   12.90    1.74
   4   0  -6   15.23    1.85
   4   0   7   64.74    3.10
   4   0   7   66.80    3.13
   4   0  -7   58.59    2.97
   4   0   7   58.11    3.54
   4   0   7   59.11    3.29
   4   0  -7   60.78    3.36
   4   0   8   55.15    2.86
   4   0  -8   55.94    2.92
   4   0   8   57.06    3.55
   4   0   8   56.41    3.22
   4   0  -8   57.82    3.29
   4   0   9  289.48    6.54
   4   0  -9  271.83    6.57
   4   0   9  284.63    7.07
   4   0  -9  276.19    7.13
   4   0 -10   13.00    1.63
   4   0  10   15.14    1.81
   4   0 -10   11.99    1.70
   4   0 -11  260.01    6.67
   4   0  11  255.88    6.67
   4   0 -12    4.64    1.33
   4   0  12    5.48    1.28
   4   0 -12    4.59    1.24
   4   0 -13   24.75    2.26
   4   0  13   22.27    2.03
   4   0 -13   24.01    2.11
   4   0 -14    7.09    1.53
   4   0 -14    4.87    1.55
   4   0  14    6.99    1.89
   4   0  14    6.35    1.26
   4   0 -14    9.22    1.47
   4   0 -15    0.16    1.14
   4   0 -15    1.09    1.48
   4   0  15    0.76    1.44
   4   0 -16    3.15    1.57
   4   0  16    3.46    1.76
   4   0 -17  743.42   13.08
   4   0  17  785.02   14.70
   4   0 -18 1071.15   16.25
   4   0  18 1058.64   17.60
   4   0  19  188.82    6.99
   4   0  20  300.19    8.84
   4   0 -21  255.34    7.15
   4   0  21  275.16    8.28
   4   0 -22    3.99    1.63
   4   0  22    3.02    1.55
   4   0 -23  197.80    6.06
   4   0  23  223.15    7.04
   4   0  24    1.02    1.29
   4   0  25   28.17    2.51
   4   0  26    8.39    1.51
   4   0  27  244.39    6.18
   4   0  28   51.55    2.67
   4   0 -29  117.19    3.72
   4   0  29  117.10    3.66
   4   0 -30   34.18    1.92
   4   0  30   27.91    1.62
   4   0 -31   74.05    2.48
   4   0  31   46.42    1.74
   4   0 -32   64.52    2.07
   4  -1  31   14.03    1.12
   4   1 -31   12.16    1.15
   4  -1  30    3.64    0.87
   4  -1  29  160.02    4.45
   4   1 -29  160.06    4.31
   4  -1  29  159.22    4.46
   4  -1  28   76.43    3.31
   4   1 -28   75.44    3.13
   4  -1  28   70.76    3.26
   4  -1  27  168.97    5.25
   4   1 -27  177.88    4.96
   4  -1  27  173.71    5.33
   4  -1  26  288.77    7.26
   4  -1  26  293.03    7.32
   4  -1  25   65.67    3.62
   4  -1  25   65.30    3.72
   4  -1  24   65.43    3.76
   4  -1  24   62.01    3.89
   4  -1  23    7.83    1.79
   4  -1  23    6.49    1.87
   4  -1  22  236.53    7.37
   4  -1  21  267.55    8.21
   4  -1  20   63.53    4.07
   4  -1  19  298.50    8.51
   4  -1  18  242.75    7.66
   4   1 -18  274.93    7.36
   4  -1  17  260.80    8.01
   4   1 -17  274.27    7.42
   4   1 -16 1184.82   16.16
   4  -1  16 1106.59   18.14
   4  -1  15  464.02   10.59
   4  -1  15  487.43   11.42
   4  -1  14   59.30    3.75
   4   1 -14   65.15    3.64
   4  -1  14   60.79    3.97
   4   1 -14   58.66    3.05
   4  -1  13   47.76    3.37
   4   1 -13   46.64    3.15
   4  -1  13   48.14    3.56
   4   1 -13   43.78    2.75
   4  -1  12 1124.71   17.03
   4  -1  12 1109.44   17.15
   4   1 -12 1087.26   15.14
   4  -1  11  149.71    5.80
   4   1 -11  151.61    5.27
   4  -1  11  142.56    5.83
   4   1 -11  151.63    5.20
   4  -1  10  304.93    8.19
   4   1 -10  293.72    6.84
   4  -1  10  299.65    8.17
   4   1 -10  296.91    7.33
   4  -1   9   93.60    3.76
   4   1  -9   87.69    3.58
   4  -1   9   89.55    4.47
   4  -1   9   94.47    4.15
   4   1  -9   93.26    4.12
   4  -1   8   11.30    1.47
   4   1  -8    6.38    1.12
   4  -1   8    8.19    1.70
   4  -1   8    7.90    1.52
   4   1  -8    6.98    1.49
   4  -1   7  111.68    4.04
   4   1  -7  112.14    3.84
   4  -1   7  125.38    5.04
   4  -1   7  112.97    4.57
   4   1  -7  113.75    4.60
   4  -1   6   21.31    1.60
   4  -1   6   25.07    1.98
   4  -1   6   17.90    1.81
   4   1  -6   27.00    1.89
   4  -1   6   22.03    2.29
   4  -1   6   20.34    2.09
   4  -1   5    0.44    0.60
   4  -1   5    0.67    0.77
   4  -1   5   -0.04    0.87
   4  -1   5    0.28    0.96
   4  -1   4  338.67    6.75
   4  -1   4  338.16    7.09
   4  -1   4  347.69    7.37
   4  -1   4  324.20    7.85
   4  -1   3  135.55    4.42
   4  -1   3  143.62    4.67
   4   1  -3  130.84    4.52
   4  -1   3  146.21    5.34
   4  -1   3  127.98    4.88
   4  -1   2 1704.36   19.29
   4  -1   2 1718.08   19.68
   4   1  -2 1755.54   19.80
   4  -1   1  148.66    4.67
   4  -1   1  151.27    4.85
   4   1  -1  154.97    4.87
   4  -1   1  157.73    5.57
   4  -1   0   53.18    2.81
   4  -1   0   48.02    2.83
   4   1   0   48.17    2.75
   4  -1   0   44.76    2.94
   4  -1  -1  149.64    4.69
   4  -1  -1  159.34    5.02
   4   1   1  160.57    4.92
   4  -1  -1  145.21    5.15
   4   1   2 1601.09   19.03
   4  -1  -2 1750.60   19.04
   4   1   2 1595.38   18.73
   4  -1  -2 1731.49   19.59
   4  -1  -2 1732.21   19.25
   4  -1  -2 1652.07   20.26
   4   1   3  124.53    4.59
   4  -1  -3  131.26    4.39
   4   1   3  141.18    4.55
   4  -1  -3  137.80    4.66
   4  -1  -3  134.65    4.57
   4  -1  -3  134.45    5.00
   4   1   4  342.85    7.58
   4   1   4  323.09    7.02
   4  -1  -4  339.85    7.40
   4  -1  -4  334.51    7.30
   4  -1  -4  326.55    7.84
   4   1   5    4.19    1.14
   4   1   5    0.08    0.69
   4  -1  -5    4.77    1.18
   4  -1  -5    0.04    0.86
   4   1   5    0.72    1.14
   4  -1  -5    8.24    1.59
   4   1   6   21.73    1.91
   4   1   6   24.06    1.92
   4  -1  -6   20.68    1.97
   4  -1  -6   20.92    1.95
   4   1   6   26.26    2.49
   4  -1  -6   22.00    2.17
   4   1   7  118.93    4.18
   4   1   7  117.93    4.05
   4  -1  -7  105.31    4.12
   4  -1  -7  115.07    4.30
   4   1   7  126.02    5.00
   4  -1  -7  111.59    4.54
   4   1   7  105.34    4.45
   4   1   8    7.46    1.29
   4   1   8    7.38    1.20
   4  -1  -8    7.83    1.42
   4   1   8    7.81    1.56
   4  -1  -8    7.87    1.54
   4   1   8    7.36    1.45
   4   1   9   92.07    3.78
   4   1   9   96.12    3.59
   4  -1  -9   96.62    4.01
   4   1   9   99.25    4.63
   4  -1  -9   87.05    4.04
   4   1   9   94.17    4.14
   4   1  10  308.36    8.23
   4   1  10  321.39    7.08
   4  -1 -10  334.96    7.78
   4  -1 -10  299.45    7.31
   4   1  10  328.92    8.46
   4   1  10  300.44    7.44
   4   1  11  148.68    5.80
   4   1  11  163.19    4.95
   4  -1 -11  155.92    5.39
   4  -1 -11  155.92    5.27
   4   1  11  173.11    6.13
   4   1  11  155.09    5.21
   4   1  12 1137.48   17.25
   4  -1 -12 1112.52   15.68
   4   1  12 1088.32   16.78
   4   1  12 1064.01   15.20
   4   1  13   45.67    3.37
   4  -1 -13   54.02    3.34
   4  -1 -13   52.62    3.23
   4   1  13   48.59    3.48
   4   1  13   45.22    2.83
   4   1  14   64.47    3.94
   4  -1 -14   71.50    3.83
   4  -1 -14   60.75    3.53
   4   1  14   63.44    3.91
   4   1  14   57.18    3.09
   4   1  15  442.30   10.34
   4  -1 -15  460.49    9.82
   4   1  15  467.15   10.61
   4   1  16 1053.39   17.00
   4  -1 -16 1046.95   15.83
   4   1  17  261.18    8.05
   4  -1 -17  261.95    7.34
   4   1  17  247.67    7.66
   4   1  18  235.78    7.63
   4   1  18  251.16    7.68
   4   1  19  283.07    8.37
   4   1  19  290.93    8.13
   4   1  20   70.06    4.19
   4   1  20   64.50    3.83
   4   1  21  302.54    8.60
   4   1  21  297.14    7.91
   4   1  22  216.53    7.25
   4   1  22  230.14    6.79
   4   1  23    6.88    1.69
   4  -1 -23    9.01    1.86
   4   1  23    7.63    1.50
   4   1  24   59.94    3.68
   4  -1 -24   65.94    3.50
   4   1  24   59.57    3.30
   4   1  25   69.50    3.78
   4  -1 -25   61.43    3.26
   4   1  25   59.87    3.14
   4   1  26  291.29    7.29
   4  -1 -26  280.49    6.64
   4   1  27  180.86    5.41
   4  -1 -27  180.25    5.02
   4   1  27  177.50    4.64
   4   1  28   72.12    3.25
   4  -1 -28   74.72    3.11
   4   1  28   65.66    2.62
   4   1  29  160.12    4.58
   4  -1 -29  168.58    4.29
   4  -1 -30    5.13    0.93
   4  -1 -31   18.26    1.24
   4   2 -31  133.56    2.85
   4  -2  31  114.63    2.88
   4   2 -30   41.68    1.85
   4  -2  30   40.91    1.97
   4   2 -29   57.98    2.35
   4   2 -28    4.77    1.03
   4   2 -27   48.90    2.46
   4  -2  26  161.69    4.86
   4  -2  25   53.53    3.02
   4  -2  25   52.65    3.25
   4  -2  24  167.26    5.48
   4  -2  24  178.21    6.06
   4  -2  23  141.18    5.23
   4  -2  23  166.26    6.06
   4  -2  22   27.19    2.50
   4  -2  22   27.75    2.88
  -4  -2 -22   29.35    1.67
   4  -2  21  389.48    9.26
  -4  -2 -21  352.80    6.15
   4  -2  20  180.13    6.25
   4  -2  20  187.38    6.92
   4  -2  19  309.48    8.31
   4  -2  19  314.25    9.08
   4  -2  18  167.93    6.20
   4  -2  18  183.80    6.93
   4  -2  17  118.77    5.19
   4  -2  17  122.99    5.66
   4  -2  16  416.90    9.90
   4   2 -16  444.42    8.98
   4  -2  16  435.61   10.67
   4  -2  15   66.62    3.89
   4   2 -15   71.44    3.58
   4  -2  15   70.42    4.30
   4  -2  14   20.55    2.34
   4   2 -14   20.37    2.12
   4  -2  14   22.22    2.68
   4   2 -14   19.79    1.91
   4  -2  13   24.53    1.77
   4  -2  13   23.89    2.44
   4   2 -13   24.83    2.26
   4  -2  13   26.39    2.71
   4   2 -13   24.07    2.15
   4  -2  12  156.50    4.42
   4   2 -12  167.70    5.38
   4  -2  12  175.65    6.37
   4   2 -12  154.76    5.20
   4  -2  11  142.56    4.21
   4   2 -11  146.51    5.06
   4  -2  11  153.68    5.87
   4  -2  10  116.61    3.89
   4   2 -10  118.31    4.50
   4  -2  10  120.98    5.17
   4  -2   9   51.42    2.60
   4   2  -9   47.86    2.89
   4  -2   9   46.54    3.27
   4  -2   8  402.43    7.58
   4  -2   8  441.92    9.77
   4  -2   7  911.21   12.81
   4  -2   7  894.63   14.38
   4  -2   6  436.43    8.03
   4  -2   6  458.07    8.29
   4  -2   6  492.48    8.87
   4  -2   6  471.01    9.92
   4  -2   5   55.72    2.86
   4  -2   5   61.12    2.92
   4  -2   5   58.24    3.00
   4  -2   5   64.04    3.56
   4  -2   4 1091.04   13.81
   4  -2   4 1144.35   14.74
   4   2  -4 1097.21   14.62
   4  -2   4 1133.21   15.96
   4  -2   3  194.90    5.49
   4  -2   3  184.97    5.04
   4  -2   3  203.74    5.53
   4   2  -3  192.61    5.48
   4  -2   3  206.12    6.19
   4  -2   2   29.46    2.04
   4  -2   2   35.46    2.35
   4   2  -2   33.31    2.29
   4  -2   2   34.29    2.54
   4  -2   1   29.02    1.98
   4  -2   1   23.81    1.99
   4   2  -1   22.16    1.90
   4  -2   1   28.41    2.38
   4  -2   0  162.55    4.58
   4  -2   0  171.97    5.15
   4   2   0  171.23    5.04
   4  -2  -1   25.59    1.87
   4   2   1   23.68    2.07
   4  -2  -1   25.40    2.13
   4   2   1   22.52    1.88
  -4  -2   1   20.21    2.26
   4  -2  -2   29.30    2.02
   4   2   2   32.78    2.38
   4  -2  -2   31.97    2.33
   4   2   2   31.89    2.19
  -4  -2   2   35.16    2.77
   4  -2  -3  195.59    5.14
   4   2   3  204.56    5.71
   4   2   3  194.86    5.22
   4  -2  -3  206.76    5.71
  -4  -2   3  191.88    6.17
   4   2   4 1142.81   14.71
   4  -2  -4 1077.73   13.59
   4   2   4 1019.28   13.35
   4  -2  -4 1113.43   14.73
  -4  -2   4 1023.60   15.39
   4   2   5   59.74    3.04
   4  -2  -5   53.50    2.69
   4   2   5   50.57    2.56
   4  -2  -5   60.46    3.08
   4  -2  -5   62.70    3.30
  -4  -2   5   56.92    3.29
   4   2   6  432.15    8.22
   4  -2  -6  423.38    7.83
   4   2   6  401.91    7.44
   4  -2  -6  451.98    8.63
   4  -2  -6  451.23    9.09
  -4  -2   6  411.40    8.83
   4   2   7  883.73   12.36
   4  -2  -7  857.75   11.90
   4   2   7  889.36   11.79
   4  -2  -7  890.22   12.81
  -4  -2   7  866.62   13.25
   4   2   8  399.48    7.85
   4  -2  -8  386.56    7.46
   4   2   8  420.15    7.39
   4  -2  -8  410.77    8.23
   4  -2  -8  414.90    8.80
   4   2   9   46.29    2.65
   4  -2  -9   50.06    2.96
   4  -2  -9   46.30    2.75
   4  -2  -9   51.06    3.15
   4   2  10  110.90    4.04
   4  -2 -10  133.78    4.81
   4  -2 -10  119.86    4.36
   4  -2 -10  125.77    4.90
   4   2  10  123.85    5.25
   4   2  11  153.42    4.71
   4  -2 -11  150.05    5.09
   4  -2 -11  139.50    4.75
   4  -2 -11  154.26    5.48
   4   2  11  164.81    5.94
   4  -2 -12  193.25    5.80
   4  -2 -12  162.28    5.13
   4  -2 -12  154.35    5.51
   4   2  12  182.49    6.16
   4   2  12  164.59    5.38
   4   2  13   27.28    2.59
   4  -2 -13   28.72    2.45
   4  -2 -13   25.28    2.17
   4   2  13   25.48    2.46
   4   2  13   21.66    2.09
   4   2  14   20.15    2.28
   4  -2 -14   26.34    2.29
   4  -2 -14   20.62    1.98
   4   2  14   21.85    2.31
   4   2  14   19.85    1.99
   4   2  15   72.10    4.12
   4  -2 -15   80.02    3.87
   4   2  15   75.67    3.96
   4   2  15   73.69    3.44
   4   2  16  431.89   10.05
   4   2  16  409.19    9.32
   4   2  17  120.45    5.22
   4  -2 -17  124.04    5.02
   4   2  17  117.54    4.82
   4   2  18  173.52    6.31
   4  -2 -18  179.62    6.03
   4   2  18  177.92    5.82
   4   2  19  311.24    8.43
   4  -2 -19  300.08    7.84
   4   2  19  300.81    7.51
   4   2  20  184.12    6.41
   4  -2 -20  188.80    6.04
   4   2  20  171.95    5.53
   4   2  21  405.77    9.44
   4  -2 -21  392.95    8.72
   4   2  22   30.00    2.69
   4  -2 -22   25.54    2.52
   4   2  22   27.06    2.20
   4   2  23  152.74    5.44
   4  -2 -23  154.39    5.16
   4   2  24  165.34    5.46
   4  -2 -24  166.71    5.18
   4   2  25   52.90    3.04
   4  -2 -25   57.30    2.99
   4   2  26  155.87    4.87
   4  -2 -26  158.69    4.62
   4  -2 -27   48.08    2.49
   4  -2 -28    4.06    1.00
   4  -2 -29   52.43    2.18
   4   3 -29   76.47    2.10
   4  -3  29   78.14    2.55
   4   3 -28  146.41    3.31
   4  -3  28  138.77    3.74
   4   3 -27   51.85    2.15
   4  -3  27   50.40    2.48
   4  -3  26  250.05    5.86
  -4  -3 -26  239.87    3.90
   4  -3  25  513.82    9.21
  -4  -3 -25  485.85    6.47
   4  -3  24   30.57    2.48
  -4  -3 -24   27.01    1.54
   4  -3  23  221.81    6.47
  -4  -3 -23  190.64    4.23
   4  -3  22  164.69    5.79
  -4  -3 -22  138.44    3.69
   4  -3  21   33.76    2.87
  -4  -3 -21   28.57    1.85
   4  -3  20   74.45    4.20
   4  -3  19  458.09   10.38
   4  -3  19  426.95   10.55
   4  -3  18  258.05    7.88
   4  -3  18  264.30    8.20
   4  -3  17   84.82    4.53
   4  -3  17   94.77    5.10
   4  -3  16   17.34    2.35
   4  -3  16   14.78    2.42
   4  -3  15  324.59    8.77
   4  -3  15  315.26    9.00
   4  -3  14  375.16    9.39
   4  -3  14  374.34   10.10
   4  -3  13  421.41    7.94
   4   3 -13  424.97    8.25
   4  -3  13  419.13    9.79
   4  -3  13  429.08   10.55
   4  -3  12  129.30    4.33
   4   3 -12  144.77    4.66
   4  -3  12  135.46    5.44
   4  -3  12  149.13    6.09
   4  -3  11  161.02    4.87
   4   3 -11  180.70    5.18
   4  -3  11  169.52    5.97
   4  -3  11  173.59    6.58
   4  -3  10  161.27    4.90
   4   3 -10  165.51    4.97
   4  -3  10  154.49    5.65
   4  -3  10  162.12    6.16
   4   3  -9  704.78   10.98
   4  -3   9  713.41   12.44
   4  -3   8  102.62    4.03
   4   3  -8  112.71    4.07
   4  -3   8  101.48    4.47
   4  -3   7  629.98   10.46
   4  -3   7  629.74   11.41
   4  -3   6 1130.27   14.87
   4   3  -6 1103.40   14.30
   4  -3   6 1099.04   15.71
   4  -3   5 1023.48   13.96
   4   3  -5  989.49   13.50
   4  -3   4   50.97    3.00
   4  -3   4   50.64    2.99
   4  -3   3  150.55    5.07
   4  -3   3  141.91    4.54
   4   3  -3  143.26    4.53
   4  -3   3  145.36    4.83
   4  -3   2  323.21    7.57
   4  -3   2  305.80    6.71
   4  -3   2  320.52    7.26
   4  -3   1 1575.04   19.15
   4  -3   1 1571.07   17.91
   4   3  -1 1574.42   17.60
   4  -3   0   39.83    2.78
   4   3   0   41.48    2.64
   4  -3   0   38.65    2.41
   4   3   0   40.83    2.35
  -4  -3   0   41.12    3.38
   4   3   1 1585.05   18.32
   4  -3  -1 1528.99   17.44
   4   3   2  269.31    5.83
  -4  -3   2  271.76    8.18
   4   3   3  143.73    4.64
   4  -3  -3  147.35    4.54
  -4  -3   3  140.63    5.83
   4   3   4   51.30    2.81
   4  -3  -4   52.32    2.76
   4   3   5  989.91   13.09
   4  -3  -5  984.10   13.28
   4  -3  -6 1160.57   14.72
   4   3   6 1112.90   14.01
   4  -3  -6 1135.53   14.42
  -4  -3   6 1165.75   17.42
   4   3   7  613.83    9.74
   4  -3  -7  655.89   10.42
   4  -3  -7  619.74   10.09
  -4  -3   7  652.13   12.36
   4   3   8  114.24    3.88
   4  -3  -8  118.32    4.25
  -4  -3   8  122.75    5.14
   4   3   9  669.48   10.19
  -4  -3   9  652.70   12.26
   4   3  10  146.99    4.37
   4  -3 -10  156.09    4.89
   4  -3 -10  159.41    4.78
  -4  -3  10  154.32    5.62
   4  -3 -11  177.33    5.04
   4  -3 -11  167.16    5.80
   4  -3 -12  139.64    4.41
   4  -3 -12  156.31    4.85
   4  -3 -12  148.69    5.51
  -4  -3  12  140.33    5.14
   4  -3 -13  417.14    7.87
   4  -3 -13  460.36    9.70
   4  -3 -13  488.20    8.84
  -4  -3  13  413.28    8.93
   4  -3 -14  376.07    7.35
   4  -3 -14  393.13    8.92
   4  -3 -15  310.27    7.82
   4   3  15  309.91    7.04
   4  -3 -16   13.47    2.02
   4  -3 -17   91.04    4.22
   4  -3 -18  261.81    7.10
   4  -3 -19  437.41    9.06
   4  -3 -20   68.63    3.59
   4  -3 -21   30.88    2.52
   4  -3 -22  159.92    4.99
   4  -3 -23  214.54    5.68
   4  -3 -24   32.98    2.26
   4   4 -27  109.30    2.26
   4  -4  26   29.25    1.60
  -4  -4 -26   30.19    1.21
   4  -4  25   91.69    3.02
  -4  -4 -25   97.74    2.42
   4   4 -24   40.79    1.65
   4  -4  24   43.97    2.31
   4   4 -23  180.28    3.84
   4  -4  23  185.04    5.01
  -4  -4 -23  190.88    3.97
   4  -4  22   70.50    3.20
  -4  -4 -22   70.82    2.51
   4  -4  21   31.03    2.34
  -4  -4 -21   30.57    1.80
   4  -4  20   47.74    2.90
   4  -4  19    9.51    1.58
   4  -4  19   11.53    1.95
   4  -4  18  131.37    4.89
   4  -4  18  145.07    5.68
   4  -4  17   21.01    2.14
   4  -4  17   20.47    2.41
   4  -4  16   34.85    2.67
   4  -4  16   38.54    3.26
   4  -4  15  163.29    5.58
   4  -4  15  193.45    6.62
   4  -4  14   22.25    2.17
  -4  -4 -14   23.55    2.31
   4  -4  14   24.99    2.63
   4  -4  13   -0.10    0.91
   4  -4  13    1.15    1.41
   4  -4  12   13.30    1.63
   4  -4  12   10.26    1.58
   4  -4  11  114.45    4.20
   4  -4  11  106.47    4.32
   4  -4  11  120.68    5.18
   4  -4  10  378.46    8.26
   4  -4  10  365.11    9.37
   4  -4   9   69.07    3.32
   4   4  -9   60.10    2.87
   4  -4   9   68.14    3.37
   4   4  -8  118.68    3.96
   4  -4   8  109.25    4.16
   4  -4   7  228.31    6.12
   4   4  -7  222.05    5.41
   4  -4   6   74.04    3.59
   4  -4   5  409.64    8.66
   4  -4   4  245.91    6.51
   4  -4   3  352.11    7.92
  -4  -4  -3  356.94   10.22
   4  -4   2  242.28    6.75
   4   4  -2  259.02    6.36
  -4  -4  -2  255.06    8.50
   4  -4   1   94.02    4.29
   4   4  -1   87.20    3.61
  -4  -4  -1   88.53    4.99
   4  -4   0   16.13    2.04
   4   4   0   15.58    1.64
  -4  -4   0   14.79    2.37
   4   4   1   92.18    3.57
  -4  -4   1   90.04    4.98
   4   4   2  249.04    5.83
  -4  -4   2  238.26    7.95
   4   4   3  339.96    6.68
  -4  -4   3  319.18    9.13
   4   4   4  215.63    5.16
  -4  -4   4  236.12    7.79
   4   4   5  385.45    6.99
  -4  -4   5  397.51   10.14
   4   4   6   68.86    2.78
  -4  -4   6   66.00    4.11
   4   4   7  204.64    4.83
  -4  -4   7  234.96    7.49
  -4  -4   8  142.06    5.85
  -4  -4   9   69.89    4.05
  -4  -4  10  396.93    9.53
  -4  -4  11  128.53    5.26
  -4  -4  12   12.96    1.91
  -4  -4  13    2.25    1.20
  -4  -4  13   -0.35    1.05
  -4  -4  14   21.62    2.24
  -4  -4  15  174.01    5.61
  -4  -4  17   22.56    2.39
  -4  -4  18  151.20    5.39
  -4  -5 -24   31.69    1.87
  -4  -5 -24   41.98    1.42
  -4  -5 -23  115.84    2.61
  -4  -5 -22  302.45    4.75
  -4  -5 -21   88.69    2.59
  -4  -5 -20   32.94    1.72
  -4  -5 -12  297.05    7.61
  -4  -5 -11    9.96    1.80
   4  -5  10  133.12    4.48
  -4  -5 -10  136.49    5.55
   4  -5   9   47.79    2.79
  -4  -5  -9   48.34    3.56
   4  -5   8   94.11    3.82
  -4  -5  -8   83.49    4.61
   4  -5   7  208.94    5.78
  -4  -5  -7  211.99    7.88
  -4  -5  -7  218.19    7.44
   4  -5   6   19.96    2.12
   4   5  -6   17.55    1.56
  -4  -5  -6   20.50    2.89
  -4  -5  -6   22.52    2.73
   4   5  -5   87.26    3.27
  -4  -5  -5   86.19    5.15
  -4  -5  -5   92.00    5.16
   4   5  -4  674.96    9.79
  -4  -5  -4  712.50   14.63
  -4  -5  -3   20.47    2.87
  -4  -5  -2   10.38    2.21
  -4  -5  -1   17.75    2.69
   4  -5   0   20.32    2.15
  -4  -5   0   16.81    2.55
   4  -5  -1   12.31    1.84
  -4  -5   1   14.38    2.35
   4  -5  -2    8.02    1.60
  -4  -5   2    9.16    2.17
   4  -5  -3   18.87    2.07
  -4  -5   3   22.96    2.82
   4  -5  -4  671.22   11.45
  -4  -5   4  661.39   13.18
   4  -5  -5   85.76    4.02
  -4  -5   5   85.44    4.67
  -4  -5   5   83.18    4.83
   4  -5  -6   20.23    2.24
  -4  -5   6   21.04    2.56
  -4  -5   6   22.56    2.73
   4  -5  -7  203.18    6.09
  -4  -5   7  221.66    7.20
  -4  -5   7  209.83    7.26
   4  -5  -8   85.70    3.98
  -4  -5   8   83.81    4.42
  -4  -5   8   82.71    4.56
   4  -5  -9   44.96    2.87
  -4  -5   9   46.86    3.29
  -4  -5   9   48.84    3.46
   4  -5 -10  130.11    4.70
  -4  -5  10  128.95    5.23
  -4  -5  10  128.57    5.33
   4  -5 -11    6.68    1.51
  -4  -5  11    9.39    1.77
  -4  -5  11    9.68    1.72
   4  -5 -12  337.55    7.43
  -4  -5  12  321.79    8.05
  -4  -5  12  330.60    8.07
   4  -5 -13  111.44    4.17
  -4  -5  13   99.14    4.18
   4  -5 -14  265.46    6.32
  -4  -5  14  255.37    6.41
   4  -5 -15   70.51    3.17
   4  -5 -16   34.58    2.27
  -4  -5  16   37.10    2.89
   4  -5 -17   54.94    2.66
  -4  -5  17   54.00    3.13
   4  -5 -18   53.26    2.54
  -4  -5  18   52.47    2.86
  -4  -5  19   14.31    1.45
  -4  -6 -20   15.20    1.24
  -4  -6 -20   20.34    1.07
  -4  -6 -19   32.86    1.93
  -4  -6 -19   32.15    1.42
  -4  -6 -18   28.73    1.98
  -4  -6 -17  150.38    4.59
  -4  -6 -16   11.29    1.55
  -4  -6 -15   72.75    3.54
  -4  -6 -14   -0.14    1.13
  -4  -6 -13  106.14    4.48
  -4  -6 -12   99.72    4.44
  -4  -6 -11  174.18    6.00
  -4  -6 -10  119.17    5.06
  -4  -6 -10  117.47    4.43
  -4  -6  -9    1.88    1.47
  -4  -6  -9    2.31    1.16
  -4  -6  -8   64.86    3.91
  -4  -6  -8   77.11    3.88
  -4  -6  -7  240.48    6.97
   4  -6   6   64.07    2.98
  -4  -6  -6   71.02    3.95
   4  -6   5   42.55    2.52
  -4  -6  -5   43.47    3.28
   4  -6   4   59.96    2.94
  -4  -6  -4   55.76    3.73
   4  -6   3  211.65    5.38
  -4  -6  -3  225.22    7.26
   4  -6   2   68.88    3.12
  -4  -6  -2   74.01    4.33
   4  -6   1   26.94    2.08
  -4  -6  -1   27.69    2.87
   4  -6   0  126.90    4.17
  -4  -6   0  128.91    5.44
  -4  -6   0  126.76    5.61
   4  -6  -1   29.43    2.14
  -4  -6   1   29.79    2.90
   4  -6  -2   73.45    3.17
  -4  -6   2   69.02    4.01
   4  -6  -3  205.99    5.43
  -4  -6   3  214.76    6.82
  -4  -6   3  205.89    6.93
   4  -6  -4   55.06    2.80
  -4  -6   4   56.71    3.59
  -4  -6   4   52.42    3.57
   4  -6  -5   46.49    2.56
  -4  -6   5   40.98    3.09
  -4  -6   5   40.18    3.07
   4  -6  -6   62.90    2.90
  -4  -6   6   69.79    3.76
  -4  -6   6   66.06    3.74
   4  -6  -7  221.17    5.31
  -4  -6   7  214.19    6.48
   4  -6  -8   66.46    2.92
  -4  -6   8   70.99    3.66
  -4  -6   8   68.94    3.62
   4  -6  -9    2.54    0.99
  -4  -6   9    3.37    1.34
  -4  -6   9    2.55    1.18
   4  -6 -10  123.12    3.79
  -4  -6  10  120.34    4.45
   4  -6 -11  153.30    4.10
  -4  -6  11  161.66    4.93
   4  -6 -12   92.60    3.08
  -4  -6  12  100.81    3.71
  -4  -6  13  109.07    4.68
  -4  -6  14    0.44    1.04
  -4  -6  15   71.02    3.34
  -4  -6  16    9.61    1.30
  -4  -6  17  155.02    4.16
  -4  -6  18   21.47    1.38
  -4  -7 -13   66.39    2.39
  -4  -7 -13   69.20    1.85
  -4  -7 -12   65.42    2.52
  -4  -7 -11  112.21    3.45
  -4  -7 -10   33.16    2.02
  -4  -7  -9   16.73    1.56
  -4  -7  -8    1.92    0.95
  -4  -7  -7  336.89    6.93
  -4  -7  -6  233.11    5.77
  -4  -7  -5   35.92    2.37
  -4  -7  -4   39.63    2.48
  -4  -7  -3   39.31    2.51
  -4  -7  -3   37.10    2.58
  -4  -7  -2   19.94    1.90
  -4  -7  -2   18.22    1.94
  -4  -7  -1   14.86    1.77
  -4  -7  -1   15.65    1.89
  -4  -7   0  214.79    5.99
   4  -7  -1   18.16    1.31
   4  -7  -2   17.43    1.29
   4  -7  -3   29.97    1.62
  -4  -7   3   34.95    2.46
   4  -7  -4   38.49    1.73
  -4  -7  10   35.71    2.28
  -4  -7  11  116.63    3.75
   4   7  11   57.13    1.71
  -4  -7  12   65.69    2.69
  -4  -7  13   67.16    2.52
   5   0   0    0.86    1.07
   5   0   0   -0.20    1.09
   5   0   0    0.66    1.53
   5   0   1  141.98    4.96
   5   0  -1  136.23    4.95
   5   0   1  147.79    5.06
   5   0  -1  153.91    5.81
   5   0   2    1.26    1.12
   5   0  -2    1.92    1.13
   5   0   2    1.96    1.18
   5   0  -2    2.25    1.64
   5   0   3    4.29    1.33
   5   0  -3    3.02    1.18
   5   0   3    3.61    1.39
   5   0   3    3.12    1.64
   5   0  -3    3.82    1.55
   5   0   4   61.38    3.34
   5   0  -4   60.97    3.30
   5   0   4   58.48    3.23
   5   0   4   59.89    3.67
   5   0  -4   58.37    3.64
   5   0   5  167.89    5.43
   5   0  -5  161.41    5.29
   5   0   5  163.49    5.90
   5   0  -5  159.25    5.85
   5   0   6  835.22   12.87
   5   0  -6  819.47   12.82
   5   0   6  835.80   13.79
   5   0  -6  802.99   13.66
   5   0  -7  188.51    5.82
   5   0   7  197.81    5.79
   5   0  -7  187.80    5.25
   5   0   7  202.72    6.40
   5   0  -7  201.80    6.45
   5   0  -8  294.49    7.36
   5   0  -8  315.89    6.96
   5   0   8  317.77    7.99
   5   0  -8  305.21    7.99
   5   0  -9  503.64    9.79
   5   0   9  534.22   10.51
   5   0  -9  522.14   10.53
   5   0 -10  252.18    6.78
   5   0 -10  259.02    6.36
   5   0 -11  219.31    6.36
   5   0 -11  223.47    5.98
   5   0 -12  121.50    4.74
   5   0 -12  118.07    4.38
   5   0 -13   35.65    2.71
   5   0 -13   32.32    2.43
   5   0 -14  175.27    5.65
   5   0 -14  176.60    5.43
   5   0 -15  209.79    6.14
   5   0 -15  216.18    6.05
   5   0 -16  707.89   11.71
   5   0 -16  706.30   11.38
   5   0 -17   62.46    3.39
   5   0 -17   65.34    3.30
   5   0 -17   53.67    3.29
   5   0  17   55.10    3.54
   5   0 -18    0.74    1.21
   5   0 -18    1.00    1.06
   5   0  18    1.69    1.30
   5   0 -19    4.78    1.42
   5   0 -19    3.56    1.25
   5   0  19    4.15    1.43
   5   0 -20  207.25    5.51
   5   0 -20  222.34    5.63
   5   0  20  220.37    6.27
   5   0 -21  106.67    3.76
   5   0 -21  110.96    3.84
   5   0 -22   78.88    3.09
   5   0 -22   80.63    3.20
   5   0 -23  351.58    6.26
   5   0 -23  358.67    6.49
   5   0 -24    0.77    0.71
   5   0 -24    0.03    0.75
   5   0 -25    3.03    0.76
   5   0 -25    2.70    0.75
   5   0 -26   19.91    1.19
   5   0 -26   19.93    1.30
   5   0 -27    7.16    0.77
   5   1 -26    4.16    0.72
   5   1 -26    3.60    0.63
   5   1 -25   37.47    1.79
   5   1 -25   39.93    1.74
   5  -1  25   33.65    1.98
   5   1 -24    8.67    1.10
   5   1 -24    7.85    0.99
   5  -1  24    7.69    1.20
   5   1 -23  100.99    3.32
   5   1 -23   98.46    3.08
   5   1 -22   56.43    2.68
   5   1 -22   56.73    2.50
   5   1 -21   13.85    1.63
   5   1 -21   16.23    1.54
   5   1 -20   37.32    2.47
   5   1 -20   40.58    2.31
   5   1 -19   12.28    1.49
   5  -1  19   12.33    1.90
   5   1 -18  269.50    6.20
   5  -1  18  278.66    7.47
   5   1 -17  369.38    7.51
   5  -1  17  402.14    9.15
   5   1 -16  262.38    6.32
   5  -1  16  257.25    7.38
   5   1 -15   96.89    3.80
   5  -1  15   97.52    4.66
   5   1 -14   12.83    1.87
   5   1 -14    9.62    1.43
   5  -1  14   13.71    2.13
   5   1 -13  182.24    5.18
   5  -1  13  192.55    6.44
   5   1 -12  325.60    7.78
   5   1 -12  322.21    6.89
   5  -1  12  318.77    8.36
   5   1 -12  315.49    7.37
   5   1 -11   57.50    3.44
   5   1 -11   52.11    3.19
   5   1 -11   53.33    2.75
   5  -1  11   55.55    3.62
   5   1 -11   54.00    3.19
   5   1 -10   52.15    3.28
   5   1 -10   49.78    3.12
   5   1 -10   47.73    2.55
   5  -1  10   53.19    3.56
   5   1 -10   45.34    3.01
   5   1  -9  142.29    5.32
   5   1  -9  130.65    4.83
   5   1  -9  127.48    4.05
   5  -1   9  131.35    5.50
   5   1  -9  138.21    5.16
   5   1  -8  311.47    7.83
   5   1  -8  303.60    7.37
   5  -1   8  292.26    8.25
   5   1  -8  318.16    7.99
   5   1  -7  411.90    8.68
   5   1  -7  391.40    9.14
   5  -1   6  203.37    5.76
   5   1  -6  184.82    5.80
   5   1  -6  195.21    6.43
   5  -1   5  331.04    7.40
   5   1  -5  319.52    7.65
   5   1  -5  302.13    7.38
   5   1  -5  319.34    8.34
   5   1  -4  240.02    6.64
   5  -1   4  255.96    6.73
   5   1  -4  261.17    6.82
   5   1  -4  253.27    7.41
   5  -1   3  202.84    5.71
   5   1  -3  184.81    5.91
   5  -1   3  203.43    5.99
   5   1  -3  195.81    5.93
   5   1  -3  207.31    6.74
   5  -1   2  212.62    5.26
   5  -1   2  245.29    6.29
   5   1  -2  188.71    6.06
   5  -1   2  245.19    6.49
   5   1  -2  248.83    6.59
   5   1  -2  222.03    7.04
   5  -1   1   23.46    1.85
   5  -1   1   26.42    2.17
   5  -1   1   28.52    2.40
   5   1  -1   32.51    2.56
   5   1  -1   28.41    2.84
   5  -1   0  143.60    4.47
   5  -1   0  143.92    4.71
   5  -1   0  141.19    4.95
   5   1   0  144.38    5.01
   5  -1  -1   25.71    2.02
   5  -1  -1   26.57    2.16
   5  -1  -1   27.46    2.37
   5   1   1   31.10    2.44
   5  -1  -2  236.19    6.11
   5   1   2  226.77    6.16
   5  -1  -2  240.48    6.51
   5  -1  -3  197.40    5.61
   5   1   3  207.92    5.83
   5  -1  -3  200.42    5.97
   5   1   3  196.31    6.69
   5  -1  -4  256.64    6.45
   5   1   4  266.41    6.61
   5  -1  -4  259.01    6.78
   5   1   4  241.32    7.30
   5   1   5  300.59    7.31
   5  -1  -5  318.80    7.22
   5   1   5  338.36    7.41
   5  -1  -5  318.97    7.59
   5   1   5  338.90    8.50
   5   1   6  196.72    5.81
   5  -1  -6  191.25    5.51
   5   1   6  204.45    5.60
   5  -1  -6  193.05    5.86
   5   1   6  203.45    6.49
   5  -1  -7  394.06    8.12
   5   1   7  381.20    7.85
   5  -1  -7  399.04    8.61
   5   1   7  396.50    9.07
   5   1   8  305.53    7.26
   5  -1  -8  309.63    7.62
   5  -1  -8  304.22    7.13
   5  -1  -8  316.46    7.46
   5   1   8  310.49    7.88
   5   1   9  131.93    4.70
   5  -1  -9  137.87    4.63
   5  -1  -9  137.67    4.90
   5  -1  -9  133.98    4.76
   5   1   9  130.41    4.97
   5  -1 -10   52.95    2.91
   5  -1 -10   60.55    3.43
   5  -1 -10   56.66    3.21
   5  -1 -10   52.94    3.09
   5   1  10   50.98    3.16
   5  -1 -11   52.82    2.89
   5  -1 -11   55.55    3.32
   5  -1 -11   48.88    3.02
   5  -1 -11   47.16    2.97
   5   1  11   50.07    3.04
   5  -1 -12  306.06    6.93
   5  -1 -12  318.83    7.63
   5  -1 -12  326.77    7.57
   5  -1 -12  329.10    7.66
   5   1  12  304.19    7.28
   5  -1 -13  175.70    5.12
   5  -1 -13  197.48    5.85
   5  -1 -13  188.71    5.69
   5  -1 -13  189.49    5.77
   5   1  13  181.19    5.47
   5  -1 -14   11.72    1.48
   5  -1 -14   12.75    1.78
   5  -1 -14   11.87    1.78
   5  -1 -14   11.49    1.72
   5  -1 -15   92.11    3.57
   5  -1 -15   95.71    4.00
   5  -1 -15   97.52    4.16
   5  -1 -15  102.83    4.21
   5  -1 -16  264.06    6.54
   5  -1 -16  255.52    6.73
   5  -1 -17  389.08    7.92
   5  -1 -17  404.13    8.37
   5  -1 -18  275.53    6.38
   5  -1 -18  283.55    6.82
   5  -1 -19   12.09    1.51
   5  -1 -19   12.69    1.74
   5  -1 -20   36.87    2.21
   5  -1 -20   36.04    2.42
   5  -1 -21   15.81    1.51
   5  -1 -21   17.53    1.77
   5  -1 -22   56.88    2.43
   5  -1 -22   58.86    2.77
   5  -1 -23  102.82    3.39
   5  -1 -24    9.38    1.21
   5  -1 -25   39.28    1.92
   5   2 -25  161.07    3.34
   5  -2  25  139.99    3.47
   5   2 -24   20.08    1.36
   5  -2  24   23.03    1.59
   5   2 -23   50.51    2.19
   5  -2  23   46.48    2.33
   5   2 -22  232.70    4.99
   5  -2  22  237.08    5.58
   5   2 -21   18.71    1.67
   5   2 -21   17.65    1.32
   5  -2  21   19.56    1.87
   5   2 -20  245.77    5.68
   5   2 -20  235.64    4.83
   5  -2  20  251.52    6.37
   5   2 -19  153.25    4.61
   5   2 -19  155.47    4.01
   5   2 -18  126.24    4.35
   5   2 -18  136.87    3.83
   5  -2  18  136.94    4.91
   5   2 -17   23.79    2.16
   5   2 -17   25.96    1.76
   5  -2  17   24.34    2.38
   5   2 -16  226.37    6.07
   5  -2  16  222.26    6.56
   5   2 -15  155.26    5.05
   5   2 -15  140.84    4.07
   5   2 -15  149.56    4.78
   5  -2  15  153.21    5.50
   5   2 -14   92.09    3.99
   5   2 -14   97.27    3.84
   5  -2  14   96.15    4.36
   5   2 -13   71.56    3.60
   5   2 -13   74.82    3.45
   5  -2  13   77.58    3.98
   5   2 -12  124.81    4.63
   5   2 -12  127.32    4.52
   5  -2  12  118.94    4.83
   5   2 -12  112.40    4.33
   5   2 -11   89.07    3.86
   5   2 -11   86.81    3.87
   5  -2  11   91.01    4.24
   5   2 -11   85.74    3.91
   5   2 -10   20.88    2.09
   5   2 -10   21.37    2.13
   5  -2  10   24.35    2.42
   5   2 -10   22.43    2.28
   5  -2   9  209.05    4.80
   5   2  -9  244.45    6.53
   5   2  -9  228.92    6.26
   5  -2   9  218.99    6.83
   5   2  -9  236.33    6.77
   5  -2   8   85.12    3.09
   5   2  -8   86.91    3.91
   5   2  -8   89.06    3.95
   5  -2   8   78.20    4.30
   5   2  -8   96.86    4.39
   5  -2   7  255.01    5.60
   5   2  -7  263.72    6.76
   5   2  -7  266.17    7.43
   5  -2   6  311.13    6.39
   5   2  -6  295.46    7.15
   5   2  -6  304.87    7.22
   5   2  -6  287.54    7.86
   5  -2   5  356.03    7.07
   5   2  -5  372.49    8.35
   5   2  -5  406.83    8.32
  -5  -2  -5  347.47    8.70
   5   2  -5  396.20    9.27
   5  -2   4   28.26    2.04
   5   2  -4   30.73    2.56
   5  -2   4   30.37    2.40
   5   2  -4   31.54    2.44
  -5  -2  -4   28.86    2.50
   5   2  -4   31.73    2.94
   5  -2   3  209.80    5.44
   5   2  -3  246.58    6.60
   5  -2   3  238.58    6.18
   5   2  -3  234.27    6.24
  -5  -2  -3  212.28    6.47
   5   2  -3  234.54    7.26
   5  -2   2   98.48    3.78
   5  -2   2  102.54    3.84
   5   2  -2  117.37    4.59
   5  -2   2  111.84    4.23
   5   2  -2  107.31    4.21
   5   2  -2  102.36    4.89
   5  -2   1  510.07    9.13
   5  -2   1  503.48    8.83
   5   2  -1  521.60    9.93
   5  -2   1  500.72    9.38
   5   2  -1  538.06    9.63
   5   2  -1  496.29   10.92
   5  -2   0   24.42    2.12
   5  -2   0   24.68    1.93
   5   2   0   24.80    2.27
   5  -2   0   24.83    2.19
   5   2   0   26.66    2.15
   5   2   0   23.36    2.76
   5  -2  -1  489.36    9.27
   5  -2  -1  482.51    8.53
   5  -2  -1  507.03    9.37
   5   2   1  501.62    9.01
   5  -2  -2   97.21    4.00
   5  -2  -2  100.46    3.69
   5   2   2  112.05    4.31
   5   2   2  102.16    3.88
   5  -2  -2  104.28    4.12
   5  -2  -3  212.03    5.41
   5   2   3  224.38    6.18
   5   2   3  228.61    5.78
   5  -2  -3  222.85    5.98
   5   2   3  232.90    7.24
   5  -2  -4   28.93    2.03
   5   2   4   29.82    2.35
   5   2   4   31.20    2.18
   5  -2  -4   28.51    2.28
   5   2   4   32.39    2.99
   5   2   5  394.76    8.19
   5  -2  -5  379.87    7.26
   5   2   5  387.49    7.42
   5  -2  -5  394.29    8.14
   5   2   5  384.09    9.32
   5   2   6  308.10    7.08
   5  -2  -6  286.05    6.97
   5  -2  -6  285.29    6.16
   5   2   6  279.68    6.16
   5  -2  -6  309.87    7.11
   5   2   6  298.59    7.89
   5   2   7  267.99    6.46
   5  -2  -7  246.88    5.67
   5  -2  -7  274.30    6.74
   5  -2  -7  260.84    6.58
   5   2   7  259.46    7.25
   5   2   8   90.68    3.72
   5  -2  -8   85.57    3.23
   5  -2  -8   90.57    3.86
   5  -2  -8   95.55    3.91
   5   2   8   88.30    4.19
   5  -2  -9  248.93    6.41
   5  -2  -9  233.57    6.14
   5   2   9  227.73    6.52
   5  -2 -10   21.91    2.08
   5  -2 -10   24.21    2.10
   5   2  10   22.21    2.20
   5  -2 -11   85.63    3.71
   5  -2 -11   93.22    3.85
   5   2  11   85.43    3.85
   5  -2 -12  114.29    4.17
   5  -2 -12  120.90    4.35
   5   2  12  114.08    4.32
   5  -2 -13   71.05    3.32
   5   2  13   72.48    3.33
   5  -2 -14   90.72    3.63
   5  -2 -14   94.76    3.77
   5   2  14   95.32    3.62
   5  -2 -15  164.21    4.74
   5  -2 -15  167.05    4.87
   5  -2 -16  226.19    5.49
   5   3 -24  124.18    2.53
   5   3 -23   25.88    1.32
   5  -3  23   17.91    1.29
   5   3 -22   17.08    1.21
   5  -3  22   15.10    1.28
   5   3 -21   89.82    2.76
   5  -3  21   90.86    3.07
   5   3 -20   12.58    1.25
   5  -3  20   13.91    1.43
   5   3 -19   15.13    1.41
   5  -3  19   13.28    1.49
   5   3 -18   73.11    2.89
   5  -3  18   67.60    3.10
   5   3 -17  355.86    6.72
   5  -3  17  347.32    7.27
   5   3 -16  180.52    4.81
   5  -3  16  169.75    5.10
   5   3 -15  146.11    4.39
   5  -3  15  134.97    4.58
   5   3 -14  274.79    6.19
   5  -3  14  270.96    6.72
   5   3 -13  171.54    4.91
   5  -3  13  173.75    5.30
   5   3 -12  104.91    3.86
   5   3 -12  109.69    3.67
   5  -3  12  112.36    4.30
   5   3 -11  117.08    4.11
   5   3 -11  108.85    3.72
   5  -3  11  113.24    4.39
   5   3 -11  110.86    4.27
   5  -3  10   21.30    1.63
   5   3 -10   19.99    1.86
   5   3 -10   21.96    1.79
   5  -3  10   17.98    1.91
   5   3 -10   19.46    2.07
   5  -3   9   46.16    2.37
   5   3  -9   47.92    2.72
   5   3  -9   49.16    2.57
   5   3  -9   47.16    3.05
   5  -3   8    9.71    1.31
   5   3  -8    9.69    1.36
   5   3  -8   10.35    1.44
   5   3  -8    8.66    1.81
   5  -3   7  387.69    7.34
   5   3  -7  409.05    7.68
   5   3  -7  384.75    7.64
   5   3  -7  386.59    8.81
   5  -3   6  409.47    7.68
   5   3  -6  412.11    8.58
   5   3  -6  433.27    8.00
   5   3  -6  401.01    7.84
   5   3  -6  422.33    9.36
   5  -3   5  810.58   11.80
   5   3  -5  869.69   12.86
   5   3  -5  797.76   11.62
   5   3  -5  874.43   11.98
  -5  -3  -5  804.42   14.12
   5   3  -5  826.88   13.67
   5  -3   4   30.19    2.20
   5   3  -4   30.94    2.18
   5   3  -4   34.95    2.54
   5   3  -4   32.84    2.23
  -5  -3  -4   31.55    2.77
   5  -3   3   11.73    1.55
   5   3  -3    9.89    1.40
   5   3  -3   10.74    1.64
   5   3  -3   11.98    1.45
  -5  -3  -3   11.22    1.82
   5  -3   2   42.25    2.60
   5   3  -2   48.71    2.88
   5   3  -2   46.57    2.49
  -5  -3  -2   41.54    3.04
   5  -3   1 1046.10   13.93
   5   3  -1 1032.79   14.41
   5   3  -1 1065.17   13.13
  -5  -3  -1 1048.02   15.79
   5  -3   0   72.69    3.54
   5   3   0   80.48    3.71
   5   3   0   81.03    3.16
  -5  -3   0   77.51    3.98
   5  -3  -1 1067.64   14.30
   5   3   1 1039.56   13.87
   5  -3  -1  998.82   13.19
   5   3   1  977.52   12.51
  -5  -3   1  992.17   15.03
   5  -3  -2   42.70    2.74
   5   3   2   48.68    2.76
   5  -3  -2   41.62    2.47
   5   3   2   43.72    2.29
  -5  -3   2   41.27    2.86
   5  -3  -3   10.54    1.62
   5  -3  -3   12.67    1.56
   5   3   3   10.89    1.48
   5   3   3   11.12    1.23
   5  -3  -3   13.48    1.58
  -5  -3   3   10.86    1.61
   5  -3  -4   31.60    2.47
   5   3   4   30.17    2.16
   5  -3  -4   31.73    2.22
   5  -3  -4   29.20    2.09
  -5  -3   4   29.99    2.38
   5   3   5  816.54   11.61
   5  -3  -5  818.65   11.72
   5  -3  -5  826.62   11.63
   5   3   5  832.53   13.76
   5   3   6  398.10    7.62
   5  -3  -6  422.63    7.93
   5  -3  -6  406.95    7.59
   5   3   6  402.92    9.14
   5   3   7  378.35    7.25
   5  -3  -7  382.96    7.25
   5  -3  -7  396.58    7.61
   5   3   7  376.73    8.62
   5  -3  -8   10.21    1.31
   5  -3  -8   10.50    1.39
   5   3   8    8.93    1.68
   5  -3  -9   46.68    2.43
   5  -3  -9   55.19    2.73
   5   3   9   48.44    3.02
   5  -3 -10   20.45    1.73
   5   3  10   21.77    2.12
   5  -3 -11  116.61    3.81
   5   3  11  105.88    4.10
   5   3  12  106.75    3.95
   5   3  13  162.96    4.69
   5   3  14  258.47    5.66
   5   3  15  133.27    3.72
   5   4 -21    5.96    0.68
  -5  -4 -21    4.52    0.84
  -5  -4 -20   17.78    1.55
   5   4 -19   86.27    2.03
  -5  -4 -19   94.42    1.99
  -5  -4 -18  173.11    5.01
  -5  -4 -18  176.21    3.08
   5   4 -17   64.78    2.06
  -5  -4 -17   62.06    3.17
   5   4 -16   10.61    0.96
  -5  -4 -16   11.28    1.66
   5   4 -15   11.15    1.03
  -5  -4 -15    9.57    1.66
   5   4 -14  147.06    3.49
  -5  -4 -14  142.48    5.23
   5   4 -13   44.47    1.96
  -5  -4 -13   47.80    3.24
   5   4 -12   24.96    1.53
  -5  -4 -12   29.06    2.66
   5   4 -11   71.08    3.09
   5   4 -11   66.63    2.45
  -5  -4 -11   66.20    3.84
   5   4 -10   60.88    2.84
   5   4 -10   55.71    2.22
   5   4 -10   62.22    3.06
   5  -4   9  100.97    3.36
   5   4  -9   98.81    3.63
  -5  -4  -9   98.70    4.64
   5   4  -9  103.10    4.01
   5  -4   8   22.97    1.78
   5   4  -8   22.07    1.84
  -5  -4  -8   20.24    2.35
   5   4  -8   20.91    2.04
   5  -4   7   13.14    1.42
   5   4  -7   14.29    1.55
  -5  -4  -7   13.32    1.98
   5   4  -7   14.00    1.83
   5  -4   6  100.25    3.59
   5   4  -6  103.36    3.73
  -5  -4  -6   94.02    4.49
   5  -4   5  100.07    3.63
   5   4  -5  105.64    3.74
  -5  -4  -5  102.43    4.66
   5  -4   4  145.81    4.44
   5   4  -4  138.18    4.31
  -5  -4  -4  140.00    5.44
   5  -4   3   42.20    2.49
   5   4  -3   38.97    2.31
  -5  -4  -3   39.36    2.95
   5  -4   2    6.05    1.26
   5   4  -2    5.68    1.05
  -5  -4  -2    6.40    1.55
   5  -4   1  225.45    5.70
   5   4  -1  226.59    5.26
   5  -4   0  286.66    6.56
   5   4   0  276.74    5.79
  -5  -4   0  279.40    7.38
   5  -4  -1  213.52    5.57
   5   4   1  222.50    5.09
  -5  -4   1  214.87    6.42
   5  -4  -2    6.48    1.31
   5   4   2    5.94    1.01
  -5  -4   2    4.78    1.29
   5  -4  -3   36.93    2.48
   5   4   3   39.48    2.08
  -5  -4   3   39.24    2.74
   5  -4  -4  141.41    4.65
   5   4   4  140.49    3.80
  -5  -4   4  137.08    4.84
   5  -4  -5  100.45    3.96
  -5  -4   5   86.80    3.83
   5  -4  -6   96.07    3.81
  -5  -4   6   80.27    3.54
   5  -4  -7   11.88    1.70
  -5  -4   7   15.18    1.60
   5   4   7   14.63    1.94
  -5  -4   8   19.89    1.70
   5   4   8   22.91    2.18
   5   4   9  101.87    3.94
   5   4  10   55.01    2.85
   5   4  11   70.37    3.12
  -5  -4  11   71.53    3.59
   5   4  12   25.08    1.88
  -5  -4  12   25.33    2.11
   5  -4 -13   47.13    2.63
   5   4  13   46.35    2.28
  -5  -4  13   42.88    2.47
   5  -4 -14  145.27    4.30
   5   4  14  137.56    3.51
   5  -4 -15   11.58    1.46
   5  -4 -16   10.40    1.32
   5  -4 -17   81.09    2.92
   5  -4 -18  178.07    4.17
   5  -4 -19  134.91    3.38
   5  -4 -20   20.24    1.32
   5  -4 -21    6.96    0.77
  -5  -5 -17  140.84    3.66
  -5  -5 -17  154.62    2.54
  -5  -5 -16   18.23    1.47
  -5  -5 -16   22.22    1.06
   5   5 -15  112.34    2.25
  -5  -5 -15  153.64    4.24
   5   5 -14  283.97    4.08
  -5  -5 -14  322.26    6.67
   5   5 -13   21.42    1.10
  -5  -5 -13   25.02    2.01
   5   5 -12   25.30    1.23
  -5  -5 -12   30.33    2.25
   5   5 -11  131.80    2.94
  -5  -5 -11  155.53    4.99
   5   5 -10   21.16    1.19
  -5  -5 -10   23.15    2.11
   5   5  -9   37.80    1.58
  -5  -5  -9   44.62    2.79
  -5  -5  -9   43.71    2.61
   5   5  -8   22.99    1.25
  -5  -5  -8   27.23    2.29
   5   5  -8   27.61    1.97
  -5  -5  -8   29.15    2.32
   5  -5   7    8.98    1.16
   5   5  -7    7.80    0.78
  -5  -5  -7    8.21    1.58
   5   5  -7    9.43    1.43
  -5  -5  -7   10.44    1.68
   5  -5   6    2.25    0.87
   5   5  -6    2.02    0.52
  -5  -5  -6    2.00    1.13
  -5  -5  -6    2.19    1.28
   5  -5   5   14.55    1.43
  -5  -5  -5   15.97    1.92
  -5  -5  -5   15.14    2.07
   5  -5   4   17.16    1.55
  -5  -5  -4   16.36    1.92
  -5  -5  -4   19.57    2.28
   5  -5   3   31.81    2.00
  -5  -5  -3   32.09    2.47
   5  -5   2  115.41    3.64
  -5  -5  -2  120.91    4.51
   5  -5   1   99.55    3.44
  -5  -5  -1  103.82    4.69
   5  -5   0   14.51    1.53
  -5  -5   0   17.17    1.87
  -5  -5   0   18.08    2.35
   5  -5  -1   96.34    3.41
  -5  -5   1  103.19    4.07
  -5  -5   2  117.16    4.27
  -5  -5   3   29.54    2.20
  -5  -5   3   36.47    2.95
  -5  -5   4   15.29    1.62
  -5  -5   4   19.05    2.21
  -5  -5   5   16.10    1.60
  -5  -5   5   16.95    2.07
  -5  -5   6    1.95    0.86
  -5  -5   6    3.38    1.31
   5  -5  -7    8.99    1.29
  -5  -5   7    8.34    1.16
   5   5   7    9.34    1.42
  -5  -5   7   10.76    1.65
   5  -5  -8   26.95    1.84
   5   5   8   29.63    2.05
  -5  -5   8   27.36    2.21
   5  -5  -9   43.52    2.22
   5   5   9   47.47    2.39
  -5  -5   9   45.85    2.63
   5  -5 -10   22.93    1.67
   5   5  10   24.46    1.71
  -5  -5  10   25.40    1.92
   5  -5 -11  159.61    3.92
   5   5  11  151.28    3.80
   5  -5 -12   33.38    1.81
  -5  -5  12   28.13    1.97
   5   5  12   31.18    1.59
   5  -5 -13   21.99    1.47
  -5  -5  13   22.10    1.56
   5  -5 -14  344.44    5.47
   5  -5 -15  171.97    3.56
   5  -5 -16   21.93    1.22
   5  -5 -17  168.07    3.09
  -5  -6 -10   97.64    2.94
  -5  -6  -9   48.54    2.14
  -5  -6  -8   37.00    1.95
  -5  -6  -7    1.33    0.69
  -5  -6  -6   78.30    2.92
   5   6  -6   85.48    2.70
  -5  -6  -6   83.29    2.99
  -5  -6  -5   11.21    1.25
   5   6  -5   11.80    1.23
  -5  -6  -5   10.96    1.30
  -5  -6  -4   49.60    2.39
   5   6  -4   57.27    2.41
  -5  -6  -4   52.12    2.58
  -5  -6  -3  117.72    3.64
   5   6  -3  129.09    3.69
  -5  -6  -3  122.69    3.99
  -5  -6  -2  101.79    3.35
  -5  -6  -2  100.28    3.62
  -5  -6  -1   16.84    1.47
  -5  -6  -1   19.60    1.79
  -5  -6   0  165.80    4.25
  -5  -6   0  162.10    4.72
   5  -6  -1   17.84    1.28
  -5  -6   1   15.09    1.35
   5  -6  -2  100.34    2.79
  -5  -6   2  100.70    3.18
   5  -6  -3  122.04    3.02
  -5  -6   3  113.05    3.26
  -5  -6   3  123.96    3.97
   5  -6  -4   51.56    1.96
   5   6   4   57.76    2.43
  -5  -6   4   51.30    2.53
   5  -6  -5    9.89    0.97
   5   6   5   11.79    1.26
  -5  -6   5    9.78    1.23
   5   6   6   87.95    2.77
  -5  -6   6   81.83    2.96
   5  -6  -7    1.16    0.57
   5   6   7    1.29    0.66
  -5  -6   7    1.41    0.67
   5  -6  -8   35.60    1.49
  -5  -6   8   36.01    2.09
   5   6   8   32.27    1.53
  -5  -6   8   31.31    1.66
   5  -6  -9   46.58    1.62
  -5  -6   9   44.46    2.12
   5   6   9   43.66    1.58
   5  -6 -10   91.44    2.18
   6   0   0    2.92    1.01
   6   0   0    2.01    1.03
   6   0   1    3.21    1.03
   6   0  -1    3.14    1.03
   6   0   1    2.48    1.06
   6   0  -1    2.45    1.11
   6   0   2   10.34    1.38
   6   0  -2    9.96    1.34
   6   0  -3   82.55    3.19
   6   0  -4    0.33    0.78
   6   0  -5   -0.36    0.84
   6   0  -6  444.92    7.59
   6   0  -7  255.78    5.57
   6   0  -8  624.90    9.20
   6   0  -9  329.18    6.22
   6   0  -9  306.73    6.37
   6   0 -10    4.14    0.98
   6   0 -10    3.24    1.19
   6   0 -11    1.67    0.81
   6   0 -11    1.91    1.01
   6   0 -12    1.57    0.75
   6   0 -12    1.87    0.99
   6   0 -13    2.44    0.73
   6   0 -13    2.55    0.98
   6   0 -14    3.98    1.01
   6   0 -15   11.22    1.24
   6   0 -16   47.04    2.05
   6   0 -17   40.87    1.81
   6   0 -18   24.05    1.33
   6   0 -19   19.59    1.10
   6   1 -18    1.43    0.46
   6   1 -17   39.66    1.64
   6   1 -16   10.40    1.00
   6   1 -15    5.30    0.88
   6   1 -14   41.13    2.01
   6   1 -14   38.50    2.03
   6   1 -13   35.87    1.98
   6   1 -13   34.11    2.00
   6   1 -12   52.70    2.44
   6   1 -12   50.96    2.45
   6   1 -12   55.11    2.56
   6   1 -11  210.41    4.98
   6   1 -11  213.95    5.07
   6   1 -11  217.60    5.13
   6   1 -10   79.53    3.13
   6   1 -10   78.27    3.12
   6   1 -10   80.41    3.20
   6   1  -9  506.00    8.29
   6   1  -9  519.80    8.38
   6   1  -9  531.12    8.62
   6   1  -8  732.88   10.32
   6   1  -8  744.24   10.37
   6   1  -7  185.75    4.80
   6   1  -7  193.36    5.19
   6   1  -7  189.67    4.83
   6   1  -6   33.96    2.18
   6   1  -6   37.43    2.41
   6   1  -6   36.91    2.22
   6   1  -5  175.88    4.70
   6   1  -5  184.15    4.75
   6   1  -4   32.95    2.18
   6   1  -4   34.37    2.34
   6   1  -4   32.54    2.09
   6   1  -3  139.43    4.19
   6   1  -3  148.38    4.62
   6   1  -3  141.77    4.17
   6   1  -3  151.91    5.11
   6   1  -2   47.01    2.71
   6   1  -2   42.25    2.41
   6   1  -2   44.97    2.42
   6   1  -1  102.95    3.62
   6   1  -1  115.83    4.62
   6   1   0    3.81    1.18
   6   1   0    5.10    1.12
   6  -1   0    4.80    1.22
   6   1   0    5.68    1.75
   6  -1  -1  106.10    3.46
   6   1   1  111.83    3.59
   6  -1  -1  107.59    3.67
   6  -1  -2   48.20    2.35
   6  -1  -2   50.22    2.77
   6  -1  -2   48.40    2.53
   6  -1  -3  129.50    3.78
   6  -1  -3  129.80    4.06
   6  -1  -4   32.75    1.95
   6  -1  -4   35.34    2.35
   6  -1  -4   36.10    2.25
   6  -1  -5  176.44    4.37
   6  -1  -5  182.29    4.82
   6  -1  -6   30.71    1.58
   6  -1  -6   35.59    1.98
   6  -1  -6   38.32    2.44
   6  -1  -6   36.63    2.25
   6  -1  -7  181.21    4.69
   6  -1  -7  185.37    5.12
   6  -1  -8  748.17   10.16
   6  -1  -8  796.49   10.84
   6  -1  -9  513.54    8.09
   6  -1  -9  538.19    8.55
   6  -1 -10   69.69    2.46
   6  -1 -10   75.16    2.96
   6  -1 -11  187.14    4.08
   6  -1 -11  196.47    4.70
   6  -1 -12   51.13    2.32
   6  -1 -12   55.90    2.55
   6  -1 -13   30.45    1.62
   6  -1 -13   35.17    1.90
   6  -1 -14   34.83    1.67
   6  -1 -14   38.71    1.92
   6  -1 -15    4.51    0.73
   6  -1 -15    4.62    0.84
   6  -1 -16    9.41    0.84
   6  -1 -16   10.21    0.96
   6  -1 -17   29.64    1.30
   6  -1 -18    0.08    0.33
   6   2 -17    2.25    0.53
   6   2 -17    1.89    0.49
   6   2 -16   17.25    1.16
   6   2 -16   17.01    1.11
   6   2 -15   41.57    1.85
   6   2 -15   42.15    1.78
   6   2 -14  117.18    3.19
   6   2 -14  114.61    3.03
   6   2 -13   98.77    3.09
   6   2 -13   96.09    2.87
   6   2 -12   31.63    1.86
   6   2 -12   35.90    1.84
   6   2 -11  134.80    3.57
   6   2 -10   31.39    1.81
   6   2 -10   31.13    1.81
   6   2  -9  114.68    3.35
   6   2  -9  107.73    3.30
   6   2  -8  312.76    5.74
   6   2  -8  305.78    5.82
   6   2  -7  140.86    3.77
   6   2  -7  143.52    3.95
   6   2  -7  135.82    4.32
   6   2  -6   99.17    3.19
   6   2  -6  106.48    3.44
   6   2  -6  102.55    3.79
   6   2  -5  196.97    4.55
   6   2  -5  203.20    5.51
   6   2  -4   36.00    2.11
   6   2  -4   39.19    2.20
   6   2  -4   40.42    2.09
   6   2  -4   42.61    2.67
   6   2  -3   71.39    2.91
   6   2  -3   73.62    2.96
   6   2  -3   69.44    2.71
   6   2  -3   77.24    3.54
   6   2  -2   19.45    1.63
   6   2  -2   20.52    1.70
   6   2  -2   18.23    1.45
   6   2  -2   22.00    2.14
   6   2  -1  217.84    5.01
   6   2  -1  206.47    5.02
   6   2  -1  208.50    4.55
   6   2  -1  214.66    5.95
   6  -2   0    5.34    0.75
   6   2   0    6.49    1.16
   6  -2   0    7.54    1.23
   6   2   0    7.85    1.23
   6   2   0    5.70    0.98
   6   2   0    8.16    1.78
   6   2   1  203.15    4.85
   6  -2  -1  216.18    5.06
   6  -2  -2   15.48    1.16
   6   2   2   20.59    1.66
   6  -2  -2   20.23    1.70
   6   2   3   70.84    2.83
   6   2   3   71.44    3.47
   6  -2  -4   37.37    2.06
   6  -2  -4   43.56    2.30
   6   2   4   41.30    2.64
   6  -2  -5  191.20    4.50
   6  -2  -5  202.88    4.80
   6   2   5  209.68    5.56
   6  -2  -6   98.57    3.17
   6  -2  -6   99.01    3.31
   6   2   6   96.17    3.70
   6  -2  -7  123.82    3.35
   6  -2  -7  133.06    3.67
   6  -2  -7  153.33    4.02
   6   2   7  144.29    4.42
   6  -2  -8  302.91    5.55
   6  -2  -8  316.90    5.83
   6  -2  -9  101.07    3.03
   6  -2  -9  107.00    3.17
   6  -2  -9  109.04    3.29
   6  -2 -10   27.02    1.64
   6  -2 -10   28.38    1.64
   6  -2 -10   32.49    1.80
   6  -2 -11  125.08    3.36
   6  -2 -12   39.23    1.89
   6  -2 -13   91.87    2.75
   6  -2 -14   96.67    2.74
   6  -2 -15   36.62    1.63
   6  -2 -16   14.40    1.02
   6  -2 -17    1.98    0.47
   6   3 -15  140.57    2.78
   6   3 -14    9.13    0.83
   6   3 -13  197.04    3.65
   6   3 -13  144.66    2.56
   6   3 -12  204.70    3.88
   6   3 -12  147.86    2.75
   6   3 -11    8.01    0.96
   6   3 -11    5.97    0.64
   6   3 -10   82.27    2.61
   6   3 -10   67.17    1.91
   6   3  -9   11.65    1.13
   6   3  -9    8.61    0.77
   6   3  -8  361.75    5.82
   6   3  -8  305.99    4.59
   6   3  -7  103.07    3.05
   6   3  -7  101.87    3.30
   6   3  -6  304.80    5.36
   6   3  -6  317.84    6.01
   6   3  -5    5.62    0.96
   6   3  -5    4.35    0.63
   6   3  -5    2.73    0.61
   6   3  -5    7.17    1.25
   6   3  -4    3.56    0.84
   6   3  -4    2.31    0.58
   6   3  -4    3.93    1.16
   6  -3   3   15.50    0.98
   6   3  -3   16.87    1.36
   6   3  -3   18.01    1.75
   6  -3   2  113.51    2.66
   6   3  -2  128.57    3.47
   6   3  -2  103.20    2.80
   6   3  -2  134.46    4.27
   6   3  -1  261.22    4.92
   6   3  -1  268.57    6.09
   6  -3   0   13.62    1.07
   6   3   0   13.30    1.22
   6   3   0    9.20    0.94
   6   3   0   12.65    1.71
   6  -3  -1  238.49    4.19
   6   3   1  266.82    4.84
   6  -3  -2  115.84    2.92
   6   3   2   56.40    2.09
   6  -3  -3   15.78    1.19
   6   3   3   18.23    1.83
   6  -3  -4    2.87    0.71
   6   3   4    2.00    0.59
   6   3   4    3.97    1.18
   6  -3  -5    7.01    0.92
   6   3   5    6.38    1.18
   6  -3  -6  286.03    4.75
   6   3   6  325.68    5.99
   6  -3  -7   91.41    2.68
   6   3   7  103.98    3.28
   6  -3  -8  319.06    5.32
   6   3   8  357.73    6.11
   6  -3  -9    9.57    1.02
   6   3   9   10.60    1.15
   6  -3 -10   80.76    2.46
  -6  -3  10   67.17    2.59
   6  -3 -11    6.40    0.87
  -6  -3  11    3.36    0.68
   6  -3 -12  184.65    3.64
   6  -3 -13  190.22    3.55
   6  -3 -14    7.99    0.76
   6  -3 -15  120.39    2.46
   6   4  -9   28.80    1.06
   6   4  -8   31.49    1.15
   6   4  -7  123.48    2.40
   6   4  -6   81.65    2.51
  -6  -4  -6   80.03    2.91
   6   4  -5   81.20    2.63
  -6  -4  -5   81.25    3.07
   6   4  -4   26.33    1.63
  -6  -4  -4   31.07    2.02
   6   4  -3   52.36    2.27
  -6  -4  -3   51.16    2.57
   6   4  -2   27.49    1.76
  -6  -4  -2   28.14    2.04
   6   4  -1  196.34    4.48
  -6  -4  -1  195.97    5.17
   6   4   0  120.58    3.52
  -6  -4   0  110.40    3.88
   6  -4  -1  172.63    3.22
   6  -4  -2   21.92    1.18
  -6  -4   2   26.12    1.99
   6   4   3   52.62    2.29
  -6  -4   3   50.29    2.58
   6  -4  -4   24.51    1.28
   6   4   4   26.89    1.69
  -6  -4   4   28.64    1.96
   6   4   5   82.00    2.68
  -6  -4   5   75.80    2.99
   6   4   6   81.67    2.57
  -6  -4   6   77.32    2.87
   6  -4  -7  150.47    3.02
   6   4   7  161.22    3.43
   6  -4  -8   38.59    1.51
   6   4   8   38.00    1.58
   6  -4  -9   32.00    1.34
   6  -4 -10   34.94    1.33
   0   0   0    0.00    0.00


TITL rr001 in P2(1)2(1)2(1)
REM P2(1)2(1)2(1) (#19 in standard setting)
CELL 1.54184   5.526266   7.588025  31.564138  90.0000  90.0000  90.0000
ZERR   37.00   0.000127   0.000169   0.000624   0.0000   0.0000   0.0000
LATT -1
SYMM -x+1/2,-y, z+1/2
SYMM -x, y+1/2,-z+1/2
SYMM  x+1/2,-y+1/2,-z
SFAC C H O
UNIT 37.00 37.00 37.00
TREF
HKLF 4
END
_computing_structure_solution     'SHELXT 2014/5 (Sheldrick, 2014)'
;
_shelx_hkl_checksum              45549
_olex2_submission_special_instructions 'No special instructions were received'
_oxdiff_exptl_absorpt_empirical_details
;
Empirical correction (ABSPACK) includes:
- Absorption correction using spherical harmonics
- Frame scaling
;
_oxdiff_exptl_absorpt_empirical_full_max 1.612
_oxdiff_exptl_absorpt_empirical_full_min 0.634
loop_
_space_group_symop_operation_xyz
'x, y, z'
'-x+1/2, -y, z+1/2'
'-x, y+1/2, -z+1/2'
'x+1/2, -y+1/2, -z'
loop_
_atom_site_label
_atom_site_type_symbol
_atom_site_fract_x
_atom_site_fract_y
_atom_site_fract_z
_atom_site_U_iso_or_equiv
_atom_site_adp_type
_atom_site_occupancy
_atom_site_site_symmetry_order
_atom_site_calc_flag
_atom_site_refinement_flags_posn
O2 O 0.1794(2) 0.65402(16) 0.79245(4) 0.0209(3) Uani 1 1 d .
O1 O 0.0448(3) 0.7688(2) 0.51398(4) 0.0276(3) Uani 1 1 d .
C13 C 0.2178(3) 0.6437(2) 0.74951(5) 0.0172(3) Uani 1 1 d .
C11 C 0.1301(3) 0.5520(2) 0.67821(5) 0.0180(3) Uani 1 1 d .
H11 H 0.031964 0.490317 0.659418 0.022 Uiso 1 1 calc R
C12 C 0.0717(3) 0.5526(2) 0.72144(5) 0.0182(3) Uani 1 1 d .
H12 H -0.063944 0.492297 0.731150 0.022 Uiso 1 1 calc R
C15 C 0.4756(3) 0.7314(2) 0.69198(5) 0.0190(3) Uani 1 1 d .
H15 H 0.611703 0.791355 0.682383 0.023 Uiso 1 1 calc R
C14 C 0.4213(3) 0.7336(2) 0.73471(5) 0.0189(3) Uani 1 1 d .
H14 H 0.519906 0.794768 0.753520 0.023 Uiso 1 1 calc R
C10 C 0.3309(3) 0.6411(2) 0.66280(5) 0.0171(3) Uani 1 1 d .
C16 C -0.0354(3) 0.5741(2) 0.80828(5) 0.0229(4) Uani 1 1 d .
H16A H -0.173163 0.621376 0.793672 0.034 Uiso 1 1 calc GR
H16B H -0.049910 0.597824 0.838045 0.034 Uiso 1 1 calc GR
H16C H -0.027803 0.449041 0.803804 0.034 Uiso 1 1 calc GR
C3 C 0.2928(3) 0.5013(2) 0.58884(5) 0.0189(4) Uani 1 1 d .
C4 C 0.1121(3) 0.5253(2) 0.56082(5) 0.0211(4) Uani 1 1 d .
C9 C 0.3936(3) 0.6516(2) 0.61575(5) 0.0187(4) Uani 1 1 d .
H9 H 0.570324 0.644656 0.613726 0.022 Uiso 1 1 calc R
C8 C 0.3202(3) 0.8323(2) 0.59771(5) 0.0214(4) Uani 1 1 d .
H8A H 0.361643 0.924285 0.617780 0.026 Uiso 1 1 calc R
H8B H 0.407654 0.854444 0.571609 0.026 Uiso 1 1 calc R
C7 C 0.0495(3) 0.8354(2) 0.58918(5) 0.0224(4) Uani 1 1 d .
H7A H -0.037573 0.809392 0.615122 0.027 Uiso 1 1 calc R
H7B H 0.001915 0.951946 0.579710 0.027 Uiso 1 1 calc R
C6 C -0.0160(3) 0.7003(2) 0.55553(5) 0.0216(4) Uani 1 1 d .
H6 H -0.190902 0.679736 0.556626 0.026 Uiso 1 1 calc R
C1 C 0.5779(4) 0.2875(3) 0.62229(6) 0.0280(4) Uani 1 1 d .
C5 C 0.0181(4) 0.3849(3) 0.53131(6) 0.0282(4) Uani 1 1 d .
H5A H 0.148957 0.339783 0.514511 0.042 Uiso 1 1 calc GR
H5B H -0.102960 0.434574 0.513056 0.042 Uiso 1 1 calc GR
H5C H -0.051715 0.290842 0.547586 0.042 Uiso 1 1 calc GR
C2 C 0.4100(3) 0.3290(2) 0.59386(6) 0.0248(4) Uani 1 1 d .
H2 H 0.362113 0.240275 0.575348 0.030 Uiso 1 1 calc R
H1 H -0.081(7) 0.779(5) 0.4995(11) 0.072(10) Uiso 1 1 d .
H1A H 0.639(5) 0.170(3) 0.6232(7) 0.032(6) Uiso 1 1 d .
H1B H 0.642(5) 0.370(3) 0.6438(8) 0.037(6) Uiso 1 1 d .
loop_
_atom_site_aniso_label
_atom_site_aniso_U_11
_atom_site_aniso_U_22
_atom_site_aniso_U_33
_atom_site_aniso_U_23
_atom_site_aniso_U_13
_atom_site_aniso_U_12
O2 0.0250(6) 0.0227(6) 0.0151(5) 0.0005(5) -0.0004(5) -0.0031(5)
O1 0.0260(7) 0.0415(8) 0.0152(6) 0.0059(5) 0.0007(5) 0.0032(6)
C13 0.0193(8) 0.0168(7) 0.0155(7) 0.0019(6) -0.0016(6) 0.0024(7)
C11 0.0173(8) 0.0182(7) 0.0186(7) -0.0017(6) -0.0015(6) -0.0016(7)
C12 0.0178(8) 0.0182(7) 0.0185(7) 0.0013(6) 0.0011(6) -0.0024(7)
C15 0.0156(8) 0.0191(7) 0.0224(8) 0.0011(6) 0.0003(7) -0.0020(7)
C14 0.0173(8) 0.0190(7) 0.0203(8) -0.0011(6) -0.0048(7) -0.0011(7)
C10 0.0163(8) 0.0171(7) 0.0179(7) 0.0000(6) 0.0000(6) 0.0008(7)
C16 0.0246(9) 0.0258(8) 0.0182(7) 0.0024(7) 0.0035(7) -0.0002(8)
C3 0.0189(8) 0.0222(8) 0.0155(7) -0.0008(6) 0.0037(7) -0.0012(7)
C4 0.0204(8) 0.0274(9) 0.0155(7) -0.0020(7) 0.0022(7) -0.0018(7)
C9 0.0158(7) 0.0223(8) 0.0179(7) -0.0004(7) 0.0010(6) -0.0016(7)
C8 0.0250(9) 0.0208(8) 0.0185(8) 0.0010(7) 0.0019(7) -0.0033(7)
C7 0.0252(9) 0.0239(8) 0.0181(7) 0.0021(7) 0.0012(7) 0.0032(8)
C6 0.0179(8) 0.0319(9) 0.0149(7) 0.0021(7) 0.0023(6) 0.0015(7)
C1 0.0273(10) 0.0244(9) 0.0325(9) -0.0010(8) -0.0010(8) 0.0019(8)
C5 0.0292(10) 0.0332(10) 0.0222(8) -0.0051(8) -0.0037(8) -0.0002(8)
C2 0.0271(9) 0.0229(8) 0.0243(8) -0.0043(7) 0.0007(7) 0.0003(8)
loop_
_atom_type_symbol
_atom_type_description
_atom_type_scat_dispersion_real
_atom_type_scat_dispersion_imag
_atom_type_scat_source
C C 0.0181 0.0091 'International Tables Vol C Tables 4.2.6.8 and 6.1.1.4'
H H 0.0000 0.0000 'International Tables Vol C Tables 4.2.6.8 and 6.1.1.4'
O O 0.0492 0.0322 'International Tables Vol C Tables 4.2.6.8 and 6.1.1.4'
loop_
_geom_angle_atom_site_label_1
_geom_angle_atom_site_label_2
_geom_angle_atom_site_label_3
_geom_angle
C13 O2 C16 116.79(13)
C6 O1 H1 110(2)
O2 C13 C12 124.74(15)
O2 C13 C14 115.26(14)
C12 C13 C14 120.00(15)
C12 C11 H11 119.2
C10 C11 H11 119.2
C10 C11 C12 121.58(16)
C13 C12 C11 119.36(16)
C13 C12 H12 120.3
C11 C12 H12 120.3
C14 C15 H15 119.2
C14 C15 C10 121.65(16)
C10 C15 H15 119.2
C13 C14 H14 120.1
C15 C14 C13 119.70(16)
C15 C14 H14 120.1
C11 C10 C15 117.70(15)
C11 C10 C9 123.23(15)
C15 C10 C9 119.01(14)
O2 C16 H16A 109.5
O2 C16 H16B 109.5
O2 C16 H16C 109.5
H16A C16 H16B 109.5
H16A C16 H16C 109.5
H16B C16 H16C 109.5
C4 C3 C9 122.33(16)
C4 C3 C2 121.26(17)
C2 C3 C9 116.36(15)
C3 C4 C6 122.55(16)
C3 C4 C5 124.46(17)
C5 C4 C6 112.98(15)
C10 C9 C3 114.77(14)
C10 C9 H9 106.7
C10 C9 C8 110.27(13)
C3 C9 H9 106.7
C3 C9 C8 111.30(13)
C8 C9 H9 106.7
C9 C8 H8A 109.7
C9 C8 H8B 109.7
H8A C8 H8B 108.2
C7 C8 C9 109.81(15)
C7 C8 H8A 109.7
C7 C8 H8B 109.7
C8 C7 H7A 109.6
C8 C7 H7B 109.6
H7A C7 H7B 108.1
C6 C7 C8 110.35(15)
C6 C7 H7A 109.6
C6 C7 H7B 109.6
O1 C6 C4 107.81(14)
O1 C6 C7 109.61(15)
O1 C6 H6 108.5
C4 C6 C7 113.76(14)
C4 C6 H6 108.5
C7 C6 H6 108.5
C2 C1 H1A 119.3(15)
C2 C1 H1B 124.2(15)
H1A C1 H1B 117(2)
C4 C5 H5A 109.5
C4 C5 H5B 109.5
C4 C5 H5C 109.5
H5A C5 H5B 109.5
H5A C5 H5C 109.5
H5B C5 H5C 109.5
C3 C2 H2 116.8
C1 C2 C3 126.33(18)
C1 C2 H2 116.8
loop_
_geom_bond_atom_site_label_1
_geom_bond_atom_site_label_2
_geom_bond_distance
O2 C13 1.3743(19)
O2 C16 1.423(2)
O1 C6 1.450(2)
O1 H1 0.84(4)
C13 C12 1.384(2)
C13 C14 1.396(2)
C11 H11 0.9300
C11 C12 1.402(2)
C11 C10 1.388(2)
C12 H12 0.9300
C15 H15 0.9300
C15 C14 1.382(2)
C15 C10 1.399(2)
C14 H14 0.9300
C10 C9 1.527(2)
C16 H16A 0.9600
C16 H16B 0.9600
C16 H16C 0.9600
C3 C4 1.346(2)
C3 C9 1.527(2)
C3 C2 1.468(2)
C4 C6 1.514(2)
C4 C5 1.508(2)
C9 H9 0.9800
C9 C8 1.539(2)
C8 H8A 0.9700
C8 H8B 0.9700
C8 C7 1.520(3)
C7 H7A 0.9700
C7 H7B 0.9700
C7 C6 1.519(2)
C6 H6 0.9800
C1 C2 1.329(3)
C1 H1A 0.95(3)
C1 H1B 0.99(3)
C5 H5A 0.9600
C5 H5B 0.9600
C5 H5C 0.9600
C2 H2 0.9300
