#------------------------------------------------------------------------------
#$Date: 2019-11-08 02:01:31 +0200 (Fri, 08 Nov 2019) $
#$Revision: 224651 $
#$URL: file:///home/coder/svn-repositories/cod/cif/1/55/02/1550245.cif $
#------------------------------------------------------------------------------
#
# This file is available in the Crystallography Open Database (COD),
# http://www.crystallography.net/
#
# All data on this site have been placed in the public domain by the
# contributors.
#
data_1550245
loop_
_publ_author_name
'Karri, Ramesh'
'Chalana, Ashish'
'Das, Ranajit'
'Rai, Rakesh Kumar'
'Roy, Gouriprasanna'
_publ_section_title
;
 Cytoprotective effects of imidazole-based [S<sub>1</sub>] and
 [S<sub>2</sub>]-donor ligands against mercury toxicity: a bioinorganic
 approach.
;
_journal_issue                   1
_journal_name_full               'Metallomics : integrated biometal science'
_journal_page_first              213
_journal_page_last               225
_journal_paper_doi               10.1039/c8mt00237a
_journal_volume                  11
_journal_year                    2019
_chemical_formula_moiety         'C15 H20 N4 O4 S2'
_chemical_formula_sum            'C15 H20 N4 O4 S2'
_chemical_formula_weight         384.47
_space_group_crystal_system      monoclinic
_space_group_IT_number           15
_space_group_name_Hall           '-C 2yc'
_space_group_name_H-M_alt        'C 1 2/c 1'
_symmetry_space_group_name_Hall  '-C 2yc'
_symmetry_space_group_name_H-M   'C 1 2/c 1'
_atom_sites_solution_hydrogens   geom
_audit_creation_method           SHELXL-2014/7
_audit_update_record
;
2018-07-23 deposited with the CCDC.
2018-11-12 downloaded from the CCDC.
;
_cell_angle_alpha                90
_cell_angle_beta                 93.610(3)
_cell_angle_gamma                90
_cell_formula_units_Z            4
_cell_length_a                   7.2921(6)
_cell_length_b                   7.8235(6)
_cell_length_c                   30.636(2)
_cell_measurement_reflns_used    4184
_cell_measurement_temperature    298(2)
_cell_measurement_theta_max      26.08
_cell_measurement_theta_min      3.82
_cell_volume                     1744.3(2)
_computing_cell_refinement       'Bruker SAINT'
_computing_data_collection       'Bruker APEX2'
_computing_data_reduction        'Bruker SAINT'
_computing_molecular_graphics    'Bruker SHELXTL'
_computing_publication_material  'Bruker SHELXTL'
_computing_structure_refinement  'SHELXL-2014/7 (Sheldrick, 2014)'
_computing_structure_solution    'SHELXS-97 (Sheldrick 2008)'
_diffrn_ambient_temperature      298(2)
_diffrn_measured_fraction_theta_full 0.999
_diffrn_measured_fraction_theta_max 0.999
_diffrn_measurement_device_type  'Bruker PHOTON100 CMOS'
_diffrn_measurement_method       '\f and \w scans'
_diffrn_radiation_type           MoK\a
_diffrn_radiation_wavelength     0.71073
_diffrn_reflns_av_R_equivalents  0.0375
_diffrn_reflns_av_unetI/netI     0.0237
_diffrn_reflns_Laue_measured_fraction_full 0.999
_diffrn_reflns_Laue_measured_fraction_max 0.999
_diffrn_reflns_limit_h_max       9
_diffrn_reflns_limit_h_min       -9
_diffrn_reflns_limit_k_max       9
_diffrn_reflns_limit_k_min       -9
_diffrn_reflns_limit_l_max       38
_diffrn_reflns_limit_l_min       -38
_diffrn_reflns_number            13043
_diffrn_reflns_point_group_measured_fraction_full 0.999
_diffrn_reflns_point_group_measured_fraction_max 0.999
_diffrn_reflns_theta_full        25.242
_diffrn_reflns_theta_max         26.372
_diffrn_reflns_theta_min         2.665
_diffrn_source                   X-ray
_exptl_absorpt_coefficient_mu    0.334
_exptl_absorpt_correction_T_max  0.968
_exptl_absorpt_correction_T_min  0.936
_exptl_absorpt_correction_type   multi-scan
_exptl_absorpt_process_details   SADABS
_exptl_crystal_colour            COLORLESS
_exptl_crystal_density_diffrn    1.464
_exptl_crystal_description       BLOCK
_exptl_crystal_F_000             808.0
_exptl_crystal_size_max          0.246
_exptl_crystal_size_mid          0.166
_exptl_crystal_size_min          0.098
_refine_diff_density_max         0.203
_refine_diff_density_min         -0.191
_refine_diff_density_rms         0.042
_refine_ls_extinction_method     none
_refine_ls_goodness_of_fit_ref   1.093
_refine_ls_hydrogen_treatment    constr
_refine_ls_matrix_type           full
_refine_ls_number_parameters     115
_refine_ls_number_reflns         1795
_refine_ls_number_restraints     0
_refine_ls_restrained_S_all      1.093
_refine_ls_R_factor_all          0.0563
_refine_ls_R_factor_gt           0.0419
_refine_ls_shift/su_max          0.001
_refine_ls_shift/su_mean         0.000
_refine_ls_structure_factor_coef Fsqd
_refine_ls_weighting_details
'w=1/[\s^2^(Fo^2^)+(0.0290P)^2^+2.3089P] where P=(Fo^2^+2Fc^2^)/3'
_refine_ls_weighting_scheme      calc
_refine_ls_wR_factor_gt          0.0878
_refine_ls_wR_factor_ref         0.0957
_reflns_Friedel_coverage         0.000
_reflns_number_gt                1460
_reflns_number_total             1795
_reflns_threshold_expression     'I > 2\s(I)'
_cod_data_source_file            c8mt00237a7.cif
_cod_data_source_block           L3
_cod_depositor_comments
;
The following automatic conversions were performed:

'_exptl_absorpt_correction_type' value 'Multi-Scan' changed to
'multi-scan' according to
/home/data/users/saulius/crontab/automatic-downloads/rss-feeds/RSC/lib/dictionaries/cif_core.dic
dictionary named 'cif_core.dic' version 2.4.2 from 2011-04-26.

Automatic conversion script
Id: cif_fix_values 4973 2017-02-22 13:04:09Z antanas 

 Adding full bibliography for 1550243--1550249.cif.
;
_cod_database_code               1550245
_shelx_shelxl_version_number     2014/7
_shelx_space_group_comment
;
The symmetry employed for this shelxl refinement is uniquely defined
by the following loop, which should always be used as a source of
symmetry information in preference to the above space-group names.
They are only intended as comments.
;
_shelx_res_file
;

    mo_RK_060617_0m_a.res created by SHELXL-2014/7

TITL mo_RK_060617_0m_a.res in C2/c
CELL  0.71073   7.2921   7.8235  30.6364   90.000   93.610   90.000
ZERR   12.000   0.0006   0.0006   0.0022    0.000    0.003    0.000
LATT 7
SYMM -X, Y, 1/2-Z
SFAC C  H  Hg I  N  O  S
UNIT 12  12  12  12  12  12  12
REM Old TITL mo_RK_060617_0m in C2/c
REM SHELXT solution in C2/c
REM R1 0.132,  Rweak 0.008,  Alpha 0.023,  Orientation as input
REM Formula found by SHELXT:  C15 N6 O2 S2
L.S. 20
ACTA
BOND $H
FMAP 2
PLAN 20
TEMP 25.180
WGHT    0.029000    2.308900
FVAR       0.52541
S1    7    0.758485    0.679351    0.680198    11.00000    0.03390    0.05783 =
         0.05000   -0.00131    0.00381   -0.00070
N2    5    0.404905    0.750130    0.651427    11.00000    0.03443    0.03833 =
         0.03409   -0.00075    0.00080    0.00144
N1    5    0.426458    0.617246    0.713426    11.00000    0.03341    0.03808 =
         0.03218   -0.00137    0.00192   -0.00118
O1    6    0.396918    0.249829    0.548917    11.00000    0.07352    0.04667 =
         0.05380   -0.00585   -0.01645    0.00513
AFIX 147
H1    2    0.349277    0.191545    0.529051    11.00000   -1.50000
AFIX   0
O2    6    0.259030    0.458647    0.510526    11.00000    0.08579    0.05199 =
         0.05215   -0.00481   -0.02824    0.00495
C2    1    0.529002    0.683477    0.681662    11.00000    0.03384    0.03095 =
         0.03101   -0.00614    0.00190   -0.00134
C4    1    0.228506    0.722158    0.664107    11.00000    0.03250    0.04869 =
         0.04279   -0.00238   -0.00253    0.00464
AFIX  43
H4    2    0.120224    0.754867    0.648697    11.00000   -1.20000
AFIX   0
C3    1    0.241189    0.640484    0.702108    11.00000    0.03030    0.04541 =
         0.04226   -0.00429    0.00378   -0.00211
AFIX  43
H3    2    0.143882    0.605361    0.718163    11.00000   -1.20000
AFIX   0
C8    1    0.357130    0.410186    0.541888    11.00000    0.04077    0.04698 =
         0.03555   -0.00188    0.00157    0.00337
C5    1    0.450512    0.821959    0.609640    11.00000    0.04969    0.04091 =
         0.03624    0.00356    0.00244   -0.00250
AFIX  23
H5A   2    0.582957    0.830732    0.608872    11.00000   -1.20000
H5B   2    0.399509    0.936171    0.606636    11.00000   -1.20000
AFIX   0
C1    1    0.500000    0.515859    0.750000    10.50000    0.04232    0.03522 =
         0.03644    0.00000   -0.00007    0.00000
AFIX  23
H1A   2    0.596555    0.442726    0.740151    10.50000   -1.20000
H1B   2    0.403448    0.442721    0.759848    10.50000   -1.20000
AFIX   0
C6    1    0.375572    0.711884    0.571632    11.00000    0.04965    0.04721 =
         0.03446    0.00357   -0.00152    0.00407
AFIX  23
H6A   2    0.242355    0.714648    0.570358    11.00000   -1.20000
H6B   2    0.415001    0.759154    0.544491    11.00000   -1.20000
AFIX   0
C7    1    0.440112    0.527648    0.575904    11.00000    0.04332    0.04786 =
         0.03779   -0.00336   -0.00450    0.00468
AFIX  23
H7A   2    0.572622    0.525145    0.574541    11.00000   -1.20000
H7B   2    0.411666    0.485247    0.604453    11.00000   -1.20000
AFIX   0
HKLF 4

REM  mo_RK_060617_0m_a.res in C2/c
REM R1 =  0.0419 for    1460 Fo > 4sig(Fo)  and  0.0563 for all    1795 data
REM    115 parameters refined using      0 restraints

END

WGHT      0.0290      2.3089

REM Highest difference peak  0.203,  deepest hole -0.191,  1-sigma level  0.042
Q1    1   0.2137  0.4088  0.5300  11.00000  0.05    0.20
Q2    1   0.6317  0.7197  0.6852  11.00000  0.05    0.20
Q3    1   0.2384  0.6250  0.6733  11.00000  0.05    0.20
Q4    1   0.4699  0.3116  0.5296  11.00000  0.05    0.19
Q5    1   0.4805  0.6413  0.6979  11.00000  0.05    0.19
Q6    1   0.3405  0.6057  0.7071  11.00000  0.05    0.18
Q7    1   0.4008  0.6200  0.5739  11.00000  0.05    0.18
Q8    1   0.3499  0.4260  0.5102  11.00000  0.05    0.18
Q9    1   0.4140  0.7819  0.6323  11.00000  0.05    0.17
Q10   1   0.4597  0.6027  0.7303  11.00000  0.05    0.17
Q11   1   0.4730  0.6773  0.6586  11.00000  0.05    0.17
Q12   1   0.3202  0.7749  0.6596  11.00000  0.05    0.16
Q13   1   0.4842  0.7598  0.6674  11.00000  0.05    0.16
Q14   1   0.4063  0.7535  0.5924  11.00000  0.05    0.14
Q15   1   0.1792  0.5218  0.7295  11.00000  0.05    0.14
Q16   1   0.3613  0.4992  0.7616  11.00000  0.05    0.13
Q17   1   0.7476  0.5641  0.7117  11.00000  0.05    0.13
Q18   1   0.7572  0.5339  0.6756  11.00000  0.05    0.13
Q19   1   0.7495  0.6972  0.6460  11.00000  0.05    0.12
Q20   1   0.3891  0.4760  0.5609  11.00000  0.05    0.12
;
_shelx_res_checksum              53443
_shelx_hkl_file
;
   2   0   0 1088.99   26.80
   2   0   0 1046.30   25.70
   2   0   0 1039.10   24.10
  -2   0   0 1052.59   24.20
  -2   0   0 1075.19   26.60
  -2   0   0 1016.90   25.10
  -4   0   0  885.91   29.90
   4   0   0  932.11   28.10
   4   0   0  831.82   30.90
   4   0   0  896.01   32.40
   4   0   0  913.21   31.30
  -4   0   0  924.81   28.20
  -4   0   0  926.31   28.80
   6   0   0 2038.30   53.59
  -6   0   0 2063.59   56.39
  -6   0   0 1988.10   58.49
   6   0   0 2005.30   59.99
   6   0   0 2001.10   61.59
   8   0   0  262.57   19.80
  -8   0   0  298.87   22.60
   8   0   0  301.37   26.00
   8   0   0  299.67   24.70
  -1  -1   0 3843.82   65.69
   1  -1   0 3927.81   63.99
  -1  -1   0 3895.51   63.69
  -1  -1   0 3850.51   66.19
   1  -1   0 3970.20   66.79
  -1   1   0 3820.42   66.29
   1   1   0 3912.41   63.69
   1   1   0 3891.51   65.79
  -1   1   0 3937.21   64.19
   1   1   0 3598.24   65.39
   1   1   0 3945.31   66.39
   3  -1   0   67.49    6.80
   3  -1   0   71.69    7.80
  -3  -1   0   75.39    7.50
  -3  -1   0   72.39    7.50
  -3  -1   0   72.39    7.40
   3  -1   0   58.69    5.00
  -3  -1   0   70.39    7.10
   3  -1   0   80.69    7.90
   3   1   0   75.29    7.70
  -3   1   0   54.59    5.80
  -3   1   0   81.89    7.30
   3   1   0   64.09    7.20
   3   1   0   63.59    6.80
  -5  -1   0   49.90    9.70
   5  -1   0   61.89    7.20
   5  -1   0   61.59   10.20
   5  -1   0   73.09    9.20
  -5  -1   0   65.39   11.60
  -5  -1   0   60.69    9.80
   5   1   0   59.59   10.10
   5   1   0   66.29   10.70
  -5   1   0   71.79    7.60
  -5   1   0   57.89    9.30
  -5   1   0   62.99    7.40
   5   1   0   65.59   10.00
  -7  -1   0   21.50    6.90
   7  -1   0    5.90    4.60
   7  -1   0   18.70    5.00
   7  -1   0    3.90    5.40
   7   1   0   20.50    6.90
   7   1   0   10.90    5.40
   7   1   0   -1.50    5.10
  -7   1   0   13.70    5.60
   9  -1   0    8.70    9.40
  -9  -1   0   16.70   11.90
   9   1   0    2.80    6.90
  -9   1   0    6.00    8.90
   9   1   0   12.80    9.00
   9   1   0   11.10    9.40
   0  -2   0 7198.08  114.79
   0  -2   0 7379.56  110.99
   0  -2   0 7271.57  118.39
   0  -2   0 7108.39  114.39
   0   2   0 7352.06  114.99
   0   2   0 7470.75  110.99
   0   2   0 7058.19  114.69
   0   2   0 7130.69  118.59
   2  -2   0  267.17   12.30
  -2  -2   0  251.97   13.40
  -2  -2   0  255.37   11.70
  -2  -2   0  246.58   13.40
   2  -2   0  240.68   13.60
   2   2   0  226.88   11.30
   2   2   0  248.08   13.30
   2   2   0  233.28   13.10
  -2   2   0  236.58   13.30
   2   2   0  263.37   17.80
   4  -2   0    6.00    2.00
  -4  -2   0    5.30    3.10
   4  -2   0    5.40    3.00
   4  -2   0    5.60    4.30
  -4  -2   0    6.80    3.40
  -4  -2   0   -3.20    2.30
  -4  -2   0    4.10    3.10
   4  -2   0   -0.20    2.20
   4   2   0    4.60    3.50
  -4   2   0    3.30    2.40
   4   2   0    2.60    3.20
   4   2   0    1.10    2.60
  -4   2   0    2.40    1.80
  -4   2   0    6.10    3.60
   6  -2   0  435.76   24.90
   6  -2   0  429.86   26.00
   6  -2   0  392.76   16.70
  -6  -2   0  402.26   25.00
  -6   2   0  365.16   18.40
   6   2   0  398.66   23.80
   6   2   0  366.76   25.00
   6   2   0  411.56   25.70
  -6   2   0  414.36   18.30
  -6   2   0  339.27   23.10
   8  -2   0   89.79   15.50
   8  -2   0  106.09   18.40
  -8  -2   0  108.09   17.60
  -8   2   0   93.29   13.30
   8   2   0  110.89   17.70
   8   2   0   78.59   15.60
   8   2   0   82.69   15.40
  -1  -3   0  113.79    6.60
  -1  -3   0  120.29    9.60
   1  -3   0  116.69    9.50
  -1  -3   0  124.79    9.10
   1  -3   0  125.19    6.50
  -1  -3   0  123.79    9.20
   1  -3   0  125.49    6.90
   1  -3   0  117.39    6.30
   1   3   0  126.49    9.20
  -1   3   0  120.29    9.60
   1   3   0  115.39    9.40
  -1   3   0  111.09    6.40
   1   3   0  123.39    9.10
   1   3   0  117.39    6.70
  -3  -3   0   13.00    4.30
  -3  -3   0   11.90    4.40
  -3  -3   0   11.10    3.90
   3  -3   0   12.70    4.40
   3  -3   0    4.40    4.10
   3  -3   0   16.30    4.30
  -3  -3   0   16.30    4.90
   3   3   0    7.40    3.40
   3   3   0   10.40    4.10
   3   3   0   12.50    3.80
  -3   3   0    9.10    4.00
   5  -3   0  136.59   13.10
  -5  -3   0  117.59   14.10
  -5  -3   0  135.69   13.80
  -5  -3   0  127.29   14.40
   5  -3   0  142.69   13.70
  -5   3   0  132.69    7.90
  -5   3   0  130.89    8.20
   5   3   0  144.69   14.10
   5   3   0  136.29   13.40
  -5   3   0  136.09   13.00
  -5   3   0  129.79   14.30
   5   3   0  123.69   13.90
   7  -3   0  130.09   14.60
  -7  -3   0  125.89   18.80
   7  -3   0  108.29   17.00
   7   3   0  118.19   17.90
   7   3   0   99.99   16.10
   7   3   0  114.59   17.90
   0  -4   0  848.82   25.80
   0  -4   0  838.92   26.00
   0  -4   0  860.21   21.20
   0  -4   0  850.61   29.60
   0   4   0  829.82   26.30
   0   4   0  839.72   20.90
   0   4   0  853.81   26.30
   0   4   0  874.21   30.40
  -2  -4   0  120.89   11.20
  -2  -4   0  110.29   11.10
   2  -4   0  111.79   11.30
  -2  -4   0   91.69   10.30
   2   4   0  122.89   11.20
   2   4   0  113.89   11.00
  -2   4   0  121.59    6.80
   2   4   0  124.09   11.70
   2   4   0  115.59    8.70
  -2   4   0  133.89   12.20
   4  -4   0  105.99   11.30
  -4  -4   0  115.29   13.00
  -4  -4   0  110.29   11.40
   4  -4   0  123.49   11.80
   4  -4   0  111.09   13.50
  -4  -4   0  113.69   13.50
  -4  -4   0  115.29   14.40
   4   4   0  119.79   12.90
  -4   4   0  131.99   14.60
   4   4   0  100.19   10.90
   4   4   0  101.99   12.40
  -6  -4   0   -1.80    4.20
   6  -4   0    4.90    4.70
   6  -4   0    3.40    3.90
   6   4   0    1.10    3.90
   6   4   0    2.60    5.90
   6   4   0    0.50    3.90
  -6   4   0    1.10    3.80
  -8  -4   0   -5.30    7.40
   8  -4   0    5.30    6.30
   8   4   0   12.50    7.80
   8   4   0    1.80    8.20
   8   4   0   -8.00    5.70
  -1  -5   0   -1.00    2.10
   1  -5   0    2.40    2.20
  -1  -5   0    2.80    3.20
  -1  -5   0    7.20    2.50
   1  -5   0    7.30    2.80
   1  -5   0    6.90    2.20
  -1  -5   0    3.00    3.60
  -1   5   0    6.20    3.90
  -1   5   0    0.40    1.80
   1   5   0    3.40    1.90
   1   5   0    2.70    2.90
   1   5   0    1.40    2.90
   1   5   0    2.60    3.30
  -3  -5   0   68.69   11.40
  -3  -5   0   76.99   12.70
   3  -5   0   72.79   12.10
  -3  -5   0   77.59   12.10
   3  -5   0   74.29   11.10
  -3  -5   0   68.39    8.50
   3   5   0   83.69   13.50
   3   5   0   75.09   13.20
  -3   5   0   76.89   12.60
   5  -5   0   -8.90    3.10
   5  -5   0   -7.60    2.60
  -5  -5   0   -4.40    3.90
  -5  -5   0    2.10    4.80
   5   5   0    1.00    3.40
   5   5   0    6.40    4.50
  -5   5   0    8.50    4.10
   5   5   0   -0.40    3.50
   7  -5   0   39.50   11.70
  -7  -5   0   37.40   12.50
   7  -5   0   44.90   11.50
   7   5   0   52.09   11.70
   7   5   0   26.40   10.60
   7   5   0   46.90   12.00
   0  -6   0   77.79   12.80
   0  -6   0   64.99    8.10
   0  -6   0   69.29    6.30
   0  -6   0   53.99    8.90
   0   6   0   75.59    9.20
   0   6   0   71.29   11.70
   2  -6   0   55.99   11.80
  -2  -6   0   48.60   10.20
  -2  -6   0   31.80    8.20
   2  -6   0   51.19    7.90
   2  -6   0   64.99    7.40
   2  -6   0   53.59    5.60
  -2  -6   0   49.90    7.30
   2   6   0   42.90    8.90
  -2   6   0   52.29    6.40
  -2   6   0   51.39   10.70
   2   6   0   46.90    7.20
   4  -6   0  693.43   33.10
  -4  -6   0  758.52   38.40
   4  -6   0  709.23   30.70
   4  -6   0  768.52   31.30
  -4  -6   0  745.83   30.60
   4   6   0  785.92   39.20
  -4   6   0  744.13   38.30
   4   6   0  734.03   37.40
   4   6   0  751.42   30.50
   6  -6   0   20.60    8.00
   6  -6   0   12.00    7.00
  -6  -6   0   14.90    8.20
   6   6   0   19.90    7.80
   6   6   0    5.40    8.20
   6   6   0   22.80    9.20
  -6   6   0    2.10    6.60
   1  -7   0    1.00    2.30
   1  -7   0    4.80    3.30
  -1  -7   0   -2.00    2.30
  -1  -7   0    0.10    3.60
   1  -7   0   -1.50    2.50
   1   7   0   -2.40    2.50
   1   7   0   -4.20    3.90
  -1   7   0    3.40    4.40
   3  -7   0   28.90    8.10
  -3  -7   0   24.50    7.80
   3  -7   0   34.90    7.50
  -3  -7   0   23.10    5.70
  -3  -7   0   14.20    7.10
  -3   7   0   34.30    9.30
   3   7   0   11.30    5.10
   3   7   0   16.90    7.10
  -5  -7   0   -4.00    5.50
   5  -7   0    0.30    5.70
   5  -7   0    5.70    5.90
   5   7   0   17.90    6.00
   5   7   0    2.00    5.00
  -5   7   0    5.00    6.60
   5   7   0    7.80    9.60
   0  -8   0   19.10    6.00
   0  -8   0    2.70    5.40
   0   8   0    0.10    5.90
  -2  -8   0   67.99   13.30
  -2  -8   0   68.39    7.70
  -2  -8   0   49.90   11.50
   2  -8   0   40.90    6.50
   2  -8   0   60.99    8.80
   2   8   0   49.60    7.30
  -2   8   0   54.29   13.40
   2   8   0   56.69   13.10
   4  -8   0  112.59   14.70
   4  -8   0  135.19   16.50
  -4  -8   0  155.98   37.70
   4  -8   0  116.19   13.00
  -4  -8   0  111.69   19.50
   4   8   0  126.09   13.20
  -4   8   0  149.88   20.00
   1  -9   0   30.00    8.10
  -1  -9   0   18.70    6.90
  -1  -9   0   14.90    8.80
  -1  -9   0   25.60    5.10
   1  -9   0   27.00    6.30
   1   9   0    3.90    8.70
  -1   9   0   30.50   10.40
  -3  -9   0   -5.20    5.30
   3  -9   0    3.60    5.40
   3   9   0    5.00    4.80
   3   9   0  -11.60    6.50
   8   0  -1   -3.90    5.60
   8   0  -1    1.40    3.80
  -8   0   1   -5.80    6.10
   8   0  -1    7.40    5.80
  -6   0   1    4.20    4.00
  -6   0   1   -0.70    4.50
   6   0  -1    7.30    5.10
   6   0  -1    5.10    4.00
   6   0  -1    6.10    3.80
  -4   0   1    8.30    3.40
   4   0  -1   15.30    5.10
   4   0  -1    7.60    3.60
   4   0  -1   11.70    4.40
  -4   0   1   16.40    4.40
  -4   0   1    8.40    3.40
   4   0  -1   13.80    4.10
   2   0  -1    0.50    1.50
   2   0  -1    2.60    1.50
  -2   0   1    0.60    1.20
   2   0  -1   -0.30    1.60
  -2   0   1    1.00    1.40
   2   0  -1    1.70    1.80
  -2   0  -1   -1.80    0.80
  -2   0  -1   -0.70    1.30
  -2   0  -1    1.50    1.30
   2   0   1    2.30    1.70
   2   0   1    0.10    1.50
   2   0   1    1.20    1.10
   4   0   1    1.90    2.80
  -4   0  -1    1.50    2.50
  -4   0  -1    5.90    2.60
   4   0   1    0.20    2.20
   4   0   1    2.90    2.10
  -4   0  -1    2.20    2.60
  -6   0  -1   -0.70    4.10
   6   0   1   10.80    4.80
   6   0   1    2.30    3.20
   6   0   1   -2.80    1.90
  -6   0  -1    0.20    3.80
   8   0   1    4.00    5.00
   8   0   1    2.40    4.20
  -8   0  -1   -9.90    5.30
   8   0   1    3.10    5.70
  -9  -1   1  108.09   19.10
   9  -1  -1  114.39   31.60
   9  -1  -1  124.99   21.30
   9   1  -1  162.58   18.00
   9   1  -1   81.79   17.30
   9   1  -1  143.69   22.00
  -9   1   1  127.19   19.20
   7  -1  -1   58.69    9.10
  -7  -1   1   63.09   12.00
   7  -1  -1   41.60    8.90
   7  -1  -1   54.29   12.10
   7   1  -1   55.89   11.00
   7   1  -1   56.69   12.50
  -7   1   1   48.60    9.20
   7   1  -1   57.69   12.20
  -5  -1   1  329.57   20.00
  -5  -1   1  313.87   21.10
   5  -1  -1  318.87   20.40
   5  -1  -1  323.17   15.80
   5  -1  -1  306.57   19.20
  -5   1   1  338.37   17.00
   5   1  -1  327.87   20.50
  -5   1   1  307.57   15.60
   5   1  -1  331.47   20.40
   5   1  -1  314.77   18.70
   5   1  -1  284.57   23.00
  -5   1   1  314.07   18.70
   3  -1  -1 1801.92   44.90
  -3  -1   1 1920.21   45.70
  -3  -1   1 1990.60   45.80
  -3  -1   1 1983.60   45.20
  -3  -1   1 1893.41   45.40
   3  -1  -1 1872.21   44.10
   3  -1  -1 1880.11   47.50
   3  -1  -1 1907.51   38.50
  -3   1   1 1920.41   47.50
  -3   1   1 1864.51   43.50
   3   1  -1 1915.71   46.20
  -3   1   1 1920.31   38.80
   3   1  -1 1976.40   45.80
   3   1  -1 1943.21   45.00
   1  -1  -1 2093.59   33.50
   1  -1  -1 2000.70   39.70
  -1  -1   1 2072.99   39.20
   1  -1  -1 2032.70   37.80
  -1  -1   1 2108.09   39.10
  -1  -1   1 2062.99   36.50
  -1  -1   1 2041.30   39.30
  -1   1   1 2044.80   33.50
   1   1  -1 2025.90   36.30
  -1   1   1 2026.40   39.70
   1   1  -1 2069.19   39.10
  -1   1   1 2046.00   37.90
  -1  -1  -1 4056.59   69.09
   1  -1   1 4122.89   66.79
  -1  -1  -1 4116.89   69.09
  -1  -1  -1 4120.99   69.39
  -1  -1  -1 4060.29   67.49
   1  -1   1 4076.99   66.19
   1  -1   1 3921.51   68.99
   1   1   1 4022.80   67.49
  -1   1  -1 4046.60   69.29
   1   1   1 4200.28   69.59
   1   1   1 4102.69   69.29
   1   1   1 4163.38   69.19
  -3  -1  -1   86.69    8.00
   3  -1   1   79.09    5.70
  -3  -1  -1   78.89    8.00
   3  -1   1   87.79    8.70
   3  -1   1  112.69    8.30
  -3  -1  -1   84.39    7.80
   3  -1   1   94.59    8.60
  -3  -1  -1   92.49    8.20
   3   1   1   91.89    8.60
  -3   1  -1   95.79    7.70
   3   1   1   86.59    8.30
   3   1   1   88.59    8.10
   5  -1   1  265.67   13.60
  -5  -1  -1  239.38   16.90
  -5  -1  -1  269.77   17.70
   5  -1   1  218.08   21.00
   5  -1   1  256.57   17.00
   5  -1   1  228.68   17.30
  -5  -1  -1  289.47   28.90
  -5  -1  -1  285.47   20.30
  -5   1  -1  260.97   16.50
  -5   1  -1  251.47   14.40
  -5   1  -1  249.28   13.70
   5   1   1  267.47   18.50
   5   1   1  237.58   17.30
   5   1   1  276.47   16.90
   7  -1   1   10.30    4.90
  -7  -1  -1    2.70    4.50
   7  -1   1    5.60    3.40
   7   1   1    7.10    4.20
   7   1   1    0.10    3.20
  -7   1  -1    2.60    5.40
   7   1   1    2.70    4.60
  -9  -1  -1    9.40    9.10
   9  -1   1    3.20    8.60
   9  -1   1   -7.00    9.10
   9   1   1   18.90    8.40
   9   1   1   13.30    6.60
   9   1   1   -5.80    7.70
  -9   1  -1   -1.30    8.60
  -8  -2   1   34.50    9.40
   8  -2  -1   37.60   12.00
   8  -2  -1   27.80    9.50
   8  -2  -1   20.20    5.80
   8   2  -1   15.00    7.10
   8   2  -1   34.70   11.00
  -8   2   1   21.50    7.60
   8   2  -1   19.00    9.30
   6  -2  -1  460.65   26.00
   6  -2  -1  444.36   27.20
   6  -2  -1  435.96   18.00
  -6  -2   1  464.25   27.30
   6   2  -1  415.56   25.00
  -6   2   1  433.96   19.10
   6   2  -1  416.16   25.90
  -6   2   1  423.66   19.50
   6   2  -1  380.56   25.50
  -4  -2   1  974.70   34.70
   4  -2  -1 1030.30   37.60
   4  -2  -1  994.00   34.40
   4  -2  -1 1052.39   25.20
  -4  -2   1 1050.19   35.40
  -4  -2   1 1032.80   34.30
  -4  -2   1 1055.49   36.80
   4  -2  -1 1017.00   33.50
  -4   2   1 1008.20   32.90
   4   2  -1 1032.40   35.50
  -4   2   1 1036.00   25.90
   4   2  -1 1058.09   35.00
  -4   2   1 1060.19   38.00
   4   2  -1 1076.19   37.00
  -2  -2   1 1496.65   38.00
  -2  -2   1 1502.95   33.90
  -2  -2   1 1466.05   37.40
   2  -2  -1 1453.65   35.00
   2  -2  -1 1466.05   38.40
   2   2  -1 1428.06   36.70
  -2   2   1 1462.45   38.10
   2   2  -1 1503.05   38.00
   2   2  -1 1507.35   33.80
  -2   2   1 1442.46   27.10
   0  -2   1 7596.14  113.19
   0  -2   1 7518.15  118.39
   0  -2   1 7468.65  121.39
   0  -2  -1 7463.05  118.99
   0  -2   1 7472.85  118.19
   0  -2  -1 7522.15  116.39
   0  -2  -1 7492.75  119.39
   0   2  -1 7625.74  118.79
   0   2  -1 7435.36  118.39
   0   2   1 7483.65  123.79
   0   2   1 7471.35  119.19
   0   2  -1 7577.44  113.09
   0   2   1 7488.55  116.19
   0   2   1 7465.05  119.29
   0   2  -1 7613.94  121.79
  -2  -2  -1  516.25   19.90
   2  -2   1  577.04   18.40
   2  -2   1  547.85   18.20
  -2  -2  -1  541.65   20.50
   2  -2   1  526.65   20.50
  -2  -2  -1  538.45   20.60
  -2  -2  -1  538.25   18.40
   2   2   1  568.84   18.90
   2   2   1  569.04   21.00
   2   2   1  530.25   20.10
  -2   2  -1  545.15   20.60
   2   2   1  552.24   23.80
  -4  -2  -1  796.82   30.20
  -4  -2  -1  882.61   32.40
   4  -2   1  857.71   31.00
  -4  -2  -1  829.12   31.30
   4  -2   1  840.62   33.50
  -4  -2  -1  846.82   31.30
   4  -2   1  862.31   29.50
   4  -2   1  808.92   19.90
  -4   2  -1  840.42   21.60
   4   2   1  816.62   31.80
  -4   2  -1  860.21   33.50
   4   2   1  862.81   31.40
  -4   2  -1  848.62   28.80
   4   2   1  821.12   30.90
   6  -2   1  413.56   25.80
   6  -2   1  372.96   23.10
  -6  -2  -1  407.66   25.50
   6  -2   1  419.96   16.90
  -6   2  -1  395.56   23.50
  -6   2  -1  409.66   18.70
   6   2   1  375.56   23.50
   6   2   1  418.06   25.80
  -6   2  -1  377.46   17.70
   6   2   1  373.76   24.80
   8  -2   1  167.58   18.20
  -8  -2  -1  138.59   20.20
   8  -2   1  156.58   19.50
   8   2   1  195.68   21.40
   8   2   1  155.98   17.80
   8   2   1  154.58   19.00
  -8   2  -1  183.28   15.70
  -7  -3   1   20.70    7.20
   7  -3  -1   14.30    6.80
   7  -3  -1   24.40    7.40
  -7   3   1    4.30    4.30
   7   3  -1   18.70    7.00
   7   3  -1   11.50    6.90
   7   3  -1   12.60    6.40
  -5  -3   1   98.59   15.20
  -5  -3   1   71.19   15.70
   5  -3  -1   85.89   10.40
   5  -3  -1  110.49   12.20
  -5  -3   1   99.49   18.70
  -5  -3   1   83.79   18.90
   5   3  -1   79.79    9.90
   5   3  -1   95.09   14.10
   5   3  -1   94.09   14.80
  -5   3   1   98.19   12.90
  -5   3   1   84.09    6.90
  -3  -3   1  154.08   12.80
  -3  -3   1  149.79   12.40
  -3  -3   1  171.18   11.30
  -3  -3   1  170.78   13.60
   3  -3  -1  140.59   12.70
   3  -3  -1  146.29   13.40
   3   3  -1  168.18   13.40
   3   3  -1  167.78   11.40
  -3   3   1  159.48    6.90
  -3   3   1  167.98   13.80
   3   3  -1  154.68   12.90
   1  -3  -1  555.74   21.60
   1  -3  -1  531.35   15.40
   1  -3  -1  540.15   15.40
  -1  -3   1  495.45   18.90
  -1  -3   1  476.25   19.00
   1  -3  -1  541.95   16.40
  -1  -3   1  524.55   20.50
  -1  -3   1  549.35   14.90
   1   3  -1  521.65   19.80
   1   3  -1  526.35   20.70
   1   3  -1  531.05   14.80
  -1   3   1  527.65   15.70
  -1   3   1  548.85   21.60
   1   3  -1  513.45   19.50
  -1  -3  -1  514.35   19.60
   1  -3   1  500.35   14.40
  -1  -3  -1  513.25   15.80
   1  -3   1  506.35   13.70
   1  -3   1  490.95   13.60
   1  -3   1  477.95   19.80
  -1  -3  -1  506.65   19.20
  -1  -3  -1  485.55   19.90
   1   3   1  484.65   20.10
  -1   3  -1  469.05   13.90
  -1   3  -1  507.85   19.90
   1   3   1  513.25   19.70
   1   3   1  514.25   19.40
   1   3   1  488.95   15.60
  -3  -3  -1   34.70    7.60
   3  -3   1   29.80    7.10
  -3  -3  -1   32.80    6.50
  -3  -3  -1   40.60    7.20
  -3  -3  -1   44.10    8.00
   3  -3   1   32.10    6.00
   3  -3   1   37.90    6.80
   3   3   1   45.90    8.60
  -3   3  -1   30.80    7.00
   3   3   1   34.30    6.30
   3   3   1   51.89    9.20
   5  -3   1   -0.90    3.00
  -5  -3  -1    2.10    4.10
  -5  -3  -1    5.00    3.70
  -5  -3  -1    1.50    4.30
   5  -3   1    8.70    4.60
   5   3   1   -2.30    2.90
  -5   3  -1   10.50    2.80
  -5   3  -1   -5.40    2.50
   5   3   1   -2.00    3.30
  -5   3  -1    5.70    4.90
   5   3   1    3.60    3.00
  -7  -3  -1   60.39   12.90
   7  -3   1   51.89   12.70
   7  -3   1   60.29   12.10
   7   3   1   73.69   13.60
   7   3   1   52.49   11.90
   7   3   1   78.59   14.10
   8  -4  -1  106.19   17.70
  -8  -4   1   93.99   19.60
   8   4  -1   81.19   16.10
   8   4  -1   65.39   14.30
  -6  -4   1  424.06   28.80
   6  -4  -1  420.96   30.30
   6  -4  -1  402.76   25.90
   6   4  -1  378.66   26.30
   6   4  -1  395.06   25.40
  -6   4   1  447.86   29.90
   6   4  -1  401.96   28.50
  -4  -4   1  120.99   13.30
   4  -4  -1  123.49   12.00
  -4  -4   1  108.49   13.10
  -4  -4   1  113.19   11.10
   4  -4  -1  113.49   11.70
   4  -4  -1  103.79   12.50
  -4  -4   1  133.49   26.50
  -4   4   1  135.49   14.10
   4   4  -1   98.69   10.50
   4   4  -1  100.19   12.20
   4   4  -1  103.59   12.20
  -2  -4   1  701.93   28.20
   2  -4  -1  714.83   17.70
   2  -4  -1  705.73   18.60
   2  -4  -1  718.03   29.60
  -2  -4   1  664.93   26.90
   2  -4  -1  690.03   22.80
  -2  -4   1  704.73   21.80
  -2  -4   1  687.13   28.50
   2   4  -1  720.43   22.20
   2   4  -1  649.83   28.10
  -2   4   1  675.23   28.60
  -2   4   1  691.33   19.30
   2   4  -1  674.43   27.40
   0  -4  -1 1541.05   37.80
   0  -4   1 1522.15   36.90
   0  -4   1 1483.25   36.90
   0  -4  -1 1538.25   42.50
   0  -4  -1 1469.25   37.40
   0  -4  -1 1528.85   33.10
   0  -4   1 1499.95   41.20
   0  -4   1 1502.65   30.40
   0   4  -1 1477.35   41.40
   0   4  -1 1537.55   37.60
   0   4   1 1463.95   42.50
   0   4  -1 1497.25   37.20
   0   4   1 1493.85   38.10
   0   4   1 1490.05   32.70
  -2  -4  -1 1649.33   48.00
  -2  -4  -1 1677.23   47.50
   2  -4   1 1676.83   48.40
  -2  -4  -1 1704.63   40.50
  -2  -4  -1 1714.83   47.40
   2   4   1 1630.04   47.80
  -2   4  -1 1642.34   33.10
  -2   4  -1 1709.93   48.10
   2   4   1 1719.13   40.40
   2   4   1 1685.13   47.10
   2   4   1 1751.72   48.00
  -4  -4  -1 1113.29   42.00
  -4  -4  -1 1115.49   37.50
   4  -4   1 1108.19   37.50
   4  -4   1 1113.59   43.30
  -4  -4  -1 1109.29   42.60
   4  -4   1 1107.69   37.30
  -4  -4  -1 1057.29   40.90
  -4   4  -1 1135.19   42.90
   4   4   1 1119.19   42.60
   4   4   1 1110.09   37.70
   4   4   1 1100.19   41.70
   6  -4   1    0.60    6.40
   6  -4   1    8.30    5.20
  -6  -4  -1    5.00    5.60
   6   4   1    9.30    5.60
   6   4   1   -1.80    4.50
  -8  -4  -1  199.28   22.70
   8  -4   1  179.48   19.30
   8   4   1  123.79   20.80
   8   4   1  179.48   21.40
   8   4   1  117.29   19.10
   7  -5  -1   -2.60    5.20
   7  -5  -1    1.80    7.10
  -7  -5   1    1.00    5.60
   7   5  -1    2.40    8.10
   7   5  -1   -0.30    6.80
   7   5  -1   -6.00    8.30
   5  -5  -1    6.90    4.60
  -5  -5   1   22.60    7.10
   5  -5  -1   10.90    4.50
  -5  -5   1   -0.60    4.50
   5   5  -1    4.00    4.30
   5   5  -1    6.70    5.20
  -5   5   1   21.30    6.90
   5   5  -1   10.10    5.10
  -3  -5   1    8.20    4.40
   3  -5  -1   10.70    4.20
   3  -5  -1   11.60    5.60
  -3  -5   1    4.60    4.80
  -3  -5   1    3.60    3.10
   3  -5  -1   12.70    4.50
  -3  -5   1    1.00    4.00
   3   5  -1   11.10    4.10
   3   5  -1   12.60    5.60
  -3   5   1    9.80    5.10
   3   5  -1    2.90    4.20
   1  -5  -1   51.79    9.60
   1  -5  -1   60.59    6.40
  -1  -5   1   51.89    9.10
   1  -5  -1   57.99    6.50
  -1  -5   1   58.89    5.40
  -1  -5   1   54.39    9.10
  -1  -5   1   52.29    8.70
   1   5  -1   50.49    8.60
  -1   5   1   62.89    6.80
   1   5  -1   62.49    5.50
   1   5  -1   65.19   10.50
  -1   5   1   46.80    9.40
   1   5  -1   60.09   10.20
   1  -5   1    6.80    3.00
   1  -5   1    5.80    2.90
  -1  -5  -1    9.80    4.10
   1  -5   1    5.90    2.50
  -1  -5  -1   12.60    4.60
  -1  -5  -1   13.40    5.40
  -1  -5  -1    4.80    2.70
   1   5   1   11.40    4.10
  -1   5  -1    7.10    4.20
   1   5   1    7.80    3.90
  -1   5  -1    6.30    3.10
   1   5   1    7.10    3.00
  -3  -5  -1   25.10    6.50
   3  -5   1   28.40    7.60
   3  -5   1   12.60    4.40
  -3  -5  -1   15.00    5.20
  -3  -5  -1   21.10    5.20
  -3  -5  -1   19.90    6.70
   3  -5   1   26.20    5.80
   3   5   1   16.30    5.90
   3   5   1   18.80    5.50
   3   5   1   20.80    7.10
  -3   5  -1   14.50    5.90
  -5  -5  -1    2.40    4.20
  -5  -5  -1   10.30    5.80
   5  -5   1    1.70    3.60
   5  -5   1    0.40    3.80
   5   5   1    2.50    5.20
   5   5   1   14.60    4.60
   5   5   1   11.20    5.50
  -5   5  -1    2.10    5.30
   7  -5   1   -4.50    4.30
   7  -5   1    5.00    7.90
  -7  -5  -1    3.80    6.30
   7   5   1   -4.60    7.40
   7   5   1   26.80    7.70
   7   5   1    0.70    5.80
  -6  -6   1    0.40    6.10
   6  -6  -1   -1.70    5.00
   6  -6  -1    1.50    6.20
   6   6  -1    4.90    6.90
   6   6  -1    2.00    5.50
   6   6  -1   12.80    7.30
  -6   6   1    3.10    5.30
  -4  -6   1   46.40   11.70
   4  -6  -1   30.70    7.90
  -4  -6   1   55.29    9.10
   4  -6  -1   33.80    7.80
   4   6  -1   65.99   12.90
   4   6  -1   58.29   12.40
   4   6  -1   58.79   10.00
  -4   6   1   63.69   13.20
   2  -6  -1    3.70    2.90
  -2  -6   1    8.60    3.30
   2  -6  -1    1.80    2.40
  -2  -6   1   10.90    5.70
  -2  -6   1   -0.70    3.50
   2  -6  -1   -2.20    5.10
   2  -6  -1   11.70    3.10
  -2   6   1    5.20    3.70
   2   6  -1    0.00    2.70
  -2   6   1    9.00    4.50
   2   6  -1   18.40    6.70
   0  -6   1   50.39   10.20
   0  -6   1   43.90    7.90
   0  -6  -1   44.70    8.10
   0  -6  -1   46.00    7.90
   0  -6   1   32.00    6.60
   0  -6  -1   38.80    8.50
   0  -6   1   51.39    5.00
   0   6  -1   43.80    8.30
   0   6  -1   41.00    9.40
   0   6   1   40.10    9.30
   0   6   1   51.59    8.90
   2  -6   1   73.99    6.10
   2  -6   1   80.09    7.50
  -2  -6  -1   72.79    7.90
  -2  -6  -1  104.19   12.40
   2  -6   1   70.19    6.10
  -2  -6  -1   91.79   11.30
   2  -6   1   66.09   12.40
   2   6   1   87.69    8.20
  -2   6  -1   93.79   11.80
   2   6   1   69.29   11.70
  -2   6  -1   62.79    7.50
   4  -6   1   65.59   10.90
   4  -6   1   49.00    9.70
  -4  -6  -1   41.50   10.90
   4   6   1   47.40   11.10
   4   6   1   50.19   10.00
  -4   6  -1   75.09   14.50
   4   6   1   44.00   10.30
   6  -6   1   21.30    8.00
  -6  -6  -1   38.80   11.80
   6  -6   1   19.50    6.40
  -6   6  -1   11.40    9.70
   6   6   1   31.50    9.60
   6   6   1   19.40    9.10
   6   6   1   20.20    9.50
   5  -7  -1    2.40    4.90
  -5  -7   1   11.00    7.60
   5  -7  -1   17.00    5.40
   5   7  -1    3.20    7.00
   5   7  -1    6.20    7.20
   5   7  -1   -4.40    4.50
  -5   7   1    4.00    7.00
   3  -7  -1  385.96   24.80
  -3  -7   1  316.07   17.20
  -3  -7   1  365.56   25.90
   3  -7  -1  355.46   19.90
  -3  -7   1  357.56   25.10
   3   7  -1  372.86   26.00
   3   7  -1  380.36   18.10
  -3   7   1  352.16   26.40
  -3   7   1  324.57   15.60
  -1  -7   1   10.50    3.30
   1  -7  -1    1.40    3.70
   1  -7  -1   12.40    4.60
   1  -7  -1   16.10    4.90
  -1  -7   1   14.80    5.10
  -1   7   1   15.70    5.50
   1   7  -1   13.40    6.20
  -1  -7  -1  108.09   12.70
  -1  -7  -1  108.99    8.90
   1  -7   1  100.19    9.70
   1  -7   1   85.49    9.20
  -1   7  -1  109.49   13.60
   1   7   1   94.69    8.20
   1   7   1   97.49   16.10
   3  -7   1   51.59    8.30
  -3  -7  -1   53.19   12.50
   3  -7   1   25.00    6.90
  -3  -7  -1   41.20   10.00
  -3  -7  -1   43.50    7.80
  -3   7  -1   49.80   12.00
   3   7   1   22.00    7.80
   3   7   1   44.60    8.20
  -5  -7  -1   75.29   16.00
   5  -7   1   87.59   15.20
   5  -7   1   81.59   12.80
   5   7   1   80.39   21.30
  -5   7  -1   95.99   17.60
   5   7   1  105.39   15.40
   5   7   1   96.89   18.50
  -4  -8   1   28.30   17.50
   4  -8  -1   -0.10    7.10
   4  -8  -1    9.50    6.30
   4  -8  -1   23.50    6.40
  -4  -8   1   21.80    8.20
   4   8  -1    8.10    6.10
  -4   8   1   25.50   10.70
   4   8  -1   -5.10    5.50
   2  -8  -1   -1.40    4.10
  -2  -8   1    1.00    6.70
   2  -8  -1    5.40    3.40
  -2  -8   1   11.60    3.50
  -2  -8   1    2.00    4.00
   2  -8  -1   -4.10    2.80
   2   8  -1    6.00    3.80
   2   8  -1   -3.90    5.20
  -2   8   1  -10.60    5.50
   0  -8   1    1.10    3.00
   0  -8  -1    9.40    5.20
   0  -8  -1   16.10    5.10
   0  -8   1    4.30    3.60
   0  -8  -1    9.30    3.90
   0   8  -1   17.70    6.80
   0   8   1   13.90    5.90
   2  -8   1    8.20    2.70
   2  -8   1    4.40    3.30
  -2  -8  -1    5.30    4.00
   2  -8   1    3.40    3.50
   2  -8   1   10.30    3.70
  -2   8  -1    4.00    5.40
   2   8   1   10.50    5.80
   4  -8   1   30.30    9.00
  -4  -8  -1   26.90    8.40
   4  -8   1   13.50    5.90
   4  -8   1   23.20    8.20
  -4   8  -1   17.50    9.60
   4   8   1   32.70    7.90
  -3  -9   1  -13.50    5.00
   3  -9  -1    2.00    6.40
   3  -9  -1  -11.00    4.00
   3   9  -1   12.80    8.60
   3   9  -1    1.70    4.80
  -3   9   1    9.20    8.40
   1  -9  -1    5.10    4.50
   1  -9  -1    9.10    4.70
  -1  -9   1    1.50    6.30
   1  -9  -1   12.40    5.10
  -1  -9   1    5.10    5.50
  -1   9   1  -10.80    6.50
   1   9  -1   17.90    7.20
  -1  -9  -1   -1.20    3.90
   1  -9   1    8.40    4.20
  -1  -9  -1   11.40    4.50
   1  -9   1    9.80    5.40
  -1  -9  -1   12.60    7.10
   1  -9   1    5.10    3.10
   1  -9   1    9.10    3.10
   1   9   1   24.70    8.70
  -1   9  -1    2.40    7.00
  -3  -9  -1    4.40    6.50
   3  -9   1    5.80    4.50
   3  -9   1   -4.90    4.70
  -3   9  -1    2.70    9.80
   3   9   1  -10.40    6.10
   3   9   1   -0.20    5.20
  -8   0   2   -6.90    5.50
   8   0  -2    8.70    6.50
   8   0  -2    3.60    4.70
   8   0  -2   -2.00    5.70
   6   0  -2  392.26   24.70
   6   0  -2  389.86   23.90
   6   0  -2  345.67   20.10
  -6   0   2  356.66   21.30
   4   0  -2 4862.01   97.59
   4   0  -2 4755.92   95.39
  -4   0   2 4787.42   94.49
  -4   0   2 4876.21   91.19
   4   0  -2 4898.01   91.39
   4   0  -2 4956.60   97.39
   2   0  -2 4423.06   77.69
   2   0  -2 4372.76   74.99
  -2   0   2 4384.76   74.89
  -2   0   2 4377.46   76.99
   2   0  -2 4401.06   77.99
   2   0  -2 4441.86   77.89
   2   0   2 6949.50  114.79
  -2   0  -2 7200.48  114.89
  -2   0  -2 7144.39  113.89
   2   0   2 7042.60  113.09
   2   0   2 7056.09  113.59
  -2   0  -2 7015.40  117.39
  -2   0  -2 7278.37  113.69
   2   0   2 7055.29  117.49
   4   0   2  264.97   16.70
   4   0   2  245.18   17.40
  -4   0  -2  260.97   15.00
  -4   0  -2  252.97   15.80
   4   0   2  254.77   13.30
  -4   0  -2  250.57   14.00
  -4   0  -2  260.87   14.00
   4   0   2  236.68   15.50
   6   0   2   93.59   11.50
  -6   0  -2   97.59   11.90
   6   0   2  112.39   13.20
  -6   0  -2  111.59   12.30
   6   0   2  104.09   10.50
  -8   0  -2  157.68   18.40
   8   0   2  172.98   20.20
   8   0   2  166.78   15.30
   8   0   2  185.78   19.40
   9  -1  -2   20.30    8.20
   9  -1  -2   22.40    7.80
  -9  -1   2   24.20   11.80
   9  -1  -2   21.60    9.70
  -9   1   2   13.70   10.50
   9   1  -2   20.30    9.00
   9   1  -2   15.20    9.80
   9   1  -2   20.10   10.40
  -7  -1   2   -0.60    5.20
   7  -1  -2   10.90    5.30
   7  -1  -2   10.70    5.50
   7  -1  -2   11.60    4.70
   7   1  -2   18.40    6.60
   7   1  -2   11.60    5.60
   7   1  -2    9.00    4.60
  -7   1   2   10.10    5.40
  -5  -1   2   64.29   10.90
   5  -1  -2   44.50    8.50
   5  -1  -2   55.69   10.00
  -5  -1   2   52.69   11.80
   5  -1  -2   42.60    6.60
  -5  -1   2   50.89    9.70
   5   1  -2   58.39   10.40
  -5   1   2   46.70    7.30
   5   1  -2   54.59   10.10
  -5   1   2   42.70    8.00
   5   1  -2   48.10    8.50
  -3  -1   2 1604.94   39.40
  -3  -1   2 1533.05   39.60
   3  -1  -2 1499.15   33.40
   3  -1  -2 1498.15   38.40
  -3  -1   2 1557.04   40.00
   3  -1  -2 1575.24   42.00
   3  -1  -2 1530.95   39.90
  -3   1   2 1520.75   38.20
  -3   1   2 1497.65   33.30
   3   1  -2 1584.04   40.50
  -3   1   2 1555.34   41.70
   3   1  -2 1521.25   39.00
   3   1  -2 1503.75   38.70
  -1  -1   2  319.17   11.20
   1  -1  -2  320.37   10.90
  -1  -1   2  321.87    9.60
   1  -1  -2  330.77    8.80
  -1  -1   2  330.47   11.30
   1   1  -2  336.37   11.50
  -1   1   2  338.17   11.20
   1   1  -2  323.97    9.50
   1   1  -2  320.97   11.30
  -1   1   2  336.17    9.00
  -1  -1  -2   15.60    2.80
  -1  -1  -2   15.80    2.90
  -1  -1  -2   18.00    3.10
  -1  -1  -2   12.70    2.80
   1  -1   2   14.30    2.40
   1  -1   2   18.30    2.20
   1  -1   2   17.70    3.10
  -1   1  -2   18.60    3.20
   1   1   2   21.50    3.60
  -1   1  -2   17.40    2.60
   1   1   2   14.90    2.80
   1   1   2   15.60    2.70
   1   1   2   16.80    3.00
   3  -1   2   77.99    8.40
   3  -1   2   86.79    8.20
   3  -1   2   79.69    5.40
  -3  -1  -2   73.59    7.40
  -3  -1  -2   67.89    7.20
  -3  -1  -2   77.79    7.50
   3  -1   2   65.49    6.50
  -3  -1  -2   81.39    7.90
  -3   1  -2   68.49    7.80
   3   1   2   55.09    6.80
   3   1   2   70.29    7.50
   3   1   2   80.59    7.50
  -3   1  -2   69.19    5.50
   5  -1   2    3.30    3.30
   5  -1   2   11.00    3.20
  -5  -1  -2    1.20    2.80
   5  -1   2    5.70    3.90
   5  -1   2   -1.00    3.00
  -5  -1  -2    2.10    3.40
  -5   1  -2    7.80    3.60
   5   1   2    2.30    3.00
  -5   1  -2   11.90    4.60
   5   1   2    7.00    3.90
   5   1   2    8.80    4.80
  -5   1  -2    7.10    3.30
   7  -1   2   -1.90    3.70
   7  -1   2   -0.10    2.80
  -7  -1  -2    4.20    4.50
   7  -1   2    6.00    4.30
   7   1   2    0.60    3.30
   7   1   2    8.10    4.90
   7   1   2    5.40    3.30
  -7   1  -2    1.80    4.20
   9  -1   2   15.90   10.00
  -9  -1  -2    3.30    8.20
   9  -1   2   21.80    9.60
   9   1   2    7.10    7.40
  -9   1  -2   18.30   11.80
   9   1   2   -2.60    6.20
   8  -2  -2    8.00    7.10
   8  -2  -2    4.20    4.00
   8  -2  -2   14.00    6.10
  -8  -2   2   11.60    6.60
   8   2  -2   -1.50    5.10
   8   2  -2    2.20    5.00
  -8   2   2   -2.00    5.00
   8   2  -2   10.40    6.40
   6  -2  -2  368.86   17.30
   6  -2  -2  405.26   24.30
  -6  -2   2  381.66   24.90
   6  -2  -2  351.16   24.10
   6   2  -2  355.86   23.30
  -6   2   2  404.26   19.50
  -6   2   2  359.66   18.00
   6   2  -2  379.86   25.10
   6   2  -2  338.07   23.20
   4  -2  -2 1298.17   38.80
  -4  -2   2 1283.37   40.30
   4  -2  -2 1298.47   40.20
  -4  -2   2 1268.27   42.30
   4  -2  -2 1256.27   42.40
  -4  -2   2 1304.77   40.50
   4  -2  -2 1281.97   29.90
  -4   2   2 1303.67   30.80
  -4   2   2 1306.47   42.70
   4   2  -2 1256.67   41.10
   4   2  -2 1295.67   40.40
  -4   2   2 1255.17   38.10
   4   2  -2 1281.77   39.20
  -2  -2   2  336.47   15.90
  -2  -2   2  372.56   13.90
   2  -2  -2  361.06   10.40
  -2  -2   2  356.16   16.00
   2  -2  -2  369.46   17.10
   2  -2  -2  330.47   14.60
   2   2  -2  358.06   16.40
  -2   2   2  363.36   16.90
  -2   2   2  380.06   11.00
   2   2  -2  354.26   13.60
   0  -2   2 1319.07   21.60
   0  -2  -2 1318.87   28.70
   0  -2  -2 1306.97   26.90
   0  -2   2 1276.07   28.90
   0  -2   2 1307.17   27.40
   0  -2  -2 1281.47   28.30
   0  -2   2 1325.17   27.10
   0   2   2 1334.57   27.00
   0   2   2 1332.77   32.20
   0   2  -2 1303.47   27.20
   0   2   2 1272.87   28.50
   0   2  -2 1309.57   29.00
  -2  -2  -2 4238.68   81.79
  -2  -2  -2 4430.16   83.09
  -2  -2  -2 4375.76   82.39
  -2  -2  -2 4208.78   78.99
   2  -2   2 4421.56   83.89
   2  -2   2 4433.76   77.99
   2  -2   2 4423.96   77.29
   2   2   2 4302.77   79.19
  -2   2  -2 4441.86   82.69
   2   2   2 4328.67   82.49
   2   2   2 4388.86   82.49
  -4  -2  -2  482.15   23.00
   4  -2   2  503.05   25.10
  -4  -2  -2  502.25   24.00
  -4  -2  -2  447.96   22.20
   4  -2   2  486.85   24.90
   4  -2   2  473.55   22.70
  -4  -2  -2  506.15   23.60
  -4   2  -2  469.25   14.80
   4   2   2  456.55   22.20
   4   2   2  510.85   23.60
   4   2   2  497.55   23.90
  -4   2  -2  479.85   20.60
   6  -2   2   13.60    5.70
  -6  -2  -2   21.40    8.00
   6  -2   2   18.40    7.00
   6   2   2   12.00    6.30
  -6   2  -2   22.20    5.80
  -6   2  -2   18.30    4.60
  -6   2  -2   23.70    6.80
   6   2   2   26.70    7.50
   6   2   2   13.10    5.70
  -8  -2  -2  111.19   17.90
   8  -2   2   58.69   12.30
   8  -2   2   79.79   16.00
  -8   2  -2   80.19   12.50
   8   2   2   49.90   13.20
   8   2   2   78.79   14.00
   8   2   2   66.19   14.20
  -7  -3   2    1.70    3.80
   7  -3  -2   11.00    6.10
   7  -3  -2    3.80    3.70
   7   3  -2    3.50    5.50
  -7   3   2   -5.30    4.30
   7   3  -2   -3.20    3.90
   7   3  -2   13.50    5.70
   5  -3  -2  728.53   32.50
  -5  -3   2  714.03   42.50
  -5  -3   2  810.52   36.30
   5  -3  -2  814.22   32.90
   5   3  -2  781.02   35.60
  -5   3   2  779.82   22.90
   5   3  -2  806.92   33.00
  -5   3   2  731.33   31.50
   5   3  -2  805.42   35.40
  -5   3   2  788.92   36.50
   3  -3  -2  278.17   15.70
  -3  -3   2  282.77   17.50
  -3  -3   2  268.07   16.80
   3  -3  -2  254.67   17.20
  -3  -3   2  293.67   14.80
  -3  -3   2  265.87   16.60
   3   3  -2  234.48   16.30
   3   3  -2  259.67   16.50
   3   3  -2  268.47   14.30
  -3   3   2  274.47   10.20
  -3   3   2  266.07   17.50
   1  -3  -2   16.40    4.60
  -1  -3   2   22.00    4.90
  -1  -3   2   17.90    2.80
  -1  -3   2   13.80    3.70
  -1  -3   2   18.60    4.30
   1  -3  -2   17.40    3.30
   1  -3  -2   20.60    3.80
   1  -3  -2   16.30    3.10
   1   3  -2   21.10    4.90
   1   3  -2   18.30    2.80
   1   3  -2   21.60    4.50
  -1   3   2   18.60    5.10
   1  -3   2 1054.29   22.20
  -1  -3  -2 1027.70   26.00
   1  -3   2 1050.19   21.90
  -1  -3  -2 1017.20   30.00
  -1  -3  -2  996.60   30.70
  -1  -3  -2 1066.69   30.20
   1   3   2 1022.10   30.00
  -1   3  -2 1024.20   22.70
   1   3   2 1049.49   31.80
   1   3   2 1046.50   26.00
   1   3   2 1083.29   30.60
  -1   3  -2 1072.89   30.50
   3  -3   2   19.00    4.60
  -3  -3  -2   29.40    7.10
  -3  -3  -2   26.30    5.50
   3  -3   2   26.90    5.70
  -3  -3  -2   38.70    8.50
   3  -3   2   23.10    6.30
  -3  -3  -2   19.80    5.80
   3   3   2   33.70    7.50
  -3   3  -2   32.40    7.40
   3   3   2   16.80    5.10
   3   3   2   18.40    5.40
   3   3   2   28.40    6.10
  -5  -3  -2  225.88   18.50
   5  -3   2  212.48   15.80
  -5  -3  -2  195.88   17.00
  -5  -3  -2  212.08   17.00
   5  -3   2  206.88   16.40
   5   3   2  218.48   17.60
   5   3   2  234.38   18.60
  -5   3  -2  215.88   16.80
   5   3   2  217.78   16.90
  -7  -3  -2    8.70    5.70
   7  -3   2   13.80    5.30
   7  -3   2    8.30    5.50
   7   3   2    5.50    4.00
   7   3   2    6.40    5.30
   7   3   2   12.70    5.70
   8  -4  -2   -4.20    6.00
  -8  -4   2    9.70    9.10
   8   4  -2    3.80    5.60
   8   4  -2    2.40   10.70
   8   4  -2   -2.60    5.50
   6  -4  -2   47.20   10.60
  -6  -4   2   65.29   13.20
   6  -4  -2   48.50   12.90
   6   4  -2   58.49   12.20
   6   4  -2   56.99   11.30
   6   4  -2   35.60    9.60
  -6   4   2   54.19   12.50
  -6   4   2   67.19    6.90
   4  -4  -2   42.50   10.30
   4  -4  -2   54.89    9.30
  -4  -4   2   64.19    9.90
  -4  -4   2   59.39   10.60
  -4  -4   2   62.49   11.50
  -4   4   2   55.79    5.10
   4   4  -2   51.69   10.00
   4   4  -2   54.99    9.30
  -4   4   2   67.69   11.80
   4   4  -2   47.10    9.40
  -2  -4   2  447.76   22.20
  -2  -4   2  439.86   16.00
  -2  -4   2  462.15   22.30
   2  -4  -2  440.06   13.90
  -2  -4   2  448.36   21.40
   2  -4  -2  409.46   17.40
   2  -4  -2  441.46   23.00
   2  -4  -2  405.36   13.60
   2   4  -2  449.46   22.10
   2   4  -2  423.96   16.00
  -2   4   2  431.96   15.10
   2   4  -2  425.66   22.30
  -2   4   2  464.45   23.60
   0  -4   2 1330.27   26.30
   0  -4  -2 1265.27   38.80
   0  -4   2 1321.17   34.10
   0  -4   2 1338.07   33.70
   0  -4  -2 1366.26   39.70
   0  -4  -2 1393.86   35.80
   0  -4  -2 1382.56   31.80
   0  -4   2 1317.47   38.20
   0   4   2 1364.06   40.90
   0   4  -2 1331.67   34.50
   0   4  -2 1336.77   38.00
   0   4   2 1344.27   35.80
   0   4  -2 1374.86   34.50
   0   4   2 1316.47   31.10
  -2  -4  -2  115.69   11.00
  -2  -4  -2  104.19   10.90
   2  -4   2  114.49   11.20
  -2  -4  -2  119.19   11.30
  -2  -4  -2  114.09    8.90
  -2   4  -2  126.79   11.60
   2   4   2  128.89   12.10
   2   4   2  113.99   11.10
   2   4   2  112.79    9.10
   2   4   2  124.49   11.40
  -4  -4  -2  123.99   13.60
   4  -4   2  125.89   11.80
   4  -4   2  128.79   12.30
  -4  -4  -2  114.19   13.00
  -4  -4  -2  118.69   13.20
   4  -4   2  135.79   14.80
  -4  -4  -2  104.39   11.20
   4   4   2  119.19   12.00
   4   4   2   99.29   12.60
   4   4   2   93.29   11.90
  -4   4  -2  134.69   14.30
  -6  -4  -2  306.17   24.50
   6  -4   2  356.86   36.40
   6  -4   2  298.37   20.60
   6   4   2  282.37   23.10
   6   4   2  287.37   23.30
   6   4   2  285.97   22.50
   8  -4   2    5.20   10.90
   8  -4   2    8.70    6.90
  -8  -4  -2   18.30    9.20
   8   4   2    8.90    8.40
   8   4   2   15.80    7.70
  -7  -5   2   87.29   17.80
   7  -5  -2   98.99   16.60
   7  -5  -2  109.39   17.90
   7   5  -2  117.69   17.50
   7   5  -2   90.59   17.60
   7   5  -2  112.99   26.00
  -7   5   2   76.49   17.00
  -5  -5   2   57.69   12.00
   5  -5  -2   54.09   10.40
   5  -5  -2   67.59   12.60
   5   5  -2   65.39   12.20
   5   5  -2   65.99   12.60
  -5   5   2   63.19   13.20
   5   5  -2   54.09   10.40
   3  -5  -2   77.49    8.50
  -3  -5   2   82.89    8.30
   3  -5  -2   58.69   10.70
  -3  -5   2   69.69   11.60
  -3  -5   2   68.09   11.50
   3  -5  -2   71.09   12.20
  -3  -5   2   72.89   12.00
  -3   5   2   85.29    6.60
  -3   5   2   65.79   12.30
   3   5  -2   83.49    8.30
   3   5  -2   82.89   12.50
   3   5  -2   97.89   14.90
   1  -5  -2  141.19   10.00
  -1  -5   2  140.99   12.10
  -1  -5   2  150.88    7.80
   1  -5  -2  140.39    9.60
  -1  -5   2  145.89   12.10
   1  -5  -2  150.88   10.30
  -1  -5   2  138.69   12.90
  -1   5   2  141.79   10.50
   1   5  -2  153.18   13.40
   1   5  -2  138.19   11.90
  -1   5   2  138.29   13.70
   1   5  -2  156.48    7.80
  -1  -5  -2  128.69   11.70
   1  -5   2  129.79    7.50
  -1  -5  -2  108.59   11.10
  -1  -5  -2  123.99   12.70
  -1  -5  -2  127.09    9.00
   1  -5   2  124.89    8.80
   1  -5   2  130.49    8.70
   1   5   2  133.19   11.90
  -1   5  -2  134.59   12.70
  -1   5  -2  129.99    9.30
   1   5   2  125.69    9.10
   3  -5   2    1.40    4.70
   3  -5   2   -0.10    2.70
  -3  -5  -2    3.20    4.00
  -3  -5  -2   -4.90    3.00
  -3  -5  -2   -0.60    2.50
  -3  -5  -2   -7.10    2.60
   3   5   2   -1.40    2.80
   3   5   2    2.80    2.60
  -3   5  -2   -1.20    3.00
   3   5   2    2.50    3.40
   3   5   2   -3.90    3.30
   5  -5   2  223.08   17.80
   5  -5   2  196.48   16.30
  -5  -5  -2  201.08   19.90
   5   5   2  223.98   20.10
  -5   5  -2  235.08   20.60
   5   5   2  222.18   17.60
   5   5   2  219.18   20.50
   7  -5   2   56.29   12.80
   7  -5   2   32.70    8.00
  -7  -5  -2   46.60   14.10
   7   5   2   50.39   14.90
   7   5   2   42.10   11.30
   7   5   2   18.70   11.90
   6  -6  -2   31.30    8.90
   6  -6  -2   16.00    7.60
  -6  -6   2   28.30    9.50
  -6   6   2    6.20    8.30
   6   6  -2   25.00    9.90
   6   6  -2    1.20    8.20
   6   6  -2   19.30    6.90
   4  -6  -2    4.30    4.50
  -4  -6   2   13.10    6.50
  -4  -6   2    9.40    4.50
   4  -6  -2    8.10    6.20
   4   6  -2    1.50    4.40
  -4   6   2    9.30    5.70
   4   6  -2    8.80    5.00
   4   6  -2   10.50    6.90
   2  -6  -2  241.08   20.20
   2  -6  -2  249.18   12.90
   2  -6  -2  264.87   13.10
   2  -6  -2  252.97   14.90
  -2  -6   2  253.77   18.80
  -2  -6   2  247.08   18.40
  -2   6   2  271.87   20.90
   2   6  -2  268.77   12.90
   2   6  -2  238.68   18.10
   0  -6   2  417.16   19.90
   0  -6  -2  413.66   21.00
   0  -6   2  414.66   20.30
   0  -6   2  376.86   22.90
   0  -6  -2  405.36   17.10
   0  -6  -2  408.86   24.60
   0  -6   2  424.66   13.60
   0  -6  -2  417.46   20.90
   0   6  -2  426.96   21.10
   0   6   2  390.46   21.00
   0   6  -2  424.66   24.10
   0   6   2  436.56   25.50
  -2  -6  -2   -0.90    2.50
  -2  -6  -2   -0.50    2.00
  -2  -6  -2   -1.20    4.20
   2  -6   2    7.30    4.60
   2  -6   2    7.80    2.80
  -2   6  -2   -1.90    2.90
   2   6   2    1.60    2.50
   2   6   2    4.20    3.90
   4  -6   2  116.29   12.20
  -4  -6  -2  129.19   15.50
   4  -6   2  136.99   13.90
  -4  -6  -2  126.89   15.80
  -4   6  -2  125.59   15.50
   4   6   2  107.19   16.60
   4   6   2  129.89   15.50
   4   6   2  152.38   14.00
   6  -6   2   64.49   12.40
   6  -6   2   69.19   12.50
  -6  -6  -2   82.09   17.50
  -6   6  -2   46.70   13.00
   6   6   2   60.79   15.30
   6   6   2   34.20   10.90
   6   6   2   72.59   13.40
  -5  -7   2   -1.30    6.10
   5  -7  -2    8.30    6.10
   5   7  -2   10.80    7.40
   5   7  -2    4.90    5.10
  -5   7   2    2.20    7.40
   5   7  -2   -5.50    7.00
  -3  -7   2   -3.40    3.10
  -3  -7   2   10.00    5.70
  -3  -7   2    7.30    5.20
   3  -7  -2    4.50    4.30
   3  -7  -2    3.30    4.40
   3   7  -2    8.20    5.10
   3   7  -2    8.40    4.20
  -3   7   2   10.10    6.70
  -1  -7   2    7.90    7.20
  -1  -7   2    4.20    2.60
  -1  -7   2   11.60    5.20
   1  -7  -2   11.80    4.30
   1  -7  -2    5.30    4.00
   1  -7  -2   12.80    4.50
   1   7  -2   -0.40    4.40
   1   7  -2    3.10    5.10
  -1   7   2    7.50    6.10
  -1  -7  -2   57.59   11.00
   1  -7   2   47.00    7.60
   1  -7   2   45.30    5.30
  -1  -7  -2   54.39    7.80
   1  -7   2   49.80    7.60
  -1  -7  -2   45.20    9.80
   1   7   2   39.80   10.10
   1   7   2   45.90    6.90
  -1   7  -2   26.80    8.40
  -3  -7  -2    3.20    4.90
  -3  -7  -2    5.10    4.80
   3  -7   2    0.90    3.90
  -3  -7  -2    6.20    7.60
   3  -7   2    0.90    3.60
   3  -7   2   -7.80    4.60
  -3   7  -2    2.50    5.40
   3   7   2   -0.60    3.90
   5  -7   2   17.60    7.30
   5  -7   2   18.70    6.50
  -5  -7  -2   15.00    7.40
   5   7   2   14.40    7.60
   5   7   2   16.30   15.00
   5   7   2    3.90    6.00
  -5   7  -2   22.40    9.60
  -4  -8   2    1.00    9.70
   4  -8  -2    9.30    6.40
   4  -8  -2    4.30    4.40
   4   8  -2    1.60    4.90
  -4   8   2   15.40    9.40
   4   8  -2   16.40    6.90
   2  -8  -2   43.80    7.00
  -2  -8   2   39.90    6.10
  -2  -8   2   33.30    9.10
   2  -8  -2   44.30    7.30
   2  -8  -2   29.90    8.00
  -2   8   2   28.50    9.60
   2   8  -2   14.90    6.80
   2   8  -2   51.79   12.00
   2   8  -2   38.20    5.40
   0  -8   2   -2.30    3.90
   0  -8  -2    6.10    4.60
   0  -8   2    0.10    3.80
   0  -8  -2    2.60    2.90
   0  -8  -2    8.30    3.10
   0   8   2   -3.10    4.70
   2  -8   2   -2.10    3.10
  -2  -8  -2    6.40    4.70
  -2  -8  -2    0.50    4.60
  -2  -8  -2   13.40    6.80
   2  -8   2    6.30    3.70
  -2   8  -2   17.00    6.50
   2   8   2    4.40    5.40
  -4  -8  -2   34.60   10.00
   4  -8   2   61.49   10.40
   4  -8   2   57.69   12.30
   4  -8   2   47.40   13.10
   4   8   2   59.09   10.40
  -4   8  -2   67.09   14.50
  -3  -9   2  -10.20    5.10
   3  -9  -2   -8.70    4.20
   3  -9  -2   -0.10    5.60
   3   9  -2    7.20    4.50
   3   9  -2   -4.90    7.40
   1  -9  -2   73.79   11.50
   1  -9  -2   51.99   10.10
   1  -9  -2   70.89    9.20
  -1  -9   2   53.89   11.50
  -1  -9   2   49.70   12.00
   1   9  -2   70.79   14.80
  -1   9   2   53.49   13.80
  -1  -9  -2   53.79   13.00
   1  -9   2   40.40    7.90
  -1  -9  -2   70.59    8.70
  -1  -9  -2   47.20   10.60
   1  -9   2   38.90    8.10
  -1   9  -2   28.80   10.80
   1   9   2   25.70   11.20
  -3  -9  -2    1.60    6.10
   3  -9   2   -8.20    5.00
   3  -9   2    9.40    4.70
   3   9   2   13.90    9.30
   3   9   2   15.40    6.30
  -3   9  -2    8.00    7.40
   8   0  -3   -0.20    3.70
   8   0  -3   -4.60    5.00
   8   0  -3    4.30    6.50
  -8   0   3   -1.10    5.60
   6   0  -3    7.90    3.60
   6   0  -3   -2.90    2.50
  -6   0   3    1.00    3.40
   6   0  -3   -1.90    4.10
   4   0  -3    2.60    2.50
  -4   0   3    6.30    3.10
   4   0  -3    0.80    2.80
   4   0  -3   -1.50    2.10
  -4   0   3    4.00    2.70
   4   0  -3    1.60    2.70
   2   0  -3    0.10    1.60
   2   0  -3   -0.10    1.70
  -2   0   3    1.80    1.50
   2   0  -3    1.70    1.40
   0   0   3    0.50    0.80
   0   0  -3    0.00    0.50
   2   0   3   -0.40    1.20
  -2   0  -3    0.70    1.30
  -2   0  -3    1.30    1.70
  -2   0  -3   -0.70    1.50
   2   0   3   -0.10    1.10
  -2   0  -3    0.30    1.30
   2   0   3    1.00    1.50
   2   0   3    1.30    1.70
   4   0   3    2.30    2.80
   4   0   3    0.70    1.60
  -4   0  -3   -2.90    1.50
  -4   0  -3    1.50    2.00
  -4   0  -3    1.10    2.00
   4   0   3    3.80    2.50
  -4   0  -3   -2.10    1.80
   4   0   3   -3.20    2.30
   6   0   3   11.20    4.60
  -6   0  -3    1.30    3.80
   6   0   3    1.90    2.70
   6   0   3    1.10    2.90
  -6   0  -3   -6.90    2.90
   8   0   3   16.80    6.00
   8   0   3    9.00    5.80
   9  -1  -3  129.69   20.60
   9  -1  -3  139.29   23.10
   9  -1  -3  137.89   15.80
  -9  -1   3  105.59   18.50
   9   1  -3  139.69   21.10
   9   1  -3  165.88   25.20
   9   1  -3  167.18   18.30
  -7  -1   3    8.10    6.60
   7  -1  -3   13.20    5.70
   7  -1  -3    3.00    5.70
   7  -1  -3    9.20    5.60
  -7   1   3   10.80    5.60
   7   1  -3   13.00    5.60
   7   1  -3   23.50    7.30
   7   1  -3   14.50    6.30
  -5  -1   3  201.78   15.50
   5  -1  -3  213.68   25.80
   5  -1  -3  174.68   14.70
   5  -1  -3  190.78   15.90
   5  -1  -3  192.08   12.60
  -5  -1   3  176.08   14.80
   5   1  -3  181.08   14.10
   5   1  -3  189.28   15.60
  -5   1   3  246.48   26.30
   5   1  -3  168.98   14.70
   5   1  -3  182.88   17.70
  -5   1   3  207.08   13.10
   3  -1  -3 1714.03   44.40
   3  -1  -3 1690.73   36.90
  -3  -1   3 1739.53   42.10
  -3  -1   3 1734.03   42.90
   3  -1  -3 1710.63   42.00
   3   1  -3 1684.53   43.00
  -3   1   3 1759.62   37.10
  -3   1   3 1740.33   44.50
   3   1  -3 1751.92   42.40
   3   1  -3 1698.13   41.70
  -3   1   3 1621.84   41.20
  -1  -1   3  390.86   12.90
   1  -1  -3  413.46   13.80
  -1  -1   3  398.96   12.70
   1  -1  -3  383.96   10.80
   1  -1  -3  396.86   12.70
  -1   1   3  411.56   11.10
   1   1  -3  397.86   12.90
  -1   1   3  385.86   13.40
   1   1  -3  395.56   10.90
   1   1  -3  375.56   12.70
   1  -1   3  738.33   17.40
  -1  -1  -3  725.33   18.90
   1  -1   3  754.02   18.90
  -1  -1  -3  750.32   19.60
   1  -1   3  779.12   15.90
  -1  -1  -3  761.42   19.70
  -1  -1  -3  730.13   19.00
  -1   1  -3  731.43   17.20
   1   1   3  786.82   20.00
  -1   1  -3  759.22   18.80
   1   1   3  744.63   19.10
   1   1   3  751.32   19.20
   3  -1   3 1669.03   32.90
   3  -1   3 1578.44   40.90
   3  -1   3 1636.94   38.20
  -3  -1  -3 1615.74   40.20
   3  -1   3 1637.54   43.10
  -3  -1  -3 1665.33   40.80
  -3  -1  -3 1591.44   41.40
  -3  -1  -3 1581.24   40.40
   3   1   3 1599.64   39.90
   3   1   3 1623.64   41.90
   3   1   3 1659.03   40.80
  -3   1  -3 1674.13   42.10
  -3   1  -3 1615.74   40.90
   3   1   3 1668.73   41.10
  -3   1  -3 1627.34   33.70
   5  -1   3   81.89   12.30
   5  -1   3   91.19    8.00
   5  -1   3   73.09   12.30
  -5  -1  -3   84.89   12.70
  -5  -1  -3   79.79    9.90
  -5  -1  -3   89.89   10.20
   5  -1   3   79.79    9.30
   5   1   3   80.89   12.60
   5   1   3   83.09    9.50
  -5   1  -3   78.19    8.00
  -5   1  -3   68.69    8.70
   5   1   3   75.69   11.80
  -5   1  -3   83.19    8.00
   7  -1   3    6.40    5.20
  -7  -1  -3    5.90    5.00
   7  -1   3    9.00    5.20
   7   1   3    9.30    3.50
  -7   1  -3    5.90    4.10
   7   1   3    0.00    3.40
   7   1   3    1.60    3.40
   8  -2  -3    8.10    8.00
   8  -2  -3   13.60    5.00
  -8  -2   3   20.30    9.00
   8  -2  -3    7.50    6.80
  -8   2   3    0.30    6.00
   8   2  -3   -0.50    5.60
   8   2  -3    1.20    7.00
   8   2  -3   10.30    6.70
   6  -2  -3  109.99    9.50
  -6  -2   3  100.99   15.10
   6  -2  -3  100.19   15.10
   6  -2  -3   99.79   12.20
   6   2  -3  114.39   13.10
   6   2  -3  106.09   12.60
   6   2  -3  115.49   13.90
  -6   2   3  106.49   10.10
  -4  -2   3   47.60    8.70
   4  -2  -3   46.50    5.20
   4  -2  -3   47.60    8.60
   4  -2  -3   56.29    9.00
   4  -2  -3   49.50    9.80
  -4  -2   3   41.40    7.60
  -4   2   3   52.59    9.80
   4   2  -3   44.80    8.50
   4   2  -3   40.90    7.80
  -4   2   3   54.39    5.50
  -4   2   3   50.69    8.30
   4   2  -3   52.79    8.70
  -2  -2   3   52.59    6.50
   2  -2  -3   45.60    5.50
  -2  -2   3   54.69    5.10
  -2  -2   3   51.19    6.10
   2  -2  -3   49.80    6.20
   2  -2  -3   52.99    4.10
   2   2  -3   50.79    7.40
   2   2  -3   52.29    5.00
  -2   2   3   57.79    6.80
  -2   2   3   51.79    4.20
   2   2  -3   52.59    6.40
   0  -2  -3 3423.56   60.89
   0  -2  -3 3448.35   60.79
   0  -2   3 3409.86   60.69
   0  -2   3 3405.36   58.09
   0  -2   3 3347.57   58.49
   0  -2  -3 3373.56   59.29
   0   2   3 3440.66   59.29
   0   2  -3 3406.56   59.39
   0   2   3 3357.36   60.99
   0   2  -3 3319.17   58.19
  -2  -2  -3  107.89    9.70
   2  -2   3  124.09   11.10
  -2  -2  -3  117.09    9.40
  -2  -2  -3  118.99    9.50
  -2  -2  -3  113.99    9.10
   2  -2   3  140.59    8.10
   2  -2   3  123.69    8.10
  -2   2  -3  125.09    9.40
   2   2   3  123.89    9.40
   2   2   3  127.89    9.60
   2   2   3  127.09    9.00
   4  -2   3  160.58   13.00
  -4  -2  -3  178.38   13.80
   4  -2   3  181.08   14.80
  -4  -2  -3  155.48   13.20
  -4  -2  -3  166.78   13.40
   4  -2   3  164.88   13.90
  -4  -2  -3  181.48   13.70
   4   2   3  199.58   14.20
   4   2   3  169.88   14.00
  -4   2  -3  184.18   12.20
   4   2   3  159.18   13.60
  -4   2  -3  177.18    8.30
  -6  -2  -3   21.80    7.50
   6  -2   3   44.80    8.70
   6  -2   3   35.70    9.90
  -6   2  -3   41.50    8.60
   6   2   3   26.00    9.20
   6   2   3   19.60    6.20
   6   2   3   18.50    6.60
   8  -2   3   27.80    8.60
   8  -2   3   30.40    9.60
  -8  -2  -3   32.10   10.50
   8   2   3   37.00   10.40
   8   2   3   50.59   13.60
   8   2   3   31.40    8.80
  -8   2  -3   36.20    9.00
   7  -3  -3    0.70    3.90
  -7  -3   3   10.20    6.30
   7  -3  -3    0.30    4.40
  -7   3   3    9.70    4.50
   7   3  -3    9.10    6.10
   7   3  -3    7.50    5.30
   7   3  -3    9.80    5.80
  -5  -3   3    4.50    5.30
   5  -3  -3    6.90    3.50
   5  -3  -3    8.10    4.80
  -5  -3   3    3.50    3.60
   5  -3  -3   10.70    3.00
  -5   3   3   12.40    4.80
   5   3  -3    9.30    5.40
   5   3  -3   10.10    5.10
  -5   3   3    7.90    3.00
  -5   3   3   15.90    6.30
   5   3  -3   10.20    4.70
  -3  -3   3  473.85   23.30
  -3  -3   3  462.25   19.00
   3  -3  -3  448.26   23.30
  -3  -3   3  451.25   22.10
   3  -3  -3  478.05   14.00
  -3  -3   3  490.55   22.70
   3  -3  -3  493.55   21.60
   3   3  -3  453.65   18.80
  -3   3   3  501.65   24.00
  -3   3   3  462.25   14.80
   3   3  -3  486.85   22.90
   3   3  -3  469.15   23.10
  -1  -3   3  396.46   16.40
   1  -3  -3  400.46   13.90
   1  -3  -3  366.36   18.10
  -1  -3   3  386.76   10.90
   1  -3  -3  407.66   14.90
  -1  -3   3  393.36   17.40
  -1  -3   3  370.06   16.50
   1  -3  -3  402.66   14.00
   1   3  -3  403.86   17.80
   1   3  -3  411.76   16.90
  -1   3   3  380.36   14.10
   1   3  -3  384.26   10.90
  -1   3   3  390.06   18.40
   1  -3   3   37.60    3.30
  -1  -3  -3   42.40    7.00
   1  -3   3   43.90    5.70
  -1  -3  -3   45.60    7.30
   1  -3   3   40.40    3.40
  -1  -3  -3   32.30    6.00
  -1  -3  -3   39.60    4.90
   1   3   3   28.50    5.10
   1   3   3   26.50    5.10
   1   3   3   35.30    5.30
  -1   3  -3   39.00    6.30
   3  -3   3  265.57   14.40
  -3  -3  -3  256.87   16.70
  -3  -3  -3  246.38   14.70
  -3  -3  -3  232.68   15.70
   3  -3   3  244.38   13.60
  -3  -3  -3  217.18   15.40
   3  -3   3  260.37   16.90
   3   3   3  237.18   15.90
  -3   3  -3  231.68   15.60
   3   3   3  255.57   16.60
   3   3   3  223.28   16.80
   3   3   3  233.08   15.70
   5  -3   3   44.60    8.50
  -5  -3  -3   57.49   10.90
   5  -3   3   55.79   10.10
  -5  -3  -3   49.60   10.00
  -5  -3  -3   33.70    7.90
   5   3   3   43.20    9.60
   5   3   3   55.79   10.90
   5   3   3   55.09   10.90
  -5   3  -3   37.40    7.50
   7  -3   3    7.10    6.10
   7  -3   3    6.90    4.60
  -7  -3  -3   -3.20    4.90
   7   3   3    6.00    5.10
   7   3   3    3.70    4.20
   7   3   3    8.90    4.90
   8  -4  -3   48.70   15.50
  -8  -4   3   32.70   12.00
   8  -4  -3   56.39   22.80
   8   4  -3   30.10   12.30
   8   4  -3   56.59   13.50
   8   4  -3   60.39   14.60
  -6  -4   3   60.29   13.90
   6  -4  -3   64.09   12.00
   6  -4  -3   61.89   12.30
   6   4  -3   59.89   13.30
   6   4  -3   51.19   10.80
   6   4  -3   53.79   11.70
  -6   4   3   59.19    7.00
  -6   4   3   34.00    9.90
   4  -4  -3   64.99   11.90
  -4  -4   3   67.69   11.60
  -4  -4   3   70.09   10.50
   4  -4  -3   76.89   12.20
  -4  -4   3   99.69   12.00
   4   4  -3   80.19    9.30
  -4   4   3   76.79   13.00
   4   4  -3   61.19   11.20
  -4   4   3   82.89    6.40
   4   4  -3   84.09   13.70
   2  -4  -3   34.40    4.20
  -2  -4   3   26.20    4.40
   2  -4  -3   30.00    5.70
  -2  -4   3   32.80    7.00
   2  -4  -3   29.30    7.00
  -2  -4   3   43.20    8.30
   2  -4  -3   31.70    4.60
  -2  -4   3   25.10    6.00
  -2   4   3   31.50    5.10
  -2   4   3   33.70    8.00
   2   4  -3   28.60    4.70
   2   4  -3   26.20    6.30
   2   4  -3   21.60    6.10
   0  -4  -3   38.50    7.70
   0  -4   3   44.60    7.60
   0  -4   3   44.80    5.50
   0  -4   3   45.00    5.50
   0  -4  -3   43.20    5.20
   0  -4   3   44.70    3.10
   0  -4  -3   35.10    6.20
   0   4   3   44.50    5.10
   0   4   3   51.99   13.40
   0   4   3   52.19    8.20
   0   4  -3   43.70    7.20
   0   4  -3   53.19    6.20
  -2  -4  -3  320.17   18.80
   2  -4   3  292.37   13.20
  -2  -4  -3  299.87   17.70
  -2  -4  -3  294.07   18.30
  -2  -4  -3  299.17   15.20
   2  -4   3  295.97   17.70
   2   4   3  318.57   15.60
   2   4   3  303.47   18.20
   2   4   3  290.27   18.30
  -2   4  -3  303.77   17.70
  -4  -4  -3  341.07   20.10
  -4  -4  -3  389.36   23.90
   4  -4   3  329.47   19.20
   4  -4   3  356.26   19.20
   4  -4   3  338.17   22.60
  -4  -4  -3  335.47   22.50
  -4  -4  -3  372.16   23.00
   4   4   3  332.37   22.10
  -4   4  -3  344.37   22.20
   4   4   3  329.77   20.00
   6  -4   3   32.90    8.00
  -6  -4  -3   24.60    8.50
   6   4   3   46.00   10.90
   6   4   3   35.80    8.80
   6   4   3   23.50    8.60
  -8  -4  -3    4.90    8.20
   8  -4   3    7.70    6.50
   8   4   3   37.20   11.60
  -7  -5   3   55.29   15.40
   7  -5  -3   61.59   13.10
   7  -5  -3   34.60   10.80
   7   5  -3   39.70   13.20
  -7   5   3   21.30   11.00
   7   5  -3   57.89   15.90
   7   5  -3   35.80    9.40
  -5  -5   3  144.99   17.10
   5  -5  -3  121.49   14.00
   5  -5  -3  148.69   15.00
   5   5  -3  132.29   16.30
   5   5  -3  137.89   15.80
   5   5  -3  124.59   13.10
  -5   5   3  135.99   17.10
  -3  -5   3   99.19    8.70
   3  -5  -3  108.09   13.30
  -3  -5   3   87.19   13.70
  -3  -5   3   96.59   11.90
   3  -5  -3  111.19   10.80
   3  -5  -3  107.59   11.70
  -3  -5   3   99.39   14.20
  -3   5   3   76.99    7.00
   3   5  -3  107.19   12.70
   3   5  -3   97.19    8.80
   3   5  -3  101.69   14.90
  -3   5   3   99.79   12.60
  -1  -5   3  828.22   30.50
  -1  -5   3  832.12   32.80
   1  -5  -3  837.82   26.20
   1  -5  -3  849.61   26.80
  -1  -5   3  866.71   20.00
   1  -5  -3  859.11   27.20
  -1  -5   3  758.92   37.30
  -1   5   3  891.11   35.40
   1   5  -3  833.42   30.30
   1   5  -3  828.42   19.40
  -1   5   3  805.62   27.30
   1   5  -3  849.32   31.90
   1  -5   3  882.91   32.60
   1  -5   3  877.91   24.80
  -1  -5  -3  881.91   27.10
  -1  -5  -3  962.80   38.50
   1  -5   3  933.71   25.80
   1  -5   3  900.71   22.00
  -1  -5  -3  897.81   32.50
  -1  -5  -3  881.81   32.50
   1   5   3  893.41   27.10
  -1   5  -3  881.91   33.20
   1   5   3  926.31   35.10
  -1   5  -3  904.51   26.30
  -3  -5  -3   29.80    9.00
  -3  -5  -3   24.80    6.40
  -3  -5  -3   27.20    7.40
   3  -5   3   18.50    5.70
   3  -5   3   22.40    5.50
  -3  -5  -3   23.00    7.40
   3   5   3   30.00    6.40
   3   5   3   10.30    5.70
   3   5   3   22.60    6.50
  -3   5  -3   21.70    7.30
   3   5   3   22.40    6.10
   5  -5   3   38.50    8.90
   5  -5   3   27.50    7.70
  -5  -5  -3   35.20    9.80
   5   5   3   39.80   10.60
  -5   5  -3   29.80    9.20
   5   5   3   20.10    7.20
   5   5   3   58.99   11.20
  -7  -5  -3   80.49   16.70
   7  -5   3   64.99   13.80
   7  -5   3   82.79   13.80
   7   5   3   66.09   14.70
   7   5   3   51.99   17.20
   6  -6  -3    1.90    5.80
  -6  -6   3    3.10    7.00
   6  -6  -3   -3.20    4.30
  -6   6   3    6.40    6.80
   6   6  -3   -6.60    5.70
   6   6  -3   15.40    7.90
   4  -6  -3    5.90    4.90
  -4  -6   3   -2.70    3.40
   4   6  -3  -10.20    3.40
   4   6  -3   -7.80    2.90
  -4   6   3    5.20    5.50
   4   6  -3    0.00    4.50
  -2  -6   3   51.09    9.80
   2  -6  -3   47.50    8.00
  -2  -6   3   41.30    9.20
   2  -6  -3   42.90    6.50
   2  -6  -3   47.10    6.80
  -2  -6   3   52.89    5.70
   2   6  -3   47.40    6.30
   2   6  -3   48.10    9.20
  -2   6   3   49.40   11.20
  -2   6   3   44.30    7.50
   0  -6  -3   95.09   10.20
   0  -6   3  121.99   17.80
   0  -6  -3  117.29   13.30
   0  -6  -3  112.59    9.10
   0  -6   3   99.49    9.60
   0  -6  -3  101.49   12.00
   0  -6   3  106.89    5.70
   0  -6   3  113.29   10.50
   0   6   3  102.19   12.80
   0   6  -3  111.39   10.70
   0   6   3   80.39   11.40
   0   6  -3  101.79   12.00
   2  -6   3   30.90    5.10
   2  -6   3   25.20    8.10
   2  -6   3   30.40    5.20
  -2  -6  -3   18.30    5.00
  -2  -6  -3   17.60    6.10
  -2  -6  -3   16.10    6.10
  -2   6  -3   29.50    7.90
   2   6   3   26.80    5.80
  -4  -6  -3  153.98   14.50
   4  -6   3  130.29   13.30
   4  -6   3  131.59   12.40
  -4  -6  -3  151.98   16.50
   4   6   3  157.28   17.70
   4   6   3  128.39   16.10
   4   6   3  152.38   13.90
  -4   6  -3  161.08   20.80
   6  -6   3   29.40    8.10
   6  -6   3   15.30    7.30
  -6  -6  -3   20.60    9.30
   6   6   3   32.30   10.00
   6   6   3   29.90    9.80
  -6   6  -3    7.70    7.40
   6   6   3   15.00   10.60
   5  -7  -3   12.20    8.00
  -5  -7   3   31.30   12.50
   5  -7  -3   24.90    8.30
   5   7  -3   49.00   12.50
  -5   7   3   30.50   11.30
   5   7  -3   38.40   12.50
   5   7  -3   29.80    7.70
  -3  -7   3    6.00    3.20
  -3  -7   3    2.40    3.70
  -3  -7   3   -7.10    4.30
   3  -7  -3   -2.80    3.30
   3   7  -3    3.90    3.80
   3   7  -3   -3.50    2.80
  -3   7   3    5.90    4.60
  -3   7   3    9.90    5.20
  -1  -7   3  725.93   48.70
  -1  -7   3  718.63   17.60
   1  -7  -3  706.63   28.20
  -1  -7   3  741.53   31.80
   1  -7  -3  694.33   25.80
   1  -7  -3  707.63   27.90
   1   7  -3  694.33   38.10
   1   7  -3  687.43   33.50
  -1   7   3  739.73   37.40
  -1  -7  -3   54.99    8.00
   1  -7   3   39.30    4.60
  -1  -7  -3   57.19   11.80
   1  -7   3   53.89    5.10
   1  -7   3   54.69    8.00
   1  -7   3   52.99    7.80
  -1  -7  -3   59.79   11.50
  -1   7  -3   51.19   11.10
   1   7   3   51.89    8.60
   1   7   3   29.60    9.20
   3  -7   3    7.30    3.50
   3  -7   3    0.70    3.20
  -3  -7  -3   -5.10    4.80
   3  -7   3    0.80    3.60
  -3  -7  -3   -0.10    4.60
  -3   7  -3   -0.60    4.50
   3   7   3   10.40    4.20
  -5  -7  -3  134.19   21.60
   5  -7   3  173.18   15.50
   5  -7   3  174.38   17.90
  -5   7  -3  117.19   19.80
   4  -8  -3   -4.00    4.70
   4   8  -3    8.60    6.00
   4   8  -3    5.50    5.10
  -4   8   3  -16.40    6.00
  -2  -8   3   21.10    8.00
   2  -8  -3   17.40    5.30
   2  -8  -3   11.60    4.70
   2  -8  -3   19.80    7.50
  -2  -8   3   12.00    6.30
   2   8  -3   14.10    7.00
  -2   8   3   11.60    7.40
   0  -8   3    6.80    5.00
   0  -8  -3    7.10    5.10
   0  -8   3    0.00    4.70
   0  -8  -3   13.40    4.20
   0  -8  -3   18.70    6.00
   0   8   3   17.80    7.90
   0   8  -3   14.90    6.90
  -2  -8  -3   -6.60    3.20
  -2  -8  -3   -6.90    3.90
   2  -8   3    9.10    3.30
  -2  -8  -3   -2.80    6.00
  -2   8  -3   -2.70    4.20
   2   8   3    4.40    4.10
   2   8   3    6.70    5.50
   4  -8   3   28.20    7.70
   4  -8   3   20.80    7.60
   4  -8   3   20.20    8.00
  -4  -8  -3   19.30   12.80
   4   8   3   31.50    8.10
  -4   8  -3   39.30   11.40
  -3  -9   3   -4.20    4.80
   3   9  -3   -2.50    7.10
  -3   9   3    1.80   14.00
   1  -9  -3   94.49   10.90
   1  -9  -3  117.99   13.00
   1  -9  -3  101.09   12.30
  -1  -9   3   97.69   15.40
  -1  -9   3   73.39   12.10
  -1   9   3   73.79   17.20
   1   9  -3  109.19   17.00
  -1  -9  -3   63.79    8.90
   1  -9   3   41.60    8.30
   1  -9   3   49.80    9.00
  -1  -9  -3   55.79   12.00
  -1  -9  -3   56.19   13.40
   1   9   3   60.09   14.70
  -1   9  -3   56.09   13.00
  -3  -9  -3   10.80    7.90
   3  -9   3   11.30    7.20
   3  -9   3    6.10    5.10
  -3   9  -3   -0.40    8.10
   3   9   3   11.00    6.60
   8   0  -4  105.99   12.90
   8   0  -4   74.79   16.10
   8   0  -4   52.19   12.70
  -8   0   4   69.09   13.70
   6   0  -4  129.59   14.40
   6   0  -4  128.99   12.10
  -6   0   4  117.99   12.70
   6   0  -4  165.98   16.20
   4   0  -4    2.20    2.70
  -4   0   4    4.20    3.00
   4   0  -4    2.00    2.50
   4   0  -4    4.50    3.20
   4   0  -4    5.20    3.20
  -4   0   4    5.50    2.70
  -2   0   4 5859.31   99.69
   2   0  -4 5912.11  100.29
   2   0  -4 5886.91   99.79
  -2   0   4 6015.80   99.99
   2   0  -4 5771.82   98.29
  -2   0   4 5871.71   98.09
   0   0   4    3.30    1.10
   0   0   4    3.50    1.20
   0   0  -4    3.80    1.00
   0   0  -4    1.70    0.80
   0   0  -4    9.90    1.80
  -2   0  -4 1008.40   26.70
   2   0   4  968.60   26.50
   2   0   4 1010.50   24.00
  -2   0  -4  985.40   23.50
  -2   0  -4 1001.30   24.10
  -2   0  -4 1011.00   23.70
   2   0   4 1009.80   23.80
   4   0   4  102.99    8.60
  -4   0  -4   95.79    8.80
  -4   0  -4   87.39    9.60
  -4   0  -4   79.39    8.00
  -4   0  -4   88.49    8.20
   4   0   4  109.79   11.00
   4   0   4   99.09    9.30
   6   0   4    1.90    3.80
  -6   0  -4    7.60    4.30
   6   0   4    5.80    3.30
  -6   0  -4    6.90    4.90
   6   0   4    3.50    3.70
   8   0   4   98.39   16.80
   8   0   4   50.09   12.60
   9  -1  -4   31.10   11.70
   9  -1  -4   20.10    9.20
   9  -1  -4    8.10    9.70
  -9  -1   4   43.10   11.90
   9   1  -4   14.70    8.50
   9   1  -4   30.50   12.00
  -9   1   4   33.40   11.80
   9   1  -4    8.30    9.80
   7  -1  -4    3.10    3.80
  -7  -1   4   12.70    5.50
   7  -1  -4    2.90    4.80
   7   1  -4   14.00    5.50
  -7   1   4    2.70    4.30
   7   1  -4    0.00    3.90
   7   1  -4   -4.90    3.70
   5  -1  -4   18.00    5.90
   5  -1  -4   10.90    3.70
   5  -1  -4    4.60    3.90
  -5  -1   4    4.70    3.90
   5  -1  -4    5.60    4.60
   5   1  -4    9.60    4.70
   5   1  -4    8.60    4.10
   5   1  -4    5.80    3.80
   5   1  -4    6.80    3.90
  -5   1   4    8.30    3.60
  -5   1   4    7.80    4.10
  -3  -1   4   55.49    6.80
   3  -1  -4   57.79    6.80
   3  -1  -4   50.79    6.70
  -3  -1   4   53.99    6.60
   3  -1  -4   52.19    5.30
   3   1  -4   49.00    7.80
   3   1  -4   58.49    6.80
  -3   1   4   55.29    7.10
   3   1  -4   54.09    6.60
  -3   1   4   44.40    5.20
  -3   1   4   37.20    6.00
   1  -1  -4    2.40    1.60
  -1  -1   4    3.10    1.80
  -1  -1   4    2.30    1.70
   1  -1  -4    4.80    1.80
   1  -1  -4    4.10    1.90
   1  -1  -4    9.20    2.40
  -1   1   4    3.80    1.70
  -1   1   4    2.20    2.00
   1   1  -4    4.20    1.80
  -1   1   4    1.80    1.20
   1   1  -4    3.70    1.90
   1  -1   4 3145.39   55.19
   1  -1   4 3216.48   49.50
   1  -1   4 3136.69   53.79
  -1  -1  -4 3164.98   56.89
  -1  -1  -4 3142.39   55.69
   1  -1   4 3119.09   50.19
  -1  -1  -4 3129.49   56.89
   1   1   4 3139.39   55.89
   1   1   4 3178.38   56.99
   1   1   4 3018.50   56.79
  -1   1  -4 3150.18   53.59
  -1   1  -4 3123.89   54.89
  -3  -1  -4   16.40    4.10
  -3  -1  -4    9.00    3.30
   3  -1   4   11.50    3.20
  -3  -1  -4   21.60    4.90
  -3  -1  -4   11.90    4.10
   3  -1   4   16.50    4.60
   3  -1   4   13.90    4.40
   3   1   4   15.60    4.30
   3   1   4   17.10    4.30
   3   1   4   15.90    4.10
  -3   1  -4   20.10    4.20
  -3   1  -4   19.60    3.50
  -3   1  -4   12.50    4.20
   3   1   4   15.30    4.60
  -3   1  -4   16.30    3.30
   5  -1   4   59.69   11.50
  -5  -1  -4   45.20   10.10
   5  -1   4   48.10    8.70
  -5  -1  -4   42.10    9.10
   5  -1   4   52.49   10.20
  -5  -1  -4   37.70    8.00
  -5  -1  -4   39.50    8.00
  -5   1  -4   46.50    7.20
   5   1   4   31.10    7.30
  -5   1  -4   52.09    9.20
  -5   1  -4   44.80    7.20
   5   1   4   48.70    9.30
   5   1   4   43.60    7.70
   7  -1   4    4.70    4.50
  -7  -1  -4   12.60    6.40
   7  -1   4   12.60    6.20
   7   1   4    9.60    4.30
   7   1   4    1.20    3.40
   7   1   4    5.10    5.20
  -7   1  -4   10.60    5.00
   8  -2  -4   60.09   12.30
  -8  -2   4   37.30   12.30
   8  -2  -4   39.00   12.20
   8  -2  -4   38.50    8.10
  -8   2   4   26.30    9.50
   8   2  -4   32.20   10.10
   8   2  -4   68.09   14.80
   8   2  -4   43.80   12.30
   6  -2  -4   76.49   12.90
   6  -2  -4  119.49   17.30
   6  -2  -4   78.99    8.30
  -6  -2   4   86.69   14.90
   6   2  -4   82.49   13.40
  -6   2   4   78.39    9.20
   6   2  -4   77.69   13.80
   6   2  -4   75.89   12.80
   4  -2  -4  214.78   16.50
   4  -2  -4  208.68   14.50
  -4  -2   4  203.98   15.80
  -4  -2   4  211.68   15.10
  -4  -2   4  220.58   15.30
  -4   2   4  208.98   16.00
   4   2  -4  196.68   14.00
   4   2  -4  216.98   15.30
  -4   2   4  207.78   11.00
  -4   2   4  191.28   13.80
   4   2  -4  197.78   15.20
   2  -2  -4    2.30    2.00
  -2  -2   4    9.50    3.30
   2  -2  -4    7.40    3.00
   2  -2  -4    2.40    1.50
   2   2  -4    2.10    1.80
  -2   2   4    4.80    2.70
   2   2  -4    3.10    2.20
   2   2  -4    1.20    1.70
   0  -2  -4 4381.66   77.19
   0  -2   4 4505.65   74.09
   0  -2  -4 4434.16   76.29
   0  -2   4 4494.15   75.79
   0   2   4 4383.66   77.39
   0   2   4 4490.75   76.19
   0   2  -4 4500.05   74.39
   0   2  -4 4444.26   73.89
   2  -2   4  900.71   24.40
  -2  -2  -4  870.21   26.10
  -2  -2  -4  879.51   27.10
   2  -2   4  857.51   22.40
  -2  -2  -4  915.01   28.20
  -2  -2  -4  869.31   27.60
   2   2   4  905.41   32.50
  -2   2  -4  860.51   26.50
   2   2   4  867.21   27.30
   2   2   4  884.71   27.40
   2   2   4  847.82   26.00
  -4  -2  -4  108.69   11.00
   4  -2   4  121.19   12.40
  -4  -2  -4  113.49   11.10
  -4  -2  -4  116.29   11.30
   4  -2   4  122.59    9.90
   4  -2   4  118.09   11.10
  -4  -2  -4  112.49   11.00
  -4   2  -4  111.29    7.90
   4   2   4  125.49   11.40
   4   2   4  108.19   11.10
   4   2   4  120.49   11.80
   4   2   4  112.29   11.20
  -4   2  -4  110.19    6.60
  -4   2  -4  113.29    9.40
   6  -2   4   11.90    4.70
   6  -2   4    5.80    4.90
  -6  -2  -4    7.20    4.80
   6   2   4   15.40    5.80
  -6   2  -4    9.40    4.60
  -6   2  -4    5.90    4.70
   6   2   4    1.80    4.40
   8  -2   4    8.40    7.60
  -8  -2  -4   -0.70    5.90
   8  -2   4    4.60    6.00
  -8   2  -4    9.60    6.40
   8   2   4   10.00    6.80
   7  -3  -4   10.30    4.50
  -7  -3   4   -2.00    6.00
   7  -3  -4    2.90    5.10
   7  -3  -4    3.00    2.60
   7   3  -4   -9.70    4.70
   7   3  -4    9.00    4.70
   7   3  -4   12.10    6.70
  -7   3   4    4.00    3.50
   5  -3  -4  133.89    8.70
  -5  -3   4   88.39   17.00
   5  -3  -4  127.59   13.40
   5  -3  -4  126.89   12.80
  -5  -3   4  134.89   14.80
   5   3  -4  125.69   13.30
   5   3  -4  143.59   14.80
  -5   3   4  123.99    9.30
  -5   3   4  125.99   13.80
   5   3  -4  113.69   12.10
  -5   3   4  129.69   13.20
   3  -3  -4  574.34   16.70
  -3  -3   4  580.04   25.70
  -3  -3   4  536.85   24.20
  -3  -3   4  532.15   24.10
   3  -3  -4  588.84   24.10
   3  -3  -4  539.45   25.80
   3   3  -4  548.95   25.20
   3   3  -4  580.74   25.40
  -3   3   4  554.84   25.80
   3   3  -4  553.94   20.90
  -3   3   4  555.94   17.30
  -1  -3   4   37.10    6.00
   1  -3  -4   35.70    4.40
   1  -3  -4   43.50    7.90
   1  -3  -4   40.30    5.90
  -1  -3   4   33.60    5.70
  -1  -3   4   36.70    6.20
  -1  -3   4   33.30    2.80
   1   3  -4   30.40    5.60
   1   3  -4   41.80    3.10
  -1   3   4   33.80    5.20
  -1   3   4   30.60    6.30
   1   3  -4   27.90    4.90
  -1  -3  -4  793.92   25.90
  -1  -3  -4  819.52   26.70
   1  -3   4  808.52   18.30
   1  -3   4  823.32   18.10
   1  -3   4  811.62   18.50
   1  -3   4  817.92   25.30
  -1  -3  -4  821.62   23.70
   1   3   4  829.62   26.90
   1   3   4  786.22   23.50
  -1   3  -4  830.22   25.20
   3  -3   4  257.37   16.80
  -3  -3  -4  284.17   17.70
  -3  -3  -4  265.77   16.90
   3  -3   4  270.27   14.70
  -3  -3  -4  269.27   15.70
  -3  -3  -4  258.67   16.60
   3  -3   4  271.17   14.20
   3   3   4  269.17   16.90
   3   3   4  260.27   16.90
  -3   3  -4  292.97   17.40
   3   3   4  268.37   17.10
   3   3   4  270.27   15.90
   5  -3   4    9.00    4.20
  -5  -3  -4    0.30    4.00
  -5  -3  -4    5.10    3.60
  -5  -3  -4   18.10    6.20
   5  -3   4    3.10    3.30
   5   3   4    3.30    4.50
  -5   3  -4    7.70    4.10
   5   3   4    8.30    4.60
   5   3   4    9.90    4.70
  -7  -3  -4  183.58   19.30
   7  -3   4  206.68   19.60
   7   3   4  176.28   19.30
  -7   3  -4  139.69   10.60
   7   3   4  214.08   20.90
   7   3   4  200.28   19.60
   8  -4  -4   13.10    9.60
  -8  -4   4   -0.60    8.10
   8   4  -4   25.30   10.70
   8   4  -4   11.00    9.50
   8   4  -4   13.20    8.60
  -6  -4   4    2.70    6.30
   6  -4  -4    2.60    4.30
   6  -4  -4   29.20    7.90
   6   4  -4   13.70    6.10
   6   4  -4   16.00    7.40
  -6   4   4    7.70    6.40
   6   4  -4   14.10    5.70
  -6   4   4    9.70    4.50
   4  -4  -4   -4.70    4.20
  -4  -4   4    1.30    2.70
  -4  -4   4    4.90    4.30
   4  -4  -4    1.00    3.30
   4   4  -4    1.50    3.00
   4   4  -4    2.20    3.30
  -4   4   4   -4.10    1.90
  -4   4   4    2.80    4.20
   4   4  -4    4.30    3.80
  -2  -4   4  367.76   19.80
  -2  -4   4  362.66   19.20
   2  -4  -4  370.96   17.20
   2  -4  -4  347.67   21.00
   2  -4  -4  364.96   14.10
   2  -4  -4  339.37   13.50
  -2  -4   4  356.66   13.40
  -2  -4   4  358.36   19.70
   2   4  -4  338.27   13.20
  -2   4   4  321.27   19.90
   2   4  -4  369.36   19.60
   2   4  -4  359.96   20.00
  -2   4   4  354.16   14.90
   0  -4   4  183.98   10.60
   0  -4  -4  176.48   13.40
   0  -4   4  177.18   11.00
   0  -4   4  207.98   13.10
   0  -4  -4  170.08   11.30
   0  -4  -4  165.08   11.30
   0   4   4  182.88   12.00
   0   4  -4  190.08   12.20
   0   4   4  180.98   14.10
   0   4   4  183.48   10.60
   0   4  -4  202.98   11.50
   2  -4   4  236.98   15.70
  -2  -4  -4  257.87   17.10
  -2  -4  -4  244.28   16.10
  -2  -4  -4  217.28   13.40
   2  -4   4  243.68   11.90
  -2  -4  -4  231.08   16.00
   2   4   4  226.78   16.40
   2   4   4  213.98   15.50
   2   4   4  234.48   13.70
  -2   4  -4  236.18   15.70
   2   4   4  247.98   16.60
   4  -4   4  288.67   20.80
  -4  -4  -4  259.17   19.70
   4  -4   4  289.07   17.60
  -4  -4  -4  253.57   17.80
   4  -4   4  279.67   16.80
  -4  -4  -4  282.37   20.00
  -4  -4  -4  293.87   21.10
   4   4   4  276.67   18.30
   4   4   4  285.17   20.20
   4   4   4  278.47   20.10
  -4   4  -4  295.77   20.50
   6  -4   4   66.29   11.10
  -6  -4  -4   71.29   13.70
   6   4   4   92.59   15.30
   6   4   4   88.19   14.60
   6   4   4   68.89   13.30
  -8  -4  -4   12.20    8.30
   8  -4   4    1.10    6.30
   8  -4   4    4.70   12.30
   8   4   4   12.60    8.30
   8   4   4    2.40    7.60
   7  -5  -4   10.40    6.30
   7  -5  -4   38.60   11.80
  -7  -5   4   32.80   12.70
   7   5  -4    9.20    9.90
  -7   5   4    0.10    8.90
   7   5  -4   26.30   11.20
   7   5  -4   13.60    7.50
   5  -5  -4  147.49   27.30
  -5  -5   4  104.19   16.10
   5  -5  -4  110.89   13.30
  -5   5   4  141.19   11.30
   5   5  -4  128.19   15.80
  -5   5   4  118.29   18.60
   5   5  -4  113.19   12.40
   5   5  -4  135.69   16.60
  -3  -5   4   53.19   10.80
   3  -5  -4   62.39   12.10
   3  -5  -4   46.30    4.90
  -3  -5   4   55.89   10.50
  -3  -5   4   50.09    7.30
   3  -5  -4   38.60    7.90
  -3  -5   4   61.49   12.10
   3  -5  -4   62.09    9.90
   3   5  -4   52.99    7.60
  -3   5   4   56.79   11.30
  -3   5   4   62.59    6.80
   3   5  -4   57.09   11.50
   3   5  -4   56.59   11.30
  -1  -5   4  513.25   23.40
   1  -5  -4  492.05   20.00
  -1  -5   4  507.55   24.80
  -1  -5   4  504.05   12.70
   1  -5  -4  481.05   19.60
   1  -5  -4  491.55   20.30
   1   5  -4  479.05   22.90
  -1   5   4  475.05   20.50
   1   5  -4  477.45   12.20
  -1   5   4  481.35   26.00
  -1  -5  -4  389.36   17.50
  -1  -5  -4  409.36   21.10
   1  -5   4  400.96   12.40
   1  -5   4  401.66   20.80
  -1  -5  -4  435.26   22.10
   1  -5   4  393.36   15.30
   1  -5   4  415.16   12.60
   1  -5   4  410.76   15.60
  -1   5  -4  393.66   21.00
  -1   5  -4  408.66   16.50
   1   5   4  404.26   17.90
   3  -5   4    1.40    2.70
  -3  -5  -4    8.50    3.90
  -3  -5  -4   -2.60    3.30
   3  -5   4    2.70    3.60
   3  -5   4    0.20    2.10
  -3  -5  -4   -0.90    3.10
   3   5   4    0.20    2.70
   3   5   4   -2.30    3.80
  -3   5  -4    4.20    2.90
   3   5   4   -4.30    2.70
   3   5   4    4.00    3.30
   5  -5   4  523.95   26.40
   5  -5   4  561.84   27.80
  -5  -5  -4  567.44   33.30
   5   5   4  543.05   32.30
  -5   5  -4  517.05   31.50
   5   5   4  506.75   28.30
   5   5   4  490.35   30.60
  -7  -5  -4   55.29   14.60
   7  -5   4   60.69   13.20
   7  -5   4   24.70    8.50
   7   5   4   26.20   12.30
   7   5   4   39.30   10.80
   6  -6  -4   14.20    6.30
  -6  -6   4    6.50    8.20
   6  -6  -4    2.90    5.50
   6   6  -4    8.80    7.30
   6   6  -4    6.00    6.20
   6   6  -4    5.90    5.40
  -6   6   4    4.80    6.00
   4  -6  -4   79.59   13.20
  -4  -6   4  103.59   16.50
   4  -6  -4   97.59   12.20
   4   6  -4  103.99   16.40
  -4   6   4   98.79   16.90
   4   6  -4   91.19   10.40
  -4   6   4   87.99    9.30
   4   6  -4   87.59   15.50
   2  -6  -4    9.20    4.10
  -2  -6   4   13.60    5.30
  -2  -6   4    7.30    4.40
  -2  -6   4    5.80    2.40
   2  -6  -4   16.70    4.40
   2  -6  -4    4.70    3.10
   2   6  -4    9.70    5.30
  -2   6   4   25.60    7.80
   2   6  -4    8.50    2.80
   0  -6  -4   24.00    6.50
   0  -6  -4   15.80    6.20
   0  -6  -4   33.10    7.00
   0  -6   4   25.90    6.10
   0  -6   4   22.20    5.90
   0  -6  -4   17.90    4.90
   0   6   4   20.50    6.70
   0   6   4   28.80    7.20
   0   6  -4   28.40    6.50
   0   6  -4   26.60    7.30
   0   6   4   24.30    5.40
  -2  -6  -4   21.00    6.80
  -2  -6  -4   26.90    7.40
  -2  -6  -4   33.00    6.60
   2  -6   4   25.20    5.10
  -2   6  -4   23.40    7.90
   2   6   4   25.50    6.50
   4  -6   4   98.89   10.80
  -4  -6  -4   55.59   12.00
  -4  -6  -4   69.69   11.90
   4  -6   4   87.29   10.70
   4   6   4   77.99   14.10
   4   6   4   69.89   11.10
   6  -6   4    1.20    5.50
   6  -6   4   15.60    5.60
  -6  -6  -4   17.40    8.00
   6   6   4   19.70    6.10
  -6   6  -4   -2.60    7.00
   6   6   4   18.60    8.90
   5  -7  -4    3.40    4.90
   5  -7  -4    1.20    4.20
  -5  -7   4    4.10    8.10
   5   7  -4    7.20    5.80
   5   7  -4    4.10    5.80
  -5   7   4    2.60    7.10
   5   7  -4    0.80    5.00
   3  -7  -4   20.60    4.30
  -3  -7   4   24.40    8.10
   3  -7  -4   20.60    4.60
  -3  -7   4   23.30    9.60
   3  -7  -4   31.30    7.60
   3  -7  -4   17.90    6.30
   3   7  -4   19.00    4.80
  -3   7   4   21.90    8.00
   3   7  -4   33.50    9.40
   1  -7  -4   59.99    9.00
   1  -7  -4   49.80    9.10
   1  -7  -4   53.79    8.90
  -1  -7   4   46.90   10.40
   1   7  -4   65.49   11.80
  -1   7   4   33.50    9.50
  -1  -7  -4   16.50    5.60
   1  -7   4   20.70    3.00
  -1  -7  -4   20.80    6.40
   1  -7   4   24.60    5.70
  -1  -7  -4   25.20    6.50
   1  -7   4   18.00    4.70
   1  -7   4   35.40    3.60
  -1   7  -4   37.90    9.00
   1   7   4   23.20    8.90
   1   7   4   21.10    5.50
   3  -7   4    6.80    3.40
   3  -7   4    2.90    3.40
  -3  -7  -4    2.70    3.80
   3   7   4   -3.40    3.40
  -3   7  -4    0.40    4.20
  -5  -7  -4    2.60    5.60
   5  -7   4    3.30    4.20
   5  -7   4    0.80    3.90
  -5   7  -4    3.90    6.60
   5   7   4   -3.80    5.20
   4  -8  -4  107.89   17.00
   4   8  -4   77.39   10.10
   4   8  -4   70.19   15.00
   2  -8  -4   20.70    7.30
  -2  -8   4   28.10    8.80
  -2  -8   4   13.90    9.00
   2  -8  -4   30.10    6.30
   2   8  -4   17.40    7.80
   2   8  -4   20.00    8.00
  -2   8   4   26.50   10.80
   0  -8   4    6.70    5.50
   0  -8  -4    1.60    5.10
   0  -8  -4   15.60    5.80
   0  -8   4   10.00    5.90
   0  -8  -4   31.10    6.90
   0   8   4   39.70   10.30
   0   8  -4   17.90    7.10
   2  -8   4    3.90    2.70
  -2  -8  -4   -8.00    4.40
  -2  -8  -4    1.00    4.90
   2  -8   4    4.90    2.70
  -2  -8  -4    1.00    6.40
  -2   8  -4    8.90    6.10
   2   8   4    9.60    4.90
   2   8   4    8.90    6.40
   4  -8   4    7.60    9.40
   4  -8   4    0.50    4.90
   4  -8   4    2.10    5.20
  -4  -8  -4    3.30    8.00
   4   8   4   12.60    6.60
  -4   8  -4    0.20    6.50
  -3  -9   4   21.70    8.60
   3  -9  -4   27.40    9.90
  -3   9   4   16.60   10.10
   3   9  -4    8.80   10.00
   3   9  -4   21.20   11.00
  -1  -9   4   40.80    9.80
   1  -9  -4   42.00    9.30
   1  -9  -4   47.10    9.50
   1  -9  -4   60.39    9.30
  -1  -9   4   39.60    9.30
  -1   9   4   39.70   12.00
   1   9  -4   38.40   11.00
  -1  -9  -4   16.70   10.20
  -1  -9  -4   17.10    6.50
   1  -9   4   20.10    6.40
   1  -9   4    5.10    5.40
   1   9   4   42.40   12.80
  -1   9  -4   30.90   10.40
  -3  -9  -4   17.70   10.90
   3  -9   4   21.10    6.50
   3  -9   4   20.10    7.70
  -3   9  -4   26.50   12.20
   3   9   4   12.80   12.40
   3   9   4    9.10    7.40
  -8   0   5   -0.50    6.20
   8   0  -5   -1.70    5.30
   8   0  -5    8.60    6.50
   8   0  -5   13.80    6.10
  -6   0   5    1.60    3.40
   6   0  -5    4.60    3.90
   6   0  -5   -2.50    2.60
   6   0  -5   -5.00    2.60
   4   0  -5   -0.10    2.40
   4   0  -5    3.40    2.60
  -4   0   5   -0.10    1.80
  -4   0   5    1.60    2.30
   4   0  -5    0.50    2.00
   4   0  -5    0.20    2.80
   2   0  -5    3.20    1.80
  -2   0   5    0.50    1.50
   2   0  -5   -0.30    1.80
  -2   0   5   -0.20    1.70
  -2   0   5   -1.60    1.20
   2   0  -5    0.20    1.60
   0   0  -5    1.70    0.90
   0   0   5   -0.10    0.70
   0   0  -5    0.40    0.60
   0   0   5    2.60    1.20
   0   0  -5    0.50    0.90
   2   0   5   -0.40    1.40
  -2   0  -5    0.00    1.00
  -2   0  -5    0.10    1.30
  -2   0  -5    3.20    1.90
  -2   0  -5   -1.10    1.30
   2   0   5   -0.50    1.10
   2   0   5    0.70    1.20
  -4   0  -5   -1.70    2.20
  -4   0  -5    2.40    2.20
   4   0   5    4.50    3.30
   4   0   5    3.20    2.70
  -4   0  -5    1.00    2.30
  -4   0  -5    1.10    3.00
  -6   0  -5    0.50    3.40
   6   0   5    9.40    4.60
  -6   0  -5   -7.00    3.30
   6   0   5   -6.50    3.40
  -8   0  -5  -12.90    5.70
   8   0   5    1.20    5.00
   8   0   5   -8.30    5.10
   9  -1  -5   19.00    9.00
   9  -1  -5   53.49   13.30
  -9  -1   5   38.20   12.10
  -9   1   5   31.40   10.60
   9   1  -5   48.70   12.90
   9   1  -5   48.60   13.80
   9   1  -5   28.50    9.90
  -7  -1   5    3.80    5.10
   7  -1  -5   -5.50    2.90
   7  -1  -5   -2.50    3.20
   7  -1  -5    3.60    3.90
  -7   1   5   -8.90    3.80
   7   1  -5    1.30    3.20
   7   1  -5   -1.30    3.90
   7   1  -5   -0.20    3.60
  -5  -1   5    2.10    3.70
   5  -1  -5   -4.90    3.60
   5  -1  -5   -2.90    2.50
  -5  -1   5    2.80    3.80
   5  -1  -5    5.00    4.00
   5  -1  -5    5.40    3.10
   5   1  -5   -4.90    2.90
   5   1  -5    1.10    2.70
  -5   1   5    2.80    2.90
  -5   1   5    3.20    3.10
   5   1  -5    7.10    3.90
   5   1  -5    1.40    2.50
  -3  -1   5   40.00    6.40
  -3  -1   5   48.70    7.70
   3  -1  -5   52.89    7.00
   3  -1  -5   45.80    7.40
   3  -1  -5   42.70    5.20
  -3   1   5   49.60    5.50
   3   1  -5   54.49    6.90
   3   1  -5   46.80    5.90
   3   1  -5   53.39    8.00
   3   1  -5   54.29    6.50
  -3   1   5   63.79    9.30
  -3   1   5   40.20    6.50
   1  -1  -5 5224.08   89.89
   1  -1  -5 5244.58   88.49
  -1  -1   5 5419.76   88.99
   1  -1  -5 5375.16   86.99
  -1  -1   5 5315.07   87.39
  -1   1   5 5333.57   88.69
   1   1  -5 5346.06   87.99
  -1   1   5 5383.66   90.29
  -1   1   5 5251.27   86.79
   1   1  -5 5221.18   88.89
   1  -1   5    5.40    1.80
   1  -1   5    3.10    1.60
  -1  -1  -5    3.10    2.00
  -1  -1  -5    4.80    1.80
  -1  -1  -5    2.10    1.70
   1  -1   5    5.40    1.40
   1   1   5    3.70    1.90
  -1   1  -5    2.30    1.50
   1   1   5    2.30    1.50
   1   1   5    4.80    2.20
  -3  -1  -5  140.69   10.00
   3  -1   5  133.19   10.80
   3  -1   5  128.29   10.20
  -3  -1  -5  125.59   10.40
   3  -1   5  127.89    8.50
  -3  -1  -5  107.29    9.20
  -3  -1  -5  115.09    9.40
  -3   1  -5  112.79    9.50
   3   1   5  131.89    9.80
  -3   1  -5  130.29    7.30
   3   1   5  127.79    9.60
  -3   1  -5  131.19    7.40
  -3   1  -5  126.09    8.00
   3   1   5  126.19   10.30
   3   1   5  116.49    9.30
   5  -1   5  882.51   31.60
  -5  -1  -5  768.32   31.20
   5  -1   5  843.92   34.80
   5  -1   5  804.02   35.10
  -5  -1  -5  806.12   31.40
  -5  -1  -5  813.12   31.90
  -5  -1  -5  823.02   34.40
   5   1   5  865.51   33.30
   5   1   5  830.52   34.90
   5   1   5  783.72   30.40
  -5   1  -5  873.31   27.60
  -5   1  -5  859.21   30.30
  -5   1  -5  816.82   26.60
  -7  -1  -5   89.69   14.20
   7  -1   5   92.49   13.80
   7  -1   5   68.29   13.80
  -7   1  -5   76.59   11.50
   7   1   5   75.89   13.40
   7   1   5   84.69   15.30
   8  -2  -5  143.09   17.40
   8  -2  -5  145.09   24.70
  -8  -2   5  111.69   18.00
   8  -2  -5  163.18   14.10
   8   2  -5  122.59   20.20
   8   2  -5  161.78   19.10
   8   2  -5  157.38   22.70
  -8   2   5  136.09   16.00
   6  -2  -5   82.89   14.00
  -6  -2   5   86.09   14.70
   6  -2  -5   69.29   12.90
   6  -2  -5   66.49    7.50
   6   2  -5   65.69   13.00
   6   2  -5   81.69   13.30
  -6   2   5   75.09    9.20
   6   2  -5   57.79   11.10
   4  -2  -5   28.30    5.00
   4  -2  -5   33.00    7.30
   4  -2  -5   21.20    6.10
  -4  -2   5   12.50    5.10
  -4  -2   5   24.70    6.60
  -4  -2   5   19.10    5.10
   4   2  -5   19.40    5.60
   4   2  -5   21.10    5.70
  -4   2   5   24.80    6.20
  -4   2   5   26.50    6.90
   4   2  -5   17.30    5.30
  -4   2   5   24.10    4.80
   2  -2  -5 1342.67   29.50
   2  -2  -5 1341.17   34.90
  -2  -2   5 1286.07   36.30
   2  -2  -5 1343.37   37.30
  -2  -2   5 1346.97   35.00
   2   2  -5 1340.17   30.60
   2   2  -5 1346.57   35.70
   2   2  -5 1308.67   35.40
  -2   2   5 1357.06   33.70
   0  -2  -5  517.65   17.10
   0  -2   5  504.35   14.70
   0  -2  -5  506.95   16.60
   0  -2   5  517.75   15.30
   0   2  -5  517.65   13.90
   0   2  -5  507.95   15.00
   0   2  -5  531.55   15.50
   0   2   5  497.75   16.40
  -2  -2  -5  595.24   22.20
  -2  -2  -5  602.64   21.80
  -2  -2  -5  594.24   21.90
   2  -2   5  550.14   16.80
   2  -2   5  592.24   19.10
  -2  -2  -5  632.04   21.90
   2   2   5  585.14   22.10
  -2   2  -5  589.84   21.10
  -2   2  -5  587.44   18.80
   2   2   5  576.44   21.50
   2   2   5  610.84   21.40
  -4  -2  -5  527.45   24.20
  -4  -2  -5  540.45   25.10
   4  -2   5  528.95   24.30
  -4  -2  -5  501.25   24.20
   4  -2   5  573.54   26.90
  -4  -2  -5  562.84   25.60
   4  -2   5  527.75   21.20
  -4   2  -5  529.75   16.20
  -4   2  -5  544.55   21.10
   4   2   5  575.24   26.20
   4   2   5  588.04   25.90
   4   2   5  546.35   25.00
   4   2   5  557.04   25.10
  -4   2  -5  534.25   15.70
   6  -2   5    2.90    5.00
  -6  -2  -5    5.00    4.50
   6  -2   5   -0.20    3.20
  -6   2  -5    0.00    4.30
  -6   2  -5    2.60    3.00
   6   2   5    0.60    3.50
   8  -2   5   23.00    8.00
  -8  -2  -5   10.70    7.90
   8  -2   5   18.20   11.30
   8   2   5   14.60    6.90
  -8   2  -5   11.40    6.50
   7  -3  -5   43.90   10.80
  -7  -3   5   36.60   11.00
   7  -3  -5   59.29   13.80
   7  -3  -5   51.89    8.10
   7   3  -5   50.89   12.50
   7   3  -5   45.80   11.20
   7   3  -5   67.59   13.80
   5  -3  -5   45.00    5.70
  -5  -3   5   28.90    8.90
   5  -3  -5   17.20    6.10
   5  -3  -5   17.20    6.40
   5   3  -5   32.50    8.70
   5   3  -5   32.00    8.10
   5   3  -5   38.30    8.10
  -5   3   5   27.60    5.80
  -5   3   5   29.50    7.90
  -5   3   5   37.30    9.00
   3  -3  -5  568.84   24.10
   3  -3  -5  590.24   27.20
  -3  -3   5  562.64   24.80
  -3  -3   5  584.84   26.20
  -3  -3   5  543.05   24.40
   3  -3  -5  573.04   17.70
   3   3  -5  576.04   25.50
  -3   3   5  548.75   18.10
   3   3  -5  569.24   25.80
  -3   3   5  582.64   26.50
   3   3  -5  563.44   20.90
  -1  -3   5  799.42   24.90
   1  -3  -5  757.12   28.20
  -1  -3   5  824.92   26.10
  -1  -3   5  777.52   25.50
   1  -3  -5  802.92   22.90
   1   3  -5  802.42   26.00
   1   3  -5  801.82   25.40
  -1   3   5  795.52   28.60
  -1   3   5  820.22   23.70
   1   3  -5  805.82   16.30
   1  -3   5  400.36   11.60
   1  -3   5  391.26   16.30
   1  -3   5  384.56   11.20
  -1  -3  -5  405.16   18.10
   1  -3   5  403.56   11.50
   1   3   5  420.56   18.40
  -1   3  -5  395.66   16.30
   1   3   5  395.26   16.20
   3  -3   5    5.70    3.00
   3  -3   5    2.10    2.80
  -3  -3  -5    5.60    3.90
  -3  -3  -5    4.20    3.60
   3  -3   5    3.30    2.50
  -3  -3  -5    3.40    3.70
  -3  -3  -5    7.10    3.90
   3   3   5    4.00    3.00
  -3   3  -5    5.40    3.70
   3   3   5    3.10    3.70
   3   3   5    8.10    3.60
   3   3   5    8.70    4.10
  -5  -3  -5  257.17   20.20
  -5  -3  -5  256.37   19.40
   5  -3   5  250.67   16.50
  -5  -3  -5  265.57   19.80
   5  -3   5  272.37   19.00
  -5   3  -5  256.37   16.60
   5   3   5  277.77   19.80
   5   3   5  279.97   20.10
   5   3   5  284.87   20.60
  -7  -3  -5   11.20    6.60
   7  -3   5   13.90    5.30
   7  -3   5   12.90    6.20
   8  -4  -5   34.30   11.70
   8  -4  -5   36.30   13.20
  -8  -4   5   40.70   12.80
   8   4  -5   45.80   11.00
   8   4  -5   44.00   13.50
   8   4  -5   15.80    9.00
   6  -4  -5  178.68   17.20
   6  -4  -5  170.78   16.80
   6   4  -5  188.78   17.20
  -6   4   5  173.38   18.30
   6   4  -5  154.38   17.30
   6   4  -5  184.78   19.00
  -6   4   5  161.18   11.30
  -4  -4   5  643.34   30.90
   4  -4  -5  614.34   29.00
  -4  -4   5  614.84   31.50
   4  -4  -5  651.13   19.10
   4  -4  -5  586.24   31.70
   4   4  -5  637.14   31.60
   4   4  -5  658.33   31.30
   4   4  -5  619.14   25.40
  -4   4   5  645.24   32.40
  -4   4   5  624.84   20.80
  -2  -4   5   36.20    7.90
   2  -4  -5   40.90    7.20
   2  -4  -5   39.30    9.10
  -2  -4   5   26.50    6.60
  -2  -4   5   57.99   10.10
   2   4  -5   41.30    8.50
  -2   4   5   46.40    5.90
   2   4  -5   47.90    8.60
  -2   4   5   44.30    9.40
   2   4  -5   47.60    4.80
   0  -4  -5  137.09    9.80
   0  -4   5  148.89   10.20
   0  -4   5  160.28    9.90
   0  -4   5  157.98   11.40
   0  -4  -5  145.89   10.80
   0  -4  -5  149.79   11.00
   0   4  -5  167.58   10.50
   0   4   5  173.48   10.70
   0   4   5  156.88   11.50
   0   4   5  150.38   13.30
   0   4  -5  161.08   11.10
  -2  -4  -5   39.20    6.90
  -2  -4  -5   28.10    7.00
  -2  -4  -5   25.50    6.50
   2  -4   5   35.30    7.00
  -2  -4  -5   38.70    8.00
   2  -4   5   37.20    5.50
   2   4   5   39.40    7.90
   2   4   5   45.50    7.70
   2   4   5   43.20    8.30
   4  -4   5  394.76   20.60
  -4  -4  -5  363.16   23.60
  -4  -4  -5  362.66   23.40
   4  -4   5  370.16   23.70
   4  -4   5  394.96   19.80
  -4  -4  -5  356.96   24.40
  -4  -4  -5  409.06   24.80
   4   4   5  372.86   21.70
  -4   4  -5  362.46   22.80
   4   4   5  400.56   24.30
   4   4   5  411.26   24.30
  -6  -4  -5   32.20    9.20
   6  -4   5   10.90    5.70
   6   4   5   10.20    5.70
   6   4   5    4.60    4.70
   6   4   5   26.20    7.40
   8  -4   5    3.30    5.50
  -8  -4  -5    3.90    7.70
   8   4   5   -1.70    6.40
   8   4   5   -1.00    7.20
   7  -5  -5    5.90    5.90
   7  -5  -5   -2.40    5.80
  -7  -5   5    1.70    6.80
  -7   5   5   19.10   12.50
   7   5  -5   10.10    6.70
   7   5  -5    0.70    8.10
   7   5  -5   -0.60    6.30
  -5  -5   5  123.59   18.60
   5  -5  -5  109.39   13.60
  -5   5   5  131.79   16.30
   5   5  -5  127.99   15.90
   5   5  -5  160.68   14.20
   5   5  -5  117.99   14.70
  -3  -5   5   39.90    9.20
   3  -5  -5   40.00   10.60
   3  -5  -5   41.60    7.50
   3  -5  -5   40.10    5.70
   3  -5  -5   26.50    7.80
  -3  -5   5   45.90    9.90
   3  -5  -5   38.30    5.70
  -3  -5   5   20.50    7.10
   3   5  -5   45.10    9.80
  -3   5   5   47.80    6.80
   3   5  -5   40.90    9.60
   3   5  -5   37.70    6.20
  -3   5   5   31.60    8.50
  -1  -5   5  157.78   13.70
   1  -5  -5  172.38   11.60
   1  -5  -5  141.69   10.70
  -1  -5   5  161.68   13.10
   1  -5  -5  178.38   11.80
   1   5  -5  168.48   13.40
   1   5  -5  175.28   13.80
  -1   5   5  168.98   12.20
  -1   5   5  173.68   15.70
   1  -5   5   13.80    3.20
   1  -5   5    7.20    3.80
  -1  -5  -5    4.20    3.30
   1  -5   5   10.60    2.90
   1  -5   5   12.50    2.40
   1  -5   5    7.90    2.10
  -1  -5  -5    4.00    4.90
  -1  -5  -5    5.70    3.60
  -1  -5  -5    8.60    4.50
   1   5   5    8.80    5.20
   1   5   5   14.90    4.50
  -1   5  -5    4.80    2.60
  -1   5  -5   11.50    4.70
   3  -5   5  122.29   13.70
  -3  -5  -5  124.69   13.90
   3  -5   5  115.69    9.80
  -3  -5  -5  118.49   11.50
  -3  -5  -5  127.99   13.70
   3  -5   5  124.79   11.20
  -3  -5  -5  111.59   17.40
  -3   5  -5  107.39   12.20
   3   5   5  113.19   11.30
   3   5   5  118.39   13.80
   3   5   5  117.19   13.40
   5  -5   5   47.70    9.10
   5  -5   5   61.19   10.30
  -5  -5  -5   50.09   11.80
  -5   5  -5   41.40   10.40
   5   5   5   50.99   11.30
   5   5   5   59.49   12.50
   7  -5   5    3.00    4.90
   7  -5   5   15.50    6.90
  -7  -5  -5    6.00    6.60
   7   5   5    4.00    7.70
   7   5   5    3.70    6.70
   6  -6  -5    6.80    6.10
   6  -6  -5   10.40    6.70
  -6  -6   5   36.80   12.90
   6   6  -5   25.00    7.50
   6   6  -5   18.60   12.10
   6   6  -5   30.50   10.60
  -6   6   5   21.40   10.60
   4  -6  -5  232.18   19.20
   4  -6  -5  234.48   17.50
  -4  -6   5  205.48   19.80
  -4   6   5  229.38   21.90
  -4   6   5  211.28   12.30
   4   6  -5  201.58   20.40
   4   6  -5  238.68   20.80
   4   6  -5  236.88   15.40
  -2  -6   5    5.40    3.90
   2  -6  -5   -4.40    3.60
  -2  -6   5   17.70    6.00
   2  -6  -5    1.30    2.30
   2  -6  -5   10.40    4.10
  -2   6   5    2.40    4.60
   2   6  -5    6.00    2.40
  -2   6   5    3.40    4.00
   2   6  -5    4.60    4.40
   0  -6  -5   12.30   10.00
   0  -6   5   24.80    8.40
   0  -6   5   27.50    6.30
   0  -6   5   17.00    5.00
   0  -6  -5   36.70    6.70
   0  -6  -5   30.20    6.60
   0  -6  -5   28.10    6.80
   0   6   5   30.90    8.90
   0   6  -5   28.50    6.80
   0   6   5   25.60    6.50
   0   6  -5   34.90    8.70
  -2  -6  -5  314.27   18.10
   2  -6   5  304.27   13.20
   2  -6   5  288.07   12.90
  -2  -6  -5  309.67   21.10
  -2  -6  -5  321.67   21.90
   2  -6   5  300.57   25.00
   2   6   5  283.87   17.00
  -2   6  -5  296.77   20.50
   4  -6   5    7.60    4.90
   4  -6   5   19.80    5.90
  -4  -6  -5   13.70    6.60
  -4  -6  -5   10.00    5.90
   4   6   5   24.20    7.00
   4   6   5    6.30    4.50
  -4   6  -5   18.70   11.40
   6  -6   5   29.40    8.70
  -6  -6  -5   64.19   15.20
   6  -6   5   30.90    8.30
  -6   6  -5   22.10   10.20
   6   6   5   23.90   15.20
   6   6   5   24.50    8.60
  -5  -7   5  386.96   34.20
   5  -7  -5  390.46   26.20
   5  -7  -5  383.06   28.10
  -5   7   5  372.26   30.60
   5   7  -5  382.86   22.50
   5   7  -5  403.66   31.20
   5   7  -5  352.96   34.90
  -3  -7   5    1.30    3.80
  -3  -7   5    8.70    6.50
   3  -7  -5    8.20    4.90
   3  -7  -5    5.20    2.50
   3  -7  -5    6.90    4.10
  -3   7   5   -5.10    4.10
   3   7  -5    6.40    3.50
   3   7  -5   -0.80    4.00
   1  -7  -5  143.49   11.90
   1  -7  -5  121.19   11.90
  -1  -7   5  123.69   13.20
   1  -7  -5  138.39   12.20
   1   7  -5  117.89   14.00
   1   7  -5  125.39   15.80
   1  -7   5  661.73   24.10
  -1  -7  -5  647.74   31.90
  -1  -7  -5  670.53   26.90
   1  -7   5  728.13   25.30
  -1  -7  -5  664.03   32.10
   1   7   5  720.73   27.20
  -1   7  -5  757.92   34.70
   1   7   5  693.83   42.90
   3  -7   5   84.69   12.70
   3  -7   5   85.89    9.10
   3  -7   5   88.59    8.50
  -3  -7  -5   79.49   14.70
   3   7   5   89.19   11.20
   5  -7   5  135.19   15.30
  -5  -7  -5  148.79   24.30
   5  -7   5  173.68   14.40
   5   7   5  148.49   16.70
  -5   7  -5  115.59   19.30
  -4  -8   5    9.10    7.90
   4  -8  -5   -1.10    5.50
   4   8  -5    8.20    7.30
  -4   8   5   -0.70   12.30
  -2  -8   5   -0.50    6.10
   2  -8  -5   14.60    5.50
   2  -8  -5   -2.80    6.70
  -2  -8   5    9.60    5.90
   2  -8  -5    9.90    4.50
   2   8  -5    3.10    5.90
  -2   8   5    3.00    5.10
   2   8  -5   13.90    6.70
   0  -8  -5   13.80    5.10
   0  -8   5    3.90    3.50
   0  -8  -5    6.50    5.90
   0  -8  -5    4.20    3.60
   0  -8   5    8.40    4.30
   0   8  -5    1.70    4.10
   0   8   5   11.20    5.40
  -2  -8  -5   10.00    6.80
  -2  -8  -5    9.00    6.40
   2  -8   5   -1.20    2.40
  -2  -8  -5   13.40    6.60
  -2   8  -5    7.50    5.00
   2   8   5    7.10    4.50
   2   8   5   -2.60    5.30
   4  -8   5    8.70    5.40
  -4  -8  -5   13.50    7.40
   4  -8   5   -5.60    5.30
   4  -8   5    4.80    4.90
  -4   8  -5   -0.40    7.50
   4   8   5    8.80    6.70
  -3  -9   5   -1.30    6.00
   3  -9  -5    6.70    5.20
  -3   9   5    5.10    7.50
   3   9  -5  -17.90    7.40
   3   9  -5    7.40    8.30
  -1  -9   5   35.90    9.70
   1  -9  -5   32.60    8.30
   1  -9  -5   20.50    9.30
  -1  -9   5   28.50    9.30
   1  -9  -5   27.60    9.00
   1   9  -5   35.70   10.20
  -1   9   5   10.90    9.80
   1  -9   5   15.20    6.10
  -1  -9  -5   23.50   11.40
   1  -9   5   17.40    5.60
  -1  -9  -5   29.10    7.50
   1   9   5   30.40   11.60
  -1   9  -5   31.80    9.60
   3  -9   5   22.00    8.90
  -3  -9  -5    8.30    8.80
   3   9   5   27.00    8.00
  -3   9  -5   17.70   10.30
  -8   0   6  279.77   24.10
   8   0  -6  267.77   24.50
   8   0  -6  280.07   21.70
   8   0  -6  297.87   26.10
   6   0  -6  238.68   19.40
   6   0  -6  259.77   19.80
   6   0  -6  257.57   17.70
   4   0  -6 2407.96   55.49
  -4   0   6 2373.56   54.89
   4   0  -6 2367.16   58.79
  -4   0   6 2341.27   57.59
   4   0  -6 2312.97   58.19
   4   0  -6 2373.66   58.69
   0   0  -6 3136.49   54.49
   0   0  -6 2999.80   49.70
   0   0   6 3030.20   54.19
   0   0  -6 3266.07   54.59
   0   0   6 3217.68   54.49
  -2   0  -6 2573.04   48.60
   2   0   6 2458.75   46.40
  -2   0  -6 2493.55   46.10
   2   0   6 2450.55   48.20
  -2   0  -6 2448.35   52.69
   2   0   6 2589.84   52.89
  -2   0  -6 2601.14   49.20
   4   0   6 2344.57   60.19
   4   0   6 2414.86   55.29
  -4   0  -6 2346.07   53.69
  -4   0  -6 2381.36   59.59
  -4   0  -6 2597.34   55.49
  -4   0  -6 2370.36   53.99
   6   0   6  813.72   34.40
   6   0   6  825.02   37.90
  -6   0  -6  811.22   33.00
  -6   0  -6  753.02   31.00
   8   0   6  110.99   21.70
   8   0   6  124.09   15.10
  -8   0  -6  119.69   17.60
   9  -1  -6    1.90    6.30
   9  -1  -6   -4.10    7.80
  -9  -1   6   -4.10    7.70
   9  -1  -6   11.20    6.00
   9   1  -6  -12.30    7.10
  -9   1   6   -1.10    8.60
   9   1  -6    6.40    8.10
   9   1  -6   -0.10    5.60
  -7  -1   6   -1.30    5.30
   7  -1  -6    9.90    5.20
   7  -1  -6   18.60    5.20
   7  -1  -6   12.20    6.20
   7   1  -6    1.00    4.70
   7   1  -6    7.70    5.10
   7   1  -6   14.80    6.50
  -7   1   6   15.40    6.70
   5  -1  -6    4.10    2.80
   5  -1  -6    3.80    3.50
  -5  -1   6    6.20    3.70
   5  -1  -6    8.40    4.90
   5  -1  -6    7.50    3.00
   5   1  -6    6.60    3.70
   5   1  -6   -0.40    3.00
   5   1  -6    0.00    2.50
   5   1  -6   -0.20    2.20
  -3  -1   6  331.37   16.50
   3  -1  -6  338.07   14.50
   3  -1  -6  337.27   17.40
  -3  -1   6  323.07   16.10
   3  -1  -6  323.67   16.20
  -3   1   6  330.27   14.30
   3   1  -6  339.77   16.60
   3   1  -6  334.57   17.00
  -3   1   6  338.17   16.50
  -3   1   6  307.27   16.60
   3   1  -6  338.57   15.70
   3   1  -6  307.77   15.50
   1  -1  -6 3258.67   60.69
   1  -1  -6 3444.46   60.49
   1  -1  -6 3343.57   59.29
  -1  -1   6 3348.57   58.69
  -1  -1   6 3452.25   60.89
   1  -1  -6 3234.38   61.39
   1   1  -6 3356.96   59.09
   1   1  -6 3300.17   53.19
  -1   1   6 3284.27   59.19
  -1   1   6 3298.67   61.59
   1   1  -6 3298.57   60.69
   1  -1   6   93.99    5.90
   1  -1   6   89.79    5.70
  -1  -1  -6   86.39    5.90
  -1  -1  -6   95.49    6.90
   1  -1   6   91.59    4.80
  -1   1  -6  101.09    5.00
   1   1   6   91.19    6.10
   1   1   6   96.29    7.00
  -1   1  -6   88.19    5.60
  -3  -1  -6   80.89    8.00
   3  -1   6   93.39    7.10
  -3  -1  -6   84.89    8.30
  -3  -1  -6   89.99    8.70
   3  -1   6   85.99    5.90
  -3  -1  -6  101.69    8.50
   3  -1   6   99.19    9.10
   3  -1   6   95.59    9.20
   3   1   6  104.39    8.80
   3   1   6   83.19    9.00
  -3   1  -6   92.19    8.70
  -3   1  -6   87.79    6.30
  -3   1  -6   92.19    7.50
  -3   1  -6   87.79    6.50
   3   1   6   83.59    7.90
  -5  -1  -6   -0.30    4.50
   5  -1   6    7.90    4.50
   5  -1   6    4.00    3.50
  -5  -1  -6   10.00    4.60
  -5  -1  -6   13.00    4.70
   5  -1   6    2.90    3.70
  -5  -1  -6   14.40    5.10
  -5   1  -6   20.10    4.80
   5   1   6    6.40    4.10
   5   1   6    8.20    5.00
  -5   1  -6   19.10    4.70
  -5   1  -6   12.00    4.40
  -5   1  -6   14.10    5.70
   7  -1   6   14.30    5.50
   7  -1   6   10.40    6.00
  -7  -1  -6   12.10    6.60
   7   1   6    7.80    4.70
  -7   1  -6   22.30    6.90
   7   1   6   10.50    6.50
   8  -2  -6   59.89   23.00
   8  -2  -6   93.99   10.30
   8  -2  -6   53.39   13.30
  -8  -2   6   98.59   18.60
   8   2  -6   72.29   16.30
   8   2  -6   59.09   14.80
  -8   2   6   54.29   11.30
   8   2  -6   68.19   14.90
   6  -2  -6   60.09   11.20
   6  -2  -6   73.09   14.20
  -6  -2   6   63.39   12.40
   6  -2  -6   62.79    7.80
   6   2  -6   63.09   18.80
   6   2  -6   87.89   13.40
   4  -2  -6  714.03   28.50
  -4  -2   6  679.63   28.20
   4  -2  -6  702.53   23.00
  -4  -2   6  670.33   28.30
   4  -2  -6  662.13   30.10
   4   2  -6  660.03   28.30
  -4   2   6  683.13   29.90
  -4   2   6  679.43   22.90
  -4   2   6  690.63   27.90
   4   2  -6  692.93   27.00
   4   2  -6  663.83   29.30
  -2  -2   6    0.50    1.80
   2  -2  -6    3.50    2.40
  -2  -2   6    2.50    1.90
   2  -2  -6    4.10    2.70
   2  -2  -6    3.70    2.30
   2   2  -6    4.80    2.10
  -2   2   6    3.70    2.90
  -2   2   6    3.00    1.90
   2   2  -6   -1.20    2.00
   2   2  -6    4.00    2.50
   0  -2   6 2694.43   50.09
   0  -2   6 2838.62   50.49
   0  -2   6 2845.52   47.90
   0  -2  -6 2748.32   54.29
   0  -2  -6 2765.82   53.89
   0   2   6 2715.33   53.49
   0   2  -6 2763.22   42.90
   0   2   6 2734.73   54.49
   0   2  -6 2748.43   50.19
   0   2  -6 2722.33   47.20
   0   2  -6 2745.13   50.69
   2  -2   6  265.77   10.50
  -2  -2  -6  249.28   14.40
  -2  -2  -6  255.27   13.80
  -2  -2  -6  248.28   13.70
   2  -2   6  248.38   11.90
  -2  -2  -6  240.58   13.80
  -2   2  -6  247.58   11.70
   2   2   6  250.37   13.70
  -2   2  -6  260.77   13.40
   2   2   6  272.87   14.60
   2   2   6  259.27   14.00
   4  -2   6  184.68   12.10
  -4  -2  -6  205.18   15.00
  -4  -2  -6  193.98   15.00
   4  -2   6  213.18   16.30
  -4  -2  -6  194.48   14.50
  -4  -2  -6  179.88   14.70
   4  -2   6  195.18   14.50
  -4   2  -6  208.98    9.60
  -4   2  -6  204.28   12.40
   4   2   6  216.98   15.90
   4   2   6  194.58   14.80
  -4   2  -6  195.08    9.00
   4   2   6  214.58   15.30
   6  -2   6  253.97   18.00
  -6  -2  -6  275.07   20.90
   6  -2   6  283.77   21.70
  -6   2  -6  250.27   14.20
   6   2   6  280.97   21.00
   6   2   6  283.77   22.70
  -6   2  -6  266.07   16.30
  -8  -2  -6    9.60    7.00
   8  -2   6   -4.70    4.70
   8   2   6    5.10    7.30
   8   2   6  -10.10    4.60
  -8   2  -6    0.80    5.90
   7  -3  -6   16.00    4.10
  -7  -3   6    6.30    5.60
   7  -3  -6   -0.50    4.50
   7  -3  -6   18.70    6.80
   7   3  -6    6.80    5.30
   7   3  -6    4.50    6.40
   7   3  -6   -1.30    4.70
   5  -3  -6    6.80    2.50
   5  -3  -6    4.80    3.40
  -5  -3   6   -2.10    2.90
   5   3  -6   -0.10    3.60
   5   3  -6    2.20    2.30
   5   3  -6   -0.80    2.90
  -5   3   6    4.90    3.60
   3  -3  -6   39.50    7.30
  -3  -3   6   57.39    9.70
   3  -3  -6   54.79    5.40
   3  -3  -6   47.90    9.00
  -3  -3   6   44.40    8.30
  -3  -3   6   77.79   11.80
  -3   3   6   42.30    5.30
   3   3  -6   39.60    7.50
   3   3  -6   52.09    6.30
   3   3  -6   46.30    8.80
  -3   3   6   60.29   10.30
  -1  -3   6  823.52   25.90
   1  -3  -6  768.52   28.80
   1  -3  -6  785.32   23.40
  -1  -3   6  807.92   25.10
   1  -3  -6  778.52   24.60
   1   3  -6  771.82   25.30
  -1   3   6  824.82   25.10
   1   3  -6  806.42   16.00
  -1   3   6  884.51   30.20
  -1   3   6  790.22   24.20
   1   3  -6  824.02   26.20
  -1  -3  -6  413.66   17.30
   1  -3   6  410.66   11.70
   1  -3   6  421.76   11.90
  -1  -3  -6  393.46   18.70
  -1  -3  -6  412.36   18.50
  -1  -3  -6  418.26   19.10
   1  -3   6  381.36   16.10
   1  -3   6  400.06   12.20
   1   3   6  405.46   18.60
  -1   3  -6  391.46   15.90
   1   3   6  399.36   16.90
  -3  -3  -6 1788.12   50.59
  -3  -3  -6 1868.11   51.59
  -3  -3  -6 1792.72   49.99
   3  -3   6 1836.42   45.30
   3  -3   6 1891.31   51.09
   3  -3   6 1761.72   41.80
  -3  -3  -6 1795.62   48.40
   3   3   6 1814.92   49.00
  -3   3  -6 1915.21   50.59
   3   3   6 1843.62   51.49
   3   3   6 1865.11   50.99
   5  -3   6   37.60    8.90
  -5  -3  -6   50.89   10.00
  -5  -3  -6   33.50    9.00
   5  -3   6   39.10    7.80
   5   3   6   37.60    9.20
   5   3   6   36.10    8.50
   7  -3   6   71.69   13.10
   7  -3   6   62.69   13.70
  -7  -3  -6   73.89   14.90
   7   3   6   66.19   13.30
   7   3   6   64.29   13.00
  -8  -4   6    8.70    8.70
   8  -4  -6   -1.50    7.60
   8   4  -6   -3.40    5.60
   8   4  -6    2.90    6.50
   8   4  -6   -8.60    6.20
   6  -4  -6    6.60    4.10
   6  -4  -6   10.70    6.00
   6  -4  -6    6.00    3.30
  -6  -4   6   14.30    6.50
   6   4  -6   15.20    6.00
   6   4  -6    8.20    5.80
  -6   4   6    7.00    5.70
   6   4  -6   12.50    5.90
   4  -4  -6    4.20    4.40
   4  -4  -6    3.30    2.20
  -4  -4   6   11.80    8.30
  -4  -4   6    0.30    3.10
   4  -4  -6    3.10    3.60
  -4  -4   6    2.90    4.40
  -4   4   6   -5.30    2.40
   4   4  -6   -0.10    3.10
   4   4  -6   -1.60    2.80
  -4   4   6   -3.10    4.00
   4   4  -6    7.20    5.30
   2  -4  -6   47.60    6.60
  -2  -4   6   44.90    8.00
   2  -4  -6   45.60    7.40
   2  -4  -6   40.70    8.70
  -2  -4   6   46.20    8.50
  -2  -4   6   61.79    9.60
  -2   4   6   58.39    6.60
   2   4  -6   56.89    9.80
   2   4  -6   48.00    9.10
   2   4  -6   47.30    4.80
  -2   4   6   45.80    9.00
   0  -4  -6    8.80    3.90
   0  -4  -6    8.30    3.40
   0  -4  -6   10.20    3.70
   0  -4   6    5.10    3.10
   0  -4   6    6.20    2.90
   0  -4   6    5.60    2.90
   0   4  -6    7.40    3.20
   0   4   6    9.00    4.30
   0   4   6   14.80    4.30
   0   4   6    9.40    4.20
   0   4  -6    1.60    2.70
  -2  -4  -6   87.69   10.40
  -2  -4  -6  111.99   11.40
   2  -4   6  109.79    7.60
  -2  -4  -6  109.19   11.10
   2  -4   6  106.99   10.20
  -2  -4  -6  107.09   10.00
  -2   4  -6   93.19   11.40
   2   4   6  105.89   11.00
  -4  -4  -6    9.70    5.20
  -4  -4  -6   20.60    7.00
   4  -4   6   13.60    5.00
   4  -4   6   17.80    5.50
  -4  -4  -6   14.00    5.70
   4  -4   6   20.40    7.20
  -4   4  -6   19.20    6.50
   4   4   6   14.20    7.00
   4   4   6   29.20    6.80
   4   4   6   16.20    6.00
  -6  -4  -6    4.80    4.70
   6  -4   6    4.80    4.10
   6   4   6   -1.90    3.30
   6   4   6   23.10    7.40
  -8  -4  -6    3.50    7.70
   8  -4   6    7.00    5.30
   8   4   6   14.00    9.20
   8   4   6    4.20    6.40
   7  -5  -6   10.70    6.30
   7  -5  -6   -1.00    6.60
  -7  -5   6   -0.30    5.40
   7   5  -6    0.50    6.70
   7   5  -6    6.90    5.80
   5  -5  -6   11.00    5.00
  -5  -5   6    9.80    5.10
   5   5  -6   21.20    7.20
  -5   5   6   11.90    4.40
   5   5  -6   13.40    5.00
   5   5  -6   22.50    6.80
  -5   5   6   37.50   10.10
   3  -5  -6   27.90    5.40
   3  -5  -6   19.60    5.50
  -3  -5   6   29.10    8.20
   3  -5  -6   10.60    7.50
   3  -5  -6   10.90    4.10
  -3  -5   6   21.90    6.10
  -3  -5   6   22.30    6.60
   3  -5  -6   21.10    4.50
  -3   5   6   25.00    7.90
  -3   5   6   19.30    5.30
   3   5  -6   26.40    5.30
   3   5  -6   27.60    7.60
   3   5  -6   10.90    5.80
   1  -5  -6  157.58   11.60
   1  -5  -6  200.88   12.90
  -1  -5   6  195.58   14.10
  -1  -5   6  222.38   21.70
   1  -5  -6  189.68   12.80
  -1  -5   6  185.58   14.40
  -1   5   6  171.08   12.80
   1   5  -6  195.18   14.10
  -1   5   6  179.48   16.00
   1   5  -6  165.48   12.60
  -1  -5  -6  356.86   20.60
  -1  -5  -6  331.97   21.30
   1  -5   6  354.76   14.00
   1  -5   6  348.27    9.90
   1  -5   6  348.37    9.70
  -1  -5  -6  339.07   20.30
   1  -5   6  353.76   14.30
   1  -5   6  357.16   18.90
  -1  -5  -6  335.87   17.20
  -1   5  -6  355.96   19.70
   1   5   6  360.56   21.00
   1   5   6  318.07   19.50
  -1   5  -6  346.67   14.90
  -3  -5  -6  109.99   11.40
  -3  -5  -6  112.69   13.50
   3  -5   6  128.19   11.30
   3  -5   6  101.09   16.90
   3  -5   6  113.89    9.70
  -3   5  -6  128.79   13.30
   3   5   6  121.39   12.10
   3   5   6   92.09   14.00
   3   5   6  106.19   15.60
   5  -5   6   28.60    7.40
   5  -5   6   32.80    8.00
  -5  -5  -6   42.00   11.00
  -5   5  -6   20.20    7.00
   5   5   6   18.50    7.70
   5   5   6   24.70    7.50
   7  -5   6   35.60   10.90
  -7  -5  -6   38.80   12.20
   7  -5   6   14.30    7.20
   7   5   6   31.40    9.90
   7   5   6   29.40   12.50
  -6  -6   6   13.90    9.00
   6  -6  -6   13.00    7.00
   6  -6  -6   12.30    7.30
   6   6  -6    4.60    5.20
   6   6  -6   18.00    8.10
  -6   6   6   23.10   15.50
   4  -6  -6  208.18   18.60
  -4  -6   6  215.28   20.30
   4   6  -6  206.98   20.20
  -4   6   6  234.68   21.50
   4   6  -6  183.18   13.50
   4   6  -6  215.78   20.40
  -4   6   6  181.08   12.70
  -2  -6   6   12.30    5.40
   2  -6  -6    6.00    4.50
   2  -6  -6    9.70    3.90
   2  -6  -6   20.30    5.20
  -2  -6   6   16.30    5.60
  -2   6   6   10.20    5.00
  -2   6   6   19.50    7.00
   2   6  -6   14.10    5.70
   2   6  -6   13.60    2.60
   2   6  -6    4.90    4.50
   2   6  -6   13.60    6.30
   0  -6  -6   40.10    8.50
   0  -6   6   35.80    6.70
   0  -6  -6   39.50    7.30
   0  -6   6   25.30    6.10
   0  -6   6   35.70    8.20
   0  -6  -6   36.90    8.00
   0   6   6   15.60    7.70
   0   6  -6   21.90    6.80
   0   6  -6   39.10    8.00
   0   6   6   39.20    8.10
   0   6   6   28.50    6.40
  -2  -6  -6  569.94   29.80
   2  -6   6  532.85   17.80
   2  -6   6  575.44   30.00
  -2  -6  -6  570.54   25.20
  -2  -6  -6  545.65   29.20
   2  -6   6  532.15   17.40
  -2   6  -6  527.75   27.40
   2   6   6  552.34   24.70
   4  -6   6   45.60    9.10
  -4  -6  -6   29.20    9.00
   4  -6   6   29.50    7.30
  -4  -6  -6   18.60    9.10
   4   6   6   29.60    7.30
   4   6   6   32.10   10.40
  -4   6  -6   20.70    7.90
  -6  -6  -6   -2.90    5.90
   6  -6   6   11.70    5.90
   6  -6   6   20.40    5.80
   6   6   6    7.10   11.70
   6   6   6   18.80    8.00
   5  -7  -6   23.10    8.80
  -5  -7   6   57.29   19.20
  -5   7   6   28.70   13.40
   5   7  -6   33.00   11.80
   5   7  -6   44.60    9.20
   5   7  -6   19.20   12.00
   3  -7  -6   13.20    4.00
  -3  -7   6    2.20    5.10
   3  -7  -6   -6.00    3.40
  -3  -7   6   11.40    5.00
   3  -7  -6    9.50    3.40
   3   7  -6   -2.50    4.60
  -3   7   6    7.30    6.10
   3   7  -6    9.70    3.40
   3   7  -6   -6.40    3.10
   1  -7  -6   12.60    4.60
   1  -7  -6   15.90    5.40
  -1  -7   6   13.70    6.20
   1  -7  -6    9.30    4.10
   1   7  -6   20.80    5.90
   1   7  -6   19.70    8.20
  -1   7   6    9.10    5.90
  -1  -7  -6   10.60    4.90
   1  -7   6    6.40    3.30
  -1  -7  -6    8.00    4.50
   1  -7   6   15.00    4.10
  -1  -7  -6   11.00    5.40
  -1   7  -6    7.20    5.20
   1   7   6    7.30    4.40
   1   7   6    4.90    5.80
   3  -7   6   48.20   10.70
  -3  -7  -6   52.19   10.80
   3  -7   6   53.19    7.70
   3  -7   6   62.39    7.60
  -3  -7  -6   52.99    9.90
   3   7   6   43.90   10.10
  -3   7  -6   56.69   12.00
   5  -7   6   20.80    7.40
  -5  -7  -6   26.50   12.60
   5  -7   6   14.50    6.00
  -5   7  -6   27.20   10.50
   5   7   6   21.10    8.20
   4  -8  -6  211.48   23.20
  -4  -8   6  170.48   28.60
   4   8  -6  211.78   23.00
  -4   8   6  192.08   24.30
   4   8  -6  191.18   12.80
   2  -8  -6   -1.90    3.20
  -2  -8   6    4.70    4.50
   2  -8  -6   10.60    6.70
  -2  -8   6    0.60    6.90
   2  -8  -6    3.10    4.20
   2   8  -6    3.50    6.80
  -2   8   6   -0.80    5.00
   2   8  -6    3.10    5.20
   0  -8   6   80.99   10.00
   0  -8  -6   65.19   11.70
   0  -8  -6   70.19   10.50
   0  -8   6   83.09   11.60
   0  -8  -6   81.39   13.30
   0   8  -6   85.49   13.10
   0   8  -6   86.99   14.50
   0   8   6   64.89   13.10
  -2  -8  -6   66.19   13.90
  -2  -8  -6   56.99   13.50
   2   8   6   60.29   13.80
   2   8   6   62.19   10.10
  -2   8  -6   75.49   13.80
   4  -8   6   -1.70    5.10
  -4  -8  -6    7.30    7.60
   4  -8   6   13.50    6.40
   4  -8   6   12.30    5.40
   4   8   6   -4.80    9.00
  -4   8  -6   10.80    7.60
   3  -9  -6    3.00    5.40
  -3  -9   6   -2.10    5.80
   3   9  -6   13.00    8.00
  -3   9   6    8.00   10.00
   3   9  -6    0.10    7.20
   1  -9  -6   49.90   14.00
  -1  -9   6   55.79   12.40
  -1  -9   6   60.29   11.20
   1  -9  -6   55.69   10.40
  -1   9   6   53.19   14.80
   1   9  -6   71.19   13.70
   1  -9   6    2.30    4.80
  -1  -9  -6   10.70    8.70
   1  -9   6   12.30    4.40
  -1  -9  -6   -4.90    4.70
   1   9   6   -7.50    6.50
  -1   9  -6   -9.30    6.30
  -3  -9  -6    5.40    6.30
   3  -9   6   -0.90    5.40
   3   9   6    9.10    6.50
   3   9   6   -3.00    8.10
   8   0  -7   13.50    7.50
   8   0  -7   -9.30    4.80
   8   0  -7   -4.00    4.40
  -8   0   7    5.40    6.60
   6   0  -7    0.00    3.70
   6   0  -7    0.60    2.60
   6   0  -7    0.50    2.90
   4   0  -7    4.70    3.80
   4   0  -7    1.30    2.30
  -4   0   7    0.50    1.90
   4   0  -7    1.20    2.90
  -4   0   7    3.00    3.00
   2   0  -7   -1.50    1.70
   2   0  -7   -0.40    1.60
   2   0  -7    0.80    1.60
  -2   0   7   -1.00    1.60
  -2   0   7   -0.70    1.80
   0   0  -7    6.10    1.90
   0   0   7   -0.50    1.00
   0   0  -7    1.20    1.10
   0   0  -7    2.00    1.00
   0   0   7   -0.60    1.10
   2   0   7   -1.60    0.80
  -2   0  -7   -0.30    1.10
   2   0   7    0.70    1.20
   2   0   7   -1.50    1.20
  -2   0  -7    3.20    2.00
  -2   0  -7    1.20    1.40
  -4   0  -7   -1.70    1.70
   4   0   7   -0.80    2.80
  -4   0  -7    0.70    2.50
   4   0   7   -2.80    1.90
   4   0   7   -1.50    1.90
  -4   0  -7    2.20    2.70
  -4   0  -7    3.10    2.60
   6   0   7   -3.40    2.70
  -6   0  -7   -1.10    4.30
   6   0   7    2.00    4.30
  -6   0  -7    3.00    4.00
   8   0   7   -3.20    5.80
  -8   0  -7   10.50    6.80
  -9  -1   7   34.10   12.40
   9  -1  -7   47.00   14.00
   9  -1  -7   53.89   12.50
   9   1  -7   41.30   11.10
  -9   1   7   14.50   11.60
   9   1  -7   42.20   12.60
  -7  -1   7   62.69   13.20
   7  -1  -7   59.39   12.90
   7  -1  -7   50.99   11.50
   7  -1  -7   57.59   10.40
   7   1  -7   80.49   14.20
   7   1  -7   49.60   11.60
   7   1  -7   34.40    9.10
   5  -1  -7   23.90    6.60
   5  -1  -7   29.40    8.90
  -5  -1   7   20.70    6.40
   5  -1  -7   44.30    9.50
  -5  -1   7   26.80    6.50
   5  -1  -7   29.50    6.20
  -5   1   7   26.40    6.60
   5   1  -7   31.80    7.90
  -5   1   7   35.30    8.60
   5   1  -7   32.60    8.30
   5   1  -7   26.30    7.20
   5   1  -7   36.70    7.90
   3  -1  -7  854.21   25.30
   3  -1  -7  776.82   27.00
   3  -1  -7  820.22   28.60
  -3  -1   7  809.22   27.30
  -3  -1   7  791.12   27.10
  -3   1   7  807.22   28.30
   3   1  -7  830.42   27.90
   3   1  -7  803.52   25.30
   3   1  -7  816.92   28.30
  -3   1   7  844.42   25.20
  -3   1   7  815.02   27.40
   1  -1  -7  642.74   18.90
   1  -1  -7  667.93   19.30
   1  -1  -7  668.83   20.40
  -1  -1   7  679.73   19.80
  -1  -1   7  663.13   18.00
   1   1  -7  692.83   18.70
   1   1  -7  672.43   20.00
  -1   1   7  624.04   19.50
   1   1  -7  689.53   17.20
  -1   1   7  644.24   19.00
  -1   1   7  639.94   20.00
   1   1  -7  654.23   13.70
  -1  -1  -7  278.77   11.00
   1  -1   7  265.87    9.50
   1  -1   7  283.17   10.80
  -1  -1  -7  272.07   12.40
  -1  -1  -7  278.87   12.50
   1  -1   7  279.47   10.40
  -1   1  -7  272.87   10.70
   1   1   7  276.87   12.60
  -1   1  -7  281.77   11.30
  -3  -1  -7  131.49    9.60
  -3  -1  -7  146.79   10.60
   3  -1   7  146.79   11.10
  -3  -1  -7  135.19   10.50
   3  -1   7  126.39    8.10
  -3  -1  -7  134.59   10.90
   3  -1   7  124.29   10.60
   3  -1   7  134.29    7.60
   3   1   7  139.99   13.50
  -3   1  -7  122.79    9.30
  -3   1  -7  124.99    7.70
  -3   1  -7  127.79    7.60
   3   1   7  140.89   10.10
  -3   1  -7  132.89   10.70
   3   1   7  139.09   10.40
  -5  -1  -7   -3.80    3.40
   5  -1   7    1.80    3.00
  -5  -1  -7    4.20    3.40
   5  -1   7    0.60    2.30
  -5  -1  -7   -1.50    3.00
  -5  -1  -7    3.30    4.20
   5  -1   7    7.50    3.30
  -5   1  -7    2.60    2.70
  -5   1  -7   -3.70    2.90
  -5   1  -7   -0.20    2.80
   5   1   7    4.40    3.30
  -5   1  -7   -3.90    2.40
  -7  -1  -7  111.39   16.30
   7  -1   7   81.29   14.30
   7  -1   7  100.79   14.90
   7   1   7  126.29   19.20
  -7   1  -7   95.59   11.60
   8  -2  -7  103.39   17.80
  -8  -2   7   85.79   17.10
   8  -2  -7   88.59   11.20
  -8   2   7   88.29   14.60
   8   2  -7  120.09   31.00
   8   2  -7   64.49   14.70
   6  -2  -7  449.95   21.20
   6  -2  -7  434.36   26.30
  -6  -2   7  419.26   27.20
   6   2  -7  400.76   25.10
   6   2  -7  467.75   35.40
   4  -2  -7  416.16   21.70
   4  -2  -7  415.66   23.50
  -4  -2   7  410.96   21.60
   4  -2  -7  399.66   17.40
  -4  -2   7  409.86   21.90
   4   2  -7  434.76   22.60
  -4   2   7  439.26   23.60
   4   2  -7  423.56   22.90
  -4   2   7  425.66   18.10
   4   2  -7  441.56   21.10
  -4   2   7  440.36   21.90
   2  -2  -7 1075.49   30.90
   2  -2  -7 1070.89   27.80
   2  -2  -7 1072.09   31.50
  -2  -2   7 1099.19   31.20
  -2  -2   7 1120.79   31.90
   2  -2  -7 1101.99   33.80
   2   2  -7 1122.09   27.20
   2   2  -7 1122.39   32.00
  -2   2   7 1060.49   28.00
   2   2  -7 1128.19   32.70
   0  -2   7 3035.60   50.99
   0  -2   7 3013.00   55.19
   0  -2   7 3123.79   54.39
   0  -2  -7 3039.80   59.39
   0  -2  -7 2994.60   59.39
   0  -2   7 2993.10   48.60
   0   2  -7 3034.90   50.49
   0   2   7 3121.09   59.59
   0   2  -7 3007.40   55.69
   0   2  -7 3103.19   54.19
   0   2   7 3013.60   65.49
   0   2  -7 3036.30   48.70
  -2  -2  -7    9.90    3.50
  -2  -2  -7   12.40    4.40
  -2  -2  -7    7.30    3.50
  -2  -2  -7    7.60    3.10
   2  -2   7    8.90    2.30
   2  -2   7    5.10    2.50
  -2   2  -7    6.90    1.70
  -2   2  -7   12.70    3.40
   2   2   7   14.50    4.10
   2   2   7    9.40    3.30
   2   2   7    9.10    3.30
   4  -2   7 1934.01   46.10
  -4  -2  -7 1888.31   51.19
   4  -2   7 1896.41   54.49
  -4  -2  -7 1943.81   53.99
  -4  -2  -7 1771.52   55.79
   4  -2   7 1962.80   52.69
  -4  -2  -7 1819.42   52.69
   4   2   7 1968.30   54.49
  -4   2  -7 1847.02   50.89
   4   2   7 1873.61   51.99
   4   2   7 1965.30   52.99
  -4   2  -7 1899.81   44.90
  -4   2  -7 1922.71   38.50
  -4   2  -7 2142.69   45.30
   6  -2   7  219.38   19.20
   6  -2   7  210.28   16.30
  -6  -2  -7  199.18   18.10
   6   2   7  203.38   17.70
  -6   2  -7  237.08   17.10
   6   2   7  228.98   19.80
  -6   2  -7  202.48   12.60
  -6   2  -7  206.28   12.60
  -8  -2  -7   30.20   10.30
   8  -2   7   17.70    8.60
   8   2   7   29.90   16.70
  -8   2  -7   14.20    7.40
   8   2   7   12.80    8.10
   7  -3  -7    1.80    5.60
   7  -3  -7   -0.80    5.60
   7  -3  -7    2.70    3.20
   7   3  -7    3.60    5.10
   7   3  -7   15.80    7.00
   7   3  -7   11.20    4.80
   5  -3  -7  229.98   17.80
  -5  -3   7  278.27   21.00
   5  -3  -7  258.87   14.00
   5   3  -7  288.57   21.10
   5   3  -7  247.08   17.60
  -5   3   7  238.48   16.90
  -5   3   7  219.48   18.80
   5   3  -7  223.28   18.40
  -3  -3   7  122.39   11.50
  -3  -3   7  121.59   11.50
   3  -3  -7  124.89    8.70
   3  -3  -7  129.69   11.60
   3  -3  -7  114.09   12.20
   3   3  -7  133.49    9.60
   3   3  -7  131.29   12.30
   3   3  -7  134.39   12.30
  -3   3   7  124.89    9.00
  -3   3   7  133.09   12.70
   1  -3  -7 1327.47   33.70
  -1  -3   7 1341.27   35.40
  -1  -3   7 1384.16   35.40
   1  -3  -7 1337.07   35.30
  -1   3   7 1385.86   35.00
  -1   3   7 1378.66   40.30
  -1   3   7 1353.46   35.30
   1   3  -7 1331.47   24.10
   1   3  -7 1330.47   23.80
   1   3  -7 1325.67   35.80
   1   3  -7 1392.16   36.20
   1  -3   7 1080.09   29.30
   1  -3   7 1123.49   23.90
  -1  -3  -7 1159.08   32.30
   1  -3   7 1130.59   24.70
   1  -3   7 1111.49   27.90
  -1  -3  -7 1068.49   33.10
   1  -3   7 1121.09   23.40
   1   3   7 1099.99   31.60
  -1   3  -7 1087.79   28.90
   1   3   7 1167.28   34.40
  -3  -3  -7   62.89    7.90
   3  -3   7   66.19    7.30
   3  -3   7   60.89    6.30
  -3  -3  -7   46.90    8.40
  -3  -3  -7   54.49    9.60
  -3  -3  -7   70.79   11.20
   3  -3   7   60.09    9.50
   3   3   7   76.79    9.10
  -3   3  -7   67.59    8.50
   3   3   7   53.39    9.50
   3   3   7   49.00    8.90
   5  -3   7  249.08   16.00
  -5  -3  -7  270.47   20.60
   5  -3   7  270.47   18.90
  -5  -3  -7  228.08   18.20
   5   3   7  241.48   19.60
   5   3   7  242.78   19.00
   5   3   7  273.57   20.00
   7  -3   7  113.49   16.90
  -7  -3  -7  132.79   16.30
   7  -3   7  133.09   14.10
   7   3   7  124.39   18.80
   7   3   7   99.89   16.50
  -8  -4   7  109.29   20.50
   8  -4  -7   88.69   17.30
   8  -4  -7  109.89   19.00
   8   4  -7   90.99   17.50
   8   4  -7   87.49   18.10
   8   4  -7  110.89   18.30
  -6  -4   7   75.79   15.80
   6  -4  -7   81.69   14.20
   6  -4  -7   53.99   12.40
   6  -4  -7   65.29    6.90
   6   4  -7   68.89   12.10
   6   4  -7   47.00   10.80
  -6   4   7   58.89   13.00
   6   4  -7   72.89   13.80
  -4  -4   7 1077.09   49.10
  -4  -4   7 1112.99   43.10
   4  -4  -7 1119.09   29.50
   4  -4  -7  999.70   49.30
  -4  -4   7 1039.20   40.60
   4  -4  -7 1095.29   40.50
   4   4  -7  982.10   40.30
   4   4  -7 1073.29   34.40
  -4   4   7 1072.69   31.10
   4   4  -7 1032.80   41.70
  -4   4   7 1122.59   44.10
   2  -4  -7  551.14   25.00
  -2  -4   7  524.05   24.60
  -2  -4   7  534.15   24.30
   2  -4  -7  536.35   22.50
   2  -4  -7  480.85   25.80
   2  -4  -7  558.44   20.10
  -2  -4   7  536.95   24.00
  -2   4   7  547.85   20.90
   2   4  -7  534.65   24.50
  -2   4   7  540.35   26.90
   2   4  -7  536.45   16.10
   2   4  -7  574.14   25.50
   0  -4  -7 3995.60   79.39
   0  -4  -7 4086.49   82.19
   0  -4  -7 4030.70   81.69
   0  -4   7 4034.00   75.49
   0  -4   7 4011.40   79.79
   0   4   7 4156.58   82.69
   0   4  -7 4026.80   77.19
   0   4   7 4020.30   89.39
   0   4   7 4042.00   79.09
   0   4  -7 4018.50   76.79
  -2  -4  -7  319.57   17.20
  -2  -4  -7  310.67   19.00
  -2  -4  -7  296.67   18.70
  -2  -4  -7  305.07   19.00
   2  -4   7  294.27   12.90
   2  -4   7  294.77   17.20
  -2   4  -7  290.17   16.70
   2   4   7  284.17   18.40
   2   4   7  329.07   17.60
  -4  -4  -7  501.25   28.10
  -4  -4  -7  502.35   26.10
   4  -4   7  475.85   27.20
  -4  -4  -7  526.85   28.60
  -4  -4  -7  524.35   28.10
   4  -4   7  506.85   24.00
   4  -4   7  491.55   21.80
   4   4   7  529.75   28.60
  -4   4  -7  505.05   26.90
   4   4   7  518.85   26.80
   4   4   7  477.95   27.80
   6  -4   7  285.37   26.00
   6  -4   7  278.17   19.10
  -6  -4  -7  295.07   24.20
   6   4   7  256.77   21.90
   6   4   7  289.27   23.50
  -8  -4  -7   68.59   15.90
   8  -4   7   78.99   14.80
   8   4   7   63.39   14.20
   8   4   7   51.29   15.90
   7  -5  -7   79.59   15.80
  -7  -5   7   99.69   19.00
   7  -5  -7   71.19   14.50
   7   5  -7   87.79   20.40
   7   5  -7   90.19   14.80
   7   5  -7  117.89   32.20
  -5  -5   7    5.50    3.80
   5  -5  -7   -2.60    3.30
   5   5  -7    8.30    4.40
  -5   5   7   17.40    7.90
   5   5  -7   14.00    6.00
  -5   5   7   -2.30    3.10
   5   5  -7   -0.80    4.20
   3  -5  -7   69.39   12.20
   3  -5  -7   78.19   11.60
  -3  -5   7   55.89   10.90
   3  -5  -7   46.30    7.00
  -3  -5   7   37.80    9.00
  -3  -5   7   29.00    7.70
   3   5  -7   43.10    9.40
   3   5  -7   54.89    6.40
   3   5  -7   52.89   10.00
  -3   5   7   56.29   11.40
  -1  -5   7   -3.60    2.70
   1  -5  -7   -0.50    2.30
   1  -5  -7   -1.90    1.90
   1  -5  -7    0.10    2.40
  -1  -5   7   -2.50    1.80
   1   5  -7    2.60    2.90
  -1   5   7    5.30    3.20
   1   5  -7    3.60    3.00
  -1   5   7   -3.00    1.90
  -1  -5  -7  108.99   11.40
   1  -5   7  147.59   12.10
  -1  -5  -7  106.29   10.40
  -1  -5  -7  129.59   23.40
   1  -5   7  120.59   11.40
  -1  -5  -7  127.99   12.20
   1  -5   7  126.29    8.10
   1  -5   7  126.09    8.40
   1   5   7  114.49   10.60
  -1   5  -7  112.39    8.70
  -3  -5  -7   80.19   11.70
  -3  -5  -7   77.49   13.50
   3  -5   7   61.29    9.40
  -3  -5  -7   82.39   13.90
   3  -5   7   74.79    8.00
   3   5   7   79.79   11.60
  -3   5  -7   96.99   11.60
   3   5   7   78.99   15.50
  -5  -5  -7    0.30    4.10
   5  -5   7    1.30    3.30
   5  -5   7    7.60    4.30
  -5   5  -7   14.00    5.40
   5   5   7    6.70    5.40
   5   5   7    8.30    5.40
  -7  -5  -7    1.10    7.90
   7  -5   7    9.90    4.10
   7  -5   7   11.90    6.40
   7   5   7    4.50    6.40
   6  -6  -7    5.10    7.00
   6  -6  -7    3.30    6.30
  -6  -6   7    5.40    7.30
   6   6  -7    4.30    6.40
   6   6  -7   18.90    7.50
   4  -6  -7   75.89    6.80
   4  -6  -7   72.39   13.10
   4  -6  -7   69.09    7.00
  -4  -6   7   61.69   12.70
  -4   6   7   79.59   11.70
  -4   6   7   63.89   13.40
   4   6  -7   91.79    9.80
   4   6  -7   64.69   12.90
   4   6  -7   61.59   12.70
  -2  -6   7   66.49   11.20
   2  -6  -7   74.79    8.40
  -2  -6   7   70.19   11.70
   2  -6  -7   67.29    9.50
   2  -6  -7   59.19   10.00
   2   6  -7   59.29   10.00
  -2   6   7   68.49   13.30
   2   6  -7   61.79   11.20
  -2   6   7   63.59    9.80
   2   6  -7   49.10   10.20
   0  -6  -7   96.69   11.40
   0  -6   7  104.49   15.60
   0  -6  -7  103.59   11.30
   0  -6  -7   86.19    9.60
   0  -6   7  101.99   10.20
   0  -6   7  107.89    9.70
   0   6   7  101.19   10.10
   0   6   7  101.59   15.70
   0   6  -7  102.69   10.50
   0   6  -7  115.19   11.50
   2  -6   7    4.20    2.30
  -2  -6  -7   -2.50    2.90
  -2  -6  -7    1.60    4.10
  -2  -6  -7    0.30    4.70
   2  -6   7    6.80    4.50
   2  -6   7    2.90    2.30
   2   6   7    1.90    3.50
  -2   6  -7    5.50    4.10
  -4  -6  -7    3.70    3.80
   4  -6   7    1.60    4.00
   4  -6   7    3.80    3.70
  -4   6  -7    6.30    4.50
   4   6   7   -0.60    4.00
  -6  -6  -7   12.70    8.70
   6  -6   7   -0.50    5.60
   6  -6   7    7.30    5.60
   6   6   7  -13.90    5.70
   5  -7  -7   11.40    6.50
   5   7  -7    2.60    5.30
   5   7  -7    0.10    5.90
   5   7  -7    1.10    7.60
   3  -7  -7    3.10    3.00
  -3  -7   7   11.20    5.50
  -3  -7   7  -10.10    5.70
   3  -7  -7   -3.20    4.50
   3  -7  -7   14.30    4.50
   3  -7  -7    8.60    5.00
  -3   7   7   13.70    5.90
   3   7  -7   -7.00    3.80
   3   7  -7   -0.80    4.60
   3   7  -7    5.70    2.80
  -1  -7   7   55.19   12.70
   1  -7  -7   31.40    7.70
  -1  -7   7   33.30    8.10
   1  -7  -7   44.90   10.80
   1  -7  -7   46.60    9.00
   1   7  -7   26.10    7.70
  -1   7   7   32.40    9.20
   1   7  -7   29.90    8.00
   1  -7   7   59.69    8.40
  -1  -7  -7   36.00    9.60
  -1  -7  -7   66.29   12.60
   1  -7   7   61.99    6.90
  -1  -7  -7   48.40    8.70
   1   7   7   67.29   10.00
  -1   7  -7   47.80    8.60
   1   7   7   57.09   12.90
  -1   7  -7   48.40   10.60
   3  -7   7    3.70    3.60
  -3  -7  -7   -6.10    4.40
   3  -7   7    5.20    2.90
   3  -7   7    2.90    2.70
  -3  -7  -7   -7.80    4.60
   3   7   7    7.40    4.80
  -3   7  -7   -6.30    3.80
   5  -7   7   -4.00    4.40
   5  -7   7   -3.40    4.00
  -5   7  -7   -8.20    7.00
   5   7   7    9.30    6.80
  -4  -8   7    7.70    5.90
   4   8  -7   -3.00    6.30
   4   8  -7    7.70    4.70
   2  -8  -7   -6.20    3.50
  -2  -8   7   -1.30    4.80
  -2  -8   7    1.30    5.90
   2  -8  -7   -5.70    2.70
   2  -8  -7   -1.60    6.10
   2   8  -7    4.50    5.30
  -2   8   7   -4.20    5.90
   2   8  -7    1.40    4.70
   0  -8  -7   20.70    7.00
   0  -8   7   28.90    6.60
   0  -8  -7    7.00    6.00
   0  -8   7   23.00    6.90
   0   8  -7   27.40    8.20
   0   8  -7   17.00    5.90
   0   8   7   26.00    8.60
  -2  -8  -7   11.10    6.70
  -2  -8  -7    6.20    5.80
   2   8   7    6.70    6.90
  -2   8  -7   10.40    6.00
   2   8   7    6.70    4.90
   4  -8   7    3.10    4.20
   4  -8   7    8.30    5.00
  -4  -8  -7   -1.40    7.00
  -4   8  -7   -3.50    6.10
   3  -9  -7    0.10    3.70
   3  -9  -7    3.40    6.40
  -3  -9   7   -2.30    6.20
   3   9  -7   -5.00    7.30
   3   9  -7   -2.00    6.60
  -3   9   7    6.10    8.10
   1  -9  -7    2.70    5.10
   1  -9  -7   15.10    7.30
  -1  -9   7   18.30    6.50
   1  -9  -7   -5.90    8.30
  -1  -9   7    0.90    7.50
   1   9  -7   19.70    7.70
   1   9  -7   15.00    7.70
   1  -9   7   -2.80    4.00
  -1  -9  -7    8.00    6.10
  -1  -9  -7   -1.80    7.10
   1  -9   7    1.80    4.00
  -1  -9  -7   11.70    7.50
  -1   9  -7    4.60    6.20
   1   9   7    4.30   11.80
  -3  -9  -7   38.20   11.00
   3  -9   7   32.80    9.60
   3   9   7   45.90   13.80
   3   9   7   39.70   10.10
  -3   9  -7   53.59   13.70
   8   0  -8  100.39   18.20
   8   0  -8   95.79   17.40
   8   0  -8  134.49   15.20
  -8   0   8  117.39   17.90
   6   0  -8 1125.39   44.40
   6   0  -8 1144.19   40.90
   6   0  -8 1199.48   45.70
  -4   0   8    9.20    3.60
   4   0  -8    8.20    3.90
  -4   0   8   10.90    3.50
   4   0  -8    9.40    4.20
   4   0  -8   10.40    4.30
  -2   0   8  541.75   17.90
  -2   0   8  539.85   18.90
   2   0  -8  542.25   19.00
   2   0  -8  555.54   18.20
   2   0  -8  537.45   19.10
   0   0  -8 9854.11  148.39
   0   0   8 9821.82  154.88
   0   0  -8 9999.00  154.88
   0   0  -8 9615.74  154.78
   0   0   8 9815.32  154.48
   2   0   8 1446.86   37.10
   2   0   8 1521.65   34.30
   2   0   8 1485.45   30.60
  -2   0  -8 1468.45   30.20
  -2   0  -8 1412.66   33.90
  -2   0  -8 1500.65   37.20
   4   0   8  696.43   29.00
  -4   0  -8  683.93   23.70
   4   0   8  653.13   23.80
  -4   0  -8  649.74   27.70
   4   0   8  628.14   23.60
  -4   0  -8  626.54   23.70
  -4   0  -8  649.34   24.20
  -6   0  -8   84.39   10.20
   6   0   8   62.09   10.50
   8   0   8  220.48   20.30
  -8   0  -8  254.97   21.30
   8   0   8  217.98   26.40
   7  -1  -8    6.30    3.90
  -7  -1   8   12.90    7.00
   7  -1  -8    3.10    4.40
   7  -1  -8   10.10    5.70
   7   1  -8   20.50    7.30
   7   1  -8   17.90    7.30
   7   1  -8   14.40    5.40
   5  -1  -8  496.45   26.10
  -5  -1   8  477.45   25.30
  -5  -1   8  460.15   24.10
   5  -1  -8  489.45   22.50
   5  -1  -8  565.64   41.70
   5   1  -8  500.25   25.20
   5   1  -8  501.25   25.80
   5   1  -8  493.85   24.90
  -5   1   8  507.55   25.70
   5   1  -8  528.05   27.10
   3  -1  -8   19.50    4.50
  -3  -1   8   21.70    4.90
  -3  -1   8   29.80    5.90
   3  -1  -8   27.30    6.00
  -3   1   8   27.40    5.40
  -3   1   8   33.50    6.10
   3   1  -8   23.80    6.70
  -3   1   8   25.50    6.00
   3   1  -8   21.60    4.80
   3   1  -8   31.60    6.80
   1  -1  -8  450.05   16.50
   1  -1  -8  454.85   15.50
  -1  -1   8  435.26   15.80
  -1  -1   8  427.46   14.00
   1  -1  -8  424.76   16.00
   1  -1  -8  423.26   15.40
  -1   1   8  450.55   16.30
   1   1  -8  435.96   16.00
  -1   1   8  437.46   15.70
   1   1  -8  423.76   13.60
  -1   1   8  439.96   16.20
   1   1  -8  441.46   10.10
   1   1  -8  433.06   14.40
   1  -1   8  660.53   18.90
  -1  -1  -8  667.63   18.70
  -1  -1  -8  688.73   21.50
   1  -1   8  660.13   17.40
  -1  -1  -8  675.33   21.50
   1   1   8  651.93   21.10
  -1   1  -8  629.44   18.50
  -1   1  -8  661.13   17.50
   3  -1   8  223.98   10.40
  -3  -1  -8  244.88   15.10
   3  -1   8  221.28   14.00
  -3  -1  -8  242.38   12.80
   3  -1   8  195.38   13.10
   3  -1   8  215.18   10.60
  -3  -1  -8  222.38   13.50
  -3  -1  -8  237.58   13.80
  -3   1  -8  219.58   10.50
  -3   1  -8  225.98   13.80
  -3   1  -8  227.18   10.30
   3   1   8  205.48   12.20
  -3   1  -8  230.68   10.80
   3   1   8  229.68   14.70
   3   1   8  220.58   13.40
   5  -1   8    2.20    2.30
   5  -1   8    4.40    3.70
  -5  -1  -8   13.30    5.20
  -5  -1  -8   -0.60    2.50
  -5  -1  -8   -1.10    2.30
   5  -1   8    2.10    2.60
  -5  -1  -8    1.50    3.50
   5   1   8   -0.90    2.60
  -5   1  -8    2.80    2.50
  -5   1  -8    5.80    2.90
  -5   1  -8   -3.00    3.20
   5   1   8    2.20    2.70
  -5   1  -8   -0.80    2.60
   5   1   8   -1.80    2.70
   7  -1   8   -0.80    3.40
  -7  -1  -8   -3.60    4.70
   7  -1   8   -1.50    4.20
  -7   1  -8    5.50    4.40
   7   1   8   -3.20    4.20
   8  -2  -8   91.59   17.10
   8  -2  -8   50.49   10.10
  -8   2   8   54.29   11.50
   8   2  -8   71.59   15.60
   6  -2  -8  160.18   12.70
  -6  -2   8  133.49   15.80
   6  -2  -8  152.58   18.10
   6  -2  -8  166.08   29.30
   6   2  -8  137.09   16.00
   6   2  -8  132.49   14.80
   6   2  -8  113.89   15.30
   6   2  -8  157.08   15.60
  -4  -2   8 1295.87   41.80
  -4  -2   8 1334.47   42.60
   4  -2  -8 1335.07   36.20
   4  -2  -8 1348.27   42.40
   4  -2  -8 1311.37   44.80
  -4   2   8 1374.66   42.20
   4   2  -8 1346.17   40.40
   4   2  -8 1387.76   44.40
   4   2  -8 1354.56   43.20
   4   2  -8 1304.87   38.40
  -4   2   8 1368.76   44.90
  -4   2   8 1369.56   36.90
   2  -2  -8  363.96   16.80
   2  -2  -8  356.36   14.90
   2  -2  -8  336.27   16.50
  -2  -2   8  343.57   15.80
   2  -2  -8  334.77   17.30
  -2  -2   8  308.07   15.80
  -2   2   8  362.86   15.10
   2   2  -8  364.36   16.80
   2   2  -8  349.37   16.90
   0  -2  -8 5488.95   93.19
   0  -2   8 5381.86   81.49
   0  -2   8 5189.88   85.09
   0  -2   8 5118.29   87.49
   0  -2   8 4949.90   80.89
   0   2  -8 5042.70   80.59
   0   2   8 5194.18   92.49
   0   2  -8 5190.38   88.39
   0   2  -8 5184.08   85.49
   0   2   8 5124.29   92.69
   0   2  -8 5091.39   81.09
  -2  -2  -8 2663.03   59.69
   2  -2   8 2637.04   48.20
   2  -2   8 2781.42   55.49
  -2  -2  -8 2828.22   58.99
  -2  -2  -8 2726.43   60.59
  -2  -2  -8 2718.83   61.29
   2   2   8 2824.52   61.09
   2   2   8 2684.83   60.59
   2   2   8 2696.73   58.39
  -2   2  -8 2777.22   55.09
   4  -2   8   52.99    7.80
   4  -2   8   57.49   10.50
   4  -2   8   52.19    9.20
  -4  -2  -8   68.69   12.90
  -4  -2  -8   53.29   11.60
  -4  -2  -8   63.09   10.00
   4   2   8   65.89   10.90
   4   2   8   66.09   10.80
  -4   2  -8   57.29    6.70
   4   2   8   59.99    9.50
  -4   2  -8   64.19    5.50
  -4   2  -8   54.79    9.40
  -6  -2  -8   79.89   13.50
   6  -2   8   42.00   11.00
   6  -2   8   59.79    9.80
   6   2   8   56.89   11.10
  -6   2  -8   51.59    7.80
  -6   2  -8   52.99    7.40
   6   2   8   41.50   10.20
   8  -2   8  288.17   28.10
  -8  -2  -8  289.77   25.40
   8  -2   8  278.47   22.20
   8   2   8  270.97   24.90
  -8   2  -8  272.47   22.80
   8   2   8  202.18   40.80
   7  -3  -8  276.87   23.90
   7  -3  -8  296.57   24.10
  -7  -3   8  271.47   25.60
   7   3  -8  278.07   24.90
   7   3  -8  308.57   23.90
   7   3  -8  290.87   24.20
   5  -3  -8   65.99   11.10
   5  -3  -8   93.29    8.70
  -5  -3   8   95.99   15.90
  -5   3   8   85.39    8.90
   5   3  -8   82.69   12.20
  -5   3   8   86.59   13.80
   5   3  -8  106.59   12.50
   5   3  -8   97.79   15.50
   3  -3  -8  578.54   25.30
   3  -3  -8  608.64   25.20
   3  -3  -8  610.04   20.90
  -3  -3   8  568.94   25.50
  -3  -3   8  549.15   24.90
   3  -3  -8  596.34   28.10
   3   3  -8  591.14   26.50
   3   3  -8  616.74   21.50
   3   3  -8  589.64   26.30
  -3   3   8  572.84   27.20
  -3   3   8  587.34   21.20
   1  -3  -8    3.50    2.50
  -1  -3   8   -0.80    2.10
   1  -3  -8    4.10    2.80
  -1  -3   8    2.40    2.10
   1   3  -8    2.90    2.20
  -1   3   8    2.20    2.70
   1   3  -8    0.90    0.90
   1   3  -8    3.40    1.20
  -1   3   8    3.50    2.70
  -1   3   8    1.30    2.10
   1   3  -8    3.00    2.30
   1  -3   8 1936.31   37.10
  -1  -3  -8 1967.30   47.10
   1  -3   8 1975.00   36.50
   1  -3   8 1902.11   42.50
   1  -3   8 1954.90   40.60
  -1  -3  -8 1981.60   48.80
  -1  -3  -8 1900.11   48.70
  -1  -3  -8 1953.30   48.70
  -1   3  -8 1866.71   41.80
   1   3   8 1924.81   48.70
  -1   3  -8 1947.21   38.70
   1   3   8 1972.10   47.10
   3  -3   8    6.30    3.00
   3  -3   8    0.10    2.60
   3  -3   8    5.30    2.60
  -3  -3  -8    2.00    3.60
  -3  -3  -8    3.40    3.10
  -3  -3  -8    7.10    3.50
   3   3   8    1.60    2.70
   3   3   8    6.20    4.00
   3   3   8    4.60    3.10
  -5  -3  -8   19.10    7.20
   5  -3   8   34.40    8.30
   5  -3   8   32.60    7.00
  -5  -3  -8   23.40    7.30
   5   3   8   27.50    7.70
   5   3   8   23.20    6.70
   5   3   8   41.60    9.00
   7  -3   8   -4.70    5.00
   7  -3   8    6.80    4.60
  -7  -3  -8   10.10    5.00
   7   3   8    7.50    5.10
   7   3   8   -4.50    6.10
  -8  -4   8   44.60   14.50
   8  -4  -8   41.70   12.90
   8  -4  -8   20.40   10.00
   8   4  -8   33.30   11.80
   8   4  -8   47.70   12.40
   8   4  -8   40.70   12.20
   6  -4  -8    7.00    3.60
   6  -4  -8    3.50    2.70
   6  -4  -8   11.50    4.90
  -6  -4   8   -3.10    4.20
   6   4  -8   -1.70    4.10
  -6   4   8    1.20    4.50
   6   4  -8   -6.40    3.00
   6   4  -8    1.00    3.50
  -4  -4   8    1.50    3.70
  -4  -4   8   10.90    5.30
   4  -4  -8    1.30    2.60
  -4  -4   8   -4.00    3.20
   4  -4  -8    6.40    3.70
   4  -4  -8    5.60    5.00
   4   4  -8    1.40    3.80
   4   4  -8    4.90    3.90
   4   4  -8    3.50    3.20
  -4   4   8    6.10    4.90
  -2  -4   8  605.34   26.20
  -2  -4   8  612.14   25.80
   2  -4  -8  639.44   22.50
  -2  -4   8  591.24   26.70
   2  -4  -8  619.84   25.00
   2  -4  -8  621.74   27.10
   2  -4  -8  625.44   29.90
   2   4  -8  637.54   27.00
   2   4  -8  619.44   17.40
  -2   4   8  627.34   29.30
   2   4  -8  635.64   27.10
  -2   4   8  627.04   23.30
   0  -4  -8   34.50    6.90
   0  -4  -8   31.80    6.60
   0  -4  -8   45.00    7.90
   0  -4   8   33.80    5.90
   0  -4   8   35.70    6.80
   0  -4   8   38.70    6.50
   0   4   8   35.10    6.90
   0   4  -8   28.90    5.40
   0   4   8   42.00    8.80
   0   4  -8   27.80    5.30
   0   4   8   20.90    5.70
  -2  -4  -8    3.10    2.90
  -2  -4  -8   -4.40    2.60
  -2  -4  -8   -2.70    2.40
   2  -4   8    1.10    3.10
  -2  -4  -8    1.70    2.70
   2  -4   8    5.40    2.20
  -2   4  -8   -3.80    2.10
   2   4   8   -0.80    3.50
  -4  -4  -8  791.12   35.10
   4  -4   8  776.92   30.60
   4  -4   8  774.72   27.70
  -4  -4  -8  844.32   37.20
   4  -4   8  780.52   35.60
  -4  -4  -8  803.82   34.10
   4   4   8  801.52   35.70
   4   4   8  753.82   35.20
  -4   4  -8  779.42   34.10
   4   4   8  784.32   33.90
   6  -4   8    7.50    6.50
   6  -4   8   12.40    4.00
   6   4   8   -1.00    4.60
   6   4   8   10.90    6.30
   7  -5  -8   17.90    8.20
  -7  -5   8   12.90    8.50
   7   5  -8   24.60   11.80
   7   5  -8   19.90    7.20
   7   5  -8    3.30    8.80
  -7   5   8    6.50    8.80
   5  -5  -8   -1.00    2.10
  -5  -5   8    0.00    3.60
   5  -5  -8    0.70    4.10
   5   5  -8    7.20    4.90
   5   5  -8   -3.80    3.70
   5   5  -8   13.60    5.40
  -5   5   8   -8.10    3.50
   3  -5  -8   95.79   11.30
  -3  -5   8   96.29   14.30
   3  -5  -8   78.69   13.30
  -3  -5   8  101.79   12.40
  -3  -5   8   94.59   11.50
   3  -5  -8   85.19    8.10
   3   5  -8   85.09   13.20
   3   5  -8   91.89   14.20
   3   5  -8   84.99    7.70
  -3   5   8   91.09   14.60
  -3   5   8   83.09   12.20
  -1  -5   8   17.00    5.60
   1  -5  -8   28.50    6.50
  -1  -5   8   19.40    5.20
   1  -5  -8   24.90    6.40
   1  -5  -8   20.00    5.60
   1   5  -8   20.00    5.30
  -1   5   8   23.30    7.40
   1   5  -8   25.30    6.30
  -1  -5  -8   90.39   10.80
   1  -5   8  102.99   10.50
   1  -5   8  113.59    7.90
  -1  -5  -8   99.59   11.20
   1  -5   8  103.19   10.20
   1  -5   8  109.99    7.70
  -1  -5  -8  104.19   10.20
  -1  -5  -8   96.99   16.60
   1   5   8   81.39   12.10
   1   5   8  108.49   10.50
  -1   5  -8   98.99   10.10
  -1   5  -8   93.99    8.10
   3  -5   8   14.00    4.50
   3  -5   8   21.20    5.00
  -3  -5  -8   22.50    6.70
  -3  -5  -8   16.80    6.50
  -3  -5  -8   22.90    7.00
   3   5   8   21.60    6.20
  -3   5  -8   15.80    6.40
   5  -5   8   89.69   10.60
   5  -5   8   84.19   12.80
  -5  -5  -8   64.89   13.10
   5   5   8   73.49   13.20
   5   5   8  102.49   16.00
   7  -5   8   -8.70    4.40
  -7  -5  -8    0.30    6.40
   7  -5   8   -2.60    5.90
   7   5   8  -12.90    6.50
   7   5   8   13.80    7.20
  -6  -6   8   32.50   10.00
   6  -6  -8   26.60    8.30
   6  -6  -8   11.60    7.10
   6   6  -8   15.00    7.90
  -6   6   8   18.40   10.50
   6   6  -8   17.40    7.40
  -4  -6   8   49.30   11.60
   4  -6  -8   58.79    6.40
   4  -6  -8   61.19    6.90
   4  -6  -8   58.69   11.80
   4   6  -8   58.39   12.80
  -4   6   8   44.80   11.60
   4   6  -8   58.49   13.40
   4   6  -8   25.30    8.70
   2  -6  -8  588.34   26.90
   2  -6  -8  621.04   25.00
  -2  -6   8  628.24   30.50
  -2  -6   8  601.14   29.10
   2  -6  -8  595.54   24.40
   2   6  -8  627.44   31.40
   2   6  -8  620.94   30.30
  -2   6   8  570.74   32.40
  -2   6   8  592.34   27.70
   2   6  -8  635.04   28.00
   0  -6  -8   55.09    9.70
   0  -6  -8   49.99   10.00
   0  -6   8   70.99   10.10
   0  -6   8   66.49    7.70
   0  -6  -8   63.39   10.00
   0   6   8   53.49   12.00
   0   6  -8   59.99    9.50
   0   6   8   66.59   10.20
   0   6  -8   61.69    9.80
   2  -6   8   -2.70    1.80
   2  -6   8    6.10    2.30
   2  -6   8   10.60    5.70
   2  -6   8    3.60    4.00
  -2  -6  -8    3.20    3.30
  -2  -6  -8    9.00    4.60
   2   6   8    0.90    3.70
  -2   6  -8    1.40    3.70
   4  -6   8  428.96   21.60
  -4  -6  -8  440.76   29.30
   4  -6   8  419.16   23.00
   4   6   8  413.76   25.20
  -4   6  -8  426.56   27.30
  -6  -6  -8   66.29   15.90
   6  -6   8  122.09   15.40
   6  -6   8  109.89   13.80
   6   6   8  133.39   16.60
  -5  -7   8   13.90   11.50
   5  -7  -8   19.10    8.20
   5   7  -8    1.20   13.60
  -5   7   8   -3.20    9.30
   5   7  -8   23.70    9.80
   5   7  -8   16.10    6.90
   3  -7  -8    5.70    4.00
  -3  -7   8   17.90    7.70
  -3  -7   8    5.00    5.60
   3  -7  -8   11.30    3.40
   3  -7  -8    8.70    4.90
  -3   7   8   20.20    8.90
   3   7  -8   17.30    6.50
   3   7  -8   -1.00    4.50
   3   7  -8    6.60    2.90
   1  -7  -8  114.19   12.30
  -1  -7   8  100.49   11.80
  -1  -7   8  103.49   12.20
   1   7  -8  116.09   13.10
   1   7  -8  116.59   13.20
  -1   7   8  114.99   15.10
   1  -7   8   11.40    3.70
   1  -7   8    8.00    5.70
  -1  -7  -8   14.20    9.00
  -1  -7  -8    5.40    5.10
   1  -7   8   11.30    4.00
  -1  -7  -8   25.70    6.70
   1   7   8    3.90    5.00
   1   7   8    7.10    5.20
  -1   7  -8   16.00    5.50
  -1   7  -8    8.10    5.00
   3  -7   8    4.50    3.70
   3  -7   8    0.70    3.10
   3  -7   8    5.50    3.50
  -3  -7  -8    0.70    4.70
   3   7   8   10.20    4.90
  -3   7  -8    9.70    4.60
  -5  -7  -8    2.90    8.80
   5  -7   8   -1.70    4.30
   5  -7   8    5.90    5.40
   5   7   8    9.70    6.50
  -5   7  -8    8.70    7.30
  -4  -8   8   23.30   10.00
   4  -8  -8   18.10    8.70
   4   8  -8   33.20    5.60
   4   8  -8    6.20    7.50
   4   8  -8   14.90   10.00
  -2  -8   8   18.80    7.90
  -2  -8   8   42.50   10.50
   2  -8  -8   30.80    9.90
   2  -8  -8   46.20    8.20
   2  -8  -8   30.70    7.30
   2   8  -8   24.10    8.00
  -2   8   8   45.50   13.20
   2   8  -8   27.30    7.70
   0  -8  -8   19.40    8.30
   0  -8  -8   21.10    7.00
   0  -8   8   39.70    8.50
   0  -8  -8    9.80    7.00
   0  -8   8   25.20    6.90
   0   8  -8   32.50    8.80
   0   8   8   15.60    9.50
   0   8  -8   21.70    6.60
  -2  -8  -8    4.90    4.40
  -2  -8  -8    0.50    6.40
   2   8   8   -1.60    5.30
   2   8   8   -3.70    4.50
   4  -8   8   59.09    9.60
   4  -8   8   45.70    9.90
  -4  -8  -8   78.69   17.80
   4   8   8   52.89   11.00
  -4   8  -8   66.49   14.30
  -3  -9   8   51.09   12.30
   3  -9  -8   94.19   16.80
   3  -9  -8   79.29   10.50
   3   9  -8   79.09   16.50
   3   9  -8   91.39   15.30
  -3   9   8  109.79   20.20
   1  -9  -8    6.50    5.50
  -1  -9   8  -10.10    5.00
   1   9  -8  -12.70    5.50
  -1   9   8  -10.60    6.10
   1   9  -8  -13.80    6.00
  -1  -9  -8    9.60    7.50
  -1  -9  -8    0.10    8.20
   1  -9   8   -0.80    4.60
   1  -9   8    4.50    4.50
   1   9   8    7.50    9.40
  -1   9  -8    9.60    7.50
   8   0  -9   -3.80    5.50
  -8   0   9    8.50    6.80
   8   0  -9    9.30    6.60
   8   0  -9    2.10    4.40
   6   0  -9   -0.10    2.40
   6   0  -9    0.50    3.40
   6   0  -9   12.70    5.60
   4   0  -9    1.20    2.20
   4   0  -9    2.90    2.40
  -4   0   9    1.60    2.10
   4   0  -9   -0.10    2.30
  -4   0   9   -0.10    2.20
  -2   0   9    2.00    1.80
   2   0  -9    1.60    1.70
   2   0  -9   -0.90    1.30
  -2   0   9    1.60    1.70
  -2   0   9    0.10    1.30
   2   0  -9    1.10    1.50
   0   0   9    2.00    1.40
   0   0  -9    2.70    1.10
   0   0   9    2.30    1.60
   0   0  -9    4.30    1.80
   0   0  -9    2.50    1.60
  -2   0  -9    2.50    1.40
  -2   0  -9    1.50    1.80
   2   0   9   -2.20    1.10
   2   0   9   -0.50    1.60
   2   0   9    1.30    1.40
  -2   0  -9    3.30    2.10
  -4   0  -9    1.50    2.40
  -4   0  -9    2.70    3.40
   4   0   9    2.40    2.40
  -4   0  -9    2.00    2.30
  -4   0  -9   -1.80    2.50
   4   0   9    0.00    3.10
   4   0   9    3.10    3.00
   6   0   9    1.10    3.10
  -6   0  -9   -2.70    3.30
   6   0   9   -0.20    2.80
  -6   0  -9    1.40    3.80
   8   0   9    4.20    8.40
   8   0   9   -7.20    4.70
  -8   0  -9   21.90    7.50
   7  -1  -9  104.09   16.70
   7  -1  -9  110.19   12.40
  -7  -1   9  112.49   17.80
   7  -1  -9   92.99   15.60
   7   1  -9  137.19   14.90
   7   1  -9   96.49   15.70
   7   1  -9  102.59   16.60
  -5  -1   9  541.05   26.20
  -5  -1   9  545.15   27.10
   5  -1  -9  524.65   23.90
   5  -1  -9  542.25   27.50
  -5   1   9  547.05   27.00
   5   1  -9  587.64   27.80
   5   1  -9  528.65   27.60
   5   1  -9  521.05   26.00
  -5   1   9  517.05   23.40
   5   1  -9  503.35   25.30
  -3  -1   9    5.20    3.10
   3  -1  -9    5.30    2.90
  -3  -1   9   12.80    4.10
   3  -1  -9    9.00    3.50
  -3   1   9   12.50    4.10
  -3   1   9    5.40    2.80
   3   1  -9   11.50    4.00
  -3   1   9    8.30    3.20
   3   1  -9    5.70    3.50
  -1  -1   9   -1.70    1.30
  -1  -1   9   -0.40    1.10
   1  -1  -9   -1.50    1.20
   1  -1  -9    1.20    1.70
   1  -1  -9    2.30    1.70
   1  -1  -9    1.80    1.90
  -1   1   9   -0.90    1.30
  -1   1   9   -0.60    1.20
   1   1  -9    0.60    1.50
   1   1  -9    0.50    1.60
   1   1  -9    0.60    1.10
   1   1  -9    1.10    0.80
  -1   1   9   -1.00    1.30
  -1  -1  -9 2553.84   49.20
  -1  -1  -9 2596.24   53.59
   1  -1   9 2523.15   48.30
  -1  -1  -9 2626.64   55.09
   1  -1   9 2563.64   50.09
   1   1   9 2596.44   54.09
  -1   1  -9 2611.94   50.19
  -1   1  -9 2585.84   48.60
   3  -1   9   53.79    5.30
  -3  -1  -9   47.30    7.60
  -3  -1  -9   64.39    7.80
   3  -1   9   59.79    5.30
   3  -1   9   62.29   10.60
  -3  -1  -9   57.79    6.60
   3  -1   9   43.90    7.80
  -3  -1  -9   73.79   10.40
   3   1   9   66.39   10.10
  -3   1  -9   64.79    6.10
  -3   1  -9   64.09    7.60
  -3   1  -9   42.40    4.50
  -3   1  -9   54.59    5.50
   3   1   9   69.89    7.70
   3   1   9   58.89    6.60
   5  -1   9  126.39   13.50
  -5  -1  -9  147.89   13.00
   5  -1   9  142.09   15.00
  -5  -1  -9  159.78   13.60
   5  -1   9  177.68   13.00
  -5  -1  -9  156.38   16.90
  -5  -1  -9  157.58   13.60
  -5   1  -9  153.38   13.10
   5   1   9  164.08   13.70
   5   1   9  157.08   13.50
  -5   1  -9  166.78   11.80
  -5   1  -9  154.68   11.70
   5   1   9  184.18   16.20
  -5   1  -9  147.09   14.30
   7  -1   9   21.10    6.70
   7  -1   9   26.30    8.30
  -7  -1  -9   10.60    7.00
   7   1   9   12.50    8.10
  -7   1  -9   23.20    7.00
   7   1   9   11.90    8.20
   8  -2  -9   26.30    6.80
   8  -2  -9   19.90   10.30
   8  -2  -9   19.50   10.20
  -8  -2   9   35.00   10.80
   8   2  -9   19.20    7.70
   8   2  -9   18.80   10.00
   8   2  -9   16.70   11.00
  -6  -2   9  117.19   14.80
   6  -2  -9  117.49   14.50
   6  -2  -9  126.79   11.60
   6  -2  -9  144.19   16.20
   6   2  -9  154.68   15.00
   6   2  -9  122.09   13.50
   6   2  -9  137.59   15.10
   6   2  -9  132.79   15.40
  -4  -2   9  114.69   11.70
   4  -2  -9  113.59   12.50
  -4  -2   9  112.29   11.60
   4  -2  -9  112.39    9.70
   4  -2  -9  111.59   11.40
  -4   2   9  127.29   12.90
   4   2  -9  109.99   11.70
   4   2  -9  114.69   11.90
  -4   2   9  100.49    9.20
  -4   2   9  105.19   11.30
   4   2  -9  107.29   10.10
   4   2  -9  112.09   10.90
  -2  -2   9  938.91   28.20
   2  -2  -9  950.50   27.40
  -2  -2   9  912.51   29.20
   2  -2  -9  992.40   32.20
   2  -2  -9  938.11   29.60
  -2   2   9  908.71   27.00
   2   2  -9  911.11   29.70
   2   2  -9  935.51   29.20
  -2   2   9  942.91   31.30
   0  -2   9 5292.17   84.39
   0  -2  -9 5297.57   95.59
   0  -2   9 5342.07   86.69
   0  -2   9 5394.96   90.49
   0  -2  -9 5264.07   95.49
   0  -2   9 5399.56   82.09
   0   2  -9 5348.37   86.89
   0   2  -9 5171.88   90.79
   0   2  -9 5359.26   81.49
   0   2  -9 5335.27   84.59
   0   2   9 5210.78   95.29
   0   2   9 5088.09   95.29
   2  -2   9  223.28   11.90
   2  -2   9  225.08    8.70
  -2  -2  -9  227.78   14.40
  -2  -2  -9  231.58   14.30
   2  -2   9  234.08    8.60
  -2  -2  -9  225.08   14.10
   2  -2   9  230.88   15.20
  -2  -2  -9  232.88   13.40
   2   2   9  238.18   14.60
  -2   2  -9  222.08   12.70
   2   2   9  246.38   14.70
   2   2   9  217.08   13.00
  -4  -2  -9  488.85   25.50
  -4  -2  -9  483.75   30.80
   4  -2   9  481.45   19.10
  -4  -2  -9  497.85   26.90
   4  -2   9  508.95   25.70
   4  -2   9  507.65   24.20
  -4  -2  -9  508.65   23.40
   4   2   9  511.05   24.00
  -4   2  -9  486.75   18.50
   4   2   9  494.45   24.70
  -4   2  -9  501.35   16.30
  -4   2  -9  490.95   23.40
   4   2   9  493.85   25.50
   6  -2   9  243.18   17.20
  -6  -2  -9  278.67   21.30
   6   2   9  272.77   20.40
  -6   2  -9  273.37   14.50
  -6   2  -9  277.07   14.60
   6   2   9  280.17   22.30
  -6   2  -9  257.67   17.20
   8  -2   9   70.09   18.10
  -8  -2  -9   76.79   16.20
   8  -2   9  113.89   16.50
   8   2   9   83.09   16.30
   8   2   9  105.69   19.40
   7  -3  -9    6.00    3.70
  -7  -3   9    2.00    5.80
   7  -3  -9    4.80    4.90
   7   3  -9    1.00    4.50
   7   3  -9   -2.20    4.40
   7   3  -9    4.50    5.80
  -5  -3   9   -2.10    2.50
   5  -3  -9    1.50    3.00
   5  -3  -9    1.60    2.80
   5   3  -9    2.10    4.10
   5   3  -9    3.30    3.80
  -5   3   9    1.50    3.20
   5   3  -9    2.90    3.90
   5   3  -9    6.40    4.30
  -5   3   9   -1.80    3.70
  -3  -3   9  164.08   13.10
  -3  -3   9  131.89   12.20
   3  -3  -9  160.38   10.60
   3  -3  -9  160.08   14.30
   3  -3  -9  165.38   13.30
   3  -3  -9  148.49   12.20
   3   3  -9  167.08   10.90
   3   3  -9  169.78   13.90
  -3   3   9  164.48   14.50
   3   3  -9  162.68   13.60
  -3   3   9  160.38   11.00
  -1  -3   9    5.40    2.50
   1  -3  -9    3.50    2.50
   1  -3  -9    6.50    3.60
  -1  -3   9    2.20    2.00
   1   3  -9    1.40    1.50
  -1   3   9   -1.80    1.90
   1   3  -9   -1.20    1.50
   1   3  -9    2.20    1.20
   1   3  -9    1.00    1.10
  -1   3   9    3.80    2.50
   1   3  -9    0.40    1.70
   1  -3   9  260.47   10.40
  -1  -3  -9  257.67   14.90
   1  -3   9  277.37   10.00
  -1  -3  -9  270.17   15.60
   1  -3   9  295.67   13.20
   1  -3   9  287.27   11.90
  -1  -3  -9  341.57   28.20
  -1   3  -9  266.57   12.30
  -1   3  -9  275.97    9.80
  -1   3  -9  275.07   13.40
   1   3   9  279.07   15.50
   3  -3   9   68.69    8.50
  -3  -3  -9   58.49    9.10
  -3  -3  -9   48.60    9.30
  -3  -3  -9   49.80    9.20
  -3  -3  -9   64.09    9.90
   3  -3   9   59.39    7.30
   3  -3   9   61.69    6.10
   3   3   9   79.09   11.30
   3   3   9   73.99   11.20
  -3   3  -9   59.09    8.30
   3   3   9   47.00    8.40
   5  -3   9   84.09   10.30
  -5  -3  -9   74.99   12.60
   5  -3   9   71.39   10.10
  -5  -3  -9   75.69   13.50
   5   3   9   77.79   13.40
   5   3   9   75.59   12.60
   5   3   9   71.59   12.60
  -7  -3  -9    7.80    7.20
   7  -3   9   15.40    6.30
   7  -3   9   11.90    6.20
   7   3   9   24.70    9.50
   7   3   9    3.00    5.70
   8  -4  -9   36.90   11.40
   8  -4  -9   30.00   10.30
  -8  -4   9   24.40   11.70
   8  -4  -9   25.60    6.10
   8   4  -9   29.60   10.90
   8   4  -9   41.20   12.00
   8   4  -9   37.00   12.60
  -6  -4   9   44.10   11.40
   6  -4  -9   64.79   13.10
   6  -4  -9   79.59    8.30
   6   4  -9   66.89   12.80
  -6   4   9   51.49   13.10
   6   4  -9   48.40   10.80
   6   4  -9   60.39   13.60
   4  -4  -9  254.47   19.00
  -4  -4   9  239.48   18.80
  -4  -4   9  254.77   19.20
   4  -4  -9  245.58   17.60
  -4  -4   9  245.38   19.80
   4  -4  -9  249.18   13.80
  -4   4   9  262.37   17.50
   4   4  -9  224.18   14.60
   4   4  -9  240.08   18.90
  -4   4   9  248.58   20.10
   4   4  -9  224.78   18.60
  -2  -4   9    0.00    2.60
   2  -4  -9    2.40    2.60
   2  -4  -9    2.20    3.10
  -2  -4   9    5.20    3.60
   2  -4  -9    4.20    3.00
  -2  -4   9    5.90    3.20
   2  -4  -9   13.90    5.10
   2   4  -9   -2.10    2.20
   2   4  -9    5.30    3.30
  -2   4   9    9.10    3.70
  -2   4   9    6.90    4.50
   2   4  -9    9.30    2.50
   0  -4   9  250.07   12.90
   0  -4  -9  253.87   15.50
   0  -4   9  252.47   13.80
   0  -4  -9  223.88   14.30
   0  -4   9  262.67   14.40
   0   4   9  238.68   15.80
   0   4  -9  270.47   14.10
   0   4  -9  259.57   12.60
   0   4   9  252.17   18.10
  -2  -4  -9  253.57   17.20
  -2  -4  -9  253.47   17.40
  -2  -4  -9  259.47   18.10
   2  -4   9  247.38   11.80
  -2  -4  -9  264.17   16.50
   2  -4   9  230.18   15.00
  -2   4  -9  253.17   15.20
   2   4   9  253.67   16.30
   2   4   9  242.38   17.50
  -4  -4  -9  209.08   17.50
  -4  -4  -9  218.68   17.80
   4  -4   9  185.28   17.30
  -4  -4  -9  211.58   17.70
   4  -4   9  191.58   14.40
   4  -4   9  191.88   14.80
   4   4   9  183.28   16.20
   4   4   9  175.58   16.00
   4   4   9  218.98   18.70
  -6  -4  -9   -1.40    8.80
   6  -4   9    9.80    5.20
   6  -4   9   10.50    5.90
   6   4   9   18.70    6.60
   6   4   9   16.00    7.30
   7  -5  -9   62.69   14.90
  -7  -5   9   39.50   13.90
   7  -5  -9   38.20   14.30
   7   5  -9   31.70   10.70
   7   5  -9   44.40   12.20
   7   5  -9   59.79   22.60
  -7   5   9   51.29   14.00
   5  -5  -9  396.76   17.00
   5  -5  -9  370.46   25.40
  -5  -5   9  342.47   26.90
  -5   5   9  373.26   28.10
   5   5  -9  365.66   26.20
   5   5  -9  356.76   21.20
  -3  -5   9  250.87   19.00
  -3  -5   9  263.47   20.00
  -3  -5   9  242.98   18.60
   3  -5  -9  265.07   14.60
   3  -5  -9  281.97   19.70
  -3   5   9  227.28   14.80
   3   5  -9  269.67   19.90
   3   5  -9  272.77   13.00
  -3   5   9  283.07   22.10
   3   5  -9  253.67   19.70
  -1  -5   9  456.85   22.60
   1  -5  -9  448.86   21.20
   1  -5  -9  460.45   21.90
   1  -5  -9  440.06   21.50
  -1  -5   9  435.66   22.20
  -1   5   9  458.95   24.00
   1   5  -9  431.66   19.40
   1   5  -9  486.15   23.10
  -1   5   9  461.95   26.80
  -1  -5  -9  559.24   26.60
   1  -5   9  524.35   23.30
  -1  -5  -9  500.85   27.00
  -1  -5  -9  516.45   23.80
   1  -5   9  529.65   18.00
   1  -5   9  541.55   18.70
  -1  -5  -9  536.55   26.20
   1  -5   9  511.95   22.60
  -1   5  -9  519.25   22.50
  -1   5  -9  517.45   19.20
   1   5   9  526.45   26.10
   1   5   9  573.44   24.80
   3  -5   9   28.40    6.00
  -3  -5  -9   12.60    5.20
  -3  -5  -9   18.80    7.50
   3  -5   9   29.00    8.90
   3  -5   9   21.00    5.70
  -3  -5  -9   31.70    9.40
  -3   5  -9   27.80    7.30
   3   5   9   38.80    8.80
   5  -5   9  231.88   16.10
   5  -5   9  208.48   16.80
  -5  -5  -9  233.58   21.70
   5   5   9  204.08   18.90
   5   5   9  205.88   19.80
  -7  -5  -9   20.00   10.50
   7   5   9   14.40    9.00
   7   5   9   30.10   17.80
  -6  -6   9   11.90    7.10
   6  -6  -9    7.40    6.80
   6   6  -9    2.50    5.50
  -6   6   9    0.40    6.60
   6   6  -9    5.10    5.60
   6   6  -9   19.80    9.70
   4  -6  -9   39.10    6.60
  -4  -6   9   36.80    9.50
   4  -6  -9   33.80    6.30
   4  -6  -9   49.30   11.60
  -4   6   9   25.60    8.60
   4   6  -9   52.39   11.60
   4   6  -9   44.40   10.40
   4   6  -9   27.00    7.40
  -2  -6   9   35.30    8.50
   2  -6  -9   42.30    7.80
  -2  -6   9   34.60   11.10
  -2  -6   9   36.20    9.10
   2  -6  -9   28.50    8.10
   2  -6  -9   28.90    6.30
   2   6  -9   43.40    9.80
  -2   6   9   38.10   10.50
   2   6  -9   35.00    7.80
   2   6  -9   38.70    9.40
   0  -6   9   95.39    9.40
   0  -6  -9   93.29   11.10
   0  -6   9   91.99    9.80
   0  -6  -9  100.39   11.30
   0  -6   9   90.69   15.20
   0  -6  -9   85.49   10.60
   0   6   9   82.79   14.20
   0   6   9   85.09   10.30
   0   6  -9   76.49    9.60
   0   6  -9   83.99   10.00
  -2  -6  -9  100.69   16.40
   2  -6   9  105.59   11.50
   2  -6   9  110.09    6.70
  -2  -6  -9   94.69   11.40
   2  -6   9  107.69   12.80
   2  -6   9   87.29    6.00
  -2   6  -9  106.19    7.70
  -2   6  -9  107.59   12.20
   2   6   9   98.99   11.60
   4  -6   9    4.40    3.80
  -4  -6  -9    6.40    5.90
   4  -6   9    5.60    3.80
  -4   6  -9    0.00    3.90
   4   6   9   10.90    5.40
   6  -6   9    8.50    4.30
   6  -6   9    7.10    4.60
  -6  -6  -9    9.60    7.80
   6   6   9    0.70    6.80
   6   6   9   -3.60    7.10
  -5  -7   9   77.89   17.80
   5  -7  -9  109.99   20.50
   5   7  -9   86.09   12.20
  -5   7   9   58.29   15.00
   5   7  -9   94.99   17.70
   3  -7  -9  133.99   15.30
   3  -7  -9  108.19   10.30
  -3  -7   9   97.59   15.80
  -3  -7   9  133.79   19.80
   3  -7  -9  130.29   11.70
   3   7  -9  128.69   14.30
   3   7  -9  126.39   16.00
   3   7  -9  115.89   14.60
  -3   7   9  150.98   19.20
   1  -7  -9   10.70    4.70
  -1  -7   9   -3.70    3.10
   1  -7  -9    1.90    3.40
  -1  -7   9    4.50    3.40
  -1   7   9   -1.20    4.50
   1   7  -9   -2.70    3.90
   1   7  -9   -6.50    3.50
  -1  -7  -9   37.80   10.10
   1  -7   9   40.70    6.80
  -1  -7  -9   17.40    6.50
   1  -7   9   50.89   10.10
   1  -7   9   27.80    6.00
  -1   7  -9   46.70    9.40
  -1   7  -9   44.40    8.20
   1   7   9   43.10    9.10
   1   7   9   41.20   11.40
  -3  -7  -9   14.10    6.60
   3  -7   9    3.90    3.60
   3  -7   9    8.50    3.50
   3  -7   9    7.60    5.00
   3   7   9    3.00    4.40
  -3   7  -9    2.10    5.30
   5  -7   9   40.00    8.30
  -5  -7  -9   45.10   12.80
   5   7   9   23.60   10.70
  -5   7  -9   41.00   10.40
  -4  -8   9   32.20   10.90
   4  -8  -9   21.70    5.40
   4   8  -9   28.30    9.40
   4   8  -9   26.00   11.10
   4   8  -9   30.40    5.00
  -4   8   9   26.00   12.20
   2  -8  -9    6.60    3.50
  -2  -8   9   -1.90    3.60
   2  -8  -9    1.70    4.40
  -2  -8   9    1.00    6.80
   2   8  -9    1.50    5.50
  -2   8   9    1.50    5.60
   2   8  -9   -8.30    4.30
   0  -8  -9   11.10    6.80
   0  -8   9    5.70    5.00
   0  -8   9    6.20    4.40
   0  -8  -9    2.10    3.90
   0  -8  -9   -5.60    6.20
   0   8  -9    3.60    5.50
   0   8   9   15.40    7.40
   0   8  -9    9.70    5.70
  -2  -8  -9   32.90   10.00
   2   8   9   31.70   11.40
   2   8   9   55.79   10.20
  -2   8  -9   56.49   12.50
  -4  -8  -9   35.10   11.80
   4  -8   9   42.70    9.30
   4  -8   9   38.30    7.00
  -4   8  -9   49.20   12.40
   4   8   9   51.79   11.50
  -1  -9   9   -1.70    4.60
   1  -9  -9   11.40    4.90
   1   9  -9    1.70    6.90
  -1  -9  -9   45.40   11.00
   1  -9   9   43.20    7.40
  -1  -9  -9   28.90   10.70
   1   9   9   38.10    9.00
  -1   9  -9   55.89   12.40
  -8   0  10   40.30   12.00
   8   0 -10   66.19   14.40
   8   0 -10   32.30   10.50
   8   0 -10   40.40   10.30
   6   0 -10  205.98   21.00
   6   0 -10  233.98   19.10
   6   0 -10  192.78   16.30
   4   0 -10  907.51   33.60
   4   0 -10  881.01   31.60
  -4   0  10  906.51   32.60
  -4   0  10  899.11   31.50
   4   0 -10  892.01   32.10
  -2   0  10  790.12   22.90
   2   0 -10  783.92   22.90
   2   0 -10  827.82   25.00
  -2   0  10  762.42   23.90
   2   0 -10  791.62   24.80
  -2   0  10  806.72   25.40
   2   0 -10  786.52   25.30
   0   0  10   16.40    3.70
   0   0 -10   12.20    3.10
   0   0 -10   15.50    3.60
   0   0  10   22.80    4.20
   0   0 -10   15.90    2.50
  -2   0 -10  457.75   17.80
   2   0  10  488.75   20.00
   2   0  10  499.35   18.10
  -2   0 -10  482.95   19.70
  -2   0 -10  499.05   14.10
   2   0  10  460.45   13.90
   4   0  10 2284.47   53.49
  -4   0 -10 2225.98   59.19
  -4   0 -10 2296.07   54.69
  -4   0 -10 2271.67   53.69
   4   0  10 2266.27   51.99
  -4   0 -10 2247.38   50.69
   4   0  10 2291.77   60.49
  -6   0 -10   39.10    9.10
   6   0  10   49.50    9.80
  -6   0 -10   37.20    7.70
   6   0  10   49.70   10.70
  -8   0 -10   28.90    8.60
   8   0  10   25.10    8.10
   7  -1 -10   -4.80    3.60
   7  -1 -10   -2.10    2.90
   7  -1 -10    9.00    6.40
   7   1 -10    7.20    5.10
   7   1 -10    2.50    4.20
   7   1 -10   15.00    6.80
   5  -1 -10  134.59   12.00
  -5  -1  10  151.18   14.30
   5  -1 -10  151.58   14.30
  -5  -1  10  135.19   12.90
  -5   1  10  120.69   13.10
   5   1 -10  165.48   15.50
   5   1 -10  130.79   13.20
   5   1 -10  135.89   13.40
   5   1 -10  147.99   13.80
  -5   1  10  137.69   12.40
  -5   1  10  133.49   14.10
   3  -1 -10  503.15   20.30
  -3  -1  10  446.46   20.60
   3  -1 -10  465.15   21.40
  -3  -1  10  452.55   20.50
   3  -1 -10  501.65   21.60
  -3   1  10  476.95   21.00
  -3   1  10  453.35   19.40
  -3   1  10  482.35   21.40
   3   1 -10  468.75   21.40
   3   1 -10  457.55   21.40
   1  -1 -10 1682.73   38.90
  -1  -1  10 1560.44   37.80
   1  -1 -10 1665.63   37.30
  -1  -1  10 1659.13   34.80
  -1  -1  10 1641.64   28.20
   1  -1 -10 1584.04   38.50
   1   1 -10 1591.84   34.90
   1   1 -10 1683.73   28.50
  -1   1  10 1667.53   38.90
   1   1 -10 1670.93   39.00
  -1   1  10 1647.34   38.60
   1   1 -10 1632.74   35.00
  -1   1  10 1636.84   39.40
   1  -1  10  489.25   16.10
   1  -1  10  514.15   17.30
  -1  -1 -10  483.05   15.80
  -1  -1 -10  498.75   19.00
  -1  -1 -10  494.55   19.30
  -1   1 -10  512.65   17.20
   1   1  10  510.35   19.50
  -1   1 -10  486.45   16.10
   3  -1  10  320.17   12.30
   3  -1  10  313.27   13.30
  -3  -1 -10  324.87   18.10
  -3  -1 -10  328.27   15.10
   3  -1  10  308.27   17.00
  -3  -1 -10  279.77   16.30
   3  -1  10  296.17   17.00
  -3  -1 -10  305.47   16.50
   3   1  10  318.67   18.00
   3   1  10  310.77   15.10
  -3   1 -10  306.87   13.70
  -3   1 -10  319.87   17.00
  -3   1 -10  312.07   11.70
   3   1  10  310.97   16.80
   5  -1  10   33.90    7.30
  -5  -1 -10   37.40    7.50
  -5  -1 -10   37.30    8.30
   5  -1  10   35.50    8.10
   5  -1  10   41.90    9.20
  -5  -1 -10   38.00    7.70
   5   1  10   28.90    7.20
  -5   1 -10   48.60    8.90
  -5   1 -10   52.49   10.60
   5   1  10   52.29    9.80
  -5   1 -10   39.80    6.90
   5   1  10   33.80    8.20
  -5   1 -10   43.30    7.60
   7  -1  10  121.39   18.90
   7  -1  10  129.09   13.60
  -7  -1 -10  127.99   15.20
   7   1  10  117.89   18.20
   7   1  10   98.19   14.90
  -7   1 -10  109.29   12.70
   8  -2 -10  -10.20    6.40
   8  -2 -10    5.50    4.80
  -8  -2  10   17.30    9.80
   8   2 -10   -8.20    4.80
   8   2 -10   -4.50    6.90
   6  -2 -10    1.90    3.30
   6  -2 -10    6.30    3.70
   6   2 -10    1.60    3.20
   6   2 -10   -3.60    4.10
   6   2 -10   -3.80    4.00
   6   2 -10    0.20    3.20
   4  -2 -10   43.90    9.10
  -4  -2  10   36.30    8.10
  -4  -2  10   49.80    9.40
   4  -2 -10   44.70    7.60
   4  -2 -10   39.00    9.00
  -4   2  10   53.79   14.60
   4   2 -10   55.39   10.30
   4   2 -10   60.29    7.40
  -4   2  10   40.90    8.90
  -4   2  10   41.80    7.20
   4   2 -10   48.60    9.70
   4   2 -10   45.50    8.30
  -2  -2  10  103.59    8.70
   2  -2 -10  100.69    9.40
   2  -2 -10   97.49    8.40
  -2  -2  10   90.39    8.60
   2  -2 -10   97.69    9.60
   2  -2 -10  103.99    9.30
   2   2 -10   96.09    6.10
  -2   2  10  100.79    9.80
  -2   2  10  106.79    8.70
   2   2 -10   91.19    8.90
   2   2 -10   96.69    8.80
   0  -2  10 1354.16   23.90
   0  -2 -10 1364.86   35.90
   0  -2 -10 1316.57   35.60
   0  -2  10 1318.17   27.60
   0  -2  10 1341.97   27.80
   0  -2  10 1426.06   32.60
   0   2 -10 1363.16   27.90
   0   2  10 1308.17   36.00
   0   2  10 1326.87   35.70
   0   2 -10 1372.26   28.50
   0   2 -10 1365.46   32.80
   2  -2  10   56.19    6.40
  -2  -2 -10   64.69    7.10
   2  -2  10   64.79    7.00
  -2  -2 -10   66.29    7.70
  -2  -2 -10   68.89    8.20
   2  -2  10   60.19    4.70
  -2   2 -10   70.19    5.20
   2   2  10   49.50    9.50
  -2   2 -10   65.79    6.50
   2   2  10   65.79   10.00
  -4  -2 -10  693.53   30.00
   4  -2  10  645.74   22.10
   4  -2  10  686.73   30.20
   4  -2  10  706.13   29.30
  -4  -2 -10  637.94   32.90
  -4  -2 -10  652.43   27.00
   4   2  10  708.33   31.10
  -4   2 -10  675.83   20.40
   4   2  10  682.23   28.10
  -4   2 -10  689.33   28.40
  -4   2 -10  676.63   21.90
   4   2  10  638.44   28.60
   6  -2  10  337.57   24.50
  -6  -2 -10  370.86   24.40
   6  -2  10  332.87   19.80
   6   2  10  334.97   22.80
  -6   2 -10  327.77   16.20
   6   2  10  344.87   25.20
  -6   2 -10  331.17   16.20
  -6   2 -10  306.47   18.40
  -8  -2 -10   22.20   10.30
   8  -2  10   20.20    8.00
   8   2  10    8.80    7.30
   8   2  10    7.60   10.40
  -7  -3  10  102.09   17.70
   7  -3 -10   82.29   15.00
   7  -3 -10  102.49   11.10
   7  -3 -10   87.29   17.00
   7   3 -10  102.19   18.00
   7   3 -10   88.99   15.30
   7   3 -10   89.09   15.30
   5  -3 -10  511.05   27.60
   5  -3 -10  496.65   21.60
   5   3 -10  493.85   28.10
   5   3 -10  448.16   23.50
   5   3 -10  447.86   24.30
   5   3 -10  542.45   29.60
  -5   3  10  507.45   29.50
  -5   3  10  457.05   21.70
   3  -3 -10  259.47   17.00
  -3  -3  10  238.88   16.00
   3  -3 -10  297.47   20.00
   3  -3 -10  254.07   14.10
   3  -3 -10  254.67   17.00
  -3  -3  10  278.37   17.60
   3   3 -10  252.57   13.60
  -3   3  10  282.07   19.20
   3   3 -10  283.07   17.90
  -3   3  10  258.07   14.40
   3   3 -10  259.77   17.60
  -1  -3  10  344.97   15.60
  -1  -3  10  365.26   16.80
   1  -3 -10  364.06   17.80
   1  -3 -10  358.66   16.90
  -1   3  10  360.16   20.00
   1   3 -10  352.76   16.20
  -1   3  10  358.66   17.80
   1   3 -10  356.26   10.20
  -1   3  10  347.17   17.10
   1   3 -10  343.97   11.10
   1   3 -10  347.57   16.90
  -1  -3 -10  439.76   20.30
   1  -3  10  417.46   15.90
  -1  -3 -10  440.76   21.10
  -1  -3 -10  429.76   20.00
   1  -3  10  434.76   14.70
   1  -3  10  426.86   13.30
   1  -3  10  417.26   14.20
  -1   3 -10  429.26   13.30
  -1   3 -10  414.86   15.40
   1   3  10  431.66   23.30
  -1   3 -10  440.16   15.20
  -3  -3 -10   -0.10    2.60
  -3  -3 -10   -2.00    2.70
   3  -3  10    1.60    2.30
   3  -3  10    0.40    1.70
   3  -3  10    5.90    3.10
  -3  -3 -10    0.20    2.70
  -3  -3 -10    5.40    3.10
  -3   3 -10    3.40    2.90
   3   3  10    0.20    2.50
   3   3  10   -1.70    2.30
   3   3  10    4.00    3.40
  -5  -3 -10  365.76   24.30
   5  -3  10  352.96   22.20
  -5  -3 -10  336.07   22.40
   5  -3  10  396.86   19.60
   5   3  10  405.26   25.30
   5   3  10  360.76   23.10
   7  -3  10   -2.30    5.90
   7  -3  10   -5.50    3.90
  -7  -3 -10    0.50    6.00
   7   3  10   10.40    5.30
   7   3  10   10.50    9.00
   8  -4 -10   -1.30    5.20
   8  -4 -10    0.10    6.30
   8  -4 -10    5.30    4.00
  -8  -4  10   12.00   10.30
   8   4 -10   12.40    7.20
   8   4 -10   -5.30    5.60
   8   4 -10    3.60    7.50
   6  -4 -10  129.79   15.60
   6  -4 -10  104.69    9.90
  -6  -4  10  105.29   17.50
   6   4 -10   72.29   13.30
   6   4 -10   92.69   14.00
   6   4 -10   77.29   14.70
  -6   4  10   91.49   16.20
  -4  -4  10  113.29   17.20
  -4  -4  10  130.09   14.20
  -4  -4  10  134.19   14.80
   4  -4 -10  116.29    9.60
   4  -4 -10  106.29   12.60
   4  -4 -10  131.49   13.50
   4   4 -10  119.69   13.90
   4   4 -10  121.29   10.50
   4   4 -10  116.49   13.50
  -4   4  10  110.59   10.30
  -4   4  10  130.79   14.70
   2  -4 -10   40.80    7.20
  -2  -4  10   38.80    7.40
   2  -4 -10   27.50    6.30
   2  -4 -10   27.70    7.70
  -2  -4  10   22.10    5.60
   2  -4 -10   30.50    7.20
   2   4 -10   38.80    8.30
  -2   4  10   22.30    6.70
  -2   4  10   30.80    6.50
   2   4 -10   32.10    3.90
   2   4 -10   21.40    6.10
   0  -4 -10 1709.93   46.60
   0  -4  10 1662.93   42.00
   0  -4 -10 1666.83   45.30
   0  -4  10 1673.93   40.40
   0   4  10 1700.33   45.10
   0   4  10 1694.73   47.10
   0   4 -10 1706.73   42.20
   0   4  10 1682.63   51.89
   0   4 -10 1641.04   37.60
   2  -4  10  392.06   19.40
  -2  -4 -10  365.46   20.00
  -2  -4 -10  380.16   21.80
   2  -4  10  408.56   15.40
  -2  -4 -10  380.66   22.00
  -2  -4 -10  386.56   22.40
   2   4  10  383.86   22.10
  -2   4 -10  385.86   12.90
   2   4  10  392.36   20.90
  -2   4 -10  424.26   19.50
  -4  -4 -10   82.19   13.10
  -4  -4 -10   78.59   13.00
   4  -4  10   86.89   13.70
   4  -4  10   84.79   10.00
  -4  -4 -10   81.99   14.90
   4  -4  10   80.59    8.60
   4   4  10  100.89   15.70
   4   4  10   94.89   14.40
   4   4  10   80.49   13.30
   6  -4  10  163.88   14.20
   6  -4  10  156.28   16.10
   6   4  10  188.78   19.20
   6   4  10  181.68   18.10
  -7  -5  10   35.80   13.10
   7  -5 -10   41.20   13.40
  -7   5  10   25.90   11.40
   7   5 -10   35.00    9.50
   7   5 -10   27.10   10.30
  -5  -5  10   64.29   13.40
   5  -5 -10   54.59   11.30
   5  -5 -10   62.29    7.10
   5   5 -10   58.39   10.30
   5   5 -10   58.49   12.10
   5   5 -10   60.69   13.00
  -5   5  10   51.89   12.50
   3  -5 -10  146.69   14.50
   3  -5 -10  141.79   13.70
  -3  -5  10  146.19   15.10
  -3  -5  10  160.78   15.80
   3  -5 -10  143.69   11.20
  -3  -5  10  169.38   15.60
  -3   5  10  132.59   15.10
  -3   5  10  150.58   12.30
   3   5 -10  138.79    9.50
   3   5 -10  152.58   15.50
   3   5 -10  138.99   14.30
   1  -5 -10   48.30    8.70
  -1  -5  10   65.49   10.50
  -1  -5  10   60.99    9.90
  -1  -5  10   70.59   11.70
   1  -5 -10   57.29    9.30
  -1   5  10   64.99   12.20
   1   5 -10   46.70    8.80
  -1   5  10   55.29    9.10
  -1   5  10   53.99    9.20
   1   5 -10   64.89    7.20
   1   5 -10   49.50    8.80
  -1  -5 -10    3.30    4.20
  -1  -5 -10    2.40    4.10
  -1  -5 -10    3.30    4.30
   1  -5  10    6.90    2.90
   1  -5  10    5.90    2.60
  -1  -5 -10    7.50    3.50
   1  -5  10    3.40    3.10
   1  -5  10    0.10    3.40
  -1   5 -10   -1.70    2.60
  -1   5 -10    4.20    2.80
   1   5  10   10.40    4.80
   1   5  10    5.30    5.00
  -3  -5 -10  638.64   33.10
  -3  -5 -10  651.23   30.60
   3  -5  10  648.14   23.90
  -3  -5 -10  659.33   33.60
   3  -5  10  613.34   30.00
   3  -5  10  682.43   25.10
  -3   5 -10  657.33   29.70
   3   5  10  660.73   30.60
   5  -5  10   89.29   10.50
  -5  -5 -10   94.29   17.10
   5  -5  10   89.99   11.30
   5   5  10  129.99   16.20
   5   5  10  105.69   16.50
   7  -5  10   -0.40    5.70
  -7  -5 -10   -1.70    7.10
   7   5  10    7.10    7.50
   7   5  10   -0.50    8.30
  -6  -6  10   18.60   14.00
   6  -6 -10   41.60   18.40
   6   6 -10   50.09   14.20
   6   6 -10   51.69    9.70
   6   6 -10   53.99   15.80
   4  -6 -10   19.20    7.20
  -4  -6  10   36.90   10.30
   4  -6 -10   37.50    6.70
  -4   6  10   37.50   10.10
   4   6 -10   28.90    9.00
   4   6 -10   40.70    9.50
   4   6 -10   34.40    6.50
   2  -6 -10   -5.50    2.60
   2  -6 -10   -2.60    2.20
  -2  -6  10   -2.10    2.60
  -2  -6  10    8.00    4.90
  -2  -6  10   -0.70    5.00
   2  -6 -10   -6.40    3.10
   2   6 -10   -3.70    3.10
  -2   6  10   -4.50    4.30
   2   6 -10   -3.50    3.10
   2   6 -10    2.40    4.00
   0  -6  10  779.12   28.80
   0  -6 -10  712.73   31.50
   0  -6 -10  677.03   29.50
   0  -6  10  675.13   26.20
   0  -6  10  728.93   31.20
   0  -6 -10  736.73   32.10
   0   6  10  741.53   37.80
   0   6 -10  718.53   32.70
   0   6  10  686.03   29.30
   0   6 -10  744.03   28.70
  -2  -6 -10   21.60    8.90
   2  -6  10   28.30    3.50
  -2  -6 -10   20.10    7.50
   2  -6  10   30.50    3.70
   2  -6  10   21.60    7.70
  -2  -6 -10   26.30    6.80
   2  -6  10   32.90    7.90
   2   6  10   31.80    7.50
  -2   6 -10   34.90    5.50
  -2   6 -10   17.70    6.60
   4  -6  10   -4.00    3.80
  -4  -6 -10   18.80    7.10
   4  -6  10    9.30    4.60
  -4   6 -10    5.40    4.80
   4   6  10   -2.10    7.90
   6  -6  10   58.89    9.70
   6  -6  10   77.09   12.60
  -6  -6 -10   46.90   14.30
   6   6  10   72.19   14.50
   6   6  10   53.19   14.90
  -5  -7  10   17.00   11.60
   5   7 -10   13.20    6.00
   5   7 -10   18.40    8.80
   3  -7 -10   -0.10    4.60
   3  -7 -10   -5.00    3.30
  -3  -7  10    0.50    6.10
  -3  -7  10   12.10    5.50
   3  -7 -10    8.60    4.90
   3   7 -10    1.80    4.80
   3   7 -10   -0.70    4.50
  -3   7  10   -7.90    4.60
   3   7 -10   -5.10    4.70
  -1  -7  10    8.60    4.00
   1  -7 -10   -0.10    5.00
   1  -7 -10    3.10    4.60
  -1  -7  10    3.60    4.30
   1  -7 -10   -0.40    3.50
   1   7 -10   10.50    5.00
   1   7 -10    3.80    5.40
  -1   7  10   11.80    6.10
   1  -7  10   18.90    4.30
   1  -7  10   20.70    7.50
  -1  -7 -10    9.90    5.90
  -1  -7 -10   13.50    6.20
  -1  -7 -10   25.40    9.40
   1  -7  10    9.70    4.40
  -1   7 -10    9.70    4.40
  -1   7 -10   21.80    6.90
   1   7  10    6.20    7.30
   1   7  10    7.30    4.40
   3  -7  10    9.80    3.00
   3  -7  10   -3.90    3.10
  -3  -7 -10    2.10    4.30
   3  -7  10   -1.70    3.60
   3  -7  10    8.90    5.20
  -3   7 -10   -8.90    4.30
   3   7  10   -0.60    4.70
   5  -7  10   23.50    7.00
  -5  -7 -10   28.00   14.00
   5   7  10   18.60    8.60
  -5   7 -10   10.70    8.00
   4  -8 -10    1.80    5.20
   4  -8 -10   -0.20    2.90
   4  -8 -10   -6.20    4.50
  -4  -8  10    6.40    8.10
   4   8 -10    0.50    7.70
   4   8 -10    6.30    8.60
  -4   8  10   -1.30    7.00
   4   8 -10   -9.80    5.70
   2  -8 -10    6.00    5.90
   2  -8 -10   10.50    4.60
  -2  -8  10    9.10    6.80
  -2  -8  10  -11.00    5.80
  -2   8  10   12.70    7.30
   2   8 -10   11.60    6.70
   2   8 -10    1.20    5.30
   0  -8  10   90.29   12.30
   0  -8 -10   80.39   15.00
   0  -8 -10  107.39   13.20
   0  -8  10   87.79   10.90
   0  -8 -10   84.39   14.60
   0   8 -10  109.49   13.00
   0   8  10   86.99   17.10
   0   8 -10   79.89   13.20
  -2  -8 -10   -2.20    5.00
   2   8  10    3.10    6.20
   2   8  10    8.50    5.30
  -2   8 -10    2.80    5.00
   4  -8  10    6.70    5.60
  -4  -8 -10   -1.60    5.00
  -4   8 -10   10.30    8.70
   4   8  10   10.40    7.70
   1  -9 -10   34.80   10.30
  -1  -9  10   57.29   10.30
  -1   9  10   51.19   14.50
   1   9 -10   39.30   10.70
   1   9 -10   51.69   12.20
   1  -9  10   25.60    5.70
  -1  -9 -10   29.40   10.40
   1   9  10   16.30    9.60
   1   9  10   34.80    8.80
  -1   9 -10    8.90    6.90
   8   0 -11   -6.30    7.10
   8   0 -11   -3.00    4.40
   8   0 -11    6.20    7.40
  -8   0  11    9.00    7.00
   6   0 -11    3.10    3.00
   6   0 -11    7.00    4.50
   6   0 -11    0.90    5.80
  -4   0  11    5.80    3.70
   4   0 -11   -0.90    2.30
  -4   0  11    2.30    2.70
   4   0 -11    1.30    2.50
   4   0 -11    1.70    2.80
  -2   0  11   -2.80    1.20
   2   0 -11    2.40    2.10
   2   0 -11    0.50    1.40
  -2   0  11   -1.90    1.10
  -2   0  11    1.20    1.80
   2   0 -11    0.60    1.80
   2   0 -11    2.40    1.90
   0   0  11    0.30    1.40
   0   0 -11   -1.10    1.00
   0   0  11    0.30    1.30
   0   0 -11    0.60    1.00
   0   0 -11   -0.90    1.30
  -2   0 -11    1.00    1.80
   2   0  11    1.20    1.40
   2   0  11    1.60    2.00
  -2   0 -11    1.60    1.30
  -2   0 -11    2.00    2.20
   2   0  11    3.80    2.60
  -4   0 -11    2.00    2.70
   4   0  11   -3.40    2.10
   4   0  11   -0.60    2.90
  -4   0 -11    3.70    2.80
   4   0  11   -1.40    2.80
  -4   0 -11   -3.30    3.20
  -4   0 -11   -1.60    2.30
   6   0  11   -0.70    3.20
   6   0  11    5.60    3.50
   8   0  11    5.40    5.80
  -8   0 -11  -13.10    6.20
   8   0  11   -1.40    5.10
   7  -1 -11   -4.00    3.20
   7  -1 -11    4.60    6.90
   7  -1 -11   10.70    6.10
   7   1 -11    8.30    5.00
   7   1 -11    7.00    5.10
   7   1 -11    9.60    6.20
  -5  -1  11  352.26   21.20
  -5  -1  11  357.16   22.30
   5  -1 -11  385.16   23.20
   5  -1 -11  353.16   19.90
  -5   1  11  400.76   23.60
   5   1 -11  358.56   23.00
  -5   1  11  374.46   22.60
  -5   1  11  366.36   20.10
   5   1 -11  355.86   21.70
   5   1 -11  354.16   21.60
   5   1 -11  365.16   21.30
  -3  -1  11 1122.49   35.20
  -3  -1  11 1097.09   34.20
   3  -1 -11 1131.39   33.70
   3  -1 -11 1129.89   35.40
   3  -1 -11 1148.19   35.50
  -3   1  11 1091.79   34.70
  -3   1  11 1150.48   34.00
   3   1 -11 1157.08   36.00
  -3   1  11 1143.39   35.50
   3   1 -11 1135.89   35.40
  -1  -1  11  552.14   12.40
  -1  -1  11  613.84   17.80
   1  -1 -11  580.34   21.20
   1  -1 -11  589.64   19.50
  -1  -1  11  576.64   20.50
   1  -1 -11  602.24   21.10
  -1   1  11  578.24   20.80
   1   1 -11  604.04   21.00
  -1   1  11  577.74   21.20
   1   1 -11  591.54   18.10
  -1   1  11  598.94   20.60
   1   1 -11  597.94   18.70
   1  -1  11  651.53   20.00
  -1  -1 -11  672.63   19.30
   1  -1  11  645.34   20.60
  -1  -1 -11  613.54   22.70
  -1   1 -11  636.74   19.80
   1   1  11  654.43   23.30
   1   1  11  675.73   23.20
  -1   1 -11  659.53   20.90
   3  -1  11  241.58   10.30
  -3  -1 -11  223.48   12.50
  -3  -1 -11  206.88   13.80
  -3  -1 -11  235.98   15.80
   3  -1  11  226.68   11.60
   3  -1  11  228.58   14.90
  -3   1 -11  227.58   14.60
   3   1  11  239.38   15.90
   3   1  11  222.08   12.60
  -3   1 -11  210.68   11.50
  -3   1 -11  240.08    9.80
   5  -1  11  906.21   40.30
  -5  -1 -11  981.20   36.90
   5  -1  11  946.21   39.40
  -5  -1 -11  991.30   34.40
   5  -1  11  903.71   38.20
  -5   1 -11  990.70   40.20
   5   1  11  952.60   35.70
   5   1  11  955.10   35.00
  -5   1 -11  959.60   30.90
  -5   1 -11 1002.70   31.10
   5   1  11 1020.50   41.00
   7  -1  11  179.48   15.60
  -7  -1 -11  151.28   16.60
   7  -1  11  176.28   19.50
  -7   1 -11  143.09   19.90
   7   1  11  150.78   16.00
  -7   1 -11  156.08   14.40
   7   1  11  122.89   20.00
   8  -2 -11    5.30    5.20
   8  -2 -11    0.60    6.60
  -8  -2  11   11.10    7.30
   8   2 -11   21.20    8.40
   6  -2 -11   47.80    9.10
   6  -2 -11   51.89   11.00
   6   2 -11   60.09   11.40
   6   2 -11   53.99   11.20
   6   2 -11   45.70    9.90
   6   2 -11   69.29   13.70
   4  -2 -11  201.68   13.60
   4  -2 -11  201.88   16.40
   4  -2 -11  207.38   15.80
   4   2 -11  194.08   13.20
   4   2 -11  184.18   15.20
   4   2 -11  201.18   14.30
   4   2 -11  206.28   16.10
  -4   2  11  172.98   14.30
  -4   2  11  157.98   14.10
  -4   2  11  195.78   15.90
   2  -2 -11    4.30    2.80
   2  -2 -11    2.20    2.40
  -2  -2  11    1.60    2.60
  -2  -2  11    3.80    2.40
   2  -2 -11    0.00    3.00
   2   2 -11    2.90    2.70
   2   2 -11    1.10    2.20
  -2   2  11    6.50    3.10
   2   2 -11    1.60    1.40
  -2   2  11    1.60    2.00
   2   2 -11    3.80    2.20
   0  -2  11  164.48    8.00
   0  -2  11  169.18    7.50
   0  -2 -11  171.08   11.40
   0  -2  11  151.98    9.30
   0  -2 -11  155.18   11.10
   0  -2  11  176.18    5.20
   0   2 -11  159.88    7.60
   0   2 -11  161.98    9.90
   0   2 -11  168.38    8.00
   0   2  11  167.48   11.40
   2  -2  11   13.60    3.00
   2  -2  11    7.50    2.80
  -2  -2 -11   12.90    4.10
  -2  -2 -11    1.80    3.00
  -2  -2 -11   10.80    4.10
   2  -2  11   11.10    3.60
  -2   2 -11   14.80    3.60
   2   2  11    8.20    3.60
   2   2  11   11.90    4.30
  -2   2 -11    8.70    3.60
   4  -2  11  125.39   12.50
   4  -2  11  141.89   12.90
  -4  -2 -11  107.99   11.30
   4  -2  11  139.29    9.50
  -4  -2 -11  137.59   13.50
  -4  -2 -11  124.69   13.00
  -4  -2 -11  113.59   12.30
   4   2  11  115.89   12.30
  -4   2 -11  132.59    8.50
   4   2  11  122.19   12.70
   4   2  11  141.99   12.40
  -4   2 -11  147.49   10.70
  -6  -2 -11   -2.10    4.00
   6  -2  11    2.90    3.80
   6  -2  11   10.00    5.10
   6   2  11    0.80    3.20
  -6   2 -11    5.60    3.70
  -6   2 -11   -1.00    2.70
   6   2  11    5.90    4.40
  -6   2 -11   -4.60    3.20
   8  -2  11    3.40   10.30
   8  -2  11   -2.40    4.40
  -8  -2 -11   11.20    8.90
   8   2  11   -0.30    6.00
   8   2  11   -0.80    6.30
  -7  -3  11    7.10    6.20
   7  -3 -11    3.10    3.20
   7  -3 -11    6.40    5.50
   7  -3 -11   -2.70    4.60
  -7   3  11   -1.60    5.80
   7   3 -11    3.50    5.10
   7   3 -11   10.30    6.40
   5  -3 -11  154.78   15.50
   5  -3 -11  160.58   12.70
   5   3 -11  161.78   16.20
  -5   3  11  148.09   15.90
   5   3 -11  185.88   14.50
   5   3 -11  174.38   16.90
   5   3 -11  165.68   14.70
   3  -3 -11   19.70    5.90
   3  -3 -11   14.50    4.80
   3  -3 -11   16.70    5.90
   3  -3 -11   18.00    4.70
  -3  -3  11   23.60    5.80
  -3  -3  11   20.30    6.00
  -3   3  11   27.70    5.80
   3   3 -11   30.00    7.80
  -3   3  11   15.50    6.00
   3   3 -11    7.20    4.20
   3   3 -11   17.70    4.60
   1  -3 -11   47.40    7.80
   1  -3 -11   57.99    8.70
  -1  -3  11   45.50    6.80
  -1  -3  11   52.59    6.50
  -1   3  11   52.49    8.10
   1   3 -11   52.19    6.30
   1   3 -11   45.10    3.80
   1   3 -11   50.49    3.60
   1   3 -11   56.29    8.40
  -1   3  11   56.49    9.80
  -1   3  11   41.90    7.40
   1  -3  11  151.48    8.00
   1  -3  11  141.89    8.30
   1  -3  11  148.59    9.00
  -1  -3 -11  166.28   13.00
   1  -3  11  148.99    7.80
  -1  -3 -11  139.99   11.70
  -1  -3 -11  157.48   12.20
   1   3  11  154.48   12.70
  -1   3 -11  147.19    8.70
   1   3  11  135.09   11.40
  -1   3 -11  151.68    9.00
  -1   3 -11  137.59    7.40
  -3  -3 -11    5.00    3.30
  -3  -3 -11    3.80    3.50
   3  -3  11    3.20    1.90
   3  -3  11    3.80    3.30
   3  -3  11    2.70    2.60
  -3  -3 -11    6.40    4.70
   3   3  11    1.10    4.10
   3   3  11   -3.10    3.00
  -3   3 -11    5.30    2.90
   3   3  11    3.60    3.80
   5  -3  11   94.79   11.70
  -5  -3 -11   63.89   11.90
  -5  -3 -11   76.59   12.80
   5  -3  11   88.29    9.40
   5   3  11   80.49   12.40
   5   3  11   77.89   13.90
  -7  -3 -11   10.20    6.00
   7  -3  11    8.20    5.60
   7   3  11    5.80    6.70
   7   3  11    4.70    3.90
   8  -4 -11   60.69   15.70
   8  -4 -11   53.99    8.70
  -8  -4  11   95.09   19.50
   8  -4 -11   47.50   11.60
   8   4 -11  105.39   18.30
   8   4 -11   60.19   15.40
   8   4 -11   54.89   15.70
   6  -4 -11    2.80    4.10
   6  -4 -11    6.20    4.00
  -6  -4  11   12.70    6.20
   6   4 -11    7.90    4.90
  -6   4  11    2.40    6.40
   6   4 -11   13.30    5.90
   6   4 -11    8.20    4.90
  -4  -4  11   13.30    6.20
   4  -4 -11   16.50    6.80
   4  -4 -11   20.10    5.40
   4  -4 -11   18.60    7.80
  -4  -4  11   23.40    7.70
  -4   4  11   19.20    5.20
   4   4 -11   23.20    6.90
   4   4 -11   10.50    4.10
   4   4 -11    8.80    4.80
  -4   4  11   17.80    7.10
  -2  -4  11   86.19    9.60
   2  -4 -11   54.89    9.30
  -2  -4  11   59.49    9.50
   2  -4 -11   66.19    7.80
   2  -4 -11   60.79    9.90
   2   4 -11   59.99    9.50
   2   4 -11   50.69   10.20
  -2   4  11   56.69   10.50
   2   4 -11   50.69    4.60
   2   4 -11   69.59    5.20
  -2   4  11   72.19    8.60
   0  -4 -11   36.70    7.90
   0  -4 -11   42.70    7.60
   0  -4  11   49.20    7.20
   0  -4  11   50.79    6.00
   0   4  11   41.10    9.40
   0   4  11   29.10    7.20
   0   4 -11   33.50    5.10
   0   4 -11   34.80    6.60
   0   4  11   31.30    6.70
   2  -4  11    2.40    2.00
   2  -4  11    4.20    2.30
  -2  -4 -11    9.70    4.40
  -2  -4 -11    1.40    3.50
  -2  -4 -11   -2.20    3.40
  -2  -4 -11    7.10    4.90
   2  -4  11    6.00    3.80
   2   4  11    4.00    5.80
   2   4  11    5.10    3.90
  -2   4 -11   -0.30    2.70
  -2   4 -11    8.00    2.30
   4  -4  11   87.69   10.50
   4  -4  11   91.69    8.70
  -4  -4 -11  122.49   18.20
   4  -4  11   95.69   14.70
  -4  -4 -11   91.49   14.40
   4   4  11   95.39   14.30
   4   4  11   96.79   12.20
   4   4  11   92.09   15.30
   6  -4  11    7.70    4.20
  -6  -4 -11   12.00    6.20
   6  -4  11    2.30    4.10
   6   4  11   -5.40    4.10
   6   4  11    0.30    3.20
   7  -5 -11  -14.40    6.40
  -7  -5  11   13.80    8.10
   7  -5 -11   -7.60    5.20
  -7   5  11   -4.50    6.20
   7   5 -11  -10.10    5.00
   7   5 -11    7.60    7.60
   7   5 -11    2.70    5.90
  -5  -5  11  175.88   18.50
   5  -5 -11  159.18   16.80
   5  -5 -11  192.38   12.80
   5   5 -11  198.08   19.50
  -5   5  11  158.08   19.00
   5   5 -11  168.18   18.30
   5   5 -11  163.38   14.00
   3  -5 -11   24.20    7.00
   3  -5 -11   20.80    7.10
  -3  -5  11   24.50    6.50
  -3  -5  11   29.70    7.70
  -3  -5  11   21.70    7.10
   3  -5 -11   29.90    6.70
  -3   5  11   15.00    6.60
  -3   5  11   27.70    6.70
   3   5 -11   26.60    7.30
   3   5 -11   22.80    4.70
   3   5 -11   30.20    8.10
  -1  -5  11   19.70    5.70
   1  -5 -11    7.30    4.70
  -1  -5  11   12.80    5.10
   1  -5 -11   13.30    5.10
  -1  -5  11   18.90    6.00
   1   5 -11    7.90    4.50
   1   5 -11   13.50    5.10
  -1   5  11   22.40    6.20
  -1   5  11   15.70    6.20
   1   5 -11   12.80    4.30
  -1   5  11   15.80    5.10
   1  -5  11  804.02   28.50
  -1  -5 -11  783.22   31.10
  -1  -5 -11  748.33   32.50
  -1  -5 -11  730.23   32.30
   1  -5  11  721.93   23.30
   1  -5  11  755.72   27.40
  -1  -5 -11  699.13   32.90
   1  -5  11  724.83   22.40
  -1   5 -11  740.23   24.50
  -1   5 -11  758.72   26.80
   1   5  11  730.73   30.10
   1   5  11  715.83   32.40
   3  -5  11   37.00    9.00
  -3  -5 -11   29.20    8.80
   3  -5  11   41.90    7.00
  -3  -5 -11   29.90    8.90
  -3  -5 -11   32.20   10.80
  -3   5 -11   37.90    8.80
   3   5  11   30.20    8.20
  -5  -5 -11   -1.20    4.70
   5  -5  11    2.70    3.80
   5  -5  11   -2.80    4.00
   5   5  11   -0.90    4.90
   5   5  11   -1.20    4.50
  -7  -5 -11   24.90   10.80
   7  -5  11   14.40    8.30
   7  -5  11    8.50    6.20
   7   5  11   16.20   10.10
   7   5  11   10.30   10.10
   6  -6 -11   38.70   13.00
   6   6 -11   33.60   11.70
   6   6 -11   58.09   10.60
   6   6 -11   55.69   13.60
  -4  -6  11    7.80    5.80
   4  -6 -11   14.80    3.90
   4  -6 -11   11.00    6.30
   4   6 -11   14.20    4.50
   4   6 -11   11.90    6.40
  -4   6  11    5.70    6.00
   4   6 -11   20.90    7.30
   2  -6 -11   17.80    5.40
  -2  -6  11   16.80    7.20
   2  -6 -11   19.00    5.90
   2  -6 -11   25.90    6.30
  -2  -6  11   12.80    7.30
  -2  -6  11   22.00    6.70
  -2   6  11   10.00    8.00
   2   6 -11   11.20    5.50
   2   6 -11   12.40    6.10
   2   6 -11   11.10    5.20
   0  -6  11  735.63   27.30
   0  -6 -11  785.52   33.30
   0  -6 -11  727.33   32.50
   0  -6  11  745.43   28.40
   0  -6 -11  717.43   31.60
   0  -6  11  742.43   31.30
   0   6  11  677.43   29.90
   0   6 -11  715.73   28.10
   0   6  11  742.83   38.30
   0   6 -11  754.92   29.30
   2  -6  11    4.40    2.10
  -2  -6 -11    3.20    4.90
  -2  -6 -11    6.20    6.00
   2  -6  11    4.90    4.00
  -2  -6 -11    5.80    3.50
   2  -6  11    0.00    2.00
   2  -6  11   -4.00    4.10
  -2   6 -11    2.80    2.20
   2   6  11   10.70    4.90
  -2   6 -11    4.60    3.80
  -4  -6 -11   44.10   10.30
   4  -6  11   79.99    9.70
   4  -6  11   66.59    9.90
  -4   6 -11   71.69   12.20
   4   6  11   54.59   11.10
   6  -6  11   49.70   10.20
   6  -6  11   28.80    8.50
  -6  -6 -11   44.90   13.30
   6   6  11   36.70   10.80
   6   6  11   22.60   11.00
   5  -7 -11   65.59    7.70
   5  -7 -11   55.09   12.80
  -5  -7  11   73.29   26.90
   5   7 -11   88.29   27.10
   5   7 -11   46.80    8.50
  -5   7  11   63.29   18.40
   5   7 -11   79.29   16.60
  -3  -7  11   98.89   16.50
   3  -7 -11  110.99   10.70
  -3  -7  11  117.59   17.80
   3  -7 -11  106.79   11.30
   3  -7 -11  104.39   17.10
   3   7 -11  125.49   19.40
   3   7 -11   99.79   12.90
   3   7 -11   97.49   17.20
  -3   7  11  140.99   18.20
   1  -7 -11  235.98   18.50
  -1  -7  11  263.77   19.10
  -1  -7  11  261.27   18.60
   1  -7 -11  282.37   20.00
   1  -7 -11  270.27   18.80
   1   7 -11  245.18   17.00
   1   7 -11  257.27   23.00
  -1   7  11  263.07   23.70
  -1  -7 -11  182.38   16.20
   1  -7  11  196.18   12.30
   1  -7  11  194.78   17.20
   1  -7  11  185.28   12.30
  -1  -7 -11  182.78   17.80
  -1  -7 -11  184.38   17.20
  -1   7 -11  219.88   14.60
   1   7  11  224.28   21.90
   1   7  11  209.28   16.50
  -1   7 -11  185.48   15.60
   3  -7  11  137.39   12.50
  -3  -7 -11  164.18   18.80
   3  -7  11  147.19    9.70
   3  -7  11  122.99   14.60
  -3   7 -11  186.18   17.00
   3   7  11  171.58   18.10
   5  -7  11   16.70    7.10
   5  -7  11   14.80    5.60
   5   7  11   30.10   10.10
   4  -8 -11   -3.70    5.20
  -4  -8  11   -2.00    5.70
   4  -8 -11    3.40    3.30
   4   8 -11   -5.10    6.50
  -4   8  11    3.80    7.80
   4   8 -11   -4.90    6.50
   4   8 -11    9.70    9.50
   2  -8 -11   44.50    9.40
  -2  -8  11   53.79   11.50
  -2  -8  11   54.09   11.70
   2   8 -11   75.59   12.90
  -2   8  11   39.60   12.50
   2   8 -11   52.19   12.80
   0  -8 -11   15.70    6.60
   0  -8 -11   -2.20    3.80
   0  -8  11    6.80    3.50
   0  -8  11    0.10    4.40
   0   8 -11    5.40    5.70
   0   8  11    4.70    7.30
   0   8 -11    3.30    4.90
  -2  -8 -11   15.20    8.40
   2   8  11   27.70   10.70
   2   8  11   22.70    6.80
  -2   8 -11   20.40    7.80
   4  -8  11   -0.50    6.70
   4  -8  11   13.70    6.00
  -4  -8 -11   -7.70    5.40
   4   8  11    1.10    7.30
  -4   8 -11   15.90    8.20
   1  -9 -11   -4.20    5.00
  -1  -9  11    0.30    7.10
   1   9 -11   -5.30    6.90
   1   9 -11   -4.60    6.00
  -1   9  11  -16.90    6.60
  -1  -9 -11   41.90   11.20
   1  -9  11   22.70    5.90
   1   9  11   37.80   10.10
  -1   9 -11   41.60   11.80
   1   9  11   30.80   13.50
   8   0 -12   59.69   21.10
   8   0 -12   76.49   21.00
   8   0 -12   83.49   14.80
   6   0 -12  172.38   20.60
   6   0 -12  193.68   18.10
   4   0 -12 2487.55   63.89
  -4   0  12 2503.45   62.29
   4   0 -12 2460.25   60.99
   4   0 -12 2540.75   62.09
  -4   0  12 2529.35   61.89
   2   0 -12    6.30    2.60
  -2   0  12    3.80    2.30
  -2   0  12    6.50    3.00
   2   0 -12    7.80    3.30
   2   0 -12    4.90    2.70
  -2   0  12    7.00    3.00
   2   0 -12    1.40    2.00
   0   0  12  546.05   19.60
   0   0 -12  548.15   19.60
   0   0  12  526.25   19.20
   0   0 -12  500.85   14.30
   0   0 -12  547.05   22.70
  -2   0 -12 2526.05   57.49
  -2   0 -12 2500.75   54.29
   2   0  12 2606.94   58.39
   2   0  12 2379.96   53.79
  -2   0 -12 2546.25   45.30
  -4   0 -12  186.88   13.30
  -4   0 -12  214.48   16.60
   4   0  12  195.78   12.30
   4   0  12  193.58   13.10
   4   0  12  203.88   16.20
  -4   0 -12  196.08   13.60
  -4   0 -12  208.58   11.90
  -6   0 -12    3.20    4.10
  -6   0 -12   10.00    5.50
   6   0  12    3.80    3.90
   6   0  12    1.00    3.90
   8   0  12    8.60    6.60
   8   0  12   13.70    8.60
  -8   0 -12   27.50   11.50
   7  -1 -12    9.50    4.20
   7   1 -12   -0.80    3.10
   7   1 -12   10.00    3.80
   7   1 -12    5.30    4.90
  -5  -1  12  185.88   28.60
  -5  -1  12  190.18   18.40
   5  -1 -12  181.88   19.40
   5  -1 -12  213.08   17.20
   5  -1 -12  196.48   15.00
   5   1 -12  201.08   17.20
  -5   1  12  199.28   16.50
  -5   1  12  193.38   15.10
   5   1 -12  178.68   15.00
   5   1 -12  190.08   15.70
   5   1 -12  214.58   16.90
   3  -1 -12  445.66   21.10
  -3  -1  12  474.35   21.00
   3  -1 -12  464.05   21.50
   3  -1 -12  458.95   21.60
   3  -1 -12  419.86   19.80
  -3  -1  12  434.96   21.10
  -3   1  12  464.55   21.30
  -3   1  12  483.85   21.00
   3   1 -12  473.55   21.60
   3   1 -12  492.75   22.10
  -3   1  12  472.45   21.60
   3   1 -12  503.65   22.90
  -1  -1  12  253.57   11.90
   1  -1 -12  222.38   11.80
  -1  -1  12  247.08    7.30
  -1  -1  12  243.48   14.00
   1  -1 -12  215.98   12.80
  -1  -1  12  241.38   10.70
   1  -1 -12  248.18   13.50
   1   1 -12  265.67   12.30
  -1   1  12  254.07   13.20
   1   1 -12  239.78   11.00
  -1   1  12  241.58   13.30
   1   1 -12  249.78   13.40
  -1   1  12  235.98   13.40
   1  -1  12    8.30    2.90
  -1  -1 -12   18.50    3.90
   1  -1  12   20.10    4.40
  -1  -1 -12   14.10    4.00
  -1  -1 -12   14.70    4.30
  -1   1 -12   13.60    4.60
  -1   1 -12   11.00    3.20
   1   1  12   12.40    4.10
  -3  -1 -12   -0.90    2.10
   3  -1  12   -1.40    1.90
  -3  -1 -12   -2.70    1.80
   3  -1  12    0.60    1.50
   3  -1  12    3.10    2.20
  -3  -1 -12   -2.50    2.30
  -3   1 -12    4.70    2.80
   3   1  12   -0.30    2.20
  -3   1 -12    7.00    3.50
  -3   1 -12   -0.40    1.50
   3   1  12   -3.10    1.40
   3   1  12    4.20    3.10
   5  -1  12    0.70    3.80
  -5  -1 -12    9.10    5.10
  -5  -1 -12    4.40    4.00
   5  -1  12   -4.40    4.10
   5  -1  12   15.90    5.20
   5  -1  12   16.10    5.50
  -5   1 -12   15.80    4.80
  -5   1 -12    8.90    4.00
   5   1  12    5.60    4.10
  -5   1 -12    2.40    3.60
   5   1  12    5.90    3.80
   5   1  12    6.70    3.60
   7  -1  12    8.70    6.10
   7  -1  12    5.60    4.60
  -7  -1 -12    6.30    6.40
   7   1  12   -4.00    4.30
  -7   1 -12  -11.00    5.10
  -7   1 -12    4.70    4.70
   8  -2 -12   26.20    8.50
  -8  -2  12   35.90   11.90
   8  -2 -12   29.90   12.10
   8   2 -12   43.40   12.60
   8   2 -12   28.50   11.40
   8   2 -12   28.00   12.20
   6  -2 -12  161.88   15.70
   6  -2 -12  194.68   18.30
  -6   2  12  169.48   25.40
   6   2 -12  174.78   17.20
   6   2 -12  193.28   16.80
   6   2 -12  146.29   15.10
   6   2 -12  184.08   18.30
  -4  -2  12  105.09   12.40
   4  -2 -12  113.59   10.50
   4  -2 -12   84.99   10.60
   4  -2 -12  111.39   12.80
  -4  -2  12  109.69   12.00
  -4   2  12   98.19   10.10
   4   2 -12  142.19   13.70
  -4   2  12  117.49   12.80
   4   2 -12  101.19    9.50
   4   2 -12   94.39   11.30
  -4   2  12   89.09   16.80
   4   2 -12  109.79   11.00
   2  -2 -12   -2.20    1.40
   2  -2 -12    0.60    2.10
   2  -2 -12    0.50    1.90
  -2  -2  12   -0.90    1.60
   2  -2 -12    5.30    2.60
  -2  -2  12    0.30    2.10
  -2   2  12    9.00    3.30
   2   2 -12    2.70    2.30
  -2   2  12    0.50    2.20
   2   2 -12   -2.00    1.60
   2   2 -12    1.40    1.30
   2   2 -12   -0.50    1.90
   0  -2  12   14.30    3.00
   0  -2  12   17.60    3.90
   0  -2 -12   18.20    4.90
   0  -2  12   15.10    2.80
   0  -2 -12   17.30    4.60
   0   2 -12   12.10    3.60
   0   2  12   11.10    3.80
   0   2  12    8.20    3.40
   0   2 -12   11.60    2.50
   0   2 -12   13.90    3.00
  -2  -2 -12 1629.64   46.00
   2  -2  12 1781.22   36.70
   2  -2  12 1628.94   40.80
  -2  -2 -12 1645.14   46.40
  -2  -2 -12 1652.13   42.30
   2  -2  12 1658.93   41.00
  -2   2 -12 1673.13   40.70
   2   2  12 1706.63   46.60
   2   2  12 1626.94   46.00
  -2   2 -12 1666.43   36.30
  -4  -2 -12   11.00    4.60
   4  -2  12    9.00    3.00
  -4  -2 -12    6.00    4.30
   4  -2  12    0.30    2.90
  -4  -2 -12   12.50    4.50
  -4  -2 -12    9.60    4.50
   4  -2  12   17.60    6.20
  -4   2 -12   10.70    3.30
  -4   2 -12   11.30    3.10
   4   2  12   12.00    4.90
   4   2  12    9.90    4.40
  -4   2 -12    4.50    4.90
  -4   2 -12   10.70    3.30
   4   2  12    3.90    3.60
  -6  -2 -12   40.50   10.80
   6  -2  12   30.00    7.80
   6  -2  12   49.80    8.70
  -6   2 -12   44.30    7.40
   6   2  12   35.30    8.70
   6   2  12   43.40    9.80
  -6   2 -12   49.99    8.00
   6   2  12   41.70   10.60
  -6   2 -12   39.60    7.50
  -8  -2 -12   29.60   11.20
   8  -2  12   31.80    8.50
   8  -2  12   35.30   11.30
   8   2  12   12.90    9.60
   8   2  12   19.40    7.60
  -7  -3  12   -5.80    5.30
   7  -3 -12   -6.80    3.50
   7  -3 -12    2.70    5.80
   7  -3 -12   -9.00    5.30
   7   3 -12    1.20    4.80
   7   3 -12    7.10    7.40
   7   3 -12   -6.60    4.60
  -7   3  12   -0.70    5.20
   5  -3 -12  276.97   16.70
   5  -3 -12  267.77   20.20
  -5   3  12  261.77   21.60
   5   3 -12  273.27   21.10
   5   3 -12  252.07   17.00
   5   3 -12  248.38   18.00
   5   3 -12  258.67   20.80
  -3  -3  12  119.89   11.10
   3  -3 -12  131.29   12.20
   3  -3 -12  138.99   13.80
   3  -3 -12  126.79   10.70
  -3  -3  12  137.49   12.70
   3  -3 -12  140.89   12.80
  -3   3  12  126.59   13.10
   3   3 -12  132.99    9.90
   3   3 -12  148.39    9.20
   3   3 -12  135.49   12.90
   3   3 -12  142.39   12.80
  -3   3  12  145.59   11.60
   1  -3 -12  652.93   25.20
   1  -3 -12  649.74   25.90
  -1  -3  12  670.83   24.70
  -1  -3  12  669.83   22.70
  -1   3  12  663.63   28.70
   1   3 -12  696.43   23.50
  -1   3  12  665.93   25.90
   1   3 -12  670.13   17.00
  -1   3  12  688.43   26.80
   1   3 -12  687.73   25.70
  -1  -3 -12 2051.79   53.09
   1  -3  12 1953.20   41.50
   1  -3  12 1963.50   41.80
   1  -3  12 1912.41   39.40
   1  -3  12 1974.30   38.80
  -1  -3 -12 1989.80   50.79
  -1  -3 -12 1946.61   51.19
   1   3  12 2000.80   51.39
   1   3  12 1924.21   51.89
  -1   3 -12 1961.90   39.60
  -1   3 -12 1966.00   42.90
  -3  -3 -12  136.89   13.10
  -3  -3 -12  130.39   13.20
   3  -3  12  134.39   11.90
  -3  -3 -12  125.99   12.90
   3  -3  12  151.38    8.30
  -3  -3 -12  135.29   12.40
   3   3  12  137.19   13.70
  -3   3 -12  137.69   11.00
   3   3  12  135.19   13.10
  -3   3 -12  143.69    7.40
  -5  -3 -12  422.36   24.60
  -5  -3 -12  432.96   27.00
   5  -3  12  442.36   29.70
   5  -3  12  361.76   23.20
   5   3  12  367.26   30.40
   5   3  12  385.06   24.20
   5   3  12  402.56   26.40
   7  -3  12  119.09   12.70
   7  -3  12  150.48   21.40
  -7  -3 -12  117.39   18.90
   7   3  12   97.19   16.30
   7   3  12   91.89   17.20
   6  -4 -12   50.89   11.20
  -6  -4  12   63.89   14.00
   6  -4 -12   69.99   11.50
   6   4 -12   80.09   14.40
   6   4 -12   72.09   12.50
  -6   4  12   65.59   14.00
   6   4 -12   56.79   12.90
   6   4 -12   75.79   15.00
   4  -4 -12   98.89    9.80
  -4  -4  12   70.89   11.80
   4  -4 -12  111.49   12.70
   4   4 -12   98.19    9.80
   4   4 -12  101.39   15.50
  -4   4  12  112.99   10.90
   4   4 -12   95.39   15.00
  -4   4  12  118.49   13.90
  -2  -4  12  111.29   11.00
   2  -4 -12  119.89   10.70
   2  -4 -12  123.69   12.20
  -2  -4  12  112.59   11.20
   2  -4 -12  102.79   11.40
   2   4 -12  140.29   12.40
   2   4 -12   88.89   16.10
  -2   4  12  121.39   13.40
   2   4 -12  129.79    7.00
   2   4 -12  117.29    6.90
   0  -4 -12 1070.99   36.40
   0  -4  12 1079.49   31.00
   0  -4  12 1046.70   30.70
   0  -4 -12 1075.99   35.90
   0   4 -12 1031.70   25.70
   0   4 -12 1079.09   32.50
   0   4  12 1037.50   36.40
   0   4  12 1118.99   36.20
   0   4  12 1015.60   40.00
   2  -4  12  202.18   11.10
   2  -4  12  195.48   10.70
   2  -4  12  190.68   10.30
   2  -4  12  191.58   13.20
  -2  -4 -12  194.08   16.10
  -2  -4 -12  189.68   15.90
  -2  -4 -12  201.08   15.40
  -2  -4 -12  190.28   15.80
   2   4  12  191.18   15.10
  -2   4 -12  178.78   12.50
   2   4  12  176.98   15.90
   4  -4  12    3.00    4.30
  -4  -4 -12  -10.20    3.90
   4  -4  12   -3.90    2.50
  -4  -4 -12   -0.30    2.80
   4  -4  12   -1.80    2.90
   4   4  12   12.70    5.50
   4   4  12    3.10    3.70
   4   4  12    8.50    4.90
   6  -4  12    0.10    5.30
   6  -4  12    5.40    4.10
  -6  -4 -12    3.50    4.10
   6   4  12   10.20    6.60
   6   4  12    8.50    5.50
   7  -5 -12    1.40    3.20
   7  -5 -12   -4.90    5.30
   7   5 -12   -6.30    6.10
  -7   5  12    9.30    6.80
   7   5 -12    7.20    6.50
   7   5 -12   -7.80    5.30
   5  -5 -12   38.60    7.10
  -5  -5  12   28.20    9.30
   5  -5 -12   23.20    8.10
   5   5 -12   43.20    8.70
  -5   5  12   26.90   10.80
   5   5 -12   44.90   11.10
   5   5 -12   24.00    8.30
  -3  -5  12   11.30    5.10
   3  -5 -12   23.90    7.20
   3  -5 -12    4.60    3.80
  -3  -5  12   14.30    6.00
  -3  -5  12   13.50    5.90
   3  -5 -12    7.00    3.80
   3   5 -12   27.40    8.00
  -3   5  12   19.50    7.30
   3   5 -12   20.60    6.50
   3   5 -12   15.30    3.90
  -1  -5  12 1214.58   39.20
   1  -5 -12 1206.28   39.10
   1  -5 -12 1184.88   41.00
  -1  -5  12 1303.57   41.50
  -1  -5  12 1142.19   37.50
  -1   5  12 1257.87   47.70
  -1   5  12 1141.89   40.10
   1   5 -12 1258.07   40.40
  -1   5  12 1234.18   40.40
   1   5 -12 1186.98   39.40
   1   5 -12 1178.48   31.60
  -1  -5 -12   -3.00    6.60
   1  -5  12    8.00    3.20
   1  -5  12    9.00    3.40
  -1  -5 -12    6.80    4.80
   1  -5  12    9.50    3.70
  -1  -5 -12   -1.90    4.50
  -1  -5 -12    9.20    3.90
   1  -5  12    7.00    3.90
   1   5  12    5.50    4.20
   1   5  12    7.20    4.70
  -1   5 -12    6.00    3.00
  -1   5 -12    6.20    3.10
  -3  -5 -12   79.79   14.20
   3  -5  12   65.99   11.60
   3  -5  12   67.69    7.90
   3  -5  12   67.69    7.80
  -3  -5 -12   44.30   16.10
   3   5  12   63.39   11.90
  -3   5 -12   65.79   11.00
   5  -5  12  206.68   17.00
  -5  -5 -12  262.17   24.10
   5  -5  12  219.58   15.00
   5   5  12  252.97   21.70
   5   5  12  245.88   21.80
   7  -5  12   52.29    8.90
   7  -5  12   23.70   10.60
  -7  -5 -12   25.50    9.90
   7   5  12   32.90   12.00
   6  -6 -12  -10.60   10.70
  -6  -6  12   -4.80    6.50
  -6   6  12    8.10    7.60
   6   6 -12   -0.20    5.00
   6   6 -12    4.00    5.60
   6   6 -12   -1.10   10.40
   4  -6 -12   -1.90    3.00
  -4  -6  12   -3.80    4.60
   4  -6 -12   -1.60    3.10
   4   6 -12    1.60    4.40
   4   6 -12    1.00    4.00
   4   6 -12    0.20    3.80
  -2  -6  12   62.09   14.40
  -2  -6  12   62.49   13.40
   2  -6 -12   59.19    9.80
  -2  -6  12   68.09   11.40
   2  -6 -12   68.49   10.00
   2  -6 -12   63.89   11.30
  -2   6  12   53.49   12.10
   2   6 -12   77.89   13.10
   2   6 -12   71.09   12.10
   2   6 -12   48.30    8.50
   0  -6  12  226.18   14.60
   0  -6  12  216.28   15.10
   0  -6 -12  204.28   17.40
   0  -6  12  214.08   16.60
   0  -6 -12  214.28   17.40
   0  -6 -12  229.58   17.80
   0   6  12  230.58   16.90
   0   6  12  184.98   19.20
   0   6 -12  231.68   14.60
   0   6 -12  225.08   15.80
   2  -6  12   78.99    4.80
   2  -6  12   67.29   11.70
  -2  -6 -12   61.49   11.60
  -2  -6 -12   59.59   11.40
   2  -6  12   77.99    5.00
   2  -6  12   70.59   11.00
  -2  -6 -12   73.69   14.10
  -2   6 -12   72.49    7.10
  -2   6 -12   89.39   10.60
   2   6  12   73.49   12.40
  -4  -6 -12    4.00    4.20
   4  -6  12    7.10    4.60
   4  -6  12   10.10    3.30
   4   6  12    3.90    5.80
   6  -6  12    5.60    4.60
   6  -6  12    4.00    5.00
   6   6  12  -16.90    6.20
  -5  -7  12    6.50    7.70
   5  -7 -12   13.60    5.30
   5   7 -12    3.10    5.40
   5   7 -12   19.90   11.70
  -5   7  12   27.90   11.50
   5   7 -12    9.70    7.70
  -3  -7  12  -13.10    5.40
   3  -7 -12   -4.90    3.80
   3  -7 -12    9.00    3.80
   3  -7 -12    5.30    3.60
  -3  -7  12   -5.30    5.30
  -3   7  12   -4.60    5.10
   3   7 -12   -4.50    3.90
   3   7 -12    2.80    5.30
   3   7 -12   -0.90    4.00
  -1  -7  12    3.10    4.40
  -1  -7  12    2.30    4.50
   1  -7 -12   -5.10    4.80
   1  -7 -12    2.70    3.50
  -1   7  12    8.90    5.30
   1   7 -12    5.50    4.30
  -1  -7 -12    0.10    5.20
   1  -7  12    6.60    6.10
  -1  -7 -12   15.80    8.00
   1  -7  12   15.90    4.60
  -1   7 -12   21.50    6.30
  -1   7 -12    9.30    5.20
   1   7  12   15.10    7.60
   1   7  12   20.00    6.80
   3  -7  12   -5.50    3.40
  -3  -7 -12    3.90    5.50
   3  -7  12   -4.20    5.70
   3  -7  12    2.90    2.70
   3  -7  12    0.20    2.50
  -3   7 -12    4.60    4.90
   3   7  12   -0.70    5.00
   5  -7  12    3.60    4.60
  -5  -7 -12    9.90    7.40
   5  -7  12   20.00    5.90
   5   7  12    0.50    6.80
   4  -8 -12    0.60    4.20
   4  -8 -12   -1.60    4.30
  -4  -8  12    5.30    7.70
   4   8 -12   13.90    7.60
   4   8 -12    7.10   10.10
   4   8 -12   -4.70    5.60
  -4   8  12    5.50    8.40
   2  -8 -12   93.69   11.70
  -2  -8  12   94.69   15.80
   2  -8 -12   82.49   12.90
  -2  -8  12   83.99   14.50
  -2   8  12   82.09   17.60
   2   8 -12  109.59   13.40
   2   8 -12   95.19   16.80
   0  -8 -12   58.19   11.90
   0  -8 -12   77.59   15.00
   0  -8  12   76.69   11.90
   0  -8  12   64.99   10.70
   0   8  12   61.69   14.90
   0   8 -12   58.59   10.80
   0   8  12   62.29   11.80
   0   8 -12   63.19   11.60
   2   8  12    5.10    6.80
   2   8  12    0.20    4.90
  -2   8 -12   -2.60    4.50
   4  -8  12    2.40    6.00
   4  -8  12   10.10    5.10
  -4  -8 -12   10.00    7.70
  -4   8 -12   21.10    8.70
   4   8  12   19.30    8.40
   1  -9 -12   24.50   11.10
   1   9 -12    9.90    7.90
   1   9 -12   20.90    9.50
  -1   9  12   25.50   11.70
  -1  -9 -12    6.20    6.00
   1  -9  12   -6.50    3.10
   1   9  12   -9.30    5.10
   1   9  12    4.70    7.80
   8   0 -13   11.90    8.30
   8   0 -13   10.10   12.50
   6   0 -13    3.50    4.50
   4   0 -13   -2.10    2.40
  -4   0  13   -2.30    3.10
  -4   0  13    2.20    3.90
  -4   0  13   -5.10    2.60
   4   0 -13   -1.60    2.60
   4   0 -13   -3.70    2.70
  -2   0  13    0.70    1.90
   2   0 -13    4.00    2.80
  -2   0  13    2.30    2.70
  -2   0  13    2.20    1.80
   2   0 -13   -2.30    1.60
   2   0 -13    2.20    1.80
   2   0 -13   -0.10    1.40
   0   0 -13    2.50    2.20
   0   0  13   -2.60    1.20
   0   0 -13    0.50    1.60
   0   0  13   -0.10    1.70
   0   0 -13    0.80    1.00
  -2   0 -13    0.30    2.60
  -2   0 -13   -0.90    1.20
   2   0  13    0.30    2.80
  -2   0 -13   -1.70    1.60
   4   0  13    2.80    2.10
  -4   0 -13    1.10    2.70
  -4   0 -13   -2.70    1.60
   4   0  13   -2.60    2.30
   4   0  13   -0.50    2.70
   6   0  13   -0.90    3.50
  -6   0 -13   -1.10    3.60
   6   0  13   -2.00    3.40
  -6   0 -13   -1.10    3.70
   8   0  13   -7.00    4.40
   8   0  13    4.40    7.00
   7  -1 -13    9.40    5.30
   7  -1 -13   22.40    8.30
   7  -1 -13    1.20    3.20
   7   1 -13    4.30    5.60
   7   1 -13   10.70    6.20
   7   1 -13   10.60    6.20
   5  -1 -13   20.80    6.10
   5  -1 -13   20.80    6.90
   5  -1 -13    3.60    5.00
   5   1 -13    9.30    5.30
  -5   1  13    6.60    4.90
   5   1 -13   18.20    6.00
   5   1 -13   19.70    6.20
  -3  -1  13  444.56   20.30
   3  -1 -13  417.76   20.70
   3  -1 -13  415.76   20.10
   3  -1 -13  433.26   21.00
   3  -1 -13  420.76   20.80
  -3  -1  13  427.06   20.90
   3   1 -13  433.86   21.60
   3   1 -13  426.66   20.30
  -3   1  13  399.66   19.90
  -3   1  13  474.45   21.10
   3   1 -13  458.75   21.40
  -3   1  13  420.56   20.40
   1  -1 -13 2938.11   62.79
  -1  -1  13 2844.42   57.49
   1  -1 -13 2953.90   62.19
  -1  -1  13 3003.10   55.29
   1  -1 -13 2880.71   58.29
  -1  -1  13 2852.71   61.19
  -1  -1  13 2805.92   47.70
   1   1 -13 2918.11   55.59
  -1   1  13 2970.40   60.69
   1   1 -13 2857.21   61.69
  -1   1  13 2977.20   62.49
   1   1 -13 2805.92   63.79
  -1   1  13 2969.20   62.99
  -1  -1 -13 1428.56   39.00
   1  -1  13 1450.65   36.60
  -1  -1 -13 1444.46   33.40
   1  -1  13 1457.05   35.90
  -1  -1 -13 1422.36   39.70
  -1   1 -13 1505.85   37.00
   1   1  13 1450.85   39.50
   1   1  13 1497.65   40.30
  -1   1 -13 1492.35   36.10
  -3  -1 -13   16.00    4.50
  -3  -1 -13   29.90    7.00
   3  -1  13   13.70    4.10
  -3  -1 -13   20.40    5.90
   3  -1  13   19.80    5.30
   3  -1  13   24.30    3.60
   3   1  13   19.70    6.50
  -3   1 -13   18.00    4.50
   3   1  13   16.00    4.70
  -3   1 -13   14.20    4.80
   3   1  13   15.80    4.10
  -5  -1 -13   30.30    8.10
   5  -1  13   42.20    7.30
   5  -1  13   35.70    8.70
   5  -1  13   44.40    7.40
  -5  -1 -13   31.10    6.70
  -5   1 -13   20.40    5.70
   5   1  13   31.90    7.50
   5   1  13   30.50    7.90
  -5   1 -13   38.00    6.90
   5   1  13   42.80    9.10
  -5   1 -13   32.10    7.70
   7  -1  13  292.67   25.10
  -7  -1 -13  320.87   24.70
   7  -1  13  326.97   21.40
  -7   1 -13  325.07   20.30
   7   1  13  315.57   23.20
  -7   1 -13  294.37   20.40
   7   1  13  330.17   27.40
   8  -2 -13  139.29   22.70
   8  -2 -13  175.48   17.40
  -8  -2  13  181.28   21.40
   8  -2 -13  179.88   22.30
   8   2 -13  167.38   20.50
   8   2 -13  200.58   23.30
   8   2 -13  204.38   22.30
   6  -2 -13   -3.30    2.90
  -6   2  13   -1.50    3.50
   6   2 -13   -1.30    3.20
   6   2 -13   -0.90    3.60
   6   2 -13   -4.70    4.10
   6   2 -13    4.80    4.20
  -4  -2  13  580.54   27.20
   4  -2 -13  637.44   29.00
  -4  -2  13  647.74   44.40
   4  -2 -13  595.14   33.90
   4  -2 -13  616.94   25.80
   4  -2 -13  586.54   27.80
  -4   2  13  553.34   27.00
  -4   2  13  603.14   30.30
   4   2 -13  591.74   28.80
   4   2 -13  604.94   28.80
   4   2 -13  595.84   23.50
  -4   2  13  646.24   29.90
   2  -2 -13    8.10    3.30
   2  -2 -13    6.70    3.50
   2  -2 -13    9.50    3.50
  -2  -2  13   17.00    4.90
  -2  -2  13    8.90    3.40
   2  -2 -13    9.20    3.60
   2   2 -13   13.90    2.50
   2   2 -13    9.90    3.60
   2   2 -13    5.70    2.70
   2   2 -13   10.10    3.50
  -2   2  13   12.80    4.00
   0  -2 -13   14.40    4.40
   0  -2  13   23.60    2.90
   0  -2  13   21.80    4.50
   0  -2 -13   21.30    4.90
   0  -2  13   28.30    4.30
   0   2  13   28.60    6.30
   0   2 -13   20.20    4.60
   0   2 -13   22.90    4.00
   0   2 -13   19.20    3.10
  -2  -2 -13  962.70   34.10
  -2  -2 -13  991.10   34.90
   2  -2  13 1000.20   30.30
   2  -2  13 1009.00   29.70
   2  -2  13  964.70   26.20
  -2  -2 -13  969.00   30.30
   2   2  13 1024.20   34.80
  -2   2 -13 1022.50   26.80
   2   2  13 1044.80   35.20
  -2   2 -13  958.80   29.50
   4  -2  13   15.60    5.30
  -4  -2 -13   12.60    5.50
  -4  -2 -13    8.80    4.90
   4  -2  13   13.00    3.90
  -4  -2 -13   16.80    5.50
   4  -2  13   16.70    3.90
  -4  -2 -13   16.80    6.20
   4  -2  13   12.10    5.20
  -4   2 -13   14.20    3.60
  -4   2 -13    9.00    3.40
   4   2  13   11.40    4.80
   4   2  13   18.90    6.10
   4   2  13   18.90    6.10
  -4   2 -13    7.00    4.30
  -4   2 -13   15.00    4.00
  -6  -2 -13   -0.40    4.10
   6  -2  13    1.60    3.30
   6   2  13    7.30    4.40
  -6   2 -13   -6.00    3.50
  -6   2 -13    8.50    4.40
   6   2  13   -5.30    5.30
  -8  -2 -13   -3.80    8.40
   8  -2  13   -4.80    7.80
   8   2  13    2.80    6.00
   8   2  13    3.70    8.30
   7  -3 -13   91.79   13.00
   7  -3 -13   85.89   15.80
   7  -3 -13   95.39   16.50
  -7  -3  13   76.29   15.00
   7   3 -13  101.49   17.50
   7   3 -13   84.79   14.30
  -7   3  13  101.79   18.50
   7   3 -13   96.99   18.10
   5  -3 -13    1.60    2.50
  -5   3  13    2.60    5.20
   5   3 -13   -3.40    2.50
   5   3 -13    4.00    3.80
   5   3 -13    1.50    3.20
   5   3 -13    8.40    4.00
  -3  -3  13   18.80    4.90
   3  -3 -13    9.50    5.20
   3  -3 -13    8.00    4.40
   3  -3 -13    6.20    3.80
   3  -3 -13   10.80    4.30
  -3  -3  13   17.50    5.20
   3   3 -13   15.80    4.50
   3   3 -13   18.60    3.90
   3   3 -13   10.20    4.40
  -3   3  13   19.80    6.90
   3   3 -13    9.80    4.40
  -1  -3  13 1210.68   32.70
   1  -3 -13 1244.78   37.50
   1  -3 -13 1194.58   38.00
   1   3 -13 1244.38   36.80
   1   3 -13 1218.78   27.00
   1   3 -13 1237.28   33.80
  -1   3  13 1239.58   41.20
  -1   3  13 1285.17   39.10
  -1   3  13 1169.08   37.30
   1  -3  13  122.99    7.70
  -1  -3 -13  127.29   11.90
   1  -3  13  132.69    8.20
  -1  -3 -13  117.29   11.50
  -1  -3 -13  117.19   10.80
   1  -3  13  119.09    8.30
   1   3  13  140.69   12.40
  -1   3 -13  128.09    7.90
   1   3  13  121.99   11.60
  -1   3 -13  124.79    8.90
  -3  -3 -13   51.89    9.10
  -3  -3 -13   70.09   11.70
   3  -3  13   52.29    8.90
  -3  -3 -13   47.60   10.90
   3  -3  13   74.29    8.50
  -3  -3 -13   49.10    9.40
  -3   3 -13   51.59    5.40
   3   3  13   54.59   10.10
  -3   3 -13   57.29    8.80
   3   3  13   48.50    9.80
  -5  -3 -13  172.08   16.00
  -5  -3 -13  182.38   17.70
   5  -3  13  174.58   12.10
   5  -3  13  169.88   15.80
   5   3  13  143.19   25.80
   5   3  13  169.58   17.40
   5   3  13  169.08   16.10
   7  -3  13   51.69   13.80
   7  -3  13   65.19   10.00
  -7  -3 -13   62.49   14.40
   7   3  13   78.79   13.90
   6  -4 -13   94.89   15.50
   6  -4 -13   96.69   10.80
  -6  -4  13  127.09   20.30
   6   4 -13   88.99   14.70
   6   4 -13   97.29   13.00
  -6   4  13  103.89   17.40
   6   4 -13  126.79   13.90
   6   4 -13   80.39   15.60
   4  -4 -13  642.24   26.40
  -4  -4  13  564.54   30.50
   4  -4 -13  644.94   32.00
   4   4 -13  675.73   33.20
   4   4 -13  687.13   33.60
   4   4 -13  649.34   25.70
  -4   4  13  652.33   34.20
   2  -4 -13  431.16   20.90
  -2  -4  13  386.86   20.20
   2  -4 -13  382.96   21.80
  -2  -4  13  420.36   21.70
  -2   4  13  405.06   24.80
   2   4 -13  378.36   13.50
   2   4 -13  428.76   21.80
   2   4 -13  377.46   13.30
   2   4 -13  416.66   22.70
   0  -4 -13  752.72   30.30
   0  -4  13  760.42   24.70
   0  -4 -13  693.03   29.00
   0  -4  13  723.73   25.10
   0   4  13  772.42   30.10
   0   4 -13  750.92   26.70
   0   4  13  766.72   34.40
   0   4 -13  740.33   19.70
  -2  -4 -13  416.06   28.30
   2  -4  13  436.46   15.50
   2  -4  13  407.06   15.80
  -2  -4 -13  423.16   23.40
   2  -4  13  409.96   16.60
   2  -4  13  417.46   19.70
  -2  -4 -13  396.36   23.80
  -2  -4 -13  444.06   30.50
  -2   4 -13  436.36   17.10
   2   4  13  404.86   23.00
  -4  -4 -13  245.58   20.20
   4  -4  13  192.68   17.30
   4  -4  13  203.18   11.90
   4  -4  13  216.18   15.60
   4   4  13  211.88   18.30
   4   4  13  186.18   18.10
   6  -4  13  111.59   16.90
   6  -4  13  113.69   11.20
  -6  -4 -13   97.79   17.10
   6   4  13  111.89   18.50
   6   4  13  104.59   16.00
   7  -5 -13   -7.10    5.90
   7  -5 -13   -1.00    3.90
  -7  -5  13  -11.30    7.20
   7   5 -13  -10.50    5.40
   7   5 -13    8.10    7.70
   7   5 -13    6.30    6.80
  -7   5  13   15.70    8.30
  -5  -5  13    1.20    4.50
   5  -5 -13    6.20    4.40
   5   5 -13    1.90    4.50
   5   5 -13   10.70    6.10
  -5   5  13    5.20    5.30
   5   5 -13    5.70    4.30
  -3  -5  13  179.78   16.50
   3  -5 -13  218.48   18.20
  -3  -5  13  214.38   18.70
   3  -5 -13  184.88   14.10
  -3  -5  13  206.28   17.80
  -3   5  13  195.08   19.40
   3   5 -13  211.18   10.60
   3   5 -13  183.68   10.70
   3   5 -13  212.38   17.70
   3   5 -13  193.58   17.60
   1  -5 -13   73.49   11.30
   1  -5 -13   93.39   13.40
  -1  -5  13   90.89   10.00
  -1  -5  13   82.39   10.20
  -1  -5  13  100.39   10.80
   1   5 -13   65.19   10.50
  -1   5  13  101.69   11.10
  -1   5  13   84.89   14.30
  -1   5  13   90.89   13.50
   1   5 -13   81.79    7.10
   1   5 -13   76.59   11.20
  -1  -5 -13   12.50    5.60
   1  -5  13    7.90    3.90
   1  -5  13   10.80    3.40
   1  -5  13    2.10    2.70
  -1  -5 -13    5.90    4.00
  -1  -5 -13   -3.00    3.30
   1  -5  13   11.30    4.50
  -1  -5 -13   10.40    5.40
  -1   5 -13    7.10    3.40
  -1   5 -13    3.00    2.70
   1   5  13    3.00    2.70
   3  -5  13  332.87   21.70
   3  -5  13  355.86   17.30
   3  -5  13  339.97   17.20
  -3  -5 -13  350.26   24.60
   3  -5  13  330.87   16.00
   3   5  13  359.26   23.40
  -5  -5 -13   -0.80    4.10
   5  -5  13   -1.00    3.50
   5  -5  13   12.40    4.90
   5   5  13    6.20    5.50
   6  -6 -13   32.20    6.80
   6  -6 -13   39.00   12.80
   6   6 -13   51.99   13.30
   6   6 -13   48.40   10.00
  -6   6  13   38.60   13.00
  -4  -6  13  213.38   21.20
   4  -6 -13  208.48   19.80
   4  -6 -13  222.98   15.20
   4   6 -13  206.78   13.10
   4   6 -13  179.68   19.60
  -4   6  13  199.48   21.90
   4   6 -13  226.08   20.90
  -2  -6  13   11.60    4.90
  -2  -6  13   15.50    5.90
   2  -6 -13    3.80    2.80
  -2  -6  13   11.40    6.10
   2   6 -13    7.20    5.30
   2   6 -13    0.10    3.50
   2   6 -13   13.40    5.10
  -2   6  13    7.90    4.60
   0  -6 -13  126.79   23.80
   0  -6  13  106.59   11.90
   0  -6  13  128.89   11.40
   0  -6 -13  114.09   13.20
   0  -6 -13  122.69   14.00
   0  -6  13  114.09   10.70
   0   6  13  136.99   13.60
   0   6 -13  112.59   10.10
   0   6 -13  129.99   12.20
  -2  -6 -13   20.60    7.00
   2  -6  13   34.50    7.20
   2  -6  13   22.90    6.60
   2  -6  13   26.80    3.10
  -2  -6 -13   18.60    8.50
  -2   6 -13   20.00    5.00
  -2   6 -13   11.00    5.40
   2   6  13   16.20    6.50
   4  -6  13    3.30    4.20
   4  -6  13    0.80    3.30
  -4  -6 -13   -6.40    3.20
   4   6  13   -8.30    4.50
   6  -6  13    5.60    6.90
   6  -6  13   22.20    6.10
  -6  -6 -13   21.60   12.40
   6   6  13   29.70   18.40
   5  -7 -13    7.30    7.60
   5  -7 -13   20.50    5.40
   5  -7 -13   12.30    6.50
  -5  -7  13    1.20    8.00
   5   7 -13   17.40    9.20
   5   7 -13   21.30    9.90
   5   7 -13   23.50    6.40
  -5   7  13   22.80   10.70
   3  -7 -13    6.10    4.50
  -3  -7  13    7.00    7.00
   3  -7 -13    1.10    3.10
   3  -7 -13   -5.80    3.70
  -3  -7  13    1.20    5.00
  -3   7  13   -9.70    5.40
   3   7 -13    0.70    5.70
   3   7 -13   10.80    6.40
   3   7 -13    9.00    5.30
   1  -7 -13   20.00    6.40
   1  -7 -13   17.50    6.60
  -1  -7  13    3.50    4.10
  -1  -7  13   17.20    6.60
   1   7 -13    8.60    5.40
   1   7 -13   -0.40    5.80
  -1   7  13    6.30    4.10
  -1  -7 -13   56.09   11.00
   1  -7  13   58.69    7.10
   1  -7  13   59.99    8.20
  -1  -7 -13   37.30   10.60
   1  -7  13   24.90    8.50
   1   7  13   39.50    9.30
   1   7  13   48.00   12.60
  -1   7 -13   43.80    9.00
  -1   7 -13   67.99   10.40
   3  -7  13  205.68   10.40
   3  -7  13  197.58   17.00
   3  -7  13  202.68   15.60
   3  -7  13  195.98   10.40
  -3  -7 -13  213.08   21.80
  -3   7 -13  206.08   17.80
   3   7  13  200.28   18.60
  -5  -7 -13    8.70    6.30
   5  -7  13   12.60    6.10
   5  -7  13    6.20    5.80
   5   7  13   21.90    9.20
   4  -8 -13   11.50    7.10
   4  -8 -13   11.60    4.90
  -4  -8  13   10.50    8.30
  -4   8  13    0.00    9.40
   4   8 -13    8.60    7.10
   4   8 -13   12.40   10.70
   4   8 -13   -1.30    7.00
   2  -8 -13   -2.40    4.20
  -2  -8  13    1.90    5.30
  -2  -8  13    4.00    7.10
   2  -8 -13  -10.30    5.20
   2   8 -13    5.80    5.80
   2   8 -13  -12.10    6.20
  -2   8  13    0.60   11.20
   0  -8 -13   -1.30    6.70
   0  -8  13    0.70    4.40
   0  -8  13   -1.50    3.90
   0  -8 -13    8.80    6.60
   0   8 -13    0.20    5.20
   0   8 -13    4.80    5.60
   0   8  13    4.70    7.30
  -2  -8 -13   19.40    8.40
   2   8  13   17.50    7.70
  -2   8 -13   36.10    9.10
  -4  -8 -13    2.70    7.70
   4  -8  13   13.10    7.00
   4   8  13    2.40    6.80
  -4   8 -13    1.30    7.80
   1  -9 -13   19.70    7.30
  -1  -9  13    4.60    7.00
   1   9 -13   21.90    8.20
   1   9 -13   14.70    8.80
  -1   9  13    2.00    9.40
  -1  -9 -13   -0.30    5.70
   1  -9  13    1.50    3.50
   1   9  13    0.80    6.10
   1   9  13    6.30    9.80
  -1   9 -13   -0.10    7.40
   8   0 -14  157.78   23.80
   8   0 -14  148.89   23.10
   6   0 -14    4.40    3.70
   6   0 -14    2.40    3.30
  -4   0  14 1506.85   67.49
   4   0 -14 1514.55   44.30
  -4   0  14 1509.05   57.59
   4   0 -14 1465.15   45.50
  -4   0  14 1502.45   43.50
   4   0 -14 1448.46   46.50
  -2   0  14  625.04   22.30
   2   0 -14  642.04   21.10
  -2   0  14  598.54   24.00
  -2   0  14  613.94   20.40
   2   0 -14  606.14   22.30
   2   0 -14  549.74   26.90
   2   0 -14  619.74   23.60
   0   0 -14  420.26   18.20
   0   0 -14  399.06   18.00
   0   0  14  464.75   22.10
   0   0 -14  430.66   13.40
   0   0  14  446.56   18.60
  -2   0 -14    7.10    2.20
   2   0  14    7.80    3.30
  -2   0 -14    5.60    2.50
   2   0  14    1.60    2.70
  -2   0 -14    9.30    3.80
  -4   0 -14  587.84   25.10
  -4   0 -14  564.64   27.90
  -4   0 -14  551.14   20.20
   4   0  14  604.14   28.80
   4   0  14  590.44   21.50
   4   0  14  592.44   24.60
  -6   0 -14    1.90    4.20
   6   0  14    0.50    3.30
  -6   0 -14   -2.80    3.40
   6   0  14    1.30    3.50
   8   0  14  108.89   19.50
   8   0  14   85.39   13.90
   7  -1 -14  174.08   18.80
   7  -1 -14  145.99   15.40
   7  -1 -14  150.08   17.60
   7   1 -14  146.59   17.00
   7   1 -14  156.08   17.20
   7   1 -14  160.68   19.20
   5  -1 -14  116.09   13.70
   5  -1 -14  111.79   13.10
   5  -1 -14  132.49   12.90
  -5   1  14   97.29   11.80
   5   1 -14  122.49   12.20
   5   1 -14  114.49   13.20
   5   1 -14  105.09   12.50
   3  -1 -14   17.20    5.40
   3  -1 -14   27.60    6.60
  -3  -1  14   28.10    6.40
  -3  -1  14   31.30    6.40
   3  -1 -14   23.60    6.00
   3  -1 -14   27.80    6.10
  -3   1  14   32.90    7.30
  -3   1  14   29.50    7.40
   3   1 -14   38.90    7.00
  -3   1  14   31.80    7.10
   3   1 -14   36.20    7.60
   3   1 -14   25.70    6.20
   3   1 -14   25.00    5.70
  -1  -1  14   28.80    4.70
  -1  -1  14   29.30    5.50
   1  -1 -14   20.80    4.40
  -1  -1  14   24.10    2.60
  -1  -1  14   17.20    4.70
   1  -1 -14    7.40    4.90
   1  -1 -14   27.00    6.00
  -1   1  14   23.20    5.30
  -1   1  14   20.60    5.10
  -1   1  14   21.80    5.10
   1   1 -14   22.40    4.60
   1   1 -14   34.70    6.70
   1   1 -14   25.60    4.60
   1  -1  14  457.55   18.40
  -1  -1 -14  429.46   20.20
  -1  -1 -14  399.16   18.90
  -1  -1 -14  410.86   15.50
   1  -1  14  425.36   17.60
  -1   1 -14  440.86   17.90
   1   1  14  438.86   20.10
  -1   1 -14  451.25   18.30
  -3  -1 -14   26.80    5.40
   3  -1  14   33.60    7.70
  -3  -1 -14   43.90    9.00
   3  -1  14   32.50    6.10
  -3  -1 -14   31.00    6.70
   3   1  14   32.80    5.80
   3   1  14   37.60    8.20
  -3   1 -14   41.60    8.30
  -3   1 -14   40.20    6.80
   3   1  14   32.60    7.50
   5  -1  14   13.60    4.70
  -5  -1 -14    6.90    4.90
   5  -1  14    2.10    3.90
   5  -1  14    7.40    3.90
  -5  -1 -14    9.90    4.50
   5   1  14    8.10    4.70
   5   1  14    3.10    3.50
  -5   1 -14    5.70    3.60
  -5   1 -14   11.10    4.60
  -5   1 -14   11.10    4.40
   5   1  14    9.40    4.40
  -7  -1 -14   87.09   14.70
   7  -1  14  110.69   12.00
   7  -1  14  100.99   17.30
   7   1  14  111.49   15.70
  -7   1 -14  136.79   13.80
  -7   1 -14  120.29   14.00
   7   1  14  133.19   20.60
   8  -2 -14    9.60    7.70
  -8  -2  14   -3.30    7.40
   8  -2 -14    6.30    6.40
   8  -2 -14    4.40    6.20
   8   2 -14    2.70    6.60
   8   2 -14    4.40    9.80
   8   2 -14   11.30    7.70
   6  -2 -14  246.68   20.70
   6  -2 -14  264.67   18.40
   6   2 -14  216.98   18.60
   6   2 -14  243.08   20.90
   6   2 -14  218.28   19.90
  -6   2  14  258.17   21.70
   6   2 -14  256.57   20.20
   4  -2 -14  808.82   31.00
   4  -2 -14  841.52   34.10
  -4  -2  14  763.22   34.40
   4  -2 -14  799.92   33.50
  -4   2  14  841.52   34.10
   4   2 -14  883.01   35.70
   4   2 -14  857.51   34.80
   4   2 -14  797.02   27.80
  -4   2  14  845.02   31.70
  -4   2  14  804.22   34.40
   2  -2 -14  314.87   17.30
   2  -2 -14  331.77   17.80
   2  -2 -14  346.17   19.30
  -2  -2  14  333.17   18.00
   2  -2 -14  375.56   19.30
  -2  -2  14  322.47   15.80
  -2   2  14  336.57   17.90
   2   2 -14  339.77   10.40
   2   2 -14  304.67   20.80
   2   2 -14  324.57   16.60
   2   2 -14  329.97   15.10
  -2   2  14  337.67   19.40
   0  -2  14  826.02   19.20
   0  -2 -14  801.32   29.40
   0  -2  14  831.42   26.20
   0  -2  14  798.32   22.90
   0  -2 -14  797.22   28.90
   0   2 -14  822.92   19.90
   0   2  14  793.22   29.10
   0   2 -14  872.31   27.00
   0   2 -14  795.72   22.70
   0   2  14  789.72   28.80
  -2  -2 -14   56.59    9.50
  -2  -2 -14   60.29    9.90
   2  -2  14   53.39    6.50
   2  -2  14   49.40    6.60
  -2  -2 -14   50.19    7.40
   2  -2  14   55.29    6.70
  -2   2 -14   54.19    6.00
   2   2  14   52.99    9.10
   2   2  14   76.19   11.50
  -2   2 -14   51.49    7.60
   4  -2  14  591.64   28.20
   4  -2  14  589.84   19.00
   4  -2  14  600.94   29.10
  -4  -2 -14  585.34   45.70
  -4  -2 -14  592.74   29.00
  -4  -2 -14  588.54   25.60
  -4  -2 -14  562.94   45.20
   4  -2  14  623.04   20.20
  -4   2 -14  592.54   21.10
   4   2  14  635.84   31.20
   4   2  14  638.34   26.90
  -4   2 -14  569.74   26.20
   4   2  14  582.54   28.90
   6  -2  14   66.89   10.30
   6  -2  14   66.29   12.70
  -6  -2 -14   73.29   13.00
  -6   2 -14   65.99    9.90
   6   2  14   72.99   13.50
   6   2  14   70.19   12.60
   6   2  14   61.99   11.70
   8  -2  14    2.40    6.00
   8  -2  14    8.30    6.70
  -8  -2 -14   15.60    8.40
   8   2  14   20.50    7.80
   8   2  14   -7.00    6.10
   7  -3 -14   24.90   10.10
  -7  -3  14   13.70    9.00
   7  -3 -14   28.70    8.10
   7   3 -14   32.30   10.50
   7   3 -14   33.20    8.60
   7   3 -14   19.40    9.40
  -7   3  14   55.69   12.80
   5  -3 -14   -1.60    2.10
   5  -3 -14    3.30    3.30
   5   3 -14    5.30    4.10
   5   3 -14    2.10    4.00
  -5   3  14    1.70    3.70
   5   3 -14   -1.40    3.20
   5   3 -14    1.90    3.40
  -3  -3  14   55.79    9.60
  -3  -3  14   57.19    9.40
   3  -3 -14   61.49    9.90
   3  -3 -14   59.89    9.40
   3   3 -14   76.19   12.40
  -3   3  14   60.79   11.00
   3   3 -14   57.69    9.30
   3   3 -14   62.49    5.90
   1  -3 -14  215.38   14.90
  -1  -3  14  208.48   11.80
   1  -3 -14  202.28   14.20
  -1  -3  14  198.68   13.30
   1   3 -14  205.78   14.10
  -1   3  14  195.08   15.50
   1   3 -14  191.08   12.10
   1   3 -14  196.38    9.30
  -1   3  14  212.18   15.10
  -1  -3 -14    3.00    3.50
   1  -3  14    4.50    2.30
   1  -3  14    4.50    2.40
  -1  -3 -14    1.10    2.70
  -1  -3 -14    3.20    3.60
   1  -3  14    0.50    2.10
   1   3  14    4.00    3.60
  -1   3 -14    4.40    2.50
  -1   3 -14    3.00    2.30
   1   3  14    5.30    3.30
  -3  -3 -14   -0.90    2.50
   3  -3  14    4.20    3.50
  -3  -3 -14    2.00    3.50
  -3  -3 -14   -0.30    2.60
   3  -3  14    1.60    2.80
  -3  -3 -14    6.30    3.60
  -3   3 -14   -1.50    2.80
   3   3  14   -1.80    2.20
   3   3  14    3.30    4.40
  -5  -3 -14   -6.80    3.70
  -5  -3 -14   -5.10    3.50
   5  -3  14    0.50    2.60
   5  -3  14    6.90    4.30
   5   3  14    2.90    4.00
   5   3  14    2.60    3.80
   5   3  14   -1.30    5.50
   7  -3  14    4.90    4.30
   7  -3  14    5.20    6.20
   7   3  14    9.80    5.80
   7   3  14   20.00    9.30
   6  -4 -14   -5.70    2.70
  -6  -4  14   -4.40    4.00
   6  -4 -14    5.40    5.00
   6   4 -14   -4.40    4.60
  -6   4  14    6.40    5.60
   6   4 -14   -5.30    4.30
   6   4 -14    6.20    6.20
   6   4 -14   -2.30    4.10
   4  -4 -14   41.00    7.90
  -4  -4  14   65.99   12.30
   4  -4 -14   24.20    6.90
   4   4 -14   39.20    8.80
   4   4 -14   49.30    7.60
  -4   4  14   40.70   10.40
   4   4 -14   34.40    7.40
   4   4 -14   39.20    9.50
   2  -4 -14   32.80    6.90
   2  -4 -14   31.30    8.80
  -2  -4  14   30.70    7.20
  -2  -4  14   52.79    9.70
   2  -4 -14   35.60    8.50
   2   4 -14   33.80    7.30
   2   4 -14   31.10    7.20
   2   4 -14   40.30    4.50
   2   4 -14   43.20    4.70
  -2   4  14   34.70    8.40
  -2   4  14   34.80    8.80
   2   4 -14   44.60    4.40
   0  -4 -14   52.59    9.40
   0  -4  14   54.39    7.60
   0  -4 -14   54.09    9.40
   0  -4  14   62.39    7.30
   0   4  14   35.30    7.70
   0   4 -14   54.19    4.40
   0   4  14   50.19    9.90
   0   4 -14   47.50    8.00
   0   4  14   52.99    9.10
  -2  -4 -14   33.70    8.80
   2  -4  14   38.70    4.70
   2  -4  14   32.20    5.60
  -2  -4 -14   33.50    8.00
  -2  -4 -14   37.30   11.40
   2  -4  14   32.80    6.60
   2  -4  14   30.80    4.70
   2  -4  14   35.60    5.00
  -2  -4 -14   32.10    7.80
   2   4  14   30.40    8.00
   2   4  14   27.70    7.70
  -2   4 -14   37.20    9.10
  -2   4 -14   26.10    4.70
   4  -4  14   -7.90    3.90
   4  -4  14   -1.30    3.50
   4  -4  14    1.10    2.30
  -4  -4 -14    3.70    3.60
   4   4  14    7.40    9.20
   4   4  14    3.10    4.80
   6  -4  14    8.50    5.90
   6  -4  14    8.20    4.50
  -6  -4 -14   -1.50    5.00
   6   4  14    7.70    6.40
   6   4  14   14.20    7.60
  -7  -5  14    6.30   13.20
   7  -5 -14   -1.30    3.40
   7  -5 -14   -4.60    5.20
   7   5 -14   -2.90    6.70
   7   5 -14    0.70    6.80
   7   5 -14  -11.00    5.80
  -7   5  14    7.70    7.50
  -5  -5  14   27.70    8.00
   5  -5 -14   16.60    7.00
   5  -5 -14   26.40    6.40
   5   5 -14    2.60    5.40
   5   5 -14   20.00    6.80
   5   5 -14   15.30    8.00
  -5   5  14    3.00    6.60
   5   5 -14   25.60    8.10
  -3  -5  14   95.29   14.50
   3  -5 -14   78.79    9.80
   3   5 -14   79.29   13.60
  -3   5  14   93.79   18.50
   3   5 -14   88.19    7.30
   3   5 -14   71.69   12.90
   3   5 -14  100.69    7.70
   1  -5 -14   73.49   11.40
  -1  -5  14   79.19    9.90
  -1  -5  14   89.39   10.70
   1  -5 -14   86.59   10.30
   1   5 -14   99.99   11.00
   1   5 -14   89.79    6.80
  -1   5  14   98.49   11.40
  -1   5  14   78.59   14.10
   1   5 -14   94.69   10.60
  -1  -5 -14  103.09   12.80
  -1  -5 -14  134.39   14.20
   1  -5  14  115.99    9.50
  -1  -5 -14  118.29   13.00
   1  -5  14  124.39   10.10
  -1  -5 -14  139.19   14.20
   1  -5  14  110.39    9.00
   1   5  14  124.59   12.90
  -1   5 -14  125.59    9.70
  -1   5 -14  126.59   10.40
   3  -5  14  186.98   16.70
  -3  -5 -14  203.78   20.20
   3  -5  14  188.38   12.40
   3  -5  14  203.48   12.80
   3  -5  14  226.88   12.60
   3   5  14  205.48   17.90
   5  -5  14   18.40    4.60
   5  -5  14   19.00    6.30
  -5  -5 -14   11.70    7.30
   5   5  14    7.30    6.40
   6  -6 -14   43.70   12.30
   6  -6 -14   40.90    7.80
  -6  -6  14   32.80   13.00
  -6   6  14   36.80   12.60
   6   6 -14   35.60   12.90
   6   6 -14   39.20   21.00
   6   6 -14   30.80    9.20
   4  -6 -14  136.69   12.30
  -4  -6  14  109.59   17.70
   4  -6 -14  128.09   15.90
   4   6 -14  126.39   29.40
   4   6 -14  125.89   10.30
  -4   6  14  137.39   18.50
   4   6 -14  114.09   18.50
   2  -6 -14   10.40    5.50
  -2  -6  14    8.00    5.40
  -2  -6  14   15.80    6.10
   2  -6 -14    9.10    5.70
  -2  -6  14    2.80    6.70
   2   6 -14    8.60    4.00
   2   6 -14   10.00    6.50
   2   6 -14   -1.70    4.80
  -2   6  14    9.80    6.10
   0  -6  14  340.77   19.40
   0  -6  14  306.17   19.30
   0  -6  14  318.67   17.70
   0  -6 -14  312.07   21.80
   0  -6 -14  334.37   22.70
   0  -6 -14  349.57   22.50
   0   6  14  307.17   25.50
   0   6 -14  334.97   20.00
   0   6  14  321.67   21.20
   0   6 -14  331.17   16.20
   2  -6  14   18.40    6.00
  -2  -6 -14   31.70    9.60
   2  -6  14   21.00    7.00
   2   6  14   24.90    7.80
  -2   6 -14   14.70    5.70
   4  -6  14  133.19   13.40
   4  -6  14  149.88   12.00
   4  -6  14  149.49   13.20
  -4  -6 -14  150.08   18.70
   4   6  14  147.89   17.40
  -6  -6 -14   16.60   11.10
   6  -6  14   40.90    7.80
   6  -6  14   37.90    8.70
   5  -7 -14    4.40    6.60
   5  -7 -14    2.60    3.30
  -5  -7  14   -1.70    7.20
   5   7 -14   10.00    6.10
  -5   7  14    6.00    7.80
   5   7 -14   -7.10    4.80
   5   7 -14   -4.30    7.20
  -3  -7  14   28.30    9.50
   3  -7 -14   11.10    5.00
  -3  -7  14   21.60    7.80
   3  -7 -14   16.80    7.00
   3   7 -14    9.90    5.90
  -3   7  14    2.20    6.80
   3   7 -14   19.40    8.70
   3   7 -14    5.10    6.20
  -1  -7  14   40.10    9.00
   1  -7 -14   40.00   10.10
   1  -7 -14   27.50    7.60
  -1  -7  14   39.00    9.10
   1   7 -14   21.90    7.90
  -1   7  14   19.10    8.40
  -1  -7 -14   15.40    6.50
   1  -7  14   16.30    4.80
  -1  -7 -14   10.70    6.10
   1  -7  14   16.50    6.20
   1  -7  14   19.80    5.40
  -1   7 -14   18.00    6.10
  -1   7 -14   17.60    6.10
   1   7  14   12.80    6.00
   1   7  14    5.30    8.30
   3  -7  14   51.39    5.50
   3  -7  14   37.60    5.10
   3  -7  14   43.20    8.40
  -3  -7 -14   22.40    9.60
   3   7  14   47.50   10.80
  -3   7 -14   34.50    9.10
   5  -7  14   14.20    5.50
  -5  -7 -14   21.60   10.00
   5  -7  14    3.20    6.10
   5   7  14    1.60    9.30
   4  -8 -14   28.40    8.00
  -4  -8  14   21.40   10.80
   4  -8 -14   47.80   14.80
   4   8 -14   22.00    9.40
   4   8 -14    2.90    9.70
  -4   8  14   15.70   10.80
   2  -8 -14    0.50    5.80
  -2  -8  14   -3.20    4.60
  -2  -8  14    9.10    7.00
  -2   8  14    1.70    7.10
   2   8 -14   -1.50    4.70
   2   8 -14    4.30    6.30
   0  -8 -14  219.78   20.40
   0  -8  14  209.28   16.30
   0  -8  14  195.08   15.80
   0  -8 -14  234.28   25.50
   0   8  14  201.18   24.40
   0   8  14  235.58   20.00
   0   8 -14  229.18   18.60
   0   8 -14  228.98   16.90
   2   8  14   -9.40    7.00
   2   8  14   -0.90    5.20
   1  -9 -14    2.40    5.00
  -1  -9  14    2.30    7.40
  -1   9  14    3.10    7.70
   1   9 -14    3.20    6.70
   1   9 -14    9.10    7.20
   1  -9  14    7.00    4.10
  -1  -9 -14   -1.90    5.90
  -1   9 -14    8.60    6.70
   1   9  14   -7.20    6.80
   1   9  14    4.60    7.00
   8   0 -15   -2.30    6.00
   8   0 -15   17.90    8.70
   6   0 -15    7.10    5.00
   6   0 -15   -0.20    3.30
   4   0 -15   -1.30    2.80
  -4   0  15   -2.70    2.30
  -4   0  15    0.40    3.00
  -4   0  15   -3.10    2.20
   4   0 -15    4.20    3.60
   4   0 -15    3.70    3.60
   2   0 -15    1.70    2.10
  -2   0  15    0.10    2.00
   2   0 -15    1.60    1.80
  -2   0  15    2.60    2.00
  -2   0  15    1.00    1.60
   2   0 -15    3.40    2.30
   0   0 -15    5.40    2.90
   0   0  15    2.00    2.00
   0   0  15   -0.70    1.70
   0   0 -15    0.60    1.30
   0   0 -15   -3.50    1.80
   2   0  15    1.00    1.70
  -2   0 -15    1.40    1.30
  -2   0 -15   -0.20    2.60
  -2   0 -15   -0.80    1.90
  -4   0 -15    0.90    2.50
   4   0  15    6.00    3.40
  -4   0 -15   -1.80    2.50
   4   0  15   -3.40    2.70
  -4   0 -15   -6.50    3.80
   4   0  15    3.10    2.60
  -4   0 -15    2.10    3.60
   6   0  15    2.00    3.90
   6   0  15   -9.50    3.60
  -6   0 -15   -2.50    3.80
  -6   0 -15    9.20    4.50
   6   0  15   -3.60    3.30
  -8   0 -15   -8.70    7.00
   8   0  15    0.20    6.70
   8   0  15   -2.80    4.90
   7  -1 -15  166.48   19.10
   7  -1 -15  148.39   18.50
   7  -1 -15  137.99   15.80
   7   1 -15  158.48   19.00
   7   1 -15  142.49   20.80
   7   1 -15  147.39   17.50
   5  -1 -15  182.58   15.50
   5  -1 -15  177.48   16.70
   5  -1 -15  154.38   15.50
   5   1 -15  156.88   15.20
   5   1 -15  148.39   15.20
   5   1 -15  182.48   14.90
  -5   1  15  171.58   16.00
  -3  -1  15  406.66   20.10
  -3  -1  15  392.66   21.00
   3  -1 -15  400.96   21.30
   3  -1 -15  390.36   20.10
   3  -1 -15  392.16   20.40
   3  -1 -15  394.56   20.50
   3   1 -15  388.76   21.20
  -3   1  15  417.46   20.60
  -3   1  15  387.66   20.10
   3   1 -15  384.56   19.20
   3   1 -15  389.86   18.30
   3   1 -15  409.56   20.50
  -1  -1  15 1088.59   22.00
  -1  -1  15 1129.29   27.60
  -1  -1  15 1086.39   30.80
  -1  -1  15 1040.70   32.60
   1  -1 -15 1039.80   30.00
   1  -1 -15 1084.79   33.80
   1   1 -15 1084.39   33.50
  -1   1  15 1078.59   33.90
  -1   1  15 1066.69   34.00
  -1   1  15 1034.70   31.50
   1   1 -15 1117.49   31.00
   1   1 -15 1098.19   28.00
  -1  -1 -15   10.70    3.20
  -1  -1 -15    5.10    2.90
   1  -1  15    6.40    3.10
  -1  -1 -15    5.30    3.60
   1  -1  15   13.50    3.90
   1   1  15   12.20    4.30
  -1   1 -15   12.20    3.70
   1   1  15   10.00    4.00
  -1   1 -15   11.80    3.80
   3  -1  15  358.96   20.40
  -3  -1 -15  369.76   16.40
  -3  -1 -15  391.56   21.10
   3  -1  15  392.36   17.80
   3   1  15  348.77   21.10
   3   1  15  397.36   20.80
  -3   1 -15  387.76   20.60
  -3   1 -15  380.46   17.60
   5  -1  15  188.38   13.30
   5  -1  15  196.18   12.70
   5  -1  15  194.18   17.70
  -5  -1 -15  183.08   19.50
  -5  -1 -15  196.28   14.50
   5   1  15  166.48   14.90
   5   1  15  168.58   14.00
  -5   1 -15  188.58   11.80
  -5   1 -15  144.49   14.70
  -5   1 -15  177.78   13.50
   7  -1  15   -5.10    3.70
   7  -1  15   -3.00    6.00
  -7  -1 -15    0.30    6.10
  -7   1 -15   -2.60    5.00
   7   1  15    1.60    4.00
  -7   1 -15    6.30    5.50
   7   1  15   -1.90    5.50
   8  -2 -15   54.19   14.30
  -8  -2  15   38.70   13.80
   8  -2 -15   49.60   13.10
   8   2 -15   33.70   12.10
   8   2 -15   47.30   11.70
   6  -2 -15   16.20    6.70
   6  -2 -15    9.00    4.50
  -6   2  15   18.80    6.60
   6   2 -15   24.50    7.60
   6   2 -15   12.50    6.00
   6   2 -15   10.60    6.30
   6   2 -15   12.30    6.00
   4  -2 -15  362.46   22.60
   4  -2 -15  371.56   23.80
   4  -2 -15  389.16   22.80
   4  -2 -15  365.36   20.50
  -4  -2  15  395.06   23.20
  -4  -2  15  364.56   22.60
  -4   2  15  367.76   22.70
   4   2 -15  365.66   22.30
  -4   2  15  393.16   21.50
   4   2 -15  353.86   22.50
   4   2 -15  343.47   17.40
  -4   2  15  357.36   22.00
   2  -2 -15 1542.25   46.10
   2  -2 -15 1565.24   45.60
   2  -2 -15 1571.04   44.10
  -2  -2  15 1525.45   44.20
  -2  -2  15 1620.84   40.60
   2  -2 -15 1580.84   44.20
   2   2 -15 1582.64   41.80
  -2   2  15 1582.64   44.40
  -2   2  15 1623.44   46.00
   2   2 -15 1583.54   45.90
   2   2 -15 1517.95   29.00
   2   2 -15 1511.25   38.60
   0  -2 -15    2.00    2.70
   0  -2  15    1.00    1.60
   0  -2  15    4.10    1.40
   0  -2  15    0.40    2.00
   0  -2 -15    3.60    3.20
   0   2 -15   -2.80    1.20
   0   2  15   -0.30    2.30
   0   2 -15    1.00    1.60
   0   2  15    5.20    3.20
  -2  -2 -15  163.08   11.50
   2  -2  15  186.08   11.00
  -2  -2 -15  173.18   13.80
  -2  -2 -15  183.88   14.30
   2  -2  15  179.08   11.40
   2  -2  15  162.08   11.60
   2   2  15  156.78   13.40
  -2   2 -15  151.98   11.30
   2   2  15  193.38   15.10
  -2   2 -15  160.28   10.40
   4  -2  15  904.61   35.70
  -4  -2 -15  847.42   31.70
   4  -2  15  882.31   26.10
  -4  -2 -15  905.91   37.00
  -4   2 -15  900.81   27.70
   4   2  15  965.90   39.80
  -4   2 -15  931.51   27.90
   4   2  15  821.72   35.60
  -4   2 -15  921.61   40.60
   4   2  15  934.31   33.60
   6  -2  15   44.60   10.30
  -6  -2 -15   57.39   12.00
   6  -2  15   51.79    8.80
  -6   2 -15   32.80    6.80
  -6   2 -15   48.90    8.00
   6   2  15   28.00    9.90
   6   2  15   45.10   11.70
   6   2  15   30.50    7.80
   7  -3 -15  -10.90    4.40
   7  -3 -15    4.20    4.10
  -7  -3  15    1.00    5.70
   7   3 -15    8.50    6.60
   7   3 -15    5.10    6.60
   7   3 -15   -0.40    5.00
  -7   3  15   -0.50    5.50
   5  -3 -15   47.60    8.90
   5  -3 -15   44.30   10.30
   5   3 -15   64.59    9.90
   5   3 -15   72.49   11.50
  -5   3  15   57.59   11.60
  -3  -3  15   32.10    7.10
   3  -3 -15   44.30    9.20
   3  -3 -15   36.40    7.60
  -3  -3  15   34.60    7.10
   3  -3 -15   33.50    7.20
   3  -3 -15   29.50    8.00
   3   3 -15   19.80    4.50
   3   3 -15   30.90    7.30
   3   3 -15   37.70    8.80
   3   3 -15   38.00    4.70
  -3   3  15   28.20    7.40
  -3   3  15   31.60    7.10
  -1  -3  15    4.70    2.90
   1  -3 -15    4.20    3.00
  -1  -3  15    6.10    3.30
   1  -3 -15    3.10    2.80
   1  -3 -15   10.80    5.00
  -1   3  15   -0.10    3.60
   1   3 -15    6.20    2.30
   1   3 -15    5.50    3.00
   1   3 -15    9.20    3.90
  -1   3  15    8.40    5.00
  -1   3  15   17.00    5.20
  -1  -3 -15   74.49   10.90
   1  -3  15   57.99    5.50
   1  -3  15   53.09    6.10
  -1  -3 -15   37.80    7.70
  -1  -3 -15   59.69    9.80
   1   3  15   45.20    8.30
  -1   3 -15   56.29    6.70
   1   3  15   49.90    8.80
  -1   3 -15   55.69    5.90
  -3  -3 -15   37.40    9.20
   3  -3  15   34.20    7.20
  -3  -3 -15   33.70    7.90
  -3  -3 -15   39.90    8.80
   3  -3  15   36.20    7.70
  -3  -3 -15   33.20    7.90
   3   3  15   52.89   10.80
   3   3  15   40.40    8.50
  -3   3 -15   42.90    7.70
   5  -3  15    8.30    4.70
  -5  -3 -15   13.20    6.20
   5  -3  15    6.60    3.50
  -5  -3 -15    9.20    5.50
   5   3  15    7.70    6.00
   5   3  15   -0.90    3.80
   5   3  15   14.10    5.30
   7  -3  15   10.90    7.00
  -7  -3 -15    6.30    6.90
   7  -3  15  -11.00    4.10
   7   3  15    0.10    4.60
   6  -4 -15   84.09   15.50
  -6  -4  15   87.59   17.10
   6  -4 -15   74.89   11.10
   6   4 -15   81.19   16.00
   6   4 -15   71.29   12.40
   6   4 -15   90.89   17.30
   6   4 -15   82.19   12.70
  -6   4  15   78.39   15.10
   4  -4 -15  126.39   11.80
  -4  -4  15  110.09   13.90
  -4   4  15  121.09   14.50
   4   4 -15  112.29   10.80
   4   4 -15  121.19   14.20
   4   4 -15  100.99    9.40
   4   4 -15  112.89   13.10
   2  -4 -15  122.39   13.00
  -2  -4  15  122.89   12.20
   2  -4 -15  122.19   11.40
  -2  -4  15  135.79   11.90
   2  -4 -15  105.69   11.80
   2   4 -15  124.39    7.70
   2   4 -15  110.79    5.90
  -2   4  15  117.49   12.00
  -2   4  15   99.79   13.20
   2   4 -15  138.49   13.60
   2   4 -15  129.09    7.90
   2   4 -15  143.49   12.40
   0  -4 -15  321.57   19.80
   0  -4  15  350.16   15.50
   0  -4  15  362.26   17.50
   0   4  15  374.56   21.30
   0   4 -15  335.17   10.10
   0   4 -15  353.46   18.30
   0   4  15  347.57   23.20
   2  -4  15   26.20    5.40
  -2  -4 -15   28.60    7.60
  -2  -4 -15   31.00    8.30
  -2  -4 -15   32.30    7.80
   2  -4  15   31.20    5.40
  -2  -4 -15   29.70    7.20
   2  -4  15   23.20    5.90
  -2   4 -15   29.60    5.50
  -2   4 -15   24.70    4.90
   2   4  15   30.80    7.70
   2   4  15   25.60    7.40
   4  -4  15  111.49   11.90
  -4  -4 -15  147.69   20.40
   4  -4  15  106.79   13.50
   4  -4  15   99.59    8.00
   4   4  15  127.99   15.00
   6  -4  15   26.30    9.00
   6  -4  15   33.10    6.90
  -6  -4 -15   26.20    8.50
   6   4  15   36.00   10.80
   6   4  15   10.30    9.40
  -7  -5  15   57.99   16.00
   7  -5 -15   24.40   12.00
   7  -5 -15   25.70    7.20
   7   5 -15   33.40   12.60
  -7   5  15   25.10   10.20
   7   5 -15   22.10    8.30
   7   5 -15   10.60    9.40
   5  -5 -15  202.58   15.20
  -5  -5  15  182.18   21.00
   5  -5 -15  203.88   19.80
   5   5 -15  184.98   19.90
   5   5 -15  175.88   15.00
   5   5 -15  172.38   19.00
  -5   5  15  211.08   22.50
   5   5 -15  205.28   15.60
  -3  -5  15  178.78   17.70
   3  -5 -15  182.58   14.80
   3  -5 -15  185.68   17.20
  -3  -5  15  177.38   17.50
   3   5 -15  161.58   16.50
   3   5 -15  170.18   10.00
   3   5 -15  179.08   10.30
  -3   5  15  166.98   21.00
   3   5 -15  164.78   16.00
  -1  -5  15    4.50    3.70
   1  -5 -15   13.30    5.50
   1  -5 -15   16.20    5.60
  -1  -5  15    9.60    4.30
  -1   5  15    8.90    5.40
   1   5 -15   16.10    5.10
   1   5 -15   18.90    6.30
  -1   5  15    3.60    4.10
   1   5 -15   10.70    2.80
  -1  -5 -15  604.34   30.70
   1  -5  15  606.54   23.00
   1  -5  15  589.84   21.60
  -1  -5 -15  592.84   29.60
   1  -5  15  637.04   23.10
  -1  -5 -15  577.24   39.10
  -1   5 -15  621.84   22.00
  -1   5 -15  594.34   23.30
   1   5  15  613.34   29.60
   3  -5  15  149.39   14.60
   3  -5  15  138.09    9.80
   3  -5  15  154.28   10.50
   3  -5  15  132.09   10.90
  -3  -5 -15  175.48   34.70
   3   5  15  147.89   15.30
   5  -5  15    4.40    3.70
   5  -5  15   10.50    4.10
  -5  -5 -15    1.90    5.30
   5   5  15   10.50    5.90
   6  -6 -15   16.20    5.90
   6  -6 -15   35.10   11.80
  -6  -6  15   22.90   11.20
   6   6 -15   31.30    8.40
  -6   6  15   35.70   11.10
   6   6 -15   43.40   13.30
   4  -6 -15   53.09    9.10
  -4  -6  15   51.49   13.70
   4  -6 -15   37.60   11.20
  -4   6  15   44.00   12.30
   4   6 -15   25.00    5.80
   4   6 -15   53.39   14.30
   4   6 -15   24.30   10.10
   4   6 -15   42.90    7.00
   2  -6 -15   77.89   14.40
  -2  -6  15   94.99   13.60
  -2  -6  15  102.19   17.30
  -2  -6  15   65.39   12.80
   2  -6 -15  108.09   11.80
   2   6 -15   66.59   11.50
   2   6 -15  101.59   15.60
  -2   6  15   77.99   15.00
   2   6 -15   67.69    7.80
   0  -6 -15  145.39   15.80
   0  -6  15  158.18   14.00
   0  -6  15  190.68   14.30
   0  -6 -15  155.08   15.50
   0  -6  15  158.18   13.00
   0   6 -15  167.38   11.10
   0   6  15  165.88   18.90
   0   6 -15  168.18   14.10
   0   6  15  157.28   15.20
  -2  -6 -15   23.80    7.00
   2  -6  15   11.90    4.40
   2  -6  15    2.70    4.90
   2   6  15    4.90    4.90
  -2   6 -15    8.30    4.40
  -4  -6 -15   69.29   14.20
   4  -6  15   78.09    9.60
   4  -6  15   76.69   10.30
   4  -6  15   74.39    9.10
   4   6  15   70.49   13.00
   6  -6  15    9.90    5.70
   6  -6  15    7.50    6.20
   6   6  15   13.90    8.60
  -5  -7  15   23.60   11.10
   5  -7 -15   28.00   11.10
   5  -7 -15   58.49    8.80
   5   7 -15   46.30   13.70
   5   7 -15   46.20    8.20
  -5   7  15   70.59   16.30
   3  -7 -15   28.80    7.50
   3  -7 -15   32.20    7.90
  -3  -7  15   33.10   10.20
  -3  -7  15   30.70   10.10
   3  -7 -15   36.70   10.50
   3   7 -15   34.00    7.80
  -3   7  15   36.60   11.10
   3   7 -15   42.90   10.70
   3   7 -15   54.59   12.30
  -1  -7  15  177.18   16.00
   1  -7 -15  180.98   17.80
   1  -7 -15  170.18   16.00
  -1  -7  15  172.08   15.70
   1   7 -15  178.88   12.80
   1   7 -15  179.78   17.10
  -1   7  15  190.18   21.40
   1  -7  15  197.38   13.30
   1  -7  15  187.68   12.60
  -1  -7 -15  182.68   18.50
  -1   7 -15  183.78   14.40
   1   7  15  129.89   23.50
  -1   7 -15  197.88   14.90
   1   7  15  195.18   22.20
  -3  -7 -15   -8.20    3.70
   3  -7  15    2.10    2.60
   3  -7  15   -2.80    3.50
   3  -7  15   -0.20    2.50
   3   7  15   10.80    5.80
  -3   7 -15   -5.00    3.60
   5  -7  15    4.60    5.10
   5  -7  15    9.20    5.70
  -5  -7 -15   14.00    8.70
   4  -8 -15    1.40    7.60
   4  -8 -15    2.40    5.00
  -4  -8  15   -6.60    6.50
   4   8 -15   -7.30    6.40
  -4   8  15   -3.80    7.20
   4   8 -15   -8.40    6.90
   2  -8 -15   -6.40    3.50
  -2  -8  15   -4.00    7.30
   2  -8 -15    3.60    6.20
  -2  -8  15    2.50    5.60
   2   8 -15    4.00    5.30
   2   8 -15    8.40    6.10
  -2   8  15   -1.70    8.90
   0  -8  15   48.90    9.50
   0  -8 -15   42.60   10.50
   0  -8  15   43.70    9.40
   0  -8 -15   30.20   11.10
   0   8 -15   43.20   10.40
   0   8  15   68.69   24.30
   0   8 -15   38.30    8.50
   0   8  15   62.69   12.10
  -2  -8 -15   63.09   14.80
  -2   8 -15   57.19   10.70
   2   8  15   59.19   12.00
  -2   8 -15   47.70    8.30
   2   8  15   59.49   24.20
   8   0 -16   99.39   20.30
   8   0 -16   92.29   18.50
   8   0 -16   75.29   15.60
   6   0 -16    9.60    5.50
   6   0 -16   15.50    5.80
  -4   0  16  391.76   20.70
   4   0 -16  385.46   22.50
  -4   0  16  380.46   22.20
   4   0 -16  437.46   23.40
   4   0 -16  398.06   20.80
   2   0 -16  280.57   16.70
   2   0 -16  256.07   15.40
  -2   0  16  267.07   16.20
   2   0 -16  248.68   14.10
  -2   0  16  270.07   13.10
   2   0 -16  245.98   13.10
  -2   0  16  250.47   14.00
   0   0  16  375.06   18.20
   0   0  16  370.96   17.90
   0   0 -16  354.16   18.00
   0   0 -16  381.56   18.10
   0   0 -16  376.56   13.00
  -2   0 -16  388.86   18.80
   2   0  16  340.47   18.90
  -2   0 -16  325.57   18.30
  -4   0 -16 1063.99   40.80
   4   0  16 1133.59   42.40
   4   0  16 1064.09   36.10
  -4   0 -16 1067.69   36.40
  -4   0 -16 1056.89   36.50
   4   0  16 1055.69   30.20
  -4   0 -16 1125.79   29.80
   6   0  16    3.50    3.30
   6   0  16   -0.20    4.10
   6   0  16    8.30    4.10
  -6   0 -16    4.50    4.40
  -6   0 -16    2.00    4.10
   8   0  16   96.29   14.40
  -8   0 -16   96.79   16.10
   8   0  16   71.29   17.10
   7  -1 -16   48.20   13.50
   7  -1 -16   79.29   15.40
   7  -1 -16   67.39   12.80
   7   1 -16   85.79   16.90
   7   1 -16   78.09   14.90
   7   1 -16   58.09   13.10
   5  -1 -16  232.88   17.80
   5  -1 -16  223.38   18.60
   5  -1 -16  215.98   18.20
   5   1 -16  230.08   18.60
   5   1 -16  261.47   20.20
   5   1 -16  252.17   17.50
  -5   1  16  222.58   17.80
   3  -1 -16  163.78   13.20
   3  -1 -16  147.59   12.70
   3  -1 -16  142.49   12.40
   3  -1 -16  154.08   13.40
  -3  -1  16  144.09   13.00
  -3  -1  16  170.88   12.60
   3   1 -16  152.28   12.30
  -3   1  16  132.89   11.70
   3   1 -16  164.88   13.80
   3   1 -16  137.59   10.70
   3   1 -16  142.79   12.20
  -3   1  16  149.59   12.50
  -3   1  16  119.59   11.90
  -1  -1  16  615.84   24.20
  -1  -1  16  600.24   19.20
   1  -1 -16  540.35   23.60
   1  -1 -16  575.64   25.30
  -1  -1  16  563.64   21.70
  -1  -1  16  581.74   14.70
   1  -1 -16  636.64   22.10
   1   1 -16  591.24   24.20
   1   1 -16  594.64   19.50
   1   1 -16  609.54   22.30
  -1   1  16  570.74   22.60
  -1   1  16  617.74   25.10
  -1   1  16  566.14   24.10
   1  -1  16  911.71   29.30
  -1  -1 -16  942.31   25.90
  -1  -1 -16  919.31   32.50
  -1  -1 -16  919.81   31.90
   1  -1  16  920.11   29.70
   1   1  16  960.70   32.70
  -1   1 -16  933.91   29.60
  -1   1 -16  919.61   29.30
   3  -1  16   -1.40    3.20
  -3  -1 -16    5.20    3.70
   3  -1  16    6.70    4.00
  -3  -1 -16   -2.70    3.80
  -3  -1 -16    4.30    3.20
  -3   1 -16    4.70    3.30
   3   1  16   10.90    4.20
   3   1  16    4.20    3.60
  -3   1 -16    3.70    3.40
  -5  -1 -16  621.24   26.00
   5  -1  16  615.04   32.20
  -5  -1 -16  665.73   31.70
   5  -1  16  672.83   23.80
   5  -1  16  636.04   25.70
  -5   1 -16  627.14   22.20
   5   1  16  634.74   27.10
   5   1  16  622.84   30.00
   5   1  16  666.43   34.60
  -5   1 -16  635.04   26.40
   7  -1  16    2.30    5.20
  -7  -1 -16   -8.90    5.20
  -7   1 -16    2.10    5.30
  -7   1 -16    0.80    7.70
   7   1  16   -0.30    6.50
   7   1  16   -5.50    3.10
   8  -2 -16   11.10    7.30
  -8  -2  16    3.70    8.40
   8  -2 -16   -1.40    8.50
   8  -2 -16    6.00    8.60
   8   2 -16    1.40    7.90
   8   2 -16    0.70    6.70
   8   2 -16   11.30    8.20
   6  -2 -16    7.80    4.80
   6  -2 -16   26.50    6.70
   6   2 -16   16.50    6.90
   6   2 -16   -2.90    6.60
   6   2 -16   14.30    5.70
  -6   2  16   21.10    7.20
   4  -2 -16  107.09   11.40
   4  -2 -16  102.59   15.90
  -4  -2  16  103.59   14.70
   4  -2 -16  108.49   23.10
   4  -2 -16  117.09   12.60
  -4  -2  16   93.69   13.10
  -4   2  16   90.09   11.10
   4   2 -16   92.19   13.90
   4   2 -16  112.19   12.80
   4   2 -16  103.69    9.50
  -4   2  16  105.69   12.40
  -4   2  16  109.29   12.30
   2  -2 -16   15.90    5.10
   2  -2 -16   12.70    4.50
  -2  -2  16   11.90    4.00
   2  -2 -16    8.30    4.70
  -2  -2  16   20.50    5.60
   2   2 -16   14.60    5.20
   2   2 -16   15.00    4.80
  -2   2  16   13.40    5.80
   2   2 -16    5.70    3.70
  -2   2  16   13.20    4.80
   2   2 -16   16.50    2.30
   0  -2  16    0.00    1.40
   0  -2 -16    4.80    2.90
   0  -2  16    2.80    2.10
   0  -2  16    4.70    2.20
   0  -2 -16    2.10    2.50
   0   2  16    0.40    2.40
   0   2  16    4.20    3.10
   0   2 -16    3.50    2.40
   0   2 -16    1.60    1.40
   0   2 -16    2.40    1.80
  -2  -2 -16  127.99   10.40
   2  -2  16  145.29   10.20
   2  -2  16  130.39   10.90
  -2  -2 -16  120.29   12.20
   2  -2  16  143.79   10.10
  -2  -2 -16  137.69   12.70
  -2   2 -16  151.28   11.30
   2   2  16  160.18   14.10
   2   2  16  139.19   12.60
  -2   2 -16  126.79    9.60
   4  -2  16   17.30    7.90
   4  -2  16   13.00    5.70
  -4  -2 -16   11.10    6.30
   4  -2  16    8.30    3.80
  -4  -2 -16    5.60    4.30
   4   2  16   13.50    5.40
  -4   2 -16    7.80    5.60
  -4   2 -16   11.50    4.30
   4   2  16   13.50    6.80
   4   2  16   10.10    5.50
   6  -2  16   30.20    9.20
  -6  -2 -16   28.20    8.50
   6  -2  16   37.90    7.30
   6   2  16   31.70   10.80
   6   2  16   39.20    9.30
   6   2  16   35.50   10.90
  -6   2 -16   28.90    6.80
  -6   2 -16   35.40    7.50
   7  -3 -16  136.29   14.40
   7   3 -16  118.79   21.40
   7   3 -16  139.79   16.00
  -7   3  16  115.59   19.50
   7   3 -16  109.09   20.30
   5  -3 -16  226.08   19.70
   5   3 -16  226.38   17.20
  -5   3  16  238.78   24.10
   5   3 -16  227.08   20.40
   5   3 -16  273.57   33.30
   5   3 -16  214.38   15.30
   3  -3 -16   51.19    9.60
  -3  -3  16   76.19    9.50
   3  -3 -16   72.29    8.90
   3  -3 -16   60.99   10.80
  -3  -3  16   64.69   10.10
  -3   3  16   64.19   11.50
   3   3 -16   58.79   10.20
   3   3 -16   80.39   13.10
   3   3 -16   62.89    7.40
   3   3 -16   64.99    5.60
  -3   3  16   70.89   10.80
   1  -3 -16  377.16   20.10
   1  -3 -16  390.56   20.70
   1  -3 -16  359.16   20.70
  -1  -3  16  372.76   19.30
  -1  -3  16  376.66   16.20
   1   3 -16  365.26   16.80
  -1   3  16  363.36   21.00
  -1   3  16  364.36   20.80
  -1   3  16  405.56   23.20
   1   3 -16  358.06   19.50
   1   3 -16  409.26   15.00
   1  -3  16  179.98   11.40
  -1  -3 -16  169.28   16.20
  -1  -3 -16  205.68   16.00
   1  -3  16  174.08   10.20
  -1  -3 -16  178.78   13.60
   1  -3  16  173.18    9.20
   1   3  16  169.18   14.30
  -1   3 -16  155.88   11.00
   3  -3  16   16.30    6.00
   3  -3  16   29.60    6.80
  -3  -3 -16    9.40    5.40
   3  -3  16   22.40    6.40
  -3  -3 -16   15.70    5.60
  -3  -3 -16   16.80    6.70
  -3  -3 -16   24.00    8.50
  -3   3 -16   20.10    5.40
  -3   3 -16   18.70    4.10
   3   3  16   14.50    6.90
   3   3  16   13.10    5.20
  -5  -3 -16   88.19   16.30
  -5  -3 -16   71.79   13.20
   5  -3  16   63.89   11.70
  -5   3 -16   69.89    7.20
   5   3  16   74.19   14.20
   5   3  16   53.69   12.30
  -5   3 -16   77.29   11.30
   5   3  16   66.09   12.00
   7  -3  16   10.00    4.90
   7   3  16   14.30    6.30
   7   3  16   18.10    8.20
  -6  -4  16    0.60    5.60
   6  -4 -16    5.10    3.50
   6  -4 -16    0.00    4.00
   6   4 -16    7.60    5.90
  -6   4  16    7.10    5.80
   6   4 -16    6.50    5.10
   6   4 -16   -1.80    5.80
   6   4 -16   -3.70    4.30
   4  -4 -16   -6.00    2.10
   4  -4 -16   -0.90    3.40
   4   4 -16   -0.40    2.80
   4   4 -16    1.10    3.00
   4   4 -16   -2.60    3.40
   4   4 -16   -0.40    3.90
  -4   4  16   -1.70    3.50
  -2  -4  16   15.40    5.10
   2  -4 -16   14.60    5.30
   2  -4 -16   16.90    6.30
   2  -4 -16   18.40    5.90
  -2  -4  16   14.00    5.40
   2   4 -16   15.20    5.70
  -2   4  16   19.50    6.50
   2   4 -16   16.30    3.70
  -2   4  16   17.20    6.20
   2   4 -16   17.60    6.30
   0  -4  16   10.00    3.70
   0  -4 -16    5.40    3.70
   0  -4  16   12.60    3.80
   0   4  16   12.10    5.70
   0   4  16    3.70    3.90
   0   4 -16    6.10    2.20
   0   4 -16    3.60    3.90
   0   4  16   12.60    5.80
   2  -4  16   80.39    7.00
   2  -4  16   70.49    7.20
  -2  -4 -16   80.19   12.40
  -2  -4 -16   64.69   12.10
   2  -4  16   88.09    8.60
  -2  -4 -16   70.99   11.70
   2   4  16   65.29   12.60
  -2   4 -16   63.29    6.80
   2   4  16   76.89   12.30
  -2   4 -16   80.19   12.50
   4  -4  16   56.69   11.10
  -4  -4 -16   38.80    9.80
   4  -4  16   35.30    7.90
   4   4  16   29.50    7.80
   6  -4  16   34.20    6.80
   6  -4  16   40.50   10.00
  -6  -4 -16   28.20    9.10
   6   4  16   20.10    9.70
   6   4  16   31.90    9.60
   7  -5 -16   16.80    5.60
  -7  -5  16   15.60    9.20
   7  -5 -16   16.00   10.20
   7   5 -16    5.10    8.00
   7   5 -16    5.80    7.20
  -7   5  16   27.40   10.90
   7   5 -16   -5.20    6.80
   5  -5 -16   25.00    6.80
  -5  -5  16   20.10    7.30
   5  -5 -16   23.80    8.40
   5   5 -16   20.00    8.20
   5   5 -16   35.40    9.80
   5   5 -16   21.70    6.90
  -5   5  16   35.90   11.50
   5   5 -16   28.00    6.90
   3  -5 -16    7.10    4.00
  -3  -5  16    5.20    6.40
   3  -5 -16    0.00    3.50
  -3  -5  16    7.50    5.30
  -3   5  16    4.70    5.00
   3   5 -16    2.70    3.00
   3   5 -16   16.00    6.20
   3   5 -16    9.40    5.20
   3   5 -16    1.60    2.90
  -1  -5  16    2.40    3.40
   1  -5 -16   -1.90    2.20
   1  -5 -16    0.30    3.80
  -1  -5  16   -3.10    3.20
   1   5 -16    1.80    3.00
   1   5 -16   -0.20    3.20
   1   5 -16    1.50    1.50
  -1   5  16    0.70    3.40
  -1   5  16    0.30    3.40
   1  -5  16  611.34   22.40
   1  -5  16  615.64   22.50
  -1  -5 -16  593.94   30.60
  -1   5 -16  608.74   24.20
   1   5  16  625.44   30.40
  -3  -5 -16   13.60    6.00
   3  -5  16   11.40    3.10
   3  -5  16    9.30    4.60
   3  -5  16   13.00    5.70
   3  -5  16   13.10    3.50
   3   5  16   20.50    8.70
   5  -5  16   26.40    6.90
  -5  -5 -16   15.40    7.50
   5  -5  16   17.90    5.90
   5   5  16   -2.90    5.20
   6  -6 -16    5.00    7.10
  -6  -6  16   12.00    7.70
   6  -6 -16   -1.90    4.10
   6   6 -16   -1.50    7.50
   6   6 -16   10.50    9.40
  -6   6  16   -9.60    6.20
   6   6 -16   -2.70    6.00
   4  -6 -16   49.40   12.70
  -4  -6  16   61.39   13.30
   4  -6 -16   44.60    9.10
   4   6 -16   54.19    7.50
   4   6 -16   42.20   11.80
   4   6 -16   62.19    7.50
  -4   6  16   36.10   11.60
   4   6 -16   72.59   14.30
  -2  -6  16   50.39   11.30
   2  -6 -16   45.50   10.20
   2  -6 -16   34.60    8.50
  -2  -6  16   63.79   12.50
  -2  -6  16   24.30    7.60
   2   6 -16   41.40    6.00
   2   6 -16   30.20    9.00
  -2   6  16   41.10   10.90
   2   6 -16   46.10   11.30
   0  -6 -16  476.95   27.50
   0  -6  16  423.56   22.20
   0  -6  16  483.25   22.30
   0  -6  16  453.25   22.90
   0   6  16  452.05   26.50
   0   6 -16  461.45   23.80
   0   6 -16  448.96   17.70
   0   6  16  402.06   29.50
  -2  -6 -16   -2.00    3.10
   2  -6  16    8.50    4.50
   2   6  16    6.10    5.20
   4  -6  16   59.99    9.20
   4  -6  16   76.09   11.10
  -4  -6 -16   66.19   14.50
   4  -6  16   65.39    9.00
   4   6  16   71.09   14.10
  -5  -7  16   12.10    8.30
   5  -7 -16  -10.20    6.30
   5  -7 -16   -3.00    4.30
  -5   7  16    5.20    8.50
   5   7 -16   11.00    8.70
   5   7 -16   10.40    8.80
  -3  -7  16   14.80    8.40
  -3  -7  16   11.90    7.10
   3  -7 -16    5.80    5.40
   3  -7 -16   24.70    8.10
   3  -7 -16    3.90    6.10
  -3   7  16   -0.10    6.30
   3   7 -16   -4.20    5.70
   3   7 -16   17.50    6.90
   3   7 -16   14.40    5.70
  -1  -7  16   20.60    6.50
   1  -7 -16   19.10    7.30
   1  -7 -16   10.30    5.50
   1   7 -16   29.50    8.60
   1   7 -16   20.20    5.40
  -1   7  16   11.10    8.10
   1  -7  16    6.20    3.80
   1  -7  16    0.70    3.40
  -1  -7 -16    7.20    5.30
   1  -7  16   -1.30    5.60
  -1   7 -16    9.10    4.60
   1   7  16    2.30    6.40
  -1   7 -16    2.10    3.90
   1   7  16   -3.00    4.80
   3  -7  16    8.60    5.40
   3  -7  16    0.80    4.40
   3  -7  16    2.20    2.80
  -3  -7 -16   -4.30    5.90
   3   7  16    0.80    4.50
  -2  -8  16    5.80    6.50
   2  -8 -16    3.90    7.10
   2  -8 -16    8.80    5.70
   2  -8 -16    0.30    5.20
   2   8 -16   -3.50    6.60
  -2   8  16    0.10    5.20
   2   8 -16   -2.00    5.10
   0  -8 -16   91.99   16.90
   0  -8  16   96.59   12.20
   0  -8  16  126.59   13.60
   0   8 -16   91.69   14.10
   0   8  16   88.19   14.30
   0   8  16   90.69   19.40
   0   8 -16  102.09   11.60
  -2  -8 -16   23.30    9.40
  -2   8 -16    7.50    5.70
   2   8  16   18.80    8.20
  -2   8 -16   11.10    5.80
   2   8  16   -9.00    7.30
   8   0 -17    0.40    7.00
   8   0 -17  -15.50    7.20
   8   0 -17   -7.40    4.90
   6   0 -17    2.70    4.20
   6   0 -17   -0.10    3.20
   4   0 -17    4.20    3.00
   4   0 -17    2.50    2.80
   4   0 -17    3.50    3.00
  -4   0  17   -4.90    2.60
  -4   0  17    0.70    3.00
  -4   0  17   -3.00    2.60
   4   0 -17   -1.10    3.00
   2   0 -17   -2.70    1.60
  -2   0  17   -4.20    1.50
   2   0 -17    3.20    3.20
   2   0 -17    0.70    2.20
   2   0 -17    1.30    1.90
  -2   0  17   -2.50    2.20
  -2   0  17   -3.80    1.60
   0   0 -17    7.20    3.20
   0   0  17    2.40    2.40
   0   0 -17    3.90    2.10
   0   0 -17    5.90    2.80
   0   0  17    4.10    3.00
  -2   0 -17    3.40    3.00
  -2   0 -17    0.80    2.20
   2   0  17    0.60    2.60
   4   0  17    6.10    3.90
   4   0  17   -4.50    3.20
   4   0  17   -0.30    1.90
  -4   0 -17   -3.70    2.80
  -4   0 -17   -8.10    3.90
  -4   0 -17    2.10    3.30
  -6   0 -17    5.30    4.50
   6   0  17    1.30    4.30
   6   0  17    0.00    3.60
  -6   0 -17   -4.60    3.90
   7  -1 -17  354.96   27.70
   7  -1 -17  342.67   25.10
   7   1 -17  363.96   27.20
   7   1 -17  383.96   27.60
   7   1 -17  377.46   29.20
   5  -1 -17  409.96   24.40
   5  -1 -17  405.86   25.70
   5  -1 -17  412.86   25.30
   5   1 -17  431.36   26.40
   5   1 -17  408.56   25.70
  -5   1  17  445.26   25.10
   5   1 -17  437.96   23.40
   3  -1 -17    3.00    3.00
   3  -1 -17   -0.20    3.00
  -3  -1  17    4.50    2.80
  -3  -1  17   -2.00    2.30
   3  -1 -17    6.40    3.50
  -3   1  17    2.70    2.60
   3   1 -17    0.50    2.90
  -3   1  17    3.50    2.60
   3   1 -17    2.80    3.00
   3   1 -17    5.60    3.20
  -3   1  17   -0.50    3.10
   1  -1 -17 1037.80   30.20
  -1  -1  17  958.30   32.40
  -1  -1  17  980.00   30.70
   1  -1 -17  964.80   33.30
  -1  -1  17  994.00   26.50
  -1  -1  17  943.61   21.30
   1  -1 -17 1003.20   34.10
  -1   1  17 1022.30   33.90
   1   1 -17 1011.30   33.60
  -1   1  17 1023.10   34.30
   1   1 -17  981.80   27.00
  -1   1  17  958.50   31.00
   1   1 -17  957.10   30.30
  -1  -1 -17 2051.19   43.70
  -1  -1 -17 1986.70   51.99
  -1  -1 -17 1939.11   52.49
   1  -1  17 1945.91   49.70
   1  -1  17 2029.40   49.10
  -1   1 -17 2017.80   48.90
   1   1  17 1780.32   50.79
   1   1  17 1941.11   51.99
  -1   1 -17 1963.80   48.40
  -3  -1 -17  254.27   17.50
   3  -1  17  274.87   18.10
   3  -1  17  246.28   15.00
  -3  -1 -17  264.27   18.70
  -3  -1 -17  254.57   13.30
   3   1  17  250.17   17.20
   3   1  17  260.47   18.60
  -3   1 -17  273.57   15.70
  -3   1 -17  270.97   18.00
  -5  -1 -17  297.87   17.90
  -5  -1 -17  276.97   20.50
   5  -1  17  329.07   18.00
   5  -1  17  307.87   15.10
   5  -1  17  288.27   24.40
   5   1  17  309.47   18.60
  -5   1 -17  319.77   18.80
   5   1  17  294.77   20.50
  -5   1 -17  302.67   14.40
   5   1  17  284.87   22.70
   7  -1  17   31.60   11.20
   7  -1  17   58.99    9.80
  -7  -1 -17   51.29   11.60
  -7   1 -17   27.10    9.10
   7   1  17   34.80    8.90
  -7   1 -17   42.30    9.80
   7   1  17   36.20   14.70
   8  -2 -17    8.10    7.80
   8  -2 -17   -4.30    8.00
   8  -2 -17    3.60    6.30
   8   2 -17  -12.70    4.90
   8   2 -17   11.10    8.60
   8   2 -17    1.90    7.20
   6  -2 -17    6.80    4.10
   6  -2 -17    0.50    3.50
   6   2 -17    3.20    5.80
   6   2 -17    0.50    3.80
   6   2 -17    2.90    4.20
   6   2 -17    2.40    4.00
  -4  -2  17   77.39   11.90
   4  -2 -17   93.19   11.70
  -4  -2  17   88.79   10.90
   4  -2 -17   81.29   10.20
   4   2 -17   63.19   11.40
  -4   2  17   82.49   13.40
   4   2 -17   78.69    9.50
   4   2 -17   71.49    8.00
   4   2 -17   84.59   12.40
   2  -2 -17   34.50    7.50
   2  -2 -17   30.40    6.90
  -2  -2  17   42.30    7.00
  -2  -2  17   41.80    7.90
   2  -2 -17   30.00    6.60
  -2   2  17   37.00    7.50
   2   2 -17   33.70    7.50
  -2   2  17   33.10    7.40
   2   2 -17   43.50    7.10
   2   2 -17   40.00    6.90
   0  -2 -17  376.36   20.60
   0  -2  17  343.87   15.70
   0  -2  17  362.96   18.20
   0  -2 -17  369.06   20.30
   0   2  17  356.56   20.30
   0   2 -17  372.96   18.60
   0   2 -17  367.26   16.20
   0   2  17  412.66   21.70
  -2  -2 -17   40.80    7.90
  -2  -2 -17   49.90    9.10
   2  -2  17   36.50    6.60
  -2  -2 -17   51.39    8.00
   2  -2  17   39.80    7.40
   2  -2  17   52.09    6.20
   2   2  17   38.00    8.20
  -2   2 -17   41.50    7.00
  -2   2 -17   47.40    7.90
   2   2  17   47.00    8.50
   4  -2  17  141.99   13.90
   4  -2  17  154.88   10.90
  -4  -2 -17  130.99   12.20
  -4  -2 -17  164.08   15.80
   4  -2  17  165.88   15.40
  -4   2 -17  159.88   11.20
   4   2  17  188.48   17.30
   4   2  17  162.98   16.00
  -4   2 -17  152.08   15.10
   6  -2  17   14.20    6.10
  -6  -2 -17   -8.10    5.30
  -6   2 -17   11.20    4.50
   6   2  17    9.00    7.00
   6   2  17    5.20    4.50
   6   2  17   19.60    9.20
  -6   2 -17    0.00    4.30
   7  -3 -17    1.30    6.10
   7  -3 -17    3.90    4.80
   7   3 -17   10.70   11.20
   7   3 -17  -11.30    8.40
  -7   3  17    0.60    6.00
   7   3 -17   11.90    8.10
   5  -3 -17    6.30    5.20
   5  -3 -17    0.70    3.60
   5   3 -17    8.20    4.60
   5   3 -17   -7.50    3.10
   5   3 -17    3.70    3.70
   5   3 -17   -4.60    3.70
   3  -3 -17   70.19   12.10
  -3  -3  17   90.59   14.00
  -3  -3  17   62.69   10.30
   3  -3 -17   77.19    9.50
   3  -3 -17   82.19   13.10
   3  -3 -17   58.79   11.20
   3   3 -17   70.99   11.60
   3   3 -17   59.19    5.30
  -3   3  17   68.79   12.70
   3   3 -17   64.09   11.20
  -3   3  17   57.89    9.70
   3   3 -17   66.49    9.10
   1  -3 -17    5.70    3.70
  -1  -3  17    5.40    3.00
   1  -3 -17    3.30    3.70
  -1  -3  17    8.60    3.00
   1  -3 -17    5.20    3.10
  -1   3  17    8.90    4.70
  -1   3  17    4.30    3.80
   1   3 -17   -0.50    2.20
   1   3 -17    6.40    3.40
  -1   3  17    2.90    4.30
   1  -3  17   52.39    7.30
  -1  -3 -17   48.30   10.00
  -1  -3 -17   51.89   11.20
  -1  -3 -17   59.29    9.60
   1  -3  17   60.79    7.00
   1  -3  17   57.99    5.50
  -1   3 -17   55.79    6.60
  -1   3 -17   57.69    7.30
   1   3  17   78.79   12.60
   1   3  17   64.39   11.20
  -3  -3 -17   14.00    5.10
   3  -3  17   16.20    5.30
   3  -3  17   17.30    3.90
   3  -3  17   16.70    5.90
  -3  -3 -17   -0.70    4.40
   3   3  17   15.10    7.40
  -3   3 -17   11.30    4.70
   3   3  17    8.40    5.40
  -3   3 -17   19.70    5.60
   5  -3  17   38.10    8.40
  -5  -3 -17   25.00    8.20
  -5  -3 -17   14.90   11.60
  -5   3 -17   16.90    4.60
  -5   3 -17   16.80    4.70
   5   3  17   18.90    7.10
   5   3  17   21.30    8.10
   5   3  17   17.10    6.80
  -7  -3 -17   42.60   12.90
   7  -3  17   33.10   10.50
   7  -3  17   29.90    7.80
   7   3  17   34.60   11.00
   7   3  17   43.60   10.40
   6  -4 -17   29.60    7.60
   6  -4 -17   28.80    8.70
   6   4 -17   22.30    8.60
   6   4 -17   22.50    8.20
   6   4 -17   21.40    7.40
  -6   4  17    5.20    7.10
   6   4 -17   19.00    7.80
   4  -4 -17    7.30    5.00
   4   4 -17    1.50    3.60
   4   4 -17    0.90    4.50
   4   4 -17    4.70    4.00
   4   4 -17    7.80    3.20
   4   4 -17    4.10    2.90
  -2  -4  17   35.20    7.40
   2  -4 -17   22.80    6.50
  -2  -4  17   31.00    7.50
   2  -4 -17   33.60    7.50
   2  -4 -17   47.10    9.60
   2   4 -17   41.10    5.10
  -2   4  17   34.80    8.90
   2   4 -17   35.70    8.10
   2   4 -17   33.40    8.90
   0  -4  17  243.58   12.70
   0  -4 -17  215.18   16.80
   0  -4 -17  239.78   17.80
   0  -4  17  221.68   14.50
   0   4  17  253.87   20.30
   0   4  17  247.28   18.10
   0   4 -17  263.27   16.30
   0   4 -17  225.28    9.60
   2  -4  17   50.29    6.60
   2  -4  17   36.20    5.80
  -2  -4 -17   40.80   10.60
   2  -4  17   33.80    6.20
  -2  -4 -17   30.00    8.50
  -2  -4 -17   36.10    9.10
  -2   4 -17   44.30    6.80
   2   4  17   39.00    8.50
   2   4  17   36.30    9.40
  -2   4 -17   43.60    6.90
   4  -4  17  200.38   17.40
  -4  -4 -17  165.88   18.20
   4  -4  17  219.58   16.20
  -4   4 -17  202.88   16.30
   4   4  17  207.98   19.10
  -6  -4 -17   11.60    7.90
   6  -4  17   16.80    6.40
   6   4  17   16.90   10.80
  -5  -5  17   46.80   12.60
   5  -5 -17   49.00    9.80
   5  -5 -17   38.00   10.10
  -5   5  17   55.79   14.20
   5   5 -17   45.50    8.80
   5   5 -17   34.40    8.00
   5   5 -17   52.29   13.10
   5   5 -17   49.90   12.80
   3  -5 -17  239.08   19.80
   3  -5 -17  249.68   18.10
  -3  -5  17  218.98   23.80
   3   5 -17  250.27   20.50
  -3   5  17  244.78   22.20
   3   5 -17  235.38   12.10
   3   5 -17  226.68   10.60
   3   5 -17  220.48   18.80
   3   5 -17  244.78   11.70
  -1  -5  17  298.37   18.70
   1  -5 -17  303.67   20.60
  -1  -5  17  260.77   16.80
   1   5 -17  281.47   19.20
   1   5 -17  295.87   17.90
  -1   5  17  308.67   21.20
  -1   5  17  258.97   22.10
   1  -5  17    8.20    4.00
   1  -5  17   19.00    2.80
   1  -5  17   19.30    4.60
  -1  -5 -17    7.70    5.60
  -1  -5 -17   14.90    6.80
  -1   5 -17   13.80    4.90
   1   5  17    0.90    5.20
   3  -5  17  143.79   14.40
  -3  -5 -17  150.58   16.70
   3   5  17  127.69   14.90
   5  -5  17   65.29   10.80
  -5  -5 -17   85.59   17.00
   5   5  17   78.69   16.20
   6  -6 -17   -5.50    6.10
  -6  -6  17    2.30    6.30
   6  -6 -17    6.50    5.50
   6   6 -17    1.40    7.60
  -6   6  17    2.60    9.80
   6   6 -17    0.40   11.60
   6   6 -17    8.20    6.80
   4  -6 -17   26.60    9.10
  -4  -6  17   10.30    7.90
   4  -6 -17    3.60    4.50
   4   6 -17    6.30    4.00
   4   6 -17    2.00    5.50
  -4   6  17    4.80    7.40
   4   6 -17    1.70    5.90
   4   6 -17    1.00    3.60
   2  -6 -17  158.48   15.00
  -2  -6  17  142.69   17.80
  -2  -6  17  167.38   16.20
   2  -6 -17  153.88   16.30
  -2  -6  17  143.69   15.70
   2   6 -17  174.08   17.40
  -2   6  17  159.58   18.30
   2   6 -17  142.09    8.50
   2   6 -17  182.28   16.40
   0  -6 -17   44.00   10.00
   0  -6 -17   62.59   18.80
   0  -6  17   44.60    8.60
   0  -6  17   44.90    7.90
   0   6  17   42.40   11.40
   0   6  17   41.90    9.90
   0   6 -17   39.40    5.80
   0   6 -17   43.60    9.70
   2  -6  17  109.99   10.30
   2  -6  17  109.09   10.50
   2  -6  17   93.29   11.40
  -2  -6 -17  129.79   15.70
   2   6  17   93.89   14.90
   4  -6  17   16.00    7.80
   4  -6  17   19.00    6.80
  -4  -6 -17   25.20    9.80
   4   6  17   33.00    9.20
   5  -7 -17   29.60    8.50
  -5  -7  17   49.90   14.80
   5  -7 -17   44.70   12.50
  -5   7  17   50.69   15.20
   5   7 -17   55.29   17.80
   5   7 -17   31.70   12.40
   3  -7 -17  328.47   22.20
   3  -7 -17  321.27   26.40
  -3  -7  17  299.87   25.80
  -3   7  17  337.77   29.40
   3   7 -17  324.47   16.70
   3   7 -17  314.77   24.90
   3   7 -17  296.87   25.10
  -1  -7  17    6.40    4.90
   1  -7 -17   18.90    7.90
  -1  -7  17    9.70    5.70
   1  -7 -17    7.40    6.00
  -1   7  17    5.90    7.50
   1   7 -17    5.10    6.20
   1   7 -17   13.20    4.30
   1  -7  17   70.29   10.00
   1  -7  17   57.59    8.50
  -1  -7 -17   73.79   14.30
   1  -7  17   70.19   14.20
   1   7  17   72.19   13.20
   1   7  17   49.40   13.60
  -1   7 -17   65.29    8.70
  -1   7 -17   73.99   10.80
   3  -7  17   53.99    8.90
   3  -7  17   56.79    5.20
   3  -7  17   57.59    9.30
   3  -7  17   53.99   13.80
   3   7  17   59.69   13.00
  -2  -8  17    8.80    6.00
   2  -8 -17    5.10    5.00
   2  -8 -17   -6.10    6.00
  -2  -8  17    9.30    8.20
  -2   8  17    2.50    5.20
   2   8 -17   -9.40    5.30
   2   8 -17    4.00    5.60
   0  -8  17   12.70    6.40
   0  -8 -17   21.10    8.70
   0  -8  17    0.90    5.60
   0   8 -17    5.30    6.30
   0   8  17    7.70    6.60
   0   8 -17    3.40    4.90
  -2  -8 -17   19.70    7.20
   2   8  17   23.40   10.80
   2   8  17   -2.90    5.40
  -2   8 -17   -6.00    5.30
   8   0 -18   18.30    9.90
   8   0 -18   11.80    7.80
   8   0 -18   13.80    8.20
   6   0 -18  146.59   16.80
   6   0 -18  135.39   15.10
   4   0 -18  262.27   18.80
   4   0 -18  280.37   17.70
   4   0 -18  291.07   19.70
  -4   0  18  282.77   22.40
  -4   0  18  224.58   15.60
  -4   0  18  255.97   18.20
   4   0 -18  254.47   18.60
   2   0 -18  303.37   18.50
  -2   0  18  305.77   15.90
  -2   0  18  318.67   18.50
   2   0 -18  304.87   17.80
  -2   0  18  307.97   14.60
   0   0  18  401.46   19.90
   0   0 -18  380.76   19.50
   0   0 -18  383.26   13.80
   0   0 -18  360.96   19.00
   0   0  18  340.77   18.40
   2   0  18  564.54   24.50
   2   0  18  571.64   26.10
  -2   0 -18  542.55   24.30
  -2   0 -18  566.44   25.90
  -4   0 -18  304.17   17.10
  -4   0 -18  330.67   20.00
   4   0  18  341.57   20.20
   4   0  18  345.87   23.30
   6   0  18    6.90    5.80
  -6   0 -18    4.20    4.90
   6   0  18   -0.50    5.10
  -6   0 -18    0.60    4.80
   6   0  18   -1.90    3.30
   7  -1 -18   41.60   10.40
   7  -1 -18   42.70   11.70
   7   1 -18   32.20    9.50
   7   1 -18   53.39   12.70
   7   1 -18   49.00   11.70
   5  -1 -18   18.10    7.10
   5  -1 -18   13.50    6.80
   5  -1 -18   13.10    6.80
  -5   1  18   10.10    5.50
   5   1 -18   12.20    6.40
   5   1 -18    7.80    5.00
   5   1 -18   13.30    5.90
   3  -1 -18   72.19   16.70
   3  -1 -18   83.09    9.90
   3  -1 -18   92.99   10.30
   3  -1 -18   79.99   12.10
  -3  -1  18   71.69    8.90
  -3   1  18   68.49    8.60
  -3   1  18   84.89    9.80
   3   1 -18   91.89   10.00
   3   1 -18   85.39    8.80
   3   1 -18   78.89    9.80
   3   1 -18   90.09   11.00
  -3   1  18   58.59   12.60
  -1  -1  18    3.40    1.80
   1  -1 -18    2.70    2.60
   1  -1 -18    9.20    4.30
   1  -1 -18    4.50    3.40
  -1  -1  18    2.40    2.90
  -1  -1  18    2.30    3.20
   1   1 -18    0.60    2.20
   1   1 -18   -2.80    2.70
  -1   1  18    1.10    2.40
  -1   1  18    2.60    3.60
  -1   1  18    1.90    2.30
  -1  -1 -18  388.06   21.10
   1  -1  18  369.26   22.40
  -1  -1 -18  374.66   20.80
  -1  -1 -18  388.36   15.90
   1  -1  18  399.66   19.20
   1   1  18  394.96   21.20
  -1   1 -18  392.36   19.20
   1   1  18  405.16   21.70
  -1   1 -18  412.06   19.70
   3  -1  18   53.59    9.90
  -3  -1 -18   44.70   10.50
   3  -1  18   48.10    8.00
  -3  -1 -18   49.50    9.70
  -3  -1 -18   40.80    6.40
  -3   1 -18   45.40    8.00
   3   1  18   44.30    9.20
   3   1  18   34.30    7.90
  -5  -1 -18   10.60    5.50
   5  -1  18    5.10    5.70
   5  -1  18   16.80    4.50
  -5  -1 -18   14.60    6.60
   5  -1  18    9.30    4.80
   5   1  18   11.60    6.20
  -5   1 -18    8.50    5.20
   5   1  18   27.20    6.50
   5   1  18    6.60    5.20
  -5   1 -18   21.80    4.50
   7  -1  18   -3.10    4.40
   7  -1  18   25.40   14.70
  -7  -1 -18   -1.60    6.40
   7   1  18   -9.00    5.10
  -7   1 -18    5.80    6.20
   8  -2 -18   12.90    8.30
   8  -2 -18  -11.40    6.80
   8  -2 -18   -4.30    5.30
   8   2 -18    6.40    7.40
   8   2 -18   19.60    8.30
   6  -2 -18   -3.60    3.00
   6  -2 -18   -1.10    5.30
   6   2 -18   -5.90    3.40
   6   2 -18   -6.10    3.60
   6   2 -18   13.60    6.00
  -6   2  18   -6.00    3.90
   6   2 -18   -3.40    4.40
  -4  -2  18  336.77   20.80
   4  -2 -18  339.87   22.10
   4  -2 -18  348.77   23.60
  -4  -2  18  318.07   24.70
   4  -2 -18  358.16   21.70
   4   2 -18  311.87   23.50
   4   2 -18  364.16   23.50
  -4   2  18  329.57   21.90
   4   2 -18  356.56   17.10
   4   2 -18  369.46   22.60
   2  -2 -18  211.78   16.20
  -2  -2  18  186.68   14.70
   2  -2 -18  206.78   15.60
  -2  -2  18  223.98   13.40
   2  -2 -18  216.48   15.10
   2   2 -18  235.08   17.40
  -2   2  18  207.88   15.80
  -2   2  18  223.78   16.20
   2   2 -18  204.68   15.70
   2   2 -18  222.48   13.60
   0  -2 -18  283.87   18.20
   0  -2  18  315.47   17.10
   0  -2  18  299.07   14.90
   0  -2 -18  299.87   18.70
   0   2 -18  308.07   15.30
   0   2 -18  318.97   17.60
   0   2  18  326.57   19.60
   0   2  18  340.57   20.30
  -2  -2 -18    0.00    3.10
   2  -2  18    9.70    3.60
  -2  -2 -18   -0.40    2.50
   2  -2  18    7.20    3.40
   2  -2  18    1.80    2.00
  -2  -2 -18    3.70    2.60
  -2   2 -18   -2.10    2.20
  -2   2 -18    0.40    3.20
   2   2  18   -3.30    3.20
   4  -2  18  114.39    9.50
  -4  -2 -18  106.59   13.30
  -4  -2 -18  101.09   11.10
   4  -2  18   96.59   11.90
  -4   2 -18   89.89    9.10
   4   2  18   89.69   14.10
  -4   2 -18  106.29   14.70
   4   2  18   93.99   16.30
   6  -2  18   15.30    5.20
   6  -2  18   15.70    6.90
  -6  -2 -18   16.30    8.30
   6   2  18   32.50    7.50
  -6   2 -18   22.00    5.80
   6   2  18   10.90    5.80
   7  -3 -18   62.19   11.80
   7   3 -18   42.10   13.30
   7   3 -18   43.60   16.20
   7   3 -18   42.70   11.60
  -7   3  18   40.40   11.10
   5  -3 -18  549.85   28.10
   5  -3 -18  529.15   30.90
  -5   3  18  557.54   32.40
   5   3 -18  558.54   27.60
   5   3 -18  528.05   30.80
   5   3 -18  505.05   23.30
   5   3 -18  527.55   31.30
   3  -3 -18  325.87   19.80
  -3  -3  18  347.07   33.40
  -3  -3  18  301.57   18.40
   3  -3 -18  284.97   21.40
   3  -3 -18  287.97   20.20
   3   3 -18  283.17   20.40
   3   3 -18  271.27   15.70
  -3   3  18  313.07   21.70
   3   3 -18  294.07   10.80
   3   3 -18  301.27   19.60
   1  -3 -18 1013.50   36.70
   1  -3 -18  988.50   41.30
  -1  -3  18 1037.40   28.90
  -1  -3  18 1021.50   34.80
   1  -3 -18 1009.20   35.20
   1   3 -18  972.60   29.60
  -1   3  18  983.70   37.40
  -1   3  18  974.10   38.30
   1   3 -18  979.90   35.20
  -1   3  18  833.92   40.70
   1   3 -18 1010.40   30.00
  -1  -3 -18  949.71   37.00
   1  -3  18  946.11   24.20
  -1  -3 -18  969.00   37.80
   1  -3  18  970.90   30.40
  -1  -3 -18  907.31   33.60
   1  -3  18  935.61   28.30
   1   3  18 1020.70   38.30
  -1   3 -18  950.80   31.10
  -1   3 -18  987.80   28.90
  -3  -3 -18  347.27   21.40
   3  -3  18  419.86   21.80
   3  -3  18  449.86   17.50
  -3  -3 -18  426.96   26.10
   3  -3  18  400.36   21.30
   3   3  18  404.66   25.40
  -3   3 -18  443.86   18.20
  -3   3 -18  424.16   21.40
   5  -3  18  595.64   30.80
  -5  -3 -18  640.64   35.50
  -5   3 -18  608.14   22.00
   5   3  18  619.54   35.30
   5   3  18  577.54   33.30
   7  -3  18   51.89    8.70
   7  -3  18   44.80   13.40
  -7  -3 -18   31.60   12.40
   7   3  18   35.00   14.30
   7   3  18   41.00   10.70
   6  -4 -18    9.50    4.80
   6  -4 -18    6.30    6.90
   6   4 -18   10.60    8.00
   6   4 -18    0.00    6.20
   6   4 -18   10.10    6.60
  -6   4  18   13.80    8.00
   4  -4 -18   18.50    5.60
   4  -4 -18   -0.50    3.20
   4   4 -18   13.50    3.90
   4   4 -18    2.10    4.80
  -4   4  18    1.10    4.60
   4   4 -18    3.40    4.80
   4   4 -18    3.90    4.90
   4   4 -18    6.20    4.50
   2  -4 -18  196.78   16.40
  -2  -4  18  209.98   14.70
   2  -4 -18  220.38   16.80
  -2  -4  18  199.18   16.40
   2   4 -18  243.58   18.50
  -2   4  18  198.78   18.50
   2   4 -18  208.48   11.40
   2   4 -18  218.78   16.10
   0  -4  18    2.50    3.30
   0  -4 -18    2.90    2.80
   0  -4 -18    0.80    4.50
   0  -4  18   -2.00    2.40
   0   4  18   10.10    5.30
   0   4  18    2.20    3.20
   0   4 -18    0.40    2.20
   0   4  18   -3.30    3.10
   0   4 -18    7.80    3.70
   2  -4  18  141.29   11.00
   2  -4  18  145.49   10.70
  -2  -4 -18  124.79   14.00
   2  -4  18  137.49    9.80
  -2  -4 -18  133.69   14.70
   2   4  18  129.89   14.10
  -2   4 -18  151.68   11.20
  -2   4 -18  137.89   10.40
   4  -4  18   16.00    6.20
  -4  -4 -18   19.00    6.60
   4   4  18    9.60    7.30
  -6  -4 -18   -7.20    5.10
   6  -4  18   -1.40    4.20
   6   4  18   -3.80    7.20
   5  -5 -18   92.69   11.60
  -5  -5  18   61.29   14.90
   5  -5 -18   84.39   15.40
   5   5 -18   72.09   11.00
   5   5 -18   85.19   12.50
   5   5 -18   70.19   10.40
   5   5 -18  104.19   18.10
  -5   5  18   86.79   17.00
   5   5 -18   70.99   14.70
   3  -5 -18  332.47   21.40
  -3  -5  18  312.87   23.20
   3  -5 -18  368.26   25.20
  -3   5  18  326.37   25.50
   3   5 -18  304.67   11.00
   3   5 -18  312.87   23.50
   3   5 -18  326.77   22.80
   3   5 -18  323.07   11.70
   3   5 -18  321.57   14.40
   3   5 -18  328.07   20.00
  -1  -5  18   66.99   10.80
  -1  -5  18   77.19    9.40
   1   5 -18   67.49   10.50
  -1   5  18   64.19   13.00
  -1   5  18   54.49   11.40
   1  -5  18  148.69    7.10
   1  -5  18  138.89   10.00
   1  -5  18  144.49   11.10
   1   5  18  176.58   16.50
  -1   5 -18  153.28   12.40
  -3  -5 -18  122.39   15.40
   3  -5  18  127.69   11.20
   3  -5  18  137.09   13.70
   3   5  18  112.09   17.30
  -3   5 -18  135.09    9.20
  -5  -5 -18   83.29   15.70
   5  -5  18  120.59   13.10
   5   5  18  100.49   18.00
   6  -6 -18   -1.40    6.20
  -6  -6  18   -3.30    9.10
   6  -6 -18   13.30    6.90
   6   6 -18    5.50    9.40
   6   6 -18  -10.60    5.60
  -6   6  18   -4.70    9.40
  -4  -6  18    3.70    5.00
   4  -6 -18   -4.00    3.40
   4  -6 -18   -0.90    3.70
   4   6 -18    2.60    4.30
   4   6 -18    7.00    4.30
   4   6 -18   -9.30    3.50
   4   6 -18   -0.90    5.00
  -4   6  18   -2.60    4.90
   4   6 -18   10.00    5.20
   4   6 -18   -5.30    4.00
  -2  -6  18   89.09   15.20
   2  -6 -18   82.69   13.40
   2  -6 -18   62.49   12.90
  -2  -6  18   82.59   13.50
  -2  -6  18   80.29   13.60
   2   6 -18   93.89   15.20
  -2   6  18   83.29   15.50
   2   6 -18   77.09   12.10
   0  -6 -18   32.70   10.00
   0  -6 -18   27.70    7.90
   0  -6  18   28.20    6.60
   0  -6  18   29.30    8.30
   0  -6  18   44.80    8.20
   0   6  18   30.30    8.40
   0   6  18   38.40   11.70
   0   6 -18   31.90    7.80
   2  -6  18  102.79    8.90
  -2  -6 -18   76.29   13.40
   2  -6  18   91.39   11.30
   2  -6  18   97.19    9.60
   2   6  18  122.69   14.50
  -2   6 -18   99.29    9.40
  -4  -6 -18    3.50    5.70
   4  -6  18    5.30    4.60
   3  -7 -18   -1.50    5.10
  -3  -7  18    7.20    6.10
   3   7 -18    9.40    4.40
   3   7 -18   -0.40    5.40
   3   7 -18   -8.00    5.50
  -1  -7  18    2.50    4.60
   1  -7 -18   10.30    6.30
   1  -7 -18    8.50    6.40
  -1  -7  18    9.20    4.90
   1   7 -18   -2.80    4.80
   1   7 -18    0.70    3.00
  -1   7  18   10.20    7.40
   1  -7  18   13.80    4.80
  -1  -7 -18    6.70    6.10
   1  -7  18    8.20    6.20
   1   7  18    3.90    5.60
  -1   7 -18    7.50    5.50
   1   7  18   10.20    7.90
  -3  -7 -18    9.30    8.00
   3  -7  18   16.50    5.30
   3  -7  18    4.90    5.60
   3  -7  18    1.80    6.70
   3   7  18   -0.10    7.90
   2  -8 -18   13.70    8.10
   2  -8 -18   -8.60    6.10
  -2   8  18   27.10    9.10
   2   8 -18   -6.40    6.70
   2   8 -18   15.40    5.50
   0  -8  18    5.40    5.20
   0  -8 -18    3.00    6.00
   0  -8  18   -7.70    6.10
   0   8 -18    8.00    6.80
   0   8  18    3.80    6.10
   0   8  18    5.40    7.90
   2  -8  18   34.00    7.00
  -2  -8 -18   22.80    9.00
   2   8  18   33.00   11.10
   2   8  18   35.80   12.80
   8   0 -19    7.20    6.10
   8   0 -19  -11.50    6.90
   8   0 -19   -5.30    6.30
   6   0 -19   -3.90    3.30
   6   0 -19    1.10    4.30
  -4   0  19    3.20    3.70
  -4   0  19    0.00    3.10
   4   0 -19    2.40    3.70
   4   0 -19    2.90    3.80
   4   0 -19   -2.60    2.90
   4   0 -19   -3.80    4.20
  -2   0  19    2.20    2.20
   2   0 -19    1.70    2.40
   2   0 -19   -2.90    3.10
   2   0 -19   -2.20    2.10
  -2   0  19    0.70    3.00
  -2   0  19   -0.40    1.80
   0   0 -19    5.80    2.20
   0   0  19    4.20    3.20
   0   0  19    3.20    3.20
   0   0 -19    3.00    2.80
   2   0  19    0.10    2.80
  -2   0 -19   -0.90    3.70
  -2   0 -19    2.40    3.20
   2   0  19   -3.00    2.30
  -4   0 -19    1.20    2.30
   4   0  19    2.70    4.40
   4   0  19   -3.80    2.80
  -4   0 -19    3.80    3.40
   6   0  19    3.70    5.10
   6   0  19    1.50    4.00
  -6   0 -19    1.60    4.20
   6   0  19   -1.50    4.10
  -6   0 -19   14.10    5.90
   7  -1 -19   10.80    6.90
   7  -1 -19    6.40    5.80
   7   1 -19   20.00    8.80
   7   1 -19  -10.30    5.70
   7   1 -19    6.70    6.30
   5  -1 -19  536.65   29.20
   5  -1 -19  518.65   34.70
   5  -1 -19  579.44   29.90
   5   1 -19  538.35   26.20
  -5   1  19  576.34   29.30
   5   1 -19  545.95   30.70
   5   1 -19  572.24   31.10
   3  -1 -19  199.88   15.10
   3  -1 -19  208.68   15.40
   3  -1 -19  182.38   15.40
   3  -1 -19  202.28   16.10
  -3  -1  19  205.88   16.60
  -3  -1  19  173.68   13.50
  -3   1  19  235.18   17.10
   3   1 -19  200.28   14.70
  -3   1  19  213.58   14.90
   3   1 -19  239.98   16.30
  -3   1  19  169.68   16.50
   3   1 -19  215.68   14.30
   3   1 -19  190.88   16.10
   1  -1 -19 1439.46   44.30
   1  -1 -19 1526.35   45.80
   1  -1 -19 1528.65   39.60
  -1  -1  19 1445.56   30.10
  -1  -1  19 1450.95   41.20
  -1  -1  19 1504.15   36.50
  -1  -1  19 1419.56   43.10
  -1   1  19 1509.85   45.20
   1   1 -19 1501.95   41.50
  -1   1  19 1513.55   45.30
   1   1 -19 1429.96   35.70
   1   1 -19 1450.75   44.00
  -1   1  19 1495.35   41.50
  -1  -1 -19  241.38   13.00
   1  -1  19  221.98   14.70
  -1  -1 -19  231.38   16.60
  -1  -1 -19  204.58   15.40
   1  -1  19  203.58   14.40
  -1   1 -19  227.68   14.60
   1   1  19  202.98   15.50
  -1   1 -19  224.38   15.00
   1   1  19  195.98   15.40
   3  -1  19  219.08   14.80
  -3  -1 -19  202.28   12.00
  -3  -1 -19  233.68   18.30
  -3  -1 -19  232.08   17.40
   3  -1  19  208.98   16.30
  -3   1 -19  207.68   19.10
  -3   1 -19  218.28   15.00
   3   1  19  241.48   18.40
   3   1  19  209.58   16.70
  -5  -1 -19  825.62   29.80
   5  -1  19  771.42   38.00
   5  -1  19  782.72   30.50
  -5  -1 -19  824.22   36.40
   5   1  19  759.82   34.80
   5   1  19  764.22   29.80
  -5   1 -19  801.32   31.60
   5   1  19  775.02   39.60
  -7  -1 -19   70.49   14.80
   7  -1  19   63.39   15.20
   7  -1  19   79.49   11.40
  -7   1 -19   70.99   11.00
  -7   1 -19   86.29   13.50
   7   1  19   76.69   11.80
   7   1  19   74.39   14.90
   7   1  19   60.99   14.20
   6  -2 -19    7.50    5.80
   6  -2 -19   20.40    7.00
   6   2 -19   -1.40    4.80
   6   2 -19   16.30    6.30
   6   2 -19    7.10    6.10
   6   2 -19   10.20    6.90
  -6   2  19    6.70    5.80
   4  -2 -19   20.40    7.40
   4  -2 -19   26.20    7.20
  -4  -2  19   22.60    6.90
   4  -2 -19   16.00    6.30
   4   2 -19   20.20    6.90
  -4   2  19   16.80    6.10
   4   2 -19   12.20    5.50
   4   2 -19   13.30    6.00
   2  -2 -19   13.50    5.00
   2  -2 -19   16.10    5.90
  -2  -2  19   17.10    6.00
  -2  -2  19   10.60    3.70
   2  -2 -19   11.50    4.90
   2   2 -19   15.30    4.80
   2   2 -19   13.10    5.50
  -2   2  19    9.00    4.90
  -2   2  19    7.90    5.60
   0  -2  19  131.39   10.30
   0  -2  19  123.19   11.00
   0  -2 -19  146.69   13.20
   0   2  19  138.29   13.20
   0   2 -19  126.39   11.50
   0   2 -19  138.59   10.60
   0   2  19  141.89   13.00
   0   2  19  128.39   12.60
  -2  -2 -19    7.80    3.40
   2  -2  19    2.80    2.70
  -2  -2 -19   12.70    5.60
   2  -2  19    6.00    3.40
   2  -2  19    3.70    3.80
  -2  -2 -19   12.40    4.80
   2   2  19    6.20    4.70
  -2   2 -19    3.60    2.40
   2   2  19   15.80    5.20
  -2   2 -19    5.20    3.60
  -4  -2 -19  164.78   13.60
   4  -2  19  176.18   15.70
  -4  -2 -19  167.08   16.40
   4  -2  19  170.08   18.30
   4  -2  19  158.08   11.80
   4   2  19  147.49   16.70
   4   2  19  150.78   16.00
  -4   2 -19  201.88   16.70
  -4   2 -19  154.08   12.00
  -6  -2 -19    7.50    5.40
   6  -2  19   -9.60    4.30
   6   2  19    9.70    8.00
   6   2  19    2.10    3.80
   6   2  19   -2.40    6.00
  -6   2 -19    4.10    5.20
   7  -3 -19    4.10    4.60
   7  -3 -19    1.40    6.10
   7   3 -19    3.90    8.50
   7   3 -19    7.80    7.50
  -7   3  19   20.10    8.80
   5  -3 -19   59.69   10.70
   5  -3 -19   47.50   11.30
   5   3 -19   30.10    9.10
   5   3 -19   49.60   11.00
   5   3 -19   28.40    7.80
   5   3 -19   40.60    8.40
  -5   3  19   51.29   11.70
   5   3 -19   31.60    7.30
  -3  -3  19    9.10    5.00
   3  -3 -19    7.40    4.00
   3  -3 -19   11.70    6.20
  -3  -3  19    7.50    5.70
   3  -3 -19   11.00    4.90
  -3   3  19   17.20    6.50
   3   3 -19   15.90    5.50
   3   3 -19   16.00    6.30
   3   3 -19   15.20    2.50
   3   3 -19   18.00    5.30
  -1  -3  19    2.80    2.40
   1  -3 -19   -1.10    3.00
   1  -3 -19   -3.90    2.00
   1  -3 -19    5.90    4.00
  -1   3  19    7.50    4.00
  -1   3  19    2.10    3.40
  -1   3  19    2.10    2.60
   1   3 -19   -0.40    2.10
   1  -3  19   69.19    5.60
   1  -3  19   62.79    9.10
  -1  -3 -19   63.39   10.50
  -1  -3 -19   76.09   12.70
   1  -3  19   70.19    7.70
  -1  -3 -19   63.89   11.40
   1   3  19   72.79   11.70
  -1   3 -19   65.29    7.90
  -1   3 -19   67.09    7.40
  -3  -3 -19  121.49   13.10
   3  -3  19  156.68   10.50
  -3  -3 -19  137.99   14.90
   3  -3  19  127.59   12.60
   3  -3  19  141.89   12.80
   3   3  19  116.09   16.80
  -3   3 -19  142.09   12.90
   3   3  19  133.69   18.00
  -3   3 -19  130.19   10.20
   5  -3  19   10.40    7.10
  -5  -3 -19   11.30    7.00
   5   3  19   16.30    8.90
   5   3  19   -4.00    9.60
  -7  -3 -19   12.20    8.60
   7   3  19   15.00   10.00
   7   3  19   10.10    6.00
   6  -4 -19   27.50    9.70
   6  -4 -19   30.60    8.80
  -6   4  19   23.30    8.90
   6   4 -19   33.80   10.70
   6   4 -19   33.80   10.00
   6   4 -19   34.20   11.00
   4  -4 -19  193.68   16.30
   4  -4 -19  205.48   18.60
   4   4 -19  181.18   17.60
   4   4 -19  204.08   19.00
   4   4 -19  184.88   10.70
   4   4 -19  178.08   13.80
   4   4 -19  173.18   13.70
  -4   4  19  167.88   17.40
  -2  -4  19  135.29   12.40
   2  -4 -19  170.58   15.30
  -2  -4  19  145.89   14.20
   2  -4 -19  157.88   14.90
   2   4 -19  172.28   11.00
   2   4 -19  158.48   14.10
  -2   4  19  183.28   17.70
   2   4 -19  166.38   15.60
   0  -4 -19  141.69   14.30
   0  -4  19  123.69   11.40
   0   4 -19  141.59    8.50
   0   4  19  105.59   13.90
   0   4 -19  137.09   12.80
   0   4  19  143.49   14.60
   2  -4  19  110.29    9.40
  -2  -4 -19  116.99   13.60
   2  -4  19  120.59   10.10
  -2  -4 -19  120.19   14.00
   2  -4  19  116.09    9.90
  -2   4 -19  115.19   10.20
  -2   4 -19  116.29   10.00
   2   4  19  110.79   13.40
   4  -4  19   26.10    8.30
   4  -4  19   18.50    7.10
  -4  -4 -19   35.50   14.80
  -4   4 -19   21.60    7.50
  -4   4 -19   31.30    5.60
   4   4  19   33.70    9.70
   6  -4  19    7.60    6.80
  -6  -4 -19   13.70    7.60
   6   4  19   18.40   13.40
   5  -5 -19  117.29   19.30
   5  -5 -19  111.79   13.20
  -5   5  19  110.29   19.20
   5   5 -19   97.59   10.90
   5   5 -19   73.99   15.50
   5   5 -19  109.89   14.00
   5   5 -19   99.49   11.90
   5   5 -19   92.99   17.10
  -3  -5  19   -7.70    3.60
   3  -5 -19    1.20    4.30
   3  -5 -19    8.90    4.80
   3   5 -19   -0.20    4.10
   3   5 -19    1.30    3.20
   3   5 -19    4.60    4.60
  -3   5  19  -10.10    4.00
   3   5 -19    3.00    3.10
  -1  -5  19  258.87   16.30
  -1  -5  19  268.57   18.40
   1  -5 -19  291.47   20.50
  -1   5  19  249.08   20.60
   1   5 -19  274.47   19.60
   1   5 -19  274.07   17.20
   1  -5  19  108.89    6.70
  -1  -5 -19  130.99   14.40
   1  -5  19  138.49   10.80
  -1   5 -19  124.69   11.40
   1   5  19  126.19   14.80
   3  -5  19    4.10    3.80
  -3  -5 -19   -0.50    3.00
   3  -5  19   -3.30    4.60
   3   5  19   -4.40    3.60
  -3   5 -19   -3.60    2.80
  -5  -5 -19   67.09   15.10
   5  -5  19   76.49   12.80
   5   5  19   76.89   16.00
   4  -6 -19    3.40    5.20
  -4  -6  19   -0.40    5.10
   4  -6 -19    6.60    4.50
   4   6 -19   -3.70    3.30
   4   6 -19    4.90    4.20
   4   6 -19    5.00    3.60
  -4   6  19   -4.50    7.10
   4   6 -19   -1.00    4.40
   4   6 -19   -1.50    5.00
  -2  -6  19   86.69   17.40
  -2  -6  19   95.49   15.70
   2  -6 -19  103.09   12.60
   2  -6 -19  112.59   13.50
  -2  -6  19   93.39   13.60
   2   6 -19   94.49   14.80
  -2   6  19   88.79   16.60
   2   6 -19  102.09   12.10
   0  -6  19   27.90    6.70
   0  -6 -19   16.00    5.70
   0  -6  19   16.40    5.80
   0  -6  19   18.40    6.00
   0   6 -19   13.40    6.60
   0   6  19   27.10    9.40
   0   6  19   15.80    7.20
   2  -6  19   15.20    3.20
   2  -6  19   34.00    6.30
  -2  -6 -19   11.90    6.60
   2  -6  19   21.90    7.10
   2  -6  19   14.80    4.30
   2   6  19   18.60    7.60
  -2   6 -19   17.00    5.70
   4  -6  19   13.70    6.30
  -4  -6 -19    0.90    6.00
   4   6  19   33.40   10.00
  -3  -7  19   12.60    9.30
   3  -7 -19    8.00    5.50
   3  -7 -19    4.50    8.00
   3   7 -19   16.80    4.00
   3   7 -19    9.40    7.10
   3   7 -19   15.20    7.40
  -3   7  19    7.70    8.60
  -1  -7  19   43.80    9.40
   1  -7 -19   32.90    9.00
   1  -7 -19   27.30    9.90
  -1  -7  19   42.80    9.60
   1   7 -19   45.30    4.60
   1   7 -19   41.80   10.90
  -1   7  19   19.40    9.70
   1  -7  19   23.30    5.40
   1  -7  19   13.20    6.50
  -1  -7 -19   29.60    9.30
   1  -7  19   23.70    5.80
  -1   7 -19   20.70    6.30
   1   7  19   22.80    8.50
   1   7  19   12.80    8.30
   3  -7  19   34.50   11.00
   3  -7  19   62.19    9.60
   3  -7  19   50.89    7.50
   3   7  19   40.60   11.70
  -2  -8  19   -1.80    6.00
   2  -8 -19    2.60    5.80
   2   8 -19    2.00    6.80
  -2   8  19   -9.70    5.90
   2   8 -19   -6.80    3.90
   0  -8 -19   49.99   11.30
   0  -8  19   81.89   12.90
   0   8 -19   42.10    7.40
   0   8 -19   47.40   11.80
   0   8  19   36.30   10.20
   0   8  19   44.10   12.80
   2  -8  19    6.20    4.20
  -2  -8 -19   16.60    7.50
   2   8  19   15.70    8.70
   2   8  19   14.80    9.60
   8   0 -20   50.89   14.50
   8   0 -20   47.80   12.60
   8   0 -20   47.80   13.40
   6   0 -20    7.30    4.30
   6   0 -20   11.20    5.50
   4   0 -20 1193.98   44.50
   4   0 -20 1196.38   39.20
  -4   0  20 1201.68   42.30
   4   0 -20 1191.38   43.40
  -4   0  20 1195.88   38.60
   2   0 -20   24.50    6.70
  -2   0  20   19.20    6.50
  -2   0  20   23.80    5.50
  -2   0  20   18.10    4.60
   2   0 -20   34.10    7.00
   2   0 -20   32.30    7.50
   0   0 -20    6.00    3.60
   0   0  20    9.30    3.90
   0   0  20    7.20    3.50
   0   0 -20    6.40    2.40
   0   0 -20    5.00    3.50
  -2   0 -20  303.57   23.10
   2   0  20  339.97   20.60
  -2   0 -20  334.67   19.70
   2   0  20  364.66   20.40
   4   0  20    9.20    4.00
   4   0  20   -2.10    3.90
  -4   0 -20   -0.40    2.90
  -4   0 -20   -2.10    2.20
   6   0  20   26.10    8.70
   6   0  20   32.20    6.90
  -6   0 -20   24.10    6.40
   6   0  20   45.10   12.10
   7  -1 -20   60.39   23.00
   7  -1 -20   49.00   11.30
   7   1 -20   36.40   11.90
   7   1 -20   51.89   12.70
   5  -1 -20   40.60    9.90
   5  -1 -20   62.69   12.20
   5  -1 -20   52.49   11.20
   5   1 -20   47.30    9.10
  -5   1  20   60.49   10.80
   5   1 -20   41.20   10.20
  -3  -1  20   13.40    5.40
   3  -1 -20   20.40    6.00
  -3  -1  20   18.00    5.40
   3  -1 -20    9.10    4.90
   3  -1 -20    9.20    4.50
   3  -1 -20    2.30    3.80
   3   1 -20   17.50    6.00
   3   1 -20   16.10    5.50
   3   1 -20   13.10    5.30
   3   1 -20   15.90    5.40
  -3   1  20   20.20    6.10
  -3   1  20   16.50    5.90
  -3   1  20    7.10    4.70
   1  -1 -20  411.26   22.20
   1  -1 -20  437.26   19.60
  -1  -1  20  439.06   21.00
   1  -1 -20  465.15   23.90
  -1  -1  20  437.86   22.30
  -1  -1  20  432.06   16.70
  -1  -1  20  417.96   13.40
  -1   1  20  448.76   23.40
   1   1 -20  407.86   16.90
  -1   1  20  428.66   20.40
  -1   1  20  411.56   22.30
   1   1 -20  437.66   21.10
   1   1 -20  425.96   22.50
  -1  -1 -20  150.38   13.70
  -1  -1 -20  158.58    9.90
   1  -1  20  157.28   12.90
   1  -1  20  146.29   12.40
  -1   1 -20  175.88   13.80
   1   1  20  169.18   14.60
  -1   1 -20  154.78   12.50
   1   1  20  164.58   14.30
  -3  -1 -20  208.58   16.80
   3  -1  20  203.38   16.40
  -3  -1 -20  237.68   12.80
   3  -1  20  211.98   15.10
   3   1  20  200.18   17.00
  -3   1 -20  246.08   16.00
  -3   1 -20  212.78   17.20
   3   1  20  210.48   17.30
   5  -1  20  216.48   20.00
  -5  -1 -20  234.78   15.50
   5  -1  20  256.97   17.10
  -5  -1 -20  276.57   21.50
  -5   1 -20  261.87   18.00
   5   1  20  270.47   20.70
   5   1  20  254.87   22.60
  -7  -1 -20    3.30    6.20
   7  -1  20    1.90    5.10
   7   1  20    3.80    4.90
  -7   1 -20  -15.80    6.00
   7   1  20  -12.60    5.20
  -7   1 -20  -13.20    7.50
   6  -2 -20    9.60    5.40
   6  -2 -20    0.30    4.30
   6   2 -20    7.80    4.40
   6   2 -20    4.40    5.90
   6   2 -20   -6.90    3.70
   6   2 -20    5.40    4.00
  -6   2  20   -3.30    3.50
   4  -2 -20  483.35   27.30
   4  -2 -20  480.05   27.30
  -4  -2  20  455.85   25.40
   4  -2 -20  493.95   28.40
   4   2 -20  471.05   28.10
   4   2 -20  507.95   27.30
   4   2 -20  506.55   20.30
  -4   2  20  511.65   27.60
   2  -2 -20  181.78   15.80
  -2  -2  20  178.78   14.80
   2  -2 -20  175.48   14.10
  -2  -2  20  176.18   12.00
   2  -2 -20  165.58   14.60
  -2   2  20  189.08   15.60
   2   2 -20  156.78   12.40
   2   2 -20  146.79   12.00
  -2   2  20  151.68   13.90
   2   2 -20  168.58   14.80
   0  -2 -20    4.10    3.80
   0  -2 -20    1.60    2.40
   0  -2  20   -4.00    2.20
   0  -2  20    2.50    3.00
   0   2  20    1.60    2.80
   0   2  20    0.40    3.30
   0   2  20   -0.60    3.90
   0   2 -20   -1.00    2.20
   0   2 -20   -5.10    2.60
   2  -2  20  335.77   16.80
   2  -2  20  363.76   18.80
  -2  -2 -20  380.36   22.90
  -2  -2 -20  346.77   17.80
   2  -2  20  346.07   19.50
  -2  -2 -20  337.87   22.40
   2   2  20  324.07   21.60
  -2   2 -20  372.46   19.00
  -2   2 -20  340.17   19.30
   2   2  20  365.56   23.00
  -4  -2 -20   81.39   11.30
  -4  -2 -20   79.79   13.00
   4  -2  20   90.29   11.20
   4  -2  20   77.09   10.20
   4  -2  20   80.09   12.90
   4   2  20   89.59   14.40
  -4   2 -20   72.09   10.30
   4   2  20   80.19   14.20
  -6  -2 -20   19.40    9.70
  -6  -2 -20   29.00    9.60
   6  -2  20   60.39   12.00
  -6   2 -20   25.50    8.00
   6   2  20   21.20   11.70
   6   2  20   45.60    9.00
   6   2  20   43.90   13.40
   7  -3 -20   -1.80    4.90
   7  -3 -20    7.40    6.50
   7   3 -20  -12.50   10.80
  -7   3  20    6.20    7.50
   7   3 -20    2.70    6.30
   7   3 -20  -10.10    5.40
   5  -3 -20   99.69   12.50
   5  -3 -20   92.09   15.90
   5   3 -20  110.09   10.80
   5   3 -20   80.59   14.60
  -5   3  20   72.79   13.50
   5   3 -20   89.39   14.70
   5   3 -20  105.39   11.60
  -3  -3  20    8.40    5.40
   3  -3 -20   13.70    5.90
   3  -3 -20    6.90    3.80
   3   3 -20   11.30    4.90
  -3   3  20    7.30    4.90
   3   3 -20   -0.10    3.50
   3   3 -20    5.10    4.40
   1  -3 -20  323.27   21.70
   1  -3 -20  342.87   21.40
  -1  -3  20  350.76   15.60
   1  -3 -20  387.66   20.90
  -1  -3  20  338.27   20.10
  -1   3  20  328.57   21.70
  -1   3  20  350.96   22.20
   1   3 -20  328.27   20.20
   1   3 -20  351.96   16.50
   1   3 -20  338.87   16.00
  -1   3  20  352.36   22.70
   1  -3  20   36.20    6.50
  -1  -3 -20   26.20    8.90
  -1  -3 -20   45.80    9.00
   1  -3  20   36.00    4.10
  -1  -3 -20   23.50    6.80
   1  -3  20   32.40    6.60
  -1   3 -20   26.00    5.40
   1   3  20   32.10    7.80
  -1   3 -20   31.00    6.90
   1   3  20   14.00    6.50
   3  -3  20   62.59    7.40
  -3  -3 -20   55.79   11.50
   3  -3  20   66.39   10.60
  -3  -3 -20   65.69   10.40
   3  -3  20   68.09   10.70
   3   3  20   37.00   11.40
  -3   3 -20   59.29    8.80
   3   3  20   61.69   12.20
  -3   3 -20   95.49   10.50
   5  -3  20   56.19   11.90
  -5  -3 -20   27.40    9.00
  -5   3 -20   22.50    8.10
   5   3  20   31.50   10.00
   6  -4 -20   -0.70    4.70
   6  -4 -20   -8.00    9.70
   6   4 -20   -2.60    5.70
   6   4 -20    8.70    8.70
  -6   4  20    1.80    6.60
   6   4 -20    3.10    7.40
   6   4 -20    1.60    7.40
   4  -4 -20   11.90    5.80
   4  -4 -20   17.20    5.50
  -4   4  20    4.40    5.60
   4   4 -20    6.90    5.20
   4   4 -20    9.20    5.10
   4   4 -20    8.20    3.60
   4   4 -20   15.50    7.40
   4   4 -20    9.20    5.10
  -2  -4  20   35.40    8.20
   2  -4 -20   39.30    8.50
  -2  -4  20   41.50    8.40
   2  -4 -20   55.99   10.90
   2   4 -20   39.90    9.30
   2   4 -20   45.20    6.40
  -2   4  20   40.60   10.10
   2   4 -20   48.80    9.80
   0  -4 -20   35.00    8.20
   0  -4  20   60.79   11.30
   0  -4  20   52.79    7.40
   0   4 -20   48.20    9.90
   0   4 -20   44.30    6.40
   0   4  20   54.99   11.30
   0   4  20   55.19   11.30
   2  -4  20    4.60    3.40
   2  -4  20   14.20    3.90
  -2  -4 -20   17.90    6.10
  -2  -4 -20   12.60    6.80
   2  -4  20    9.00    3.90
  -2   4 -20    7.40    3.90
  -2   4 -20    9.50    4.10
   4  -4  20   80.29   13.20
  -4  -4 -20   61.19   13.40
   4  -4  20   90.39   11.20
   4   4  20  105.69   16.40
  -4   4 -20   90.79   12.90
  -4   4 -20   65.29    7.70
  -6  -4 -20   27.70   11.30
   6  -4  20   26.30    9.30
   6   4  20   17.80    9.50
   5  -5 -20   18.40    8.20
   5  -5 -20    0.10    4.90
   5   5 -20    6.30    5.50
   5   5 -20    2.10    7.60
  -5   5  20   16.70    9.20
   5   5 -20    0.50    4.50
   5   5 -20    9.80    6.90
  -3  -5  20  132.79   14.70
   3  -5 -20  128.09   14.90
   3  -5 -20   95.59   14.20
   3   5 -20  102.19   15.70
   3   5 -20  105.49   13.40
  -3   5  20  119.39   15.50
   3   5 -20  110.99    8.90
   3   5 -20   91.49    8.60
  -1  -5  20  282.97   19.40
   1  -5 -20  287.87   20.90
  -1  -5  20  318.97   17.50
  -1   5  20  270.57   25.10
   1   5 -20  307.77   18.00
   1   5 -20  314.67   21.40
  -1   5  20  278.27   23.70
   1  -5  20   23.40    5.90
  -1  -5 -20   18.30    6.30
   1  -5  20   26.20    3.90
  -1   5 -20   24.80    6.60
   1   5  20   13.20    6.50
   1   5  20   26.10    8.80
  -1   5 -20   17.00    3.60
   3  -5  20   91.39    9.70
   3  -5  20   94.39   13.10
  -3  -5 -20   77.69   14.70
   3   5  20  101.99   16.20
  -3   5 -20   95.59   14.50
   5  -5  20   14.30    6.70
  -5  -5 -20   15.00    8.40
   4  -6 -20   -2.10    4.60
  -4  -6  20   -9.30    5.00
   4  -6 -20    3.10    4.50
   4   6 -20   -2.60    3.00
   4   6 -20    4.10    3.70
   4   6 -20    8.40    4.90
  -4   6  20    2.50    7.90
   4   6 -20    5.10    4.50
   4   6 -20    7.60    5.50
   4   6 -20    3.60    3.40
   2  -6 -20   -7.00    3.00
  -2  -6  20   -0.60    5.90
   2  -6 -20   -3.70    3.30
   2   6 -20    1.50    4.80
  -2   6  20  -10.70    4.80
   2   6 -20    1.50    3.70
   0  -6 -20  213.08   18.90
   0  -6  20  198.18   15.40
   0  -6  20  184.28   13.90
   0   6  20  189.28   21.80
   0   6 -20  209.48   17.30
   0   6  20  209.28   19.40
   2  -6  20   25.90    5.50
   2  -6  20   33.00    4.10
   2  -6  20   10.90    6.20
  -2  -6 -20   40.00   11.40
   2   6  20   29.30    7.80
  -2   6 -20   36.10   10.80
  -4  -6 -20   17.80    7.80
   4  -6  20   15.00    5.50
   4   6  20   15.10    7.40
  -3  -7  20   -3.60    6.90
   3  -7 -20   10.10    5.90
   3   7 -20   10.10    5.90
  -1  -7  20   18.50    6.60
  -1  -7  20   20.50    7.80
   1  -7 -20   11.60    7.10
   1  -7 -20   16.00    6.20
  -1   7  20   14.10    9.20
   1   7 -20   16.30    8.00
   1  -7  20   -4.10    3.30
  -1  -7 -20   13.10    6.40
   1  -7  20   -4.90    5.00
   1  -7  20   -3.70    4.00
  -1   7 -20   -1.30    4.80
   1   7  20   -3.40    7.80
  -3  -7 -20   13.20    7.80
   3  -7  20    2.60    7.70
   3   7  20   23.10    9.90
  -2  -8  20    5.80    5.80
   2  -8 -20   15.10    7.40
   2  -8 -20   11.50    8.80
   2   8 -20    7.80    7.20
  -2   8  20   28.80   10.50
   0  -8  20  126.19   14.40
   0  -8 -20  118.69   18.30
   0   8  20  141.29   17.60
   0   8 -20  132.49   18.30
   0   8  20   99.39   20.40
   6   0 -21   36.10   10.50
   6   0 -21    4.00    4.90
  -4   0  21   -0.30    4.20
   4   0 -21   -1.90    3.50
   4   0 -21    4.20    4.40
   4   0 -21   -1.20    3.60
   2   0 -21   -1.00    3.40
   2   0 -21    0.20    2.50
  -2   0  21   -2.00    1.90
   2   0 -21   -0.90    2.20
  -2   0  21    0.70    2.20
   0   0  21    5.20    3.10
   0   0  21    2.90    3.00
   0   0 -21    4.40    2.30
   0   0  21    8.30    3.80
   0   0 -21    5.40    3.50
   0   0 -21    5.20    3.40
  -2   0 -21   -1.50    3.30
   2   0  21   -3.00    3.00
  -2   0 -21    0.60    3.00
   2   0  21    0.20    2.30
   4   0  21   -1.90    3.50
  -4   0 -21    2.90    3.60
   6   0  21   -4.50    4.80
   6   0  21   -5.50    3.30
  -6   0 -21   -2.40    4.00
   6   0  21   -0.90    6.30
  -6   0 -21   -9.90    5.40
   7  -1 -21    1.20    5.10
   7  -1 -21    0.30    5.10
   7   1 -21    7.00    6.50
   7   1 -21   -6.10    4.90
   5  -1 -21   91.29   14.50
   5  -1 -21   82.29   12.90
   5  -1 -21  100.59   15.70
  -5   1  21  103.99   12.40
   5   1 -21  108.19   17.00
   5   1 -21   75.19   12.40
   5   1 -21  117.19   12.40
  -3  -1  21   83.39    9.90
   3  -1 -21  100.19   11.80
   3  -1 -21   79.09   10.00
   3  -1 -21   99.29   11.30
   3  -1 -21  116.89   12.80
  -3  -1  21   86.09   13.90
   3   1 -21   82.69   10.30
  -3   1  21   92.09   10.30
   3   1 -21   95.19   15.10
   3   1 -21  113.69   12.60
   3   1 -21   79.19   13.10
  -3   1  21   95.09   18.30
  -1  -1  21  229.38    9.70
  -1  -1  21  230.28   15.60
   1  -1 -21  203.78   15.60
  -1  -1  21  220.08   16.10
   1  -1 -21  224.08   16.90
  -1  -1  21  220.88   11.80
   1  -1 -21  217.88   17.00
   1   1 -21  232.98   15.50
   1   1 -21  243.28   12.90
  -1   1  21  247.58   17.60
  -1   1  21  246.48   15.40
  -1   1  21  249.78   17.50
   1   1 -21  231.78   16.80
  -1  -1 -21  857.11   25.20
   1  -1  21  876.61   32.20
  -1  -1 -21  886.91   34.60
  -1  -1 -21  838.42   26.40
   1  -1  21  886.01   32.40
  -1   1 -21  889.01   32.90
  -1   1 -21  826.72   31.30
   1   1  21  840.02   34.20
  -3  -1 -21   -4.10    2.30
  -3  -1 -21   -0.50    3.20
   3  -1  21    2.00    3.60
   3  -1  21    2.10    3.40
  -3   1 -21    0.20    5.00
   3   1  21    0.80    4.50
  -3   1 -21    2.40    4.30
   3   1  21   -1.80    3.40
   5  -1  21   11.90    4.30
  -5  -1 -21    0.40    3.90
  -5  -1 -21   11.70    5.50
   5  -1  21   11.00    5.20
   5   1  21   -3.50    5.40
   5   1  21    0.90    4.80
  -5   1 -21    3.00    4.50
  -7  -1 -21   34.10   10.90
   7  -1  21   35.30   12.40
   7  -1  21   52.79    8.60
   7   1  21   64.09   10.90
  -7   1 -21   42.00   10.50
   7   1  21   17.10   10.90
   6  -2 -21   64.79   14.60
   6  -2 -21   57.09   11.30
   6   2 -21   51.19   11.80
   6   2 -21   77.69   15.60
  -6   2  21   56.69   12.10
   6   2 -21   48.40   11.50
   6   2 -21   69.89   12.90
   4  -2 -21  343.97   23.20
   4  -2 -21  378.06   24.50
   4  -2 -21  361.56   23.40
  -4  -2  21  364.16   35.30
   4   2 -21  396.56   24.10
   4   2 -21  357.96   21.50
   4   2 -21  404.36   26.20
   4   2 -21  396.06   17.40
  -4   2  21  387.56   24.20
  -2  -2  21   60.39    7.60
   2  -2 -21   69.39   11.50
   2  -2 -21   51.69   10.40
   2  -2 -21   64.69   10.20
  -2  -2  21   74.49   12.30
   2   2 -21   66.19   11.20
  -2   2  21   59.59   11.30
  -2   2  21   71.29   11.60
   2   2 -21   59.29    9.10
   2   2 -21   66.49    8.00
   0  -2  21  375.16   18.70
   0  -2 -21  339.67   21.40
   0  -2  21  374.16   20.30
   0  -2 -21  337.57   21.20
   0  -2 -21  364.56   18.20
   0   2  21  312.47   25.00
   0   2  21  348.77   21.40
   0   2  21  345.97   21.60
   0   2 -21  347.97   18.00
   0   2 -21  358.66   20.50
   2  -2  21  250.27   16.00
   2  -2  21  270.37   15.00
  -2  -2 -21  258.17   15.70
  -2  -2 -21  286.57   20.20
   2  -2  21  263.57   17.30
   2   2  21  274.67   20.10
   2   2  21  216.48   18.50
  -2   2 -21  301.77   17.70
  -2   2 -21  275.97   17.80
  -4  -2 -21   60.59   11.60
   4  -2  21   55.79   11.00
   4  -2  21   60.09   10.50
   4  -2  21   70.09   10.00
  -4  -2 -21   58.79    9.80
  -4   2 -21   68.79   10.10
   4   2  21   53.29   10.90
   6  -2  21   15.80    8.20
  -6  -2 -21   26.10    9.80
  -6  -2 -21   23.10    9.00
  -6   2 -21   38.20    7.80
   6   2  21   33.10   10.50
   7  -3 -21   -1.40    6.90
   7   3 -21   16.20    8.70
  -7   3  21  -10.50   10.40
   7   3 -21   15.90    8.90
   7   3 -21    5.70    7.20
   5  -3 -21   13.60    6.40
   5  -3 -21   -5.60    3.10
   5   3 -21   13.70    6.30
   5   3 -21    6.20    5.00
  -5   3  21    5.30    6.80
   5   3 -21   -0.10    4.40
   5   3 -21    7.00    4.30
  -3  -3  21   50.69   10.30
   3  -3 -21   53.09   11.90
  -3  -3  21   67.59   10.80
   3  -3 -21   60.99   10.70
   3   3 -21   62.29    9.40
   3   3 -21   58.19   11.30
   3   3 -21   54.29   10.20
  -3   3  21   60.69   11.40
   1  -3 -21    2.70    3.60
  -1  -3  21    4.50    2.70
   1  -3 -21    8.90    4.50
  -1  -3  21   -3.60    2.90
  -1   3  21    7.40    4.80
  -1   3  21    2.30    3.90
   1   3 -21    0.50    3.30
   1   3 -21    6.20    3.20
  -1   3  21    1.20    4.30
   1   3 -21    1.50    2.80
   1  -3  21   17.90    3.20
  -1  -3 -21   23.50    6.50
   1  -3  21   11.00    4.00
  -1  -3 -21    7.50    4.90
   1   3  21   16.90    6.10
  -1   3 -21   10.40    4.10
   1   3  21   28.40    8.00
  -1   3 -21   10.50    4.90
   3  -3  21   22.00    7.00
  -3  -3 -21   16.80    7.30
  -3  -3 -21   27.10    8.90
   3  -3  21   12.20    6.10
   3  -3  21   13.80    4.60
  -3   3 -21   40.10    7.10
   3   3  21   28.10    9.00
   3   3  21   25.90    8.20
  -5  -3 -21   10.70    6.00
   5  -3  21   -2.80    4.70
  -5   3 -21    3.20    4.60
   5   3  21    5.50    5.30
   6  -4 -21   30.70   12.00
   6  -4 -21   47.00   10.90
  -6   4  21   66.39   14.60
   6   4 -21   60.09   11.50
   6   4 -21   58.49   14.70
   6   4 -21   59.39   15.00
   6   4 -21   57.99   10.50
   4  -4 -21  134.19   15.50
   4  -4 -21  133.29   14.00
   4   4 -21  137.49   12.90
   4   4 -21  124.69   20.90
  -4   4  21  131.89   16.90
   4   4 -21  128.89   15.00
   4   4 -21  137.39    7.80
   4   4 -21  135.19   12.10
   2  -4 -21   18.50    6.40
  -2  -4  21   16.20    7.30
   2  -4 -21   14.30    5.10
  -2  -4  21   17.40    5.70
  -2   4  21   16.80    7.50
   2   4 -21   12.50    6.20
   2   4 -21   27.30    5.20
   2   4 -21   24.70    6.90
   0  -4 -21  291.97   21.20
   0  -4  21  296.57   12.80
   0  -4  21  302.77   13.70
   0  -4  21  329.77   19.30
   0   4  21  313.87   22.20
   0   4  21  275.37   22.40
   0   4 -21  289.67   18.80
   2  -4  21   -6.00    2.20
  -2  -4 -21    9.10    5.10
   2  -4  21    0.50    2.90
  -2  -4 -21    2.90    4.10
   2  -4  21   -3.10    2.40
   2   4  21   -3.40    3.40
  -2   4 -21   -0.30    2.90
  -2   4 -21    1.80    3.10
  -4  -4 -21   76.49   15.50
   4  -4  21   51.09   11.20
   4  -4  21   59.59   11.30
   4   4  21   56.09   12.40
  -4   4 -21   55.79   11.00
   6  -4  21   13.80    7.60
  -6  -4 -21   26.00    8.50
   6   4  21    6.20    8.00
   5  -5 -21   -3.60    4.10
   5   5 -21   13.80    6.70
  -5   5  21   -0.70    5.80
   5   5 -21    3.10    4.40
   5   5 -21   20.50    8.10
   5   5 -21   -0.30    6.10
   3  -5 -21   -3.90    3.40
   3  -5 -21   -0.30    2.90
  -3  -5  21   -6.80    4.50
   3   5 -21    6.10    4.80
   3   5 -21    1.90    4.50
   3   5 -21    8.20    3.40
  -3   5  21    9.60    6.50
   3   5 -21    0.60    3.20
  -1  -5  21    7.40    5.20
  -1  -5  21    1.70    4.00
   1  -5 -21    7.50    3.70
   1  -5 -21    0.50    3.80
   1   5 -21    1.80    1.90
  -1   5  21   17.00    8.00
   1   5 -21    1.70    5.20
   1   5 -21    4.60    4.00
  -1   5  21    3.90    5.00
   1  -5  21   15.30    5.00
   1  -5  21   16.50    3.90
  -1  -5 -21   15.30    7.20
  -1   5 -21   21.20    6.30
  -1   5 -21   16.80    3.80
   1   5  21   11.80    5.90
   1   5  21    7.90    5.50
  -3  -5 -21   -2.40    4.10
   3  -5  21    4.70    5.60
   3  -5  21    0.80    4.20
   3   5  21   15.30    6.80
  -3   5 -21    0.50    4.50
  -5  -5 -21   23.60    9.60
   5  -5  21   25.20    8.30
   4  -6 -21   54.19   11.70
   4  -6 -21   34.90   13.20
  -4  -6  21   36.10   11.50
   4   6 -21   38.20    7.10
   4   6 -21   48.80    7.30
   4   6 -21   49.70   11.10
   4   6 -21   16.10    9.50
  -4   6  21   54.39   16.10
   2  -6 -21   43.50   10.40
  -2  -6  21   39.50    9.20
   2  -6 -21   26.10    8.60
  -2   6  21   27.20    9.50
   2   6 -21   24.40    8.60
   2   6 -21   44.00    9.60
   0  -6  21  184.88   14.20
   0  -6  21  185.48   15.30
   0  -6 -21  167.28   18.00
   0   6  21  171.18   20.10
   0   6  21  199.88   19.30
   0   6 -21  209.98   18.00
   2  -6  21   36.40    4.80
  -2  -6 -21   23.10    9.10
   2  -6  21   28.80    5.50
  -2   6 -21   35.80    7.80
   2   6  21   46.50   11.40
   4  -6  21   41.80    8.10
  -3  -7  21    1.20    5.40
   3  -7 -21   -3.70    5.00
   3  -7 -21    3.30    6.90
   3   7 -21   -2.40    6.10
  -3   7  21    0.90    6.60
   3   7 -21  -10.60    6.30
  -1  -7  21    2.20    5.70
   1  -7 -21   11.50    6.40
  -1  -7  21   -6.80    4.30
  -1   7  21    3.70    8.60
   1   7 -21   -1.40    5.90
  -1  -7 -21    5.00    9.10
   1  -7  21   10.60    4.80
   1  -7  21   12.00    5.50
   1  -7  21   20.30    5.20
  -1   7 -21    9.20    5.60
   1   7  21   15.60    9.20
  -3  -7 -21   21.10    8.80
   0  -8  21   39.50    8.40
   0  -8 -21   28.70   10.10
   0   8 -21   12.90    8.60
   0   8  21   21.90    9.50
   0   8  21   30.60   13.30
   6   0 -22    4.90    4.80
   6   0 -22    6.40    5.80
   4   0 -22  116.69   13.50
   4   0 -22  165.88   13.80
  -4   0  22  141.89   12.60
   4   0 -22  130.99   20.50
   2   0 -22  182.08   15.50
   2   0 -22  163.48   15.00
   2   0 -22  187.18   13.20
  -2   0  22  188.38   13.50
  -2   0  22  181.88   12.00
   0   0  22   42.50    8.10
   0   0 -22   36.40    8.10
   0   0 -22   41.50    4.90
   0   0  22   44.20    7.40
   0   0  22   52.99    9.90
   0   0 -22   32.60    7.90
   2   0  22  281.77   19.00
   2   0  22  301.77   20.40
  -2   0 -22  291.67   19.80
  -2   0 -22  277.07   18.70
   4   0  22    9.30    6.20
  -4   0 -22   16.10    6.50
   4   0  22   22.70    6.10
  -6   0 -22    4.50    5.20
   6   0  22    7.10    6.60
  -6   0 -22   11.60    6.70
   6   0  22    6.80    7.30
   7   1 -22   24.70    9.10
   7   1 -22   23.80   10.10
   7   1 -22   19.10   10.60
   5  -1 -22    6.00    5.40
   5  -1 -22    1.00    4.80
   5  -1 -22   -5.00    2.70
   5   1 -22    0.50    4.10
  -5   1  22    4.80    4.50
   5   1 -22   -0.10    2.90
   5   1 -22   -5.40    3.00
  -3  -1  22  155.78   13.60
  -3  -1  22  167.78   15.90
   3  -1 -22  178.48   15.00
   3  -1 -22  146.59   14.80
   3   1 -22  152.88   13.80
   3   1 -22  178.08   15.90
  -3   1  22  147.19   13.80
  -3   1  22  169.58   14.00
   1  -1 -22   -2.90    3.70
   1  -1 -22   10.60    4.00
  -1  -1  22    6.70    4.10
  -1  -1  22   14.50    5.40
   1  -1 -22    4.20    4.00
  -1  -1  22    8.20    2.60
  -1  -1  22   11.10    3.10
   1   1 -22   12.60    3.90
   1   1 -22    0.30    3.20
  -1   1  22   10.10    5.40
  -1   1  22    8.60    5.00
   1   1 -22    4.40    3.90
  -1   1  22    3.00    5.10
   1  -1  22    2.60    3.40
   1  -1  22    8.50    4.30
  -1  -1 -22   10.00    4.60
  -1  -1 -22    3.40    4.10
  -1  -1 -22   -1.50    2.20
  -1  -1 -22    6.90    3.10
  -1   1 -22    2.20    3.20
   1   1  22    3.20    3.90
   1   1  22    3.90    3.90
  -1   1 -22    4.90    3.60
   3  -1  22  415.56   24.50
  -3  -1 -22  385.26   23.70
  -3  -1 -22  418.06   17.10
  -3   1 -22  393.06   21.90
  -3   1 -22  418.36   24.90
   3   1  22  402.56   25.80
   3   1  22  404.66   24.90
  -5  -1 -22   -5.40    4.20
  -5  -1 -22    4.00    6.00
   5  -1  22   -5.00    4.10
  -5   1 -22    7.80    4.90
   5   1  22   14.30    7.50
   7  -1  22    2.90    8.40
   7  -1  22   15.30    4.40
  -7  -1 -22   16.70    8.50
   7   1  22   -1.60    7.30
  -7   1 -22  -16.90    7.00
   6  -2 -22   20.90    7.50
   6  -2 -22   10.70    6.60
  -6   2  22    7.40    6.60
   6   2 -22   14.80    8.10
   6   2 -22   32.50    9.80
   4  -2 -22   14.00    6.50
   4  -2 -22   28.40    8.50
   4  -2 -22   27.10    8.00
   4   2 -22   16.90    7.30
  -4   2  22   22.90    7.00
   4   2 -22   20.20    5.30
   4   2 -22   30.50    8.10
   4   2 -22   26.80    9.20
  -2  -2  22   73.19   12.20
   2  -2 -22   76.89   12.30
   2  -2 -22   85.09   10.00
  -2  -2  22   88.19    8.90
   2   2 -22   74.39   12.20
  -2   2  22  114.59   12.20
   2   2 -22   80.59    9.70
   2   2 -22   68.59    8.60
   0  -2 -22   89.89   13.50
   0  -2 -22   75.09   11.90
   0  -2  22   86.69    9.50
   0  -2 -22  115.29   10.30
   0  -2  22  105.79   11.10
   0   2 -22   96.59    9.70
   0   2  22   87.09   13.70
   0   2  22  101.09   11.70
  -2  -2 -22  123.79   13.60
   2  -2  22  107.49   11.50
   2  -2  22  122.79   11.70
   2  -2  22  118.79    9.80
  -2  -2 -22  116.49   10.70
   2   2  22  133.19   14.40
  -2   2 -22   99.39   11.50
  -2   2 -22   94.39   10.80
   4  -2  22  290.87   20.30
   4  -2  22  324.37   18.40
   4  -2  22  313.07   22.00
  -4  -2 -22  308.57   23.10
  -4  -2 -22  278.97   17.80
  -4   2 -22  337.87   19.40
   4   2  22  356.56   25.20
   4   2  22  324.87   24.60
   6  -2  22   15.90    7.30
   6  -2  22    2.20    4.40
  -6  -2 -22   -8.90    6.60
  -6  -2 -22    1.10    6.80
  -6   2 -22   -5.70    5.10
   6   2  22    3.90    9.10
   6   2  22    0.60    8.50
   7  -3 -22    8.60    6.50
   7  -3 -22    0.70    6.50
  -7   3  22   -2.00   15.00
   7   3 -22    2.40    7.40
   7   3 -22    1.90    6.90
   7   3 -22   -2.10    7.60
   5  -3 -22   -1.10    4.20
   5  -3 -22    4.90    4.90
   5   3 -22    7.80    4.70
  -5   3  22    0.80    4.40
   5   3 -22    3.40    3.90
   5   3 -22    5.60    5.10
   3  -3 -22  217.48   17.80
   3  -3 -22  213.38   17.80
  -3  -3  22  238.18   19.70
  -3  -3  22  193.98   17.40
   3   3 -22  217.98   17.10
  -3   3  22  213.68   18.50
   3   3 -22  231.98   15.70
   3   3 -22  223.38   19.30
   1  -3 -22  143.29   14.30
  -1  -3  22  157.68   14.20
  -1  -3  22  157.08   10.50
   1  -3 -22  159.58   13.90
  -1   3  22  168.68   16.00
   1   3 -22  184.18   12.30
   1   3 -22  163.88   15.30
  -1   3  22  156.28   15.90
   1   3 -22  161.98   11.30
  -1  -3 -22   38.50    8.70
  -1  -3 -22   37.20    8.80
   1  -3  22   30.90    6.40
   1  -3  22   34.90    4.60
   1  -3  22   47.20    7.80
  -1   3 -22   42.60    8.60
   1   3  22   45.50   11.10
   1   3  22   35.20    8.80
  -1   3 -22   43.60    7.60
   3  -3  22   72.19    8.60
   3  -3  22   88.99   10.40
   3  -3  22   80.09   12.70
  -3  -3 -22   60.69   11.80
  -3   3 -22   83.49   14.30
   3   3  22   77.69   14.00
  -3   3 -22   73.99    9.00
   3   3  22   57.79   17.70
   5  -3  22    5.80    4.90
   5   3  22   -1.40    5.80
   6  -4 -22   -0.10    7.50
  -6   4  22    2.90    7.40
   6   4 -22   -0.30   11.70
   6   4 -22  -13.20    4.80
   6   4 -22  -13.00    5.80
   6   4 -22    0.70    6.90
   4  -4 -22   13.80    5.90
   4  -4 -22    4.30    4.60
   4   4 -22   -1.30    5.00
   4   4 -22    7.50    5.00
  -4   4  22   10.40    6.90
   4   4 -22   16.50    7.60
   4   4 -22   -1.40    4.80
  -2  -4  22   69.59    9.70
  -2  -4  22   65.59   11.80
   2  -4 -22   43.90    9.90
   2  -4 -22   71.39   12.10
   2   4 -22   53.79    7.50
   2   4 -22   87.39   14.60
   2   4 -22   57.49   10.00
  -2   4  22   58.49   12.00
   0  -4 -22   14.00    7.50
   0  -4  22   29.30    6.60
   0  -4  22   31.50    5.30
   0   4  22   33.30    9.10
   0   4 -22   18.80    4.70
   0   4 -22   28.80    7.40
  -2  -4 -22   80.59   13.20
   2  -4  22   90.59    9.40
  -2  -4 -22  113.29   22.90
   2  -4  22   81.49    8.50
   2  -4  22   75.89   10.20
  -2   4 -22   78.59    9.70
   2   4  22   67.99   12.80
  -2   4 -22   83.19    9.50
   4  -4  22   -3.30    4.00
   4  -4  22    3.50    6.00
  -4  -4 -22    9.50    5.20
   4   4  22   -3.50    4.50
  -4   4 -22   -1.50    6.50
  -6  -4 -22    7.80    8.30
   6  -4  22   14.20    7.00
   6   4  22    6.40    8.20
   5  -5 -22   -6.00    5.50
   5  -5 -22    4.20    5.10
   5   5 -22   -5.00    5.20
  -5   5  22   -3.80    6.20
   5   5 -22  -10.20    5.00
   5   5 -22   15.20    5.90
   5   5 -22    2.80    6.50
   3  -5 -22   59.59   11.70
   3  -5 -22   69.99   12.60
   3   5 -22   71.69   13.50
   3   5 -22   63.59    8.40
  -3   5  22   60.69   13.20
   3   5 -22   59.49    8.20
   3   5 -22   51.09   11.20
  -1  -5  22    7.50    5.60
   1  -5 -22    2.60    4.10
   1  -5 -22   10.30    5.10
  -1  -5  22    9.80    4.50
  -1   5  22   18.10    7.00
   1   5 -22   12.70    5.30
   1   5 -22   10.80    4.90
  -1   5  22   -2.90    4.80
   1  -5  22    9.80    4.70
   1  -5  22   17.10    3.90
  -1  -5 -22    4.40    4.40
  -1   5 -22   11.40    3.90
  -1   5 -22   13.40    5.60
   1   5  22   16.90    6.50
   1   5  22    0.30    4.80
  -3  -5 -22   26.20    8.10
   3  -5  22   26.10    6.50
   3  -5  22   22.20    7.80
   3   5  22   43.40   11.30
  -3   5 -22   22.70    6.30
  -5  -5 -22    0.80    7.80
   5  -5  22   13.70    7.10
   5   5  22    3.70    7.10
   4  -6 -22   91.89   14.80
   4   6 -22   78.69   15.20
   4   6 -22   75.49    8.50
   4   6 -22   72.19    9.10
  -4   6  22   54.09   17.30
   4   6 -22   85.29   16.20
   2  -6 -22   42.80   10.60
   2  -6 -22   40.40   10.10
  -2   6  22   18.90    8.60
   2   6 -22   43.20   10.80
   2   6 -22   36.10    8.60
   0  -6 -22   21.90    7.20
   0  -6  22   13.10    4.90
   0   6  22   17.30    8.80
   0   6 -22   10.40    7.10
   0   6  22    1.70    6.90
  -2  -6 -22  119.99   20.10
   2  -6  22  105.19    7.00
   2  -6  22  122.69    9.70
  -2   6 -22   99.49   11.30
   2   6  22   97.29   17.30
  -4  -6 -22   40.20   13.50
   4  -6  22   38.20    8.60
  -3  -7  22    2.60    5.70
   3  -7 -22   -5.40    4.50
   3  -7 -22   -3.70    6.30
   3   7 -22    5.40    6.80
  -3   7  22    0.60    6.60
   3   7 -22  -14.40    5.20
  -1  -7  22   11.70    7.10
   1  -7 -22    1.60    6.40
  -1  -7  22    9.70    6.00
   1   7 -22    4.50    6.70
  -1   7  22    2.80    9.20
   1  -7  22   -3.90    4.30
   1   7  22  -11.80    5.50
  -1   7 -22    6.90    5.50
  -3  -7 -22   -1.00    8.00
   6   0 -23   -8.10    3.70
   6   0 -23   -2.40    4.00
   4   0 -23   -3.70    2.50
   4   0 -23    1.60    3.40
  -4   0  23    5.00    3.60
   4   0 -23    2.60    4.00
  -2   0  23   -5.30    2.70
   2   0 -23   -6.10    2.90
  -2   0  23   -7.40    2.90
   2   0 -23    6.40    3.00
  -2   0  23    1.10    2.60
   2   0 -23   -0.60    2.30
   0   0 -23    7.10    2.90
   0   0  23    8.20    4.00
   0   0  23    9.50    4.10
   0   0 -23   10.60    4.40
   0   0 -23   11.30    4.70
   0   0  23   10.30    3.90
   2   0  23   -0.80    3.10
  -2   0 -23   -5.00    3.40
  -2   0 -23   -0.70    3.00
   2   0  23   -1.30    3.50
   4   0  23    3.10    5.20
   4   0  23    1.00    4.70
  -4   0 -23   -3.70    4.10
   6   0  23    3.90    6.20
   6   0  23   -3.10    6.10
  -6   0 -23   -6.90    5.00
   7  -1 -23   64.39   14.60
   7  -1 -23   46.10   11.80
   7   1 -23   52.49   14.10
   7   1 -23   61.29   14.60
   5  -1 -23   14.00    6.30
   5  -1 -23   13.60    6.60
   5  -1 -23    6.00    7.20
  -5   1  23   14.40    6.00
   5   1 -23   11.90    5.50
   5   1 -23   12.10    5.80
   5   1 -23    4.70    6.00
   3  -1 -23   17.40    6.60
   3  -1 -23   21.10    6.80
   3   1 -23   20.40    6.20
   3   1 -23   27.60    7.60
   3   1 -23   20.10    5.50
  -3   1  23   23.40    6.50
  -1  -1  23  844.32   32.50
   1  -1 -23  882.31   36.00
  -1  -1  23  822.92   25.60
   1  -1 -23  821.72   34.70
   1  -1 -23  862.51   29.50
  -1  -1  23  840.82   21.80
  -1  -1  23  814.32   34.00
  -1   1  23  802.52   31.00
   1   1 -23  858.61   32.80
   1   1 -23  862.01   26.60
  -1   1  23  806.52   34.50
   1   1 -23  888.71   35.70
  -1  -1 -23  293.87   20.60
   1  -1  23  336.67   20.00
   1  -1  23  345.97   20.50
  -1  -1 -23  320.27   15.50
  -1  -1 -23  317.57   14.50
  -1  -1 -23  355.86   22.30
   1   1  23  291.97   20.60
  -1   1 -23  324.47   20.20
   1   1  23  331.27   21.60
  -1   1 -23  272.97   20.20
  -3  -1 -23   70.29   12.20
   3  -1  23   98.09   14.60
  -3  -1 -23   70.19    7.10
   3  -1  23   54.79   10.40
   3   1  23   75.39   13.20
   3   1  23   47.60   12.50
  -3   1 -23   81.79   12.70
  -5  -1 -23  160.78   17.20
   5  -1  23  183.48   15.10
  -5  -1 -23  165.48   12.70
   5  -1  23  177.78   18.60
   5   1  23  141.29   17.60
  -5   1 -23  180.38   16.30
   5   1  23  177.58   20.00
   6  -2 -23   11.70    7.90
   6  -2 -23   22.10    7.50
  -6   2  23   15.80    8.70
   6   2 -23   27.30    9.70
   6   2 -23   32.60   14.70
   6   2 -23   30.70   10.10
   4  -2 -23  140.59   16.00
   4  -2 -23  144.69   17.70
   4  -2 -23  171.98   16.10
   4   2 -23  147.99   13.00
  -4   2  23  142.39   15.00
   4   2 -23  135.79   15.00
   4   2 -23  139.49   14.50
   4   2 -23  121.59   15.30
   2  -2 -23    7.00    4.10
  -2  -2  23   12.10    4.60
   2  -2 -23   11.80    5.20
   2   2 -23    4.40    3.50
   2   2 -23   13.00    5.80
   2   2 -23   16.00    4.90
  -2   2  23    4.70    4.80
   0  -2  23   -0.60    3.00
   0  -2 -23   -4.40    2.50
   0  -2  23    0.40    3.10
   0  -2 -23    1.70    3.00
   0   2  23   13.00    5.40
   0   2 -23   -2.90    3.30
   0   2  23    0.70    3.10
   0   2 -23   -3.70    2.70
   0   2  23    4.60    4.60
   2  -2  23    0.70    3.90
   2  -2  23    3.50    3.90
  -2  -2 -23    6.40    3.60
   2  -2  23    6.60    3.40
  -2  -2 -23    3.60    3.30
  -2   2 -23    1.90    3.60
   2   2  23   -2.10    2.60
  -4  -2 -23   -4.40    3.60
   4  -2  23    2.10    3.90
   4  -2  23    4.40    4.50
   4  -2  23   -3.20    4.20
   4   2  23    3.20    5.60
  -4   2 -23   -3.20    3.60
   6  -2  23   22.80    9.10
  -6  -2 -23   23.10    8.70
  -6  -2 -23   12.70    7.20
   6  -2  23   18.10    7.00
   6   2  23    2.10    9.20
  -6   2 -23   15.00    7.80
   6   2  23   23.80   11.30
   7  -3 -23   -3.20    5.40
   7  -3 -23   -2.40    6.60
  -7   3  23   -2.00    6.70
   7   3 -23    5.00    7.90
   7   3 -23   -1.10    5.80
   7   3 -23    3.70    7.50
   5  -3 -23    7.40    6.50
   5  -3 -23    5.20    5.50
   5   3 -23   -6.30    4.60
   5   3 -23   10.30    4.90
  -5   3  23   -3.60    4.50
   5   3 -23    0.30    5.20
   3  -3 -23   20.80    7.20
  -3  -3  23   17.00    6.90
   3  -3 -23   15.10    6.20
   3   3 -23   12.40    6.60
   3   3 -23   23.60    6.10
  -3   3  23    7.80    5.10
   3   3 -23   14.40    6.10
   1  -3 -23   19.10    6.50
  -1  -3  23   30.90    5.30
   1  -3 -23   31.00    7.20
  -1  -3  23   26.00    8.00
   1   3 -23   18.70    5.10
  -1   3  23   22.00    7.30
   1   3 -23   18.60    5.60
   1   3 -23   25.60    7.40
  -1   3  23   28.60    9.10
   1  -3  23   74.79    8.80
  -1  -3 -23   66.59   11.80
  -1  -3 -23   69.19   11.30
   1  -3  23   64.89    5.20
  -1   3 -23   81.59   11.00
   1   3  23   73.89   13.20
  -1   3 -23   65.69   10.80
   3  -3  23  207.68   16.50
   3  -3  23  197.28   15.20
  -3  -3 -23  197.78   19.10
   3  -3  23  197.68   14.40
   3   3  23  237.38   20.80
  -3   3 -23  190.28   14.50
  -3   3 -23  181.98   16.30
   5  -3  23   96.09   15.50
  -5  -3 -23   72.39   14.50
  -5   3 -23   70.09   10.00
   5   3  23   69.69   14.80
   6  -4 -23   22.90    8.90
   6   4 -23    3.80    8.80
   6   4 -23   18.40    8.20
   6   4 -23    3.70    8.20
  -6   4  23   17.50   10.60
   6   4 -23   -0.10    5.50
   4  -4 -23  116.49   17.80
   4  -4 -23   86.49   14.40
   4   4 -23  131.19   12.50
  -4   4  23  123.59   15.90
   4   4 -23  115.09   18.80
   2  -4 -23    2.10    7.00
   2  -4 -23    2.10    2.90
  -2  -4  23    6.30    3.60
   2   4 -23    1.10    3.40
   2   4 -23    9.70    4.70
  -2   4  23    0.80    3.70
   2   4 -23    0.60    4.20
   0  -4 -23  245.58   20.10
   0  -4  23  261.47   13.60
   0  -4  23  223.68   16.80
   0   4 -23  252.57   13.80
   0   4  23  231.28   21.00
   0   4 -23  250.37   18.50
   0   4  23  270.17   21.70
   2  -4  23   31.70    6.00
  -2  -4 -23   46.30   11.50
  -2  -4 -23   26.40   10.40
   2  -4  23   22.60    6.50
   2  -4  23   26.90    6.40
  -2   4 -23   33.90    7.60
  -2   4 -23   24.90    6.30
   2   4  23   45.70   11.40
  -4  -4 -23  207.58   21.20
   4  -4  23  190.38   17.80
   4  -4  23  222.58   17.60
  -4   4 -23  215.58   14.30
   4   4  23  263.67   23.90
   5  -5 -23   11.70   10.00
   5   5 -23   23.10    8.20
  -5   5  23   46.90   16.00
   5   5 -23   23.70    8.90
   5   5 -23   26.40    5.30
   5   5 -23   18.20    9.40
   3  -5 -23  211.78   19.90
   3  -5 -23  179.58   17.60
  -3   5  23  196.48   20.80
   3   5 -23  168.58   12.10
   3   5 -23  165.88   16.70
   3   5 -23  173.18   19.10
   3   5 -23  176.68   12.00
   1  -5 -23   16.70    6.70
  -1  -5  23   32.20    6.70
  -1  -5  23   16.00    6.00
   1  -5 -23   30.10    9.00
   1   5 -23   27.30    6.50
   1   5 -23   20.10    3.70
   1   5 -23   18.30    7.20
  -1   5  23   23.50    8.80
  -1   5  23   27.30    8.10
   1  -5  23   32.50    5.50
  -1  -5 -23   17.10    7.10
   1  -5  23   29.80    6.90
   1   5  23   29.40    9.80
  -1   5 -23   43.10    8.70
   1   5  23   17.70    7.00
   3  -5  23   65.99   10.30
  -3  -5 -23   69.99   14.40
   3  -5  23   79.19   12.10
  -3   5 -23   62.19   10.50
   3   5  23   79.99   16.20
  -3   5 -23   84.99    9.60
  -5  -5 -23   27.30   10.40
   5  -5  23   12.80    6.00
   5   5  23   26.20    9.90
   4  -6 -23    2.80    6.70
   4  -6 -23    5.70    6.10
  -4   6  23   16.70   14.70
   4   6 -23   -6.90    4.00
   4   6 -23   11.90    8.60
   4   6 -23   -6.80    5.10
   4   6 -23   -8.10    5.40
   2  -6 -23    7.20    6.00
   2  -6 -23    5.70    5.90
  -2  -6  23   13.80    8.50
   2   6 -23   24.00    8.10
   2   6 -23   13.70    6.40
  -2   6  23   10.10    7.30
   0  -6 -23    1.70    5.30
   0  -6  23    3.90    4.40
   0  -6  23    1.20    4.90
   0   6  23   10.20    6.40
   0   6 -23    2.10    4.80
   0   6  23   -4.50    6.60
   2  -6  23   15.60    4.30
  -2  -6 -23    5.40    7.00
   2  -6  23    2.00    4.60
   2  -6  23    8.70    3.60
   2   6  23   14.50    7.20
  -2   6 -23    5.80    5.80
  -4  -6 -23   19.70   11.20
   4  -6  23   14.30    6.10
   4   6  23    1.80    7.80
   3  -7 -23   20.10    7.30
   3  -7 -23   26.80   10.40
  -3  -7  23   31.90   11.50
   3   7 -23    8.50    8.30
   3   7 -23   16.70    8.80
  -3   7  23   30.30   12.10
  -1  -7  23   16.60    7.10
  -1  -7  23    0.20    5.20
  -1  -7  23    0.20    7.50
   1  -7 -23   11.30    9.10
   1   7 -23   13.50    7.50
  -1  -7 -23   17.10    8.20
   1  -7  23   14.70    6.00
   1  -7  23    5.20    5.70
   1  -7  23   18.70    5.30
   1   7  23   20.70    8.00
  -1   7 -23   19.40    7.70
   1   7  23   -3.60    7.50
   6   0 -24   -2.70    4.30
   6   0 -24   -3.70    4.70
  -4   0  24   34.50    7.50
   4   0 -24   34.80    8.50
   4   0 -24   21.60    7.20
   4   0 -24   24.60    8.40
   2   0 -24    8.60    4.90
  -2   0  24    6.10    3.90
   2   0 -24   22.10    6.20
  -2   0  24   26.60    7.40
   2   0 -24   11.10    4.20
   0   0 -24   21.50    4.40
   0   0 -24   20.10    6.60
   0   0  24   38.30    6.70
   0   0  24   30.40    7.20
   0   0 -24   11.80    5.90
   0   0  24   13.70    6.10
   2   0  24   14.40    5.20
   2   0  24    9.60    4.80
   4   0  24  164.58   16.50
   4   0  24  208.68   19.00
  -4   0 -24  209.48   17.90
  -6   0 -24   17.60    8.10
   6   0  24   22.50    8.40
   6   0  24    9.50   13.80
   7  -1 -24   12.10    7.40
   7  -1 -24   17.00    8.80
   7   1 -24   15.50    9.30
   7   1 -24   20.30    9.30
   7   1 -24   12.20   13.10
   5  -1 -24   14.00    7.50
   5  -1 -24   16.50    7.30
  -5   1  24   20.40    6.80
   5   1 -24   12.50    6.80
   5   1 -24   30.60    7.80
   5   1 -24    4.00    5.20
   3  -1 -24   31.40    7.60
  -3  -1  24   35.10    7.80
   3  -1 -24   36.40    8.50
  -3   1  24   38.90    8.40
   3   1 -24   38.40    9.00
   3   1 -24   36.50    9.90
   3   1 -24   44.20    9.10
   1  -1 -24  178.68   16.10
   1  -1 -24  224.78   18.00
  -1  -1  24  212.48   10.00
  -1  -1  24  202.88   15.90
  -1  -1  24  193.98   16.30
   1  -1 -24  204.28   13.80
  -1   1  24  196.78   17.20
  -1   1  24  203.08   15.00
   1   1 -24  203.18   12.40
   1   1 -24  205.38   17.20
  -1   1  24  206.38   17.10
  -1  -1 -24   53.79    7.40
   1  -1  24   72.59   11.50
   1  -1  24   66.59   11.20
  -1  -1 -24   49.40    7.70
  -1  -1 -24   65.09   11.90
   1   1  24   74.19   13.90
  -1   1 -24   82.39   12.60
   1   1  24   50.79   10.70
  -1   1 -24   52.39   11.60
   3  -1  24    8.50    4.30
  -3  -1 -24   -2.70    2.90
  -3  -1 -24   -4.30    3.20
   3  -1  24   -2.10    3.70
  -3   1 -24    9.50    4.80
   3   1  24    4.60    4.90
   3   1  24   -0.10    5.30
  -5  -1 -24   26.60    6.20
   5  -1  24   14.10    7.30
   5  -1  24    2.90    5.80
  -5  -1 -24   18.10    7.90
  -5   1 -24   15.70    6.90
   5   1  24   19.80    8.70
   5   1  24   28.40    9.40
   6  -2 -24   -4.60    3.90
   6  -2 -24    4.90    6.30
   6   2 -24   -5.50    6.90
  -6   2  24    3.60    5.90
   6   2 -24   -9.30    5.20
   6   2 -24   -7.30    5.30
   4  -2 -24   18.10    7.10
   4  -2 -24    8.00    5.00
  -4   2  24   -1.40    3.90
   4   2 -24   20.70    6.30
   4   2 -24    7.50    5.10
   2  -2 -24   14.40    5.20
  -2  -2  24   13.10    4.50
   2  -2 -24    8.50    4.80
   2   2 -24   13.70    4.60
   2   2 -24   18.10    6.20
   2   2 -24    9.60    4.80
  -2   2  24   16.50    6.30
   0  -2  24  188.58   14.40
   0  -2 -24  170.08   12.90
   0  -2  24  163.68   14.60
   0  -2 -24  173.38   16.20
   0   2 -24  186.38   14.30
   0   2  24  180.68   16.10
   0   2  24  183.78   16.60
   0   2  24  173.08   16.70
   0   2 -24  186.28   15.60
   2  -2  24   78.39   11.70
  -2  -2 -24   88.79   14.30
   2  -2  24   71.79    8.30
   2  -2  24   77.79    9.80
  -2  -2 -24   81.49    9.20
  -2   2 -24   75.89   11.60
   2   2  24   88.09   15.20
   2   2  24   64.49   19.70
  -4  -2 -24    8.40    5.30
   4  -2  24    6.10    5.40
  -4  -2 -24   10.80    6.80
   4  -2  24   23.50    6.20
   4   2  24   12.70    6.40
  -4   2 -24    2.30    5.20
   4   2  24   12.40    7.60
  -6  -2 -24    9.60    8.70
  -6  -2 -24    6.80    9.00
   6  -2  24   19.00   10.00
  -6   2 -24   11.10    7.40
   6   2  24   19.70    9.20
   5  -3 -24   32.00    9.60
   5  -3 -24   28.90   10.10
   5   3 -24   35.20   10.00
  -5   3  24   31.90   10.20
   5   3 -24   12.80    7.30
   5   3 -24   19.00    5.70
  -3  -3  24  432.76   23.50
   3  -3 -24  477.05   27.90
   3   3 -24  445.56   23.20
  -3   3  24  450.05   27.80
   3   3 -24  464.75   25.10
   3   3 -24  445.86   28.40
  -1  -3  24  342.17   15.40
  -1  -3  24  297.37   20.60
   1  -3 -24  364.36   21.30
   1  -3 -24  359.06   24.30
   1   3 -24  328.87   18.10
  -1   3  24  355.16   24.20
   1   3 -24  341.87   22.40
   1   3 -24  349.37   16.60
  -1  -3 -24  471.45   28.10
   1  -3  24  445.46   13.50
  -1  -3 -24  416.76   23.70
   1  -3  24  431.06   22.60
   1  -3  24  418.76   21.20
  -1   3 -24  408.66   21.20
   1   3  24  476.35   28.50
  -1   3 -24  436.36   23.60
  -3  -3 -24  290.47   20.00
   3  -3  24  280.27   18.10
   3  -3  24  247.48   18.30
  -3  -3 -24  284.77   22.80
   3   3  24  281.97   23.60
  -3   3 -24  268.97   17.60
  -3   3 -24  281.87   19.80
   5  -3  24  115.99   10.40
  -5  -3 -24  120.79   18.70
   5  -3  24  126.99   15.90
   5   3  24  111.59   29.80
  -5   3 -24  129.49   13.20
   6  -4 -24    8.40    7.70
   6  -4 -24    7.90    6.30
   6   4 -24   16.20    7.30
   4  -4 -24  117.39   18.00
   4  -4 -24   95.79   15.60
   4   4 -24   92.49   15.30
   4   4 -24   95.29   15.90
  -4   4  24  127.49   15.90
   4   4 -24  100.59   14.10
  -2  -4  24   25.30    8.00
   2  -4 -24   22.50    7.40
   2  -4 -24   17.60    6.60
  -2  -4  24   27.40    6.70
   2   4 -24   27.10    5.60
   2   4 -24   20.30    7.70
   2   4 -24   32.10    7.20
   0  -4 -24   -1.30    2.70
   0  -4  24    7.00    3.10
   0  -4  24    5.20    3.70
   0   4  24   -2.70    4.60
   0   4 -24    5.20    5.30
   0   4 -24   14.00    4.00
   2  -4  24   11.30    4.70
   2  -4  24   11.50    5.60
   2  -4  24   14.00    4.90
  -2  -4 -24   30.10    8.60
  -2   4 -24   18.60    6.20
  -2   4 -24    8.00    5.10
   2   4  24   11.70    5.60
   4  -4  24    4.90    5.20
   4  -4  24    4.40    6.10
  -4  -4 -24    9.40    6.80
   4   4  24   10.00    7.70
   5  -5 -24   45.60   12.80
   5   5 -24   59.79   14.90
  -5   5  24   63.39   17.90
   5   5 -24   35.50   10.60
   5   5 -24   51.69   14.30
   5   5 -24   58.49   11.10
   3  -5 -24    6.40    5.40
   3  -5 -24   11.40    5.70
   3   5 -24    9.40    6.30
   3   5 -24    4.30    6.20
   3   5 -24    9.50    4.60
  -3   5  24    1.40    5.20
   1  -5 -24   69.79   13.00
  -1  -5  24   72.59    9.00
  -1  -5  24   63.79   11.80
   1  -5 -24   71.09   12.60
   1   5 -24   60.09    6.40
  -1   5  24   54.19   12.30
   1   5 -24   83.99   13.50
  -1   5  24   77.59   14.10
   1  -5  24  149.69   13.40
   1  -5  24  152.58   10.30
  -1  -5 -24  175.78   17.70
   1   5  24  169.28   19.40
  -1   5 -24  147.09   10.40
   1   5  24  153.98   18.10
  -1   5 -24  181.68   15.60
  -3  -5 -24   19.60    9.50
   3  -5  24    9.20    6.80
   3  -5  24   19.50    6.00
   3   5  24   12.00    9.30
  -3   5 -24   -2.10    5.40
  -3   5 -24   10.70    7.10
   4  -6 -24    7.30    6.90
   4  -6 -24    2.70    6.20
   4   6 -24    0.70    6.00
  -4   6  24    2.60    8.50
   4   6 -24    5.10    4.70
   4   6 -24    4.50    7.50
   2  -6 -24   13.00    7.00
  -2  -6  24   15.50   10.10
   2  -6 -24   21.00    7.70
  -2   6  24   13.40    8.90
   2   6 -24   12.90    7.50
   2   6 -24   25.20    8.70
   0  -6  24   69.99   11.50
   0  -6 -24   30.80    9.70
   0  -6  24   63.09    8.60
   0   6  24   50.99   13.50
   0   6  24   65.19   14.80
  -2  -6 -24    0.60    4.00
   2  -6  24   -1.50    2.80
   2  -6  24   -0.10    3.70
   2   6  24    8.60    7.70
  -2   6 -24   -4.80    4.50
  -4  -6 -24   40.60   13.20
   4  -6  24   35.00    7.90
   4   6  24   28.40   11.50
  -3  -7  24    4.00    7.10
   3  -7 -24   -1.70    5.20
   3  -7 -24    3.30    7.60
   3   7 -24   10.90    7.00
   3   7 -24   -4.80    7.30
  -3   7  24    4.60    8.40
   1  -7 -24   -8.80    5.60
  -1  -7  24   -7.00   10.20
  -1  -7  24    4.70    5.60
  -1   7  24   -1.60    5.30
   1   7 -24    0.40    6.30
  -1  -7 -24   -0.30    5.50
   1  -7  24   -2.30    4.30
  -1   7 -24   10.60    7.80
   1   7  24   -2.10    9.00
   6   0 -25    7.00    6.30
   6   0 -25   -1.40    4.80
   4   0 -25   -1.70    2.70
   4   0 -25   -0.50    4.50
  -4   0  25    1.80    3.60
   4   0 -25    3.20    4.60
  -2   0  25    2.40    3.40
  -2   0  25    1.90    2.80
   2   0 -25   -0.20    4.60
   2   0 -25    0.10    3.10
   0   0  25   -0.20    3.80
   0   0  25    6.90    4.00
   0   0 -25    8.80    3.20
   0   0 -25    4.20    4.20
   0   0  25    3.00    4.40
   0   0 -25   11.80    5.60
  -2   0 -25   -2.00    3.20
   2   0  25   -4.50    3.90
   2   0  25    5.00    4.00
   4   0  25   -2.90    4.40
   4   0  25   -4.20    5.30
  -4   0 -25    1.20    4.90
  -6   0 -25   10.60    6.50
   7  -1 -25   37.80   11.10
   7  -1 -25   53.39   12.30
   7   1 -25   40.00   12.60
   7   1 -25   36.90   11.90
   5  -1 -25  512.45   30.70
   5  -1 -25  466.15   30.20
   5   1 -25  466.75   30.70
   5   1 -25  429.76   28.40
  -5   1  25  436.06   25.70
   5   1 -25  430.06   23.80
   3  -1 -25  191.38   18.40
   3  -1 -25  191.98   16.30
   3   1 -25  221.18   19.20
  -3   1  25  217.48   16.00
   3   1 -25  184.98   15.50
   1  -1 -25   35.80    9.00
  -1  -1  25   35.30    4.70
   1  -1 -25   35.30    6.90
  -1  -1  25   35.80    8.30
  -1  -1  25   48.60   14.00
  -1   1  25   39.50    9.40
   1   1 -25   27.10    9.00
   1   1 -25   35.90    6.30
  -1   1  25   25.70    7.40
  -1   1  25   32.20    7.60
  -1  -1 -25 1321.37   47.50
   1  -1  25 1349.96   45.00
   1  -1  25 1318.07   45.10
  -1  -1 -25 1366.66   35.90
  -1  -1 -25 1285.67   34.00
  -1   1 -25 1279.37   44.70
   1   1  25 1296.27   47.30
  -1   1 -25 1304.17   44.10
   3  -1  25  439.06   25.40
  -3  -1 -25  488.85   19.00
  -3  -1 -25  467.35   27.70
   3  -1  25  465.65   27.30
  -3   1 -25  424.46   29.20
   3   1  25  498.15   29.70
   3   1  25  456.45   27.30
  -5  -1 -25   86.59   15.30
   5  -1  25   96.89   17.00
  -5  -1 -25  103.99   10.30
   5   1  25   78.89   14.90
   5   1  25   69.79   15.80
  -5   1 -25   97.59   14.60
   6  -2 -25    8.40    8.20
   6  -2 -25   18.10    8.60
   6   2 -25   19.00    8.30
  -6   2  25   22.20    8.00
   4  -2 -25   55.59   10.90
   4  -2 -25   54.79   11.00
  -4   2  25   59.39   11.20
   4   2 -25   56.39   11.40
   4   2 -25   60.79   12.30
  -2  -2  25   -0.10    2.80
   2  -2 -25   -2.70    2.70
  -2  -2  25    1.40    4.20
   2  -2 -25   -1.10    3.50
   2   2 -25    5.20    3.20
  -2   2  25    0.30    3.70
   2   2 -25    1.70    3.40
   0  -2 -25    3.90    4.20
   0  -2  25   10.50    5.10
   0  -2 -25    6.60    4.30
   0  -2  25   16.20    5.80
   0   2 -25    4.00    4.50
   0   2  25   13.30    6.10
   0   2  25   12.40    5.50
   0   2 -25   -3.40    3.40
   2  -2  25   83.99   12.60
   2  -2  25  106.39    9.70
  -2  -2 -25  120.59   14.50
  -2  -2 -25  116.79   10.70
   2  -2  25  127.19   12.40
   2   2  25   97.19   15.10
   2   2  25   83.19   13.80
  -2   2 -25  104.29   11.70
  -2   2 -25  105.79   12.50
   4  -2  25   17.10    6.70
  -4  -2 -25   18.50    6.70
   4  -2  25   37.60    7.90
  -4  -2 -25   19.00    7.30
   4  -2  25   30.50    8.30
   4   2  25   16.80    7.20
   4   2  25   17.50    9.00
  -4   2 -25   12.20    5.80
   6  -2  25   10.70    8.50
   6   2  25  -10.90    9.00
  -6   2 -25    0.50    7.90
   5  -3 -25   44.20   11.60
   5  -3 -25   34.50   10.90
   5   3 -25   27.90   10.00
   5   3 -25   47.40    7.20
   5   3 -25   40.20   10.40
  -5   3  25   46.00   11.50
  -3  -3  25   15.10    5.00
   3  -3 -25    5.40    4.20
   3  -3 -25   -1.20    4.20
   3   3 -25   12.20    5.50
  -3   3  25    9.20    5.40
   3   3 -25   -4.00    4.80
  -1  -3  25    5.90    4.70
   1  -3 -25    1.70    4.00
   1  -3 -25    1.60    3.80
  -1  -3  25    9.10    3.70
  -1   3  25    7.20    6.20
   1   3 -25   14.60    6.40
   1   3 -25    5.30    4.30
   1   3 -25   15.70    4.30
  -1   3  25   -6.40    3.90
   1  -3  25  395.96   20.90
  -1  -3 -25  358.66   25.00
   1  -3  25  367.06   11.70
   1  -3  25  347.07   20.60
  -1   3 -25  391.96   22.80
  -1   3 -25  369.36   20.50
   1   3  25  335.27   24.30
   3  -3  25    4.80    4.10
   3  -3  25    3.70    4.90
   3  -3  25    6.00    5.20
  -3  -3 -25   11.20    7.10
  -3   3 -25    4.70    6.10
   3   3  25   14.30    7.20
  -3   3 -25    0.70    4.60
  -5  -3 -25   65.39   14.10
   5  -3  25   53.89   11.90
   5  -3  25   57.59    8.90
  -5   3 -25   24.50    9.00
   6  -4 -25   29.60   10.90
   6  -4 -25    9.00    8.00
   6   4 -25   18.90    8.70
  -6   4  25    5.30   10.50
   6   4 -25   27.40   11.60
   6   4 -25   27.40   10.70
   4  -4 -25   47.50   11.80
   4  -4 -25   38.20   10.40
   4   4 -25   55.39   12.90
   4   4 -25   32.30    9.10
   4   4 -25   56.49   11.10
  -4   4  25   42.40   11.00
   2  -4 -25    3.40    3.70
  -2  -4  25    2.30    3.90
   2  -4 -25    2.20    4.00
  -2  -4  25   -1.10    3.60
   2   4 -25    4.60    4.90
   2   4 -25   -4.70    4.00
  -2   4  25   -5.20    3.40
   2   4 -25    0.00    3.60
   0  -4 -25   15.70    6.00
   0  -4  25   29.80    7.90
   0  -4 -25   16.60    6.80
   0   4  25   19.10    7.70
   0   4 -25   17.70    5.40
   0   4  25   16.60    6.90
   0   4 -25   16.50    6.90
   2  -4  25   11.90    5.10
   2  -4  25   15.90    5.30
  -2  -4 -25   12.10    5.60
   2  -4  25   27.00    6.40
   2   4  25   10.50    7.20
  -2   4 -25    8.40    5.00
  -2   4 -25   12.70    5.70
   4  -4  25   18.00    6.10
  -4  -4 -25   16.40    7.80
   4  -4  25    4.70    6.90
   4   4  25   11.80   12.20
  -4   4 -25    6.10    5.30
   5  -5 -25   -4.50    6.00
   5  -5 -25    2.80    6.70
   5   5 -25    1.30    9.40
   5   5 -25   -4.60    6.40
   5   5 -25   -4.60    5.80
   5   5 -25   -1.10    5.40
   3  -5 -25  161.28   17.50
   3  -5 -25  154.88   18.40
   3   5 -25  122.89   15.30
   3   5 -25  138.59   30.20
  -3   5  25  152.38   17.70
   3   5 -25  133.09   11.30
   1  -5 -25  159.88   17.70
  -1  -5  25  133.89   15.50
  -1  -5  25  158.08   12.10
   1  -5 -25  127.59   15.00
   1   5 -25  132.79   15.40
  -1   5  25  119.99   19.10
   1   5 -25  140.39    9.20
  -1   5  25  130.79   16.20
  -1  -5 -25    9.00    5.00
   1  -5  25   -1.10    3.10
   1  -5  25   -0.60    3.80
  -1   5 -25    9.20    5.50
  -1   5 -25   -0.80    3.50
   1   5  25    6.30    5.40
   1   5  25   -4.20    5.10
   3  -5  25   -1.00    5.80
   3  -5  25   15.20    4.50
  -3  -5 -25    9.30    7.20
   3  -5  25    6.70    5.00
  -3   5 -25    9.80    6.40
   3   5  25   -7.40    5.00
  -3   5 -25    2.50    5.00
   4  -6 -25   33.00   10.90
   4  -6 -25   32.10   10.60
   4   6 -25   29.60    6.70
  -4   6  25   38.30   12.70
   4   6 -25   33.00   11.00
   4   6 -25   49.80   12.30
   2  -6 -25    6.70    7.10
  -2  -6  25   23.00    7.10
  -2   6  25    3.50    7.30
   2   6 -25    6.90    6.30
   2   6 -25    5.60    7.30
   0  -6 -25   57.29   13.20
   0  -6  25   34.40    8.00
   0   6  25   36.50   11.90
   0   6 -25   26.80    8.80
   0   6  25   43.10   11.60
   2  -6  25    9.50    3.60
  -2  -6 -25    2.10    7.20
   2   6  25   -0.60    5.70
  -2   6 -25   17.10    6.40
   1  -7 -25   38.90   11.00
   1  -7 -25   48.60   12.50
  -1  -7  25   40.80   10.50
  -1   7  25   24.60   10.70
   1   7 -25   38.00   10.10
  -1  -7 -25   68.89   16.20
   1  -7  25   71.39   10.60
   1   7  25   67.09   17.50
  -1   7 -25   33.80   10.90
   1   7  25   86.39   20.30
   6   0 -26   49.80   12.80
   6   0 -26   58.99   13.50
  -4   0  26  218.88   15.70
   4   0 -26  225.68   20.00
   4   0 -26  246.08   20.20
  -2   0  26   98.89    9.30
   2   0 -26  113.59   11.00
   2   0 -26   97.19   12.30
   0   0  26   18.70    8.10
   0   0 -26   11.40    6.60
   0   0 -26   15.90    4.00
   0   0  26   14.90    5.20
   0   0 -26   10.50    5.50
   0   0  26   12.30    5.00
  -2   0 -26   40.50    9.80
   2   0  26   23.50    7.00
   2   0  26   36.50    9.90
  -4   0 -26   98.69   15.20
   4   0  26  119.69   14.20
   4   0  26  120.59   18.00
  -6   0 -26   19.10    8.90
   6   0  26    8.60    7.60
   7  -1 -26    0.50    6.80
   7  -1 -26   14.30    8.80
   7   1 -26   13.90    9.30
   7   1 -26   10.90    8.70
   5  -1 -26   46.90   11.10
   5  -1 -26   74.69   14.70
   5   1 -26   78.09   14.70
   5   1 -26   91.69   12.30
   5   1 -26   61.99   13.00
  -5   1  26   68.79   12.50
   3  -1 -26   25.90    7.90
  -3  -1  26   26.10    6.40
   3  -1 -26   27.50    8.10
  -3   1  26   21.30    6.50
   3   1 -26   16.30    7.20
   3   1 -26   21.70    6.80
   1  -1 -26  221.08   15.00
  -1  -1  26  209.08   21.30
  -1  -1  26  233.98   17.40
  -1  -1  26  244.48   10.90
   1  -1 -26  232.78   19.40
   1   1 -26  232.58   17.70
  -1   1  26  239.38   19.50
   1   1 -26  248.38   14.00
  -1   1  26  232.98   16.80
   1   1 -26  257.17   19.80
  -1  -1 -26  219.48   12.40
   1  -1  26  223.48   17.30
  -1  -1 -26  219.68   13.10
  -1  -1 -26  200.98   18.10
   1  -1  26  214.58   17.90
   1   1  26  208.08   18.10
  -1   1 -26  232.58   18.70
  -1   1 -26  233.68   18.00
   1   1  26  198.78   23.60
   3  -1  26  224.78   19.10
  -3  -1 -26  273.67   21.90
  -3   1 -26  283.37   20.10
   3   1  26  249.88   21.40
   5  -1  26   44.70   10.80
  -5  -1 -26   59.29   12.50
   5  -1  26   46.40   12.10
   5   1  26   60.39   13.50
  -5   1 -26   38.50   11.50
   6  -2 -26    6.00    8.10
   6  -2 -26    8.70    8.50
   6   2 -26    7.30    8.40
  -6   2  26   13.90    5.90
   6   2 -26   11.40    8.50
   4  -2 -26  112.99   14.00
   4  -2 -26   86.09   14.70
   4   2 -26   81.39   13.00
   4   2 -26   90.29   14.90
  -4   2  26   89.49   14.10
  -2  -2  26   40.50   10.50
  -2  -2  26   66.29    9.40
   2  -2 -26   66.59   11.20
   2  -2 -26   63.69   11.30
   2   2 -26   64.89    9.90
  -2   2  26   55.99   10.60
   2   2 -26   47.70   10.70
   0  -2 -26    3.60    3.60
   0  -2 -26    9.50    4.10
   0  -2  26   12.30    4.70
   0  -2  26    4.90    4.40
   0   2 -26    2.00    4.00
   0   2  26    6.60    4.60
   2  -2  26    5.00    5.30
  -2  -2 -26   17.00    7.10
  -2  -2 -26    5.20    4.30
   2  -2  26    0.90    4.70
   2  -2  26   12.40    4.30
   2   2  26    7.10    7.30
   2   2  26    9.70    5.60
  -2   2 -26    8.70    5.80
  -2   2 -26    2.10    4.60
  -4  -2 -26    2.10    4.60
   4  -2  26    6.00    4.90
  -4  -2 -26    3.20    4.30
   4  -2  26    3.80    4.30
  -4   2 -26    3.60    5.70
   4   2  26   10.00    5.70
  -6  -2 -26    6.50    7.40
   6  -2  26    0.20    7.90
   6   2  26    0.10    7.30
   5  -3 -26  167.38   18.70
   5  -3 -26  157.68   19.50
  -5   3  26  182.18   19.10
   5   3 -26  153.78   17.10
   3  -3 -26   39.80    9.40
   3  -3 -26   51.49   11.60
  -3  -3  26   28.10    7.50
   3   3 -26   61.99   10.90
  -3   3  26   55.69   11.40
   3   3 -26   47.20   11.60
  -1  -3  26  334.07   22.60
  -1  -3  26  327.37   14.80
   1  -3 -26  348.97   21.60
   1  -3 -26  371.36   25.40
  -1   3  26  322.27   23.50
  -1   3  26  347.37   23.70
   1   3 -26  316.37   15.70
   1   3 -26  342.07   23.20
   1   3 -26  332.67   18.90
  -1  -3 -26   81.39   19.80
   1  -3  26   68.69   10.50
   1  -3  26   76.99   12.10
  -1  -3 -26   61.19   10.70
  -1   3 -26   60.29   10.60
   1   3  26   80.39   14.90
   3  -3  26  120.59   12.80
   3  -3  26  118.89   12.80
  -3  -3 -26  134.39   16.30
   3  -3  26  126.09   13.20
   3   3  26  148.39   17.40
  -3   3 -26  133.09   13.70
   5  -3  26  211.18   21.30
  -5  -3 -26  223.98   23.20
  -5   3 -26  181.08   17.10
   5   3  26  241.08   24.90
   4  -4 -26   20.80    9.00
   4  -4 -26   18.40    7.50
  -4   4  26   13.00    6.70
   4   4 -26   14.90    6.50
   4   4 -26   20.20    8.80
   4   4 -26   46.80   11.20
  -2  -4  26   -5.50    3.70
   2  -4 -26   15.60    7.00
  -2  -4  26    8.00    5.80
   2  -4 -26    0.90    4.30
   2   4 -26   -2.40    4.70
   2   4 -26    5.70    4.10
  -2   4  26   -7.50    4.10
   2   4 -26    7.30    4.10
   0  -4 -26   50.49   10.20
   0  -4 -26   38.00    9.60
   0  -4  26   47.20    9.10
   0  -4  26   70.99    7.80
   0   4 -26   49.70    9.40
   0   4 -26   50.69    8.40
   0   4  26   49.99   11.40
   0   4  26   48.50   12.20
  -2  -4 -26   11.50    5.60
   2  -4  26    4.90    4.10
   2  -4  26    5.80    4.70
  -2   4 -26    3.10    5.30
  -2   4 -26    2.90    5.40
   2   4  26   17.40    7.10
   4  -4  26   -0.60    6.60
   4  -4  26   12.10    6.00
  -4  -4 -26   -5.60    6.20
   4  -4  26   -1.50    3.90
  -4   4 -26    0.50    5.70
   4   4  26    0.40    9.80
   5  -5 -26  212.28   20.40
   5  -5 -26  170.78   21.40
   5   5 -26  194.38   16.50
   5   5 -26  160.08   31.50
  -5   5  26  171.58   28.40
   5   5 -26  170.68   20.50
   3  -5 -26   37.20   10.70
   3  -5 -26    8.60    7.40
  -3   5  26    4.20    7.70
   3   5 -26   19.40    7.60
   3   5 -26   21.70    5.90
   3   5 -26   10.30    5.90
   3   5 -26    5.70    7.70
  -1  -5  26   41.10   11.10
  -1  -5  26   48.50    8.00
   1  -5 -26   43.90   11.50
   1  -5 -26   36.00    9.30
   1   5 -26   38.10   10.30
  -1   5  26   18.80    8.90
  -1   5  26   28.60    9.90
   1  -5  26   75.39    8.20
   1  -5  26   35.70    8.50
  -1  -5 -26   56.99   13.70
  -1   5 -26   65.69    8.60
   1   5  26   56.69   13.60
   1   5  26   92.09   18.10
  -1   5 -26   57.79   11.30
  -3  -5 -26   52.99   13.30
   3  -5  26   38.90    8.80
   3  -5  26   57.69    9.60
  -3   5 -26   45.70    9.80
   3   5  26   66.79   14.30
   4  -6 -26    1.70    5.50
   4  -6 -26   -3.50    5.10
  -4   6  26    7.00    8.90
   4   6 -26   -0.10    6.80
   4   6 -26    2.90    8.70
   4   6 -26   -6.60    7.90
  -2  -6  26   12.50    9.30
   2  -6 -26   20.10    8.00
  -2   6  26   29.90   14.30
   2   6 -26   25.20    8.20
   2   6 -26   34.30    9.70
   0  -6  26   17.60    7.90
   0  -6 -26    8.70   10.00
   0   6  26   10.20    9.30
   0   6  26   18.10    7.70
   0   6 -26   26.00    8.90
   2  -6  26    1.00    3.40
   2  -6  26   -4.60    4.50
   2   6  26   12.60   14.20
  -2   6 -26    3.70    6.00
   1  -7 -26   10.20    6.90
  -1  -7  26    3.90    6.40
   1  -7 -26   10.80    7.80
  -1   7  26  -11.00    4.80
   1   7 -26    2.90    7.90
  -1  -7 -26   15.70    8.20
   1  -7  26   -1.80    5.60
   1   7  26    4.00    9.10
   1   7  26    8.00    9.40
   6   0 -27   -1.00    7.00
   6   0 -27  -12.50    5.20
   4   0 -27   -2.20    2.80
   2   0 -27   -0.50    3.40
  -2   0  27   -2.30    3.00
   2   0 -27   -1.10    3.00
   0   0  27   -4.70    3.50
   0   0  27    9.60    5.20
   0   0  27    3.80    5.70
   0   0 -27    6.80    4.90
   0   0 -27   -0.70    2.40
   2   0  27   -0.10    4.50
  -2   0 -27   -0.60    4.30
  -4   0 -27   -8.60    4.20
   4   0  27   -5.60    4.30
  -6   0 -27   -6.90    8.20
   5  -1 -27   45.80   11.30
   5  -1 -27   42.00   11.40
   5   1 -27   57.09   12.00
  -5   1  27   56.49   10.80
   5   1 -27   55.09    9.60
   5   1 -27   60.69   13.40
  -3  -1  27  360.66   21.50
   3  -1 -27  413.86   27.40
   3  -1 -27  418.46   24.40
   3   1 -27  395.66   26.80
   3   1 -27  424.76   23.50
  -3   1  27  411.96   22.80
  -1  -1  27  306.67   12.50
  -1  -1  27  302.37   22.20
  -1  -1  27  339.37   21.50
   1  -1 -27  332.57   18.60
   1  -1 -27  332.47   23.40
   1   1 -27  292.17   20.60
  -1   1  27  296.17   21.90
   1   1 -27  319.77   16.30
  -1   1  27  342.57   20.30
   1   1 -27  299.87   22.00
   1  -1  27   -0.20    3.70
  -1  -1 -27    4.90    3.80
  -1  -1 -27   -5.70    2.20
  -1  -1 -27   -5.00    3.20
   1  -1  27   -6.90    3.80
  -1   1 -27    8.20    4.50
   1   1  27    2.50    5.10
  -3  -1 -27  404.06   26.60
   3  -1  27  416.46   26.80
  -3   1 -27  359.56   23.60
   3   1  27  369.46   26.40
  -5  -1 -27  159.98   17.60
   5  -1  27  117.39   18.50
   5  -1  27  146.59   16.20
   5   1  27  155.98   33.40
   5   1  27  135.79   23.00
  -5   1 -27  122.59   14.80
   6  -2 -27   33.90   10.20
  -6   2  27   31.40    9.90
   6   2 -27   30.50   10.80
   6   2 -27   21.90    9.60
   6   2 -27   21.40    9.50
   4  -2 -27   56.49   11.80
   4  -2 -27   73.79   13.90
   4   2 -27   67.39   13.50
  -4   2  27   50.39   11.00
   4   2 -27   54.49   11.00
   2  -2 -27    2.20    4.10
  -2  -2  27    9.20    6.70
   2  -2 -27   18.00    5.40
  -2  -2  27   16.80    4.50
  -2   2  27    4.30    4.40
   2   2 -27   14.80    6.00
   2   2 -27    5.60    4.50
   2   2 -27    4.70    5.20
   0  -2  27  310.07   21.90
   0  -2 -27  341.57   19.20
   0  -2  27  337.67   20.70
   0  -2 -27  418.66   26.40
   0   2  27  297.07   23.10
   0   2 -27  374.66   23.90
   0   2  27  340.57   23.10
  -2  -2 -27   51.19    8.30
   2  -2  27   34.50    6.90
   2  -2  27   26.20    8.00
   2  -2  27   30.20    7.90
  -2  -2 -27   42.10   11.10
  -2   2 -27   35.30    8.60
   2   2  27   42.70   10.80
  -4  -2 -27   -2.70    4.40
  -4  -2 -27    8.20    4.70
   4  -2  27    6.00    5.10
   4   2  27    5.90    6.30
  -4   2 -27    6.40    4.90
   5  -3 -27   30.30   11.20
   5  -3 -27   46.20   12.70
  -5   3  27   50.99   11.60
   5   3 -27   51.79   12.80
   5   3 -27   54.59   12.20
  -3  -3  27   29.50    8.30
   3  -3 -27   31.00    9.00
   3  -3 -27   50.29   11.20
   3   3 -27   32.40    8.80
   3   3 -27   46.60   10.60
  -3   3  27   19.10    7.60
   3   3 -27   40.30    8.70
  -1  -3  27   31.40    9.60
   1  -3 -27   35.90    8.20
  -1  -3  27   29.40    5.30
   1  -3 -27   33.30    8.80
  -1   3  27   30.50    9.20
   1   3 -27   30.70    7.30
   1   3 -27   46.00   10.10
  -1   3  27   25.50    7.50
   1   3 -27   24.80    5.50
  -1  -3 -27    0.30    3.20
  -1  -3 -27    3.20    3.80
   1  -3  27    1.70    4.10
   1  -3  27    4.80    3.90
  -1   3 -27    0.40    4.30
  -1   3 -27   -2.80    8.70
   1   3  27    2.40    5.50
  -3  -3 -27   85.79   14.60
   3  -3  27   81.29   13.20
   3  -3  27   55.89   10.70
  -3  -3 -27   58.99   13.00
   3  -3  27   72.49   11.20
   3   3  27   49.10   13.00
  -3   3 -27   76.89   11.80
   5  -3  27   48.80   10.90
  -5  -3 -27   33.10   11.30
  -5   3 -27   28.10    8.90
   5   3  27   13.40   10.80
   4  -4 -27  193.68   20.60
   4  -4 -27  142.99   25.10
   4   4 -27  199.68   21.20
   4   4 -27  184.28   18.40
  -4   4  27  195.78   20.50
   4   4 -27  168.18   16.70
  -2  -4  27   18.40    6.10
   2  -4 -27   18.60    7.80
  -2  -4  27   27.70    9.30
   2  -4 -27   27.90    8.10
  -2   4  27   27.50    8.20
   2   4 -27   24.40    6.60
   2   4 -27   35.40    9.20
   2   4 -27   17.90    6.10
   0  -4 -27   36.10    9.10
   0  -4 -27   20.20    6.20
   0  -4  27   12.10    6.20
   0   4  27   16.00    8.50
   0   4 -27   14.00    6.80
   0   4  27   17.40    9.00
   0   4 -27   20.90    6.10
   2  -4  27   -5.10    4.20
  -2  -4 -27    0.70    4.50
   2  -4  27    1.00    3.20
   2  -4  27   -0.30    3.50
  -2   4 -27   -2.60    4.60
   2   4  27  -11.70    5.30
   4  -4  27   25.70    8.30
   4  -4  27   27.60    6.70
  -4  -4 -27   25.50    9.80
   4  -4  27   31.00    9.40
  -4   4 -27   28.90    8.50
   4   4  27   35.70   11.20
   3  -5 -27    0.10    6.30
   3  -5 -27   -7.30    6.00
   3   5 -27    8.20    5.30
   3   5 -27    4.10    5.10
  -3   5  27    0.10    6.30
   3   5 -27    2.30    6.80
   3   5 -27   -2.90    4.00
   1  -5 -27   92.69   16.80
  -1  -5  27   64.69    9.00
  -1  -5  27   88.99   13.40
   1  -5 -27   89.89   15.10
  -1   5  27   64.29   14.60
   1   5 -27   57.69    8.10
   1   5 -27   67.79   12.90
  -1   5  27   66.29   14.80
   1  -5  27   38.10    9.10
   1  -5  27   53.89    9.20
  -1  -5 -27   54.69   12.60
   1   5  27   40.30   13.50
   1   5  27   51.19   13.90
  -1   5 -27   38.80    7.40
  -1   5 -27   33.70    9.80
   3  -5  27    4.90    7.90
   3  -5  27   -8.00    3.90
  -3  -5 -27    1.30    6.50
   3  -5  27   -5.30    3.90
  -3   5 -27    0.50    6.70
   3   5  27    1.30    6.70
  -2  -6  27   34.80    9.40
   2  -6 -27   35.70   10.70
   2   6 -27   34.00   11.20
   2   6 -27   21.80    8.60
  -2   6  27   13.70   12.00
   0  -6 -27   20.70    7.90
   0  -6  27    2.70    7.00
   0   6  27    5.90    8.50
   0   6 -27   13.80    7.50
   2  -6  27    0.50    3.90
  -2  -6 -27  -10.10    6.60
   2   6  27  -18.10    6.50
  -2   6 -27   -8.00    5.90
   2   6  27  -17.40    7.00
   6   0 -28   27.20   13.70
   6   0 -28   41.70   11.80
   4   0 -28   53.19   11.10
  -4   0  28   68.79    9.00
   4   0 -28   46.90   11.20
   2   0 -28   60.89   13.80
   2   0 -28   80.79   11.70
  -2   0  28   70.19    8.20
   0   0 -28  841.72   38.50
   0   0 -28  889.61   26.20
   0   0  28  924.91   39.60
   0   0  28  858.51   37.50
   2   0  28  339.17   23.90
  -2   0 -28  355.76   24.00
   2   0  28  337.57   23.80
   4   0  28   61.59   13.00
   4   0  28   49.70   11.40
  -4   0 -28   36.80   10.10
   5  -1 -28   11.30    6.30
   5  -1 -28    4.40    6.60
  -5   1  28  -10.10    5.00
   5   1 -28    8.70    5.50
   5   1 -28   -8.30    5.80
   5   1 -28    1.00    6.70
  -3  -1  28    8.80    4.80
   3  -1 -28   -1.90    3.50
   3  -1 -28   -2.20    3.90
  -3   1  28    3.80    3.60
   3   1 -28    1.40    4.50
   3   1 -28    1.30    3.50
  -1  -1  28   46.10    9.50
  -1  -1  28   43.10   10.30
   1  -1 -28   55.49    9.30
  -1  -1  28   40.00    4.80
   1  -1 -28   48.80   10.70
   1   1 -28   32.20    9.00
  -1   1  28   41.80    9.90
   1   1 -28   55.19    8.30
  -1   1  28   43.40    8.90
   1  -1  28  157.48   15.60
  -1  -1 -28  149.29   10.40
  -1  -1 -28  146.09   11.40
  -1  -1 -28  128.59   15.10
   1  -1  28  155.48   15.60
  -1   1 -28  145.99   15.70
   1   1  28  156.48   17.80
   1   1  28  157.08   16.10
  -3  -1 -28    4.50    4.80
   3  -1  28   23.40    7.70
   3  -1  28   11.40    6.30
  -3   1 -28   18.40    7.50
   3   1  28   16.60    8.00
   3   1  28   -1.70    6.30
  -5  -1 -28  -13.50    5.70
   5  -1  28   14.30    8.30
  -5   1 -28  -14.10    5.40
   5   1  28   17.70    8.50
   6  -2 -28    6.50    7.10
   6  -2 -28    5.80    7.20
   6   2 -28   14.70    8.60
  -6   2  28    3.60    6.30
   4  -2 -28    2.40    4.70
   4   2 -28   18.40    8.70
  -4   2  28   21.50    6.80
   2  -2 -28   81.49   10.30
  -2  -2  28  109.29    9.90
   2  -2 -28   72.69   12.60
   2   2 -28   73.29   10.60
   2   2 -28   78.99   12.70
   2   2 -28   56.09   12.30
  -2   2  28   80.49   12.80
   0  -2  28   17.00    7.90
   0  -2 -28   21.70    6.10
   0  -2  28   19.00    6.60
   0   2 -28   34.50    9.50
   0   2  28   18.00    8.40
   0   2 -28   16.60    8.00
   0   2  28   26.60    8.20
   2  -2  28    9.70    4.20
  -2  -2 -28   -1.00    3.30
  -2  -2 -28    2.10    4.20
  -2  -2 -28    5.90    4.60
   2  -2  28   -4.80    4.20
   2   2  28    7.70    5.30
  -2   2 -28   -3.50    4.20
   4  -2  28   35.00    9.50
   4  -2  28   13.50    7.40
  -4  -2 -28   18.80    6.90
  -4   2 -28   27.00    8.60
   4   2  28   22.20   10.30
   5  -3 -28   33.30   10.50
   5  -3 -28   22.70   11.20
  -5   3  28   29.60    9.50
   5   3 -28   22.60    9.60
   5   3 -28   15.90    9.20
  -3  -3  28   21.90    7.90
   3  -3 -28   48.60   12.50
   3  -3 -28   29.60    8.70
   3   3 -28   14.80    6.40
   3   3 -28   33.20    8.70
   3   3 -28    6.50    6.20
  -3   3  28   45.30   17.00
   1  -3 -28  105.79   12.20
  -1  -3  28   84.39    7.80
   1  -3 -28   71.09   12.80
  -1  -3  28   75.19   12.60
  -1   3  28   99.09   16.80
   1   3 -28   93.69   15.20
   1   3 -28  102.39    9.10
  -1   3  28  121.69   14.40
   1  -3  28   65.79   11.50
  -1  -3 -28  128.99   15.50
  -1  -3 -28   83.09   12.20
  -1  -3 -28  111.99   12.90
   1  -3  28   87.09   12.80
  -1   3 -28   89.39   15.00
  -1   3 -28   99.39   15.10
   1   3  28   88.99   15.10
  -3  -3 -28    7.00    5.90
  -3  -3 -28    7.80    5.60
   3  -3  28    5.30    5.10
   3  -3  28    5.00    8.30
   3  -3  28    2.50    4.20
   3   3  28   14.50    7.10
  -3   3 -28   -7.00    4.30
   5  -3  28  151.08   21.20
  -5  -3 -28  146.39   21.60
   5   3  28  121.19   20.30
   4  -4 -28   23.20    9.80
   4  -4 -28   11.40    6.30
  -4   4  28   22.20    7.80
   4   4 -28   23.50    8.70
   4   4 -28   16.00    8.20
  -2  -4  28    5.90    5.20
   2  -4 -28    9.90    5.90
   2  -4 -28   10.60    6.90
   2   4 -28    2.60    5.40
   2   4 -28    6.40    4.70
   2   4 -28   -4.30    4.20
  -2   4  28   12.20    6.20
   0  -4 -28   26.60    8.40
   0  -4 -28   15.90    7.60
   0  -4  28   31.90    8.50
   0   4  28   17.70    8.10
   0   4 -28   20.40    6.40
   0   4 -28   17.90    6.60
   0   4  28   26.30    8.40
   2  -4  28   59.29    6.70
   2  -4  28   55.09    9.90
  -2  -4 -28   57.09   12.70
   2  -4  28   46.10    9.90
  -2   4 -28   77.29   17.30
   2   4  28   28.50   10.30
  -2   4 -28   63.19   11.40
   4  -4  28   34.60   14.70
  -4  -4 -28   35.20   10.60
   4  -4  28   17.80    7.50
   4   4  28   24.70    9.90
  -4   4 -28   22.10    8.20
   3  -5 -28    5.90    6.70
   3   5 -28   -4.10    5.60
  -3   5  28    1.80    7.50
   3   5 -28    7.50    7.20
   3   5 -28    1.30    5.60
  -1  -5  28   14.80    5.00
   1  -5 -28   17.20    7.10
  -1  -5  28   13.50    7.80
   1  -5 -28   12.70    6.40
  -1   5  28   11.40    8.00
   1   5 -28   13.60    7.60
  -1   5  28    7.50    6.80
   1   5 -28   10.30    5.40
  -1  -5 -28   -4.00    5.40
   1  -5  28   -1.30    3.80
  -1   5 -28   -6.90    4.70
   1   5  28    5.40    6.70
   1   5  28    7.70    6.50
  -1   5 -28   -3.60    5.50
   3  -5  28    0.70    3.60
  -3  -5 -28   10.90    9.10
  -3   5 -28   -0.90    8.40
  -3   5 -28   -1.40    6.00
   3   5  28   19.70   10.30
   2  -6 -28   10.80    7.50
   2   6 -28    1.50    8.50
   2   6 -28    6.00    6.60
   0  -6 -28  111.39   18.70
   0  -6 -28   97.79   16.40
   0   6  28  112.69   21.70
   0   6 -28   94.59   16.40
   0   6  28   98.39   21.10
  -2  -6 -28   38.00   10.90
   2  -6  28   24.70    7.60
   2   6  28   36.90   11.30
   2   6  28   30.40   10.80
   6   0 -29    2.40    6.40
   6   0 -29    6.30    6.70
  -4   0  29    5.70    4.00
   4   0 -29    7.90    5.90
   4   0 -29    2.60    4.30
   2   0 -29   -1.70    3.60
  -2   0  29    1.50    3.00
   2   0 -29    2.50    4.50
   0   0  29    3.80    5.90
   0   0  29    4.80    5.40
   0   0  29    1.80    5.40
   0   0 -29    9.00    5.30
   0   0 -29   14.50    4.10
  -2   0 -29   -1.70    4.60
   2   0  29    5.80    6.50
   2   0  29    5.30    4.50
   4   0  29    8.30    6.00
   4   0  29   -7.40    6.10
  -4   0 -29   -8.50    4.90
   5  -1 -29   -2.60    6.40
   5  -1 -29   15.70   11.10
   5   1 -29   14.20    8.10
   5   1 -29   -2.50    4.50
   3  -1 -29   99.59   11.70
  -3  -1  29   67.69   10.70
   3  -1 -29   79.69   14.30
  -3   1  29   89.59   10.50
   3   1 -29   83.49   16.00
   3   1 -29   89.29   11.10
  -1  -1  29  242.38   23.40
   1  -1 -29  195.08   14.60
  -1  -1  29  203.68   10.20
   1  -1 -29  177.78   21.10
  -1  -1  29  211.48   17.00
  -1   1  29  191.68   18.60
   1   1 -29  185.58   18.10
  -1   1  29  212.48   16.40
   1   1 -29  208.28   13.20
   1  -1  29   40.50   10.30
  -1  -1 -29   40.30    6.40
   1  -1  29   31.20    8.60
  -1  -1 -29   65.79   12.80
  -1  -1 -29   51.69    8.10
  -1   1 -29   47.60   10.10
   1   1  29   40.00   10.30
   3  -1  29   11.90    6.30
  -3  -1 -29    3.20    5.60
   3  -1  29    7.10    6.00
  -3   1 -29   10.70    5.70
   3   1  29    5.70    5.70
   3   1  29   13.00    7.50
  -5  -1 -29    5.90    6.90
   5   1  29    6.20    6.10
  -5   1 -29   -1.20    7.80
   6  -2 -29   48.60   13.40
   6  -2 -29   24.50   11.10
   6   2 -29   38.70   12.00
  -6   2  29   49.20   11.80
   6   2 -29   19.10   12.20
   4  -2 -29   45.00   10.70
   4  -2 -29   47.30   12.40
   4   2 -29   39.50   11.00
   4   2 -29   64.89   12.40
  -4   2  29   64.69   12.70
  -2  -2  29    2.70    3.70
   2  -2 -29    7.20    4.20
   2  -2 -29    1.20    3.80
   2   2 -29   -3.80    3.30
  -2   2  29   -5.90    3.30
   2   2 -29    8.10    5.90
   0  -2 -29   55.79   11.70
   0  -2  29   46.30   10.30
   0  -2 -29   51.29    8.90
   0  -2  29   53.99   10.90
   0   2 -29   46.60   10.30
   0   2  29   29.70    9.70
   0   2  29   50.69   10.90
   0   2 -29   38.80    9.70
   2  -2  29   -1.20    3.80
   2  -2  29   -0.10    3.20
  -2  -2 -29    4.60    3.60
  -2  -2 -29   -3.10    4.00
   2  -2  29   10.80    5.20
   2   2  29   -5.00    3.80
  -2   2 -29    5.30    5.40
  -4  -2 -29   39.70    7.90
  -4  -2 -29    8.50    7.40
   4  -2  29    2.40    6.80
   4   2  29    5.60    6.20
  -4   2 -29   21.90    6.00
   5  -3 -29   13.30    7.90
   5  -3 -29   16.40    8.60
  -5   3  29    7.80    6.40
   5   3 -29   12.30    8.30
   3  -3 -29    6.90    5.80
   3  -3 -29    4.00    5.60
  -3  -3  29   12.70    6.00
  -3   3  29    6.80    6.60
   3   3 -29    4.30    6.40
   3   3 -29    9.00    4.90
   1  -3 -29   -1.40    3.40
   1  -3 -29   -5.20    3.30
  -1  -3  29    1.70    5.90
  -1  -3  29    2.70    2.80
  -1   3  29   -7.00    3.70
   1   3 -29    1.50    3.20
  -1   3  29   -4.80    4.70
   1   3 -29   -2.00    3.90
   1  -3  29    9.50    5.40
  -1  -3 -29    8.90    7.00
  -1  -3 -29   -3.60    5.20
  -1  -3 -29    3.70    4.00
   1  -3  29    1.90    5.40
  -1   3 -29   -0.70    5.50
   1   3  29    2.50    4.80
  -1   3 -29    2.80    4.40
   1   3  29   18.90    7.90
   3  -3  29   45.40    9.20
  -3  -3 -29   58.89   10.70
  -3  -3 -29   41.40   11.40
   3  -3  29   43.50    8.70
   3  -3  29   45.50   10.80
   3   3  29   66.99   15.20
  -3   3 -29   38.10    9.30
   4  -4 -29   10.00    7.10
   4  -4 -29   -1.00    6.60
  -4   4  29   13.80    8.70
   4   4 -29   10.70    8.60
   4   4 -29   12.90    7.40
   2  -4 -29   84.59   15.40
   2  -4 -29   66.99   12.50
  -2  -4  29   56.79    9.70
  -2   4  29   89.39   15.10
   2   4 -29   65.09   10.40
   2   4 -29   75.99   11.40
   2   4 -29   81.19   16.00
   0  -4  29   86.39   14.00
   0  -4 -29   95.09   14.40
   0  -4 -29   93.39   16.60
   0   4 -29   96.39   11.20
   0   4  29  100.79   16.90
   0   4  29   54.99   13.50
   0   4 -29   92.89   14.80
   2  -4  29  137.79   14.50
  -2  -4 -29  119.79   19.60
   2  -4  29  147.79   13.60
   2  -4  29  137.19    9.00
   2   4  29  111.59   18.50
  -2   4 -29  126.29   14.50
  -2   4 -29  107.09   15.40
  -4  -4 -29   43.50   12.80
   4  -4  29   57.39   10.80
   4   4  29   45.00   13.30
   3  -5 -29   -5.70    6.00
  -3   5  29   11.10    7.70
   3   5 -29  -13.20    4.50
   3   5 -29    2.50    6.00
   3   5 -29   14.20    7.20
  -1  -5  29   -9.40    6.30
   1  -5 -29   -2.30    5.20
   1  -5 -29    2.20    8.90
   1   5 -29    8.90    6.70
   1   5 -29    7.80    5.20
  -1   5  29    6.40    6.30
   1  -5  29   -4.20    4.20
   1  -5  29    2.80    5.20
  -1   5 -29    5.10    6.30
   1   5  29    5.10    7.00
   1   5  29    2.80    6.50
  -1   5 -29   -3.80    5.00
   3  -5  29   -5.30    4.40
   3   5  29   -2.00    7.00
   2  -6 -29   -4.20    6.90
   2  -6 -29    7.50    8.00
  -2   6  29   17.70    9.70
   2   6 -29    5.00    8.60
   0  -6 -29   13.90    9.10
   0  -6 -29   23.10    9.40
   0   6  29   -7.80    6.70
   0   6 -29    1.10    7.70
   0   6  29   -3.00    5.90
   6   0 -30   18.50    9.80
   4   0 -30   45.40   11.80
   4   0 -30   33.30    9.70
  -4   0  30   39.50    8.20
   2   0 -30  309.77   24.10
  -2   0  30  285.07   16.30
   2   0 -30  284.57   18.70
   0   0  30  507.45   28.80
   0   0 -30  472.35   18.90
   0   0  30  484.65   23.00
   0   0 -30  497.45   30.10
  -2   0 -30   84.49   14.40
   2   0  30   45.10   12.50
   2   0  30   64.59   12.30
   4   0  30    1.00    6.00
  -4   0 -30   11.00    5.70
   4   0  30   -3.20    7.00
   5  -1 -30   -1.50    5.30
   5   1 -30    7.10    6.70
   5   1 -30    1.90    8.20
  -5   1  30    5.70    4.40
   3  -1 -30   54.89   12.80
  -3  -1  30   47.30   11.70
   3  -1 -30   57.49   10.80
   3   1 -30   65.59   11.60
  -3   1  30   58.49   10.10
   3   1 -30   58.69   13.40
  -1  -1  30  103.49    7.30
   1  -1 -30   78.99   14.90
   1  -1 -30   96.39   10.80
  -1  -1  30  105.89   12.50
  -1   1  30   91.99   12.10
   1   1 -30   77.19   13.70
   1   1 -30  114.59   10.70
  -1   1  30  102.39   16.40
  -1  -1 -30   -5.00    3.40
   1  -1  30   -5.40    5.00
  -1  -1 -30   -2.40    4.10
  -1  -1 -30   -2.00    2.80
   1   1  30    9.60    4.90
  -3  -1 -30   -0.20    5.90
   3  -1  30  -11.60    5.90
   3  -1  30    2.10    4.60
  -3   1 -30  -10.20    4.30
   3   1  30    6.30    8.80
   3   1  30    7.10    6.40
  -5  -1 -30  -12.20    5.90
   5   1  30    3.60    6.50
  -5   1 -30   -5.30    7.00
   4  -2 -30    6.30    5.40
   4  -2 -30    9.00    7.10
   4   2 -30    3.70    6.50
  -4   2  30    9.10    4.80
   4   2 -30    3.60    5.60
   2  -2 -30    6.70    4.30
   2  -2 -30    2.20    3.90
  -2  -2  30    2.50    3.50
   2   2 -30   -5.90    4.80
   2   2 -30    5.40    4.00
  -2   2  30    2.90    4.20
   0  -2  30   55.99   11.70
   0  -2 -30   51.69    9.20
   0  -2 -30   51.99   11.10
   0  -2  30   70.69   11.80
   0   2 -30   34.40    9.70
   0   2  30   66.09   12.20
   0   2  30   69.69   14.40
   2  -2  30    3.10    5.70
  -2  -2 -30    3.80    4.20
  -2  -2 -30    4.10    4.70
  -2  -2 -30    5.30    3.80
   2  -2  30    3.50    3.60
  -2   2 -30    7.80    5.70
   2   2  30   -5.80    6.50
  -4  -2 -30   -5.60    5.40
  -4  -2 -30    3.20    7.10
   4   2  30   -7.50    6.50
   5  -3 -30   72.99   15.90
   5   3 -30   54.99   12.80
  -5   3  30   79.89   14.50
   3  -3 -30   29.20   10.30
  -3  -3  30   18.90    8.20
   3  -3 -30   29.00    8.10
   3   3 -30   36.80   10.90
   3   3 -30   19.20    7.00
  -3   3  30   32.90    9.50
   1  -3 -30   24.20    8.20
   1  -3 -30   33.80   10.00
  -1  -3  30   24.30    8.10
   1   3 -30   17.00    7.00
  -1   3  30   37.60   11.40
   1   3 -30   32.80    9.10
   1  -3  30   44.50   10.20
   1  -3  30   56.99   10.20
  -1  -3 -30   36.10   10.00
  -1  -3 -30   44.60   10.90
  -1  -3 -30   56.59    9.30
   1   3  30   33.60   11.60
   1   3  30   34.90   11.70
  -1   3 -30   57.09   11.80
  -1   3 -30   43.50   10.60
   3  -3  30    7.00    5.90
  -3  -3 -30   21.50    8.40
  -3  -3 -30    3.30    6.90
   3  -3  30    8.20    5.80
   3  -3  30   15.20    6.90
   3   3  30   -6.30    6.00
  -3   3 -30   -3.70    5.80
   4  -4 -30   12.60    8.20
   4  -4 -30    8.20    7.80
  -4   4  30    3.90    7.80
   4   4 -30   -4.50    6.30
   4   4 -30   16.40    6.60
   2  -4 -30    9.70    6.10
  -2  -4  30    5.80    4.50
   2  -4 -30    4.80    5.80
   2   4 -30  -10.70    6.60
   2   4 -30    2.30    4.30
  -2   4  30   -0.80    6.40
   0  -4 -30    8.70    6.00
   0  -4 -30    4.90    4.80
   0  -4  30    8.50    7.10
   0   4 -30    4.30    6.10
   0   4  30    8.70    6.20
   0   4 -30   17.20    5.90
   0   4  30    5.30    6.80
   2  -4  30    6.80    3.40
   2  -4  30    8.30    4.80
  -2  -4 -30   -0.70    7.10
  -2   4 -30   -2.30    6.90
   2   4  30    4.80    7.40
  -2   4 -30   19.80    7.10
   3  -5 -30   28.70   10.10
   3  -5 -30   31.20   11.30
  -3   5  30   29.00   18.70
   3   5 -30   25.30    8.70
   3   5 -30    8.00    7.30
   1  -5 -30   24.40    8.40
   1  -5 -30   17.50   11.30
  -1   5  30    1.10   11.40
   1   5 -30    8.10    6.40
   1   5 -30   16.60    8.40
   1  -5  30   28.40    7.40
  -1  -5 -30   46.90   19.30
  -1  -5 -30   18.60    7.90
  -1   5 -30   11.90    7.40
   1   5  30   21.30   10.40
  -1   5 -30   21.40    7.80
   1   5  30   43.90   12.00
   0  -6 -30   13.70    7.70
   0   6  30   -9.20    8.60
   0   6 -30    5.10    8.50
   0   6  30   12.00   10.20
   4   0 -31    3.80    5.90
  -4   0  31   -5.80    3.90
   4   0 -31   11.90    5.30
   2   0 -31   -5.00    3.10
   2   0 -31   -4.60    3.50
   0   0 -31    1.10    3.20
   0   0 -31    8.60    5.20
   0   0  31   -0.70    3.60
   0   0  31   -1.70    5.20
   2   0  31    5.10    7.30
   2   0  31    2.10    4.70
  -2   0 -31    6.80    4.90
   4   0  31   15.60    7.80
  -4   0 -31    8.50    7.50
   4   0  31  -10.40    6.00
   5  -1 -31   44.20   11.70
   5  -1 -31   33.10   11.10
   5   1 -31   43.40   11.80
   5   1 -31   25.30   10.90
  -5   1  31   29.30    7.90
   3  -1 -31  127.59   19.40
  -3   1  31  130.99   13.40
   3   1 -31  133.19   20.60
   3   1 -31  149.39   14.90
  -1  -1  31   77.69   14.70
  -1  -1  31   67.49    6.20
   1  -1 -31   59.39   10.00
   1  -1 -31   51.69   11.40
   1   1 -31   76.89   14.10
  -1   1  31   74.69   11.80
  -1   1  31   72.99   13.50
  -1  -1 -31  215.58   13.10
   1  -1  31  218.48   17.30
  -1  -1 -31  222.28   13.60
   1  -1  31  216.18   23.30
   1  -1  31  205.38   18.40
   1   1  31  223.68   20.60
  -1   1 -31  212.08   19.10
   3  -1  31   61.19   13.40
  -3  -1 -31   81.19   15.40
   3  -1  31   56.29   12.80
  -3   1 -31   75.79   13.40
   3   1  31   82.29   15.50
   4  -2 -31   -0.10    6.20
   4  -2 -31    7.40    5.40
   4   2 -31   -1.20    4.30
   4   2 -31  -11.20    4.10
   2  -2 -31    6.90    4.80
   2  -2 -31    5.60    4.20
  -2  -2  31    6.20    4.30
   2   2 -31   12.90    6.90
   2   2 -31   12.40    5.10
  -2   2  31    1.60    4.20
   0  -2  31   73.89   13.90
   0  -2 -31  108.29   11.50
   0  -2  31  111.69   12.80
   0  -2 -31   67.59   13.20
   0   2 -31  118.19   17.60
   0   2  31   81.19   14.40
   0   2  31  103.09   13.30
   2  -2  31   -8.40    5.30
  -2  -2 -31    4.90    4.40
   2  -2  31   -4.40    4.00
  -2  -2 -31    7.60    4.60
   2  -2  31   -6.30    3.40
   2   2  31    0.20    5.90
  -2   2 -31   -2.30    4.90
   4  -2  31    7.00    7.70
  -4  -2 -31    3.70    7.40
  -4   2 -31    6.80    7.80
   4   2  31    7.90    8.50
   5  -3 -31   29.90   11.40
   5  -3 -31   17.60    8.60
   5   3 -31   20.20    9.40
  -5   3  31   -4.30    7.70
   5   3 -31   27.20   11.30
   3  -3 -31   10.60    7.20
   3   3 -31    8.50    6.20
   3   3 -31    0.30    6.10
  -3   3  31   17.80    6.90
   1  -3 -31   41.50   11.40
   1  -3 -31   50.59   10.50
  -1  -3  31   35.50   11.80
  -1   3  31   41.20   10.50
   1   3 -31   48.20   10.60
   1   3 -31   47.30   10.40
  -1   3  31   31.80   10.50
   1  -3  31    7.70    4.60
   1  -3  31   14.40    7.80
  -1  -3 -31   23.70    7.20
  -1  -3 -31    3.10    6.80
  -1  -3 -31   10.60    7.40
   1   3  31   17.20    7.10
   1   3  31   18.30    8.10
  -1   3 -31    1.60    5.50
  -3  -3 -31   16.20    8.50
   3  -3  31   26.20    7.40
   3  -3  31   25.80    8.10
  -3  -3 -31   19.80    9.30
  -3   3 -31    8.90   12.80
   3   3  31   22.70    9.20
   4  -4 -31   13.90    6.20
  -4   4  31   -3.90    6.70
   4   4 -31   -0.60    7.10
   4   4 -31   -1.10    5.50
   2  -4 -31  -10.80    4.60
  -2  -4  31    6.10    4.90
   2   4 -31   13.50    5.40
  -2   4  31    6.70    6.10
   2   4 -31    1.80    5.70
   2   4 -31    3.20    7.10
   0  -4 -31   -2.20    4.90
   0  -4  31    4.70    7.30
   0  -4 -31    8.00    5.90
   0   4 -31   -4.80    6.60
   0   4  31   -2.20    5.80
   0   4 -31   -6.70    5.80
   2  -4  31   33.60    7.20
  -2  -4 -31   20.60    8.70
  -2   4 -31   -2.30    6.50
   2   4  31   22.50    9.50
   3  -5 -31    9.70    8.70
   3  -5 -31    3.70    6.20
   3   5 -31    9.20    9.10
  -3   5  31   19.50   11.10
   3   5 -31   22.00    8.10
  -1  -5  31  -12.40    6.30
   1  -5 -31  -11.10    4.90
   1  -5 -31   12.90    7.40
  -1   5  31    4.60    6.10
   1   5 -31   10.60    8.70
  -1   5  31    3.80    7.30
   1  -5  31   13.10    6.00
  -1  -5 -31    8.60    5.10
  -1  -5 -31  -11.60    4.80
   1   5  31   -1.10    7.70
  -1   5 -31    2.70    6.60
   4   0 -32   -3.20    4.60
  -4   0  32  -10.60    4.30
   4   0 -32   11.90    6.70
   2   0 -32    2.10    6.40
   2   0 -32   12.10    6.00
   0   0 -32   58.79    8.00
   0   0  32   53.69    9.60
   0   0  32   58.99   12.30
   2   0  32   -2.90    7.40
  -2   0 -32    4.80    5.70
   2   0  32    3.50    5.20
   4   0  32   17.80    9.90
  -4   0 -32   13.90    7.60
   5  -1 -32    1.20    6.60
   5  -1 -32    4.30    7.50
   5   1 -32    4.80    6.60
   5   1 -32   -0.40    6.20
  -5   1  32   15.40    5.50
   3  -1 -32   69.79   15.00
   3  -1 -32   61.89   11.80
   3   1 -32   53.79   10.30
   3   1 -32   65.49   14.70
  -3   1  32   67.29   10.90
  -1  -1  32   57.19   10.80
   1  -1 -32   69.99   10.90
  -1  -1  32   55.39    5.80
   1  -1 -32   45.70   11.70
  -1   1  32   52.99    9.50
  -1   1  32   80.49   15.00
   1   1 -32   71.39   13.70
  -1  -1 -32  145.99   16.70
   1  -1  32  101.49   15.30
   1  -1  32  108.99   17.30
   1   1  32  132.89   16.60
   1   1  32  115.19   13.80
  -1   1 -32  118.29   18.00
   3  -1  32    3.40    8.00
  -3  -1 -32   14.60    8.40
   3  -1  32    2.00    8.00
   3   1  32   28.60    9.90
  -3   1 -32   16.70    7.00
   4  -2 -32   11.60    7.30
   4  -2 -32   16.80    9.30
  -4   2  32    7.90    6.40
   4   2 -32    9.30    5.70
   4   2 -32   14.60    7.50
   2  -2 -32    3.40    5.20
   2  -2 -32    5.80    4.60
  -2   2  32    8.30    4.20
   2   2 -32   18.30    7.00
   2   2 -32    9.20    5.00
   0  -2 -32    1.60    4.50
   0  -2  32   18.50    7.20
   0  -2  32   -2.30    4.30
   0  -2 -32   -0.50    3.20
   0   2  32   -1.10    6.30
   0   2  32    4.40    5.20
   0   2 -32    2.50    6.30
  -2  -2 -32   23.90    9.00
   2  -2  32   33.80    7.40
  -2  -2 -32   31.50    6.60
  -2  -2 -32   25.10    7.00
   2  -2  32   34.40    9.70
   2  -2  32   13.80    7.90
  -2   2 -32   27.70    9.90
   2   2  32   20.80    8.60
   4  -2  32   -1.20    7.30
  -4  -2 -32   18.00    8.50
  -4   2 -32    7.30    7.90
   4   2  32   -0.20    6.70
   3  -3 -32   75.99   14.30
   3  -3 -32   53.79   19.60
   3   3 -32   83.59   13.40
  -3   3  32  116.59   14.60
   3   3 -32   90.29   17.30
   1  -3 -32   21.00    9.30
  -1   3  32   21.60    8.30
   1   3 -32    7.70    6.50
   1  -3  32  158.98   18.10
  -1  -3 -32  190.58   15.80
  -1  -3 -32  142.09   21.50
   1  -3  32  197.08   16.50
  -1  -3 -32  147.49   16.70
   1   3  32  173.98   19.70
  -1   3 -32  182.18   18.30
   1   3  32  152.38   25.50
  -3  -3 -32    1.30    8.60
  -3  -3 -32   10.90    8.30
   3  -3  32   23.60    7.40
   3   3  32   25.60   10.50
  -3   3 -32    9.40    8.00
  -2  -4  32    6.60    5.40
   2  -4 -32    5.70    6.10
   2  -4 -32    2.60    5.60
  -2   4  32   15.90    7.40
   2   4 -32    3.80    5.90
   2   4 -32  -12.10    6.30
   2   4 -32    6.10    5.20
   0  -4  32   -8.10    8.30
   0  -4 -32    1.50    5.20
   0  -4 -32   -0.30    8.30
   0   4 -32   -0.50    6.70
   0   4 -32   -3.60    6.00
   0   4  32    4.40    7.10
  -2  -4 -32   14.00    7.20
   2  -4  32    0.40    4.90
  -2   4 -32   11.10    7.10
   2   4  32   14.20   10.20
   1  -5 -32   34.70   11.60
   1  -5 -32   38.00   11.50
  -1   5  32    4.70    8.30
   1   5 -32   40.50   12.40
  -1  -5 -32  100.19   16.00
  -1  -5 -32   76.09   15.70
   1   5  32   75.29   16.60
  -1   5 -32   90.19   15.90
   4   0 -33   -3.40    4.70
   4   0 -33   -1.90    5.00
  -4   0  33    0.40    4.40
   2   0 -33  -10.50    4.20
   2   0 -33    7.20    4.70
   0   0  33   -3.40    4.10
   0   0  33   -6.90    5.50
   0   0 -33    6.20    5.90
  -2   0 -33   -0.60    4.50
   2   0  33    0.60    5.40
  -4   0 -33  -10.10    6.00
   4   0  33    6.60    7.10
   5  -1 -33  105.29   18.70
   5   1 -33  112.19   19.30
   5   1 -33  126.89   19.00
   3  -1 -33   90.69   14.20
   3  -1 -33  103.99   18.60
   3   1 -33  120.79   14.00
   3   1 -33   85.89   15.70
  -3   1  33  101.19   14.00
   1  -1 -33   33.70   10.00
  -1  -1  33   53.39    5.40
   1  -1 -33   68.49   10.80
  -1  -1  33   52.19    9.90
  -1   1  33   61.59   13.10
  -1   1  33   57.89   10.20
   1   1 -33   55.99   12.60
   1  -1  33   99.29   16.20
  -1  -1 -33   70.69   14.40
  -1  -1 -33   89.49    9.80
   1  -1  33   70.69   14.30
   1   1  33  114.19   12.70
   1   1  33   93.29   16.20
  -1   1 -33   95.39   15.50
   3  -1  33  192.68   19.40
  -3  -1 -33  188.68   20.50
  -3   1 -33  159.18   19.70
   3   1  33  160.48   20.00
   4  -2 -33   10.40    8.20
   4  -2 -33   15.50    8.40
  -4   2  33    7.00    6.30
   4   2 -33   22.30    7.70
   2  -2 -33  113.29   18.10
   2  -2 -33  100.49   17.30
   2   2 -33  127.39   12.70
  -2   2  33  128.99   14.20
   2   2 -33   86.09   16.40
   0  -2 -33    6.90    6.50
   0  -2  33    1.70    4.70
   0  -2  33   10.10    9.00
   0  -2 -33    6.40    4.60
   0   2  33   10.20    5.30
   0   2 -33   19.10    7.70
   0   2  33    4.70    7.40
   2  -2  33    6.10    6.00
  -2  -2 -33   17.10    9.20
   2  -2  33   17.90    6.20
  -2  -2 -33   18.10    6.40
   2  -2  33  -10.10    7.20
  -2  -2 -33    9.80    4.90
   2   2  33   22.10   10.00
  -2   2 -33   18.10    7.60
   3  -3 -33    8.90    7.60
   3  -3 -33    0.90    5.30
   3   3 -33   13.70    8.70
   3   3 -33   -0.20    5.50
  -3   3  33    1.80    5.10
   1  -3 -33   23.90    8.90
   1  -3 -33    2.70    5.50
  -1   3  33   13.80   12.30
  -1   3  33    5.60    5.50
   1  -3  33   43.30   12.40
  -1  -3 -33   45.70    9.70
  -1  -3 -33   45.40   11.80
  -1   3 -33   53.79   12.80
   1   3  33   40.50   11.20
   1   3  33   39.60   16.90
   3  -3  33   49.30   11.40
  -3  -3 -33   67.69   10.90
  -3  -3 -33   56.59   15.30
  -3   3 -33   45.20   11.30
   3   3  33   47.10   13.50
   2  -4 -33   -5.50    5.60
   2  -4 -33  -10.00    4.90
  -2   4  33    3.20    7.70
   2   4 -33    6.30    5.20
   2   4 -33   -3.40    6.40
   2   4 -33  -10.50    9.00
   0  -4  33   15.80    9.50
   0  -4 -33   16.40    6.70
   0  -4 -33    5.50   10.70
   0   4  33   -3.90    5.70
   0   4 -33   11.20    8.30
   0   4  33    4.20    7.10
   0   4 -33   16.00    8.10
  -2  -4 -33    6.30    5.80
  -2   4 -33    2.90    7.40
   2   4  33   20.60    9.40
   4   0 -34   89.39   15.30
   4   0 -34  123.29   20.20
  -4   0  34  118.69   12.30
   2   0 -34   96.89   13.10
   2   0 -34   79.59   15.10
  -2   0  34   98.49   15.70
   0   0  34   13.30    5.60
   0   0 -34    7.20    5.70
   0   0  34    9.40    6.30
  -2   0 -34    7.10    7.30
   2   0  34    0.60    6.40
   3  -1 -34   13.70    7.80
   3   1 -34   12.50    7.00
   3   1 -34   26.50   10.70
  -3   1  34   24.80    7.50
   1  -1 -34   11.10    5.30
   1  -1 -34   29.00    9.50
  -1  -1  34   14.90    3.30
  -1  -1  34   15.40    6.80
  -1   1  34    5.80    6.10
  -1   1  34   16.60    7.80
   1   1 -34    8.30    7.40
   1  -1  34   26.60   10.40
   1  -1  34   21.40    8.10
  -1  -1 -34   10.70    7.00
   1   1  34   32.60    8.00
  -1   1 -34   26.90    9.00
   1   1  34   18.40    8.40
  -3  -1 -34   21.80    8.40
   3  -1  34   25.20    9.90
  -3   1 -34   22.30   10.30
   3   1  34   27.20    9.50
   4  -2 -34   39.40   12.60
   4  -2 -34   22.80    9.00
  -4   2  34   24.60    8.20
   4   2 -34    7.00    6.40
   2  -2 -34  -10.70    4.10
   2  -2 -34    2.50    4.90
   2   2 -34    7.70    6.70
   2   2 -34    2.80    4.80
   0  -2 -34   28.10   11.20
   0  -2  34   57.59   12.10
   0  -2 -34   27.20    8.00
   0   2  34   39.20    9.70
   0   2 -34   49.80   12.00
   0   2  34   40.00   11.60
   2  -2  34   -7.10    6.60
   2  -2  34    1.10    8.60
  -2  -2 -34    6.00    6.70
  -2  -2 -34    5.30    4.60
  -2  -2 -34    5.80    6.80
   2   2  34   25.30    9.90
  -2   2 -34   -7.60    5.80
   3  -3 -34   29.10    9.90
   3  -3 -34   18.40    9.10
   3   3 -34   32.80   11.20
  -3   3  34   27.20    8.10
   3   3 -34   29.30    8.50
   1  -3 -34   92.69   24.50
   1  -3 -34   64.19   12.80
   1   3 -34   50.09   13.00
  -1   3  34   35.10   13.40
  -1   3  34   74.89   13.40
   1  -3  34    9.50    7.70
  -1  -3 -34   22.40    8.00
  -1  -3 -34    6.40    5.20
  -1   3 -34    7.10    7.10
   1   3  34   -8.80    6.60
   1   3  34   -2.00    5.30
   2  -4 -34   -9.10    5.70
   2  -4 -34    7.90    8.10
   2   4 -34   16.30    7.80
  -2   4  34    1.30    8.00
   2   4 -34   38.80    7.20
   0  -4 -34   25.60   10.40
   0  -4 -34   19.50    7.00
   0   4  34   24.20    9.80
   0   4 -34   43.70   12.90
   0   4  34    5.50    7.80
   4   0 -35    4.90    6.40
   4   0 -35    8.20    7.40
  -2   0  35   -3.10    4.90
   2   0 -35   -4.70    6.10
   2   0 -35    1.90    4.60
   0   0 -35   -5.60    4.00
   0   0  35   -8.10    4.80
   0   0  35   -5.00    4.50
   2   0  35   -5.50    6.70
  -2   0 -35    5.10    7.20
   3  -1 -35   32.80    8.80
   3   1 -35   32.10    9.10
   3   1 -35   45.20   11.90
  -3   1  35   35.20    7.70
   1  -1 -35   39.20    8.00
   1  -1 -35   26.70    9.80
  -1  -1  35   36.90   10.10
  -1   1  35   46.80    9.60
   1   1 -35   41.70   10.80
  -1   1  35   27.40    9.80
  -1  -1 -35    0.60    5.90
   1  -1  35   -4.80    4.80
   1  -1  35    5.80    5.90
   1   1  35    4.40    5.80
  -1   1 -35   -1.40    4.90
  -3  -1 -35   24.80    9.50
   3   1  35   18.40   10.10
  -3   1 -35   42.00   11.60
   2  -2 -35    9.00    8.90
   2  -2 -35   27.80    7.90
   2   2 -35   19.80    8.70
  -2   2  35   17.30    7.00
   2   2 -35   14.00    6.20
   0  -2 -35   56.59   14.10
   0  -2 -35   48.60   10.10
   0  -2  35   62.59   12.50
   0  -2 -35   51.19   10.90
   0   2  35   37.30   12.10
   0   2 -35   63.89   13.70
   2  -2  35   19.60    7.10
  -2  -2 -35    5.30    5.00
  -2  -2 -35   -5.10    5.90
  -2   2 -35    2.90    7.50
   2   2  35   12.70    8.40
   1  -3 -35    0.10    6.00
   1  -3 -35   -0.40    7.40
  -1   3  35    0.10    6.90
   1   3 -35    9.90    8.30
  -1   3  35    5.20    5.30
   1  -3  35   64.69   12.40
   1   3  35   64.49   15.90
  -1   3 -35   78.39   16.00
   1   3  35   74.49   15.10
  -2   0  36  144.09   15.30
   2   0 -36  139.49   14.40
   2   0 -36  111.09   18.70
   0   0  36  197.38   22.10
   0   0 -36  212.38   22.10
   0   0  36  251.37   17.60
  -2   0 -36   -6.10    7.30
   2   0  36   12.20    7.70
   3  -1 -36   38.20   10.80
   3  -1 -36   16.60    9.80
  -3   1  36   31.70    8.50
   3   1 -36   20.70   11.60
  -1  -1  36   15.30    8.50
   1  -1 -36   19.10    9.00
   1  -1 -36   16.10    5.50
   1   1 -36   14.10    8.20
  -1   1  36   18.10    6.00
   1  -1  36    3.40    7.10
  -1  -1 -36    4.40    7.20
   1  -1  36    5.00    6.10
   1   1  36  -11.10    7.00
  -1   1 -36    4.30    7.30
   1   1  36   10.70    6.70
   2  -2 -36    7.00    5.80
   2  -2 -36   -9.60    6.50
   2   2 -36   12.70    8.50
   2   2 -36   -5.80    4.80
   0  -2 -36   25.40    8.20
   0  -2  36   41.00    9.70
   0  -2 -36   46.20   13.50
   0  -2 -36   30.90   10.60
   0   2  36   38.60   12.30
   0   2 -36   29.90   11.90
   0   2  36   30.90   10.10
   1  -3 -36   42.00   13.40
   1  -3 -36   29.00    9.80
  -1   3  36   41.50   11.50
  -1   3  36   58.09   13.10
   1   3 -36   11.30   11.00
   2   0 -37   -6.70    5.70
  -2   0  37    4.60    7.60
   0   0  37    5.80    5.80
   0   0 -37    0.90    6.80
   0   0  37   10.60    8.30
   1  -1 -37   10.10    5.80
   1  -1 -37  -11.60    6.50
   1   1 -37  -14.10    5.50
  -1   1  37    8.70    5.50
  -1  -1 -37   35.00   11.90
   1  -1  37   47.90   11.90
  -1   1 -37   37.10   11.70
   1   1  37   44.60   12.60
   1   1  37   55.09   11.00
   0  -2  37   68.09   13.40
   0  -2 -37   81.49   12.30
   0  -2 -37   73.99   16.40
   0   2 -37   72.59   15.50
   0   2  37   75.49   15.80
   0   2  37   77.29   14.10
   0   0  38   27.20    7.60
   0   0  38   26.60   13.30
   0   0 -38   42.10   12.70
   1  -1 -38    2.40    6.00
   1  -1 -38    7.10   10.90
  -1   1  38   -9.60    4.50
  -1   1  38   -3.30    6.60
   1   1 -38    5.70    7.80
   0   0   0    0.00    0.00

_computing_structure_solution     'SHELXT 2014/5 (Sheldrick, 2014)'
;
_shelx_hkl_checksum              80187
loop_
_space_group_symop_operation_xyz
'x, y, z'
'-x, y, -z+1/2'
'x+1/2, y+1/2, z'
'-x+1/2, y+1/2, -z+1/2'
'-x, -y, -z'
'x, -y, z-1/2'
'-x+1/2, -y+1/2, -z'
'x+1/2, -y+1/2, z-1/2'
loop_
_atom_site_label
_atom_site_type_symbol
_atom_site_fract_x
_atom_site_fract_y
_atom_site_fract_z
_atom_site_U_iso_or_equiv
_atom_site_adp_type
_atom_site_occupancy
_atom_site_site_symmetry_order
_atom_site_calc_flag
_atom_site_refinement_flags_posn
_atom_site_refinement_flags_adp
_atom_site_refinement_flags_occupancy
S1 S 0.75848(8) 0.67935(8) 0.68020(2) 0.04719(19) Uani 1 1 d . . .
N2 N 0.4049(2) 0.7501(2) 0.65143(5) 0.0357(4) Uani 1 1 d . . .
N1 N 0.4265(2) 0.6172(2) 0.71343(5) 0.0346(4) Uani 1 1 d . . .
O1 O 0.3969(3) 0.2498(2) 0.54892(6) 0.0589(5) Uani 1 1 d . . .
H1 H 0.3493 0.1915 0.5291 0.088 Uiso 1 1 calc R U .
O2 O 0.2590(3) 0.4586(2) 0.51053(6) 0.0647(5) Uani 1 1 d . . .
C2 C 0.5290(3) 0.6835(3) 0.68166(6) 0.0319(4) Uani 1 1 d . . .
C4 C 0.2285(3) 0.7222(3) 0.66411(7) 0.0415(5) Uani 1 1 d . . .
H4 H 0.1202 0.7549 0.6487 0.050 Uiso 1 1 calc R U .
C3 C 0.2412(3) 0.6405(3) 0.70211(7) 0.0393(5) Uani 1 1 d . . .
H3 H 0.1439 0.6054 0.7182 0.047 Uiso 1 1 calc R U .
C8 C 0.3571(3) 0.4102(3) 0.54189(7) 0.0411(5) Uani 1 1 d . . .
C5 C 0.4505(3) 0.8220(3) 0.60964(7) 0.0423(5) Uani 1 1 d . . .
H5A H 0.5830 0.8307 0.6089 0.051 Uiso 1 1 calc R U .
H5B H 0.3995 0.9362 0.6066 0.051 Uiso 1 1 calc R U .
C1 C 0.5000 0.5159(4) 0.7500 0.0381(7) Uani 1 2 d S T P
H1A H 0.5966 0.4427 0.7402 0.046 Uiso 0.5 1 calc R U P
H1B H 0.4034 0.4427 0.7598 0.046 Uiso 0.5 1 calc R U P
C6 C 0.3756(3) 0.7119(3) 0.57163(7) 0.0439(5) Uani 1 1 d . . .
H6A H 0.2424 0.7146 0.5704 0.053 Uiso 1 1 calc R U .
H6B H 0.4150 0.7592 0.5445 0.053 Uiso 1 1 calc R U .
C7 C 0.4401(3) 0.5276(3) 0.57590(7) 0.0433(5) Uani 1 1 d . . .
H7A H 0.5726 0.5251 0.5745 0.052 Uiso 1 1 calc R U .
H7B H 0.4117 0.4852 0.6045 0.052 Uiso 1 1 calc R U .
loop_
_atom_site_aniso_label
_atom_site_aniso_U_11
_atom_site_aniso_U_22
_atom_site_aniso_U_33
_atom_site_aniso_U_23
_atom_site_aniso_U_13
_atom_site_aniso_U_12
S1 0.0339(3) 0.0578(4) 0.0500(4) -0.0013(3) 0.0038(2) -0.0007(3)
N2 0.0344(9) 0.0383(10) 0.0341(9) -0.0007(8) 0.0008(7) 0.0014(8)
N1 0.0334(9) 0.0381(9) 0.0322(9) -0.0014(7) 0.0019(7) -0.0012(7)
O1 0.0735(13) 0.0467(10) 0.0538(11) -0.0059(8) -0.0165(9) 0.0051(9)
O2 0.0858(14) 0.0520(11) 0.0522(11) -0.0048(9) -0.0282(10) 0.0050(10)
C2 0.0338(11) 0.0309(10) 0.0310(10) -0.0061(8) 0.0019(8) -0.0013(8)
C4 0.0325(11) 0.0487(13) 0.0428(12) -0.0024(10) -0.0025(9) 0.0046(10)
C3 0.0303(11) 0.0454(13) 0.0423(12) -0.0043(10) 0.0038(9) -0.0021(9)
C8 0.0408(12) 0.0470(13) 0.0356(11) -0.0019(10) 0.0016(10) 0.0034(10)
C5 0.0497(13) 0.0409(12) 0.0362(11) 0.0036(10) 0.0024(10) -0.0025(10)
C1 0.0423(17) 0.0352(16) 0.0364(16) 0.000 -0.0001(13) 0.000
C6 0.0496(13) 0.0472(13) 0.0345(12) 0.0036(10) -0.0015(10) 0.0041(11)
C7 0.0433(12) 0.0479(14) 0.0378(12) -0.0034(10) -0.0045(10) 0.0047(10)
loop_
_atom_type_symbol
_atom_type_description
_atom_type_scat_dispersion_real
_atom_type_scat_dispersion_imag
_atom_type_scat_source
C C 0.0033 0.0016 'International Tables Vol C Tables 4.2.6.8 and 6.1.1.4'
H H 0.0000 0.0000 'International Tables Vol C Tables 4.2.6.8 and 6.1.1.4'
Hg Hg -2.3894 9.2266 'International Tables Vol C Tables 4.2.6.8 and 6.1.1.4'
I I -0.4742 1.8119 'International Tables Vol C Tables 4.2.6.8 and 6.1.1.4'
N N 0.0061 0.0033 'International Tables Vol C Tables 4.2.6.8 and 6.1.1.4'
O O 0.0106 0.0060 'International Tables Vol C Tables 4.2.6.8 and 6.1.1.4'
S S 0.1246 0.1234 'International Tables Vol C Tables 4.2.6.8 and 6.1.1.4'
loop_
_geom_angle_atom_site_label_1
_geom_angle_atom_site_label_2
_geom_angle_atom_site_label_3
_geom_angle
_geom_angle_site_symmetry_1
_geom_angle_site_symmetry_3
C2 N2 C4 109.82(18) . .
C2 N2 C5 124.68(18) . .
C4 N2 C5 125.14(18) . .
C2 N1 C3 109.93(17) . .
C2 N1 C1 124.50(15) . .
C3 N1 C1 124.98(15) . .
C8 O1 H1 109.5 . .
N2 C2 N1 105.10(17) . .
N2 C2 S1 127.77(16) . .
N1 C2 S1 127.13(16) . .
C3 C4 N2 107.93(19) . .
C3 C4 H4 126.0 . .
N2 C4 H4 126.0 . .
C4 C3 N1 107.21(19) . .
C4 C3 H3 126.4 . .
N1 C3 H3 126.4 . .
O2 C8 O1 122.8(2) . .
O2 C8 C7 123.4(2) . .
O1 C8 C7 113.72(19) . .
N2 C5 C6 111.32(18) . .
N2 C5 H5A 109.4 . .
C6 C5 H5A 109.4 . .
N2 C5 H5B 109.4 . .
C6 C5 H5B 109.4 . .
H5A C5 H5B 108.0 . .
N1 C1 N1 113.6(2) . 2_656
N1 C1 H1A 108.9 . .
N1 C1 H1A 108.9 2_656 .
N1 C1 H1B 108.9 . .
N1 C1 H1B 108.9 2_656 .
H1A C1 H1B 107.7 . .
C7 C6 C5 112.12(18) . .
C7 C6 H6A 109.2 . .
C5 C6 H6A 109.2 . .
C7 C6 H6B 109.2 . .
C5 C6 H6B 109.2 . .
H6A C6 H6B 107.9 . .
C8 C7 C6 114.53(19) . .
C8 C7 H7A 108.6 . .
C6 C7 H7A 108.6 . .
C8 C7 H7B 108.6 . .
C6 C7 H7B 108.6 . .
H7A C7 H7B 107.6 . .
loop_
_geom_bond_atom_site_label_1
_geom_bond_atom_site_label_2
_geom_bond_distance
_geom_bond_site_symmetry_2
S1 C2 1.677(2) .
N2 C2 1.358(3) .
N2 C4 1.384(3) .
N2 C5 1.456(3) .
N1 C2 1.366(3) .
N1 C3 1.385(3) .
N1 C1 1.448(2) .
O1 C8 1.303(3) .
O1 H1 0.8200 .
O2 C8 1.222(3) .
C4 C3 1.326(3) .
C4 H4 0.9300 .
C3 H3 0.9300 .
C8 C7 1.489(3) .
C5 C6 1.522(3) .
C5 H5A 0.9700 .
C5 H5B 0.9700 .
C1 N1 1.448(2) 2_656
C1 H1A 0.9700 .
C1 H1B 0.9700 .
C6 C7 1.519(3) .
C6 H6A 0.9700 .
C6 H6B 0.9700 .
C7 H7A 0.9700 .
C7 H7B 0.9700 .
