#------------------------------------------------------------------------------
#$Date: 2018-10-31 01:27:16 +0200 (Wed, 31 Oct 2018) $
#$Revision: 211710 $
#$URL: file:///home/coder/svn-repositories/cod/cif/1/55/01/1550163.cif $
#------------------------------------------------------------------------------
#
# This file is available in the Crystallography Open Database (COD),
# http://www.crystallography.net/
#
# All data on this site have been placed in the public domain by the
# contributors.
#
data_1550163
loop_
_publ_author_name
'Lu, Xing'
'Shen, Wangqiang'
'Bao, Lipiao'
'Hu, Shuaifeng'
'Yang, Le'
'Jin, Peng'
'Xie, Yun-Peng'
'Akasaka, Takeshi'
_publ_section_title
;
 Crystallographic Characterization of Lu2C2n (2n = 76-90): Cluster
 Selection by Cage Size
;
_journal_name_full               'Chemical Science'
_journal_paper_doi               10.1039/C8SC03886D
_journal_year                    2019
_chemical_formula_moiety         'Lu2 C86, C36 H44 N4 Ni, 2(C6 H6) '
_chemical_formula_sum            'C134 H56 Lu2 N4 Ni'
_chemical_formula_weight         2130.47
_chemical_name_common            'Lu2@Cs(15)-C86 Ni(OEP)'
_chemical_name_systematic        'Lu2@Cs(15)-C86 Ni(OEP)'
_space_group_crystal_system      monoclinic
_space_group_IT_number           12
_space_group_name_Hall           '-C 2y'
_space_group_name_H-M_alt        'C 1 2/m 1'
_symmetry_space_group_name_Hall  '-C 2y'
_symmetry_space_group_name_H-M   'C 1 2/m 1'
_atom_sites_solution_hydrogens   geom
_audit_creation_method           SHELXL-2014/7
_audit_update_record
;
2017-10-26 deposited with the CCDC.
2018-10-29 downloaded from the CCDC.
;
_cell_angle_alpha                90
_cell_angle_beta                 90.220(5)
_cell_angle_gamma                90
_cell_formula_units_Z            4
_cell_length_a                   24.149(5)
_cell_length_b                   18.020(5)
_cell_length_c                   18.486(5)
_cell_measurement_reflns_used    9777
_cell_measurement_temperature    173(2)
_cell_measurement_theta_max      25.485
_cell_measurement_theta_min      2.978
_cell_volume                     8044(4)
_computing_cell_refinement       'SAINT (Bruker, 2014)'
_computing_data_collection       'Apex2 (Bruker, 2014)'
_computing_data_reduction        'SAINT (Bruker, 2014)'
_computing_structure_refinement  'SHELXL-2014/7 (Sheldrick, 2014)'
_computing_structure_solution    'SHELXTL XT-2014/4 (Sheldrick, 2014)'
_diffrn_ambient_temperature      173(2)
_diffrn_detector_area_resol_mean 8.3
_diffrn_measured_fraction_theta_full 0.998
_diffrn_measured_fraction_theta_max 0.992
_diffrn_measurement_device_type  'Bruker D8 Quest'
_diffrn_measurement_method       \w
_diffrn_radiation_type           MoK\a
_diffrn_radiation_wavelength     0.71069
_diffrn_reflns_av_R_equivalents  0.0258
_diffrn_reflns_av_unetI/netI     0.0208
_diffrn_reflns_Laue_measured_fraction_full 0.998
_diffrn_reflns_Laue_measured_fraction_max 0.992
_diffrn_reflns_limit_h_max       29
_diffrn_reflns_limit_h_min       -29
_diffrn_reflns_limit_k_max       20
_diffrn_reflns_limit_k_min       -21
_diffrn_reflns_limit_l_max       22
_diffrn_reflns_limit_l_min       -22
_diffrn_reflns_number            38173
_diffrn_reflns_point_group_measured_fraction_full 0.998
_diffrn_reflns_point_group_measured_fraction_max 0.992
_diffrn_reflns_theta_full        25.240
_diffrn_reflns_theta_max         25.479
_diffrn_reflns_theta_min         2.979
_diffrn_source                   'fine-focus sealed tube'
_exptl_absorpt_coefficient_mu    2.736
_exptl_absorpt_correction_T_max  0.7452
_exptl_absorpt_correction_T_min  0.6470
_exptl_absorpt_correction_type   multi-scan
_exptl_absorpt_process_details   SADABS
_exptl_crystal_colour            Black
_exptl_crystal_density_diffrn    1.759
_exptl_crystal_description       Block
_exptl_crystal_F_000             4232
_exptl_crystal_size_max          0.180
_exptl_crystal_size_mid          0.120
_exptl_crystal_size_min          0.100
_refine_diff_density_max         1.093
_refine_diff_density_min         -0.983
_refine_diff_density_rms         0.104
_refine_ls_extinction_method     none
_refine_ls_goodness_of_fit_ref   1.022
_refine_ls_hydrogen_treatment    constr
_refine_ls_matrix_type           full
_refine_ls_number_parameters     866
_refine_ls_number_reflns         7675
_refine_ls_number_restraints     883
_refine_ls_restrained_S_all      1.090
_refine_ls_R_factor_all          0.0907
_refine_ls_R_factor_gt           0.0787
_refine_ls_shift/su_max          0.000
_refine_ls_shift/su_mean         0.000
_refine_ls_structure_factor_coef Fsqd
_refine_ls_weighting_details
'w=1/[\s^2^(Fo^2^)+(0.1417P)^2^+43.7460P] where P=(Fo^2^+2Fc^2^)/3'
_refine_ls_weighting_scheme      calc
_refine_ls_wR_factor_gt          0.2200
_refine_ls_wR_factor_ref         0.2352
_reflns_Friedel_coverage         0.000
_reflns_number_gt                6457
_reflns_number_total             7675
_reflns_threshold_expression     'I > 2\s(I)'
_cod_data_source_file            c8sc03886d2.cif
_cod_data_source_block           Lu2@Cs15-C86
_cod_depositor_comments
;
The following automatic conversions were performed:

'_exptl_absorpt_correction_type' value 'Multi-scan' changed to
'multi-scan' according to
/home/data/users/saulius/crontab/automatic-downloads/rss-feeds/RSC/lib/dictionaries/cif_core.dic
dictionary named 'cif_core.dic' version 2.4.2 from 2011-04-26.

Automatic conversion script
Id: cif_fix_values 4973 2017-02-22 13:04:09Z antanas 
;
_cod_database_code               1550163
_shelx_shelxl_version_number     2014/7
_shelx_space_group_comment
;
The symmetry employed for this shelxl refinement is uniquely defined
by the following loop, which should always be used as a source of
symmetry information in preference to the above space-group names.
They are only intended as comments.
;
_shelx_estimated_absorpt_t_min   0.681
_shelx_estimated_absorpt_t_max   0.761
_shelx_res_file
;

    33.res created by SHELXL-2014/7


TITL 33 in C2/m
CELL  0.71069   24.1490   18.0200   18.4860    90.000    90.220    90.000
ZERR        4    0.0050    0.0050    0.0050     0.000     0.005     0.000
LATT   7
SYMM             - X ,              Y ,            - Z
SFAC  C  H Lu  N Ni
UNIT 536 224 8 16 4
LIST 6 ! automatically inserted. Change 6 to 4 for CHECKCIF!!
L.S. 6
SIMU 0.025 c1 > c86
simu 0.025 lu1 > lu11
FMAP 2
PLAN 10
ACTA
BOND $H
CONF
ABIN
WGHT    0.141700   43.746006
FVAR       0.04847
PART   1
LU1   3    0.166216    0.500000    0.170497    10.10414    0.02482    0.14537 =
         0.04395    0.00000   -0.00961    0.00000
LU2   3    0.267544    0.548974    0.284394    10.14792    0.06854    0.08911 =
         0.04980   -0.04568   -0.03120    0.03086
LU3   3    0.331863    0.500000    0.171349    10.07226    0.03156    0.21595 =
         0.11346    0.00000   -0.01531    0.00000
LU4   3    0.318801    0.445395    0.194144    10.13440    0.03096    0.06588 =
         0.03781   -0.00989   -0.00993    0.03285
LU5   3    0.237631    0.459720    0.097341    10.11285    0.27455    0.20243 =
         0.04312   -0.05533   -0.03093   -0.01813
LU6   3    0.280159    0.419078    0.248594    10.10509    0.29334    0.16335 =
         0.23784    0.05076   -0.14989    0.03632
LU7   3    0.208604    0.420893    0.136647    10.08651    0.05890    0.06561 =
         0.06527   -0.03888   -0.01634   -0.01026
LU8   3    0.191589    0.424502    0.181714    10.07105    0.08013    0.12320 =
         0.12363    0.02564   -0.04654   -0.06811
LU9   3    0.246501    0.526901    0.082659    10.06885    0.05976    0.07298 =
         0.02325    0.00753   -0.00709   -0.01612
LU10  3    0.242027    0.479618    0.295513    10.05290    0.11598    0.13810 =
         0.04647    0.03474    0.01365    0.07639
LU11  3    0.190215    0.537317    0.129072    10.04403    0.06631    0.15541 =
         0.12880    0.09969   -0.06687   -0.05729
PART -1 10.5
AFIX   6
C1    1    0.308313    0.272567    0.229533    10.50000    0.12993    0.04313 =
         0.15292   -0.00725   -0.05232    0.03615
C2    1    0.315160    0.309958    0.299908    10.50000    0.13596    0.06951 =
         0.14053    0.04256   -0.04070    0.02819
C3    1    0.272300    0.320240    0.338174    10.50000    0.17633    0.06685 =
         0.09616    0.03985    0.01522    0.03755
C4    1    0.224281    0.290439    0.305508    10.50000    0.15384    0.07308 =
         0.16476    0.08687    0.03110    0.01468
C5    1    0.252613    0.258712    0.242126    10.50000    0.16512    0.04424 =
         0.18294    0.02518   -0.03945    0.02098
C6    1    0.226377    0.257387    0.196354    10.50000    0.15166    0.03348 =
         0.18472    0.00523   -0.04831    0.00987
C7    1    0.242103    0.270175    0.120307    10.50000    0.14906    0.04417 =
         0.15230   -0.04632   -0.04157    0.00854
C8    1    0.314348    0.293149    0.099480    10.50000    0.13440    0.10858 =
         0.14919   -0.08489   -0.04011    0.08814
C9    1    0.344962    0.291313    0.168186    10.50000    0.12202    0.10602 =
         0.15735   -0.03398   -0.03557    0.09707
C10   1    0.386855    0.350857    0.166705    10.50000    0.09201    0.15099 =
         0.10731   -0.05714   -0.04376    0.10661
C11   1    0.392373    0.389245    0.240294    10.50000    0.05829    0.13478 =
         0.15448    0.02346   -0.05752    0.04607
C12   1    0.354347    0.370157    0.300422    10.50000    0.12390    0.06464 =
         0.14067    0.00677   -0.11476    0.01923
C13   1    0.343956    0.435174    0.349472    10.50000    0.12152    0.08845 =
         0.11862    0.04303   -0.09902   -0.04460
C14   1    0.298711    0.444285    0.395892    10.50000    0.17390    0.14196 =
         0.08676    0.03125   -0.07776    0.00043
C15   1    0.260398    0.376142    0.385513    10.50000    0.18246    0.10972 =
         0.07402    0.06392   -0.01213   -0.00141
C16   1    0.212157    0.410863    0.401126    10.50000    0.15718    0.11028 =
         0.03647    0.04139    0.02266    0.01026
C17   1    0.167295    0.384034    0.359346    10.50000    0.12845    0.13112 =
         0.08112    0.05367    0.04134   -0.01049
C18   1    0.175145    0.323425    0.315102    10.50000    0.13567    0.09323 =
         0.13901    0.06973    0.03207   -0.03340
C19   1    0.142755    0.318344    0.241806    10.50000    0.11816    0.09288 =
         0.13898    0.06719   -0.01531   -0.06078
C20   1    0.169005    0.283307    0.178867    10.50000    0.06883    0.03825 =
         0.17689    0.00901   -0.04677   -0.01408
C21   1    0.160617    0.316418    0.109951    10.50000    0.08280    0.08818 =
         0.10078   -0.01028   -0.03053   -0.05687
C22   1    0.213974    0.310347    0.060691    10.50000    0.12273    0.06672 =
         0.10263   -0.05828   -0.01555   -0.01702
C23   1    0.230689    0.362353    0.020581    10.50000    0.16275    0.10328 =
         0.06952   -0.03325   -0.02865   -0.00307
C24   1    0.296079    0.393284    0.006963    10.50000    0.18184    0.17064 =
         0.10222   -0.07809    0.01918    0.04149
C25   1    0.338869    0.349527    0.051025    10.50000    0.11368    0.18310 =
         0.11368   -0.11907   -0.04365    0.06822
C26   1    0.387632    0.378050    0.091885    10.50000    0.11727    0.20389 =
         0.16921   -0.05451   -0.00689    0.06520
C27   1    0.404877    0.455152    0.076963    10.50000    0.08892    0.19612 =
         0.13123    0.00578    0.05578    0.05159
C28   1    0.420198    0.479820    0.139586    10.50000    0.04271    0.17186 =
         0.10207    0.01492    0.01540    0.01896
C29   1    0.413642    0.459482    0.210247    10.50000    0.03706    0.16990 =
         0.11865   -0.01449   -0.01699    0.01159
C30   1    0.402379    0.520309    0.263338    10.50000    0.07704    0.16397 =
         0.12079    0.02663   -0.05985   -0.04662
C31   1    0.351848    0.576263    0.335294    10.50000    0.12175    0.15872 =
         0.08559    0.02722   -0.04064   -0.08715
C32   1    0.370007    0.501352    0.324277    10.50000    0.07288    0.09618 =
         0.10163    0.02874   -0.07159   -0.04487
C33   1    0.306605    0.588496    0.378723    10.50000    0.10945    0.16575 =
         0.06778   -0.05727   -0.03646    0.01050
C34   1    0.279045    0.518015    0.409464    10.50000    0.09655    0.14468 =
         0.03326    0.00105   -0.02131   -0.03677
C35   1    0.225964    0.539553    0.414753    10.50000    0.10678    0.19843 =
         0.04057   -0.03806    0.00159   -0.00268
C36   1    0.183757    0.472399    0.406075    10.50000    0.11561    0.15318 =
         0.03808    0.00694    0.03530    0.00321
C37   1    0.136098    0.483667    0.370466    10.50000    0.09653    0.13784 =
         0.07957    0.00884    0.05163   -0.02253
C38   1    0.124031    0.412366    0.331049    10.50000    0.10100    0.15413 =
         0.12134    0.04407    0.05360   -0.03360
C39   1    0.094155    0.442712    0.283478    10.50000    0.06529    0.14999 =
         0.11848    0.03889    0.04927   -0.02369
C40   1    0.103041    0.377268    0.231103    10.50000    0.06960    0.10527 =
         0.12977    0.00666    0.04248   -0.03830
C41   1    0.096054    0.408381    0.157725    10.50000    0.06273    0.10910 =
         0.11756    0.02174   -0.01871   -0.02603
C42   1    0.128696    0.380089    0.099218    10.50000    0.07411    0.13248 =
         0.06786   -0.01194   -0.01779   -0.04567
C43   1    0.145717    0.437927    0.044956    10.50000    0.10066    0.14183 =
         0.08272   -0.00450   -0.05192   -0.01396
C44   1    0.224267    0.490321   -0.022320    10.50000    0.16347    0.14468 =
         0.06308    0.00904   -0.04292   -0.01785
C45   1    0.194569    0.426450    0.005679    10.50000    0.12918    0.16703 =
         0.06416   -0.02357   -0.04902   -0.01498
C46   1    0.281779    0.521001   -0.029185    10.50000    0.16254    0.17661 =
         0.04525    0.01374    0.00001   -0.00452
C47   1    0.321035    0.466183   -0.016092    10.50000    0.15440    0.18820 =
         0.06030   -0.02723    0.03742    0.03851
C48   1    0.372704    0.493219    0.020189    10.50000    0.13980    0.22120 =
         0.09477    0.01457    0.07147    0.02864
C49   1    0.362346    0.559601    0.024496    10.50000    0.12754    0.17596 =
         0.09840    0.06095    0.06699   -0.00066
C50   1    0.390200    0.586018    0.076647    10.50000    0.07646    0.12257 =
         0.14844    0.04179    0.06452   -0.02336
C51   1    0.412450    0.567032    0.130840    10.50000    0.05710    0.17936 =
         0.09816    0.02730    0.00870   -0.04254
C52   1    0.411619    0.577654    0.205050    10.50000    0.06737    0.17027 =
         0.14309   -0.00141   -0.01093   -0.07059
C53   1    0.384453    0.636974    0.226611    10.50000    0.11110    0.13909 =
         0.15896    0.00137   -0.01236   -0.06538
C54   1    0.358640    0.645322    0.287959    10.50000    0.10012    0.10295 =
         0.08196   -0.00463   -0.01984   -0.07061
C55   1    0.325998    0.695301    0.268013    10.50000    0.12775    0.09847 =
         0.14839   -0.02814   -0.03483   -0.05290
C56   1    0.262521    0.710179    0.300540    10.50000    0.14962    0.09752 =
         0.14728   -0.06780   -0.04189    0.01166
C57   1    0.259307    0.659581    0.358555    10.50000    0.16866    0.14082 =
         0.09322   -0.06248   -0.03034    0.02007
C58   1    0.208938    0.627634    0.377900    10.50000    0.12401    0.15403 =
         0.08091   -0.07218   -0.00771    0.02610
C59   1    0.156659    0.640648    0.343318    10.50000    0.10225    0.09112 =
         0.09989   -0.03138    0.01330    0.04338
C60   1    0.119888    0.561603    0.340791    10.50000    0.08361    0.12370 =
         0.10280    0.01361    0.04839    0.01060
C61   1    0.091344    0.574089    0.263610    10.50000    0.05555    0.10848 =
         0.13155    0.02581    0.00704    0.02836
C62   1    0.079442    0.488318    0.240236    10.50000    0.05125    0.11762 =
         0.13829    0.02879    0.00753   -0.03520
C63   1    0.080598    0.475107    0.170118    10.50000    0.08244    0.10596 =
         0.11115   -0.00136   -0.01632   -0.01762
C64   1    0.094035    0.532591    0.115594    10.50000    0.11950    0.10981 =
         0.10577    0.00476   -0.03124    0.01298
C65   1    0.125532    0.510494    0.053664    10.50000    0.12294    0.11204 =
         0.08348    0.01600   -0.05663    0.00229
C66   1    0.152808    0.573655    0.023103    10.50000    0.16944    0.17147 =
         0.11513    0.03265   -0.06322    0.01978
C67   1    0.204051    0.563651   -0.012061    10.50000    0.19378    0.17847 =
         0.09338    0.03828   -0.06340   -0.00302
C68   1    0.242719    0.621761   -0.003853    10.50000    0.19011    0.15169 =
         0.08076    0.08251   -0.02836   -0.02030
C69   1    0.294168    0.629113    0.000957    10.50000    0.18822    0.12923 =
         0.10587    0.09944    0.01879   -0.00556
C70   1    0.315033    0.578874   -0.009875    10.50000    0.16778    0.15193 =
         0.05869    0.06420    0.03950    0.01127
C71   1    0.313182    0.673662    0.053549    10.50000    0.15933    0.10441 =
         0.14281    0.08445    0.03064   -0.00419
C72   1    0.362661    0.650222    0.090804    10.50000    0.12172    0.11671 =
         0.18370    0.06815    0.04788   -0.04644
C73   1    0.365841    0.677715    0.156978    10.50000    0.11008    0.08078 =
         0.16543    0.02836    0.02468   -0.05394
C74   1    0.318168    0.720500    0.194016    10.50000    0.11649    0.06971 =
         0.18074   -0.00497   -0.00390   -0.05405
C75   1    0.270217    0.739152    0.164018    10.50000    0.10330    0.02821 =
         0.18638    0.03128   -0.03271   -0.02316
C76   1    0.205165    0.736617    0.186364    10.50000    0.12488    0.05505 =
         0.21249    0.01434   -0.03960    0.04671
C77   1    0.211077    0.725768    0.263151    10.50000    0.12921    0.04112 =
         0.14549   -0.03384   -0.00846    0.03740
C78   1    0.161153    0.693065    0.287101    10.50000    0.10952    0.08377 =
         0.13763   -0.04295   -0.01758    0.05686
C79   1    0.127390    0.676072    0.225925    10.50000    0.07022    0.10512 =
         0.17382   -0.02692   -0.02120    0.05500
C80   1    0.103611    0.626780    0.207346    10.50000    0.08813    0.11798 =
         0.14738   -0.02020   -0.02601    0.04210
C81   1    0.104357    0.609556    0.137103    10.50000    0.12329    0.10894 =
         0.11798    0.01494   -0.03668    0.04790
C82   1    0.147515    0.636478    0.067667    10.50000    0.18015    0.12695 =
         0.15545    0.05152   -0.09083    0.03088
C83   1    0.186905    0.686664    0.087827    10.50000    0.18025    0.13206 =
         0.19163    0.07858   -0.02778    0.04100
C84   1    0.236761    0.677949    0.048659    10.50000    0.17482    0.12244 =
         0.14838    0.08767   -0.00204    0.00870
C85   1    0.271100    0.713813    0.089831    10.50000    0.12010    0.06407 =
         0.15408    0.07677    0.00735   -0.00615
C86   1    0.155517    0.701756    0.161928    10.50000    0.14295    0.09940 =
         0.19069    0.02932   -0.03011    0.07734
AFIX   0
PART 0
PART   2
NI1A  5    0.467918    0.500000    0.416055    10.50000    0.01624    0.02089 =
         0.02386    0.00000   -0.00010    0.00000
N1A   4    0.517983    0.500000    0.332431    10.50000    0.02050    0.02411 =
         0.02826    0.00000   -0.00153    0.00000
N2A   4    0.466487    0.391390    0.414819    11.00000    0.01824    0.02373 =
         0.02596   -0.00063   -0.00106    0.00020
N3A   4    0.416298    0.500000    0.497740    10.50000    0.02104    0.02516 =
         0.02491    0.00000   -0.00409    0.00000
C1A   1    0.563197    0.378171    0.128602    11.00000    0.06107    0.05533 =
         0.04067   -0.01279    0.00959   -0.00057
AFIX 137
H1AA  2    0.549354    0.417723    0.098812    11.00000   -1.50000
H1AB  2    0.532796    0.353688    0.151903    11.00000   -1.50000
H1AC  2    0.582831    0.343187    0.099101    11.00000   -1.50000
AFIX   0
C2A   1    0.602433    0.409915    0.185973    11.00000    0.03844    0.04196 =
         0.03851   -0.00348    0.01581    0.00222
AFIX  23
H2AA  2    0.618372    0.369329    0.213522    11.00000   -1.20000
H2AB  2    0.632468    0.435747    0.162044    11.00000   -1.20000
AFIX   0
C3A   1    0.574268    0.462440    0.236993    11.00000    0.02501    0.03722 =
         0.02885   -0.00134    0.00383    0.00065
C4A   1    0.539161    0.439676    0.296499    11.00000    0.02168    0.03278 =
         0.02344    0.00000    0.00143    0.00129
C5A   1    0.528154    0.366768    0.312709    11.00000    0.02432    0.03043 =
         0.02946   -0.00541    0.00095    0.00441
AFIX  43
H5A   2    0.545111    0.330245    0.284996    11.00000   -1.20000
AFIX   0
C6A   1    0.493502    0.344602    0.367560    11.00000    0.02002    0.02598 =
         0.02788   -0.00027   -0.00236    0.00217
C7A   1    0.480700    0.267850    0.382739    11.00000    0.02424    0.02654 =
         0.03438   -0.00235   -0.00340    0.00326
C8A   1    0.501203    0.203259    0.339640    11.00000    0.03856    0.02528 =
         0.04367   -0.00521    0.00193    0.00390
AFIX  23
H8AA  2    0.499594    0.158912    0.369299    11.00000   -1.20000
H8AB  2    0.539636    0.211673    0.326973    11.00000   -1.20000
AFIX   0
C9A   1    0.467876    0.190495    0.270876    11.00000    0.05902    0.04628 =
         0.05640   -0.02243   -0.00783    0.00918
AFIX 137
H9AA  2    0.472459    0.232087    0.239004    11.00000   -1.50000
H9AB  2    0.429424    0.185114    0.282773    11.00000   -1.50000
H9AC  2    0.480690    0.146220    0.247404    11.00000   -1.50000
AFIX   0
C10A  1    0.446207    0.268003    0.440766    11.00000    0.02391    0.02377 =
         0.03478    0.00108   -0.00466   -0.00070
C11A  1    0.420097    0.203066    0.477932    11.00000    0.03504    0.02364 =
         0.04396    0.00221    0.00097   -0.00254
AFIX  23
H11A  2    0.419189    0.212339    0.529602    11.00000   -1.20000
H11B  2    0.442570    0.159254    0.469829    11.00000   -1.20000
AFIX   0
C12A  1    0.361060    0.188318    0.450725    11.00000    0.04904    0.06228 =
         0.05786    0.00672   -0.00205   -0.03028
AFIX 137
H12A  2    0.361752    0.179099    0.399589    11.00000   -1.50000
H12B  2    0.338288    0.230819    0.460383    11.00000   -1.50000
H12C  2    0.346175    0.145802    0.475168    11.00000   -1.50000
AFIX   0
C13A  1    0.437852    0.344945    0.459593    11.00000    0.01867    0.02400 =
         0.03122   -0.00045   -0.00326   -0.00133
C14A  1    0.404097    0.366928    0.515532    11.00000    0.02224    0.02672 =
         0.02912    0.00457   -0.00125   -0.00205
AFIX  43
H14A  2    0.387611    0.330316    0.543616    11.00000   -1.20000
AFIX   0
C15A  1    0.393359    0.439861    0.532267    11.00000    0.01827    0.02864 =
         0.02513    0.00214   -0.00443   -0.00286
C16A  1    0.355927    0.462333    0.588713    11.00000    0.01893    0.03185 =
         0.02814   -0.00016    0.00042    0.00014
C17A  1    0.322511    0.410591    0.634481    11.00000    0.02960    0.03583 =
         0.03046    0.00346    0.00836   -0.00094
AFIX  23
H17A  2    0.313364    0.435309    0.679490    11.00000   -1.20000
H17B  2    0.344885    0.367501    0.646201    11.00000   -1.20000
AFIX   0
C18A  1    0.269359    0.384899    0.598227    11.00000    0.03587    0.05675 =
         0.05795    0.01591   -0.00117   -0.01701
AFIX 137
H18A  2    0.246521    0.427130    0.587525    11.00000   -1.50000
H18B  2    0.249871    0.351997    0.630068    11.00000   -1.50000
H18C  2    0.278072    0.359322    0.554161    11.00000   -1.50000
AFIX   0
PART 3
dfix 1.46 C1B C2B
C1B   1    0.380496    0.000000    0.177421    10.50000    0.10142    0.37663 =
         0.09312    0.00000   -0.02264    0.00000
AFIX  43
H1BA  2    0.417660   -0.000001    0.164416    10.50000   -1.20000
AFIX   0
C2B   1    0.347185    0.069179    0.189079    11.00000    0.20922    0.10845 =
         0.16523    0.01681   -0.07422   -0.07560
AFIX  43
H2B   2    0.364151    0.115312    0.184988    11.00000   -1.20000
AFIX   0
C3B   1    0.294355    0.065317    0.204990    11.00000    0.13217    0.07639 =
         0.10122    0.00220    0.02162   -0.00148
AFIX  43
H3B   2    0.273490    0.107665    0.214050    11.00000   -1.20000
AFIX   0
C4B   1    0.272835    0.000000    0.207437    10.50000    0.16528    0.10389 =
         0.07104    0.00000    0.04069    0.00000
AFIX  43
H4B   2    0.234482   -0.000001    0.211802    10.50000   -1.20000
AFIX   0
PART 0
PART 4
C1C   1    0.481571    0.239111    0.028471    11.00000    0.09503    0.13194 =
         0.18033   -0.05049   -0.01796   -0.00146
AFIX  43
H1C   2    0.471149    0.285342    0.046158    11.00000   -1.20000
AFIX   0
C2C   1    0.460988    0.184826    0.058405    11.00000    0.07283    0.13232 =
         0.06419   -0.00054    0.00261   -0.02360
AFIX  43
H2C   2    0.435090    0.188804    0.095306    11.00000   -1.20000
AFIX   0
C3C   1    0.479959    0.116250    0.032068    11.00000    0.11515    0.14504 =
         0.18549    0.08003   -0.07430   -0.04178
AFIX  43
H3C   2    0.468481    0.071956    0.053029    11.00000   -1.20000
PART 0
AFIX   0
HKLF 4

REM  33 in C2/m
REM R1 =  0.0787 for    6457 Fo > 4sig(Fo)  and  0.0907 for all    7675 data
REM    866 parameters refined using    883 restraints

END

WGHT      0.1414     43.7680

REM Highest difference peak  1.093,  deepest hole -0.983,  1-sigma level  0.104
Q1    1   0.3201  0.6274  0.3502  11.00000  0.05    1.09
Q2    1   0.2066  0.5000  0.0968  10.50000  0.05    1.06
Q3    1   0.2522  0.5000  0.1901  10.50000  0.05    1.00
Q4    1   0.3095  0.4019  0.1617  11.00000  0.05    0.96
Q5    1   0.3295  0.4414  0.1325  11.00000  0.05    0.89
Q6    1   0.2840  0.5506  0.1038  11.00000  0.05    0.87
Q7    1   0.1798  0.6330  0.0352  11.00000  0.05    0.84
Q8    1   0.4144  0.0000  0.3741  10.50000  0.05    0.82
Q9    1   0.2039  0.5000  0.2910  10.50000  0.05    0.81
Q10   1   0.5000  0.1925  0.0000  10.50000  0.05    0.80
;
_shelx_res_checksum              79756
_shelx_fab_file
;
    4    0    0      9.02      0.00
    6    0    0     11.81      0.00
    8    0    0     20.59      0.00
   10    0    0      6.97      0.00
   12    0    0      3.21      0.00
   14    0    0      5.90      0.00
   16    0    0      2.73      0.00
   18    0    0     -2.52      0.00
   20    0    0     -0.44      0.00
   22    0    0      1.10      0.00
   24    0    0     -0.24      0.00
   26    0    0     -0.55      0.00
   28    0    0      1.16      0.00
   29    1    0     -1.34      0.00
   27    1    0     -0.64      0.00
   25    1    0      0.58      0.00
   23    1    0     -0.99      0.00
   21    1    0     -1.27      0.00
   19    1    0      1.48      0.00
   17    1    0      0.01      0.00
   15    1    0     -5.84      0.00
   13    1    0     -5.09      0.00
   11    1    0     -2.92      0.00
    9    1    0    -13.88      0.00
    7    1    0    -17.55      0.00
    5    1    0     -4.61      0.00
   28    2    0      1.08      0.00
   26    2    0     -0.41      0.00
   24    2    0     -0.48      0.00
   22    2    0      1.39      0.00
   20    2    0     -0.77      0.00
   18    2    0     -2.00      0.00
   16    2    0      2.09      0.00
   14    2    0      6.56      0.00
   12    2    0      2.20      0.00
   10    2    0      8.01      0.00
    8    2    0     18.48      0.00
    6    2    0     13.52      0.00
    4    2    0      6.70      0.00
   27    3    0     -0.76      0.00
   25    3    0      0.71      0.00
   23    3    0     -1.03      0.00
   21    3    0     -1.04      0.00
   19    3    0      1.27      0.00
   17    3    0      0.33      0.00
   15    3    0     -5.70      0.00
   13    3    0     -4.81      0.00
   11    3    0     -2.82      0.00
    9    3    0    -13.21      0.00
    7    3    0    -16.91      0.00
    5    3    0     -4.83      0.00
    3    3    0    -18.52      0.00
    1    3    0    -59.58      0.00
   28    4    0      0.74      0.00
   26    4    0     -0.35      0.00
   24    4    0     -0.32      0.00
   22    4    0      1.02      0.00
   20    4    0     -0.31      0.00
   18    4    0     -2.20      0.00
   16    4    0      2.22      0.00
   14    4    0      5.95      0.00
   12    4    0      2.60      0.00
   10    4    0      6.71      0.00
    8    4    0     18.06      0.00
    6    4    0     11.37      0.00
    4    4    0      8.44      0.00
    2    4    0     39.71      0.00
    0    4    0     67.75      0.00
   27    5    0     -0.32      0.00
   25    5    0      0.22      0.00
   23    5    0     -0.45      0.00
   21    5    0     -1.25      0.00
   19    5    0      1.55      0.00
   17    5    0      0.32      0.00
   15    5    0     -4.85      0.00
   13    5    0     -4.71      0.00
   11    5    0     -2.36      0.00
    9    5    0    -12.20      0.00
    7    5    0    -15.34      0.00
    5    5    0     -5.48      0.00
    3    5    0    -18.34      0.00
    1    5    0    -55.01      0.00
   28    6    0      0.53      0.00
   26    6    0     -0.20      0.00
   24    6    0     -0.32      0.00
   22    6    0      0.97      0.00
   20    6    0     -0.29      0.00
   18    6    0     -2.03      0.00
   16    6    0      1.95      0.00
   14    6    0      5.34      0.00
   12    6    0      2.72      0.00
   10    6    0      5.81      0.00
    8    6    0     15.75      0.00
    6    6    0     10.37      0.00
    4    6    0      8.30      0.00
    2    6    0     36.53      0.00
    0    6    0     59.93      0.00
   27    7    0     -0.61      0.00
   25    7    0      0.49      0.00
   23    7    0     -0.77      0.00
   21    7    0     -0.56      0.00
   19    7    0      1.12      0.00
   17    7    0      0.95      0.00
   15    7    0     -4.39      0.00
   13    7    0     -3.94      0.00
   11    7    0     -2.64      0.00
    9    7    0    -10.11      0.00
    7    7    0    -13.67      0.00
    5    7    0     -5.74      0.00
    3    7    0    -18.05      0.00
    1    7    0    -49.08      0.00
   26    8    0     -0.06      0.00
   24    8    0     -0.17      0.00
   22    8    0      0.83      0.00
   20    8    0     -0.41      0.00
   18    8    0     -1.56      0.00
   16    8    0      1.19      0.00
   14    8    0      5.25      0.00
   12    8    0      2.17      0.00
   10    8    0      5.77      0.00
    8    8    0     12.10      0.00
    6    8    0      9.75      0.00
    4    8    0      7.58      0.00
    2    8    0     32.97      0.00
    0    8    0     50.91      0.00
   25    9    0     -0.08      0.00
   23    9    0     -0.28      0.00
   21    9    0     -0.74      0.00
   19    9    0      1.55      0.00
   17    9    0      0.56      0.00
   15    9    0     -3.03      0.00
   13    9    0     -4.05      0.00
   11    9    0     -2.20      0.00
    9    9    0     -8.65      0.00
    7    9    0    -10.76      0.00
    5    9    0     -6.30      0.00
    3    9    0    -16.74      0.00
    1    9    0    -42.49      0.00
   24   10    0      0.01      0.00
   22   10    0      0.63      0.00
   20   10    0     -0.28      0.00
   18   10    0     -1.58      0.00
   16   10    0      1.42      0.00
   14   10    0      3.81      0.00
   12   10    0      3.33      0.00
   10   10    0      3.97      0.00
    8   10    0     10.42      0.00
    6   10    0      6.86      0.00
    4   10    0      8.70      0.00
    2   10    0     26.94      0.00
    0   10    0     43.74      0.00
   25   11    0      0.14      0.00
   23   11    0     -0.64      0.00
   21   11    0     -0.13      0.00
   19   11    0      0.96      0.00
   17   11    0      0.92      0.00
   15   11    0     -2.75      0.00
   13   11    0     -3.15      0.00
   11   11    0     -2.87      0.00
    9   11    0     -6.21      0.00
    7   11    0     -8.68      0.00
    5   11    0     -5.55      0.00
    3   11    0    -15.28      0.00
    1   11    0    -35.27      0.00
   24   12    0      0.14      0.00
   22   12    0      0.51      0.00
   20   12    0     -0.38      0.00
   18   12    0     -0.93      0.00
   16   12    0      0.76      0.00
   14   12    0      3.72      0.00
   12   12    0      2.64      0.00
   10   12    0      4.32      0.00
    8   12    0      6.79      0.00
    6   12    0      6.41      0.00
    4   12    0      6.96      0.00
    2   12    0     23.43      0.00
    0   12    0     34.23      0.00
   23   13    0     -0.37      0.00
   21   13    0     -0.26      0.00
   19   13    0      0.91      0.00
   17   13    0      0.42      0.00
   15   13    0     -1.75      0.00
   13   13    0     -3.09      0.00
   11   13    0     -2.33      0.00
    9   13    0     -5.06      0.00
    7   13    0     -5.81      0.00
    5   13    0     -5.22      0.00
    3   13    0    -12.77      0.00
    1   13    0    -28.24      0.00
   22   14    0      0.40      0.00
   20   14    0     -0.28      0.00
   18   14    0     -0.59      0.00
   16   14    0      0.68      0.00
   14   14    0      2.74      0.00
   12   14    0      2.78      0.00
   10   14    0      3.28      0.00
    8   14    0      5.24      0.00
    6   14    0      4.50      0.00
    4   14    0      6.76      0.00
    2   14    0     18.34      0.00
    0   14    0     27.23      0.00
   21   15    0     -0.07      0.00
   19   15    0      0.44      0.00
   17   15    0      0.32      0.00
   15   15    0     -1.30      0.00
   13   15    0     -2.28      0.00
   11   15    0     -2.21      0.00
    9   15    0     -3.40      0.00
    7   15    0     -4.15      0.00
    5   15    0     -4.04      0.00
    3   15    0    -10.48      0.00
    1   15    0    -21.54      0.00
   18   16    0     -0.35      0.00
   16   16    0      0.57      0.00
   14   16    0      1.90      0.00
   12   16    0      2.36      0.00
   10   16    0      2.51      0.00
    8   16    0      3.79      0.00
    6   16    0      3.27      0.00
    4   16    0      5.94      0.00
    2   16    0     14.04      0.00
    0   16    0     20.70      0.00
   17   17    0      0.28      0.00
   15   17    0     -0.93      0.00
   13   17    0     -1.47      0.00
   11   17    0     -1.67      0.00
    9   17    0     -2.26      0.00
    7   17    0     -2.63      0.00
    5   17    0     -3.14      0.00
    3   17    0     -7.93      0.00
    1   17    0    -15.68      0.00
   16   18    0      0.19      0.00
   14   18    0      1.49      0.00
   12   18    0      1.40      0.00
   10   18    0      2.12      0.00
    8   18    0      2.20      0.00
    6   18    0      2.80      0.00
    4   18    0      4.24      0.00
    2   18    0     10.81      0.00
    0   18    0     14.32      0.00
   13   19    0     -1.14      0.00
   11   19    0     -0.75      0.00
    9   19    0     -1.54      0.00
    7   19    0     -1.39      0.00
    5   19    0     -2.26      0.00
    3   19    0     -5.51      0.00
    1   19    0    -10.66      0.00
   10   20    0      1.09      0.00
    8   20    0      1.61      0.00
    6   20    0      1.53      0.00
    4   20    0      3.36      0.00
    2   20    0      6.89      0.00
    0   20    0      9.86      0.00
    7   21    0     -0.86      0.00
    5   21    0     -1.17      0.00
    3   21    0     -3.51      0.00
    1   21    0     -6.52      0.00
   -7   21    1      2.21      0.00
   -5   21    1      3.28      0.00
   -3   21    1      5.60      0.00
   -1   21    1      6.81      0.00
    1   21    1      4.41      0.00
    3   21    1      1.10      0.00
    5   21    1      0.08      0.00
    7   21    1      0.86      0.00
  -10   20    1     -0.92      0.00
   -8   20    1     -1.90      0.00
   -6   20    1     -2.73      0.00
   -4   20    1     -5.22      0.00
   -2   20    1     -7.73      0.00
    0   20    1     -7.56      0.00
    2   20    1     -2.64      0.00
    4   20    1     -0.15      0.00
    6   20    1     -0.14      0.00
    8   20    1     -1.14      0.00
   10   20    1     -0.69      0.00
  -13   19    1      1.74      0.00
  -11   19    1      1.29      0.00
   -9   19    1      2.55      0.00
   -7   19    1      3.37      0.00
   -5   19    1      5.31      0.00
   -3   19    1      8.68      0.00
   -1   19    1     10.91      0.00
    1   19    1      7.05      0.00
    3   19    1      1.39      0.00
    5   19    1      0.38      0.00
    7   19    1      1.26      0.00
    9   19    1      1.84      0.00
   11   19    1      0.82      0.00
   13   19    1      0.88      0.00
  -16   18    1     -0.70      0.00
  -14   18    1     -1.83      0.00
  -12   18    1     -1.14      0.00
  -10   18    1     -1.94      0.00
   -8   18    1     -2.92      0.00
   -6   18    1     -4.76      0.00
   -4   18    1     -7.34      0.00
   -2   18    1    -12.48      0.00
    0   18    1    -11.08      0.00
    2   18    1     -4.54      0.00
    4   18    1      0.37      0.00
    6   18    1     -1.02      0.00
    8   18    1     -1.65      0.00
   10   18    1     -1.64      0.00
   12   18    1     -0.58      0.00
   14   18    1     -0.54      0.00
   16   18    1      0.35      0.00
  -17   17    1      0.48      0.00
  -15   17    1      2.25      0.00
  -13   17    1      2.30      0.00
  -11   17    1      2.16      0.00
   -9   17    1      3.57      0.00
   -7   17    1      5.08      0.00
   -5   17    1      7.20      0.00
   -3   17    1     12.24      0.00
   -1   17    1     15.85      0.00
    1   17    1      9.83      0.00
    3   17    1      1.68      0.00
    5   17    1      0.23      0.00
    7   17    1      2.35      0.00
    9   17    1      2.47      0.00
   11   17    1      1.62      0.00
   13   17    1      0.90      0.00
   15   17    1      0.36      0.00
   17   17    1     -0.35      0.00
  -18   16    1     -0.04      0.00
  -16   16    1     -1.47      0.00
  -14   16    1     -2.64      0.00
  -12   16    1     -2.05      0.00
  -10   16    1     -2.63      0.00
   -8   16    1     -5.01      0.00
   -6   16    1     -6.19      0.00
   -4   16    1    -10.62      0.00
   -2   16    1    -17.02      0.00
    0   16    1    -16.46      0.00
    2   16    1     -5.37      0.00
    4   16    1      0.01      0.00
    6   16    1     -1.14      0.00
    8   16    1     -3.27      0.00
   10   16    1     -1.82      0.00
   12   16    1     -1.35      0.00
   14   16    1     -0.46      0.00
   16   16    1      0.19      0.00
   18   16    1      0.43      0.00
  -21   15    1     -0.06      0.00
  -19   15    1     -0.08      0.00
  -17   15    1      0.87      0.00
  -15   15    1      3.10      0.00
  -13   15    1      3.14      0.00
  -11   15    1      2.80      0.00
   -9   15    1      4.95      0.00
   -7   15    1      7.03      0.00
   -5   15    1      8.83      0.00
   -3   15    1     16.29      0.00
   -1   15    1     21.38      0.00
    1   15    1     13.02      0.00
    3   15    1      1.46      0.00
    5   15    1      0.22      0.00
    7   15    1      3.47      0.00
    9   15    1      3.41      0.00
   11   15    1      1.95      0.00
   13   15    1      1.55      0.00
   15   15    1      0.39      0.00
   17   15    1     -0.41      0.00
   19   15    1     -0.02      0.00
   21   15    1      0.48      0.00
  -22   14    1     -0.20      0.00
  -20   14    1      0.21      0.00
  -18   14    1     -0.01      0.00
  -16   14    1     -2.23      0.00
  -14   14    1     -3.63      0.00
  -12   14    1     -2.68      0.00
  -10   14    1     -3.84      0.00
   -8   14    1     -7.21      0.00
   -6   14    1     -8.14      0.00
   -4   14    1    -13.37      0.00
   -2   14    1    -23.01      0.00
    0   14    1    -21.80      0.00
    2   14    1     -6.93      0.00
    4   14    1      0.62      0.00
    6   14    1     -2.31      0.00
    8   14    1     -4.34      0.00
   10   14    1     -2.42      0.00
   12   14    1     -1.50      0.00
   14   14    1     -1.06      0.00
   16   14    1      0.56      0.00
   18   14    1      0.49      0.00
   20   14    1     -0.27      0.00
   22   14    1     -0.78      0.00
  -23   13    1      0.13      0.00
  -21   13    1     -0.03      0.00
  -19   13    1     -0.50      0.00
  -17   13    1      1.30      0.00
  -15   13    1      3.92      0.00
  -13   13    1      3.97      0.00
  -11   13    1      3.12      0.00
   -9   13    1      7.18      0.00
   -7   13    1      8.69      0.00
   -5   13    1     10.76      0.00
   -3   13    1     20.26      0.00
   -1   13    1     28.01      0.00
    1   13    1     16.41      0.00
    3   13    1      0.90      0.00
    5   13    1      0.49      0.00
    7   13    1      4.75      0.00
    9   13    1      4.34      0.00
   11   13    1      1.91      0.00
   13   13    1      2.23      0.00
   15   13    1      0.58      0.00
   17   13    1     -0.60      0.00
   19   13    1     -0.09      0.00
   21   13    1      0.93      0.00
   23   13    1      0.38      0.00
  -24   12    1     -0.18      0.00
  -22   12    1     -0.32      0.00
  -20   12    1      0.59      0.00
  -18   12    1     -0.05      0.00
  -16   12    1     -2.76      0.00
  -14   12    1     -4.88      0.00
  -12   12    1     -2.68      0.00
  -10   12    1     -5.87      0.00
   -8   12    1     -9.28      0.00
   -6   12    1    -10.48      0.00
   -4   12    1    -15.52      0.00
   -2   12    1    -30.04      0.00
    0   12    1    -27.35      0.00
    2   12    1     -8.67      0.00
    4   12    1      1.69      0.00
    6   12    1     -4.12      0.00
    8   12    1     -5.34      0.00
   10   12    1     -2.77      0.00
   12   12    1     -1.50      0.00
   14   12    1     -1.71      0.00
   16   12    1      0.69      0.00
   18   12    1      0.82      0.00
   20   12    1     -0.58      0.00
   22   12    1     -0.86      0.00
   24   12    1     -0.26      0.00
  -25   11    1     -0.38      0.00
  -23   11    1      0.42      0.00
  -21   11    1     -0.33      0.00
  -19   11    1     -0.63      0.00
  -17   11    1      1.27      0.00
  -15   11    1      5.21      0.00
  -13   11    1      3.96      0.00
  -11   11    1      4.25      0.00
   -9   11    1      9.09      0.00
   -7   11    1     11.32      0.00
   -5   11    1     11.73      0.00
   -3   11    1     25.05      0.00
   -1   11    1     35.19      0.00
    1   11    1     19.97      0.00
    3   11    1      0.48      0.00
    5   11    1      0.42      0.00
    7   11    1      7.15      0.00
    9   11    1      4.34      0.00
   11   11    1      2.14      0.00
   13   11    1      2.36      0.00
   15   11    1      1.25      0.00
   17   11    1     -1.13      0.00
   19   11    1      0.17      0.00
   21   11    1      0.99      0.00
   23   11    1      0.69      0.00
   25   11    1     -0.03      0.00
  -24   10    1     -0.10      0.00
  -22   10    1     -0.34      0.00
  -20   10    1      0.63      0.00
  -18   10    1      0.48      0.00
  -16   10    1     -4.05      0.00
  -14   10    1     -4.98      0.00
  -12   10    1     -3.80      0.00
  -10   10    1     -6.69      0.00
   -8   10    1    -13.24      0.00
   -6   10    1    -10.66      0.00
   -4   10    1    -19.12      0.00
   -2   10    1    -35.55      0.00
    0   10    1    -34.86      0.00
    2   10    1     -8.29      0.00
    4   10    1      1.39      0.00
    6   10    1     -4.76      0.00
    8   10    1     -7.84      0.00
   10   10    1     -1.63      0.00
   12   10    1     -2.30      0.00
   14   10    1     -1.89      0.00
   16   10    1      0.33      0.00
   18   10    1      1.13      0.00
   20   10    1     -0.85      0.00
   22   10    1     -1.10      0.00
   24   10    1     -0.20      0.00
  -25    9    1     -0.30      0.00
  -23    9    1      0.09      0.00
  -21    9    1      0.10      0.00
  -19    9    1     -1.41      0.00
  -17    9    1      1.92      0.00
  -15    9    1      5.70      0.00
  -13    9    1      4.65      0.00
  -11    9    1      4.55      0.00
   -9    9    1     12.35      0.00
   -7    9    1     13.03      0.00
   -5    9    1     13.08      0.00
   -3    9    1     29.59      0.00
   -1    9    1     42.86      0.00
    1    9    1     23.88      0.00
    3    9    1     -0.88      0.00
    5    9    1      1.48      0.00
    7    9    1      8.86      0.00
    9    9    1      5.40      0.00
   11    9    1      1.02      0.00
   13    9    1      3.44      0.00
   15    9    1      1.15      0.00
   17    9    1     -0.88      0.00
   19    9    1     -0.20      0.00
   21    9    1      1.60      0.00
   23    9    1      0.36      0.00
   25    9    1      0.30      0.00
  -26    8    1      0.40      0.00
  -24    8    1      0.12      0.00
  -22    8    1     -0.64      0.00
  -20    8    1      1.01      0.00
  -18    8    1      0.27      0.00
  -16    8    1     -4.31      0.00
  -14    8    1     -6.43      0.00
  -12    8    1     -3.04      0.00
  -10    8    1     -9.74      0.00
   -8    8    1    -14.77      0.00
   -6    8    1    -12.70      0.00
   -4    8    1    -19.69      0.00
   -2    8    1    -43.44      0.00
    0    8    1    -39.51      0.00
    2    8    1     -9.78      0.00
    4    8    1      3.90      0.00
    6    8    1     -7.89      0.00
    8    8    1     -8.34      0.00
   10    8    1     -2.31      0.00
   12    8    1     -1.50      0.00
   14    8    1     -3.46      0.00
   16    8    1      0.57      0.00
   18    8    1      0.82      0.00
   20    8    1     -1.04      0.00
   22    8    1     -1.31      0.00
   24    8    1     -0.23      0.00
   26    8    1     -0.55      0.00
  -27    7    1     -0.14      0.00
  -25    7    1     -1.03      0.00
  -23    7    1      0.61      0.00
  -21    7    1     -0.26      0.00
  -19    7    1     -1.29      0.00
  -17    7    1      1.80      0.00
  -15    7    1      6.98      0.00
  -13    7    1      4.47      0.00
  -11    7    1      5.79      0.00
   -9    7    1     14.92      0.00
   -7    7    1     15.16      0.00
   -5    7    1     13.73      0.00
   -3    7    1     34.18      0.00
   -1    7    1     50.77      0.00
    1    7    1     26.88      0.00
    3    7    1     -1.62      0.00
    5    7    1      1.48      0.00
    7    7    1     12.06      0.00
    9    7    1      5.27      0.00
   11    7    1      1.08      0.00
   13    7    1      3.34      0.00
   15    7    1      2.14      0.00
   17    7    1     -1.54      0.00
   19    7    1      0.30      0.00
   21    7    1      1.35      0.00
   23    7    1      0.76      0.00
   25    7    1     -0.11      0.00
   27    7    1      0.89      0.00
  -26    6    1      0.75      0.00
  -24    6    1      0.25      0.00
  -22    6    1     -0.81      0.00
  -20    6    1      1.00      0.00
  -18    6    1      0.50      0.00
  -16    6    1     -5.49      0.00
  -14    6    1     -6.54      0.00
  -12    6    1     -3.89      0.00
  -10    6    1    -10.78      0.00
   -8    6    1    -17.87      0.00
   -6    6    1    -12.17      0.00
   -4    6    1    -21.79      0.00
   -2    6    1    -48.72      0.00
    0    6    1    -45.55      0.00
    2    6    1     -8.48      0.00
    4    6    1      4.56      0.00
    6    6    1     -8.79      0.00
    8    6    1    -10.92      0.00
   10    6    1     -1.27      0.00
   12    6    1     -2.35      0.00
   14    6    1     -3.83      0.00
   16    6    1     -0.24      0.00
   18    6    1      0.94      0.00
   20    6    1     -1.51      0.00
   22    6    1     -1.57      0.00
   24    6    1     -0.21      0.00
   26    6    1     -0.68      0.00
  -27    5    1     -0.80      0.00
  -25    5    1     -0.86      0.00
  -23    5    1      0.25      0.00
  -21    5    1      0.19      0.00
  -19    5    1     -1.82      0.00
  -17    5    1      2.45      0.00
  -15    5    1      7.47      0.00
  -13    5    1      4.93      0.00
  -11    5    1      6.48      0.00
   -9    5    1     17.51      0.00
   -7    5    1     16.74      0.00
   -5    5    1     14.24      0.00
   -3    5    1     38.59      0.00
   -1    5    1     57.65      0.00
    1    5    1     30.08      0.00
    3    5    1     -3.48      0.00
    5    5    1      2.67      0.00
    7    5    1     13.82      0.00
    9    5    1      6.52      0.00
   11    5    1      0.10      0.00
   13    5    1      4.15      0.00
   15    5    1      2.06      0.00
   17    5    1     -1.27      0.00
   19    5    1     -0.19      0.00
   21    5    1      1.99      0.00
   23    5    1      0.37      0.00
   25    5    1      0.22      0.00
   27    5    1      0.83      0.00
  -28    4    1     -0.01      0.00
  -26    4    1      1.15      0.00
  -24    4    1      0.16      0.00
  -22    4    1     -0.76      0.00
  -20    4    1      0.90      0.00
  -18    4    1      0.43      0.00
  -16    4    1     -6.15      0.00
  -14    4    1     -7.09      0.00
  -12    4    1     -4.06      0.00
  -10    4    1    -12.09      0.00
   -8    4    1    -19.70      0.00
   -6    4    1    -11.94      0.00
   -4    4    1    -23.06      0.00
   -2    4    1    -53.36      0.00
    0    4    1    -50.36      0.00
    2    4    1     -7.13      0.00
    4    4    1      5.67      0.00
    6    4    1    -10.12      0.00
    8    4    1    -12.31      0.00
   10    4    1     -1.51      0.00
   12    4    1     -2.22      0.00
   14    4    1     -4.78      0.00
   16    4    1     -0.52      0.00
   18    4    1      0.81      0.00
   20    4    1     -1.86      0.00
   22    4    1     -1.89      0.00
   24    4    1     -0.27      0.00
   26    4    1     -0.85      0.00
   28    4    1     -1.27      0.00
  -27    3    1     -0.71      0.00
  -25    3    1     -1.43      0.00
  -23    3    1      0.69      0.00
  -21    3    1     -0.21      0.00
  -19    3    1     -1.57      0.00
  -17    3    1      2.53      0.00
  -15    3    1      8.10      0.00
  -13    3    1      5.11      0.00
  -11    3    1      7.14      0.00
   -9    3    1     19.30      0.00
   -7    3    1     17.92      0.00
   -5    3    1     14.86      0.00
   -3    3    1     41.75      0.00
   -1    3    1     63.77      0.00
    1    3    1     31.78      0.00
    3    3    1     -4.25      0.00
    5    3    1      2.84      0.00
    7    3    1     16.02      0.00
    9    3    1      6.76      0.00
   11    3    1      0.26      0.00
   13    3    1      3.85      0.00
   15    3    1      2.62      0.00
   17    3    1     -1.77      0.00
   19    3    1     -0.03      0.00
   21    3    1      1.89      0.00
   23    3    1      0.81      0.00
   25    3    1     -0.18      0.00
   27    3    1      1.43      0.00
  -28    2    1      0.02      0.00
  -26    2    1      1.32      0.00
  -24    2    1      0.38      0.00
  -22    2    1     -1.10      0.00
  -20    2    1      1.33      0.00
  -18    2    1     -0.20      0.00
  -16    2    1     -6.07      0.00
  -14    2    1     -7.93      0.00
  -12    2    1     -3.61      0.00
  -10    2    1    -13.66      0.00
   -8    2    1    -19.65      0.00
   -6    2    1    -13.31      0.00
   -4    2    1    -21.98      0.00
   -2    2    1    -58.69      0.00
    2    2    1     -7.95      0.00
    4    2    1      8.08      0.00
    6    2    1    -12.24      0.00
    8    2    1    -12.42      0.00
   10    2    1     -2.27      0.00
   12    2    1     -1.92      0.00
   14    2    1     -5.40      0.00
   16    2    1     -0.64      0.00
   18    2    1      0.63      0.00
   20    2    1     -1.88      0.00
   22    2    1     -2.43      0.00
   24    2    1     -0.21      0.00
   26    2    1     -0.99      0.00
   28    2    1     -1.71      0.00
  -29    1    1      0.37      0.00
  -27    1    1     -1.10      0.00
  -25    1    1     -1.31      0.00
  -23    1    1      0.54      0.00
  -21    1    1     -0.13      0.00
  -19    1    1     -1.67      0.00
  -17    1    1      2.79      0.00
  -15    1    1      8.26      0.00
  -13    1    1      5.32      0.00
  -11    1    1      7.50      0.00
   -9    1    1     20.12      0.00
   -7    1    1     18.75      0.00
   -5    1    1     15.02      0.00
   -3    1    1     43.83      0.00
    3    1    1     -5.14      0.00
    5    1    1      3.46      0.00
    7    1    1     16.74      0.00
    9    1    1      7.36      0.00
   11    1    1      0.01      0.00
   13    1    1      3.97      0.00
   15    1    1      2.51      0.00
   17    1    1     -1.72      0.00
   19    1    1     -0.37      0.00
   21    1    1      2.22      0.00
   23    1    1      0.74      0.00
   25    1    1     -0.04      0.00
   27    1    1      1.49      0.00
   29    1    1      0.97      0.00
  -28    0    1      0.01      0.00
  -26    0    1      1.61      0.00
  -24    0    1      0.03      0.00
  -22    0    1     -0.63      0.00
  -20    0    1      0.79      0.00
  -18    0    1      0.34      0.00
  -16    0    1     -6.90      0.00
  -14    0    1     -7.18      0.00
  -12    0    1     -4.78      0.00
  -10    0    1    -12.50      0.00
   -8    0    1    -21.74      0.00
   -6    0    1    -11.22      0.00
   -4    0    1    -24.57      0.00
    4    0    1      6.17      0.00
    6    0    1    -10.72      0.00
    8    0    1    -14.19      0.00
   10    0    1     -1.31      0.00
   12    0    1     -2.68      0.00
   14    0    1     -4.96      0.00
   16    0    1     -1.15      0.00
   18    0    1      0.98      0.00
   20    0    1     -2.24      0.00
   22    0    1     -2.37      0.00
   24    0    1     -0.37      0.00
   26    0    1     -1.03      0.00
   28    0    1     -1.76      0.00
   -7   21    2     -2.42      0.00
   -5   21    2     -3.38      0.00
   -3   21    2     -4.67      0.00
   -1   21    2     -3.93      0.00
    1   21    2     -0.69      0.00
    3   21    2      1.07      0.00
    5   21    2      0.22      0.00
    7   21    2     -1.06      0.00
  -10   20    2      1.78      0.00
   -8   20    2      3.15      0.00
   -6   20    2      4.05      0.00
   -4   20    2      5.87      0.00
   -2   20    2      6.29      0.00
    0   20    2      3.69      0.00
    2   20    2     -0.78      0.00
    4   20    2     -0.71      0.00
    6   20    2      0.83      0.00
    8   20    2      1.65      0.00
   10   20    2      0.67      0.00
  -13   19    2     -1.06      0.00
  -11   19    2     -0.87      0.00
   -9   19    2     -2.74      0.00
   -7   19    2     -3.86      0.00
   -5   19    2     -5.52      0.00
   -3   19    2     -7.53      0.00
   -1   19    2     -6.50      0.00
    1   19    2     -1.19      0.00
    3   19    2      1.94      0.00
    5   19    2     -0.13      0.00
    7   19    2     -1.78      0.00
    9   19    2     -1.69      0.00
   11   19    2     -0.28      0.00
   13   19    2     -0.33      0.00
  -16   18    2      1.67      0.00
  -14   18    2      2.20      0.00
  -12   18    2      1.29      0.00
  -10   18    2      2.96      0.00
   -8   18    2      4.58      0.00
   -6   18    2      6.29      0.00
   -4   18    2      8.11      0.00
   -2   18    2     10.13      0.00
    0   18    2      4.87      0.00
    2   18    2     -0.92      0.00
    4   18    2     -1.72      0.00
    6   18    2      2.11      0.00
    8   18    2      2.35      0.00
   10   18    2      1.49      0.00
   12   18    2      0.17      0.00
   14   18    2      0.32      0.00
   16   18    2     -0.26      0.00
  -17   17    2     -1.01      0.00
  -15   17    2     -2.50      0.00
  -13   17    2     -1.45      0.00
  -11   17    2     -1.67      0.00
   -9   17    2     -4.25      0.00
   -7   17    2     -5.84      0.00
   -5   17    2     -7.84      0.00
   -3   17    2    -10.98      0.00
   -1   17    2     -9.81      0.00
    1   17    2     -1.34      0.00
    3   17    2      2.81      0.00
    5   17    2     -0.18      0.00
    7   17    2     -3.30      0.00
    9   17    2     -2.20      0.00
   11   17    2     -0.79      0.00
   13   17    2     -0.17      0.00
   15   17    2     -0.09      0.00
   17   17    2      0.09      0.00
  -18   16    2      0.76      0.00
  -16   16    2      2.67      0.00
  -14   16    2      2.95      0.00
  -12   16    2      1.84      0.00
  -10   16    2      3.90      0.00
   -8   16    2      6.83      0.00
   -6   16    2      7.78      0.00
   -4   16    2     11.44      0.00
   -2   16    2     13.50      0.00
    0   16    2      7.22      0.00
    2   16    2     -2.66      0.00
    4   16    2     -1.82      0.00
    6   16    2      2.58      0.00
    8   16    2      4.17      0.00
   10   16    2      1.44      0.00
   12   16    2      0.97      0.00
   14   16    2      0.21      0.00
   16   16    2      0.19      0.00
   18   16    2      0.18      0.00
  -19   15    2     -0.42      0.00
  -17   15    2     -1.87      0.00
  -15   15    2     -3.56      0.00
  -13   15    2     -2.04      0.00
  -11   15    2     -2.58      0.00
   -9   15    2     -6.09      0.00
   -7   15    2     -8.20      0.00
   -5   15    2     -9.95      0.00
   -3   15    2    -15.38      0.00
   -1   15    2    -13.30      0.00
    1   15    2     -1.64      0.00
    3   15    2      4.33      0.00
    5   15    2     -0.66      0.00
    7   15    2     -4.68      0.00
    9   15    2     -3.00      0.00
   11   15    2     -0.85      0.00
   13   15    2     -0.66      0.00
   15   15    2      0.02      0.00
   17   15    2     -0.06      0.00
   19   15    2     -0.69      0.00
  -22   14    2      0.16      0.00
  -20   14    2      0.24      0.00
  -18   14    2      1.07      0.00
  -16   14    2      3.79      0.00
  -14   14    2      3.58      0.00
  -12   14    2      2.34      0.00
  -10   14    2      5.24      0.00
   -8   14    2      8.97      0.00
   -6   14    2      9.50      0.00
   -4   14    2     14.41      0.00
   -2   14    2     18.18      0.00
    0   14    2      8.87      0.00
    2   14    2     -3.95      0.00
    4   14    2     -2.94      0.00
    6   14    2      4.21      0.00
    8   14    2      5.03      0.00
   10   14    2      2.08      0.00
   12   14    2      1.13      0.00
   14   14    2      1.00      0.00
   16   14    2     -0.04      0.00
   18   14    2      0.76      0.00
   20   14    2      0.98      0.00
   22   14    2      0.72      0.00
  -23   13    2     -0.33      0.00
  -21   13    2     -0.36      0.00
  -19   13    2     -0.39      0.00
  -17   13    2     -2.88      0.00
  -15   13    2     -4.48      0.00
  -13   13    2     -2.83      0.00
  -11   13    2     -3.31      0.00
   -9   13    2     -8.84      0.00
   -7   13    2     -9.82      0.00
   -5   13    2    -12.67      0.00
   -3   13    2    -19.75      0.00
   -1   13    2    -17.73      0.00
    1   13    2     -1.46      0.00
    3   13    2      6.07      0.00
    5   13    2     -1.37      0.00
    7   13    2     -6.06      0.00
    9   13    2     -3.56      0.00
   11   13    2     -0.88      0.00
   13   13    2     -1.26      0.00
   15   13    2     -0.06      0.00
   17   13    2     -0.05      0.00
   19   13    2     -0.99      0.00
   21   13    2     -1.20      0.00
   23   13    2     -0.23      0.00
  -24   12    2      0.09      0.00
  -22   12    2      0.35      0.00
  -20   12    2     -0.13      0.00
  -18   12    2      1.71      0.00
  -16   12    2      4.50      0.00
  -14   12    2      4.64      0.00
  -12   12    2      2.27      0.00
  -10   12    2      7.57      0.00
   -8   12    2     10.53      0.00
   -6   12    2     11.53      0.00
   -4   12    2     17.17      0.00
   -2   12    2     23.92      0.00
    0   12    2     10.42      0.00
    2   12    2     -5.40      0.00
    4   12    2     -4.09      0.00
    6   12    2      6.13      0.00
    8   12    2      5.70      0.00
   10   12    2      2.30      0.00
   12   12    2      1.59      0.00
   14   12    2      1.58      0.00
   16   12    2      0.13      0.00
   18   12    2      0.81      0.00
   20   12    2      1.69      0.00
   22   12    2      0.76      0.00
   24   12    2      0.20      0.00
  -25   11    2      0.10      0.00
  -23   11    2     -0.73      0.00
  -21   11    2     -0.04      0.00
  -19   11    2     -0.60      0.00
  -17   11    2     -3.50      0.00
  -15   11    2     -5.83      0.00
  -13   11    2     -2.88      0.00
  -11   11    2     -5.06      0.00
   -9   11    2    -10.87      0.00
   -7   11    2    -11.97      0.00
   -5   11    2    -14.41      0.00
   -3   11    2    -25.13      0.00
   -1   11    2    -22.18      0.00
    1   11    2     -0.95      0.00
    3   11    2      7.78      0.00
    5   11    2     -1.86      0.00
    7   11    2     -8.07      0.00
    9   11    2     -3.13      0.00
   11   11    2     -1.42      0.00
   13   11    2     -1.61      0.00
   15   11    2     -0.65      0.00
   17   11    2      0.20      0.00
   19   11    2     -1.55      0.00
   21   11    2     -1.37      0.00
   23   11    2     -0.55      0.00
  -24   10    2      0.22      0.00
  -22   10    2      0.32      0.00
  -20   10    2     -0.10      0.00
  -18   10    2      1.64      0.00
  -16   10    2      6.13      0.00
  -14   10    2      4.47      0.00
  -12   10    2      3.71      0.00
  -10   10    2      8.68      0.00
   -8   10    2     13.63      0.00
   -6   10    2     11.55      0.00
   -4   10    2     21.93      0.00
   -2   10    2     28.53      0.00
    0   10    2     13.64      0.00
    2   10    2     -8.65      0.00
    4   10    2     -3.66      0.00
    6   10    2      7.08      0.00
    8   10    2      7.22      0.00
   10   10    2      1.28      0.00
   12   10    2      2.74      0.00
   14   10    2      1.84      0.00
   16   10    2      0.43      0.00
   18   10    2      0.87      0.00
   20   10    2      2.02      0.00
   22   10    2      1.11      0.00
   24   10    2      0.15      0.00
  -25    9    2     -0.03      0.00
  -23    9    2     -0.57      0.00
  -21    9    2     -0.30      0.00
  -19    9    2     -0.11      0.00
  -17    9    2     -4.69      0.00
  -15    9    2     -6.43      0.00
  -13    9    2     -3.60      0.00
  -11    9    2     -6.17      0.00
   -9    9    2    -13.63      0.00
   -7    9    2    -12.81      0.00
   -5    9    2    -16.41      0.00
   -3    9    2    -30.33      0.00
   -1    9    2    -26.42      0.00
    1    9    2     -0.37      0.00
    3    9    2     10.54      0.00
    5    9    2     -3.61      0.00
    7    9    2     -9.01      0.00
    9    9    2     -3.57      0.00
   11    9    2     -0.90      0.00
   13    9    2     -3.13      0.00
   15    9    2     -0.66      0.00
   17    9    2     -0.37      0.00
   19    9    2     -1.50      0.00
   21    9    2     -2.06      0.00
   23    9    2     -0.38      0.00
   25    9    2     -0.60      0.00
  -26    8    2     -0.66      0.00
  -24    8    2      0.17      0.00
  -22    8    2      0.67      0.00
  -20    8    2     -0.59      0.00
  -18    8    2      2.32      0.00
  -16    8    2      6.64      0.00
  -14    8    2      5.69      0.00
  -12    8    2      3.48      0.00
  -10    8    2     12.03      0.00
   -8    8    2     14.23      0.00
   -6    8    2     13.71      0.00
   -4    8    2     24.46      0.00
   -2    8    2     35.73      0.00
    0    8    2     14.24      0.00
    2    8    2     -9.78      0.00
    4    8    2     -5.30      0.00
    6    8    2     10.45      0.00
    8    8    2      6.67      0.00
   10    8    2      1.73      0.00
   12    8    2      2.44      0.00
   14    8    2      3.16      0.00
   16    8    2      0.09      0.00
   18    8    2      1.16      0.00
   20    8    2      2.20      0.00
   22    8    2      1.22      0.00
   24    8    2      0.25      0.00
   26    8    2      0.64      0.00
  -27    7    2      0.32      0.00
  -25    7    2      0.62      0.00
  -23    7    2     -1.19      0.00
  -21    7    2      0.14      0.00
  -19    7    2     -0.31      0.00
  -17    7    2     -5.16      0.00
  -15    7    2     -7.51      0.00
  -13    7    2     -3.66      0.00
  -11    7    2     -7.79      0.00
   -9    7    2    -15.63      0.00
   -7    7    2    -13.37      0.00
   -5    7    2    -18.02      0.00
   -3    7    2    -35.00      0.00
   -1    7    2    -30.74      0.00
    1    7    2      1.80      0.00
    3    7    2     12.19      0.00
    5    7    2     -4.09      0.00
    7    7    2    -11.53      0.00
    9    7    2     -2.56      0.00
   11    7    2     -1.70      0.00
   13    7    2     -3.62      0.00
   15    7    2     -1.91      0.00
   17    7    2     -0.16      0.00
   19    7    2     -2.34      0.00
   21    7    2     -2.03      0.00
   23    7    2     -0.87      0.00
   25    7    2     -0.39      0.00
   27    7    2     -1.02      0.00
  -26    6    2     -1.00      0.00
  -24    6    2      0.26      0.00
  -22    6    2      0.89      0.00
  -20    6    2     -0.65      0.00
  -18    6    2      2.44      0.00
  -16    6    2      7.90      0.00
  -14    6    2      5.65      0.00
  -12    6    2      4.80      0.00
  -10    6    2     13.51      0.00
   -8    6    2     16.50      0.00
   -6    6    2     13.77      0.00
   -4    6    2     28.90      0.00
   -2    6    2     40.70      0.00
    0    6    2     16.37      0.00
    2    6    2    -13.00      0.00
    4    6    2     -4.60      0.00
    6    6    2     11.82      0.00
    8    6    2      8.17      0.00
   10    6    2      0.27      0.00
   12    6    2      3.49      0.00
   14    6    2      3.21      0.00
   16    6    2      0.53      0.00
   18    6    2      0.94      0.00
   20    6    2      2.50      0.00
   22    6    2      1.31      0.00
   24    6    2      0.17      0.00
   26    6    2      0.81      0.00
  -27    5    2      1.13      0.00
  -25    5    2      0.33      0.00
  -23    5    2     -0.94      0.00
  -21    5    2     -0.22      0.00
  -19    5    2     -0.01      0.00
  -17    5    2     -5.95      0.00
  -15    5    2     -8.04      0.00
  -13    5    2     -3.89      0.00
  -11    5    2     -9.01      0.00
   -9    5    2    -17.14      0.00
   -7    5    2    -13.90      0.00
   -5    5    2    -18.76      0.00
   -3    5    2    -39.90      0.00
   -1    5    2    -33.22      0.00
    1    5    2      3.08      0.00
    3    5    2     15.16      0.00
    5    5    2     -6.21      0.00
    7    5    2    -12.36      0.00
    9    5    2     -3.25      0.00
   11    5    2     -1.04      0.00
   13    5    2     -5.18      0.00
   15    5    2     -2.17      0.00
   17    5    2     -0.91      0.00
   19    5    2     -2.40      0.00
   21    5    2     -2.86      0.00
   23    5    2     -0.60      0.00
   25    5    2     -0.81      0.00
   27    5    2     -1.04      0.00
  -28    4    2     -0.75      0.00
  -26    4    2     -1.34      0.00
  -24    4    2      0.58      0.00
  -22    4    2      0.84      0.00
  -20    4    2     -0.38      0.00
  -18    4    2      2.57      0.00
  -16    4    2      8.65      0.00
  -14    4    2      6.01      0.00
  -12    4    2      5.41      0.00
  -10    4    2     15.17      0.00
   -8    4    2     18.00      0.00
   -6    4    2     14.21      0.00
   -4    4    2     32.56      0.00
   -2    4    2     45.21      0.00
    0    4    2     17.71      0.00
    2    4    2    -15.52      0.00
    4    4    2     -4.24      0.00
    6    4    2     13.80      0.00
    8    4    2      8.64      0.00
   10    4    2      0.04      0.00
   12    4    2      3.12      0.00
   14    4    2      3.95      0.00
   16    4    2      0.27      0.00
   18    4    2      0.96      0.00
   20    4    2      2.76      0.00
   22    4    2      1.39      0.00
   24    4    2      0.09      0.00
   26    4    2      1.04      0.00
   28    4    2      0.69      0.00
  -27    3    2      1.15      0.00
  -25    3    2      0.77      0.00
  -23    3    2     -1.39      0.00
  -21    3    2      0.01      0.00
  -19    3    2     -0.36      0.00
  -17    3    2     -6.19      0.00
  -15    3    2     -8.46      0.00
  -13    3    2     -4.14      0.00
  -11    3    2     -9.52      0.00
   -9    3    2    -18.58      0.00
   -7    3    2    -13.72      0.00
   -5    3    2    -20.01      0.00
   -3    3    2    -42.80      0.00
   -1    3    2    -36.07      0.00
    1    3    2      5.63      0.00
    3    3    2     16.08      0.00
    5    3    2     -6.68      0.00
    7    3    2    -14.27      0.00
    9    3    2     -2.81      0.00
   11    3    2     -1.44      0.00
   13    3    2     -5.35      0.00
   15    3    2     -3.19      0.00
   17    3    2     -0.78      0.00
   19    3    2     -3.13      0.00
   21    3    2     -3.08      0.00
   23    3    2     -0.96      0.00
   25    3    2     -0.63      0.00
   27    3    2     -1.56      0.00
  -28    2    2     -1.07      0.00
  -26    2    2     -1.32      0.00
  -24    2    2      0.38      0.00
  -22    2    2      1.35      0.00
  -20    2    2     -0.71      0.00
  -18    2    2      3.32      0.00
  -16    2    2      8.43      0.00
  -14    2    2      6.93      0.00
  -12    2    2      5.03      0.00
  -10    2    2     17.13      0.00
   -8    2    2     17.88      0.00
   -6    2    2     16.12      0.00
   -4    2    2     33.33      0.00
   -2    2    2     50.39      0.00
    0    2    2     16.55      0.00
    2    2    2    -15.50      0.00
    4    2    2     -5.20      0.00
    6    2    2     16.12      0.00
    8    2    2      8.49      0.00
   10    2    2      0.09      0.00
   12    2    2      2.68      0.00
   14    2    2      4.22      0.00
   16    2    2      0.16      0.00
   18    2    2      0.89      0.00
   20    2    2      2.92      0.00
   22    2    2      1.62      0.00
   24    2    2     -0.06      0.00
   26    2    2      1.19      0.00
   28    2    2      0.93      0.00
  -29    1    2      0.36      0.00
  -27    1    2      1.63      0.00
  -25    1    2      0.55      0.00
  -23    1    2     -1.23      0.00
  -21    1    2     -0.18      0.00
  -19    1    2     -0.42      0.00
  -17    1    2     -6.36      0.00
  -15    1    2     -8.69      0.00
  -13    1    2     -4.15      0.00
  -11    1    2     -9.95      0.00
   -9    1    2    -18.99      0.00
   -7    1    2    -14.12      0.00
   -5    1    2    -20.12      0.00
   -3    1    2    -45.09      0.00
    3    1    2     17.29      0.00
    5    1    2     -7.74      0.00
    7    1    2    -14.61      0.00
    9    1    2     -3.27      0.00
   11    1    2     -1.07      0.00
   13    1    2     -5.80      0.00
   15    1    2     -3.35      0.00
   17    1    2     -1.06      0.00
   19    1    2     -3.20      0.00
   21    1    2     -3.61      0.00
   23    1    2     -0.85      0.00
   25    1    2     -0.83      0.00
   27    1    2     -1.63      0.00
   29    1    2     -0.22      0.00
  -28    0    2     -1.09      0.00
  -26    0    2     -1.64      0.00
  -24    0    2      0.87      0.00
  -22    0    2      0.80      0.00
  -20    0    2      0.06      0.00
  -18    0    2      2.65      0.00
  -16    0    2      9.36      0.00
  -14    0    2      6.07      0.00
  -12    0    2      6.31      0.00
  -10    0    2     16.05      0.00
   -8    0    2     20.01      0.00
   -6    0    2     14.27      0.00
   -4    0    2     36.51      0.00
    4    0    2     -3.02      0.00
    6    0    2     14.98      0.00
    8    0    2      9.88      0.00
   10    0    2     -0.85      0.00
   12    0    2      3.08      0.00
   14    0    2      3.91      0.00
   16    0    2      0.37      0.00
   18    0    2      0.62      0.00
   20    0    2      3.20      0.00
   22    0    2      1.55      0.00
   24    0    2     -0.04      0.00
   26    0    2      1.31      0.00
   28    0    2      0.84      0.00
   25   11    2     -0.18      0.00
   -5   21    3      2.88      0.00
   -3   21    3      2.98      0.00
   -1   21    3      1.15      0.00
    1   21    3     -1.23      0.00
    3   21    3     -0.86      0.00
    5   21    3      0.88      0.00
  -10   20    3     -1.52      0.00
   -8   20    3     -2.62      0.00
   -6   20    3     -2.90      0.00
   -4   20    3     -3.78      0.00
   -2   20    3     -2.66      0.00
    0   20    3      0.22      0.00
    2   20    3      2.12      0.00
    4   20    3     -0.41      0.00
    6   20    3     -1.97      0.00
    8   20    3     -1.70      0.00
   10   20    3     -0.28      0.00
  -13   19    3      0.81      0.00
  -11   19    3      1.45      0.00
   -9   19    3      3.44      0.00
   -7   19    3      3.85      0.00
   -5   19    3      4.53      0.00
   -3   19    3      4.86      0.00
   -1   19    3      1.84      0.00
    1   19    3     -2.07      0.00
    3   19    3     -1.53      0.00
    5   19    3      2.04      0.00
    7   19    3      2.52      0.00
    9   19    3      1.23      0.00
   11   19    3     -0.20      0.00
   13   19    3      0.12      0.00
  -14   18    3     -0.93      0.00
  -12   18    3     -0.36      0.00
  -10   18    3     -2.79      0.00
   -8   18    3     -3.89      0.00
   -6   18    3     -4.62      0.00
   -4   18    3     -5.35      0.00
   -2   18    3     -4.84      0.00
    0   18    3      1.06      0.00
    2   18    3      2.78      0.00
    4   18    3     -0.23      0.00
    6   18    3     -3.99      0.00
    8   18    3     -2.29      0.00
   10   18    3     -0.81      0.00
   12   18    3      0.15      0.00
   14   18    3     -0.42      0.00
  -17   17    3      1.69      0.00
  -15   17    3      2.27      0.00
  -13   17    3      0.74      0.00
  -11   17    3      2.22      0.00
   -9   17    3      5.02      0.00
   -7   17    3      5.22      0.00
   -5   17    3      6.28      0.00
   -3   17    3      6.94      0.00
   -1   17    3      2.76      0.00
    1   17    3     -3.67      0.00
    3   17    3     -2.03      0.00
    5   17    3      3.11      0.00
    7   17    3      4.39      0.00
    9   17    3      1.51      0.00
   11   17    3      0.33      0.00
   13   17    3      0.23      0.00
   15   17    3      0.48      0.00
   17   17    3      0.42      0.00
  -18   16    3     -1.15      0.00
  -16   16    3     -2.56      0.00
  -14   16    3     -1.29      0.00
  -12   16    3     -0.74      0.00
  -10   16    3     -4.09      0.00
   -8   16    3     -5.88      0.00
   -6   16    3     -5.72      0.00
   -4   16    3     -8.12      0.00
   -2   16    3     -6.34      0.00
    0   16    3      1.03      0.00
    2   16    3      5.05      0.00
    4   16    3     -1.34      0.00
    6   16    3     -5.18      0.00
    8   16    3     -3.97      0.00
   10   16    3     -0.39      0.00
   12   16    3     -0.71      0.00
   14   16    3     -0.30      0.00
   16   16    3     -0.79      0.00
   18   16    3     -0.68      0.00
  -19   15    3      0.66      0.00
  -17   15    3      2.51      0.00
  -15   15    3      2.88      0.00
  -13   15    3      0.71      0.00
  -11   15    3      3.19      0.00
   -9   15    3      6.52      0.00
   -7   15    3      6.84      0.00
   -5   15    3      7.60      0.00
   -3   15    3      9.86      0.00
   -1   15    3      3.15      0.00
    1   15    3     -5.31      0.00
    3   15    3     -3.15      0.00
    5   15    3      4.87      0.00
    7   15    3      6.04      0.00
    9   15    3      2.25      0.00
   11   15    3      0.61      0.00
   13   15    3      1.12      0.00
   15   15    3      0.75      0.00
   17   15    3      1.10      0.00
   19   15    3      1.09      0.00
  -20   14    3     -0.64      0.00
  -18   14    3     -1.72      0.00
  -16   14    3     -3.70      0.00
  -14   14    3     -1.47      0.00
  -12   14    3     -1.35      0.00
  -10   14    3     -5.68      0.00
   -8   14    3     -7.74      0.00
   -6   14    3     -7.17      0.00
   -4   14    3    -10.73      0.00
   -2   14    3     -8.94      0.00
    0   14    3      2.18      0.00
    2   14    3      6.69      0.00
    4   14    3     -1.48      0.00
    6   14    3     -7.67      0.00
    8   14    3     -4.50      0.00
   10   14    3     -1.02      0.00
   12   14    3     -0.85      0.00
   14   14    3     -1.18      0.00
   16   14    3     -0.64      0.00
   18   14    3     -1.57      0.00
   20   14    3     -0.83      0.00
  -23   13    3      0.35      0.00
  -21   13    3      0.45      0.00
  -19   13    3      0.89      0.00
  -17   13    3      3.53      0.00
  -15   13    3      3.21      0.00
  -13   13    3      1.03      0.00
  -11   13    3      3.76      0.00
   -9   13    3      8.71      0.00
   -7   13    3      7.45      0.00
   -5   13    3      9.88      0.00
   -3   13    3     12.51      0.00
   -1   13    3      4.16      0.00
    1   13    3     -7.79      0.00
    3   13    3     -4.11      0.00
    5   13    3      6.78      0.00
    7   13    3      7.72      0.00
    9   13    3      2.86      0.00
   11   13    3      1.19      0.00
   13   13    3      2.07      0.00
   15   13    3      1.23      0.00
   17   13    3      1.61      0.00
   19   13    3      1.71      0.00
   21   13    3      0.78      0.00
   23   13    3     -0.04      0.00
  -22   12    3     -0.92      0.00
  -20   12    3     -0.54      0.00
  -18   12    3     -2.87      0.00
  -16   12    3     -4.25      0.00
  -14   12    3     -2.25      0.00
  -12   12    3     -1.41      0.00
  -10   12    3     -8.04      0.00
   -8   12    3     -8.74      0.00
   -6   12    3     -9.10      0.00
   -4   12    3    -13.37      0.00
   -2   12    3    -12.07      0.00
    0   12    3      3.71      0.00
    2   12    3      8.69      0.00
    4   12    3     -1.96      0.00
    6   12    3    -10.00      0.00
    8   12    3     -5.17      0.00
   10   12    3     -1.35      0.00
   12   12    3     -1.71      0.00
   14   12    3     -1.67      0.00
   16   12    3     -1.11      0.00
   18   12    3     -1.79      0.00
   20   12    3     -1.59      0.00
   22   12    3     -0.21      0.00
  -23   11    3      0.86      0.00
  -21   11    3      0.27      0.00
  -19   11    3      1.49      0.00
  -17   11    3      4.28      0.00
  -15   11    3      4.00      0.00
  -13   11    3      0.79      0.00
  -11   11    3      5.30      0.00
   -9   11    3      9.84      0.00
   -7   11    3      8.79      0.00
   -5   11    3     11.64      0.00
   -3   11    3     16.31      0.00
   -1   11    3      4.82      0.00
    1   11    3    -10.49      0.00
    3   11    3     -4.81      0.00
    5   11    3      8.58      0.00
    7   11    3      9.71      0.00
    9   11    3      2.80      0.00
   11   11    3      2.37      0.00
   13   11    3      2.77      0.00
   15   11    3      2.00      0.00
   17   11    3      1.76      0.00
   19   11    3      2.47      0.00
   21   11    3      0.99      0.00
   23   11    3      0.23      0.00
  -24   10    3     -1.02      0.00
  -22   10    3     -0.87      0.00
  -20   10    3     -0.90      0.00
  -18   10    3     -3.28      0.00
  -16   10    3     -5.78      0.00
  -14   10    3     -1.81      0.00
  -12   10    3     -2.98      0.00
  -10   10    3     -8.78      0.00
   -8   10    3    -10.90      0.00
   -6   10    3     -9.37      0.00
   -4   10    3    -17.86      0.00
   -2   10    3    -13.77      0.00
    0   10    3      4.27      0.00
    2   10    3     12.17      0.00
    4   10    3     -3.81      0.00
    6   10    3    -11.42      0.00
    8   10    3     -6.43      0.00
   10   10    3     -1.19      0.00
   12   10    3     -3.25      0.00
   14   10    3     -2.23      0.00
   16   10    3     -1.57      0.00
   18   10    3     -2.23      0.00
   20   10    3     -2.00      0.00
   22   10    3     -0.62      0.00
   24   10    3     -0.17      0.00
  -25    9    3      0.43      0.00
  -23    9    3      0.95      0.00
  -21    9    3      0.55      0.00
  -19    9    3      1.60      0.00
  -17    9    3      5.61      0.00
  -15    9    3      4.26      0.00
  -13    9    3      1.31      0.00
  -11    9    3      6.34      0.00
   -9    9    3     11.41      0.00
   -7    9    3      9.39      0.00
   -5    9    3     14.17      0.00
   -3    9    3     20.25      0.00
   -1    9    3      5.16      0.00
    1    9    3    -12.87      0.00
    3    9    3     -6.15      0.00
    5    9    3     11.61      0.00
    7    9    3     10.39      0.00
    9    9    3      3.57      0.00
   11    9    3      2.60      0.00
   13    9    3      4.36      0.00
   15    9    3      2.04      0.00
   17    9    3      2.36      0.00
   19    9    3      2.55      0.00
   21    9    3      1.65      0.00
   23    9    3      0.06      0.00
   25    9    3      0.56      0.00
  -26    8    3      0.03      0.00
  -24    8    3     -1.19      0.00
  -22    8    3     -1.20      0.00
  -20    8    3     -0.58      0.00
  -18    8    3     -4.43      0.00
  -16    8    3     -6.15      0.00
  -14    8    3     -2.74      0.00
  -12    8    3     -2.93      0.00
  -10    8    3    -11.27      0.00
   -8    8    3    -10.49      0.00
   -6    8    3    -11.73      0.00
   -4    8    3    -20.15      0.00
   -2    8    3    -17.31      0.00
    0    8    3      7.46      0.00
    2    8    3     13.61      0.00
    4    8    3     -3.87      0.00
    6    8    3    -14.76      0.00
    8    8    3     -5.82      0.00
   10    8    3     -2.54      0.00
   12    8    3     -3.90      0.00
   14    8    3     -3.83      0.00
   16    8    3     -1.74      0.00
   18    8    3     -2.84      0.00
   20    8    3     -2.52      0.00
   22    8    3     -0.83      0.00
   24    8    3     -0.34      0.00
   26    8    3     -0.68      0.00
  -27    7    3     -0.30      0.00
  -25    7    3      0.22      0.00
  -23    7    3      1.78      0.00
  -21    7    3      0.28      0.00
  -19    7    3      2.17      0.00
  -17    7    3      6.48      0.00
  -15    7    3      4.91      0.00
  -13    7    3      1.68      0.00
  -11    7    3      7.69      0.00
   -9    7    3     12.69      0.00
   -7    7    3      9.87      0.00
   -5    7    3     17.25      0.00
   -3    7    3     23.52      0.00
   -1    7    3      6.14      0.00
    1    7    3    -16.52      0.00
    3    7    3     -5.68      0.00
    5    7    3     13.13      0.00
    7    7    3     12.49      0.00
    9    7    3      2.57      0.00
   11    7    3      3.99      0.00
   13    7    3      4.81      0.00
   15    7    3      2.98      0.00
   17    7    3      2.07      0.00
   19    7    3      3.20      0.00
   21    7    3      1.57      0.00
   23    7    3      0.37      0.00
   25    7    3      0.37      0.00
   27    7    3      0.66      0.00
  -26    6    3      0.18      0.00
  -24    6    3     -1.50      0.00
  -22    6    3     -1.36      0.00
  -20    6    3     -0.54      0.00
  -18    6    3     -4.87      0.00
  -16    6    3     -7.18      0.00
  -14    6    3     -2.53      0.00
  -12    6    3     -4.21      0.00
  -10    6    3    -11.91      0.00
   -8    6    3    -11.50      0.00
   -6    6    3    -12.12      0.00
   -4    6    3    -23.98      0.00
   -2    6    3    -18.44      0.00
    0    6    3      9.15      0.00
    2    6    3     16.69      0.00
    4    6    3     -6.07      0.00
    6    6    3    -16.05      0.00
    8    6    3     -7.07      0.00
   10    6    3     -2.03      0.00
   12    6    3     -6.03      0.00
   14    6    3     -4.52      0.00
   16    6    3     -2.73      0.00
   18    6    3     -3.19      0.00
   20    6    3     -3.12      0.00
   22    6    3     -1.06      0.00
   24    6    3     -0.35      0.00
   26    6    3     -0.87      0.00
  -27    5    3     -0.83      0.00
  -25    5    3      0.92      0.00
  -23    5    3      1.88      0.00
  -21    5    3      0.72      0.00
  -19    5    3      2.31      0.00
  -17    5    3      7.33      0.00
  -15    5    3      5.52      0.00
  -13    5    3      1.92      0.00
  -11    5    3      9.30      0.00
   -9    5    3     13.36      0.00
   -7    5    3     11.12      0.00
   -5    5    3     19.17      0.00
   -3    5    3     27.74      0.00
   -1    5    3      5.17      0.00
    1    5    3    -18.06      0.00
    3    5    3     -6.66      0.00
    5    5    3     16.46      0.00
    7    5    3     12.57      0.00
    9    5    3      3.07      0.00
   11    5    3      3.53      0.00
   13    5    3      6.33      0.00
   15    5    3      2.85      0.00
   17    5    3      2.53      0.00
   19    5    3      3.15      0.00
   21    5    3      2.02      0.00
   23    5    3     -0.01      0.00
   25    5    3      0.70      0.00
   27    5    3      0.56      0.00
  -28    4    3      0.52      0.00
  -26    4    3      0.30      0.00
  -24    4    3     -2.01      0.00
  -22    4    3     -1.27      0.00
  -20    4    3     -0.87      0.00
  -18    4    3     -4.94      0.00
  -16    4    3     -7.88      0.00
  -14    4    3     -2.60      0.00
  -12    4    3     -4.81      0.00
  -10    4    3    -12.79      0.00
   -8    4    3    -11.94      0.00
   -6    4    3    -12.65      0.00
   -4    4    3    -26.96      0.00
   -2    4    3    -19.27      0.00
    0    4    3     11.16      0.00
    2    4    3     18.63      0.00
    4    4    3     -7.58      0.00
    6    4    3    -17.98      0.00
    8    4    3     -7.16      0.00
   10    4    3     -2.52      0.00
   12    4    3     -6.72      0.00
   14    4    3     -6.14      0.00
   16    4    3     -3.03      0.00
   18    4    3     -3.93      0.00
   20    4    3     -3.66      0.00
   22    4    3     -1.16      0.00
   24    4    3     -0.39      0.00
   26    4    3     -1.11      0.00
   28    4    3     -0.10      0.00
  -27    3    3     -0.52      0.00
  -25    3    3      0.92      0.00
  -23    3    3      2.55      0.00
  -21    3    3      0.80      0.00
  -19    3    3      2.65      0.00
  -17    3    3      7.82      0.00
  -15    3    3      5.85      0.00
  -13    3    3      2.53      0.00
  -11    3    3      9.87      0.00
   -9    3    3     14.86      0.00
   -7    3    3     11.09      0.00
   -5    3    3     21.99      0.00
   -3    3    3     29.63      0.00
   -1    3    3      5.82      0.00
    1    3    3    -20.84      0.00
    3    3    3     -5.33      0.00
    5    3    3     17.43      0.00
    7    3    3     14.13      0.00
    9    3    3      2.03      0.00
   11    3    3      3.97      0.00
   13    3    3      6.51      0.00
   15    3    3      3.50      0.00
   17    3    3      2.21      0.00
   19    3    3      3.72      0.00
   21    3    3      1.90      0.00
   23    3    3      0.06      0.00
   25    3    3      0.61      0.00
   27    3    3      0.81      0.00
  -28    2    3      0.83      0.00
  -26    2    3     -0.05      0.00
  -24    2    3     -1.82      0.00
  -22    2    3     -1.96      0.00
  -20    2    3     -0.43      0.00
  -18    2    3     -5.64      0.00
  -16    2    3     -7.54      0.00
  -14    2    3     -3.42      0.00
  -12    2    3     -4.29      0.00
  -10    2    3    -14.38      0.00
   -8    2    3    -11.08      0.00
   -6    2    3    -14.41      0.00
   -4    2    3    -27.33      0.00
   -2    2    3    -21.50      0.00
    0    2    3     14.36      0.00
    2    2    3     18.27      0.00
    4    2    3     -7.69      0.00
    6    2    3    -19.92      0.00
    8    2    3     -7.04      0.00
   10    2    3     -2.65      0.00
   12    2    3     -7.32      0.00
   14    2    3     -7.01      0.00
   16    2    3     -3.49      0.00
   18    2    3     -4.35      0.00
   20    2    3     -4.14      0.00
   22    2    3     -1.25      0.00
   24    2    3     -0.40      0.00
   26    2    3     -1.23      0.00
   28    2    3     -0.18      0.00
  -27    1    3     -0.72      0.00
  -25    1    3      1.35      0.00
  -23    1    3      2.60      0.00
  -21    1    3      1.15      0.00
  -19    1    3      2.75      0.00
  -17    1    3      7.95      0.00
  -15    1    3      6.26      0.00
  -13    1    3      2.49      0.00
  -11    1    3     10.65      0.00
   -9    1    3     15.14      0.00
   -7    1    3     11.87      0.00
   -5    1    3     22.69      0.00
   -3    1    3     31.68      0.00
   -1    1    3      5.10      0.00
    1    1    3    -21.28      0.00
    3    1    3     -5.44      0.00
    5    1    3     18.95      0.00
    7    1    3     14.10      0.00
    9    1    3      2.19      0.00
   11    1    3      3.43      0.00
   13    1    3      7.07      0.00
   15    1    3      3.46      0.00
   17    1    3      2.33      0.00
   19    1    3      3.79      0.00
   21    1    3      2.11      0.00
   23    1    3     -0.17      0.00
   25    1    3      0.81      0.00
   27    1    3      0.78      0.00
  -28    0    3      0.75      0.00
  -26    0    3      0.25      0.00
  -24    0    3     -2.43      0.00
  -22    0    3     -1.35      0.00
  -20    0    3     -1.28      0.00
  -18    0    3     -4.79      0.00
  -16    0    3     -8.54      0.00
  -14    0    3     -2.46      0.00
  -12    0    3     -5.52      0.00
  -10    0    3    -13.22      0.00
   -8    0    3    -12.85      0.00
   -6    0    3    -12.62      0.00
   -4    0    3    -30.13      0.00
   -2    0    3    -19.49      0.00
    0    0    3     12.79      0.00
    2    0    3     20.58      0.00
    6    0    3    -19.02      0.00
    8    0    3     -8.09      0.00
   10    0    3     -2.03      0.00
   12    0    3     -7.82      0.00
   14    0    3     -7.20      0.00
   16    0    3     -3.73      0.00
   18    0    3     -4.45      0.00
   20    0    3     -4.42      0.00
   22    0    3     -1.21      0.00
   24    0    3     -0.42      0.00
   26    0    3     -1.39      0.00
   28    0    3      0.02      0.00
   -5   21    4     -1.24      0.00
   -3   21    4     -0.87      0.00
   -1   21    4      0.64      0.00
    1   21    4      1.09      0.00
    3   21    4     -0.66      0.00
    5   21    4     -1.91      0.00
  -10   20    4      1.80      0.00
   -8   20    4      2.09      0.00
   -6   20    4      1.74      0.00
   -4   20    4      1.93      0.00
   -2   20    4      0.14      0.00
    0   20    4     -1.46      0.00
    2   20    4     -0.85      0.00
    4   20    4      2.08      0.00
    6   20    4      2.08      0.00
    8   20    4      0.75      0.00
   10   20    4     -0.52      0.00
  -13   19    4      0.28      0.00
  -11   19    4     -1.05      0.00
   -9   19    4     -2.30      0.00
   -7   19    4     -1.88      0.00
   -5   19    4     -2.14      0.00
   -3   19    4     -1.65      0.00
   -1   19    4      1.11      0.00
    1   19    4      1.80      0.00
    3   19    4     -1.21      0.00
    5   19    4     -3.75      0.00
    7   19    4     -2.23      0.00
    9   19    4     -0.45      0.00
   11   19    4      0.35      0.00
   13   19    4     -0.36      0.00
  -14   18    4      0.04      0.00
  -12   18    4      0.60      0.00
  -10   18    4      3.02      0.00
   -8   18    4      2.77      0.00
   -6   18    4      2.77      0.00
   -4   18    4      2.66      0.00
   -2   18    4      0.84      0.00
    0   18    4     -3.04      0.00
    2   18    4     -0.59      0.00
    4   18    4      3.11      0.00
    6   18    4      4.29      0.00
    8   18    4      0.89      0.00
   10   18    4     -0.06      0.00
   12   18    4     -0.25      0.00
   14   18    4      0.62      0.00
  -17   17    4     -1.46      0.00
  -15   17    4     -0.54      0.00
  -13   17    4      0.56      0.00
  -11   17    4     -1.88      0.00
   -9   17    4     -3.51      0.00
   -7   17    4     -2.41      0.00
   -5   17    4     -3.33      0.00
   -3   17    4     -2.44      0.00
   -1   17    4      1.54      0.00
    1   17    4      3.16      0.00
    3   17    4     -2.24      0.00
    5   17    4     -5.64      0.00
    7   17    4     -3.71      0.00
    9   17    4     -0.32      0.00
   11   17    4     -0.21      0.00
   13   17    4     -0.57      0.00
   15   17    4     -0.89      0.00
   17   17    4     -0.68      0.00
  -18   16    4      1.35      0.00
  -16   16    4      1.69      0.00
  -14   16    4     -0.21      0.00
  -12   16    4      0.87      0.00
  -10   16    4      4.13      0.00
   -8   16    4      3.81      0.00
   -6   16    4      3.10      0.00
   -4   16    4      4.39      0.00
   -2   16    4      0.48      0.00
    0   16    4     -3.88      0.00
    2   16    4     -1.71      0.00
    4   16    4      5.79      0.00
    6   16    4      5.69      0.00
    8   16    4      2.26      0.00
   10   16    4     -0.37      0.00
   12   16    4      1.08      0.00
   14   16    4      0.75      0.00
   16   16    4      1.30      0.00
   18   16    4      0.58      0.00
  -19   15    4     -0.76      0.00
  -17   15    4     -2.12      0.00
  -15   15    4     -0.69      0.00
  -13   15    4      0.79      0.00
  -11   15    4     -3.12      0.00
   -9   15    4     -4.47      0.00
   -7   15    4     -3.44      0.00
   -5   15    4     -4.13      0.00
   -3   15    4     -4.07      0.00
   -1   15    4      2.81      0.00
    1   15    4      4.34      0.00
    3   15    4     -2.91      0.00
    5   15    4     -8.33      0.00
    7   15    4     -4.85      0.00
    9   15    4     -0.65      0.00
   11   15    4     -0.54      0.00
   13   15    4     -1.43      0.00
   15   15    4     -1.15      0.00
   17   15    4     -1.33      0.00
   19   15    4     -0.57      0.00
  -20   14    4      0.28      0.00
  -18   14    4      1.62      0.00
  -16   14    4      2.18      0.00
  -14   14    4     -0.76      0.00
  -12   14    4      1.33      0.00
  -10   14    4      5.21      0.00
   -8   14    4      4.57      0.00
   -6   14    4      3.80      0.00
   -4   14    4      5.76      0.00
   -2   14    4      0.89      0.00
    0   14    4     -6.11      0.00
    2   14    4     -1.75      0.00
    4   14    4      7.63      0.00
    6   14    4      8.63      0.00
    8   14    4      2.51      0.00
   10   14    4      0.77      0.00
   12   14    4      1.64      0.00
   14   14    4      2.05      0.00
   16   14    4      1.46      0.00
   18   14    4      1.62      0.00
   20   14    4      0.06      0.00
  -21   13    4     -0.51      0.00
  -19   13    4     -1.14      0.00
  -17   13    4     -2.89      0.00
  -15   13    4     -0.51      0.00
  -13   13    4      0.51      0.00
  -11   13    4     -3.75      0.00
   -9   13    4     -6.20      0.00
   -7   13    4     -3.55      0.00
   -5   13    4     -6.16      0.00
   -3   13    4     -5.02      0.00
   -1   13    4      3.61      0.00
    1   13    4      6.34      0.00
    3   13    4     -4.14      0.00
    5   13    4    -11.10      0.00
    7   13    4     -6.20      0.00
    9   13    4     -1.00      0.00
   11   13    4     -1.29      0.00
   13   13    4     -2.28      0.00
   15   13    4     -1.62      0.00
   17   13    4     -1.82      0.00
   19   13    4     -0.95      0.00
   21   13    4     -0.01      0.00
  -22   12    4      0.56      0.00
  -20   12    4      0.18      0.00
  -18   12    4      2.56      0.00
  -16   12    4      1.96      0.00
  -14   12    4     -0.63      0.00
  -12   12    4      1.07      0.00
  -10   12    4      6.82      0.00
   -8   12    4      4.65      0.00
   -6   12    4      5.14      0.00
   -4   12    4      7.20      0.00
   -2   12    4      1.33      0.00
    0   12    4     -8.50      0.00
    2   12    4     -2.05      0.00
    4   12    4     10.27      0.00
    6   12    4     11.19      0.00
    8   12    4      3.43      0.00
   10   12    4      1.51      0.00
   12   12    4      3.07      0.00
   14   12    4      2.67      0.00
   16   12    4      2.30      0.00
   18   12    4      1.92      0.00
   20   12    4      0.74      0.00
   22   12    4     -0.25      0.00
  -23   11    4     -1.28      0.00
  -21   11    4     -0.49      0.00
  -19   11    4     -1.87      0.00
  -17   11    4     -3.35      0.00
  -15   11    4     -0.73      0.00
  -13   11    4      0.83      0.00
  -11   11    4     -5.07      0.00
   -9   11    4     -6.81      0.00
   -7   11    4     -4.74      0.00
   -5   11    4     -7.64      0.00
   -3   11    4     -6.77      0.00
   -1   11    4      5.14      0.00
    1   11    4      8.33      0.00
    3   11    4     -5.73      0.00
    5   11    4    -13.85      0.00
    7   11    4     -7.93      0.00
    9   11    4     -1.23      0.00
   11   11    4     -2.68      0.00
   13   11    4     -3.06      0.00
   15   11    4     -2.35      0.00
   17   11    4     -2.12      0.00
   19   11    4     -1.65      0.00
   21   11    4     -0.05      0.00
   23   11    4     -0.11      0.00
  -24   10    4      1.14      0.00
  -22   10    4      0.51      0.00
  -20   10    4      0.79      0.00
  -18   10    4      2.87      0.00
  -16   10    4      2.76      0.00
  -14   10    4     -1.57      0.00
  -12   10    4      2.17      0.00
  -10   10    4      6.84      0.00
   -8   10    4      6.17      0.00
   -6   10    4      5.48      0.00
   -4   10    4     10.21      0.00
   -2   10    4      0.48      0.00
    0   10    4    -10.02      0.00
    2   10    4     -3.11      0.00
    4   10    4     13.97      0.00
    6   10    4     13.05      0.00
    8   10    4      4.76      0.00
   10   10    4      2.11      0.00
   12   10    4      4.67      0.00
   14   10    4      3.38      0.00
   16   10    4      2.73      0.00
   18   10    4      2.55      0.00
   20   10    4      1.04      0.00
   22   10    4      0.01      0.00
   24   10    4      0.10      0.00
  -25    9    4     -1.30      0.00
  -23    9    4     -1.42      0.00
  -21    9    4     -0.72      0.00
  -19    9    4     -2.27      0.00
  -17    9    4     -4.17      0.00
  -15    9    4     -0.55      0.00
  -13    9    4      0.61      0.00
  -11    9    4     -5.73      0.00
   -9    9    4     -7.69      0.00
   -7    9    4     -5.61      0.00
   -5    9    4     -9.62      0.00
   -3    9    4     -8.28      0.00
   -1    9    4      7.22      0.00
    1    9    4      9.81      0.00
    3    9    4     -6.77      0.00
    5    9    4    -17.65      0.00
    7    9    4     -8.57      0.00
    9    9    4     -2.62      0.00
   11    9    4     -3.56      0.00
   13    9    4     -4.79      0.00
   15    9    4     -2.68      0.00
   17    9    4     -2.89      0.00
   19    9    4     -2.05      0.00
   21    9    4     -0.63      0.00
   23    9    4      0.11      0.00
   25    9    4     -0.54      0.00
  -26    8    4      0.49      0.00
  -24    8    4      1.59      0.00
  -22    8    4      0.89      0.00
  -20    8    4      0.82      0.00
  -18    8    4      4.08      0.00
  -16    8    4      2.63      0.00
  -14    8    4     -1.02      0.00
  -12    8    4      1.86      0.00
  -10    8    4      8.48      0.00
   -8    8    4      5.88      0.00
   -6    8    4      8.14      0.00
   -4    8    4     11.33      0.00
   -2    8    4      1.32      0.00
    0    8    4    -13.38      0.00
    2    8    4     -2.14      0.00
    4    8    4     16.04      0.00
    6    8    4     16.25      0.00
    8    8    4      4.44      0.00
   10    8    4      3.86      0.00
   12    8    4      5.41      0.00
   14    8    4      4.61      0.00
   16    8    4      2.78      0.00
   18    8    4      3.02      0.00
   20    8    4      1.54      0.00
   22    8    4     -0.04      0.00
   24    8    4      0.19      0.00
   26    8    4      0.41      0.00
  -27    7    4     -0.31      0.00
  -25    7    4     -1.36      0.00
  -23    7    4     -2.01      0.00
  -21    7    4     -0.45      0.00
  -19    7    4     -2.84      0.00
  -17    7    4     -4.82      0.00
  -15    7    4     -0.52      0.00
  -13    7    4      0.30      0.00
  -11    7    4     -6.19      0.00
   -9    7    4     -8.53      0.00
   -7    7    4     -6.15      0.00
   -5    7    4    -12.20      0.00
   -3    7    4     -8.46      0.00
   -1    7    4      8.33      0.00
    1    7    4     12.50      0.00
    3    7    4     -9.61      0.00
    5    7    4    -19.64      0.00
    7    7    4    -10.70      0.00
    9    7    4     -2.53      0.00
   11    7    4     -5.93      0.00
   13    7    4     -5.81      0.00
   15    7    4     -3.94      0.00
   17    7    4     -3.13      0.00
   19    7    4     -2.98      0.00
   21    7    4     -0.75      0.00
   23    7    4     -0.10      0.00
   25    7    4     -0.46      0.00
   27    7    4     -0.31      0.00
  -26    6    4      0.78      0.00
  -24    6    4      2.22      0.00
  -22    6    4      1.16      0.00
  -20    6    4      1.06      0.00
  -18    6    4      4.78      0.00
  -16    6    4      3.35      0.00
  -14    6    4     -1.26      0.00
  -12    6    4      2.91      0.00
  -10    6    4      8.68      0.00
   -8    6    4      7.16      0.00
   -6    6    4      9.37      0.00
   -4    6    4     13.90      0.00
   -2    6    4      0.27      0.00
    0    6    4    -14.79      0.00
    2    6    4     -2.52      0.00
    4    6    4     19.69      0.00
    6    6    4     17.25      0.00
    8    6    4      5.51      0.00
   10    6    4      3.76      0.00
   12    6    4      7.48      0.00
   14    6    4      4.83      0.00
   16    6    4      3.33      0.00
   18    6    4      3.17      0.00
   20    6    4      1.88      0.00
   22    6    4     -0.02      0.00
   24    6    4      0.13      0.00
   26    6    4      0.54      0.00
  -27    5    4      0.02      0.00
  -25    5    4     -2.10      0.00
  -23    5    4     -2.00      0.00
  -21    5    4     -0.53      0.00
  -19    5    4     -3.05      0.00
  -17    5    4     -5.27      0.00
  -15    5    4     -0.91      0.00
  -13    5    4      0.53      0.00
  -11    5    4     -7.33      0.00
   -9    5    4     -8.24      0.00
   -7    5    4     -7.77      0.00
   -5    5    4    -13.04      0.00
   -3    5    4     -9.98      0.00
   -1    5    4     11.40      0.00
    1    5    4     12.49      0.00
    3    5    4    -10.31      0.00
    5    5    4    -23.35      0.00
    7    5    4    -10.65      0.00
    9    5    4     -3.98      0.00
   11    5    4     -6.83      0.00
   13    5    4     -8.16      0.00
   15    5    4     -4.37      0.00
   17    5    4     -4.09      0.00
   19    5    4     -3.37      0.00
   21    5    4     -1.20      0.00
   23    5    4      0.06      0.00
   25    5    4     -0.75      0.00
   27    5    4     -0.18      0.00
  -28    4    4      0.02      0.00
  -26    4    4      1.08      0.00
  -24    4    4      3.05      0.00
  -22    4    4      1.15      0.00
  -20    4    4      1.58      0.00
  -18    4    4      5.04      0.00
  -16    4    4      4.16      0.00
  -14    4    4     -1.22      0.00
  -12    4    4      3.59      0.00
  -10    4    4      9.30      0.00
   -8    4    4      7.96      0.00
   -6    4    4     10.74      0.00
   -4    4    4     15.87      0.00
   -2    4    4     -0.55      0.00
    0    4    4    -16.05      0.00
    2    4    4     -1.89      0.00
    4    4    4     22.01      0.00
    6    4    4     18.83      0.00
    8    4    4      5.11      0.00
   10    4    4      4.54      0.00
   12    4    4      8.21      0.00
   14    4    4      5.95      0.00
   16    4    4      3.10      0.00
   18    4    4      3.64      0.00
   20    4    4      1.96      0.00
   22    4    4     -0.12      0.00
   24    4    4      0.21      0.00
   26    4    4      0.70      0.00
   28    4    4     -0.29      0.00
  -27    3    4     -0.49      0.00
  -25    3    4     -2.15      0.00
  -23    3    4     -2.44      0.00
  -21    3    4     -0.42      0.00
  -19    3    4     -3.05      0.00
  -17    3    4     -5.82      0.00
  -15    3    4     -0.80      0.00
  -13    3    4      0.02      0.00
  -11    3    4     -7.23      0.00
   -9    3    4     -9.27      0.00
   -7    3    4     -7.44      0.00
   -5    3    4    -15.35      0.00
   -3    3    4     -9.16      0.00
   -1    3    4     11.85      0.00
    1    3    4     14.13      0.00
    3    3    4    -13.08      0.00
    5    3    4    -24.22      0.00
    7    3    4    -12.27      0.00
    9    3    4     -3.52      0.00
   11    3    4     -8.64      0.00
   13    3    4     -9.33      0.00
   15    3    4     -5.43      0.00
   17    3    4     -4.39      0.00
   19    3    4     -4.13      0.00
   21    3    4     -1.13      0.00
   23    3    4     -0.12      0.00
   25    3    4     -0.82      0.00
   27    3    4     -0.26      0.00
  -28    2    4      0.04      0.00
  -26    2    4      1.83      0.00
  -24    2    4      2.98      0.00
  -22    2    4      2.05      0.00
  -20    2    4      1.06      0.00
  -18    2    4      5.97      0.00
  -16    2    4      3.98      0.00
  -14    2    4     -0.38      0.00
  -12    2    4      3.23      0.00
  -10    2    4     10.76      0.00
   -8    2    4      7.39      0.00
   -6    2    4     12.97      0.00
   -4    2    4     15.81      0.00
   -2    2    4      0.32      0.00
    0    2    4    -18.10      0.00
    2    2    4     -0.01      0.00
    4    2    4     22.81      0.00
    6    2    4     20.14      0.00
    8    2    4      4.80      0.00
   10    2    4      4.51      0.00
   12    2    4      9.20      0.00
   14    2    4      6.28      0.00
   16    2    4      3.24      0.00
   18    2    4      3.76      0.00
   20    2    4      2.04      0.00
   22    2    4     -0.26      0.00
   24    2    4      0.36      0.00
   26    2    4      0.73      0.00
   28    2    4     -0.19      0.00
  -27    1    4     -0.47      0.00
  -25    1    4     -2.52      0.00
  -23    1    4     -2.46      0.00
  -21    1    4     -0.53      0.00
  -19    1    4     -3.02      0.00
  -17    1    4     -5.89      0.00
  -15    1    4     -1.17      0.00
  -13    1    4      0.35      0.00
  -11    1    4     -7.92      0.00
   -9    1    4     -8.97      0.00
   -7    1    4     -8.20      0.00
   -5    1    4    -15.48      0.00
   -3    1    4     -9.91      0.00
   -1    1    4     13.38      0.00
    1    1    4     13.56      0.00
    3    1    4    -13.49      0.00
    5    1    4    -25.77      0.00
    7    1    4    -12.17      0.00
    9    1    4     -4.04      0.00
   11    1    4     -8.94      0.00
   13    1    4    -10.56      0.00
   15    1    4     -5.66      0.00
   17    1    4     -4.83      0.00
   19    1    4     -4.37      0.00
   21    1    4     -1.23      0.00
   23    1    4     -0.08      0.00
   25    1    4     -1.03      0.00
   27    1    4     -0.20      0.00
  -28    0    4      0.38      0.00
  -26    0    4      1.56      0.00
  -24    0    4      3.74      0.00
  -22    0    4      1.43      0.00
  -20    0    4      1.96      0.00
  -18    0    4      5.13      0.00
  -16    0    4      5.12      0.00
  -14    0    4     -1.33      0.00
  -12    0    4      4.48      0.00
  -10    0    4      9.72      0.00
   -8    0    4      9.04      0.00
   -6    0    4     11.63      0.00
   -4    0    4     18.13      0.00
   -2    0    4     -1.78      0.00
    0    0    4    -16.48      0.00
    2    0    4     -1.32      0.00
    4    0    4     24.73      0.00
    6    0    4     19.42      0.00
    8    0    4      5.37      0.00
   10    0    4      4.14      0.00
   12    0    4      9.59      0.00
   14    0    4      6.50      0.00
   16    0    4      3.17      0.00
   18    0    4      3.87      0.00
   20    0    4      2.06      0.00
   22    0    4     -0.32      0.00
   24    0    4      0.38      0.00
   26    0    4      0.88      0.00
   28    0    4     -0.40      0.00
   -3   21    5     -0.17      0.00
   -1   21    5     -0.88      0.00
    1   21    5     -0.07      0.00
    3   21    5      1.36      0.00
   -8   20    5     -0.69      0.00
   -6   20    5     -0.43      0.00
   -4   20    5     -0.55      0.00
   -2   20    5      0.76      0.00
    0   20    5      0.38      0.00
    2   20    5     -1.36      0.00
    4   20    5     -2.95      0.00
    6   20    5     -1.40      0.00
    8   20    5      0.02      0.00
  -11   19    5      1.33      0.00
   -9   19    5      1.48      0.00
   -7   19    5      0.74      0.00
   -5   19    5      0.90      0.00
   -3   19    5     -0.03      0.00
   -1   19    5     -1.44      0.00
    1   19    5      0.20      0.00
    3   19    5      2.80      0.00
    5   19    5      2.81      0.00
    7   19    5      0.23      0.00
    9   19    5     -0.82      0.00
   11   19    5     -0.59      0.00
  -14   18    5      1.07      0.00
  -12   18    5     -0.41      0.00
  -10   18    5     -1.87      0.00
   -8   18    5     -0.75      0.00
   -6   18    5     -1.07      0.00
   -4   18    5     -0.70      0.00
   -2   18    5      0.68      0.00
    0   18    5      1.31      0.00
    2   18    5     -2.98      0.00
    4   18    5     -4.43      0.00
    6   18    5     -2.94      0.00
    8   18    5      0.43      0.00
   10   18    5      0.11      0.00
   12   18    5     -0.25      0.00
   14   18    5     -0.99      0.00
  -17   17    5      0.88      0.00
  -15   17    5     -0.71      0.00
  -13   17    5     -0.35      0.00
  -11   17    5      2.09      0.00
   -9   17    5      2.13      0.00
   -7   17    5      0.79      0.00
   -5   17    5      1.77      0.00
   -3   17    5     -0.10      0.00
   -1   17    5     -1.99      0.00
    1   17    5      0.16      0.00
    3   17    5      5.01      0.00
    5   17    5      4.51      0.00
    7   17    5      0.95      0.00
    9   17    5     -0.97      0.00
   11   17    5      0.20      0.00
   13   17    5      0.74      0.00
   15   17    5      0.86      0.00
  -18   16    5     -1.14      0.00
  -16   16    5      0.04      0.00
  -14   16    5      1.43      0.00
  -12   16    5     -0.87      0.00
  -10   16    5     -2.62      0.00
   -8   16    5     -1.16      0.00
   -6   16    5     -1.20      0.00
   -4   16    5     -1.81      0.00
   -2   16    5      1.78      0.00
    0   16    5      1.38      0.00
    2   16    5     -3.50      0.00
    4   16    5     -7.60      0.00
    6   16    5     -3.42      0.00
    8   16    5     -0.25      0.00
   10   16    5      0.47      0.00
   12   16    5     -1.47      0.00
   14   16    5     -0.88      0.00
   16   16    5     -1.14      0.00
   18   16    5      0.07      0.00
  -19   15    5      0.53      0.00
  -17   15    5      0.95      0.00
  -15   15    5     -1.11      0.00
  -13   15    5     -0.67      0.00
  -11   15    5      3.17      0.00
   -9   15    5      2.22      0.00
   -7   15    5      1.39      0.00
   -5   15    5      2.04      0.00
   -3   15    5      0.50      0.00
   -1   15    5     -3.47      0.00
    1   15    5      0.66      0.00
    3   15    5      7.18      0.00
    5   15    5      7.12      0.00
    7   15    5      1.42      0.00
    9   15    5     -0.50      0.00
   11   15    5      0.96      0.00
   13   15    5      1.71      0.00
   15   15    5      1.25      0.00
   17   15    5      0.82      0.00
   19   15    5     -0.24      0.00
  -20   14    5     -0.24      0.00
  -18   14    5     -1.21      0.00
  -16   14    5     -0.07      0.00
  -14   14    5      2.06      0.00
  -12   14    5     -1.56      0.00
  -10   14    5     -3.38      0.00
   -8   14    5     -1.45      0.00
   -6   14    5     -1.85      0.00
   -4   14    5     -2.37      0.00
   -2   14    5      2.15      0.00
    0   14    5      2.76      0.00
    2   14    5     -5.48      0.00
    4   14    5     -9.87      0.00
    6   14    5     -5.43      0.00
    8   14    5      0.35      0.00
   10   14    5     -0.65      0.00
   12   14    5     -1.71      0.00
   14   14    5     -1.87      0.00
   16   14    5     -0.99      0.00
   18   14    5     -0.55      0.00
   20   14    5      0.62      0.00
  -21   13    5     -0.44      0.00
  -19   13    5      0.54      0.00
  -17   13    5      1.03      0.00
  -15   13    5     -1.91      0.00
  -13   13    5     -0.58      0.00
  -11   13    5      3.43      0.00
   -9   13    5      3.21      0.00
   -7   13    5      1.01      0.00
   -5   13    5      3.49      0.00
   -3   13    5      0.07      0.00
   -1   13    5     -4.31      0.00
    1   13    5      0.62      0.00
    3   13    5     10.30      0.00
    5   13    5      9.83      0.00
    7   13    5      2.28      0.00
    9   13    5      0.02      0.00
   11   13    5      2.13      0.00
   13   13    5      2.62      0.00
   15   13    5      1.80      0.00
   17   13    5      1.26      0.00
   19   13    5     -0.11      0.00
   21   13    5     -0.30      0.00
  -22   12    5     -0.33      0.00
  -20   12    5     -0.02      0.00
  -18   12    5     -1.80      0.00
  -16   12    5      0.62      0.00
  -14   12    5      2.05      0.00
  -12   12    5     -1.46      0.00
  -10   12    5     -4.72      0.00
   -8   12    5     -1.42      0.00
   -6   12    5     -2.96      0.00
   -4   12    5     -2.94      0.00
   -2   12    5      2.84      0.00
    0   12    5      3.84      0.00
    2   12    5     -7.25      0.00
    4   12    5    -13.26      0.00
    6   12    5     -6.88      0.00
    8   12    5     -0.08      0.00
   10   12    5     -1.12      0.00
   12   12    5     -2.96      0.00
   14   12    5     -2.05      0.00
   16   12    5     -1.68      0.00
   18   12    5     -0.52      0.00
   20   12    5      0.27      0.00
   22   12    5      0.26      0.00
  -23   11    5      0.37      0.00
  -21   11    5     -0.61      0.00
  -19   11    5      0.81      0.00
  -17   11    5      0.78      0.00
  -15   11    5     -2.36      0.00
  -13   11    5     -1.17      0.00
  -11   11    5      4.33      0.00
   -9   11    5      3.34      0.00
   -7   11    5      1.84      0.00
   -5   11    5      4.10      0.00
   -3   11    5      0.31      0.00
   -1   11    5     -5.81      0.00
    1   11    5      1.05      0.00
    3   11    5     13.80      0.00
    5   11    5     12.61      0.00
    7   11    5      3.48      0.00
    9   11    5      0.46      0.00
   11   11    5      3.59      0.00
   13   11    5      3.40      0.00
   15   11    5      2.38      0.00
   17   11    5      1.57      0.00
   19   11    5      0.33      0.00
   21   11    5     -0.53      0.00
   23   11    5      0.08      0.00
  -24   10    5     -1.31      0.00
  -22   10    5     -0.02      0.00
  -20   10    5     -0.45      0.00
  -18   10    5     -1.60      0.00
  -16   10    5      0.45      0.00
  -14   10    5      3.12      0.00
  -12   10    5     -2.41      0.00
  -10   10    5     -4.80      0.00
   -8   10    5     -2.84      0.00
   -6   10    5     -3.13      0.00
   -4   10    5     -4.36      0.00
   -2   10    5      4.54      0.00
    0   10    5      4.18      0.00
    2   10    5     -8.78      0.00
    4   10    5    -17.33      0.00
    6   10    5     -8.13      0.00
    8   10    5     -0.91      0.00
   10   10    5     -1.86      0.00
   12   10    5     -4.27      0.00
   14   10    5     -2.67      0.00
   16   10    5     -1.92      0.00
   18   10    5     -1.19      0.00
   20   10    5      0.30      0.00
   22   10    5      0.22      0.00
   24   10    5     -0.13      0.00
  -25    9    5      1.12      0.00
  -23    9    5      0.42      0.00
  -21    9    5     -0.54      0.00
  -19    9    5      1.06      0.00
  -17    9    5      0.78      0.00
  -15    9    5     -2.94      0.00
  -13    9    5     -1.40      0.00
  -11    9    5      4.74      0.00
   -9    9    5      4.05      0.00
   -7    9    5      2.65      0.00
   -5    9    5      4.90      0.00
   -3    9    5      0.36      0.00
   -1    9    5     -7.56      0.00
    1    9    5      2.16      0.00
    3    9    5     16.71      0.00
    5    9    5     16.13      0.00
    7    9    5      3.70      0.00
    9    9    5      1.79      0.00
   11    9    5      4.40      0.00
   13    9    5      4.68      0.00
   15    9    5      2.44      0.00
   17    9    5      2.09      0.00
   19    9    5      0.60      0.00
   21    9    5     -0.46      0.00
   23    9    5     -0.25      0.00
   25    9    5      0.27      0.00
  -26    8    5     -1.10      0.00
  -24    8    5     -1.48      0.00
  -22    8    5     -0.01      0.00
  -20    8    5     -0.28      0.00
  -18    8    5     -2.17      0.00
  -16    8    5      1.18      0.00
  -14    8    5      2.95      0.00
  -12    8    5     -1.93      0.00
  -10    8    5     -6.28      0.00
   -8    8    5     -2.92      0.00
   -6    8    5     -4.99      0.00
   -4    8    5     -3.88      0.00
   -2    8    5      4.81      0.00
    0    8    5      5.85      0.00
    2    8    5    -11.87      0.00
    4    8    5    -20.00      0.00
    6    8    5    -10.56      0.00
    8    8    5     -0.80      0.00
   10    8    5     -3.85      0.00
   12    8    5     -5.22      0.00
   14    8    5     -3.79      0.00
   16    8    5     -2.15      0.00
   18    8    5     -1.80      0.00
   20    8    5     -0.13      0.00
   22    8    5      0.54      0.00
   24    8    5     -0.24      0.00
   26    8    5     -0.16      0.00
  -25    7    5      1.44      0.00
  -23    7    5      0.78      0.00
  -21    7    5     -0.64      0.00
  -19    7    5      1.46      0.00
  -17    7    5      1.09      0.00
  -15    7    5     -3.52      0.00
  -13    7    5     -1.21      0.00
  -11    7    5      4.77      0.00
   -9    7    5      5.34      0.00
   -7    7    5      3.11      0.00
   -5    7    5      6.43      0.00
   -3    7    5     -0.88      0.00
   -1    7    5     -7.79      0.00
    1    7    5      1.90      0.00
    3    7    5     21.01      0.00
    5    7    5     17.58      0.00
    7    7    5      5.18      0.00
    9    7    5      1.68      0.00
   11    7    5      6.37      0.00
   13    7    5      5.07      0.00
   15    7    5      2.95      0.00
   17    7    5      2.10      0.00
   19    7    5      1.14      0.00
   21    7    5     -0.64      0.00
   23    7    5     -0.29      0.00
   25    7    5      0.25      0.00
  -26    6    5     -1.34      0.00
  -24    6    5     -1.65      0.00
  -22    6    5      0.22      0.00
  -20    6    5     -0.22      0.00
  -18    6    5     -2.43      0.00
  -16    6    5      1.15      0.00
  -14    6    5      3.53      0.00
  -12    6    5     -2.49      0.00
  -10    6    5     -6.42      0.00
   -8    6    5     -4.33      0.00
   -6    6    5     -5.44      0.00
   -4    6    5     -4.47      0.00
   -2    6    5      6.46      0.00
    0    6    5      5.68      0.00
    2    6    5    -13.40      0.00
    4    6    5    -23.81      0.00
    6    6    5    -11.19      0.00
    8    6    5     -2.24      0.00
   10    6    5     -4.68      0.00
   12    6    5     -7.66      0.00
   14    6    5     -4.14      0.00
   16    6    5     -2.93      0.00
   18    6    5     -2.25      0.00
   20    6    5     -0.43      0.00
   22    6    5      0.55      0.00
   24    6    5     -0.18      0.00
   26    6    5     -0.21      0.00
  -27    5    5      0.51      0.00
  -25    5    5      2.24      0.00
  -23    5    5      0.78      0.00
  -21    5    5     -0.64      0.00
  -19    5    5      1.98      0.00
  -17    5    5      1.22      0.00
  -15    5    5     -3.23      0.00
  -13    5    5     -1.82      0.00
  -11    5    5      5.95      0.00
   -9    5    5      5.19      0.00
   -7    5    5      5.20      0.00
   -5    5    5      6.02      0.00
   -3    5    5     -0.15      0.00
   -1    5    5     -9.84      0.00
    1    5    5      4.21      0.00
    3    5    5     22.40      0.00
    5    5    5     20.63      0.00
    7    5    5      4.38      0.00
    9    5    5      3.02      0.00
   11    5    5      7.08      0.00
   13    5    5      6.38      0.00
   15    5    5      2.59      0.00
   17    5    5      2.48      0.00
   19    5    5      1.17      0.00
   21    5    5     -0.61      0.00
   23    5    5     -0.40      0.00
   25    5    5      0.43      0.00
   27    5    5     -0.12      0.00
  -26    4    5     -1.39      0.00
  -24    4    5     -2.05      0.00
  -22    4    5      0.84      0.00
  -20    4    5     -0.44      0.00
  -18    4    5     -2.42      0.00
  -16    4    5      0.83      0.00
  -14    4    5      4.00      0.00
  -12    4    5     -2.76      0.00
  -10    4    5     -6.75      0.00
   -8    4    5     -5.13      0.00
   -6    4    5     -6.11      0.00
   -4    4    5     -4.60      0.00
   -2    4    5      7.52      0.00
    0    4    5      5.48      0.00
    2    4    5    -15.36      0.00
    4    4    5    -26.00      0.00
    6    4    5    -12.66      0.00
    8    4    5     -2.28      0.00
   10    4    5     -6.73      0.00
   12    4    5     -9.00      0.00
   14    4    5     -5.34      0.00
   16    4    5     -3.01      0.00
   18    4    5     -2.95      0.00
   20    4    5     -0.51      0.00
   22    4    5      0.52      0.00
   24    4    5     -0.31      0.00
   26    4    5     -0.25      0.00
  -27    3    5      1.15      0.00
  -25    3    5      2.41      0.00
  -23    3    5      1.11      0.00
  -21    3    5     -0.67      0.00
  -19    3    5      2.10      0.00
  -17    3    5      2.04      0.00
  -15    3    5     -3.73      0.00
  -13    3    5     -1.24      0.00
  -11    3    5      5.59      0.00
   -9    3    5      6.60      0.00
   -7    3    5      5.00      0.00
   -5    3    5      7.78      0.00
   -3    3    5     -1.76      0.00
   -1    3    5     -8.89      0.00
    1    3    5      4.06      0.00
    3    3    5     25.47      0.00
    5    3    5     20.78      0.00
    7    3    5      5.39      0.00
    9    3    5      2.48      0.00
   11    3    5      8.84      0.00
   13    3    5      6.66      0.00
   15    3    5      2.67      0.00
   17    3    5      2.39      0.00
   19    3    5      1.31      0.00
   21    3    5     -0.79      0.00
   23    3    5     -0.22      0.00
   25    3    5      0.50      0.00
   27    3    5     -0.10      0.00
  -28    2    5     -0.17      0.00
  -26    2    5     -1.93      0.00
  -24    2    5     -1.57      0.00
  -22    2    5      0.34      0.00
  -20    2    5      0.44      0.00
  -18    2    5     -3.34      0.00
  -16    2    5      1.33      0.00
  -14    2    5      3.64      0.00
  -12    2    5     -2.20      0.00
  -10    2    5     -7.74      0.00
   -8    2    5     -4.64      0.00
   -6    2    5     -7.64      0.00
   -4    2    5     -3.54      0.00
   -2    2    5      7.02      0.00
    0    2    5      6.04      0.00
    2    2    5    -17.56      0.00
    4    2    5    -26.95      0.00
    6    2    5    -13.67      0.00
    8    2    5     -2.61      0.00
   10    2    5     -7.61      0.00
   12    2    5    -10.77      0.00
   14    2    5     -5.55      0.00
   16    2    5     -3.46      0.00
   18    2    5     -3.16      0.00
   20    2    5     -0.59      0.00
   22    2    5      0.47      0.00
   24    2    5     -0.52      0.00
   26    2    5     -0.16      0.00
   28    2    5      0.30      0.00
  -27    1    5      1.25      0.00
  -25    1    5      2.74      0.00
  -23    1    5      1.19      0.00
  -21    1    5     -0.68      0.00
  -19    1    5      2.31      0.00
  -17    1    5      2.21      0.00
  -15    1    5     -3.42      0.00
  -13    1    5     -1.71      0.00
  -11    1    5      6.36      0.00
   -9    1    5      6.23      0.00
   -7    1    5      6.10      0.00
   -5    1    5      7.47      0.00
   -3    1    5     -1.22      0.00
   -1    1    5     -9.68      0.00
    1    1    5      5.58      0.00
    3    1    5     25.76      0.00
    5    1    5     22.00      0.00
    7    1    5      4.87      0.00
    9    1    5      2.96      0.00
   11    1    5      9.21      0.00
   13    1    5      7.29      0.00
   15    1    5      2.34      0.00
   17    1    5      2.50      0.00
   19    1    5      1.23      0.00
   21    1    5     -0.84      0.00
   23    1    5     -0.11      0.00
   25    1    5      0.62      0.00
   27    1    5     -0.12      0.00
  -28    0    5     -0.58      0.00
  -26    0    5     -1.48      0.00
  -24    0    5     -2.27      0.00
  -22    0    5      1.19      0.00
  -20    0    5     -0.35      0.00
  -18    0    5     -2.52      0.00
  -16    0    5      0.34      0.00
  -14    0    5      4.69      0.00
  -12    0    5     -3.22      0.00
  -10    0    5     -6.72      0.00
   -8    0    5     -5.99      0.00
   -6    0    5     -6.43      0.00
   -4    0    5     -5.08      0.00
   -2    0    5      8.77      0.00
    0    0    5      4.34      0.00
    2    0    5    -16.82      0.00
    4    0    5    -28.43      0.00
    6    0    5    -13.29      0.00
    8    0    5     -3.05      0.00
   10    0    5     -7.93      0.00
   12    0    5    -11.23      0.00
   14    0    5     -5.89      0.00
   16    0    5     -3.38      0.00
   18    0    5     -3.38      0.00
   20    0    5     -0.54      0.00
   22    0    5      0.40      0.00
   24    0    5     -0.55      0.00
   26    0    5     -0.27      0.00
   28    0    5      0.50      0.00
   -8   20    6      0.07      0.00
   -6   20    6      0.02      0.00
   -4   20    6     -0.08      0.00
   -2   20    6     -0.74      0.00
    0   20    6      0.56      0.00
    2   20    6      1.46      0.00
    4   20    6      1.27      0.00
    6   20    6     -0.63      0.00
    8   20    6     -1.16      0.00
  -11   19    6     -0.89      0.00
   -9   19    6     -0.36      0.00
   -7   19    6     -0.05      0.00
   -5   19    6     -0.32      0.00
   -3   19    6      0.30      0.00
   -1   19    6     -0.07      0.00
    1   19    6     -2.23      0.00
    3   19    6     -2.89      0.00
    5   19    6     -1.26      0.00
    7   19    6      0.69      0.00
    9   19    6      0.59      0.00
   11   19    6     -0.21      0.00
  -14   18    6     -0.79      0.00
  -12   18    6      0.94      0.00
  -10   18    6      1.25      0.00
   -8   18    6      0.07      0.00
   -6   18    6      0.63      0.00
   -4   18    6     -0.22      0.00
   -2   18    6     -0.58      0.00
    0   18    6      0.61      0.00
    2   18    6      3.55      0.00
    4   18    6      2.05      0.00
    6   18    6     -0.07      0.00
    8   18    6     -1.77      0.00
   10   18    6     -0.19      0.00
   12   18    6      0.35      0.00
   14   18    6      0.73      0.00
  -15   17    6      1.48      0.00
  -13   17    6      0.00      0.00
  -11   17    6     -1.38      0.00
   -9   17    6     -0.65      0.00
   -7   17    6     -0.02      0.00
   -5   17    6     -0.93      0.00
   -3   17    6      0.74      0.00
   -1   17    6     -0.15      0.00
    1   17    6     -3.27      0.00
    3   17    6     -4.93      0.00
    5   17    6     -1.85      0.00
    7   17    6      0.79      0.00
    9   17    6      0.72      0.00
   11   17    6     -0.84      0.00
   13   17    6     -0.99      0.00
   15   17    6     -0.58      0.00
  -18   16    6      0.50      0.00
  -16   16    6     -1.20      0.00
  -14   16    6     -1.00      0.00
  -12   16    6      1.49      0.00
  -10   16    6      1.63      0.00
   -8   16    6      0.36      0.00
   -6   16    6      0.78      0.00
   -4   16    6      0.43      0.00
   -2   16    6     -1.57      0.00
    0   16    6      1.78      0.00
    2   16    6      4.86      0.00
    4   16    6      4.53      0.00
    6   16    6     -0.59      0.00
    8   16    6     -1.16      0.00
   10   16    6     -0.25      0.00
   12   16    6      1.55      0.00
   14   16    6      0.60      0.00
   16   16    6      0.48      0.00
   18   16    6     -0.64      0.00
  -19   15    6     -0.53      0.00
  -17   15    6      0.31      0.00
  -15   15    6      1.83      0.00
  -13   15    6      0.05      0.00
  -11   15    6     -2.37      0.00
   -9   15    6     -0.39      0.00
   -7   15    6     -0.73      0.00
   -5   15    6     -0.85      0.00
   -3   15    6      0.56      0.00
   -1   15    6      0.63      0.00
    1   15    6     -5.01      0.00
    3   15    6     -6.90      0.00
    5   15    6     -2.95      0.00
    7   15    6      1.35      0.00
    9   15    6      0.45      0.00
   11   15    6     -1.31      0.00
   13   15    6     -1.46      0.00
   15   15    6     -0.64      0.00
   17   15    6      0.11      0.00
   19   15    6      0.55      0.00
  -20   14    6     -0.21      0.00
  -18   14    6      0.16      0.00
  -16   14    6     -1.49      0.00
  -14   14    6     -1.59      0.00
  -12   14    6      2.16      0.00
  -10   14    6      2.01      0.00
   -8   14    6      0.43      0.00
   -6   14    6      1.36      0.00
   -4   14    6      0.34      0.00
   -2   14    6     -1.70      0.00
    0   14    6      1.86      0.00
    2   14    6      7.98      0.00
    4   14    6      6.06      0.00
    6   14    6      0.44      0.00
    8   14    6     -1.84      0.00
   10   14    6      1.24      0.00
   12   14    6      1.71      0.00
   14   14    6      1.54      0.00
   16   14    6      0.20      0.00
   18   14    6     -0.26      0.00
   20   14    6     -0.58      0.00
  -21   13    6      0.56      0.00
  -19   13    6     -0.44      0.00
  -17   13    6      0.44      0.00
  -15   13    6      2.59      0.00
  -13   13    6     -0.38      0.00
  -11   13    6     -2.64      0.00
   -9   13    6     -1.24      0.00
   -7   13    6     -0.34      0.00
   -5   13    6     -1.93      0.00
   -3   13    6      1.50      0.00
   -1   13    6      0.52      0.00
    1   13    6     -6.33      0.00
    3   13    6     -9.83      0.00
    5   13    6     -3.89      0.00
    7   13    6      1.68      0.00
    9   13    6      0.31      0.00
   11   13    6     -2.07      0.00
   13   13    6     -1.75      0.00
   15   13    6     -0.79      0.00
   17   13    6      0.08      0.00
   19   13    6      0.74      0.00
   21   13    6      0.04      0.00
  -22   12    6     -0.96      0.00
  -20   12    6     -0.82      0.00
  -18   12    6      0.25      0.00
  -16   12    6     -2.52      0.00
  -14   12    6     -1.70      0.00
  -12   12    6      2.14      0.00
  -10   12    6      2.94      0.00
   -8   12    6      0.20      0.00
   -6   12    6      1.96      0.00
   -4   12    6      0.35      0.00
   -2   12    6     -2.23      0.00
    0   12    6      2.77      0.00
    2   12    6     10.79      0.00
    4   12    6      8.87      0.00
    6   12    6      0.59      0.00
    8   12    6     -1.45      0.00
   10   12    6      1.79      0.00
   12   12    6      2.92      0.00
   14   12    6      1.45      0.00
   16   12    6      0.78      0.00
   18   12    6     -0.60      0.00
   20   12    6     -0.48      0.00
   22   12    6     -0.14      0.00
  -23   11    6      0.18      0.00
  -21   11    6      0.97      0.00
  -19   11    6     -0.32      0.00
  -17   11    6      0.92      0.00
  -15   11    6      3.06      0.00
  -13   11    6     -0.14      0.00
  -11   11    6     -3.75      0.00
   -9   11    6     -1.35      0.00
   -7   11    6     -0.97      0.00
   -5   11    6     -1.92      0.00
   -3   11    6      1.60      0.00
   -1   11    6      0.91      0.00
    1   11    6     -8.38      0.00
    3   11    6    -12.98      0.00
    5   11    6     -4.97      0.00
    7   11    6      1.79      0.00
    9   11    6      0.20      0.00
   11   11    6     -3.04      0.00
   13   11    6     -2.05      0.00
   15   11    6     -0.91      0.00
   17   11    6     -0.03      0.00
   19   11    6      0.73      0.00
   21   11    6      0.46      0.00
   23   11    6     -0.16      0.00
  -24   10    6      0.06      0.00
  -22   10    6     -1.64      0.00
  -20   10    6     -0.78      0.00
  -18   10    6     -0.40      0.00
  -16   10    6     -2.78      0.00
  -14   10    6     -2.77      0.00
  -12   10    6      3.00      0.00
  -10   10    6      3.07      0.00
   -8   10    6      0.99      0.00
   -6   10    6      1.56      0.00
   -4   10    6      0.86      0.00
   -2   10    6     -3.18      0.00
    0   10    6      4.18      0.00
    2   10    6     13.66      0.00
    4   10    6     11.81      0.00
    6   10    6      0.76      0.00
    8   10    6     -1.17      0.00
   10   10    6      2.56      0.00
   12   10    6      3.75      0.00
   14   10    6      1.69      0.00
   16   10    6      0.69      0.00
   18   10    6     -0.19      0.00
   20   10    6     -1.02      0.00
   22   10    6     -0.22      0.00
   24   10    6     -0.10      0.00
  -25    9    6     -0.85      0.00
  -23    9    6      0.58      0.00
  -21    9    6      1.40      0.00
  -19    9    6     -0.20      0.00
  -17    9    6      1.45      0.00
  -15    9    6      3.61      0.00
  -13    9    6     -0.01      0.00
  -11    9    6     -4.65      0.00
   -9    9    6     -2.06      0.00
   -7    9    6     -1.26      0.00
   -5    9    6     -1.85      0.00
   -3    9    6      1.71      0.00
   -1    9    6      1.34      0.00
    1    9    6    -11.03      0.00
    3    9    6    -15.61      0.00
    5    9    6     -6.79      0.00
    7    9    6      2.44      0.00
    9    9    6     -0.79      0.00
   11    9    6     -3.72      0.00
   13    9    6     -2.82      0.00
   15    9    6     -0.81      0.00
   17    9    6     -0.41      0.00
   19    9    6      0.72      0.00
   21    9    6      0.79      0.00
   23    9    6      0.05      0.00
   25    9    6     -0.08      0.00
  -24    8    6     -0.07      0.00
  -22    8    6     -1.89      0.00
  -20    8    6     -1.08      0.00
  -18    8    6     -0.32      0.00
  -16    8    6     -3.73      0.00
  -14    8    6     -2.84      0.00
  -12    8    6      2.73      0.00
  -10    8    6      4.55      0.00
   -8    8    6      0.72      0.00
   -6    8    6      2.17      0.00
   -4    8    6     -0.05      0.00
   -2    8    6     -2.87      0.00
    0    8    6      4.51      0.00
    2    8    6     17.36      0.00
    4    8    6     13.49      0.00
    6    8    6      1.63      0.00
    8    8    6     -1.69      0.00
   10    8    6      3.98      0.00
   12    8    6      4.08      0.00
   14    8    6      1.94      0.00
   16    8    6      0.58      0.00
   18    8    6     -0.01      0.00
   20    8    6     -1.15      0.00
   22    8    6     -0.75      0.00
   24    8    6      0.08      0.00
  -25    7    6     -0.78      0.00
  -23    7    6      1.01      0.00
  -21    7    6      1.78      0.00
  -19    7    6      0.04      0.00
  -17    7    6      1.54      0.00
  -15    7    6      4.56      0.00
  -13    7    6     -0.40      0.00
  -11    7    6     -4.95      0.00
   -9    7    6     -3.61      0.00
   -7    7    6     -0.77      0.00
   -5    7    6     -2.46      0.00
   -3    7    6      2.94      0.00
   -1    7    6      0.21      0.00
    1    7    6    -12.02      0.00
    3    7    6    -19.54      0.00
    5    7    6     -6.99      0.00
    7    7    6      1.55      0.00
    9    7    6     -0.99      0.00
   11    7    6     -5.55      0.00
   13    7    6     -3.03      0.00
   15    7    6     -1.12      0.00
   17    7    6     -0.64      0.00
   19    7    6      0.49      0.00
   21    7    6      1.15      0.00
   23    7    6      0.16      0.00
   25    7    6     -0.05      0.00
  -26    6    6      0.97      0.00
  -24    6    6     -0.13      0.00
  -22    6    6     -2.15      0.00
  -20    6    6     -1.09      0.00
  -18    6    6     -0.24      0.00
  -16    6    6     -4.09      0.00
  -14    6    6     -3.51      0.00
  -12    6    6      3.31      0.00
  -10    6    6      5.04      0.00
   -8    6    6      1.65      0.00
   -6    6    6      1.56      0.00
   -4    6    6      0.03      0.00
   -2    6    6     -3.48      0.00
    0    6    6      5.98      0.00
    2    6    6     19.22      0.00
    4    6    6     16.00      0.00
    6    6    6      0.95      0.00
    8    6    6     -0.91      0.00
   10    6    6      4.31      0.00
   12    6    6      5.27      0.00
   14    6    6      1.27      0.00
   16    6    6      0.76      0.00
   18    6    6      0.01      0.00
   20    6    6     -1.34      0.00
   22    6    6     -0.91      0.00
   24    6    6      0.02      0.00
   26    6    6     -0.18      0.00
  -27    5    6     -0.40      0.00
  -25    5    6     -0.89      0.00
  -23    5    6      1.59      0.00
  -21    5    6      2.29      0.00
  -19    5    6     -0.28      0.00
  -17    5    6      2.15      0.00
  -15    5    6      4.57      0.00
  -13    5    6      0.44      0.00
  -11    5    6     -6.52      0.00
   -9    5    6     -3.44      0.00
   -7    5    6     -2.18      0.00
   -5    5    6     -0.91      0.00
   -3    5    6      1.81      0.00
   -1    5    6      1.12      0.00
    1    5    6    -15.10      0.00
    3    5    6    -20.57      0.00
    5    5    6     -9.20      0.00
    7    5    6      2.39      0.00
    9    5    6     -2.91      0.00
   11    5    6     -6.51      0.00
   13    5    6     -3.86      0.00
   15    5    6     -0.95      0.00
   17    5    6     -1.09      0.00
   19    5    6      0.42      0.00
   21    5    6      1.27      0.00
   23    5    6      0.23      0.00
   25    5    6      0.00      0.00
   27    5    6      0.41      0.00
  -26    4    6      0.99      0.00
  -24    4    6      0.19      0.00
  -22    4    6     -2.78      0.00
  -20    4    6     -0.59      0.00
  -18    4    6     -0.27      0.00
  -16    4    6     -4.17      0.00
  -14    4    6     -4.16      0.00
  -12    4    6      3.66      0.00
  -10    4    6      5.61      0.00
   -8    4    6      2.23      0.00
   -6    4    6      1.39      0.00
   -4    4    6     -0.21      0.00
   -2    4    6     -3.41      0.00
    0    4    6      6.93      0.00
    2    4    6     21.05      0.00
    4    4    6     17.04      0.00
    6    4    6      1.34      0.00
    8    4    6     -1.42      0.00
   10    4    6      5.91      0.00
   12    4    6      5.19      0.00
   14    4    6      1.23      0.00
   16    4    6      0.28      0.00
   18    4    6      0.18      0.00
   20    4    6     -1.53      0.00
   22    4    6     -0.93      0.00
   24    4    6      0.05      0.00
   26    4    6     -0.17      0.00
  -27    3    6     -0.56      0.00
  -25    3    6     -0.62      0.00
  -23    3    6      1.93      0.00
  -21    3    6      2.56      0.00
  -19    3    6     -0.16      0.00
  -17    3    6      1.73      0.00
  -15    3    6      5.77      0.00
  -13    3    6     -0.18      0.00
  -11    3    6     -6.09      0.00
   -9    3    6     -5.03      0.00
   -7    3    6     -1.33      0.00
   -5    3    6     -1.98      0.00
   -3    3    6      3.17      0.00
   -1    3    6     -0.90      0.00
    1    3    6    -15.13      0.00
    3    3    6    -23.37      0.00
    5    3    6     -9.01      0.00
    7    3    6      1.27      0.00
    9    3    6     -3.26      0.00
   11    3    6     -8.43      0.00
   13    3    6     -3.80      0.00
   15    3    6     -1.05      0.00
   17    3    6     -1.28      0.00
   19    3    6      0.40      0.00
   21    3    6      1.23      0.00
   23    3    6      0.20      0.00
   25    3    6      0.06      0.00
   27    3    6      0.52      0.00
  -26    2    6      1.52      0.00
  -24    2    6     -0.34      0.00
  -22    2    6     -2.26      0.00
  -20    2    6     -1.19      0.00
  -18    2    6      0.77      0.00
  -16    2    6     -4.99      0.00
  -14    2    6     -4.05      0.00
  -12    2    6      3.31      0.00
  -10    2    6      6.53      0.00
   -8    2    6      1.95      0.00
   -6    2    6      2.17      0.00
   -4    2    6     -1.16      0.00
   -2    2    6     -2.38      0.00
    0    2    6      7.09      0.00
    2    2    6     22.54      0.00
    4    2    6     17.57      0.00
    6    2    6      1.36      0.00
    8    2    6     -1.24      0.00
   10    2    6      6.35      0.00
   12    2    6      5.88      0.00
   14    2    6      0.33      0.00
   16    2    6      0.37      0.00
   18    2    6     -0.05      0.00
   20    2    6     -1.56      0.00
   22    2    6     -0.83      0.00
   24    2    6      0.13      0.00
   26    2    6     -0.29      0.00
  -27    1    6     -0.37      0.00
  -25    1    6     -0.61      0.00
  -23    1    6      2.14      0.00
  -21    1    6      2.86      0.00
  -19    1    6     -0.44      0.00
  -17    1    6      1.94      0.00
  -15    1    6      5.80      0.00
  -13    1    6      0.42      0.00
  -11    1    6     -6.91      0.00
   -9    1    6     -4.60      0.00
   -7    1    6     -2.30      0.00
   -5    1    6     -1.14      0.00
   -3    1    6      2.33      0.00
   -1    1    6     -0.62      0.00
    1    1    6    -16.67      0.00
    3    1    6    -23.45      0.00
    5    1    6    -10.18      0.00
    7    1    6      1.63      0.00
    9    1    6     -4.28      0.00
   11    1    6     -9.01      0.00
   13    1    6     -4.07      0.00
   15    1    6     -0.85      0.00
   17    1    6     -1.45      0.00
   19    1    6      0.42      0.00
   21    1    6      1.19      0.00
   23    1    6      0.10      0.00
   25    1    6      0.15      0.00
   27    1    6      0.55      0.00
  -28    0    6      0.46      0.00
  -26    0    6      0.97      0.00
  -24    0    6      0.41      0.00
  -22    0    6     -3.14      0.00
  -20    0    6     -0.30      0.00
  -18    0    6      0.07      0.00
  -16    0    6     -4.26      0.00
  -14    0    6     -5.02      0.00
  -12    0    6      4.17      0.00
  -10    0    6      5.76      0.00
   -8    0    6      3.04      0.00
   -6    0    6      1.14      0.00
   -4    0    6     -0.05      0.00
   -2    0    6     -3.41      0.00
    0    0    6      8.51      0.00
    2    0    6     21.97      0.00
    4    0    6     18.46      0.00
    6    0    6      1.05      0.00
    8    0    6     -1.20      0.00
   10    0    6      6.79      0.00
   12    0    6      5.72      0.00
   14    0    6      0.36      0.00
   16    0    6      0.06      0.00
   18    0    6      0.05      0.00
   20    0    6     -1.68      0.00
   22    0    6     -0.72      0.00
   24    0    6      0.09      0.00
   26    0    6     -0.18      0.00
   28    0    6     -0.32      0.00
   -6   20    7      0.00      0.00
   -4   20    7      0.06      0.00
   -2   20    7     -0.15      0.00
    0   20    7     -1.39      0.00
    2   20    7     -1.07      0.00
    4   20    7     -0.29      0.00
    6   20    7      0.81      0.00
   -9   19    7     -0.01      0.00
   -7   19    7     -0.10      0.00
   -5   19    7     -0.18      0.00
   -3   19    7     -0.44      0.00
   -1   19    7      0.61      0.00
    1   19    7      1.42      0.00
    3   19    7      0.44      0.00
    5   19    7     -1.05      0.00
    7   19    7     -1.45      0.00
    9   19    7     -0.48      0.00
  -12   18    7     -0.83      0.00
  -10   18    7     -0.48      0.00
   -8   18    7      0.25      0.00
   -6   18    7     -0.30      0.00
   -4   18    7      0.44      0.00
   -2   18    7     -0.61      0.00
    0   18    7     -1.94      0.00
    2   18    7     -2.59      0.00
    4   18    7     -0.05      0.00
    6   18    7      0.77      0.00
    8   18    7      0.89      0.00
   10   18    7     -0.89      0.00
   12   18    7     -0.86      0.00
  -15   17    7     -1.00      0.00
  -13   17    7      0.81      0.00
  -11   17    7      1.07      0.00
   -9   17    7      0.35      0.00
   -7   17    7     -0.09      0.00
   -5   17    7      0.15      0.00
   -3   17    7     -0.81      0.00
   -1   17    7      1.33      0.00
    1   17    7      2.58      0.00
    3   17    7      1.38      0.00
    5   17    7     -1.38      0.00
    7   17    7     -1.71      0.00
    9   17    7     -0.29      0.00
   11   17    7      1.02      0.00
   13   17    7      0.69      0.00
   15   17    7     -0.01      0.00
  -16   16    7      1.46      0.00
  -14   16    7      0.23      0.00
  -12   16    7     -1.32      0.00
  -10   16    7     -0.62      0.00
   -8   16    7      0.02      0.00
   -6   16    7     -0.10      0.00
   -4   16    7      0.24      0.00
   -2   16    7      0.03      0.00
    0   16    7     -3.58      0.00
    2   16    7     -3.22      0.00
    4   16    7     -1.00      0.00
    6   16    7      2.11      0.00
    8   16    7      0.33      0.00
   10   16    7     -0.72      0.00
   12   16    7     -1.67      0.00
   14   16    7     -0.18      0.00
   16   16    7      0.08      0.00
  -19   15    7      0.07      0.00
  -17   15    7     -1.12      0.00
  -15   15    7     -1.14      0.00
  -13   15    7      0.97      0.00
  -11   15    7      1.98      0.00
   -9   15    7      0.07      0.00
   -7   15    7      0.64      0.00
   -5   15    7     -0.31      0.00
   -3   15    7     -0.52      0.00
   -1   15    7      1.42      0.00
    1   15    7      4.60      0.00
    3   15    7      2.30      0.00
    5   15    7     -1.42      0.00
    7   15    7     -2.23      0.00
    9   15    7      0.32      0.00
   11   15    7      1.51      0.00
   13   15    7      1.06      0.00
   15   15    7      0.01      0.00
   17   15    7     -0.49      0.00
   19   15    7     -0.22      0.00
  -20   14    7     -0.11      0.00
  -18   14    7      0.36      0.00
  -16   14    7      1.66      0.00
  -14   14    7      0.41      0.00
  -12   14    7     -2.04      0.00
  -10   14    7     -0.88      0.00
   -8   14    7      0.07      0.00
   -6   14    7     -0.38      0.00
   -4   14    7      0.83      0.00
   -2   14    7     -0.29      0.00
    0   14    7     -4.13      0.00
    2   14    7     -5.53      0.00
    4   14    7     -0.57      0.00
    6   14    7      2.25      0.00
    8   14    7      1.22      0.00
   10   14    7     -1.89      0.00
   12   14    7     -1.29      0.00
   14   14    7     -0.75      0.00
   16   14    7      0.63      0.00
   18   14    7      0.38      0.00
   20   14    7      0.15      0.00
  -21   13    7     -1.07      0.00
  -19   13    7     -0.13      0.00
  -17   13    7     -1.39      0.00
  -15   13    7     -1.76      0.00
  -13   13    7      1.65      0.00
  -11   13    7      2.14      0.00
   -9   13    7      0.74      0.00
   -7   13    7      0.08      0.00
   -5   13    7      0.42      0.00
   -3   13    7     -1.29      0.00
   -1   13    7      2.63      0.00
    1   13    7      6.28      0.00
    3   13    7      4.12      0.00
    5   13    7     -1.79      0.00
    7   13    7     -2.58      0.00
    9   13    7      0.86      0.00
   11   13    7      2.25      0.00
   13   13    7      1.21      0.00
   15   13    7      0.08      0.00
   17   13    7     -0.60      0.00
   19   13    7     -0.47      0.00
   21   13    7      0.12      0.00
  -22   12    7      1.01      0.00
  -20   12    7      0.40      0.00
  -18   12    7      0.21      0.00
  -16   12    7      2.43      0.00
  -14   12    7      0.17      0.00
  -12   12    7     -2.45      0.00
  -10   12    7     -1.58      0.00
   -8   12    7      0.37      0.00
   -6   12    7     -0.53      0.00
   -4   12    7      0.96      0.00
   -2   12    7     -0.16      0.00
    0   12    7     -5.77      0.00
    2   12    7     -7.18      0.00
    4   12    7     -1.32      0.00
    6   12    7      3.64      0.00
    8   12    7      1.03      0.00
   10   12    7     -2.04      0.00
   12   12    7     -1.95      0.00
   14   12    7     -0.21      0.00
   16   12    7      0.29      0.00
   18   12    7      0.93      0.00
   20   12    7      0.07      0.00
   22   12    7      0.03      0.00
  -23   11    7     -1.56      0.00
  -21   11    7     -1.58      0.00
  -19   11    7     -0.34      0.00
  -17   11    7     -1.84      0.00
  -15   11    7     -2.15      0.00
  -13   11    7      1.72      0.00
  -11   11    7      3.18      0.00
   -9   11    7      0.36      0.00
   -7   11    7      0.28      0.00
   -5   11    7      0.11      0.00
   -3   11    7     -1.00      0.00
   -1   11    7      3.34      0.00
    1   11    7      8.70      0.00
    3   11    7      5.84      0.00
    5   11    7     -2.10      0.00
    7   11    7     -3.00      0.00
    9   11    7      1.34      0.00
   11   11    7      3.02      0.00
   13   11    7      1.22      0.00
   15   11    7     -0.03      0.00
   17   11    7     -0.66      0.00
   19   11    7     -0.79      0.00
   21   11    7     -0.23      0.00
   23   11    7     -0.10      0.00
  -24   10    7      0.49      0.00
  -22   10    7      1.92      0.00
  -20   10    7      0.44      0.00
  -18   10    7      0.74      0.00
  -16   10    7      2.57      0.00
  -14   10    7      0.63      0.00
  -12   10    7     -3.71      0.00
  -10   10    7     -1.80      0.00
   -8   10    7      0.23      0.00
   -6   10    7     -0.07      0.00
   -4   10    7      0.60      0.00
   -2   10    7     -0.13      0.00
    0   10    7     -7.56      0.00
    2   10    7     -9.17      0.00
    4   10    7     -1.86      0.00
    6   10    7      4.66      0.00
    8   10    7      1.16      0.00
   10   10    7     -2.74      0.00
   12   10    7     -2.16      0.00
   14   10    7     -0.13      0.00
   16   10    7      0.52      0.00
   18   10    7      0.79      0.00
   20   10    7      0.77      0.00
   22   10    7     -0.14      0.00
   24   10    7      0.13      0.00
  -23    9    7     -2.12      0.00
  -21    9    7     -2.12      0.00
  -19    9    7     -0.36      0.00
  -17    9    7     -2.44      0.00
  -15    9    7     -2.48      0.00
  -13    9    7      1.86      0.00
  -11    9    7      4.16      0.00
   -9    9    7      0.22      0.00
   -7    9    7     -0.17      0.00
   -5    9    7     -0.08      0.00
   -3    9    7     -0.62      0.00
   -1    9    7      3.93      0.00
    1    9    7     11.36      0.00
    3    9    7      6.99      0.00
    5    9    7     -2.02      0.00
    7    9    7     -3.98      0.00
    9    9    7      2.21      0.00
   11    9    7      3.43      0.00
   13    9    7      1.24      0.00
   15    9    7     -0.34      0.00
   17    9    7     -0.63      0.00
   19    9    7     -1.17      0.00
   21    9    7     -0.63      0.00
   23    9    7     -0.06      0.00
  -24    8    7      1.16      0.00
  -22    8    7      2.47      0.00
  -20    8    7      0.82      0.00
  -18    8    7      0.81      0.00
  -16    8    7      3.30      0.00
  -14    8    7      0.35      0.00
  -12    8    7     -4.28      0.00
  -10    8    7     -3.09      0.00
   -8    8    7      1.07      0.00
   -6    8    7     -0.25      0.00
   -4    8    7      0.87      0.00
   -2    8    7     -1.01      0.00
    0    8    7     -8.57      0.00
    2    8    7    -11.70      0.00
    4    8    7     -1.80      0.00
    6    8    7      4.97      0.00
    8    8    7      1.50      0.00
   10    8    7     -4.00      0.00
   12    8    7     -2.19      0.00
   14    8    7     -0.07      0.00
   16    8    7      0.50      0.00
   18    8    7      0.85      0.00
   20    8    7      1.09      0.00
   22    8    7      0.19      0.00
   24    8    7     -0.09      0.00
  -25    7    7     -0.59      0.00
  -23    7    7     -2.69      0.00
  -21    7    7     -2.17      0.00
  -19    7    7     -0.68      0.00
  -17    7    7     -2.45      0.00
  -15    7    7     -3.46      0.00
  -13    7    7      2.71      0.00
  -11    7    7      4.49      0.00
   -9    7    7      0.93      0.00
   -7    7    7     -1.73      0.00
   -5    7    7      0.55      0.00
   -3    7    7     -1.24      0.00
   -1    7    7      5.60      0.00
    1    7    7     12.18      0.00
    3    7    7      9.25      0.00
    5    7    7     -3.37      0.00
    7    7    7     -3.79      0.00
    9    7    7      2.25      0.00
   11    7    7      4.28      0.00
   13    7    7      0.70      0.00
   15    7    7     -0.55      0.00
   17    7    7     -0.58      0.00
   19    7    7     -1.50      0.00
   21    7    7     -0.96      0.00
   23    7    7     -0.06      0.00
   25    7    7     -0.22      0.00
  -26    6    7     -0.20      0.00
  -24    6    7      1.82      0.00
  -22    6    7      2.95      0.00
  -20    6    7      1.01      0.00
  -18    6    7      0.96      0.00
  -16    6    7      3.79      0.00
  -14    6    7      0.54      0.00
  -12    6    7     -5.49      0.00
  -10    6    7     -3.73      0.00
   -8    6    7      1.01      0.00
   -6    6    7      0.54      0.00
   -4    6    7      0.19      0.00
   -2    6    7     -1.18      0.00
    0    6    7    -10.15      0.00
    2    6    7    -12.96      0.00
    4    6    7     -2.87      0.00
    6    6    7      6.13      0.00
    8    6    7      0.42      0.00
   10    6    7     -4.44      0.00
   12    6    7     -2.91      0.00
   14    6    7      0.51      0.00
   16    6    7      0.12      0.00
   18    6    7      0.86      0.00
   20    6    7      1.42      0.00
   22    6    7      0.30      0.00
   24    6    7      0.03      0.00
   26    6    7      0.39      0.00
  -25    5    7     -0.58      0.00
  -23    5    7     -3.00      0.00
  -21    5    7     -2.41      0.00
  -19    5    7     -0.12      0.00
  -17    5    7     -3.40      0.00
  -15    5    7     -3.31      0.00
  -13    5    7      2.15      0.00
  -11    5    7      6.32      0.00
   -9    5    7     -0.05      0.00
   -7    5    7     -1.28      0.00
   -5    5    7     -1.02      0.00
   -3    5    7      0.50      0.00
   -1    5    7      4.78      0.00
    1    5    7     14.69      0.00
    3    5    7      9.05      0.00
    5    5    7     -2.73      0.00
    7    5    7     -5.13      0.00
    9    5    7      3.55      0.00
   11    5    7      4.07      0.00
   13    5    7      0.33      0.00
   15    5    7     -0.91      0.00
   17    5    7     -0.57      0.00
   19    5    7     -1.59      0.00
   21    5    7     -1.23      0.00
   23    5    7     -0.03      0.00
   25    5    7     -0.31      0.00
  -26    4    7      0.20      0.00
  -24    4    7      1.96      0.00
  -22    4    7      3.79      0.00
  -20    4    7      0.57      0.00
  -18    4    7      1.39      0.00
  -16    4    7      4.18      0.00
  -14    4    7      0.79      0.00
  -12    4    7     -6.40      0.00
  -10    4    7     -4.51      0.00
   -8    4    7      1.05      0.00
   -6    4    7      0.92      0.00
   -4    4    7     -0.18      0.00
   -2    4    7     -1.90      0.00
    0    4    7    -10.90      0.00
    2    4    7    -14.50      0.00
    4    4    7     -3.16      0.00
    6    4    7      5.91      0.00
    8    4    7      0.38      0.00
   10    4    7     -6.07      0.00
   12    4    7     -2.34      0.00
   14    4    7      0.35      0.00
   16    4    7      0.20      0.00
   18    4    7      0.68      0.00
   20    4    7      1.55      0.00
   22    4    7      0.44      0.00
   24    4    7      0.18      0.00
   26    4    7      0.49      0.00
  -27    3    7      0.34      0.00
  -25    3    7     -0.65      0.00
  -23    3    7     -3.26      0.00
  -21    3    7     -2.15      0.00
  -19    3    7     -0.19      0.00
  -17    3    7     -3.24      0.00
  -15    3    7     -4.62      0.00
  -13    3    7      3.24      0.00
  -11    3    7      5.94      0.00
   -9    3    7      1.23      0.00
   -7    3    7     -2.93      0.00
   -5    3    7      0.05      0.00
   -3    3    7     -0.38      0.00
   -1    3    7      6.59      0.00
    1    3    7     14.08      0.00
    3    3    7     10.98      0.00
    5    3    7     -3.96      0.00
    7    3    7     -4.65      0.00
    9    3    7      3.50      0.00
   11    3    7      4.50      0.00
   13    3    7     -0.67      0.00
   15    3    7     -1.12      0.00
   17    3    7     -0.55      0.00
   19    3    7     -1.79      0.00
   21    3    7     -1.10      0.00
   23    3    7     -0.20      0.00
   25    3    7     -0.27      0.00
   27    3    7     -0.38      0.00
  -26    2    7     -0.09      0.00
  -24    2    7      2.81      0.00
  -22    2    7      3.44      0.00
  -20    2    7      1.12      0.00
  -18    2    7      0.81      0.00
  -16    2    7      5.30      0.00
  -14    2    7      0.50      0.00
  -12    2    7     -6.61      0.00
  -10    2    7     -5.37      0.00
   -8    2    7      1.33      0.00
   -6    2    7      0.63      0.00
   -4    2    7     -0.01      0.00
   -2    2    7     -3.04      0.00
    0    2    7    -11.09      0.00
    2    2    7    -15.58      0.00
    4    2    7     -3.75      0.00
    6    2    7      6.13      0.00
    8    2    7     -0.46      0.00
   10    2    7     -6.41      0.00
   12    2    7     -2.62      0.00
   14    2    7      1.06      0.00
   16    2    7     -0.24      0.00
   18    2    7      0.84      0.00
   20    2    7      1.48      0.00
   22    2    7      0.49      0.00
   24    2    7      0.33      0.00
   26    2    7      0.67      0.00
  -27    1    7      0.22      0.00
  -25    1    7     -0.58      0.00
  -23    1    7     -3.30      0.00
  -21    1    7     -2.23      0.00
  -19    1    7      0.27      0.00
  -17    1    7     -3.81      0.00
  -15    1    7     -4.61      0.00
  -13    1    7      2.85      0.00
  -11    1    7      6.87      0.00
   -9    1    7      0.63      0.00
   -7    1    7     -2.29      0.00
   -5    1    7     -0.89      0.00
   -3    1    7      0.78      0.00
   -1    1    7      6.10      0.00
    1    1    7     15.16      0.00
    3    1    7     10.71      0.00
    5    1    7     -3.39      0.00
    7    1    7     -5.32      0.00
    9    1    7      4.17      0.00
   11    1    7      4.23      0.00
   13    1    7     -1.13      0.00
   15    1    7     -1.35      0.00
   17    1    7     -0.59      0.00
   19    1    7     -1.79      0.00
   21    1    7     -1.09      0.00
   23    1    7     -0.17      0.00
   25    1    7     -0.37      0.00
   27    1    7     -0.32      0.00
  -26    0    7      0.58      0.00
  -24    0    7      2.16      0.00
  -22    0    7      4.36      0.00
  -20    0    7      0.25      0.00
  -18    0    7      1.57      0.00
  -16    0    7      4.88      0.00
  -14    0    7      1.16      0.00
  -12    0    7     -7.38      0.00
  -10    0    7     -4.96      0.00
   -8    0    7      0.62      0.00
   -6    0    7      1.38      0.00
   -4    0    7     -0.91      0.00
   -2    0    7     -2.55      0.00
    0    0    7    -11.99      0.00
    2    0    7    -15.35      0.00
    4    0    7     -4.30      0.00
    6    0    7      6.16      0.00
    8    0    7     -0.48      0.00
   10    0    7     -7.01      0.00
   12    0    7     -2.15      0.00
   14    0    7      0.85      0.00
   16    0    7     -0.03      0.00
   18    0    7      0.70      0.00
   20    0    7      1.53      0.00
   22    0    7      0.45      0.00
   24    0    7      0.46      0.00
   26    0    7      0.59      0.00
  -11   19    7      0.71      0.00
   -4   20    8     -0.41      0.00
   -2   20    8      0.05      0.00
    0   20    8      0.39      0.00
    2   20    8     -0.57      0.00
    4   20    8     -0.85      0.00
   -9   19    8      0.24      0.00
   -7   19    8      0.26      0.00
   -5   19    8      0.28      0.00
   -3   19    8     -0.16      0.00
   -1   19    8     -1.13      0.00
    1   19    8     -0.65      0.00
    3   19    8      0.28      0.00
    5   19    8      0.65      0.00
    7   19    8      0.07      0.00
    9   19    8     -0.75      0.00
  -12   18    8      0.74      0.00
  -10   18    8      0.16      0.00
   -8   18    8     -0.49      0.00
   -6   18    8     -0.35      0.00
   -4   18    8     -0.71      0.00
   -2   18    8      0.72      0.00
    0   18    8      0.67      0.00
    2   18    8     -0.10      0.00
    4   18    8     -1.67      0.00
    6   18    8     -0.88      0.00
    8   18    8     -0.24      0.00
   10   18    8      1.15      0.00
   12   18    8      0.55      0.00
  -13   17    8     -0.88      0.00
  -11   17    8     -0.43      0.00
   -9   17    8      0.14      0.00
   -7   17    8      0.72      0.00
   -5   17    8      0.37      0.00
   -3   17    8      0.03      0.00
   -1   17    8     -1.89      0.00
    1   17    8     -1.11      0.00
    3   17    8      0.46      0.00
    5   17    8      1.20      0.00
    7   17    8      0.14      0.00
    9   17    8     -1.15      0.00
   11   17    8     -1.41      0.00
   13   17    8     -0.42      0.00
  -16   16    8     -0.87      0.00
  -14   16    8      0.64      0.00
  -12   16    8      1.24      0.00
  -10   16    8      0.33      0.00
   -8   16    8     -0.38      0.00
   -6   16    8     -0.81      0.00
   -4   16    8     -0.47      0.00
   -2   16    8      0.59      0.00
    0   16    8      2.12      0.00
    2   16    8     -0.45      0.00
    4   16    8     -1.53      0.00
    6   16    8     -1.95      0.00
    8   16    8      0.71      0.00
   10   16    8      1.13      0.00
   12   16    8      1.29      0.00
   14   16    8     -0.31      0.00
   16   16    8     -0.15      0.00
  -17   15    8      1.00      0.00
  -15   15    8      0.22      0.00
  -13   15    8     -1.03      0.00
  -11   15    8     -1.08      0.00
   -9   15    8      0.76      0.00
   -7   15    8      0.54      0.00
   -5   15    8      1.30      0.00
   -3   15    8     -0.33      0.00
   -1   15    8     -2.06      0.00
    1   15    8     -2.13      0.00
    3   15    8      1.00      0.00
    5   15    8      1.94      0.00
    7   15    8      0.42      0.00
    9   15    8     -1.69      0.00
   11   15    8     -1.67      0.00
   13   15    8     -0.55      0.00
   15   15    8      0.41      0.00
   17   15    8      0.31      0.00
  -18   14    8     -0.67      0.00
  -16   14    8     -0.93      0.00
  -14   14    8      0.81      0.00
  -12   14    8      1.96      0.00
  -10   14    8      0.50      0.00
   -8   14    8     -0.66      0.00
   -6   14    8     -0.78      0.00
   -4   14    8     -0.97      0.00
   -2   14    8      1.52      0.00
    0   14    8      2.61      0.00
    2   14    8      0.81      0.00
    4   14    8     -2.87      0.00
    6   14    8     -1.77      0.00
    8   14    8      0.50      0.00
   10   14    8      2.43      0.00
   12   14    8      0.97      0.00
   14   14    8      0.24      0.00
   16   14    8     -0.67      0.00
   18   14    8      0.09      0.00
  -19   13    8     -0.16      0.00
  -17   13    8      1.12      0.00
  -15   13    8      0.49      0.00
  -13   13    8     -1.91      0.00
  -11   13    8     -1.00      0.00
   -9   13    8      0.46      0.00
   -7   13    8      1.53      0.00
   -5   13    8      0.92      0.00
   -3   13    8      0.33      0.00
   -1   13    8     -3.27      0.00
    1   13    8     -2.60      0.00
    3   13    8      1.03      0.00
    5   13    8      3.29      0.00
    7   13    8      0.63      0.00
    9   13    8     -2.17      0.00
   11   13    8     -1.99      0.00
   13   13    8     -0.45      0.00
   15   13    8      0.45      0.00
   17   13    8      0.41      0.00
   19   13    8     -0.01      0.00
  -20   12    8     -0.21      0.00
  -18   12    8     -0.48      0.00
  -16   12    8     -1.44      0.00
  -14   12    8      1.31      0.00
  -12   12    8      2.47      0.00
  -10   12    8      0.66      0.00
   -8   12    8     -1.11      0.00
   -6   12    8     -0.89      0.00
   -4   12    8     -0.77      0.00
   -2   12    8      1.84      0.00
    0   12    8      4.29      0.00
    2   12    8      1.13      0.00
    4   12    8     -3.03      0.00
    6   12    8     -2.94      0.00
    8   12    8      1.53      0.00
   10   12    8      2.70      0.00
   12   12    8      1.51      0.00
   14   12    8     -0.27      0.00
   16   12    8     -0.36      0.00
   18   12    8     -0.47      0.00
   20   12    8      0.12      0.00
  -21   11    8      0.44      0.00
  -19   11    8     -0.27      0.00
  -17   11    8      1.30      0.00
  -15   11    8      0.49      0.00
  -13   11    8     -2.44      0.00
  -11   11    8     -1.80      0.00
   -9   11    8      1.30      0.00
   -7   11    8      1.41      0.00
   -5   11    8      1.28      0.00
   -3   11    8     -0.17      0.00
   -1   11    8     -3.86      0.00
    1   11    8     -3.77      0.00
    3   11    8      1.37      0.00
    5   11    8      4.55      0.00
    7   11    8      0.96      0.00
    9   11    8     -2.81      0.00
   11   11    8     -2.26      0.00
   13   11    8     -0.23      0.00
   15   11    8      0.57      0.00
   17   11    8      0.46      0.00
   19   11    8      0.20      0.00
   21   11    8     -0.12      0.00
  -22   10    8     -1.92      0.00
  -20   10    8      0.10      0.00
  -18   10    8     -0.69      0.00
  -16   10    8     -1.52      0.00
  -14   10    8      1.36      0.00
  -12   10    8      3.53      0.00
  -10   10    8      0.25      0.00
   -8   10    8     -1.61      0.00
   -6   10    8     -1.02      0.00
   -4   10    8     -0.37      0.00
   -2   10    8      2.42      0.00
    0   10    8      5.61      0.00
    2   10    8      1.93      0.00
    4   10    8     -3.79      0.00
    6   10    8     -3.59      0.00
    8   10    8      2.00      0.00
   10   10    8      3.56      0.00
   12   10    8      1.32      0.00
   14   10    8     -0.36      0.00
   16   10    8     -0.60      0.00
   18   10    8     -0.49      0.00
   20   10    8     -0.36      0.00
   22   10    8      0.08      0.00
  -23    9    8      1.86      0.00
  -21    9    8      0.75      0.00
  -19    9    8     -0.67      0.00
  -17    9    8      1.71      0.00
  -15    9    8      0.24      0.00
  -13    9    8     -3.18      0.00
  -11    9    8     -2.62      0.00
   -9    9    8      2.01      0.00
   -7    9    8      1.66      0.00
   -5    9    8      0.98      0.00
   -3    9    8     -0.72      0.00
   -1    9    8     -4.41      0.00
    1    9    8     -5.12      0.00
    3    9    8      1.95      0.00
    5    9    8      5.39      0.00
    7    9    8      1.44      0.00
    9    9    8     -3.79      0.00
   11    9    8     -2.44      0.00
   13    9    8      0.06      0.00
   15    9    8      0.58      0.00
   17    9    8      0.49      0.00
   19    9    8      0.45      0.00
   21    9    8     -0.14      0.00
   23    9    8     -0.18      0.00
  -24    8    8     -2.04      0.00
  -22    8    8     -2.09      0.00
  -20    8    8      0.22      0.00
  -18    8    8     -0.60      0.00
  -16    8    8     -1.95      0.00
  -14    8    8      1.91      0.00
  -12    8    8      4.17      0.00
  -10    8    8      0.29      0.00
   -8    8    8     -2.95      0.00
   -6    8    8     -0.71      0.00
   -4    8    8     -0.20      0.00
   -2    8    8      3.11      0.00
    0    8    8      6.38      0.00
    2    8    8      2.89      0.00
    4    8    8     -4.88      0.00
    6    8    8     -3.99      0.00
    8    8    8      2.25      0.00
   10    8    8      4.46      0.00
   12    8    8      0.93      0.00
   14    8    8     -0.56      0.00
   16    8    8     -0.52      0.00
   18    8    8     -0.78      0.00
   20    8    8     -0.47      0.00
   22    8    8      0.13      0.00
   24    8    8     -0.13      0.00
  -25    7    8      1.11      0.00
  -23    7    8      2.52      0.00
  -21    7    8      0.49      0.00
  -19    7    8     -0.40      0.00
  -17    7    8      1.40      0.00
  -15    7    8      0.67      0.00
  -13    7    8     -4.88      0.00
  -11    7    8     -2.82      0.00
   -9    7    8      1.92      0.00
   -7    7    8      2.83      0.00
   -5    7    8     -0.47      0.00
   -3    7    8     -0.37      0.00
   -1    7    8     -5.84      0.00
    1    7    8     -5.25      0.00
    3    7    8      1.20      0.00
    5    7    8      7.08      0.00
    7    7    8      0.82      0.00
    9    7    8     -4.27      0.00
   11    7    8     -2.89      0.00
   13    7    8      0.37      0.00
   15    7    8      0.51      0.00
   17    7    8      0.25      0.00
   19    7    8      0.82      0.00
   21    7    8     -0.20      0.00
   23    7    8     -0.23      0.00
   25    7    8      0.14      0.00
  -26    6    8     -0.48      0.00
  -24    6    8     -2.43      0.00
  -22    6    8     -1.99      0.00
  -20    6    8      0.36      0.00
  -18    6    8     -0.63      0.00
  -16    6    8     -2.27      0.00
  -14    6    8      2.25      0.00
  -12    6    8      5.26      0.00
  -10    6    8     -0.13      0.00
   -8    6    8     -3.85      0.00
   -6    6    8     -1.08      0.00
   -4    6    8      0.62      0.00
   -2    6    8      2.99      0.00
    0    6    8      7.33      0.00
    2    6    8      3.10      0.00
    4    6    8     -5.14      0.00
    6    6    8     -5.17      0.00
    8    6    8      3.34      0.00
   10    6    8      4.33      0.00
   12    6    8      0.97      0.00
   14    6    8     -1.06      0.00
   16    6    8     -0.18      0.00
   18    6    8     -0.89      0.00
   20    6    8     -0.68      0.00
   22    6    8      0.30      0.00
   24    6    8     -0.11      0.00
  -25    5    8      1.51      0.00
  -23    5    8      2.73      0.00
  -21    5    8      0.71      0.00
  -19    5    8     -0.95      0.00
  -17    5    8      2.36      0.00
  -15    5    8     -0.29      0.00
  -13    5    8     -5.14      0.00
  -11    5    8     -4.74      0.00
   -9    5    8      3.44      0.00
   -7    5    8      2.05      0.00
   -5    5    8      0.09      0.00
   -3    5    8     -2.27      0.00
   -1    5    8     -4.88      0.00
    1    5    8     -7.37      0.00
    3    5    8      2.07      0.00
    5    5    8      6.83      0.00
    7    5    8      1.30      0.00
    9    5    8     -5.63      0.00
   11    5    8     -2.62      0.00
   13    5    8      0.47      0.00
   15    5    8      0.18      0.00
   17    5    8      0.22      0.00
   19    5    8      0.75      0.00
   21    5    8      0.10      0.00
   23    5    8     -0.33      0.00
   25    5    8      0.33      0.00
  -26    4    8     -0.62      0.00
  -24    4    8     -2.22      0.00
  -22    4    8     -2.27      0.00
  -20    4    8      1.06      0.00
  -18    4    8     -1.16      0.00
  -16    4    8     -2.47      0.00
  -14    4    8      2.62      0.00
  -12    4    8      6.09      0.00
  -10    4    8     -0.20      0.00
   -8    4    8     -4.83      0.00
   -6    4    8     -1.23      0.00
   -4    4    8      1.10      0.00
   -2    4    8      3.18      0.00
    0    4    8      7.47      0.00
    2    4    8      3.99      0.00
    4    4    8     -5.97      0.00
    6    4    8     -5.26      0.00
    8    4    8      3.23      0.00
   10    4    8      4.98      0.00
   12    4    8     -0.15      0.00
   14    4    8     -0.74      0.00
   16    4    8     -0.24      0.00
   18    4    8     -0.77      0.00
   20    4    8     -0.70      0.00
   22    4    8      0.23      0.00
   24    4    8     -0.03      0.00
   26    4    8     -0.12      0.00
  -25    3    8      1.68      0.00
  -23    3    8      3.12      0.00
  -21    3    8      0.27      0.00
  -19    3    8     -0.55      0.00
  -17    3    8      2.20      0.00
  -15    3    8      0.33      0.00
  -13    3    8     -7.05      0.00
  -11    3    8     -4.45      0.00
   -9    3    8      2.44      0.00
   -7    3    8      3.54      0.00
   -5    3    8     -1.76      0.00
   -3    3    8     -1.64      0.00
   -1    3    8     -6.38      0.00
    1    3    8     -6.93      0.00
    3    3    8      0.48      0.00
    5    3    8      8.10      0.00
    7    3    8      0.34      0.00
    9    3    8     -5.82      0.00
   11    3    8     -2.69      0.00
   13    3    8      0.77      0.00
   15    3    8     -0.09      0.00
   17    3    8     -0.04      0.00
   19    3    8      0.94      0.00
   21    3    8      0.02      0.00
   23    3    8      0.02      0.00
   25    3    8      0.22      0.00
  -26    2    8     -0.01      0.00
  -24    2    8     -2.80      0.00
  -22    2    8     -1.54      0.00
  -20    2    8      0.75      0.00
  -18    2    8     -0.91      0.00
  -16    2    8     -3.25      0.00
  -14    2    8      3.27      0.00
  -12    2    8      6.47      0.00
  -10    2    8     -0.07      0.00
   -8    2    8     -5.49      0.00
   -6    2    8     -1.21      0.00
   -4    2    8      1.33      0.00
   -2    2    8      3.51      0.00
    0    2    8      7.46      0.00
    2    2    8      4.52      0.00
    4    2    8     -5.97      0.00
    6    2    8     -6.01      0.00
    8    2    8      3.95      0.00
   10    2    8      4.37      0.00
   12    2    8     -0.27      0.00
   14    2    8     -1.20      0.00
   16    2    8      0.19      0.00
   18    2    8     -0.92      0.00
   20    2    8     -0.58      0.00
   22    2    8      0.16      0.00
   24    2    8      0.01      0.00
   26    2    8     -0.10      0.00
  -27    1    8      0.17      0.00
  -25    1    8      1.74      0.00
  -23    1    8      3.17      0.00
  -21    1    8      0.34      0.00
  -19    1    8     -0.84      0.00
  -17    1    8      2.91      0.00
  -15    1    8     -0.21      0.00
  -13    1    8     -7.09      0.00
  -11    1    8     -5.50      0.00
   -9    1    8      3.14      0.00
   -7    1    8      2.86      0.00
   -5    1    8     -1.28      0.00
   -3    1    8     -2.92      0.00
   -1    1    8     -5.75      0.00
    1    1    8     -8.12      0.00
    3    1    8      0.70      0.00
    5    1    8      7.69      0.00
    7    1    8      0.62      0.00
    9    1    8     -6.46      0.00
   11    1    8     -2.31      0.00
   13    1    8      0.88      0.00
   15    1    8     -0.33      0.00
   17    1    8     -0.01      0.00
   19    1    8      0.81      0.00
   21    1    8      0.18      0.00
   23    1    8      0.05      0.00
   25    1    8      0.31      0.00
   27    1    8      0.21      0.00
  -26    0    8     -0.54      0.00
  -24    0    8     -2.07      0.00
  -22    0    8     -2.26      0.00
  -20    0    8      1.59      0.00
  -18    0    8     -1.64      0.00
  -16    0    8     -2.93      0.00
  -14    0    8      3.05      0.00
  -12    0    8      6.97      0.00
  -10    0    8     -0.35      0.00
   -8    0    8     -5.33      0.00
   -6    0    8     -1.64      0.00
   -4    0    8      1.90      0.00
   -2    0    8      3.18      0.00
    0    0    8      7.82      0.00
    2    0    8      4.55      0.00
    4    0    8     -5.98      0.00
    6    0    8     -5.99      0.00
    8    0    8      3.69      0.00
   10    0    8      4.74      0.00
   12    0    8     -0.98      0.00
   14    0    8     -0.84      0.00
   16    0    8     -0.03      0.00
   18    0    8     -0.77      0.00
   20    0    8     -0.60      0.00
   22    0    8      0.15      0.00
   24    0    8     -0.02      0.00
   26    0    8      0.05      0.00
  -15   17    8      0.35      0.00
   -7   19    9     -0.66      0.00
   -5   19    9     -0.44      0.00
   -3   19    9      0.09      0.00
   -1   19    9      0.26      0.00
    1   19    9     -0.79      0.00
    3   19    9     -0.72      0.00
    5   19    9     -0.33      0.00
    7   19    9      0.47      0.00
  -10   18    9      0.28      0.00
   -8   18    9      0.88      0.00
   -6   18    9      0.50      0.00
   -4   18    9      0.07      0.00
   -2   18    9     -1.06      0.00
    0   18    9     -0.04      0.00
    2   18    9      0.37      0.00
    4   18    9      0.42      0.00
    6   18    9     -0.80      0.00
    8   18    9     -1.07      0.00
   10   18    9     -1.43      0.00
  -13   17    9      0.82      0.00
  -11   17    9      0.10      0.00
   -9   17    9     -0.60      0.00
   -7   17    9     -1.22      0.00
   -5   17    9     -0.34      0.00
   -3   17    9      0.27      0.00
   -1   17    9      0.68      0.00
    1   17    9     -0.97      0.00
    3   17    9     -1.27      0.00
    5   17    9     -0.40      0.00
    7   17    9      0.74      0.00
    9   17    9      1.42      0.00
   11   17    9      0.88      0.00
   13   17    9     -0.07      0.00
  -14   16    9     -0.66      0.00
  -12   16    9     -0.55      0.00
  -10   16    9      0.59      0.00
   -8   16    9      1.39      0.00
   -6   16    9      1.19      0.00
   -4   16    9     -0.27      0.00
   -2   16    9     -0.94      0.00
    0   16    9     -0.72      0.00
    2   16    9      1.43      0.00
    4   16    9      0.37      0.00
    6   16    9     -0.32      0.00
    8   16    9     -2.15      0.00
   10   16    9     -1.41      0.00
   12   16    9     -0.75      0.00
   14   16    9      0.58      0.00
  -17   15    9     -0.52      0.00
  -15   15    9      0.54      0.00
  -13   15    9      1.06      0.00
  -11   15    9      0.65      0.00
   -9   15    9     -1.41      0.00
   -7   15    9     -1.16      0.00
   -5   15    9     -0.92      0.00
   -3   15    9      1.04      0.00
   -1   15    9      0.78      0.00
    1   15    9     -0.73      0.00
    3   15    9     -2.08      0.00
    5   15    9     -0.60      0.00
    7   15    9      1.24      0.00
    9   15    9      2.10      0.00
   11   15    9      1.21      0.00
   13   15    9     -0.01      0.00
   15   15    9     -0.29      0.00
   17   15    9      0.12      0.00
  -18   14    9      0.35      0.00
  -16   14    9      0.27      0.00
  -14   14    9     -0.89      0.00
  -12   14    9     -0.84      0.00
  -10   14    9      0.95      0.00
   -8   14    9      2.22      0.00
   -6   14    9      1.39      0.00
   -4   14    9      0.16      0.00
   -2   14    9     -1.74      0.00
    0   14    9     -0.30      0.00
    2   14    9      1.34      0.00
    4   14    9      1.94      0.00
    6   14    9     -0.99      0.00
    8   14    9     -2.18      0.00
   10   14    9     -2.41      0.00
   12   14    9     -0.35      0.00
   14   14    9      0.15      0.00
   16   14    9      0.33      0.00
   18   14    9     -0.28      0.00
  -19   13    9      0.23      0.00
  -17   13    9     -0.57      0.00
  -15   13    9      0.56      0.00
  -13   13    9      1.97      0.00
  -11   13    9      0.25      0.00
   -9   13    9     -1.36      0.00
   -7   13    9     -2.12      0.00
   -5   13    9     -0.26      0.00
   -3   13    9      0.83      0.00
   -1   13    9      1.87      0.00
    1   13    9     -0.99      0.00
    3   13    9     -2.47      0.00
    5   13    9     -1.18      0.00
    7   13    9      2.03      0.00
    9   13    9      2.85      0.00
   11   13    9      1.51      0.00
   13   13    9     -0.02      0.00
   15   13    9     -0.30      0.00
   17   13    9      0.10      0.00
   19   13    9     -0.01      0.00
  -20   12    9     -0.70      0.00
  -18   12    9      0.22      0.00
  -16   12    9      0.53      0.00
  -14   12    9     -1.46      0.00
  -12   12    9     -1.09      0.00
  -10   12    9      1.47      0.00
   -8   12    9      2.76      0.00
   -6   12    9      1.70      0.00
   -4   12    9     -0.13      0.00
   -2   12    9     -1.70      0.00
    0   12    9     -0.99      0.00
    2   12    9      2.40      0.00
    4   12    9      2.43      0.00
    6   12    9     -0.34      0.00
    8   12    9     -3.48      0.00
   10   12    9     -2.32      0.00
   12   12    9     -0.70      0.00
   14   12    9      0.53      0.00
   16   12    9     -0.07      0.00
   18   12    9     -0.05      0.00
   20   12    9     -0.14      0.00
  -21   11    9      0.42      0.00
  -19   11    9      0.44      0.00
  -17   11    9     -0.71      0.00
  -15   11    9      0.82      0.00
  -13   11    9      2.44      0.00
  -11   11    9      0.40      0.00
   -9   11    9     -2.46      0.00
   -7   11    9     -1.79      0.00
   -5   11    9     -0.47      0.00
   -3   11    9      1.57      0.00
   -1   11    9      2.19      0.00
    1   11    9     -0.58      0.00
    3   11    9     -3.22      0.00
    5   11    9     -1.55      0.00
    7   11    9      2.75      0.00
    9   11    9      3.81      0.00
   11   11    9      1.54      0.00
   13   11    9     -0.08      0.00
   15   11    9     -0.31      0.00
   17   11    9      0.09      0.00
   19   11    9     -0.02      0.00
   21   11    9     -0.09      0.00
  -22   10    9      0.29      0.00
  -20   10    9     -1.32      0.00
  -18   10    9      0.31      0.00
  -16   10    9      0.50      0.00
  -14   10    9     -1.99      0.00
  -12   10    9     -1.63      0.00
  -10   10    9      2.21      0.00
   -8   10    9      3.18      0.00
   -6   10    9      1.39      0.00
   -4   10    9     -0.22      0.00
   -2   10    9     -2.12      0.00
    0   10    9     -1.11      0.00
    2   10    9      2.70      0.00
    4   10    9      3.61      0.00
    6   10    9     -0.48      0.00
    8   10    9     -4.20      0.00
   10   10    9     -2.88      0.00
   12   10    9     -0.29      0.00
   14   10    9      0.31      0.00
   16   10    9     -0.03      0.00
   18   10    9     -0.25      0.00
   20   10    9     -0.21      0.00
   22   10    9     -0.28      0.00
  -23    9    9     -1.23      0.00
  -21    9    9      0.60      0.00
  -19    9    9      1.05      0.00
  -17    9    9     -1.19      0.00
  -15    9    9      1.32      0.00
  -13    9    9      2.93      0.00
  -11    9    9      0.20      0.00
   -9    9    9     -3.54      0.00
   -7    9    9     -1.67      0.00
   -5    9    9     -0.13      0.00
   -3    9    9      1.84      0.00
   -1    9    9      2.52      0.00
    1    9    9     -0.15      0.00
    3    9    9     -4.07      0.00
    5    9    9     -1.75      0.00
    7    9    9      3.39      0.00
    9    9    9      4.78      0.00
   11    9    9      1.54      0.00
   13    9    9     -0.34      0.00
   15    9    9     -0.01      0.00
   17    9    9     -0.02      0.00
   19    9    9      0.06      0.00
   21    9    9      0.21      0.00
   23    9    9     -0.08      0.00
  -24    8    9      1.34      0.00
  -22    8    9      0.12      0.00
  -20    8    9     -1.76      0.00
  -18    8    9      0.23      0.00
  -16    8    9      0.45      0.00
  -14    8    9     -2.96      0.00
  -12    8    9     -2.12      0.00
  -10    8    9      2.82      0.00
   -8    8    9      3.68      0.00
   -6    8    9      0.58      0.00
   -4    8    9     -0.42      0.00
   -2    8    9     -2.30      0.00
    0    8    9     -1.38      0.00
    2    8    9      2.94      0.00
    4    8    9      4.64      0.00
    6    8    9     -0.75      0.00
    8    8    9     -4.99      0.00
   10    8    9     -3.41      0.00
   12    8    9      0.01      0.00
   14    8    9      0.11      0.00
   16    8    9     -0.35      0.00
   18    8    9     -0.15      0.00
   20    8    9     -0.55      0.00
   22    8    9     -0.47      0.00
   24    8    9     -0.04      0.00
  -25    7    9     -1.21      0.00
  -23    7    9     -1.43      0.00
  -21    7    9      1.39      0.00
  -19    7    9      0.81      0.00
  -17    7    9     -0.80      0.00
  -15    7    9      1.08      0.00
  -13    7    9      4.30      0.00
  -11    7    9     -0.88      0.00
   -9    7    9     -4.10      0.00
   -7    7    9     -2.30      0.00
   -5    7    9      1.11      0.00
   -3    7    9      1.02      0.00
   -1    7    9      3.47      0.00
    1    7    9     -0.58      0.00
    3    7    9     -4.05      0.00
    5    7    9     -2.71      0.00
    7    7    9      4.57      0.00
    9    7    9      5.27      0.00
   11    7    9      1.54      0.00
   13    7    9     -0.30      0.00
   15    7    9      0.15      0.00
   17    7    9      0.31      0.00
   19    7    9     -0.12      0.00
   21    7    9      0.67      0.00
   23    7    9     -0.01      0.00
  -24    6    9      1.66      0.00
  -22    6    9     -0.20      0.00
  -20    6    9     -1.93      0.00
  -18    6    9      0.11      0.00
  -16    6    9      0.22      0.00
  -14    6    9     -4.04      0.00
  -12    6    9     -2.94      0.00
  -10    6    9      3.60      0.00
   -8    6    9      3.88      0.00
   -6    6    9     -0.15      0.00
   -4    6    9     -1.02      0.00
   -2    6    9     -2.06      0.00
    0    6    9     -2.06      0.00
    2    6    9      3.27      0.00
    4    6    9      5.04      0.00
    6    6    9     -0.57      0.00
    8    6    9     -6.34      0.00
   10    6    9     -3.24      0.00
   12    6    9     -0.32      0.00
   14    6    9     -0.01      0.00
   16    6    9     -0.81      0.00
   18    6    9     -0.17      0.00
   20    6    9     -0.55      0.00
   22    6    9     -0.71      0.00
   24    6    9      0.00      0.00
  -25    5    9     -1.37      0.00
  -23    5    9     -1.03      0.00
  -21    5    9      1.37      0.00
  -19    5    9      1.41      0.00
  -17    5    9     -1.64      0.00
  -15    5    9      2.40      0.00
  -13    5    9      4.13      0.00
  -11    5    9     -0.31      0.00
   -9    5    9     -6.34      0.00
   -7    5    9     -1.25      0.00
   -5    5    9      0.54      0.00
   -3    5    9      1.98      0.00
   -1    5    9      2.34      0.00
    1    5    9      0.94      0.00
    3    5    9     -5.49      0.00
    5    5    9     -2.41      0.00
    7    5    9      4.67      0.00
    9    5    9      6.04      0.00
   11    5    9      1.25      0.00
   13    5    9     -0.17      0.00
   15    5    9      0.73      0.00
   17    5    9      0.22      0.00
   19    5    9      0.23      0.00
   21    5    9      0.57      0.00
   23    5    9      0.40      0.00
   25    5    9     -0.03      0.00
  -26    4    9      0.88      0.00
  -24    4    9      1.51      0.00
  -22    4    9     -0.03      0.00
  -20    4    9     -2.46      0.00
  -18    4    9      0.49      0.00
  -16    4    9     -0.33      0.00
  -14    4    9     -5.16      0.00
  -12    4    9     -3.58      0.00
  -10    4    9      3.93      0.00
   -8    4    9      4.29      0.00
   -6    4    9     -1.09      0.00
   -4    4    9     -1.47      0.00
   -2    4    9     -2.12      0.00
    0    4    9     -2.43      0.00
    2    4    9      2.68      0.00
    4    4    9      6.00      0.00
    6    4    9     -1.26      0.00
    8    4    9     -6.56      0.00
   10    4    9     -3.82      0.00
   12    4    9      0.08      0.00
   14    4    9     -0.85      0.00
   16    4    9     -0.85      0.00
   18    4    9     -0.29      0.00
   20    4    9     -0.53      0.00
   22    4    9     -0.64      0.00
   24    4    9     -0.13      0.00
   26    4    9     -0.19      0.00
  -25    3    9     -1.22      0.00
  -23    3    9     -1.10      0.00
  -21    3    9      2.05      0.00
  -19    3    9      0.82      0.00
  -17    3    9     -1.16      0.00
  -15    3    9      2.19      0.00
  -13    3    9      5.64      0.00
  -11    3    9     -1.65      0.00
   -9    3    9     -6.14      0.00
   -7    3    9     -2.57      0.00
   -5    3    9      2.25      0.00
   -3    3    9      0.70      0.00
   -1    3    9      3.46      0.00
    1    3    9      0.43      0.00
    3    3    9     -4.82      0.00
    5    3    9     -3.64      0.00
    7    3    9      5.64      0.00
    9    3    9      5.86      0.00
   11    3    9      1.12      0.00
   13    3    9      0.13      0.00
   15    3    9      0.93      0.00
   17    3    9      0.56      0.00
   19    3    9      0.09      0.00
   21    3    9      0.84      0.00
   23    3    9      0.39      0.00
   25    3    9      0.38      0.00
  -26    2    9      0.40      0.00
  -24    2    9      2.15      0.00
  -22    2    9     -0.72      0.00
  -20    2    9     -2.07      0.00
  -18    2    9      0.29      0.00
  -16    2    9     -0.45      0.00
  -14    2    9     -6.18      0.00
  -12    2    9     -4.06      0.00
  -10    2    9      4.19      0.00
   -8    2    9      4.39      0.00
   -6    2    9     -1.61      0.00
   -4    2    9     -2.05      0.00
   -2    2    9     -2.12      0.00
    0    2    9     -2.99      0.00
    2    2    9      2.39      0.00
    4    2    9      6.04      0.00
    6    2    9     -0.94      0.00
    8    2    9     -7.55      0.00
   10    2    9     -3.18      0.00
   12    2    9     -0.46      0.00
   14    2    9     -0.88      0.00
   16    2    9     -1.23      0.00
   18    2    9     -0.20      0.00
   20    2    9     -0.50      0.00
   22    2    9     -0.57      0.00
   24    2    9     -0.27      0.00
   26    2    9     -0.16      0.00
  -25    1    9     -1.20      0.00
  -23    1    9     -0.90      0.00
  -21    1    9      2.04      0.00
  -19    1    9      1.02      0.00
  -17    1    9     -1.67      0.00
  -15    1    9      3.06      0.00
  -13    1    9      5.43      0.00
  -11    1    9     -1.21      0.00
   -9    1    9     -7.27      0.00
   -7    1    9     -1.96      0.00
   -5    1    9      1.81      0.00
   -3    1    9      1.47      0.00
   -1    1    9      2.72      0.00
    1    1    9      1.50      0.00
    3    1    9     -5.46      0.00
    5    1    9     -3.49      0.00
    7    1    9      5.49      0.00
    9    1    9      6.08      0.00
   11    1    9      0.80      0.00
   13    1    9      0.29      0.00
   15    1    9      1.23      0.00
   17    1    9      0.46      0.00
   19    1    9      0.32      0.00
   21    1    9      0.69      0.00
   23    1    9      0.64      0.00
   25    1    9      0.47      0.00
  -26    0    9      0.95      0.00
  -24    0    9      1.53      0.00
  -22    0    9     -0.11      0.00
  -20    0    9     -2.70      0.00
  -18    0    9      0.83      0.00
  -16    0    9     -0.88      0.00
  -14    0    9     -6.41      0.00
  -12    0    9     -4.24      0.00
  -10    0    9      4.21      0.00
   -8    0    9      4.46      0.00
   -6    0    9     -1.78      0.00
   -4    0    9     -2.35      0.00
   -2    0    9     -2.07      0.00
    0    0    9     -3.22      0.00
    2    0    9      2.10      0.00
    4    0    9      6.37      0.00
    6    0    9     -1.31      0.00
    8    0    9     -7.24      0.00
   10    0    9     -3.63      0.00
   12    0    9      0.02      0.00
   14    0    9     -1.42      0.00
   16    0    9     -1.01      0.00
   18    0    9     -0.32      0.00
   20    0    9     -0.44      0.00
   22    0    9     -0.53      0.00
   24    0    9     -0.31      0.00
   26    0    9     -0.27      0.00
   -5   19   10     -0.16      0.00
   -3   19   10     -0.44      0.00
   -1   19   10     -0.19      0.00
    1   19   10      0.40      0.00
    3   19   10     -0.53      0.00
    5   19   10     -0.76      0.00
   -8   18   10     -0.92      0.00
   -6   18   10     -0.16      0.00
   -4   18   10      0.30      0.00
   -2   18   10      0.40      0.00
    0   18   10     -0.83      0.00
    2   18   10     -0.33      0.00
    4   18   10      0.27      0.00
    6   18   10      1.08      0.00
    8   18   10      0.92      0.00
  -11   17   10      0.51      0.00
   -9   17   10      1.11      0.00
   -7   17   10      0.94      0.00
   -5   17   10     -0.50      0.00
   -3   17   10     -0.67      0.00
   -1   17   10     -0.16      0.00
    1   17   10      0.66      0.00
    3   17   10     -0.33      0.00
    5   17   10     -1.35      0.00
    7   17   10     -1.58      0.00
    9   17   10     -1.35      0.00
   11   17   10     -0.18      0.00
  -14   16   10      0.70      0.00
  -12   16   10      0.28      0.00
  -10   16   10     -0.97      0.00
   -8   16   10     -1.28      0.00
   -6   16   10     -0.22      0.00
   -4   16   10      0.96      0.00
   -2   16   10      0.21      0.00
    0   16   10     -0.65      0.00
    2   16   10     -1.25      0.00
    4   16   10      0.86      0.00
    6   16   10      1.20      0.00
    8   16   10      1.94      0.00
   10   16   10      0.62      0.00
   12   16   10      0.03      0.00
   14   16   10     -0.40      0.00
  -15   15   10     -0.46      0.00
  -13   15   10     -0.31      0.00
  -11   15   10      0.56      0.00
   -9   15   10      2.31      0.00
   -7   15   10      0.88      0.00
   -5   15   10     -0.23      0.00
   -3   15   10     -1.27      0.00
   -1   15   10      0.23      0.00
    1   15   10      0.96      0.00
    3   15   10      0.14      0.00
    5   15   10     -1.74      0.00
    7   15   10     -2.35      0.00
    9   15   10     -1.77      0.00
   11   15   10     -0.37      0.00
   13   15   10      0.46      0.00
   15   15   10      0.10      0.00
  -18   14   10     -0.14      0.00
  -16   14   10      0.20      0.00
  -14   14   10      1.06      0.00
  -12   14   10      0.37      0.00
  -10   14   10     -1.43      0.00
   -8   14   10     -1.84      0.00
   -6   14   10      0.18      0.00
   -4   14   10      0.99      0.00
   -2   14   10      0.90      0.00
    0   14   10     -1.40      0.00
    2   14   10     -1.11      0.00
    4   14   10      0.21      0.00
    6   14   10      2.60      0.00
    8   14   10      2.15      0.00
   10   14   10      1.38      0.00
   12   14   10     -0.37      0.00
   14   14   10     -0.10      0.00
   16   14   10      0.09      0.00
   18   14   10      0.07      0.00
  -19   13   10     -0.31      0.00
  -17   13   10      0.44      0.00
  -15   13   10     -0.43      0.00
  -13   13   10     -0.74      0.00
  -11   13   10      1.55      0.00
   -9   13   10      2.55      0.00
   -7   13   10      1.74      0.00
   -5   13   10     -0.95      0.00
   -3   13   10     -0.87      0.00
   -1   13   10     -0.11      0.00
    1   13   10      1.84      0.00
    3   13   10      0.44      0.00
    5   13   10     -1.86      0.00
    7   13   10     -3.31      0.00
    9   13   10     -2.16      0.00
   11   13   10     -0.42      0.00
   13   13   10      0.43      0.00
   15   13   10     -0.01      0.00
   17   13   10     -0.24      0.00
   19   13   10      0.26      0.00
  -20   12   10      0.83      0.00
  -18   12   10     -0.26      0.00
  -16   12   10      0.21      0.00
  -14   12   10      1.51      0.00
  -12   12   10      0.30      0.00
  -10   12   10     -2.17      0.00
   -8   12   10     -1.97      0.00
   -6   12   10      0.14      0.00
   -4   12   10      1.63      0.00
   -2   12   10      0.73      0.00
    0   12   10     -0.97      0.00
    2   12   10     -2.03      0.00
    4   12   10      0.74      0.00
    6   12   10      2.97      0.00
    8   12   10      3.55      0.00
   10   12   10      1.08      0.00
   12   12   10     -0.04      0.00
   14   12   10     -0.36      0.00
   16   12   10      0.40      0.00
   18   12   10     -0.08      0.00
   20   12   10     -0.20      0.00
  -21   11   10     -1.34      0.00
  -19   11   10     -0.19      0.00
  -17   11   10      0.66      0.00
  -15   11   10     -0.75      0.00
  -13   11   10     -0.75      0.00
  -11   11   10      1.93      0.00
   -9   11   10      3.55      0.00
   -7   11   10      1.27      0.00
   -5   11   10     -0.58      0.00
   -3   11   10     -1.33      0.00
   -1   11   10      0.30      0.00
    1   11   10      2.05      0.00
    3   11   10      1.14      0.00
    5   11   10     -2.21      0.00
    7   11   10     -4.17      0.00
    9   11   10     -2.63      0.00
   11   11   10     -0.18      0.00
   13   11   10      0.25      0.00
   15   11   10     -0.16      0.00
   17   11   10     -0.45      0.00
   19   11   10     -0.05      0.00
   21   11   10     -0.06      0.00
  -22   10   10      0.71      0.00
  -20   10   10      1.26      0.00
  -18   10   10     -0.54      0.00
  -16   10   10      0.23      0.00
  -14   10   10      1.96      0.00
  -12   10   10     -0.08      0.00
  -10   10   10     -2.93      0.00
   -8   10   10     -2.17      0.00
   -6   10   10      0.59      0.00
   -4   10   10      1.47      0.00
   -2   10   10      1.21      0.00
    0   10   10     -1.26      0.00
    2   10   10     -2.00      0.00
    4   10   10      0.46      0.00
    6   10   10      4.18      0.00
    8   10   10      4.26      0.00
   10   10   10      1.32      0.00
   12   10   10     -0.33      0.00
   14   10   10      0.02      0.00
   16   10   10      0.33      0.00
   18   10   10      0.17      0.00
   20   10   10     -0.08      0.00
   22   10   10     -0.08      0.00
  -23    9   10     -0.27      0.00
  -21    9   10     -1.57      0.00
  -19    9   10     -0.51      0.00
  -17    9   10      1.16      0.00
  -15    9   10     -1.49      0.00
  -13    9   10     -0.83      0.00
  -11    9   10      2.56      0.00
   -9    9   10      4.00      0.00
   -7    9   10      0.83      0.00
   -5    9   10     -0.66      0.00
   -3    9   10     -1.24      0.00
   -1    9   10      0.34      0.00
    1    9   10      2.33      0.00
    3    9   10      1.74      0.00
    5    9   10     -2.55      0.00
    7    9   10     -5.09      0.00
    9    9   10     -2.95      0.00
   11    9   10     -0.09      0.00
   13    9   10      0.24      0.00
   15    9   10     -0.68      0.00
   17    9   10     -0.44      0.00
   19    9   10     -0.49      0.00
   21    9   10     -0.31      0.00
   23    9   10     -0.09      0.00
  -22    8   10      1.13      0.00
  -20    8   10      1.61      0.00
  -18    8   10     -0.86      0.00
  -16    8   10      0.35      0.00
  -14    8   10      2.35      0.00
  -12    8   10     -0.60      0.00
  -10    8   10     -4.02      0.00
   -8    8   10     -2.08      0.00
   -6    8   10      0.87      0.00
   -4    8   10      1.31      0.00
   -2    8   10      1.15      0.00
    0    8   10     -1.05      0.00
    2    8   10     -2.35      0.00
    4    8   10      0.46      0.00
    6    8   10      5.14      0.00
    8    8   10      5.05      0.00
   10    8   10      1.43      0.00
   12    8   10     -0.41      0.00
   14    8   10      0.38      0.00
   16    8   10      0.57      0.00
   18    8   10      0.20      0.00
   20    8   10      0.35      0.00
   22    8   10     -0.08      0.00
  -23    7   10     -0.13      0.00
  -21    7   10     -2.34      0.00
  -19    7   10     -0.04      0.00
  -17    7   10      0.59      0.00
  -15    7   10     -1.60      0.00
  -13    7   10     -1.79      0.00
  -11    7   10      3.88      0.00
   -9    7   10      3.72      0.00
   -7    7   10      0.64      0.00
   -5    7   10     -1.38      0.00
   -3    7   10     -0.36      0.00
   -1    7   10     -0.37      0.00
    1    7   10      3.06      0.00
    3    7   10      1.81      0.00
    5    7   10     -2.50      0.00
    7    7   10     -6.20      0.00
    9    7   10     -3.19      0.00
   11    7   10      0.04      0.00
   13    7   10     -0.24      0.00
   15    7   10     -0.79      0.00
   17    7   10     -0.85      0.00
   19    7   10     -0.43      0.00
   21    7   10     -0.73      0.00
   23    7   10      0.07      0.00
  -24    6   10     -0.66      0.00
  -22    6   10      1.60      0.00
  -20    6   10      1.60      0.00
  -18    6   10     -0.89      0.00
  -16    6   10      0.48      0.00
  -14    6   10      2.76      0.00
  -12    6   10     -1.25      0.00
  -10    6   10     -5.27      0.00
   -8    6   10     -1.98      0.00
   -6    6   10      1.26      0.00
   -4    6   10      0.95      0.00
   -2    6   10      0.94      0.00
    0    6   10     -0.67      0.00
    2    6   10     -2.87      0.00
    4    6   10      0.55      0.00
    6    6   10      5.70      0.00
    8    6   10      6.06      0.00
   10    6   10      1.17      0.00
   12    6   10      0.09      0.00
   14    6   10      0.60      0.00
   16    6   10      0.88      0.00
   18    6   10      0.35      0.00
   20    6   10      0.52      0.00
   22    6   10      0.20      0.00
   24    6   10     -0.08      0.00
  -25    5   10      0.88      0.00
  -23    5   10     -0.56      0.00
  -21    5   10     -2.11      0.00
  -19    5   10     -0.65      0.00
  -17    5   10      1.00      0.00
  -15    5   10     -3.23      0.00
  -13    5   10     -1.29      0.00
  -11    5   10      3.63      0.00
   -9    5   10      4.90      0.00
   -7    5   10     -1.23      0.00
   -5    5   10     -0.72      0.00
   -3    5   10     -1.02      0.00
   -1    5   10      0.29      0.00
    1    5   10      2.12      0.00
    3    5   10      3.12      0.00
    5    5   10     -3.32      0.00
    7    5   10     -6.63      0.00
    9    5   10     -3.55      0.00
   11    5   10     -0.13      0.00
   13    5   10     -0.47      0.00
   15    5   10     -1.33      0.00
   17    5   10     -0.59      0.00
   19    5   10     -0.82      0.00
   21    5   10     -0.52      0.00
   23    5   10     -0.25      0.00
   25    5   10     -0.13      0.00
  -24    4   10     -0.29      0.00
  -22    4   10      1.54      0.00
  -20    4   10      1.90      0.00
  -18    4   10     -1.17      0.00
  -16    4   10      0.96      0.00
  -14    4   10      3.08      0.00
  -12    4   10     -2.07      0.00
  -10    4   10     -6.20      0.00
   -8    4   10     -2.21      0.00
   -6    4   10      1.91      0.00
   -4    4   10      0.48      0.00
   -2    4   10      0.91      0.00
    0    4   10     -0.43      0.00
    2    4   10     -2.89      0.00
    4    4   10     -0.11      0.00
    6    4   10      6.81      0.00
    8    4   10      6.03      0.00
   10    4   10      1.70      0.00
   12    4   10      0.07      0.00
   14    4   10      1.26      0.00
   16    4   10      0.85      0.00
   18    4   10      0.54      0.00
   20    4   10      0.67      0.00
   22    4   10      0.41      0.00
   24    4   10      0.19      0.00
  -25    3   10      0.88      0.00
  -23    3   10     -0.37      0.00
  -21    3   10     -2.65      0.00
  -19    3   10     -0.12      0.00
  -17    3   10     -0.07      0.00
  -15    3   10     -3.31      0.00
  -13    3   10     -2.37      0.00
  -11    3   10      5.04      0.00
   -9    3   10      4.07      0.00
   -7    3   10     -0.93      0.00
   -5    3   10     -2.27      0.00
   -3    3   10      0.21      0.00
   -1    3   10     -1.06      0.00
    1    3   10      2.73      0.00
    3    3   10      2.86      0.00
    5    3   10     -2.88      0.00
    7    3   10     -7.62      0.00
    9    3   10     -3.43      0.00
   11    3   10     -0.33      0.00
   13    3   10     -1.02      0.00
   15    3   10     -1.16      0.00
   17    3   10     -0.89      0.00
   19    3   10     -0.47      0.00
   21    3   10     -0.80      0.00
   23    3   10     -0.21      0.00
   25    3   10     -0.33      0.00
  -24    2   10     -0.74      0.00
  -22    2   10      2.19      0.00
  -20    2   10      1.49      0.00
  -18    2   10     -0.95      0.00
  -16    2   10      1.30      0.00
  -14    2   10      3.18      0.00
  -12    2   10     -2.46      0.00
  -10    2   10     -7.20      0.00
   -8    2   10     -2.07      0.00
   -6    2   10      2.08      0.00
   -4    2   10      0.57      0.00
   -2    2   10      0.60      0.00
    0    2   10      0.22      0.00
    2    2   10     -3.33      0.00
    4    2   10     -0.05      0.00
    6    2   10      6.76      0.00
    8    2   10      6.80      0.00
   10    2   10      1.16      0.00
   12    2   10      0.89      0.00
   14    2   10      1.15      0.00
   16    2   10      1.08      0.00
   18    2   10      0.56      0.00
   20    2   10      0.72      0.00
   22    2   10      0.70      0.00
   24    2   10      0.47      0.00
  -25    1   10      1.07      0.00
  -23    1   10     -0.57      0.00
  -21    1   10     -2.50      0.00
  -19    1   10     -0.41      0.00
  -17    1   10     -0.01      0.00
  -15    1   10     -4.31      0.00
  -13    1   10     -1.93      0.00
  -11    1   10      4.71      0.00
   -9    1   10      4.78      0.00
   -7    1   10     -2.00      0.00
   -5    1   10     -1.98      0.00
   -3    1   10     -0.40      0.00
   -1    1   10     -0.69      0.00
    1    1   10      1.90      0.00
    3    1   10      3.63      0.00
    5    1   10     -3.29      0.00
    7    1   10     -7.71      0.00
    9    1   10     -3.55      0.00
   11    1   10     -0.43      0.00
   13    1   10     -1.20      0.00
   15    1   10     -1.29      0.00
   17    1   10     -0.67      0.00
   19    1   10     -0.62      0.00
   21    1   10     -0.60      0.00
   23    1   10     -0.53      0.00
   25    1   10     -0.24      0.00
  -26    0   10     -0.74      0.00
  -24    0   10     -0.15      0.00
  -22    0   10      1.72      0.00
  -20    0   10      1.91      0.00
  -18    0   10     -1.22      0.00
  -16    0   10      1.56      0.00
  -14    0   10      3.35      0.00
  -12    0   10     -2.92      0.00
  -10    0   10     -7.16      0.00
   -8    0   10     -2.43      0.00
   -6    0   10      2.49      0.00
   -4    0   10      0.35      0.00
   -2    0   10      0.75      0.00
    0    0   10      0.19      0.00
    2    0   10     -3.09      0.00
    4    0   10     -0.57      0.00
    6    0   10      7.37      0.00
    8    0   10      6.35      0.00
   10    0   10      1.68      0.00
   12    0   10      0.55      0.00
   14    0   10      1.59      0.00
   16    0   10      0.85      0.00
   18    0   10      0.68      0.00
   20    0   10      0.74      0.00
   22    0   10      0.77      0.00
   24    0   10      0.60      0.00
   26    0   10      0.40      0.00
  -10   18   10     -0.61      0.00
   -6   18   11     -0.46      0.00
   -4   18   11     -0.51      0.00
   -2   18   11     -0.12      0.00
    0   18   11      0.37      0.00
    2   18   11     -0.72      0.00
    4   18   11     -1.10      0.00
    6   18   11     -1.18      0.00
  -11   17   11     -0.61      0.00
   -9   17   11     -0.66      0.00
   -7   17   11      0.12      0.00
   -5   17   11      0.96      0.00
   -3   17   11      0.19      0.00
   -1   17   11     -0.51      0.00
    1   17   11     -0.29      0.00
    3   17   11      0.88      0.00
    5   17   11      1.31      0.00
    7   17   11      0.87      0.00
    9   17   11      0.38      0.00
   11   17   11     -0.43      0.00
  -12   16   11      0.41      0.00
  -10   16   11      1.28      0.00
   -8   16   11      0.57      0.00
   -6   16   11     -0.76      0.00
   -4   16   11     -0.91      0.00
   -2   16   11      0.31      0.00
    0   16   11      0.34      0.00
    2   16   11     -0.38      0.00
    4   16   11     -2.06      0.00
    6   16   11     -1.44      0.00
    8   16   11     -1.18      0.00
   10   16   11      0.31      0.00
   12   16   11      0.41      0.00
  -15   15   11      0.66      0.00
  -13   15   11      0.23      0.00
  -11   15   11     -0.64      0.00
   -9   15   11     -1.30      0.00
   -7   15   11      0.85      0.00
   -5   15   11      1.07      0.00
   -3   15   11      0.51      0.00
   -1   15   11     -1.04      0.00
    1   15   11     -0.46      0.00
    3   15   11      1.12      0.00
    5   15   11      1.96      0.00
    7   15   11      1.48      0.00
    9   15   11      0.36      0.00
   11   15   11     -0.44      0.00
   13   15   11     -0.31      0.00
   15   15   11      0.25      0.00
  -16   14   11      0.05      0.00
  -14   14   11     -0.38      0.00
  -12   14   11      0.86      0.00
  -10   14   11      1.90      0.00
   -8   14   11      0.85      0.00
   -6   14   11     -1.32      0.00
   -4   14   11     -0.73      0.00
   -2   14   11      0.15      0.00
    0   14   11      1.23      0.00
    2   14   11     -0.79      0.00
    4   14   11     -2.05      0.00
    6   14   11     -2.72      0.00
    8   14   11     -1.01      0.00
   10   14   11     -0.03      0.00
   12   14   11      0.77      0.00
   14   14   11     -0.03      0.00
   16   14   11      0.02      0.00
  -17   13   11     -0.20      0.00
  -15   13   11      0.76      0.00
  -13   13   11      0.50      0.00
  -11   13   11     -1.52      0.00
   -9   13   11     -1.06      0.00
   -7   13   11      0.64      0.00
   -5   13   11      2.00      0.00
   -3   13   11      0.07      0.00
   -1   13   11     -0.87      0.00
    1   13   11     -0.97      0.00
    3   13   11      1.55      0.00
    5   13   11      2.69      0.00
    7   13   11      2.17      0.00
    9   13   11      0.33      0.00
   11   13   11     -0.58      0.00
   13   13   11     -0.34      0.00
   15   13   11      0.25      0.00
   17   13   11     -0.03      0.00
  -18   12   11      0.79      0.00
  -16   12   11      0.00      0.00
  -14   12   11     -0.30      0.00
  -12   12   11      1.32      0.00
  -10   12   11      2.69      0.00
   -8   12   11      0.70      0.00
   -6   12   11     -1.23      0.00
   -4   12   11     -1.15      0.00
   -2   12   11      0.83      0.00
    0   12   11      1.07      0.00
    2   12   11     -0.11      0.00
    4   12   11     -3.01      0.00
    6   12   11     -3.03      0.00
    8   12   11     -1.69      0.00
   10   12   11      0.54      0.00
   12   12   11      0.45      0.00
   14   12   11      0.06      0.00
   16   12   11     -0.36      0.00
   18   12   11      0.30      0.00
  -19   11   11     -0.45      0.00
  -17   11   11     -0.27      0.00
  -15   11   11      1.05      0.00
  -13   11   11      0.11      0.00
  -11   11   11     -1.86      0.00
   -9   11   11     -1.61      0.00
   -7   11   11      1.33      0.00
   -5   11   11      1.73      0.00
   -3   11   11      0.57      0.00
   -1   11   11     -1.30      0.00
    1   11   11     -0.76      0.00
    3   11   11      1.64      0.00
    5   11   11      3.67      0.00
    7   11   11      2.78      0.00
    9   11   11      0.34      0.00
   11   11   11     -0.87      0.00
   13   11   11     -0.16      0.00
   15   11   11      0.19      0.00
   17   11   11      0.03      0.00
   19   11   11     -0.38      0.00
  -20   10   11     -0.21      0.00
  -18   10   11      1.18      0.00
  -16   10   11     -0.02      0.00
  -14   10   11     -0.46      0.00
  -12   10   11      2.14      0.00
  -10   10   11      2.94      0.00
   -8   10   11      0.81      0.00
   -6   10   11     -1.57      0.00
   -4   10   11     -0.70      0.00
   -2   10   11      0.55      0.00
    0   10   11      1.76      0.00
    2   10   11     -0.37      0.00
    4   10   11     -2.97      0.00
    6   10   11     -4.09      0.00
    8   10   11     -1.62      0.00
   10   10   11      0.65      0.00
   12   10   11      0.54      0.00
   14   10   11     -0.32      0.00
   16   10   11     -0.36      0.00
   18   10   11     -0.05      0.00
   20   10   11      0.05      0.00
  -21    9   11      0.96      0.00
  -19    9   11     -0.56      0.00
  -17    9   11     -0.73      0.00
  -15    9   11      1.51      0.00
  -13    9   11     -0.52      0.00
  -11    9   11     -2.59      0.00
   -9    9   11     -1.63      0.00
   -7    9   11      1.44      0.00
   -5    9   11      1.65      0.00
   -3    9   11      0.53      0.00
   -1    9   11     -1.20      0.00
    1    9   11     -0.81      0.00
    3    9   11      1.91      0.00
    5    9   11      4.42      0.00
    7    9   11      3.54      0.00
    9    9   11      0.11      0.00
   11    9   11     -0.84      0.00
   13    9   11     -0.17      0.00
   15    9   11      0.47      0.00
   17    9   11     -0.13      0.00
   19    9   11     -0.14      0.00
   21    9   11     -0.35      0.00
  -22    8   11     -1.31      0.00
  -20    8   11     -0.17      0.00
  -18    8   11      1.64      0.00
  -16    8   11     -0.44      0.00
  -14    8   11     -0.41      0.00
  -12    8   11      2.68      0.00
  -10    8   11      3.35      0.00
   -8    8   11      0.17      0.00
   -6    8   11     -1.31      0.00
   -4    8   11     -0.65      0.00
   -2    8   11      0.81      0.00
    0    8   11      1.76      0.00
    2    8   11      0.09      0.00
    4    8   11     -3.35      0.00
    6    8   11     -4.64      0.00
    8    8   11     -1.74      0.00
   10    8   11      0.88      0.00
   12    8   11      0.45      0.00
   14    8   11     -0.57      0.00
   16    8   11     -0.47      0.00
   18    8   11     -0.14      0.00
   20    8   11     -0.12      0.00
   22    8   11      0.15      0.00
  -23    7   11      0.66      0.00
  -21    7   11      1.46      0.00
  -19    7   11     -1.40      0.00
  -17    7   11     -0.33      0.00
  -15    7   11      1.09      0.00
  -13    7   11     -0.70      0.00
  -11    7   11     -4.02      0.00
   -9    7   11     -1.10      0.00
   -7    7   11      1.21      0.00
   -5    7   11      1.62      0.00
   -3    7   11      0.00      0.00
   -1    7   11     -0.64      0.00
    1    7   11     -1.32      0.00
    3    7   11      2.31      0.00
    5    7   11      4.99      0.00
    7    7   11      4.17      0.00
    9    7   11      0.17      0.00
   11    7   11     -1.01      0.00
   13    7   11      0.35      0.00
   15    7   11      0.26      0.00
   17    7   11      0.24      0.00
   19    7   11     -0.30      0.00
   21    7   11     -0.15      0.00
   23    7   11     -0.44      0.00
  -24    6   11     -0.02      0.00
  -22    6   11     -1.56      0.00
  -20    6   11      0.06      0.00
  -18    6   11      1.55      0.00
  -16    6   11     -0.72      0.00
  -14    6   11     -0.54      0.00
  -12    6   11      3.37      0.00
  -10    6   11      3.43      0.00
   -8    6   11     -0.53      0.00
   -6    6   11     -1.40      0.00
   -4    6   11     -0.17      0.00
   -2    6   11      0.67      0.00
    0    6   11      1.90      0.00
    2    6   11      0.60      0.00
    4    6   11     -3.68      0.00
    6    6   11     -5.00      0.00
    8    6   11     -2.04      0.00
   10    6   11      1.21      0.00
   12    6   11      0.10      0.00
   14    6   11     -0.54      0.00
   16    6   11     -0.55      0.00
   18    6   11     -0.18      0.00
   20    6   11     -0.08      0.00
   22    6   11      0.16      0.00
   24    6   11     -0.02      0.00
  -23    5   11      1.10      0.00
  -21    5   11      0.98      0.00
  -19    5   11     -1.01      0.00
  -17    5   11     -0.99      0.00
  -15    5   11      1.76      0.00
  -13    5   11     -2.32      0.00
  -11    5   11     -4.21      0.00
   -9    5   11     -1.84      0.00
   -7    5   11      2.34      0.00
   -5    5   11      0.32      0.00
   -3    5   11      0.54      0.00
   -1    5   11     -1.10      0.00
    1    5   11     -0.92      0.00
    3    5   11      1.73      0.00
    5    5   11      6.07      0.00
    7    5   11      4.45      0.00
    9    5   11      0.22      0.00
   11    5   11     -0.63      0.00
   13    5   11      0.22      0.00
   15    5   11      0.68      0.00
   17    5   11     -0.08      0.00
   19    5   11      0.15      0.00
   21    5   11     -0.35      0.00
   23    5   11     -0.14      0.00
  -24    4   11     -0.24      0.00
  -22    4   11     -1.36      0.00
  -20    4   11     -0.17      0.00
  -18    4   11      1.48      0.00
  -16    4   11     -1.18      0.00
  -14    4   11     -0.56      0.00
  -12    4   11      4.12      0.00
  -10    4   11      3.24      0.00
   -8    4   11     -1.11      0.00
   -6    4   11     -1.84      0.00
   -4    4   11      0.37      0.00
   -2    4   11      0.38      0.00
    0    4   11      2.06      0.00
    2    4   11      0.91      0.00
    4    4   11     -3.53      0.00
    6    4   11     -5.89      0.00
    8    4   11     -1.62      0.00
   10    4   11      0.76      0.00
   12    4   11      0.32      0.00
   14    4   11     -0.69      0.00
   16    4   11     -0.36      0.00
   18    4   11     -0.16      0.00
   20    4   11     -0.09      0.00
   22    4   11      0.15      0.00
   24    4   11      0.09      0.00
  -25    3   11     -0.38      0.00
  -23    3   11      0.90      0.00
  -21    3   11      1.38      0.00
  -19    3   11     -1.57      0.00
  -17    3   11     -0.24      0.00
  -15    3   11      0.88      0.00
  -13    3   11     -2.43      0.00
  -11    3   11     -5.82      0.00
   -9    3   11     -0.96      0.00
   -7    3   11      1.83      0.00
   -5    3   11      0.89      0.00
   -3    3   11     -0.56      0.00
   -1    3   11      0.01      0.00
    1    3   11     -1.83      0.00
    3    3   11      2.11      0.00
    5    3   11      6.29      0.00
    7    3   11      5.03      0.00
    9    3   11      0.24      0.00
   11    3   11     -0.49      0.00
   13    3   11      0.51      0.00
   15    3   11      0.30      0.00
   17    3   11      0.37      0.00
   19    3   11     -0.15      0.00
   21    3   11      0.18      0.00
   23    3   11     -0.22      0.00
   25    3   11      0.00      0.00
  -24    2   11      0.18      0.00
  -22    2   11     -1.82      0.00
  -20    2   11      0.04      0.00
  -18    2   11      1.08      0.00
  -16    2   11     -1.61      0.00
  -14    2   11     -0.15      0.00
  -12    2   11      4.18      0.00
  -10    2   11      3.62      0.00
   -8    2   11     -2.10      0.00
   -6    2   11     -1.82      0.00
   -4    2   11      0.27      0.00
   -2    2   11      0.54      0.00
    0    2   11      1.63      0.00
    2    2   11      1.68      0.00
    4    2   11     -4.05      0.00
    6    2   11     -5.83      0.00
    8    2   11     -2.11      0.00
   10    2   11      1.19      0.00
   12    2   11     -0.18      0.00
   14    2   11     -0.19      0.00
   16    2   11     -0.42      0.00
   18    2   11     -0.06      0.00
   20    2   11     -0.02      0.00
   22    2   11     -0.05      0.00
   24    2   11      0.19      0.00
  -25    1   11     -0.54      0.00
  -23    1   11      1.16      0.00
  -21    1   11      1.15      0.00
  -19    1   11     -1.25      0.00
  -17    1   11     -0.46      0.00
  -15    1   11      1.15      0.00
  -13    1   11     -3.47      0.00
  -11    1   11     -5.76      0.00
   -9    1   11     -1.52      0.00
   -7    1   11      2.63      0.00
   -5    1   11      0.23      0.00
   -3    1   11     -0.17      0.00
   -1    1   11     -0.28      0.00
    1    1   11     -1.48      0.00
    3    1   11      1.60      0.00
    5    1   11      6.92      0.00
    7    1   11      5.09      0.00
    9    1   11      0.31      0.00
   11    1   11     -0.26      0.00
   13    1   11      0.36      0.00
   15    1   11      0.40      0.00
   17    1   11      0.20      0.00
   19    1   11      0.11      0.00
   21    1   11      0.15      0.00
   23    1   11      0.12      0.00
   25    1   11     -0.19      0.00
  -24    0   11     -0.31      0.00
  -22    0   11     -1.44      0.00
  -20    0   11     -0.26      0.00
  -18    0   11      1.02      0.00
  -16    0   11     -1.61      0.00
  -14    0   11     -0.39      0.00
  -12    0   11      4.81      0.00
  -10    0   11      3.07      0.00
   -8    0   11     -1.78      0.00
   -6    0   11     -2.47      0.00
   -4    0   11      0.75      0.00
   -2    0   11      0.11      0.00
    0    0   11      1.93      0.00
    2    0   11      1.44      0.00
    4    0   11     -3.62      0.00
    6    0   11     -6.51      0.00
    8    0   11     -1.55      0.00
   10    0   11      0.64      0.00
   12    0   11      0.24      0.00
   14    0   11     -0.41      0.00
   16    0   11     -0.20      0.00
   18    0   11     -0.08      0.00
   20    0   11     -0.05      0.00
   22    0   11     -0.07      0.00
   24    0   11      0.19      0.00
   -8   18   11      0.43      0.00
   -4   18   12      0.13      0.00
   -2   18   12     -0.29      0.00
    0   18   12     -0.15      0.00
    2   18   12      0.76      0.00
    4   18   12      0.72      0.00
   -9   17   12      0.16      0.00
   -7   17   12     -0.52      0.00
   -5   17   12     -0.47      0.00
   -3   17   12      0.34      0.00
   -1   17   12      0.38      0.00
    1   17   12     -0.54      0.00
    3   17   12     -1.17      0.00
    5   17   12     -1.00      0.00
    7   17   12     -0.10      0.00
    9   17   12      0.35      0.00
  -12   16   12     -0.34      0.00
  -10   16   12     -0.36      0.00
   -8   16   12      0.62      0.00
   -6   16   12      0.98      0.00
   -4   16   12      0.05      0.00
   -2   16   12     -0.79      0.00
    0   16   12     -0.11      0.00
    2   16   12      0.79      0.00
    4   16   12      1.44      0.00
    6   16   12      0.34      0.00
    8   16   12     -0.09      0.00
   10   16   12     -0.75      0.00
  -13   15   12      0.43      0.00
  -11   15   12      0.82      0.00
   -9   15   12      0.42      0.00
   -7   15   12     -1.24      0.00
   -5   15   12     -0.27      0.00
   -3   15   12      0.47      0.00
   -1   15   12      0.77      0.00
    1   15   12     -0.65      0.00
    3   15   12     -1.79      0.00
    5   15   12     -1.33      0.00
    7   15   12     -0.26      0.00
    9   15   12      0.74      0.00
   11   15   12      0.61      0.00
   13   15   12      0.15      0.00
  -14   14   12      0.55      0.00
  -12   14   12     -0.57      0.00
  -10   14   12     -0.39      0.00
   -8   14   12      0.98      0.00
   -6   14   12      1.51      0.00
   -4   14   12     -0.35      0.00
   -2   14   12     -0.84      0.00
    0   14   12     -0.67      0.00
    2   14   12      1.50      0.00
    4   14   12      1.57      0.00
    6   14   12      0.95      0.00
    8   14   12     -0.70      0.00
   10   14   12     -0.76      0.00
   12   14   12     -0.37      0.00
   14   14   12      0.31      0.00
  -17   13   12      0.38      0.00
  -15   13   12     -0.23      0.00
  -13   13   12      0.54      0.00
  -11   13   12      1.64      0.00
   -9   13   12     -0.04      0.00
   -7   13   12     -1.11      0.00
   -5   13   12     -0.76      0.00
   -3   13   12      1.20      0.00
   -1   13   12      0.73      0.00
    1   13   12     -0.49      0.00
    3   13   12     -2.40      0.00
    5   13   12     -1.79      0.00
    7   13   12     -0.23      0.00
    9   13   12      1.04      0.00
   11   13   12      0.74      0.00
   13   13   12      0.02      0.00
   15   13   12     -0.06      0.00
   17   13   12      0.36      0.00
  -18   12   12     -0.59      0.00
  -16   12   12      0.68      0.00
  -14   12   12      0.36      0.00
  -12   12   12     -0.74      0.00
  -10   12   12     -0.67      0.00
   -8   12   12      1.57      0.00
   -6   12   12      1.49      0.00
   -4   12   12     -0.02      0.00
   -2   12   12     -1.50      0.00
    0   12   12     -0.21      0.00
    2   12   12      1.33      0.00
    4   12   12      2.63      0.00
    6   12   12      0.85      0.00
    8   12   12     -0.68      0.00
   10   12   12     -1.37      0.00
   12   12   12     -0.22      0.00
   14   12   12      0.09      0.00
   16   12   12     -0.06      0.00
   18   12   12     -0.50      0.00
  -19   11   12      1.17      0.00
  -17   11   12      0.34      0.00
  -15   11   12     -0.22      0.00
  -13   11   12      1.17      0.00
  -11   11   12      1.74      0.00
   -9   11   12      0.29      0.00
   -7   11   12     -1.71      0.00
   -5   11   12     -0.34      0.00
   -3   11   12      0.99      0.00
   -1   11   12      1.29      0.00
    1   11   12     -0.81      0.00
    3   11   12     -2.53      0.00
    5   11   12     -2.40      0.00
    7   11   12     -0.07      0.00
    9   11   12      1.36      0.00
   11   11   12      0.88      0.00
   13   11   12     -0.16      0.00
   15   11   12     -0.05      0.00
   17   11   12      0.24      0.00
   19   11   12      0.31      0.00
  -20   10   12     -0.69      0.00
  -18   10   12     -0.61      0.00
  -16   10   12      0.69      0.00
  -14   10   12      0.31      0.00
  -12   10   12     -1.46      0.00
  -10   10   12     -0.40      0.00
   -8   10   12      1.39      0.00
   -6   10   12      1.97      0.00
   -4   10   12     -0.40      0.00
   -2   10   12     -1.07      0.00
    0   10   12     -0.61      0.00
    2   10   12      2.09      0.00
    4   10   12      2.75      0.00
    6   10   12      1.55      0.00
    8   10   12     -1.23      0.00
   10   10   12     -1.49      0.00
   12   10   12     -0.33      0.00
   14   10   12      0.07      0.00
   16   10   12     -0.25      0.00
   18   10   12     -0.54      0.00
   20   10   12     -0.43      0.00
  -21    9   12      0.39      0.00
  -19    9   12      1.34      0.00
  -17    9   12      0.50      0.00
  -15    9   12     -0.42      0.00
  -13    9   12      1.78      0.00
  -11    9   12      1.90      0.00
   -9    9   12     -0.01      0.00
   -7    9   12     -1.58      0.00
   -5    9   12     -0.42      0.00
   -3    9   12      1.18      0.00
   -1    9   12      1.36      0.00
    1    9   12     -0.63      0.00
    3    9   12     -2.78      0.00
    5    9   12     -2.59      0.00
    7    9   12     -0.14      0.00
    9    9   12      1.98      0.00
   11    9   12      0.70      0.00
   13    9   12     -0.01      0.00
   15    9   12     -0.24      0.00
   17    9   12      0.36      0.00
   19    9   12      0.23      0.00
   21    9   12      0.23      0.00
  -22    8   12      0.48      0.00
  -20    8   12     -0.93      0.00
  -18    8   12     -1.01      0.00
  -16    8   12      1.02      0.00
  -14    8   12     -0.37      0.00
  -12    8   12     -1.77      0.00
  -10    8   12     -0.56      0.00
   -8    8   12      1.80      0.00
   -6    8   12      1.41      0.00
   -4    8   12      0.02      0.00
   -2    8   12     -1.34      0.00
    0    8   12     -0.29      0.00
    2    8   12      2.03      0.00
    4    8   12      3.43      0.00
    6    8   12      1.74      0.00
    8    8   12     -1.35      0.00
   10    8   12     -1.70      0.00
   12    8   12     -0.29      0.00
   14    8   12      0.00      0.00
   16    8   12     -0.34      0.00
   18    8   12     -0.63      0.00
   20    8   12     -0.59      0.00
   22    8   12     -0.42      0.00
  -21    7   12      0.12      0.00
  -19    7   12      2.06      0.00
  -17    7   12     -0.13      0.00
  -15    7   12     -0.01      0.00
  -13    7   12      1.81      0.00
  -11    7   12      2.19      0.00
   -9    7   12     -0.84      0.00
   -7    7   12     -1.23      0.00
   -5    7   12     -0.43      0.00
   -3    7   12      1.38      0.00
   -1    7   12      1.37      0.00
    1    7   12     -0.14      0.00
    3    7   12     -2.96      0.00
    5    7   12     -2.74      0.00
    7    7   12      0.09      0.00
    9    7   12      2.12      0.00
   11    7   12      1.08      0.00
   13    7   12     -0.34      0.00
   15    7   12      0.19      0.00
   17    7   12      0.03      0.00
   19    7   12      0.59      0.00
   21    7   12      0.21      0.00
  -22    6   12      0.60      0.00
  -20    6   12     -1.33      0.00
  -18    6   12     -1.05      0.00
  -16    6   12      0.81      0.00
  -14    6   12     -0.88      0.00
  -12    6   12     -2.43      0.00
  -10    6   12     -0.25      0.00
   -8    6   12      1.84      0.00
   -6    6   12      1.13      0.00
   -4    6   12     -0.22      0.00
   -2    6   12     -1.00      0.00
    0    6   12     -0.57      0.00
    2    6   12      2.20      0.00
    4    6   12      3.97      0.00
    6    6   12      1.92      0.00
    8    6   12     -1.27      0.00
   10    6   12     -1.93      0.00
   12    6   12     -0.14      0.00
   14    6   12     -0.16      0.00
   16    6   12     -0.30      0.00
   18    6   12     -0.64      0.00
   20    6   12     -0.72      0.00
   22    6   12     -0.49      0.00
  -23    5   12     -0.72      0.00
  -21    5   12      0.58      0.00
  -19    5   12      1.55      0.00
  -17    5   12      0.32      0.00
  -15    5   12     -0.56      0.00
  -13    5   12      2.80      0.00
  -11    5   12      1.30      0.00
   -9    5   12     -0.92      0.00
   -7    5   12     -1.89      0.00
   -5    5   12      0.54      0.00
   -3    5   12      0.76      0.00
   -1    5   12      2.04      0.00
    1    5   12     -0.10      0.00
    3    5   12     -2.74      0.00
    5    5   12     -3.11      0.00
    7    5   12      0.31      0.00
    9    5   12      2.48      0.00
   11    5   12      0.95      0.00
   13    5   12      0.24      0.00
   15    5   12     -0.17      0.00
   17    5   12      0.51      0.00
   19    5   12      0.31      0.00
   21    5   12      0.64      0.00
   23    5   12      0.13      0.00
  -24    4   12      0.36      0.00
  -22    4   12      0.38      0.00
  -20    4   12     -1.27      0.00
  -18    4   12     -1.24      0.00
  -16    4   12      0.45      0.00
  -14    4   12     -1.48      0.00
  -12    4   12     -3.11      0.00
  -10    4   12      0.22      0.00
   -8    4   12      1.89      0.00
   -6    4   12      0.88      0.00
   -4    4   12     -0.57      0.00
   -2    4   12     -0.66      0.00
    0    4   12     -0.84      0.00
    2    4   12      2.42      0.00
    4    4   12      4.36      0.00
    6    4   12      2.47      0.00
    8    4   12     -1.63      0.00
   10    4   12     -1.56      0.00
   12    4   12     -0.56      0.00
   14    4   12     -0.04      0.00
   16    4   12     -0.31      0.00
   18    4   12     -0.64      0.00
   20    4   12     -0.62      0.00
   22    4   12     -0.56      0.00
  -23    3   12     -0.47      0.00
  -21    3   12      0.12      0.00
  -19    3   12      1.88      0.00
  -17    3   12     -0.32      0.00
  -15    3   12      0.28      0.00
  -13    3   12      2.43      0.00
  -11    3   12      1.65      0.00
   -9    3   12     -2.28      0.00
   -7    3   12     -1.38      0.00
   -5    3   12      0.21      0.00
   -3    3   12      1.39      0.00
   -1    3   12      1.47      0.00
    1    3   12      0.82      0.00
    3    3   12     -3.26      0.00
    5    3   12     -3.16      0.00
    7    3   12      0.46      0.00
    9    3   12      2.54      0.00
   11    3   12      1.39      0.00
   13    3   12      0.24      0.00
   15    3   12      0.29      0.00
   17    3   12      0.17      0.00
   19    3   12      0.77      0.00
   21    3   12      0.32      0.00
   23    3   12      0.62      0.00
  -24    2   12      0.13      0.00
  -22    2   12      0.67      0.00
  -20    2   12     -1.41      0.00
  -18    2   12     -1.31      0.00
  -16    2   12      0.29      0.00
  -14    2   12     -2.50      0.00
  -12    2   12     -2.96      0.00
  -10    2   12     -0.11      0.00
   -8    2   12      2.63      0.00
   -6    2   12      0.19      0.00
   -4    2   12     -0.40      0.00
   -2    2   12     -0.79      0.00
    0    2   12     -0.57      0.00
    2    2   12      2.09      0.00
    4    2   12      5.32      0.00
    6    2   12      2.24      0.00
    8    2   12     -1.20      0.00
   10    2   12     -1.95      0.00
   12    2   12     -0.40      0.00
   14    2   12     -0.38      0.00
   16    2   12     -0.10      0.00
   18    2   12     -0.62      0.00
   20    2   12     -0.57      0.00
   22    2   12     -0.43      0.00
   24    2   12     -0.59      0.00
  -23    1   12     -0.75      0.00
  -21    1   12      0.29      0.00
  -19    1   12      1.45      0.00
  -17    1   12     -0.05      0.00
  -15    1   12      0.14      0.00
  -13    1   12      2.98      0.00
  -11    1   12      1.01      0.00
   -9    1   12     -2.24      0.00
   -7    1   12     -2.01      0.00
   -5    1   12      0.84      0.00
   -3    1   12      0.96      0.00
   -1    1   12      1.81      0.00
    1    1   12      0.71      0.00
    3    1   12     -3.14      0.00
    5    1   12     -3.55      0.00
    7    1   12      0.64      0.00
    9    1   12      2.67      0.00
   11    1   12      1.42      0.00
   13    1   12      0.69      0.00
   15    1   12      0.13      0.00
   17    1   12      0.44      0.00
   19    1   12      0.59      0.00
   21    1   12      0.49      0.00
   23    1   12      0.59      0.00
  -24    0   12      0.57      0.00
  -22    0   12      0.40      0.00
  -20    0   12     -1.29      0.00
  -18    0   12     -1.21      0.00
  -16    0   12     -0.21      0.00
  -14    0   12     -2.25      0.00
  -12    0   12     -3.73      0.00
  -10    0   12      0.66      0.00
   -8    0   12      2.02      0.00
   -6    0   12      0.76      0.00
   -4    0   12     -1.05      0.00
   -2    0   12     -0.22      0.00
    0    0   12     -1.03      0.00
    2    0   12      2.56      0.00
    4    0   12      5.06      0.00
    6    0   12      2.86      0.00
    8    0   12     -1.74      0.00
   10    0   12     -1.46      0.00
   12    0   12     -0.87      0.00
   14    0   12     -0.18      0.00
   16    0   12     -0.18      0.00
   18    0   12     -0.61      0.00
   20    0   12     -0.45      0.00
   22    0   12     -0.48      0.00
   24    0   12     -0.62      0.00
   12   16   12     -0.05      0.00
   -5   17   13     -0.19      0.00
   -3   17   13     -0.50      0.00
   -1   17   13     -0.21      0.00
    1   17   13      0.66      0.00
    3   17   13      0.61      0.00
    5   17   13      0.24      0.00
  -10   16   13      0.01      0.00
   -8   16   13     -0.32      0.00
   -6   16   13      0.06      0.00
   -4   16   13      0.77      0.00
   -2   16   13      0.59      0.00
    0   16   13     -0.37      0.00
    2   16   13     -0.95      0.00
    4   16   13     -0.71      0.00
    6   16   13      0.44      0.00
    8   16   13      0.67      0.00
   10   16   13      0.53      0.00
  -11   15   13      0.11      0.00
   -9   15   13      0.51      0.00
   -7   15   13      0.75      0.00
   -5   15   13     -0.69      0.00
   -3   15   13     -0.82      0.00
   -1   15   13     -0.37      0.00
    1   15   13      0.75      0.00
    3   15   13      1.00      0.00
    5   15   13     -0.15      0.00
    7   15   13     -0.79      0.00
    9   15   13     -0.87      0.00
   11   15   13      0.12      0.00
  -14   14   13      0.09      0.00
  -12   14   13      0.73      0.00
  -10   14   13     -0.11      0.00
   -8   14   13     -0.58      0.00
   -6   14   13      0.09      0.00
   -4   14   13      1.30      0.00
   -2   14   13      0.60      0.00
    0   14   13     -0.24      0.00
    2   14   13     -1.63      0.00
    4   14   13     -0.60      0.00
    6   14   13      0.46      0.00
    8   14   13      1.29      0.00
   10   14   13      0.48      0.00
   12   14   13     -0.08      0.00
   14   14   13      0.02      0.00
  -15   13   13      0.59      0.00
  -13   13   13     -0.09      0.00
  -11   13   13     -0.14      0.00
   -9   13   13      1.24      0.00
   -7   13   13      0.57      0.00
   -5   13   13     -0.57      0.00
   -3   13   13     -1.48      0.00
   -1   13   13     -0.23      0.00
    1   13   13      0.83      0.00
    3   13   13      1.33      0.00
    5   13   13     -0.23      0.00
    7   13   13     -1.37      0.00
    9   13   13     -1.17      0.00
   11   13   13     -0.04      0.00
   13   13   13      0.30      0.00
   15   13   13     -0.13      0.00
  -16   12   13     -0.42      0.00
  -14   12   13      0.50      0.00
  -12   12   13      0.75      0.00
  -10   12   13      0.03      0.00
   -8   12   13     -1.09      0.00
   -6   12   13      0.40      0.00
   -4   12   13      1.24      0.00
   -2   12   13      1.16      0.00
    0   12   13     -0.79      0.00
    2   12   13     -1.51      0.00
    4   12   13     -1.20      0.00
    6   12   13      1.05      0.00
    8   12   13      1.50      0.00
   10   12   13      0.75      0.00
   12   12   13     -0.26      0.00
   14   12   13      0.04      0.00
   16   12   13      0.37      0.00
  -17   11   13      0.63      0.00
  -15   11   13      0.59      0.00
  -13   11   13     -0.38      0.00
  -11   11   13      0.18      0.00
   -9   11   13      1.14      0.00
   -7   11   13      1.18      0.00
   -5   11   13     -1.01      0.00
   -3   11   13     -1.30      0.00
   -1   11   13     -0.50      0.00
    1   11   13      1.33      0.00
    3   11   13      1.42      0.00
    5   11   13     -0.04      0.00
    7   11   13     -1.93      0.00
    9   11   13     -1.48      0.00
   11   11   13     -0.20      0.00
   13   11   13      0.18      0.00
   15   11   13     -0.32      0.00
   17   11   13     -0.47      0.00
  -18   10   13      0.19      0.00
  -16   10   13     -0.19      0.00
  -14   10   13      0.50      0.00
  -12   10   13      1.15      0.00
  -10   10   13     -0.47      0.00
   -8   10   13     -0.82      0.00
   -6   10   13     -0.15      0.00
   -4   10   13      1.83      0.00
   -2   10   13      0.85      0.00
    0   10   13     -0.37      0.00
    2   10   13     -2.09      0.00
    4   10   13     -0.93      0.00
    6   10   13      0.93      0.00
    8   10   13      2.21      0.00
   10   10   13      0.72      0.00
   12   10   13     -0.20      0.00
   14   10   13      0.09      0.00
   16   10   13      0.33      0.00
   18   10   13      0.44      0.00
  -19    9   13     -0.34      0.00
  -17    9   13      0.67      0.00
  -15    9   13      0.56      0.00
  -13    9   13     -0.62      0.00
  -11    9   13      0.31      0.00
   -9    9   13      1.39      0.00
   -7    9   13      1.07      0.00
   -5    9   13     -0.66      0.00
   -3    9   13     -1.53      0.00
   -1    9   13     -0.29      0.00
    1    9   13      1.41      0.00
    3    9   13      1.82      0.00
    5    9   13     -0.07      0.00
    7    9   13     -2.03      0.00
    9    9   13     -2.03      0.00
   11    9   13     -0.01      0.00
   13    9   13     -0.26      0.00
   15    9   13     -0.28      0.00
   17    9   13     -0.76      0.00
   19    9   13     -0.51      0.00
  -20    8   13      1.16      0.00
  -18    8   13      0.27      0.00
  -16    8   13     -0.57      0.00
  -14    8   13      1.02      0.00
  -12    8   13      0.64      0.00
  -10    8   13     -0.46      0.00
   -8    8   13     -1.23      0.00
   -6    8   13      0.24      0.00
   -4    8   13      1.34      0.00
   -2    8   13      1.55      0.00
    0    8   13     -0.63      0.00
    2    8   13     -1.72      0.00
    4    8   13     -1.16      0.00
    6    8   13      1.31      0.00
    8    8   13      2.54      0.00
   10    8   13      0.92      0.00
   12    8   13     -0.14      0.00
   14    8   13      0.16      0.00
   16    8   13      0.32      0.00
   18    8   13      0.50      0.00
   20    8   13      0.27      0.00
  -21    7   13     -0.60      0.00
  -19    7   13     -0.83      0.00
  -17    7   13      1.17      0.00
  -15    7   13     -0.01      0.00
  -13    7   13     -0.50      0.00
  -11    7   13      0.42      0.00
   -9    7   13      1.66      0.00
   -7    7   13      0.78      0.00
   -5    7   13     -0.41      0.00
   -3    7   13     -1.53      0.00
   -1    7   13     -0.30      0.00
    1    7   13      1.57      0.00
    3    7   13      2.08      0.00
    5    7   13      0.15      0.00
    7    7   13     -2.35      0.00
    9    7   13     -1.95      0.00
   11    7   13     -0.44      0.00
   13    7   13      0.04      0.00
   15    7   13     -0.71      0.00
   17    7   13     -0.47      0.00
   19    7   13     -0.95      0.00
   21    7   13     -0.23      0.00
  -22    6   13      0.35      0.00
  -20    6   13      1.38      0.00
  -18    6   13      0.00      0.00
  -16    6   13     -0.56      0.00
  -14    6   13      0.93      0.00
  -12    6   13      0.32      0.00
  -10    6   13     -1.18      0.00
   -8    6   13     -1.00      0.00
   -6    6   13      0.15      0.00
   -4    6   13      1.52      0.00
   -2    6   13      1.55      0.00
    0    6   13     -0.08      0.00
    2    6   13     -1.87      0.00
    4    6   13     -0.99      0.00
    6    6   13      1.63      0.00
    8    6   13      2.79      0.00
   10    6   13      1.31      0.00
   12    6   13     -0.12      0.00
   14    6   13      0.25      0.00
   16    6   13      0.26      0.00
   18    6   13      0.57      0.00
   20    6   13      0.43      0.00
   22    6   13      0.03      0.00
  -21    5   13     -1.04      0.00
  -19    5   13     -0.53      0.00
  -17    5   13      0.56      0.00
  -15    5   13      0.19      0.00
  -13    5   13     -1.04      0.00
  -11    5   13      1.30      0.00
   -9    5   13      1.36      0.00
   -7    5   13      0.88      0.00
   -5    5   13     -0.78      0.00
   -3    5   13     -0.96      0.00
   -1    5   13     -0.65      0.00
    1    5   13      2.01      0.00
    3    5   13      2.42      0.00
    5    5   13      0.23      0.00
    7    5   13     -2.28      0.00
    9    5   13     -2.30      0.00
   11    5   13     -0.23      0.00
   13    5   13     -0.39      0.00
   15    5   13     -0.13      0.00
   17    5   13     -0.93      0.00
   19    5   13     -0.61      0.00
   21    5   13     -0.62      0.00
  -22    4   13      0.40      0.00
  -20    4   13      1.22      0.00
  -18    4   13     -0.01      0.00
  -16    4   13     -0.47      0.00
  -14    4   13      0.67      0.00
  -12    4   13     -0.05      0.00
  -10    4   13     -2.03      0.00
   -8    4   13     -0.83      0.00
   -6    4   13      0.29      0.00
   -4    4   13      1.55      0.00
   -2    4   13      1.59      0.00
    0    4   13      0.28      0.00
    2    4   13     -2.08      0.00
    4    4   13     -0.84      0.00
    6    4   13      1.80      0.00
    8    4   13      3.33      0.00
   10    4   13      1.39      0.00
   12    4   13      0.36      0.00
   14    4   13      0.04      0.00
   16    4   13      0.32      0.00
   18    4   13      0.70      0.00
   20    4   13      0.45      0.00
   22    4   13      0.33      0.00
  -23    3   13      0.09      0.00
  -21    3   13     -0.67      0.00
  -19    3   13     -1.07      0.00
  -17    3   13      0.69      0.00
  -15    3   13     -0.61      0.00
  -13    3   13     -0.52      0.00
  -11    3   13      1.19      0.00
   -9    3   13      1.99      0.00
   -7    3   13      0.10      0.00
   -5    3   13     -0.42      0.00
   -3    3   13     -1.13      0.00
   -1    3   13     -0.19      0.00
    1    3   13      1.96      0.00
    3    3   13      3.19      0.00
    5    3   13      0.27      0.00
    7    3   13     -2.44      0.00
    9    3   13     -2.15      0.00
   11    3   13     -0.76      0.00
   13    3   13      0.03      0.00
   15    3   13     -0.36      0.00
   17    3   13     -0.52      0.00
   19    3   13     -0.97      0.00
   21    3   13     -0.35      0.00
   23    3   13     -0.56      0.00
  -22    2   13      0.15      0.00
  -20    2   13      1.14      0.00
  -18    2   13      0.18      0.00
  -16    2   13     -0.67      0.00
  -14    2   13      1.02      0.00
  -12    2   13     -1.11      0.00
  -10    2   13     -1.91      0.00
   -8    2   13     -1.43      0.00
   -6    2   13      1.01      0.00
   -4    2   13      1.12      0.00
   -2    2   13      1.88      0.00
    0    2   13      0.11      0.00
    2    2   13     -1.95      0.00
    4    2   13     -1.30      0.00
    6    2   13      2.51      0.00
    8    2   13      3.16      0.00
   10    2   13      2.06      0.00
   12    2   13      0.34      0.00
   14    2   13      0.16      0.00
   16    2   13      0.26      0.00
   18    2   13      0.77      0.00
   20    2   13      0.59      0.00
   22    2   13      0.45      0.00
  -23    1   13      0.31      0.00
  -21    1   13     -0.87      0.00
  -19    1   13     -0.90      0.00
  -17    1   13      0.15      0.00
  -15    1   13     -0.57      0.00
  -13    1   13     -0.77      0.00
  -11    1   13      1.73      0.00
   -9    1   13      1.74      0.00
   -7    1   13      0.27      0.00
   -5    1   13     -0.84      0.00
   -3    1   13     -0.64      0.00
   -1    1   13     -0.33      0.00
    1    1   13      2.37      0.00
    3    1   13      3.46      0.00
    5    1   13      0.41      0.00
    7    1   13     -2.49      0.00
    9    1   13     -2.29      0.00
   11    1   13     -0.75      0.00
   13    1   13     -0.18      0.00
   15    1   13      0.02      0.00
   17    1   13     -0.77      0.00
   19    1   13     -0.72      0.00
   21    1   13     -0.57      0.00
   23    1   13     -0.53      0.00
  -22    0   13      0.27      0.00
  -20    0   13      1.12      0.00
  -18    0   13     -0.06      0.00
  -16    0   13     -0.12      0.00
  -14    0   13      0.31      0.00
  -12    0   13     -0.52      0.00
  -10    0   13     -2.91      0.00
   -8    0   13     -0.66      0.00
   -6    0   13      0.38      0.00
   -4    0   13      1.73      0.00
   -2    0   13      1.30      0.00
    0    0   13      0.62      0.00
    2    0   13     -2.51      0.00
    4    0   13     -0.89      0.00
    6    0   13      2.16      0.00
    8    0   13      3.73      0.00
   10    0   13      1.77      0.00
   12    0   13      0.78      0.00
   14    0   13     -0.06      0.00
   16    0   13      0.34      0.00
   18    0   13      0.85      0.00
   20    0   13      0.50      0.00
   22    0   13      0.64      0.00
   -6   16   14     -0.42      0.00
   -4   16   14     -0.60      0.00
   -2   16   14     -0.06      0.00
    0   16   14      0.46      0.00
    2   16   14      0.56      0.00
    4   16   14     -0.13      0.00
    6   16   14     -0.75      0.00
   -9   15   14      0.22      0.00
   -7   15   14      0.53      0.00
   -5   15   14      1.03      0.00
   -3   15   14      0.43      0.00
   -1   15   14     -0.23      0.00
    1   15   14     -0.76      0.00
    3   15   14     -0.39      0.00
    5   15   14      0.83      0.00
    7   15   14      0.75      0.00
    9   15   14      0.29      0.00
  -12   14   14      0.04      0.00
  -10   14   14      0.48      0.00
   -8   14   14     -0.16      0.00
   -6   14   14     -0.82      0.00
   -4   14   14     -0.96      0.00
   -2   14   14     -0.08      0.00
    0   14   14      0.41      0.00
    2   14   14      0.75      0.00
    4   14   14     -0.65      0.00
    6   14   14     -1.14      0.00
    8   14   14     -0.72      0.00
   10   14   14      0.40      0.00
   12   14   14      0.44      0.00
  -13   13   14      0.38      0.00
  -11   13   14      0.07      0.00
   -9   13   14     -0.23      0.00
   -7   13   14      0.97      0.00
   -5   13   14      1.06      0.00
   -3   13   14      0.71      0.00
   -1   13   14     -0.52      0.00
    1   13   14     -0.96      0.00
    3   13   14     -0.37      0.00
    5   13   14      1.12      0.00
    7   13   14      1.25      0.00
    9   13   14      0.18      0.00
   11   13   14     -0.43      0.00
   13   13   14      0.03      0.00
  -16   12   14      0.76      0.00
  -14   12   14     -0.11      0.00
  -12   12   14      0.32      0.00
  -10   12   14      0.49      0.00
   -8   12   14      0.17      0.00
   -6   12   14     -1.30      0.00
   -4   12   14     -0.94      0.00
   -2   12   14     -0.41      0.00
    0   12   14      0.89      0.00
    2   12   14      0.50      0.00
    4   12   14     -0.56      0.00
    6   12   14     -1.90      0.00
    8   12   14     -0.90      0.00
   10   12   14      0.28      0.00
   12   12   14      0.36      0.00
   14   12   14     -0.20      0.00
  -17   11   14     -0.37      0.00
  -15   11   14      0.14      0.00
  -13   11   14      0.53      0.00
  -11   11   14     -0.24      0.00
   -9   11   14     -0.08      0.00
   -7   11   14      0.57      0.00
   -5   11   14      1.60      0.00
   -3   11   14      0.52      0.00
   -1   11   14     -0.43      0.00
    1   11   14     -1.31      0.00
    3   11   14     -0.28      0.00
    5   11   14      1.28      0.00
    7   11   14      1.77      0.00
    9   11   14      0.20      0.00
   11   11   14     -0.42      0.00
   13   11   14      0.04      0.00
   15   11   14      0.40      0.00
   17   11   14      0.30      0.00
  -18   10   14      0.86      0.00
  -16   10   14      0.45      0.00
  -14   10   14      0.23      0.00
  -12   10   14      0.14      0.00
  -10   10   14      1.00      0.00
   -8   10   14     -0.10      0.00
   -6   10   14     -0.82      0.00
   -4   10   14     -1.62      0.00
   -2   10   14      0.09      0.00
    0   10   14      0.63      0.00
    2   10   14      1.01      0.00
    4   10   14     -0.92      0.00
    6   10   14     -2.01      0.00
    8   10   14     -1.45      0.00
   10   10   14      0.29      0.00
   12   10   14      0.14      0.00
   14   10   14     -0.38      0.00
   16   10   14     -0.36      0.00
   18   10   14     -0.41      0.00
  -19    9   14     -0.26      0.00
  -17    9   14     -0.31      0.00
  -15    9   14      0.19      0.00
  -13    9   14      0.36      0.00
  -11    9   14     -0.33      0.00
   -9    9   14     -0.32      0.00
   -7    9   14      0.65      0.00
   -5    9   14      1.44      0.00
   -3    9   14      1.00      0.00
   -1    9   14     -0.66      0.00
    1    9   14     -1.15      0.00
    3    9   14     -0.39      0.00
    5    9   14      1.64      0.00
    7    9   14      2.00      0.00
    9    9   14      0.61      0.00
   11    9   14     -0.64      0.00
   13    9   14      0.34      0.00
   15    9   14      0.10      0.00
   17    9   14      0.46      0.00
   19    9   14      0.09      0.00
  -20    8   14      0.14      0.00
  -18    8   14      0.83      0.00
  -16    8   14      0.73      0.00
  -14    8   14     -0.08      0.00
  -12    8   14      0.83      0.00
  -10    8   14      0.63      0.00
   -8    8   14      0.40      0.00
   -6    8   14     -1.15      0.00
   -4    8   14     -1.21      0.00
   -2    8   14     -0.46      0.00
    0    8   14      1.31      0.00
    2    8   14      0.75      0.00
    4    8   14     -0.59      0.00
    6    8   14     -2.36      0.00
    8    8   14     -1.67      0.00
   10    8   14      0.18      0.00
   12    8   14      0.01      0.00
   14    8   14     -0.39      0.00
   16    8   14     -0.43      0.00
   18    8   14     -0.55      0.00
  -19    7   14     -0.07      0.00
  -17    7   14     -0.79      0.00
  -15    7   14      0.37      0.00
  -13    7   14     -0.20      0.00
  -11    7   14     -0.58      0.00
   -9    7   14     -0.30      0.00
   -7    7   14      0.59      0.00
   -5    7   14      1.47      0.00
   -3    7   14      1.29      0.00
   -1    7   14     -0.41      0.00
    1    7   14     -1.18      0.00
    3    7   14     -0.04      0.00
    5    7   14      1.72      0.00
    7    7   14      2.61      0.00
    9    7   14      0.55      0.00
   11    7   14     -0.23      0.00
   13    7   14     -0.11      0.00
   15    7   14      0.37      0.00
   17    7   14      0.13      0.00
   19    7   14      0.39      0.00
  -20    6   14     -0.07      0.00
  -18    6   14      1.08      0.00
  -16    6   14      0.61      0.00
  -14    6   14      0.20      0.00
  -12    6   14      1.06      0.00
  -10    6   14      0.84      0.00
   -8    6   14     -0.02      0.00
   -6    6   14     -0.68      0.00
   -4    6   14     -1.47      0.00
   -2    6   14     -0.18      0.00
    0    6   14      1.26      0.00
    2    6   14      1.21      0.00
    4    6   14     -0.75      0.00
    6    6   14     -2.38      0.00
    8    6   14     -1.79      0.00
   10    6   14     -0.03      0.00
   12    6   14      0.20      0.00
   14    6   14     -0.35      0.00
   16    6   14     -0.38      0.00
   18    6   14     -0.62      0.00
   20    6   14     -0.20      0.00
  -21    5   14      0.75      0.00
  -19    5   14     -0.46      0.00
  -17    5   14     -0.64      0.00
  -15    5   14     -0.26      0.00
  -13    5   14     -0.45      0.00
  -11    5   14     -1.27      0.00
   -9    5   14      0.10      0.00
   -7    5   14      0.48      0.00
   -5    5   14      1.59      0.00
   -3    5   14      1.35      0.00
   -1    5   14     -0.07      0.00
    1    5   14     -1.22      0.00
    3    5   14      0.18      0.00
    5    5   14      2.29      0.00
    7    5   14      2.65      0.00
    9    5   14      1.23      0.00
   11    5   14     -0.56      0.00
   13    5   14      0.15      0.00
   15    5   14     -0.17      0.00
   17    5   14      0.62      0.00
   19    5   14      0.08      0.00
   21    5   14      0.06      0.00
  -22    4   14     -0.29      0.00
  -20    4   14     -0.14      0.00
  -18    4   14      1.00      0.00
  -16    4   14      0.55      0.00
  -14    4   14      0.62      0.00
  -12    4   14      1.23      0.00
  -10    4   14      0.98      0.00
   -8    4   14     -0.43      0.00
   -6    4   14     -0.52      0.00
   -4    4   14     -1.23      0.00
   -2    4   14     -0.09      0.00
    0    4   14      1.61      0.00
    2    4   14      1.61      0.00
    4    4   14     -0.89      0.00
    6    4   14     -2.31      0.00
    8    4   14     -2.02      0.00
   10    4   14      0.02      0.00
   12    4   14      0.24      0.00
   14    4   14     -0.01      0.00
   16    4   14     -0.46      0.00
   18    4   14     -0.69      0.00
   20    4   14     -0.20      0.00
   22    4   14     -0.10      0.00
  -21    3   14      0.38      0.00
  -19    3   14     -0.10      0.00
  -17    3   14     -1.08      0.00
  -15    3   14     -0.30      0.00
  -13    3   14     -1.33      0.00
  -11    3   14     -1.27      0.00
   -9    3   14     -0.06      0.00
   -7    3   14      0.94      0.00
   -5    3   14      1.21      0.00
   -3    3   14      1.57      0.00
   -1    3   14     -0.16      0.00
    1    3   14     -1.20      0.00
    3    3   14      0.32      0.00
    5    3   14      2.68      0.00
    7    3   14      3.09      0.00
    9    3   14      1.26      0.00
   11    3   14     -0.05      0.00
   13    3   14     -0.49      0.00
   15    3   14      0.26      0.00
   17    3   14      0.33      0.00
   19    3   14      0.52      0.00
   21    3   14     -0.08      0.00
  -22    2   14     -0.22      0.00
  -20    2   14     -0.16      0.00
  -18    2   14      0.57      0.00
  -16    2   14      0.97      0.00
  -14    2   14      0.35      0.00
  -12    2   14      2.06      0.00
  -10    2   14      0.30      0.00
   -8    2   14     -0.11      0.00
   -6    2   14     -0.95      0.00
   -4    2   14     -0.53      0.00
   -2    2   14     -0.14      0.00
    0    2   14      2.21      0.00
    2    2   14      1.74      0.00
    4    2   14     -0.64      0.00
    6    2   14     -2.72      0.00
    8    2   14     -1.71      0.00
   10    2   14     -0.41      0.00
   12    2   14      0.63      0.00
   14    2   14      0.05      0.00
   16    2   14     -0.52      0.00
   18    2   14     -0.67      0.00
   20    2   14     -0.36      0.00
   22    2   14     -0.09      0.00
  -21    1   14      0.51      0.00
  -19    1   14     -0.25      0.00
  -17    1   14     -0.90      0.00
  -15    1   14     -0.77      0.00
  -13    1   14     -1.48      0.00
  -11    1   14     -1.64      0.00
   -9    1   14      0.24      0.00
   -7    1   14      0.85      0.00
   -5    1   14      1.34      0.00
   -3    1   14      1.27      0.00
   -1    1   14     -0.03      0.00
    1    1   14     -1.41      0.00
    3    1   14      0.41      0.00
    5    1   14      3.02      0.00
    7    1   14      3.16      0.00
    9    1   14      1.62      0.00
   11    1   14     -0.16      0.00
   13    1   14     -0.38      0.00
   15    1   14      0.04      0.00
   17    1   14      0.70      0.00
   19    1   14      0.34      0.00
   21    1   14      0.23      0.00
  -22    0   14     -0.27      0.00
  -20    0   14     -0.35      0.00
  -18    0   14      0.85      0.00
  -16    0   14      0.39      0.00
  -14    0   14      1.22      0.00
  -12    0   14      1.29      0.00
  -10    0   14      1.13      0.00
   -8    0   14     -1.01      0.00
   -6    0   14     -0.22      0.00
   -4    0   14     -1.00      0.00
   -2    0   14      0.51      0.00
    0    0   14      1.90      0.00
    2    0   14      2.33      0.00
    4    0   14     -1.07      0.00
    6    0   14     -2.34      0.00
    8    0   14     -2.12      0.00
   10    0   14     -0.12      0.00
   12    0   14      0.43      0.00
   14    0   14      0.27      0.00
   16    0   14     -0.58      0.00
   18    0   14     -0.76      0.00
   20    0   14     -0.26      0.00
   22    0   14     -0.24      0.00
   16   12   14     -0.30      0.00
   -1   17   14      0.00      0.00
    1   17   14     -0.68      0.00
   -2   16   15     -0.27      0.00
    0   16   15     -0.39      0.00
    2   16   15     -0.26      0.00
   -7   15   15     -0.45      0.00
   -5   15   15     -0.20      0.00
   -3   15   15      0.13      0.00
   -1   15   15      0.44      0.00
    1   15   15      0.33      0.00
    3   15   15     -0.20      0.00
    5   15   15     -0.91      0.00
    7   15   15     -0.02      0.00
  -10   14   15      0.38      0.00
   -8   14   15      0.90      0.00
   -6   14   15      0.55      0.00
   -4   14   15      0.10      0.00
   -2   14   15     -0.38      0.00
    0   14   15     -0.54      0.00
    2   14   15     -0.21      0.00
    4   14   15      0.89      0.00
    6   14   15      0.66      0.00
    8   14   15     -0.18      0.00
   10   14   15     -0.46      0.00
  -11   13   15      0.04      0.00
   -9   13   15     -0.44      0.00
   -7   13   15     -0.94      0.00
   -5   13   15     -0.23      0.00
   -3   13   15      0.01      0.00
   -1   13   15      0.48      0.00
    1   13   15      0.32      0.00
    3   13   15     -0.66      0.00
    5   13   15     -1.21      0.00
    7   13   15     -0.35      0.00
    9   13   15      0.66      0.00
   11   13   15      0.38      0.00
  -14   12   15      0.50      0.00
  -12   12   15     -0.04      0.00
  -10   12   15      0.48      0.00
   -8   12   15      0.82      0.00
   -6   12   15      0.91      0.00
   -4   12   15     -0.14      0.00
   -2   12   15     -0.36      0.00
    0   12   15     -0.93      0.00
    2   12   15      0.02      0.00
    4   12   15      0.99      0.00
    6   12   15      1.10      0.00
    8   12   15     -0.27      0.00
   10   12   15     -0.57      0.00
   12   12   15      0.18      0.00
   14   12   15      0.36      0.00
  -15   11   15      0.05      0.00
  -13   11   15     -0.01      0.00
  -11   11   15      0.26      0.00
   -9   11   15     -0.66      0.00
   -7   11   15     -0.85      0.00
   -5   11   15     -0.74      0.00
   -3   11   15      0.26      0.00
   -1   11   15      0.44      0.00
    1   11   15      0.42      0.00
    3   11   15     -0.89      0.00
    5   11   15     -1.59      0.00
    7   11   15     -0.70      0.00
    9   11   15      0.67      0.00
   11   11   15      0.23      0.00
   13   11   15     -0.27      0.00
   15   11   15     -0.19      0.00
  -16   10   15      0.37      0.00
  -14   10   15      0.09      0.00
  -12   10   15      0.31      0.00
  -10   10   15      0.08      0.00
   -8   10   15      1.18      0.00
   -6   10   15      0.66      0.00
   -4   10   15      0.44      0.00
   -2   10   15     -0.98      0.00
    0   10   15     -0.63      0.00
    2   10   15     -0.29      0.00
    4   10   15      1.46      0.00
    6   10   15      1.32      0.00
    8   10   15     -0.03      0.00
   10   10   15     -0.63      0.00
   12   10   15      0.18      0.00
   14   10   15      0.34      0.00
   16   10   15      0.13      0.00
  -17    9   15      0.21      0.00
  -15    9   15      0.12      0.00
  -13    9   15      0.23      0.00
  -11    9   15      0.07      0.00
   -9    9   15     -0.44      0.00
   -7    9   15     -1.11      0.00
   -5    9   15     -0.78      0.00
   -3    9   15      0.00      0.00
   -1    9   15      0.85      0.00
    1    9   15      0.25      0.00
    3    9   15     -0.77      0.00
    5    9   15     -2.04      0.00
    7    9   15     -0.90      0.00
    9    9   15      0.37      0.00
   11    9   15      0.35      0.00
   13    9   15     -0.54      0.00
   15    9   15     -0.06      0.00
   17    9   15     -0.39      0.00
  -18    8   15     -0.10      0.00
  -16    8   15      0.10      0.00
  -14    8   15      0.27      0.00
  -12    8   15     -0.19      0.00
  -10    8   15      0.66      0.00
   -8    8   15      0.64      0.00
   -6    8   15      1.35      0.00
   -4    8   15      0.25      0.00
   -2    8   15     -0.46      0.00
    0    8   15     -1.09      0.00
    2    8   15      0.31      0.00
    4    8   15      1.40      0.00
    6    8   15      1.91      0.00
    8    8   15      0.17      0.00
   10    8   15     -0.66      0.00
   12    8   15      0.17      0.00
   14    8   15      0.13      0.00
   16    8   15      0.18      0.00
   18    8   15      0.15      0.00
  -19    7   15      0.68      0.00
  -17    7   15      0.45      0.00
  -15    7   15      0.08      0.00
  -13    7   15      0.48      0.00
  -11    7   15     -0.06      0.00
   -9    7   15     -0.65      0.00
   -7    7   15     -0.91      0.00
   -5    7   15     -1.09      0.00
   -3    7   15      0.05      0.00
   -1    7   15      0.93      0.00
    1    7   15      0.46      0.00
    3    7   15     -1.08      0.00
    5    7   15     -1.93      0.00
    7    7   15     -1.50      0.00
    9    7   15      0.60      0.00
   11    7   15      0.05      0.00
   13    7   15     -0.11      0.00
   15    7   15     -0.42      0.00
   17    7   15     -0.23      0.00
   19    7   15     -0.22      0.00
  -20    6   15     -0.30      0.00
  -18    6   15     -0.41      0.00
  -16    6   15      0.11      0.00
  -14    6   15     -0.17      0.00
  -12    6   15     -0.09      0.00
  -10    6   15      0.68      0.00
   -8    6   15      0.99      0.00
   -6    6   15      1.04      0.00
   -4    6   15      1.01      0.00
   -2    6   15     -0.68      0.00
    0    6   15     -0.63      0.00
    2    6   15      0.43      0.00
    4    6   15      1.96      0.00
    6    6   15      2.15      0.00
    8    6   15      0.49      0.00
   10    6   15     -0.61      0.00
   12    6   15     -0.13      0.00
   14    6   15      0.13      0.00
   16    6   15      0.17      0.00
   18    6   15      0.20      0.00
  -19    5   15      0.93      0.00
  -17    5   15      0.39      0.00
  -15    5   15      0.43      0.00
  -13    5   15      0.48      0.00
  -11    5   15     -0.19      0.00
   -9    5   15     -0.97      0.00
   -7    5   15     -0.72      0.00
   -5    5   15     -1.05      0.00
   -3    5   15      0.04      0.00
   -1    5   15      1.23      0.00
    1    5   15      0.46      0.00
    3    5   15     -1.10      0.00
    5    5   15     -2.24      0.00
    7    5   15     -1.28      0.00
    9    5   15      0.07      0.00
   11    5   15      0.74      0.00
   13    5   15     -0.43      0.00
   15    5   15     -0.09      0.00
   17    5   15     -0.72      0.00
   19    5   15      0.04      0.00
  -20    4   15     -0.24      0.00
  -18    4   15     -0.66      0.00
  -16    4   15     -0.11      0.00
  -14    4   15     -0.62      0.00
  -12    4   15      0.07      0.00
  -10    4   15      0.87      0.00
   -8    4   15      1.17      0.00
   -6    4   15      0.96      0.00
   -4    4   15      1.11      0.00
   -2    4   15     -0.41      0.00
    0    4   15     -0.61      0.00
    2    4   15      0.92      0.00
    4    4   15      2.47      0.00
    6    4   15      2.30      0.00
    8    4   15      0.92      0.00
   10    4   15     -0.73      0.00
   12    4   15     -0.28      0.00
   14    4   15      0.11      0.00
   16    4   15      0.33      0.00
   18    4   15      0.29      0.00
   20    4   15     -0.21      0.00
  -21    3   15      0.24      0.00
  -19    3   15      0.62      0.00
  -17    3   15      0.80      0.00
  -15    3   15      0.45      0.00
  -13    3   15      0.67      0.00
  -11    3   15     -0.62      0.00
   -9    3   15     -1.09      0.00
   -7    3   15     -0.66      0.00
   -5    3   15     -0.68      0.00
   -3    3   15      0.14      0.00
   -1    3   15      1.52      0.00
    1    3   15      0.64      0.00
    3    3   15     -1.39      0.00
    5    3   15     -2.11      0.00
    7    3   15     -1.54      0.00
    9    3   15      0.31      0.00
   11    3   15      0.57      0.00
   13    3   15      0.14      0.00
   15    3   15     -0.74      0.00
   17    3   15     -0.42      0.00
   19    3   15     -0.37      0.00
   21    3   15      0.25      0.00
  -20    2   15     -0.34      0.00
  -18    2   15     -0.49      0.00
  -16    2   15     -0.89      0.00
  -14    2   15     -0.30      0.00
  -12    2   15     -0.45      0.00
  -10    2   15      1.71      0.00
   -8    2   15      0.74      0.00
   -6    2   15      1.23      0.00
   -4    2   15      0.75      0.00
   -2    2   15     -0.12      0.00
    0    2   15     -0.75      0.00
    2    2   15      1.43      0.00
    4    2   15      2.68      0.00
    6    2   15      2.70      0.00
    8    2   15      0.89      0.00
   10    2   15     -0.42      0.00
   12    2   15     -0.63      0.00
   14    2   15      0.34      0.00
   16    2   15      0.53      0.00
   18    2   15      0.26      0.00
   20    2   15      0.01      0.00
  -21    1   15      0.07      0.00
  -19    1   15      0.68      0.00
  -17    1   15      0.78      0.00
  -15    1   15      0.74      0.00
  -13    1   15      0.52      0.00
  -11    1   15     -0.71      0.00
   -9    1   15     -1.33      0.00
   -7    1   15     -0.45      0.00
   -5    1   15     -0.51      0.00
   -3    1   15      0.41      0.00
   -1    1   15      1.67      0.00
    1    1   15      0.77      0.00
    3    1   15     -1.46      0.00
    5    1   15     -2.24      0.00
    7    1   15     -1.36      0.00
    9    1   15      0.04      0.00
   11    1   15      0.94      0.00
   13    1   15     -0.06      0.00
   15    1   15     -0.67      0.00
   17    1   15     -0.73      0.00
   19    1   15     -0.21      0.00
   21    1   15      0.06      0.00
  -20    0   15     -0.10      0.00
  -18    0   15     -0.97      0.00
  -16    0   15     -0.40      0.00
  -14    0   15     -1.16      0.00
  -12    0   15      0.46      0.00
  -10    0   15      0.95      0.00
   -8    0   15      1.56      0.00
   -6    0   15      0.49      0.00
   -4    0   15      1.24      0.00
   -2    0   15     -0.57      0.00
    0    0   15     -0.35      0.00
    2    0   15      1.18      0.00
    4    0   15      3.20      0.00
    6    0   15      2.41      0.00
    8    0   15      1.30      0.00
   10    0   15     -0.67      0.00
   12    0   15     -0.50      0.00
   14    0   15      0.32      0.00
   16    0   15      0.61      0.00
   18    0   15      0.39      0.00
   20    0   15     -0.09      0.00
   -3   15   16     -0.09      0.00
   -1   15   16     -0.35      0.00
    1   15   16      0.07      0.00
    3   15   16      0.36      0.00
   -6   14   16      0.33      0.00
   -4   14   16      0.28      0.00
   -2   14   16      0.21      0.00
    0   14   16      0.19      0.00
    2   14   16     -0.39      0.00
    4   14   16     -0.72      0.00
    6   14   16      0.00      0.00
   -9   13   16      0.67      0.00
   -7   13   16      0.09      0.00
   -5   13   16     -0.47      0.00
   -3   13   16     -0.26      0.00
   -1   13   16     -0.37      0.00
    1   13   16     -0.03      0.00
    3   13   16      0.80      0.00
    5   13   16      0.48      0.00
    7   13   16     -0.30      0.00
    9   13   16     -0.39      0.00
  -12   12   16     -0.01      0.00
  -10   12   16     -0.74      0.00
   -8   12   16     -0.41      0.00
   -6   12   16      0.10      0.00
   -4   12   16      0.42      0.00
   -2   12   16      0.09      0.00
    0   12   16      0.21      0.00
    2   12   16     -0.75      0.00
    4   12   16     -1.01      0.00
    6   12   16     -0.19      0.00
    8   12   16      0.61      0.00
   10   12   16      0.17      0.00
   12   12   16     -0.36      0.00
  -13   11   16      0.36      0.00
  -11   11   16      0.36      0.00
   -9   11   16      0.89      0.00
   -7   11   16      0.04      0.00
   -5   11   16     -0.38      0.00
   -3   11   16     -0.65      0.00
   -1   11   16     -0.42      0.00
    1   11   16     -0.03      0.00
    3   11   16      1.00      0.00
    5   11   16      0.80      0.00
    7   11   16     -0.30      0.00
    9   11   16     -0.45      0.00
   11   11   16      0.40      0.00
   13   11   16      0.37      0.00
  -14   10   16      0.05      0.00
  -12   10   16     -0.51      0.00
  -10   10   16     -0.44      0.00
   -8   10   16     -0.97      0.00
   -6   10   16      0.23      0.00
   -4   10   16      0.10      0.00
   -2   10   16      0.60      0.00
    0   10   16     -0.20      0.00
    2   10   16     -0.64      0.00
    4   10   16     -1.58      0.00
    6   10   16     -0.43      0.00
    8   10   16      0.56      0.00
   10   10   16      0.06      0.00
   12   10   16     -0.36      0.00
   14   10   16     -0.15      0.00
  -15    9   16      0.28      0.00
  -13    9   16      0.37      0.00
  -11    9   16      0.69      0.00
   -9    9   16      0.71      0.00
   -7    9   16      0.48      0.00
   -5    9   16     -0.47      0.00
   -3    9   16     -0.66      0.00
   -1    9   16     -0.66      0.00
    1    9   16      0.29      0.00
    3    9   16      1.07      0.00
    5    9   16      1.38      0.00
    7    9   16     -0.26      0.00
    9    9   16     -0.38      0.00
   11    9   16      0.19      0.00
   13    9   16      0.45      0.00
   15    9   16      0.01      0.00
  -16    8   16     -0.01      0.00
  -14    8   16     -0.29      0.00
  -12    8   16     -0.33      0.00
  -10    8   16     -1.05      0.00
   -8    8   16     -0.55      0.00
   -6    8   16     -0.59      0.00
   -4    8   16      0.61      0.00
   -2    8   16      0.32      0.00
    0    8   16      0.15      0.00
    2    8   16     -1.19      0.00
    4    8   16     -1.59      0.00
    6    8   16     -0.97      0.00
    8    8   16      0.53      0.00
   10    8   16      0.16      0.00
   12    8   16     -0.48      0.00
   14    8   16     -0.13      0.00
   16    8   16     -0.29      0.00
  -17    7   16      0.52      0.00
  -15    7   16      0.29      0.00
  -13    7   16      0.54      0.00
  -11    7   16      0.88      0.00
   -9    7   16      0.92      0.00
   -7    7   16      0.45      0.00
   -5    7   16      0.06      0.00
   -3    7   16     -0.88      0.00
   -1    7   16     -0.38      0.00
    1    7   16      0.47      0.00
    3    7   16      1.64      0.00
    5    7   16      1.49      0.00
    7    7   16      0.36      0.00
    9    7   16     -0.82      0.00
   11    7   16      0.38      0.00
   13    7   16      0.08      0.00
   15    7   16      0.38      0.00
   17    7   16      0.08      0.00
  -18    6   16     -0.14      0.00
  -16    6   16     -0.20      0.00
  -14    6   16     -0.16      0.00
  -12    6   16     -0.86      0.00
  -10    6   16     -0.99      0.00
   -8    6   16     -0.80      0.00
   -6    6   16     -0.34      0.00
   -4    6   16      0.13      0.00
   -2    6   16      0.95      0.00
    0    6   16     -0.34      0.00
    2    6   16     -1.14      0.00
    4    6   16     -1.92      0.00
    6    6   16     -1.12      0.00
    8    6   16      0.43      0.00
   10    6   16      0.31      0.00
   12    6   16     -0.36      0.00
   14    6   16     -0.39      0.00
   16    6   16     -0.40      0.00
   18    6   16     -0.16      0.00
  -19    5   16      0.02      0.00
  -17    5   16      0.51      0.00
  -15    5   16      0.30      0.00
  -13    5   16      0.74      0.00
  -11    5   16      1.29      0.00
   -9    5   16      0.88      0.00
   -7    5   16      0.55      0.00
   -5    5   16      0.25      0.00
   -3    5   16     -0.58      0.00
   -1    5   16     -0.34      0.00
    1    5   16      1.20      0.00
    3    5   16      1.81      0.00
    5    5   16      2.05      0.00
    7    5   16      0.29      0.00
    9    5   16     -0.43      0.00
   11    5   16     -0.31      0.00
   13    5   16      0.65      0.00
   15    5   16      0.10      0.00
   17    5   16      0.48      0.00
   19    5   16     -0.27      0.00
  -18    4   16      0.10      0.00
  -16    4   16     -0.30      0.00
  -14    4   16     -0.23      0.00
  -12    4   16     -1.34      0.00
  -10    4   16     -1.09      0.00
   -8    4   16     -0.60      0.00
   -6    4   16     -0.29      0.00
   -4    4   16      0.26      0.00
   -2    4   16      0.94      0.00
    0    4   16     -0.26      0.00
    2    4   16     -1.50      0.00
    4    4   16     -1.89      0.00
    6    4   16     -1.13      0.00
    8    4   16      0.21      0.00
   10    4   16      0.62      0.00
   12    4   16     -0.46      0.00
   14    4   16     -0.66      0.00
   16    4   16     -0.52      0.00
   18    4   16     -0.30      0.00
  -19    3   16      0.05      0.00
  -17    3   16      0.20      0.00
  -15    3   16      0.44      0.00
  -13    3   16      1.00      0.00
  -11    3   16      1.59      0.00
   -9    3   16      0.91      0.00
   -7    3   16      0.38      0.00
   -5    3   16      0.44      0.00
   -3    3   16     -0.47      0.00
   -1    3   16     -0.01      0.00
    1    3   16      1.55      0.00
    3    3   16      2.39      0.00
    5    3   16      1.89      0.00
    7    3   16      0.85      0.00
    9    3   16     -0.75      0.00
   11    3   16     -0.04      0.00
   13    3   16      0.47      0.00
   15    3   16      0.73      0.00
   17    3   16      0.12      0.00
   19    3   16      0.12      0.00
  -20    2   16      0.46      0.00
  -18    2   16     -0.06      0.00
  -16    2   16      0.19      0.00
  -14    2   16     -1.00      0.00
  -12    2   16     -1.09      0.00
  -10    2   16     -1.70      0.00
   -8    2   16      0.07      0.00
   -6    2   16     -0.40      0.00
   -4    2   16      0.57      0.00
   -2    2   16      0.89      0.00
    0    2   16     -0.18      0.00
    2    2   16     -1.79      0.00
    4    2   16     -1.70      0.00
    6    2   16     -1.25      0.00
    8    2   16      0.29      0.00
   10    2   16      0.56      0.00
   12    2   16     -0.39      0.00
   14    2   16     -1.06      0.00
   16    2   16     -0.63      0.00
   18    2   16     -0.26      0.00
   20    2   16      0.04      0.00
  -19    1   16     -0.10      0.00
  -17    1   16      0.10      0.00
  -15    1   16      0.46      0.00
  -13    1   16      1.25      0.00
  -11    1   16      1.75      0.00
   -9    1   16      0.89      0.00
   -7    1   16      0.26      0.00
   -5    1   16      0.44      0.00
   -3    1   16     -0.34      0.00
   -1    1   16      0.10      0.00
    1    1   16      1.90      0.00
    3    1   16      2.51      0.00
    5    1   16      2.07      0.00
    7    1   16      0.78      0.00
    9    1   16     -0.45      0.00
   11    1   16     -0.35      0.00
   13    1   16      0.95      0.00
   15    1   16      0.65      0.00
   17    1   16      0.34      0.00
   19    1   16     -0.03      0.00
  -20    0   16      0.16      0.00
  -18    0   16      0.48      0.00
  -16    0   16     -0.43      0.00
  -14    0   16     -0.35      0.00
  -12    0   16     -2.03      0.00
  -10    0   16     -0.93      0.00
   -8    0   16     -0.54      0.00
   -6    0   16      0.31      0.00
   -4    0   16      0.16      0.00
   -2    0   16      1.29      0.00
    0    0   16     -0.49      0.00
    2    0   16     -1.57      0.00
    4    0   16     -1.94      0.00
    6    0   16     -0.94      0.00
    8    0   16     -0.02      0.00
   10    0   16      0.81      0.00
   12    0   16     -0.58      0.00
   14    0   16     -1.16      0.00
   16    0   16     -0.62      0.00
   18    0   16     -0.39      0.00
   20    0   16      0.19      0.00
   -8   14   16     -0.26      0.00
    8   14   16      0.58      0.00
   -2   14   17      0.10      0.00
    0   14   17      0.08      0.00
    2   14   17      0.56      0.00
   -7   13   17      0.57      0.00
   -5   13   17      0.18      0.00
   -3   13   17     -0.13      0.00
   -1   13   17     -0.11      0.00
    1   13   17     -0.39      0.00
    3   13   17     -0.74      0.00
    5   13   17      0.06      0.00
    7   13   17      0.24      0.00
  -10   12   17      0.49      0.00
   -8   12   17     -0.36      0.00
   -6   12   17     -0.56      0.00
   -4   12   17     -0.15      0.00
   -2   12   17      0.03      0.00
    0   12   17      0.08      0.00
    2   12   17      0.74      0.00
    4   12   17      0.49      0.00
    6   12   17     -0.24      0.00
    8   12   17      0.01      0.00
  -11   11   17     -0.35      0.00
   -9   11   17     -0.38      0.00
   -7   11   17      0.57      0.00
   -5   11   17      0.23      0.00
   -3   11   17     -0.10      0.00
   -1   11   17     -0.23      0.00
    1   11   17     -0.67      0.00
    3   11   17     -0.99      0.00
    5   11   17     -0.21      0.00
    7   11   17      0.39      0.00
    9   11   17     -0.16      0.00
   11   11   17     -0.38      0.00
  -12   10   17      0.60      0.00
  -10   10   17      0.17      0.00
   -8   10   17      0.04      0.00
   -6   10   17     -1.03      0.00
   -4   10   17     -0.18      0.00
   -2   10   17     -0.34      0.00
    0   10   17      0.42      0.00
    2   10   17      0.73      0.00
    4   10   17      0.89      0.00
    6   10   17     -0.25      0.00
    8   10   17     -0.19      0.00
   10   10   17      0.58      0.00
   12   10   17      0.30      0.00
  -13    9   17     -0.50      0.00
  -11    9   17     -0.61      0.00
   -9    9   17     -0.31      0.00
   -7    9   17      0.19      0.00
   -5    9   17      0.56      0.00
   -3    9   17     -0.09      0.00
   -1    9   17     -0.28      0.00
    1    9   17     -1.00      0.00
    3    9   17     -1.20      0.00
    5    9   17     -0.62      0.00
    7    9   17      0.59      0.00
    9    9   17     -0.20      0.00
   11    9   17     -0.34      0.00
   13    9   17     -0.22      0.00
  -14    8   17      0.71      0.00
  -12    8   17      0.41      0.00
  -10    8   17      0.60      0.00
   -8    8   17     -0.35      0.00
   -6    8   17     -0.51      0.00
   -4    8   17     -0.94      0.00
   -2    8   17      0.12      0.00
    0    8   17      0.31      0.00
    2    8   17      1.28      0.00
    4    8   17      1.02      0.00
    6    8   17     -0.01      0.00
    8    8   17     -0.42      0.00
   10    8   17      0.40      0.00
   12    8   17      0.45      0.00
   14    8   17      0.17      0.00
  -15    7   17     -0.27      0.00
  -13    7   17     -0.86      0.00
  -11    7   17     -0.54      0.00
   -9    7   17     -0.47      0.00
   -7    7   17      0.29      0.00
   -5    7   17      0.40      0.00
   -3    7   17      0.36      0.00
   -1    7   17     -0.70      0.00
    1    7   17     -1.03      0.00
    3    7   17     -1.62      0.00
    5    7   17     -0.62      0.00
    7    7   17      0.33      0.00
    9    7   17      0.33      0.00
   11    7   17     -0.71      0.00
   13    7   17     -0.13      0.00
   15    7   17     -0.45      0.00
  -16    6   17      0.47      0.00
  -14    6   17      0.72      0.00
  -12    6   17      0.88      0.00
  -10    6   17      0.24      0.00
   -8    6   17      0.00      0.00
   -6    6   17     -0.73      0.00
   -4    6   17     -0.56      0.00
   -2    6   17     -0.19      0.00
    0    6   17      1.15      0.00
    2    6   17      1.26      0.00
    4    6   17      1.45      0.00
    6    6   17      0.10      0.00
    8    6   17     -0.60      0.00
   10    6   17      0.26      0.00
   12    6   17      0.49      0.00
   14    6   17      0.37      0.00
   16    6   17      0.23      0.00
  -17    5   17     -0.48      0.00
  -15    5   17     -0.58      0.00
  -13    5   17     -0.93      0.00
  -11    5   17     -0.75      0.00
   -9    5   17     -0.05      0.00
   -7    5   17      0.09      0.00
   -5    5   17      0.61      0.00
   -3    5   17      0.30      0.00
   -1    5   17     -0.63      0.00
    1    5   17     -1.51      0.00
    3    5   17     -1.31      0.00
    5    5   17     -1.07      0.00
    7    5   17      0.66      0.00
    9    5   17      0.12      0.00
   11    5   17     -0.34      0.00
   13    5   17     -0.86      0.00
   15    5   17     -0.18      0.00
   17    5   17     -0.35      0.00
  -18    4   17      0.66      0.00
  -16    4   17      0.83      0.00
  -14    4   17      0.89      0.00
  -12    4   17      1.10      0.00
  -10    4   17      0.11      0.00
   -8    4   17     -0.17      0.00
   -6    4   17     -0.40      0.00
   -4    4   17     -0.61      0.00
   -2    4   17      0.22      0.00
    0    4   17      1.41      0.00
    2    4   17      1.62      0.00
    4    4   17      1.43      0.00
    6    4   17      0.30      0.00
    8    4   17     -0.57      0.00
   10    4   17      0.02      0.00
   12    4   17      0.81      0.00
   14    4   17      0.48      0.00
   16    4   17      0.16      0.00
   18    4   17      0.04      0.00
  -17    3   17     -0.56      0.00
  -15    3   17     -0.85      0.00
  -13    3   17     -1.20      0.00
  -11    3   17     -0.55      0.00
   -9    3   17      0.10      0.00
   -7    3   17      0.39      0.00
   -5    3   17      0.41      0.00
   -3    3   17      0.56      0.00
   -1    3   17     -0.91      0.00
    1    3   17     -1.40      0.00
    3    3   17     -1.41      0.00
    5    3   17     -0.72      0.00
    7    3   17      0.17      0.00
    9    3   17      0.62      0.00
   11    3   17     -0.87      0.00
   13    3   17     -0.83      0.00
   15    3   17     -0.58      0.00
   17    3   17     -0.06      0.00
  -18    2   17      0.90      0.00
  -16    2   17      0.64      0.00
  -14    2   17      1.64      0.00
  -12    2   17      0.69      0.00
  -10    2   17      0.40      0.00
   -8    2   17     -0.66      0.00
   -6    2   17     -0.04      0.00
   -4    2   17     -0.57      0.00
   -2    2   17      0.48      0.00
    0    2   17      1.67      0.00
    2    2   17      1.78      0.00
    4    2   17      1.29      0.00
    6    2   17      0.58      0.00
    8    2   17     -0.63      0.00
   10    2   17      0.10      0.00
   12    2   17      0.99      0.00
   14    2   17      0.64      0.00
   16    2   17      0.10      0.00
   18    2   17     -0.02      0.00
  -17    1   17     -0.58      0.00
  -15    1   17     -1.11      0.00
  -13    1   17     -1.26      0.00
  -11    1   17     -0.54      0.00
   -9    1   17      0.39      0.00
   -7    1   17      0.43      0.00
   -5    1   17      0.49      0.00
   -3    1   17      0.49      0.00
   -1    1   17     -0.84      0.00
    1    1   17     -1.54      0.00
    3    1   17     -1.10      0.00
    5    1   17     -0.84      0.00
    7    1   17      0.28      0.00
    9    1   17      0.39      0.00
   11    1   17     -0.74      0.00
   13    1   17     -1.34      0.00
   15    1   17     -0.35      0.00
   17    1   17     -0.27      0.00
  -18    0   17      0.39      0.00
  -16    0   17      1.34      0.00
  -14    0   17      1.06      0.00
  -12    0   17      1.43      0.00
  -10    0   17     -0.35      0.00
   -8    0   17     -0.12      0.00
   -6    0   17     -0.48      0.00
   -4    0   17     -0.13      0.00
   -2    0   17      0.29      0.00
    0    0   17      1.98      0.00
    2    0   17      1.62      0.00
    4    0   17      1.45      0.00
    6    0   17      0.43      0.00
    8    0   17     -0.38      0.00
   10    0   17     -0.06      0.00
   12    0   17      1.21      0.00
   14    0   17      0.68      0.00
   16    0   17     -0.01      0.00
   18    0   17      0.13      0.00
   10   12   17      0.46      0.00
   -6   12   18      0.02      0.00
   -4   12   18     -0.45      0.00
   -2   12   18     -0.23      0.00
    0   12   18     -0.43      0.00
    2   12   18     -0.56      0.00
    4   12   18     -0.13      0.00
    6   12   18      0.18      0.00
   -9   11   18     -0.23      0.00
   -7   11   18     -0.67      0.00
   -5   11   18      0.13      0.00
   -3   11   18      0.24      0.00
   -1   11   18      0.18      0.00
    1   11   18      0.62      0.00
    3   11   18      0.41      0.00
    5   11   18     -0.08      0.00
    7   11   18      0.08      0.00
  -10   10   18      0.10      0.00
   -8   10   18      0.22      0.00
   -6   10   18      0.47      0.00
   -4   10   18     -0.66      0.00
   -2   10   18     -0.25      0.00
    0   10   18     -0.77      0.00
    2   10   18     -0.69      0.00
    4   10   18     -0.24      0.00
    6   10   18      0.35      0.00
    8   10   18     -0.19      0.00
   10   10   18     -0.39      0.00
  -11    9   18     -0.01      0.00
   -9    9   18     -0.44      0.00
   -7    9   18     -0.79      0.00
   -5    9   18     -0.36      0.00
   -3    9   18      0.32      0.00
   -1    9   18      0.28      0.00
    1    9   18      0.76      0.00
    3    9   18      0.53      0.00
    5    9   18     -0.14      0.00
    7    9   18     -0.28      0.00
    9    9   18      0.65      0.00
   11    9   18      0.25      0.00
  -12    8   18      0.05      0.00
  -10    8   18     -0.23      0.00
   -8    8   18      0.63      0.00
   -6    8   18      0.24      0.00
   -4    8   18     -0.10      0.00
   -2    8   18     -0.91      0.00
    0    8   18     -0.64      0.00
    2    8   18     -1.07      0.00
    4    8   18     -0.21      0.00
    6    8   18      0.54      0.00
    8    8   18     -0.01      0.00
   10    8   18     -0.41      0.00
   12    8   18     -0.19      0.00
  -13    7   18      0.36      0.00
  -11    7   18     -0.40      0.00
   -9    7   18     -0.33      0.00
   -7    7   18     -1.12      0.00
   -5    7   18     -0.41      0.00
   -3    7   18      0.15      0.00
   -1    7   18      0.79      0.00
    1    7   18      0.66      0.00
    3    7   18      0.86      0.00
    5    7   18     -0.39      0.00
    7    7   18     -0.36      0.00
    9    7   18      0.24      0.00
   11    7   18      0.66      0.00
   13    7   18      0.13      0.00
  -14    6   18     -0.46      0.00
  -12    6   18     -0.09      0.00
  -10    6   18      0.30      0.00
   -8    6   18      0.32      0.00
   -6    6   18      0.75      0.00
   -4    6   18     -0.34      0.00
   -2    6   18     -0.71      0.00
    0    6   18     -1.17      0.00
    2    6   18     -0.77      0.00
    4    6   18     -0.46      0.00
    6    6   18      0.73      0.00
    8    6   18      0.26      0.00
   10    6   18     -0.57      0.00
   12    6   18     -0.36      0.00
   14    6   18     -0.23      0.00
  -15    5   18      0.54      0.00
  -13    5   18      0.06      0.00
  -11    5   18     -0.36      0.00
   -9    5   18     -0.77      0.00
   -7    5   18     -0.76      0.00
   -5    5   18     -0.74      0.00
   -3    5   18      0.48      0.00
   -1    5   18      0.84      0.00
    1    5   18      0.99      0.00
    3    5   18      0.55      0.00
    5    5   18      0.04      0.00
    7    5   18     -0.94      0.00
    9    5   18      0.46      0.00
   11    5   18      0.44      0.00
   13    5   18      0.56      0.00
   15    5   18     -0.14      0.00
  -16    4   18     -0.50      0.00
  -14    4   18     -0.33      0.00
  -12    4   18      0.10      0.00
  -10    4   18      0.55      0.00
   -8    4   18      0.50      0.00
   -6    4   18      0.56      0.00
   -4    4   18      0.03      0.00
   -2    4   18     -1.02      0.00
    0    4   18     -0.99      0.00
    2    4   18     -0.73      0.00
    4    4   18     -0.37      0.00
    6    4   18      0.68      0.00
    8    4   18      0.38      0.00
   10    4   18     -0.61      0.00
   12    4   18     -0.71      0.00
   14    4   18     -0.17      0.00
   16    4   18      0.07      0.00
  -15    3   18      0.54      0.00
  -13    3   18      0.11      0.00
  -11    3   18     -0.79      0.00
   -9    3   18     -0.64      0.00
   -7    3   18     -0.87      0.00
   -5    3   18     -0.39      0.00
   -3    3   18      0.29      0.00
   -1    3   18      1.30      0.00
    1    3   18      0.66      0.00
    3    3   18      0.75      0.00
    5    3   18     -0.16      0.00
    7    3   18     -0.61      0.00
    9    3   18     -0.04      0.00
   11    3   18      1.03      0.00
   13    3   18      0.20      0.00
   15    3   18      0.02      0.00
  -16    2   18     -0.34      0.00
  -14    2   18     -0.67      0.00
  -12    2   18      0.72      0.00
  -10    2   18      0.44      0.00
   -8    2   18      0.81      0.00
   -6    2   18      0.36      0.00
   -4    2   18      0.17      0.00
   -2    2   18     -0.98      0.00
    0    2   18     -0.93      0.00
    2    2   18     -0.46      0.00
    4    2   18     -0.30      0.00
    6    2   18      0.49      0.00
    8    2   18      0.54      0.00
   10    2   18     -0.82      0.00
   12    2   18     -0.88      0.00
   14    2   18     -0.09      0.00
   16    2   18      0.01      0.00
  -17    1   18      0.77      0.00
  -15    1   18      0.75      0.00
  -13    1   18     -0.12      0.00
  -11    1   18     -0.79      0.00
   -9    1   18     -0.84      0.00
   -7    1   18     -0.61      0.00
   -5    1   18     -0.43      0.00
   -3    1   18      0.47      0.00
   -1    1   18      1.21      0.00
    1    1   18      0.74      0.00
    3    1   18      0.46      0.00
    5    1   18      0.14      0.00
    7    1   18     -0.79      0.00
    9    1   18      0.17      0.00
   11    1   18      0.92      0.00
   13    1   18      0.44      0.00
   15    1   18     -0.33      0.00
   17    1   18      0.03      0.00
  -16    0   18     -0.96      0.00
  -14    0   18     -0.04      0.00
  -12    0   18      0.20      0.00
  -10    0   18      1.09      0.00
   -8    0   18      0.36      0.00
   -6    0   18      0.69      0.00
   -4    0   18     -0.05      0.00
   -2    0   18     -0.78      0.00
    0    0   18     -1.00      0.00
    2    0   18     -0.22      0.00
    4    0   18     -0.40      0.00
    6    0   18      0.57      0.00
    8    0   18      0.40      0.00
   10    0   18     -0.75      0.00
   12    0   18     -1.04      0.00
   14    0   18     -0.05      0.00
   16    0   18      0.09      0.00
   -3   11   19     -0.23      0.00
   -1   11   19     -0.16      0.00
    1   11   19     -0.39      0.00
    3   11   19      0.12      0.00
   -6   10   19     -0.07      0.00
   -4   10   19      0.52      0.00
   -2   10   19     -0.07      0.00
    0   10   19      0.39      0.00
    2   10   19      0.10      0.00
    4   10   19     -0.21      0.00
    6   10   19     -0.01      0.00
   -9    9   19      0.27      0.00
   -7    9   19      0.15      0.00
   -5    9   19     -0.55      0.00
   -3    9   19     -0.54      0.00
   -1    9   19     -0.29      0.00
    1    9   19     -0.40      0.00
    3    9   19      0.16      0.00
    5    9   19      0.46      0.00
    7    9   19      0.00      0.00
    9    9   19     -0.35      0.00
  -10    8   19     -0.18      0.00
   -8    8   19     -0.92      0.00
   -6    8   19      0.02      0.00
   -4    8   19      0.26      0.00
   -2    8   19      0.42      0.00
    0    8   19      0.10      0.00
    2    8   19      0.25      0.00
    4    8   19     -0.50      0.00
    6    8   19     -0.33      0.00
    8    8   19      0.53      0.00
   10    8   19      0.34      0.00
  -11    7   19      0.41      0.00
   -9    7   19      0.08      0.00
   -7    7   19      0.49      0.00
   -5    7   19     -0.73      0.00
   -3    7   19     -0.66      0.00
   -1    7   19     -0.59      0.00
    1    7   19     -0.20      0.00
    3    7   19     -0.01      0.00
    5    7   19      0.90      0.00
    7    7   19     -0.02      0.00
    9    7   19     -0.33      0.00
   11    7   19     -0.33      0.00
  -12    6   19     -0.63      0.00
  -10    6   19     -0.63      0.00
   -8    6   19     -0.65      0.00
   -6    6   19     -0.50      0.00
   -4    6   19      0.71      0.00
   -2    6   19      0.29      0.00
    0    6   19      0.35      0.00
    2    6   19     -0.02      0.00
    4    6   19     -0.41      0.00
    6    6   19     -0.66      0.00
    8    6   19      0.44      0.00
   10    6   19      0.62      0.00
   12    6   19      0.25      0.00
  -13    5   19      0.60      0.00
  -11    5   19      0.27      0.00
   -9    5   19      0.43      0.00
   -7    5   19      0.17      0.00
   -5    5   19     -0.34      0.00
   -3    5   19     -1.09      0.00
   -1    5   19     -0.39      0.00
    1    5   19     -0.33      0.00
    3    5   19      0.26      0.00
    5    5   19      0.65      0.00
    7    5   19      0.51      0.00
    9    5   19     -0.85      0.00
   11    5   19     -0.19      0.00
   13    5   19     -0.26      0.00
  -14    4   19     -0.49      0.00
  -12    4   19     -0.83      0.00
  -10    4   19     -0.63      0.00
   -8    4   19     -0.71      0.00
   -6    4   19     -0.32      0.00
   -4    4   19      0.43      0.00
   -2    4   19      0.69      0.00
    0    4   19      0.03      0.00
    2    4   19      0.05      0.00
    4    4   19     -0.41      0.00
    6    4   19     -0.81      0.00
    8    4   19      0.36      0.00
   10    4   19      0.72      0.00
   12    4   19      0.27      0.00
   14    4   19     -0.09      0.00
  -13    3   19      0.60      0.00
  -11    3   19      0.66      0.00
   -9    3   19      0.10      0.00
   -7    3   19      0.42      0.00
   -5    3   19     -0.51      0.00
   -3    3   19     -0.75      0.00
   -1    3   19     -0.62      0.00
    1    3   19      0.20      0.00
    3    3   19     -0.09      0.00
    5    3   19      0.91      0.00
    7    3   19      0.28      0.00
    9    3   19     -0.59      0.00
   11    3   19     -0.74      0.00
   13    3   19      0.16      0.00
  -14    2   19     -0.39      0.00
  -12    2   19     -1.21      0.00
  -10    2   19     -0.35      0.00
   -8    2   19     -0.73      0.00
   -6    2   19     -0.21      0.00
   -4    2   19      0.37      0.00
   -2    2   19      0.64      0.00
    0    2   19     -0.04      0.00
    2    2   19     -0.09      0.00
    4    2   19     -0.29      0.00
    6    2   19     -0.81      0.00
    8    2   19      0.18      0.00
   10    2   19      0.90      0.00
   12    2   19      0.18      0.00
   14    2   19     -0.25      0.00
  -15    1   19      0.24      0.00
  -13    1   19      0.92      0.00
  -11    1   19      0.49      0.00
   -9    1   19      0.24      0.00
   -7    1   19      0.18      0.00
   -5    1   19     -0.24      0.00
   -3    1   19     -0.82      0.00
   -1    1   19     -0.34      0.00
    1    1   19      0.19      0.00
    3    1   19      0.09      0.00
    5    1   19      0.61      0.00
    7    1   19      0.56      0.00
    9    1   19     -0.88      0.00
   11    1   19     -0.63      0.00
   13    1   19      0.01      0.00
   15    1   19      0.14      0.00
  -14    0   19     -0.96      0.00
  -12    0   19     -0.75      0.00
  -10    0   19     -0.75      0.00
   -8    0   19     -0.33      0.00
   -6    0   19     -0.43      0.00
   -4    0   19      0.47      0.00
   -2    0   19      0.54      0.00
    0    0   19     -0.05      0.00
    2    0   19     -0.19      0.00
    4    0   19     -0.15      0.00
    6    0   19     -0.91      0.00
    8    0   19      0.25      0.00
   10    0   19      0.86      0.00
   12    0   19      0.20      0.00
   14    0   19     -0.27      0.00
   -3    9   20     -0.14      0.00
   -1    9   20     -0.09      0.00
    1    9   20     -0.15      0.00
    3    9   20     -0.40      0.00
   -6    8   20     -0.79      0.00
   -4    8   20     -0.28      0.00
   -2    8   20     -0.08      0.00
    0    8   20      0.18      0.00
    2    8   20      0.32      0.00
    4    8   20      0.59      0.00
    6    8   20     -0.01      0.00
   -9    7   20     -0.13      0.00
   -7    7   20     -0.20      0.00
   -5    7   20      0.66      0.00
   -3    7   20     -0.13      0.00
   -1    7   20     -0.11      0.00
    1    7   20     -0.34      0.00
    3    7   20     -0.38      0.00
    5    7   20     -0.39      0.00
    7    7   20      0.74      0.00
  -10    6   20     -0.11      0.00
   -8    6   20     -0.18      0.00
   -6    6   20     -0.58      0.00
   -4    6   20     -0.88      0.00
   -2    6   20      0.11      0.00
    0    6   20      0.01      0.00
    2    6   20      0.45      0.00
    4    6   20      0.60      0.00
    6    6   20      0.04      0.00
    8    6   20     -0.66      0.00
   10    6   20     -0.30      0.00
  -11    5   20      0.01      0.00
   -9    5   20     -0.43      0.00
   -7    5   20      0.10      0.00
   -5    5   20      0.40      0.00
   -3    5   20      0.30      0.00
   -1    5   20     -0.44      0.00
    1    5   20     -0.13      0.00
    3    5   20     -0.61      0.00
    5    5   20     -0.26      0.00
    7    5   20      0.47      0.00
    9    5   20      1.01      0.00
   11    5   20      0.12      0.00
  -10    4   20     -0.32      0.00
   -8    4   20     -0.10      0.00
   -6    4   20     -0.77      0.00
   -4    4   20     -0.72      0.00
   -2    4   20     -0.21      0.00
    0    4   20      0.31      0.00
    2    4   20      0.20      0.00
    4    4   20      0.63      0.00
    6    4   20      0.13      0.00
    8    4   20     -0.91      0.00
   10    4   20     -0.44      0.00
  -11    3   20     -0.19      0.00
   -9    3   20     -0.01      0.00
   -7    3   20     -0.24      0.00
   -5    3   20      0.63      0.00
   -3    3   20      0.05      0.00
   -1    3   20     -0.20      0.00
    1    3   20     -0.47      0.00
    3    3   20     -0.18      0.00
    5    3   20     -0.70      0.00
    7    3   20      0.73      0.00
    9    3   20      0.83      0.00
   11    3   20      0.43      0.00
  -12    2   20      0.12      0.00
  -10    2   20     -0.58      0.00
   -8    2   20     -0.09      0.00
   -6    2   20     -0.67      0.00
   -4    2   20     -0.72      0.00
   -2    2   20     -0.12      0.00
    0    2   20      0.31      0.00
    2    2   20      0.16      0.00
    4    2   20      0.55      0.00
    6    2   20      0.21      0.00
    8    2   20     -0.97      0.00
   10    2   20     -0.66      0.00
   12    2   20     -0.08      0.00
  -11    1   20      0.16      0.00
   -9    1   20     -0.15      0.00
   -7    1   20     -0.04      0.00
   -5    1   20      0.33      0.00
   -3    1   20      0.23      0.00
   -1    1   20     -0.44      0.00
    1    1   20     -0.30      0.00
    3    1   20     -0.29      0.00
    5    1   20     -0.57      0.00
    7    1   20      0.43      0.00
    9    1   20      1.14      0.00
   11    1   20      0.22      0.00
  -12    0   20     -0.31      0.00
  -10    0   20     -0.34      0.00
   -8    0   20     -0.33      0.00
   -6    0   20     -0.49      0.00
   -4    0   20     -0.73      0.00
   -2    0   20     -0.09      0.00
    0    0   20      0.35      0.00
    2    0   20      0.14      0.00
    4    0   20      0.48      0.00
    6    0   20      0.32      0.00
    8    0   20     -1.08      0.00
   10    0   20     -0.67      0.00
   12    0   20     -0.10      0.00
   -5    9   20      0.35      0.00
   -3    7   21      0.41      0.00
   -1    7   21      0.15      0.00
    1    7   21      0.45      0.00
    3    7   21      0.24      0.00
   -4    6   21     -0.09      0.00
   -2    6   21     -0.56      0.00
    0    6   21     -0.17      0.00
    2    6   21     -0.35      0.00
    4    6   21      0.09      0.00
   -7    5   21     -0.81      0.00
   -5    5   21     -0.34      0.00
   -3    5   21      0.05      0.00
   -1    5   21      0.39      0.00
    1    5   21      0.13      0.00
    3    5   21      0.45      0.00
    5    5   21     -0.37      0.00
    7    5   21     -0.66      0.00
   -8    4   21     -0.01      0.00
   -6    4   21      0.42      0.00
   -4    4   21     -0.23      0.00
   -2    4   21     -0.36      0.00
    0    4   21     -0.37      0.00
    2    4   21     -0.17      0.00
    4    4   21     -0.06      0.00
    6    4   21      0.82      0.00
    8    4   21      1.03      0.00
   -9    3   21     -0.57      0.00
   -7    3   21     -0.49      0.00
   -5    3   21     -0.70      0.00
   -3    3   21      0.21      0.00
   -1    3   21      0.10      0.00
    1    3   21      0.32      0.00
    3    3   21      0.13      0.00
    5    3   21      0.01      0.00
    7    3   21     -1.17      0.00
    9    3   21     -0.42      0.00
   -8    2   21     -0.08      0.00
   -6    2   21      0.28      0.00
   -4    2   21     -0.10      0.00
   -2    2   21     -0.46      0.00
    0    2   21     -0.31      0.00
    2    2   21     -0.19      0.00
    4    2   21     -0.19      0.00
    6    2   21      0.80      0.00
    8    2   21      1.16      0.00
   -9    1   21     -0.34      0.00
   -7    1   21     -0.65      0.00
   -5    1   21     -0.48      0.00
   -3    1   21     -0.04      0.00
   -1    1   21      0.30      0.00
    1    1   21      0.10      0.00
    3    1   21      0.32      0.00
    5    1   21     -0.09      0.00
    7    1   21     -1.09      0.00
    9    1   21     -0.78      0.00
  -10    0   21      0.05      0.00
   -8    0   21      0.01      0.00
   -6    0   21      0.18      0.00
   -4    0   21     -0.11      0.00
   -2    0   21     -0.42      0.00
    0    0   21     -0.37      0.00
    2    0   21     -0.17      0.00
    4    0   21     -0.24      0.00
    6    0   21      0.71      0.00
    8    0   21      1.29      0.00
   -3    3   22     -0.57      0.00
   -1    3   22     -0.15      0.00
    1    3   22     -0.31      0.00
    3    3   22      0.27      0.00
   -4    2   22      0.14      0.00
   -2    2   22      0.23      0.00
    0    2   22      0.23      0.00
    2    2   22      0.20      0.00
    4    2   22     -0.19      0.00
   -5    1   22     -0.43      0.00
   -3    1   22     -0.39      0.00
   -1    1   22     -0.43      0.00
    1    1   22     -0.21      0.00
    3    1   22     -0.05      0.00
   -4    0   22      0.15      0.00
   -2    0   22      0.18      0.00
    0    0   22      0.32      0.00
    2    0   22      0.21      0.00
    4    0   22     -0.15      0.00
    2    0    0     42.27      0.00
    1    1    0    -62.20      0.00
    3    1    0    -18.47      0.00
    0    2    0     71.18      0.00
    2    2    0     43.98      0.00
   29    3    0     -0.93      0.00
   29    5    0     -0.85      0.00
   29    7    0     -0.25      0.00
   28    8    0      0.28      0.00
   27    9    0     -0.19      0.00
   29    9    0     -0.33      0.00
   26   10    0      0.00      0.00
   28   10    0      0.24      0.00
   27   11    0     -0.42      0.00
   26   12    0      0.04      0.00
   25   13    0     -0.22      0.00
   24   14    0      0.18      0.00
   23   15    0     -0.46      0.00
   20   16    0     -0.03      0.00
   22   16    0      0.11      0.00
   19   17    0      0.04      0.00
   21   17    0      0.03      0.00
   18   18    0      0.10      0.00
   20   18    0     -0.15      0.00
   15   19    0     -0.26      0.00
   17   19    0     -0.13      0.00
   19   19    0      0.14      0.00
   12   20    0      1.02      0.00
   14   20    0      0.78      0.00
   16   20    0      0.32      0.00
    9   21    0     -0.49      0.00
   11   21    0     -0.56      0.00
   13   21    0     -0.26      0.00
   -2    0    1    -57.40      0.00
    0    0    1    -55.26      0.00
    2    0    1     -5.09      0.00
   -1    1    1     66.95      0.00
    1    1    1     33.10      0.00
    0    2    1    -51.54      0.00
  -29    3    1      0.07      0.00
   29    3    1      0.71      0.00
  -29    5    1      0.23      0.00
   29    5    1      0.73      0.00
  -28    6    1     -0.11      0.00
   28    6    1     -0.97      0.00
  -29    7    1     -0.19      0.00
   29    7    1      0.26      0.00
  -28    8    1     -0.08      0.00
   28    8    1     -0.57      0.00
  -29    9    1      0.15      0.00
  -27    9    1     -0.34      0.00
   27    9    1      0.35      0.00
   29    9    1      0.25      0.00
  -28   10    1     -0.22      0.00
  -26   10    1      0.21      0.00
   26   10    1     -0.43      0.00
   28   10    1     -0.31      0.00
  -27   11    1      0.10      0.00
   27   11    1      0.43      0.00
  -26   12    1     -0.03      0.00
   26   12    1     -0.23      0.00
  -25   13    1      0.10      0.00
   25   13    1      0.16      0.00
  -24   14    1     -0.29      0.00
   24   14    1     -0.16      0.00
  -23   15    1      0.22      0.00
   23   15    1      0.42      0.00
  -22   16    1     -0.08      0.00
  -20   16    1     -0.06      0.00
   20   16    1     -0.31      0.00
   22   16    1     -0.36      0.00
  -21   17    1     -0.03      0.00
  -19   17    1      0.21      0.00
   19   17    1      0.06      0.00
   21   17    1      0.12      0.00
  -20   18    1     -0.02      0.00
  -18   18    1     -0.18      0.00
   18   18    1     -0.03      0.00
   20   18    1      0.10      0.00
  -19   19    1      0.07      0.00
  -17   19    1      0.56      0.00
  -15   19    1      1.15      0.00
   15   19    1     -0.06      0.00
   17   19    1      0.09      0.00
   19   19    1     -0.21      0.00
  -16   20    1     -0.43      0.00
  -14   20    1     -0.83      0.00
  -12   20    1     -0.70      0.00
   12   20    1     -0.54      0.00
   14   20    1     -0.15      0.00
   16   20    1      0.02      0.00
  -13   21    1      0.63      0.00
  -11   21    1      1.01      0.00
   -9   21    1      1.27      0.00
    9   21    1      0.73      0.00
   11   21    1      0.76      0.00
   13   21    1      0.26      0.00
   -2    0    2     49.20      0.00
    0    0    2     19.19      0.00
    2    0    2    -18.35      0.00
   -1    1    2    -36.93      0.00
    1    1    2      6.40      0.00
  -29    3    2      0.44      0.00
   29    3    2     -0.16      0.00
  -29    5    2     -0.03      0.00
   29    5    2     -0.38      0.00
  -28    6    2     -0.44      0.00
   28    6    2      0.65      0.00
  -29    7    2      0.22      0.00
   29    7    2     -0.17      0.00
  -28    8    2     -0.33      0.00
   28    8    2      0.40      0.00
  -29    9    2     -0.20      0.00
  -27    9    2      0.43      0.00
   27    9    2     -0.48      0.00
   29    9    2     -0.23      0.00
  -28   10    2     -0.08      0.00
  -26   10    2     -0.47      0.00
   26   10    2      0.51      0.00
   28   10    2      0.17      0.00
  -27   11    2     -0.07      0.00
   27   11    2     -0.42      0.00
  -26   12    2     -0.12      0.00
   26   12    2      0.20      0.00
  -25   13    2     -0.29      0.00
   25   13    2     -0.24      0.00
  -24   14    2      0.17      0.00
   24   14    2     -0.05      0.00
  -23   15    2     -0.32      0.00
  -21   15    2     -0.28      0.00
   21   15    2     -0.74      0.00
   23   15    2     -0.32      0.00
  -22   16    2      0.13      0.00
  -20   16    2      0.29      0.00
   20   16    2      0.73      0.00
   22   16    2      0.25      0.00
  -21   17    2     -0.21      0.00
  -19   17    2     -0.35      0.00
   19   17    2     -0.44      0.00
   21   17    2     -0.36      0.00
  -20   18    2      0.23      0.00
  -18   18    2      0.54      0.00
   18   18    2      0.24      0.00
   20   18    2      0.00      0.00
  -17   19    2     -0.68      0.00
  -15   19    2     -1.21      0.00
   15   19    2      0.28      0.00
   17   19    2     -0.15      0.00
  -16   20    2      1.02      0.00
  -14   20    2      1.23      0.00
  -12   20    2      1.00      0.00
   12   20    2      0.32      0.00
   14   20    2     -0.09      0.00
   16   20    2     -0.05      0.00
  -13   21    2     -0.18      0.00
  -11   21    2     -0.69      0.00
   -9   21    2     -1.29      0.00
    9   21    2     -0.65      0.00
   11   21    2     -0.46      0.00
   13   21    2      0.12      0.00
    4    0    3     -9.85      0.00
  -29    1    3     -0.46      0.00
   29    1    3     -0.45      0.00
  -29    3    3     -0.53      0.00
   29    3    3     -0.42      0.00
  -29    5    3     -0.05      0.00
   29    5    3     -0.14      0.00
  -28    6    3      0.28      0.00
   28    6    3     -0.26      0.00
  -29    7    3     -0.34      0.00
   29    7    3     -0.11      0.00
  -28    8    3      0.20      0.00
   28    8    3     -0.21      0.00
  -29    9    3      0.01      0.00
  -27    9    3     -0.52      0.00
   27    9    3      0.30      0.00
   29    9    3      0.14      0.00
  -28   10    3     -0.04      0.00
  -26   10    3      0.01      0.00
   26   10    3     -0.55      0.00
   28   10    3     -0.13      0.00
  -27   11    3     -0.08      0.00
  -25   11    3      0.03      0.00
   25   11    3      0.21      0.00
   27   11    3      0.29      0.00
  -26   12    3     -0.25      0.00
  -24   12    3     -0.57      0.00
   24   12    3     -0.25      0.00
   26   12    3     -0.22      0.00
  -25   13    3      0.20      0.00
   25   13    3      0.23      0.00
  -24   14    3     -0.47      0.00
  -22   14    3     -0.54      0.00
   22   14    3     -0.36      0.00
   24   14    3      0.04      0.00
  -23   15    3      0.27      0.00
  -21   15    3      0.32      0.00
   21   15    3      0.42      0.00
   23   15    3      0.05      0.00
  -22   16    3     -0.42      0.00
  -20   16    3     -0.33      0.00
   20   16    3     -0.78      0.00
   22   16    3     -0.07      0.00
  -21   17    3      0.25      0.00
  -19   17    3      0.46      0.00
   19   17    3      0.59      0.00
   21   17    3      0.17      0.00
  -20   18    3     -0.14      0.00
  -18   18    3     -0.58      0.00
  -16   18    3     -1.61      0.00
   16   18    3     -0.09      0.00
   18   18    3     -0.58      0.00
   20   18    3     -0.15      0.00
  -17   19    3      1.20      0.00
  -15   19    3      1.36      0.00
   15   19    3     -0.16      0.00
   17   19    3      0.26      0.00
  -16   20    3     -0.84      0.00
  -14   20    3     -0.45      0.00
  -12   20    3     -0.30      0.00
   12   20    3     -0.01      0.00
   14   20    3      0.10      0.00
   16   20    3     -0.11      0.00
  -13   21    3      0.33      0.00
  -11   21    3      1.15      0.00
   -9   21    3      1.88      0.00
   -7   21    3      2.60      0.00
    7   21    3      1.47      0.00
    9   21    3      0.46      0.00
   11   21    3      0.06      0.00
   13   21    3     -0.38      0.00
  -29    1    4     -0.07      0.00
   29    1    4      0.41      0.00
  -29    3    4      0.11      0.00
   29    3    4      0.42      0.00
  -29    5    4     -0.22      0.00
   29    5    4      0.29      0.00
  -28    6    4     -0.13      0.00
   28    6    4     -0.08      0.00
  -29    7    4      0.13      0.00
   29    7    4      0.23      0.00
  -28    8    4     -0.25      0.00
   28    8    4     -0.03      0.00
  -27    9    4     -0.03      0.00
   27    9    4     -0.14      0.00
  -28   10    4     -0.04      0.00
  -26   10    4      0.13      0.00
   26   10    4      0.36      0.00
   28   10    4      0.07      0.00
  -27   11    4     -0.34      0.00
  -25   11    4     -0.69      0.00
   25   11    4     -0.26      0.00
   27   11    4     -0.24      0.00
  -26   12    4      0.20      0.00
  -24   12    4      0.45      0.00
   24   12    4      0.28      0.00
   26   12    4      0.11      0.00
  -25   13    4     -0.56      0.00
  -23   13    4     -0.74      0.00
   23   13    4      0.02      0.00
   25   13    4     -0.30      0.00
  -24   14    4      0.32      0.00
  -22   14    4      0.18      0.00
   22   14    4      0.07      0.00
   24   14    4     -0.03      0.00
  -23   15    4     -0.52      0.00
  -21   15    4     -0.27      0.00
   21   15    4      0.04      0.00
   23   15    4     -0.11      0.00
  -22   16    4      0.25      0.00
  -20   16    4      0.03      0.00
   20   16    4      0.27      0.00
   22   16    4     -0.19      0.00
  -21   17    4     -0.12      0.00
  -19   17    4     -0.41      0.00
   19   17    4     -0.41      0.00
   21   17    4     -0.03      0.00
  -20   18    4      0.06      0.00
  -18   18    4      0.88      0.00
  -16   18    4      1.34      0.00
   16   18    4      0.28      0.00
   18   18    4      0.47      0.00
   20   18    4     -0.13      0.00
  -17   19    4     -0.97      0.00
  -15   19    4     -0.24      0.00
   15   19    4     -0.24      0.00
   17   19    4     -0.46      0.00
  -16   20    4      0.87      0.00
  -14   20    4      0.17      0.00
  -12   20    4      0.50      0.00
   12   20    4     -0.32      0.00
   14   20    4     -0.06      0.00
   16   20    4      0.11      0.00
  -13   21    4      0.30      0.00
  -11   21    4     -0.73      0.00
   -9   21    4     -1.20      0.00
   -7   21    4     -1.33      0.00
    7   21    4     -1.34      0.00
    9   21    4     -0.07      0.00
   11   21    4      0.20      0.00
   13   21    4      0.21      0.00
  -29    1    5      0.43      0.00
   29    1    5     -0.01      0.00
  -29    3    5      0.06      0.00
   29    3    5     -0.05      0.00
  -28    4    5     -0.21      0.00
   28    4    5      0.44      0.00
  -29    5    5      0.12      0.00
   29    5    5     -0.08      0.00
  -28    6    5     -0.08      0.00
   28    6    5      0.25      0.00
  -29    7    5     -0.31      0.00
  -27    7    5      0.54      0.00
   27    7    5     -0.04      0.00
   29    7    5     -0.08      0.00
  -28    8    5     -0.04      0.00
   28    8    5      0.17      0.00
  -27    9    5      0.06      0.00
   27    9    5     -0.07      0.00
  -28   10    5     -0.33      0.00
  -26   10    5     -0.64      0.00
   26   10    5     -0.20      0.00
   28   10    5      0.02      0.00
  -27   11    5      0.17      0.00
  -25   11    5      0.42      0.00
   25   11    5      0.07      0.00
   27   11    5      0.10      0.00
  -26   12    5     -0.58      0.00
  -24   12    5     -0.68      0.00
   24   12    5     -0.34      0.00
   26   12    5     -0.05      0.00
  -25   13    5      0.21      0.00
  -23   13    5      0.09      0.00
   23   13    5      0.06      0.00
   25   13    5      0.15      0.00
  -24   14    5     -0.59      0.00
  -22   14    5     -0.02      0.00
   22   14    5     -0.21      0.00
   24   14    5     -0.05      0.00
  -23   15    5      0.10      0.00
  -21   15    5     -0.36      0.00
   21   15    5     -0.22      0.00
   23   15    5      0.15      0.00
  -22   16    5     -0.15      0.00
  -20   16    5      0.04      0.00
   20   16    5      0.07      0.00
   22   16    5      0.05      0.00
  -21   17    5     -0.19      0.00
  -19   17    5      0.45      0.00
   17   17    5      0.29      0.00
   19   17    5     -0.14      0.00
   21   17    5     -0.12      0.00
  -18   18    5     -0.68      0.00
  -16   18    5     -0.08      0.00
   16   18    5     -0.34      0.00
   18   18    5     -0.25      0.00
  -17   19    5      0.76      0.00
  -15   19    5     -0.39      0.00
  -13   19    5     -0.18      0.00
   13   19    5      0.39      0.00
   15   19    5      0.21      0.00
   17   19    5      0.17      0.00
  -14   20    5      0.63      0.00
  -12   20    5     -0.16      0.00
  -10   20    5     -1.06      0.00
   10   20    5      0.57      0.00
   12   20    5     -0.10      0.00
   14   20    5     -0.38      0.00
  -13   21    5     -0.23      0.00
  -11   21    5      0.84      0.00
   -9   21    5      0.79      0.00
   -7   21    5      0.52      0.00
   -5   21    5      0.33      0.00
    5   21    5      1.29      0.00
    7   21    5      0.01      0.00
    9   21    5     -0.84      0.00
   11   21    5     -0.59      0.00
   13   21    5     -0.14      0.00
  -29    1    6      0.25      0.00
   29    1    6      0.17      0.00
  -28    2    6      0.03      0.00
   28    2    6     -0.13      0.00
  -29    3    6      0.46      0.00
   29    3    6      0.12      0.00
  -28    4    6      0.16      0.00
   28    4    6     -0.30      0.00
  -29    5    6      0.19      0.00
   29    5    6      0.11      0.00
  -28    6    6     -0.02      0.00
   28    6    6     -0.17      0.00
  -29    7    6      0.32      0.00
  -27    7    6     -0.66      0.00
   27    7    6      0.29      0.00
   29    7    6      0.05      0.00
  -28    8    6     -0.16      0.00
  -26    8    6      0.65      0.00
   26    8    6     -0.19      0.00
   28    8    6     -0.17      0.00
  -27    9    6     -0.36      0.00
   27    9    6      0.18      0.00
  -26   10    6      0.12      0.00
   26   10    6     -0.08      0.00
  -27   11    6     -0.38      0.00
  -25   11    6     -0.53      0.00
   25   11    6      0.06      0.00
   27   11    6     -0.02      0.00
  -26   12    6      0.11      0.00
  -24   12    6     -0.23      0.00
   24   12    6      0.06      0.00
   26   12    6     -0.14      0.00
  -25   13    6     -0.41      0.00
  -23   13    6      0.07      0.00
   23   13    6     -0.10      0.00
   25   13    6     -0.05      0.00
  -24   14    6      0.03      0.00
  -22   14    6     -0.85      0.00
   22   14    6      0.32      0.00
   24   14    6     -0.17      0.00
  -23   15    6     -0.07      0.00
  -21   15    6      0.35      0.00
   21   15    6     -0.06      0.00
   23   15    6     -0.18      0.00
  -22   16    6     -0.32      0.00
  -20   16    6     -0.20      0.00
   20   16    6     -0.04      0.00
   22   16    6      0.02      0.00
  -19   17    6     -0.41      0.00
  -17   17    6      0.13      0.00
   17   17    6      0.17      0.00
   19   17    6      0.29      0.00
  -18   18    6      0.36      0.00
  -16   18    6     -0.66      0.00
   16   18    6     -0.13      0.00
   18   18    6     -0.15      0.00
  -17   19    6      0.01      0.00
  -15   19    6      1.01      0.00
  -13   19    6      0.16      0.00
   13   19    6     -0.83      0.00
   15   19    6     -0.24      0.00
   17   19    6     -0.01      0.00
  -14   20    6     -0.52      0.00
  -12   20    6      0.45      0.00
  -10   20    6      0.71      0.00
   10   20    6     -0.76      0.00
   12   20    6      0.19      0.00
   14   20    6      0.25      0.00
  -11   21    6     -0.55      0.00
   -9   21    6     -0.12      0.00
   -7   21    6      0.01      0.00
   -5   21    6     -0.02      0.00
   -3   21    6      0.20      0.00
   -1   21    6     -0.03      0.00
    1   21    6     -1.13      0.00
    3   21    6     -1.45      0.00
    5   21    6     -0.60      0.00
    7   21    6      0.50      0.00
    9   21    6      0.60      0.00
   11   21    6      0.01      0.00
  -28    0    7      0.31      0.00
   28    0    7      0.53      0.00
  -29    1    7     -0.46      0.00
   29    1    7     -0.04      0.00
  -28    2    7      0.63      0.00
   28    2    7      0.31      0.00
  -29    3    7     -0.57      0.00
   29    3    7      0.02      0.00
  -28    4    7      0.12      0.00
   28    4    7      0.38      0.00
  -29    5    7     -0.34      0.00
  -27    5    7      0.17      0.00
   27    5    7     -0.29      0.00
   29    5    7     -0.01      0.00
  -28    6    7      0.02      0.00
   28    6    7      0.14      0.00
  -29    7    7     -0.48      0.00
  -27    7    7      0.20      0.00
   27    7    7     -0.29      0.00
  -28    8    7      0.02      0.00
  -26    8    7     -0.31      0.00
   26    8    7      0.27      0.00
   28    8    7      0.10      0.00
  -27    9    7     -0.14      0.00
  -25    9    7     -0.43      0.00
   25    9    7     -0.25      0.00
   27    9    7     -0.20      0.00
  -26   10    7     -0.12      0.00
   26   10    7      0.08      0.00
  -25   11    7     -0.38      0.00
   25   11    7     -0.31      0.00
  -24   12    7      0.37      0.00
   24   12    7      0.06      0.00
  -25   13    7     -0.22      0.00
  -23   13    7     -1.01      0.00
   23   13    7     -0.25      0.00
  -24   14    7     -0.09      0.00
  -22   14    7      0.75      0.00
   22   14    7     -0.24      0.00
  -21   15    7     -0.63      0.00
   21   15    7      0.15      0.00
  -20   16    7      0.01      0.00
  -18   16    7      0.06      0.00
   18   16    7      0.61      0.00
   20   16    7     -0.23      0.00
  -19   17    7      0.10      0.00
  -17   17    7     -0.72      0.00
   17   17    7     -0.41      0.00
   19   17    7     -0.13      0.00
  -18   18    7      0.13      0.00
  -16   18    7      0.96      0.00
  -14   18    7      0.34      0.00
   14   18    7     -0.53      0.00
   16   18    7      0.37      0.00
   18   18    7      0.14      0.00
  -15   19    7     -0.73      0.00
  -13   19    7      0.32      0.00
   11   19    7      0.47      0.00
   13   19    7      0.53      0.00
   15   19    7     -0.15      0.00
  -14   20    7      0.33      0.00
  -12   20    7     -0.42      0.00
  -10   20    7     -0.27      0.00
   -8   20    7      0.18      0.00
    8   20    7      0.45      0.00
   10   20    7     -0.27      0.00
   12   20    7     -0.76      0.00
   14   20    7     -0.27      0.00
  -11   21    7      0.41      0.00
   -9   21    7     -0.25      0.00
   -7   21    7     -0.19      0.00
   -5   21    7     -0.30      0.00
   -3   21    7     -0.36      0.00
   -1   21    7      0.09      0.00
    1   21    7      0.51      0.00
    3   21    7     -0.08      0.00
    5   21    7     -0.76      0.00
    7   21    7     -1.13      0.00
    9   21    7     -0.50      0.00
   11   21    7      0.18      0.00
  -28    0    8      0.31      0.00
   28    0    8     -0.03      0.00
  -29    1    8      0.60      0.00
   29    1    8      0.09      0.00
  -28    2    8     -0.13      0.00
   28    2    8      0.14      0.00
  -29    3    8      0.52      0.00
  -27    3    8      0.07      0.00
   27    3    8      0.26      0.00
   29    3    8      0.03      0.00
  -28    4    8      0.17      0.00
   28    4    8     -0.03      0.00
  -29    5    8      0.19      0.00
  -27    5    8      0.08      0.00
   27    5    8      0.07      0.00
   29    5    8      0.09      0.00
  -28    6    8     -0.04      0.00
   26    6    8     -0.21      0.00
   28    6    8      0.08      0.00
  -27    7    8     -0.06      0.00
   27    7    8      0.05      0.00
  -28    8    8     -0.28      0.00
  -26    8    8     -0.47      0.00
   26    8    8     -0.20      0.00
   28    8    8      0.01      0.00
  -27    9    8     -0.03      0.00
  -25    9    8      0.70      0.00
   25    9    8      0.12      0.00
   27    9    8     -0.05      0.00
  -26   10    8     -0.56      0.00
  -24   10    8     -1.46      0.00
   24   10    8     -0.36      0.00
   26   10    8     -0.09      0.00
  -25   11    8      0.29      0.00
  -23   11    8      1.36      0.00
   23   11    8      0.06      0.00
   25   11    8      0.11      0.00
  -24   12    8     -1.17      0.00
  -22   12    8     -1.27      0.00
   22   12    8     -0.33      0.00
   24   12    8     -0.25      0.00
  -23   13    8      0.76      0.00
  -21   13    8      0.35      0.00
   21   13    8     -0.06      0.00
   23   13    8      0.33      0.00
  -22   14    8     -1.01      0.00
  -20   14    8     -0.02      0.00
   20   14    8     -0.06      0.00
   22   14    8     -0.17      0.00
  -21   15    8      0.21      0.00
  -19   15    8     -0.07      0.00
   19   15    8     -0.09      0.00
   21   15    8      0.10      0.00
  -20   16    8     -0.18      0.00
  -18   16    8     -0.41      0.00
   18   16    8     -0.19      0.00
   20   16    8      0.23      0.00
  -19   17    8      0.04      0.00
  -17   17    8      0.69      0.00
   15   17    8      0.32      0.00
   17   17    8      0.24      0.00
   19   17    8      0.01      0.00
  -16   18    8     -0.60      0.00
  -14   18    8      0.23      0.00
   14   18    8      0.03      0.00
   16   18    8     -0.36      0.00
  -15   19    8      0.30      0.00
  -13   19    8     -0.43      0.00
  -11   19    8     -0.38      0.00
   11   19    8     -1.05      0.00
   13   19    8     -0.35      0.00
   15   19    8      0.25      0.00
  -12   20    8      0.32      0.00
  -10   20    8     -0.03      0.00
   -8   20    8     -0.40      0.00
   -6   20    8     -0.37      0.00
    6   20    8     -0.92      0.00
    8   20    8     -0.11      0.00
   10   20    8      0.54      0.00
   12   20    8      0.50      0.00
   -9   21    8      0.26      0.00
   -7   21    8      0.03      0.00
   -5   21    8      0.22      0.00
   -3   21    8     -0.10      0.00
   -1   21    8     -0.44      0.00
    1   21    8     -0.34      0.00
    3   21    8      0.28      0.00
    5   21    8      0.28      0.00
    7   21    8      0.20      0.00
    9   21    8     -0.52      0.00
  -28    0    9     -0.50      0.00
   28    0    9     -0.08      0.00
  -29    1    9      0.23      0.00
  -27    1    9      0.38      0.00
   27    1    9      0.39      0.00
   29    1    9      0.34      0.00
  -28    2    9     -0.03      0.00
   28    2    9     -0.23      0.00
  -29    3    9      0.14      0.00
  -27    3    9      0.18      0.00
   27    3    9      0.24      0.00
   29    3    9      0.30      0.00
  -28    4    9     -0.29      0.00
   28    4    9     -0.07      0.00
  -27    5    9     -0.08      0.00
   27    5    9      0.31      0.00
  -28    6    9     -0.12      0.00
  -26    6    9      0.55      0.00
   26    6    9     -0.18      0.00
   28    6    9     -0.19      0.00
  -27    7    9     -0.24      0.00
   25    7    9     -0.01      0.00
   27    7    9      0.15      0.00
  -26    8    9      0.34      0.00
   26    8    9     -0.23      0.00
  -27    9    9     -0.25      0.00
  -25    9    9     -1.14      0.00
   25    9    9     -0.09      0.00
  -26   10    9      0.25      0.00
  -24   10    9      0.92      0.00
   24   10    9      0.04      0.00
   26   10    9     -0.27      0.00
  -25   11    9     -0.77      0.00
  -23   11    9     -1.24      0.00
   23   11    9     -0.22      0.00
   25   11    9     -0.08      0.00
  -24   12    9      0.74      0.00
  -22   12    9      0.19      0.00
   22   12    9      0.23      0.00
   24   12    9     -0.07      0.00
  -23   13    9     -0.85      0.00
  -21   13    9     -0.02      0.00
   21   13    9     -0.27      0.00
   23   13    9     -0.35      0.00
  -22   14    9      0.33      0.00
  -20   14    9     -0.45      0.00
   20   14    9      0.31      0.00
   22   14    9      0.24      0.00
  -21   15    9     -0.17      0.00
  -19   15    9      0.03      0.00
   19   15    9      0.04      0.00
   21   15    9     -0.39      0.00
  -20   16    9     -0.08      0.00
  -18   16    9      0.19      0.00
  -16   16    9      0.29      0.00
   16   16    9      0.00      0.00
   18   16    9      0.12      0.00
   20   16    9      0.17      0.00
  -17   17    9     -0.35      0.00
  -15   17    9      0.13      0.00
   15   17    9     -0.25      0.00
   17   17    9      0.12      0.00
  -16   18    9      0.16      0.00
  -14   18    9     -0.35      0.00
  -12   18    9     -0.40      0.00
   12   18    9     -0.23      0.00
   14   18    9      0.22      0.00
   16   18    9      0.24      0.00
  -15   19    9     -0.03      0.00
  -13   19    9      0.32      0.00
  -11   19    9      0.07      0.00
   -9   19    9     -0.55      0.00
    9   19    9      0.83      0.00
   11   19    9      0.66      0.00
   13   19    9     -0.10      0.00
  -12   20    9     -0.25      0.00
  -10   20    9      0.11      0.00
   -8   20    9      0.42      0.00
   -6   20    9      0.29      0.00
   -4   20    9      0.02      0.00
   -2   20    9     -0.45      0.00
    0   20    9     -0.17      0.00
    2   20    9      0.36      0.00
    4   20    9     -0.06      0.00
    6   20    9     -0.34      0.00
    8   20    9     -0.84      0.00
   10   20    9     -0.87      0.00
   12   20    9     -0.25      0.00
   -9   21    9     -0.50      0.00
   -7   21    9     -0.29      0.00
   -5   21    9     -0.54      0.00
   -3   21    9     -0.02      0.00
   -1   21    9     -0.14      0.00
    1   21    9     -0.37      0.00
    3   21    9     -0.59      0.00
    5   21    9     -0.09      0.00
    7   21    9      0.08      0.00
  -28    0   10      0.84      0.00
   28    0   10      0.21      0.00
  -29    1   10     -0.31      0.00
  -27    1   10      0.06      0.00
   27    1   10     -0.15      0.00
  -28    2   10      0.29      0.00
  -26    2   10     -0.22      0.00
   26    2   10      0.30      0.00
   28    2   10      0.32      0.00
  -27    3   10      0.15      0.00
   27    3   10     -0.08      0.00
  -28    4   10      0.36      0.00
  -26    4   10     -0.69      0.00
   26    4   10      0.32      0.00
   28    4   10      0.08      0.00
  -27    5   10      0.09      0.00
   27    5   10     -0.28      0.00
  -26    6   10     -0.49      0.00
   26    6   10      0.26      0.00
  -27    7   10      0.07      0.00
  -25    7   10      0.55      0.00
   25    7   10     -0.36      0.00
   27    7   10     -0.21      0.00
  -26    8   10     -0.45      0.00
  -24    8   10     -0.66      0.00
   24    8   10     -0.09      0.00
   26    8   10      0.24      0.00
  -25    9   10      0.58      0.00
   25    9   10     -0.32      0.00
  -24   10   10     -0.63      0.00
   24   10   10     -0.10      0.00
  -25   11   10      0.29      0.00
  -23   11   10      0.10      0.00
   23   11   10     -0.12      0.00
  -24   12   10     -0.68      0.00
  -22   12   10      0.36      0.00
   22   12   10     -0.23      0.00
   24   12   10      0.06      0.00
  -23   13   10      0.07      0.00
  -21   13   10     -0.68      0.00
   21   13   10      0.15      0.00
   23   13   10     -0.01      0.00
  -22   14   10     -0.07      0.00
  -20   14   10      0.54      0.00
   20   14   10     -0.48      0.00
   22   14   10     -0.07      0.00
  -19   15   10     -0.28      0.00
  -17   15   10      0.29      0.00
   17   15   10     -0.01      0.00
   19   15   10      0.36      0.00
  -18   16   10     -0.02      0.00
  -16   16   10      0.03      0.00
   16   16   10      0.30      0.00
   18   16   10     -0.16      0.00
  -17   17   10      0.07      0.00
  -15   17   10     -0.18      0.00
  -13   17   10     -0.46      0.00
   13   17   10      0.37      0.00
   15   17   10      0.23      0.00
   17   17   10      0.08      0.00
  -16   18   10     -0.02      0.00
  -14   18   10      0.28      0.00
  -12   18   10      0.17      0.00
   10   18   10      0.68      0.00
   12   18   10     -0.23      0.00
   14   18   10     -0.12      0.00
   16   18   10      0.05      0.00
  -13   19   10     -0.26      0.00
  -11   19   10      0.12      0.00
   -9   19   10      0.66      0.00
   -7   19   10      0.48      0.00
    7   19   10     -1.17      0.00
    9   19   10     -0.75      0.00
   11   19   10     -0.22      0.00
   13   19   10      0.36      0.00
  -10   20   10     -0.34      0.00
   -8   20   10     -0.60      0.00
   -6   20   10     -0.27      0.00
   -4   20   10      0.04      0.00
   -2   20   10      0.11      0.00
    0   20   10     -0.39      0.00
    2   20   10     -0.28      0.00
    4   20   10      0.31      0.00
    6   20   10      0.51      0.00
    8   20   10      0.65      0.00
   10   20   10      0.39      0.00
   -7   21   10      0.14      0.00
   -5   21   10      0.24      0.00
   -3   21   10     -0.35      0.00
   -1   21   10      0.09      0.00
    1   21   10     -0.01      0.00
    3   21   10     -0.08      0.00
    5   21   10     -0.62      0.00
  -28    0   11     -0.24      0.00
  -26    0   11      1.08      0.00
   26    0   11      0.29      0.00
   28    0   11      0.28      0.00
  -27    1   11     -0.26      0.00
   27    1   11     -0.12      0.00
  -28    2   11      0.18      0.00
  -26    2   11      0.52      0.00
   26    2   11      0.28      0.00
   28    2   11      0.13      0.00
  -27    3   11     -0.32      0.00
   27    3   11     -0.23      0.00
  -26    4   11      0.71      0.00
   26    4   11      0.07      0.00
  -27    5   11     -0.17      0.00
  -25    5   11     -0.52      0.00
   25    5   11     -0.09      0.00
   27    5   11     -0.07      0.00
  -26    6   11      0.31      0.00
   26    6   11     -0.10      0.00
  -25    7   11     -0.26      0.00
   25    7   11      0.19      0.00
  -26    8   11      0.18      0.00
  -24    8   11     -0.14      0.00
   24    8   11     -0.21      0.00
   26    8   11     -0.23      0.00
  -25    9   11     -0.48      0.00
  -23    9   11      0.83      0.00
   23    9   11     -0.19      0.00
   25    9   11      0.13      0.00
  -24   10   11     -0.13      0.00
  -22   10   11     -1.13      0.00
   22   10   11     -0.07      0.00
   24   10   11     -0.23      0.00
  -23   11   11      0.33      0.00
  -21   11   11      1.06      0.00
   21   11   11     -0.18      0.00
   23   11   11     -0.02      0.00
  -22   12   11     -0.79      0.00
  -20   12   11     -0.39      0.00
   20   12   11      0.09      0.00
   22   12   11     -0.10      0.00
  -21   13   11      0.64      0.00
  -19   13   11      0.02      0.00
   19   13   11     -0.45      0.00
   21   13   11      0.03      0.00
  -20   14   11     -0.48      0.00
  -18   14   11      0.36      0.00
   18   14   11      0.35      0.00
   20   14   11      0.30      0.00
  -19   15   11      0.19      0.00
  -17   15   11     -0.20      0.00
   17   15   11     -0.12      0.00
   19   15   11     -0.28      0.00
  -18   16   11      0.07      0.00
  -16   16   11      0.01      0.00
  -14   16   11     -0.37      0.00
   14   16   11      0.30      0.00
   16   16   11      0.05      0.00
   18   16   11      0.56      0.00
  -15   17   11      0.24      0.00
  -13   17   11      0.34      0.00
   13   17   11     -0.11      0.00
   15   17   11      0.06      0.00
  -14   18   11     -0.25      0.00
  -12   18   11      0.06      0.00
  -10   18   11      0.74      0.00
    8   18   11     -0.55      0.00
   10   18   11      0.06      0.00
   12   18   11      0.47      0.00
   14   18   11      0.22      0.00
  -11   19   11     -0.28      0.00
   -9   19   11     -0.52      0.00
   -7   19   11     -0.07      0.00
   -5   19   11      0.47      0.00
   -3   19   11      0.13      0.00
   -1   19   11     -0.15      0.00
    1   19   11     -0.26      0.00
    3   19   11      0.80      0.00
    5   19   11      0.55      0.00
    7   19   11      0.76      0.00
    9   19   11      0.05      0.00
   11   19   11     -0.10      0.00
   -8   20   11      0.38      0.00
   -6   20   11     -0.15      0.00
   -4   20   11     -0.23      0.00
   -2   20   11     -0.10      0.00
    0   20   11      0.16      0.00
    2   20   11     -0.36      0.00
    4   20   11     -0.67      0.00
    6   20   11     -0.62      0.00
    8   20   11     -0.34      0.00
   -3   21   11      0.31      0.00
   -1   21   11     -0.29      0.00
    1   21   11      0.11      0.00
    3   21   11      0.15      0.00
  -26    0   12     -0.78      0.00
   26    0   12     -0.47      0.00
  -27    1   12      0.58      0.00
  -25    1   12      0.36      0.00
   25    1   12      0.70      0.00
   27    1   12      0.46      0.00
  -26    2   12     -0.35      0.00
   26    2   12     -0.49      0.00
  -27    3   12      0.55      0.00
  -25    3   12      0.23      0.00
   25    3   12      0.39      0.00
   27    3   12      0.53      0.00
  -26    4   12     -0.60      0.00
   24    4   12     -0.36      0.00
   26    4   12     -0.41      0.00
  -25    5   12      0.42      0.00
   25    5   12      0.31      0.00
  -26    6   12     -0.36      0.00
  -24    6   12      0.13      0.00
   24    6   12     -0.18      0.00
   26    6   12     -0.35      0.00
  -25    7   12      0.06      0.00
  -23    7   12     -0.37      0.00
   23    7   12      0.14      0.00
   25    7   12     -0.11      0.00
  -24    8   12      0.26      0.00
   24    8   12     -0.01      0.00
  -23    9   12     -0.71      0.00
   23    9   12     -0.12      0.00
  -24   10   12      0.23      0.00
  -22   10   12      0.55      0.00
   22   10   12     -0.20      0.00
   24   10   12     -0.01      0.00
  -23   11   12     -0.38      0.00
  -21   11   12     -0.12      0.00
   21   11   12      0.00      0.00
   23   11   12     -0.15      0.00
  -22   12   12      0.43      0.00
  -20   12   12     -0.17      0.00
   20   12   12     -0.11      0.00
   22   12   12     -0.04      0.00
  -21   13   12     -0.21      0.00
  -19   13   12      0.55      0.00
   19   13   12      0.32      0.00
   21   13   12     -0.20      0.00
  -20   14   12      0.08      0.00
  -18   14   12     -0.35      0.00
  -16   14   12      0.37      0.00
   16   14   12     -0.11      0.00
   18   14   12     -0.30      0.00
   20   14   12      0.06      0.00
  -19   15   12      0.15      0.00
  -17   15   12      0.31      0.00
  -15   15   12     -0.42      0.00
   15   15   12      0.04      0.00
   17   15   12      0.53      0.00
  -16   16   12      0.20      0.00
  -14   16   12      0.42      0.00
   14   16   12      0.13      0.00
   16   16   12     -0.02      0.00
  -15   17   12     -0.26      0.00
  -13   17   12      0.01      0.00
  -11   17   12      0.66      0.00
   11   17   12      0.61      0.00
   13   17   12      0.08      0.00
   15   17   12      0.32      0.00
  -12   18   12     -0.11      0.00
  -10   18   12     -0.38      0.00
   -8   18   12      0.27      0.00
   -6   18   12      0.60      0.00
    6   18   12      0.46      0.00
    8   18   12     -0.14      0.00
   10   18   12     -0.34      0.00
   12   18   12     -0.05      0.00
   -9   19   12      0.22      0.00
   -7   19   12     -0.17      0.00
   -5   19   12     -0.35      0.00
   -3   19   12      0.24      0.00
   -1   19   12      0.07      0.00
    1   19   12     -0.09      0.00
    3   19   12     -0.93      0.00
    5   19   12     -0.33      0.00
    7   19   12     -0.35      0.00
    9   19   12      0.46      0.00
   -6   20   12      0.37      0.00
   -4   20   12      0.09      0.00
   -2   20   12     -0.04      0.00
    0   20   12     -0.10      0.00
    2   20   12      0.43      0.00
    4   20   12      0.43      0.00
    6   20   12      0.31      0.00
  -26    0   13      0.52      0.00
  -24    0   13     -0.40      0.00
   24    0   13      0.53      0.00
   26    0   13      0.33      0.00
  -25    1   13      0.00      0.00
   25    1   13     -0.40      0.00
  -26    2   13      0.23      0.00
  -24    2   13     -0.06      0.00
   24    2   13      0.51      0.00
   26    2   13      0.37      0.00
  -25    3   13      0.03      0.00
   25    3   13     -0.29      0.00
  -26    4   13      0.51      0.00
  -24    4   13     -0.17      0.00
   24    4   13      0.29      0.00
   26    4   13      0.37      0.00
  -25    5   13     -0.29      0.00
  -23    5   13      0.33      0.00
   23    5   13     -0.11      0.00
   25    5   13     -0.47      0.00
  -24    6   13      0.03      0.00
   24    6   13      0.11      0.00
  -25    7   13      0.00      0.00
  -23    7   13     -0.05      0.00
   23    7   13     -0.19      0.00
   25    7   13     -0.25      0.00
  -24    8   13     -0.09      0.00
  -22    8   13      0.52      0.00
   22    8   13     -0.06      0.00
   24    8   13     -0.05      0.00
  -23    9   13      0.23      0.00
  -21    9   13     -0.84      0.00
   21    9   13     -0.30      0.00
   23    9   13     -0.03      0.00
  -22   10   13      0.31      0.00
  -20   10   13      1.11      0.00
   20   10   13      0.14      0.00
   22   10   13     -0.06      0.00
  -21   11   13     -0.34      0.00
  -19   11   13     -0.53      0.00
   19   11   13     -0.34      0.00
   21   11   13     -0.14      0.00
  -20   12   13      0.59      0.00
  -18   12   13      0.49      0.00
   18   12   13      0.35      0.00
   20   12   13      0.02      0.00
  -19   13   13     -0.37      0.00
  -17   13   13      0.33      0.00
   17   13   13     -0.28      0.00
   19   13   13     -0.10      0.00
  -18   14   13      0.32      0.00
  -16   14   13     -0.27      0.00
   16   14   13      0.43      0.00
   18   14   13      0.27      0.00
  -17   15   13      0.08      0.00
  -15   15   13      0.58      0.00
  -13   15   13     -0.25      0.00
   13   15   13      0.25      0.00
   15   15   13      0.03      0.00
   17   15   13     -0.19      0.00
  -16   16   13     -0.26      0.00
  -14   16   13     -0.03      0.00
  -12   16   13      0.49      0.00
   12   16   13     -0.09      0.00
   14   16   13      0.21      0.00
   16   16   13      0.40      0.00
  -13   17   13     -0.08      0.00
  -11   17   13     -0.14      0.00
   -9   17   13      0.35      0.00
   -7   17   13      0.38      0.00
    7   17   13     -0.57      0.00
    9   17   13     -0.33      0.00
   11   17   13     -0.01      0.00
   13   17   13      0.32      0.00
  -10   18   13      0.26      0.00
   -8   18   13     -0.20      0.00
   -6   18   13      0.08      0.00
   -4   18   13      0.40      0.00
   -2   18   13      0.40      0.00
    0   18   13     -0.13      0.00
    2   18   13     -0.68      0.00
    4   18   13     -0.41      0.00
    6   18   13      0.07      0.00
    8   18   13      0.48      0.00
   10   18   13      0.31      0.00
   -7   19   13      0.19      0.00
   -5   19   13      0.14      0.00
   -3   19   13     -0.36      0.00
   -1   19   13      0.12      0.00
    1   19   13      0.16      0.00
    3   19   13      0.75      0.00
    5   19   13     -0.01      0.00
    7   19   13      0.05      0.00
   -2   20   13      0.24      0.00
    0   20   13      0.14      0.00
    2   20   13     -0.36      0.00
  -26    0   14     -0.20      0.00
  -24    0   14      0.28      0.00
   24    0   14      0.07      0.00
  -25    1   14      0.00      0.00
  -23    1   14      0.03      0.00
   23    1   14      0.05      0.00
   25    1   14      0.04      0.00
  -24    2   14      0.10      0.00
   24    2   14     -0.06      0.00
  -25    3   14     -0.05      0.00
  -23    3   14      0.21      0.00
   23    3   14      0.18      0.00
   25    3   14      0.02      0.00
  -24    4   14      0.21      0.00
   24    4   14     -0.12      0.00
  -25    5   14      0.25      0.00
  -23    5   14      0.03      0.00
   23    5   14     -0.11      0.00
   25    5   14      0.30      0.00
  -24    6   14      0.02      0.00
  -22    6   14     -0.25      0.00
   22    6   14      0.06      0.00
   24    6   14     -0.22      0.00
  -23    7   14      0.46      0.00
  -21    7   14      0.45      0.00
   21    7   14     -0.33      0.00
   23    7   14      0.03      0.00
  -22    8   14     -0.46      0.00
   20    8   14     -0.13      0.00
   22    8   14      0.06      0.00
  -23    9   14      0.27      0.00
  -21    9   14      0.72      0.00
   21    9   14     -0.13      0.00
  -22   10   14     -0.31      0.00
  -20   10   14     -0.11      0.00
   20   10   14     -0.06      0.00
   22   10   14      0.00      0.00
  -21   11   14      0.38      0.00
  -19   11   14      0.09      0.00
   19   11   14      0.10      0.00
   21   11   14     -0.01      0.00
  -20   12   14     -0.01      0.00
  -18   12   14      0.30      0.00
   18   12   14     -0.10      0.00
   20   12   14     -0.05      0.00
  -19   13   14      0.12      0.00
  -17   13   14     -0.31      0.00
  -15   13   14      0.03      0.00
   15   13   14      0.44      0.00
   17   13   14      0.19      0.00
   19   13   14      0.14      0.00
  -18   14   14      0.19      0.00
  -16   14   14      0.46      0.00
  -14   14   14      0.02      0.00
   14   14   14     -0.10      0.00
   16   14   14     -0.06      0.00
  -15   15   14     -0.13      0.00
  -13   15   14      0.44      0.00
  -11   15   14     -0.10      0.00
   11   15   14     -0.42      0.00
   13   15   14      0.21      0.00
   15   15   14      0.32      0.00
  -14   16   14     -0.05      0.00
  -12   16   14     -0.07      0.00
  -10   16   14      0.29      0.00
   -8   16   14     -0.18      0.00
    8   16   14     -0.35      0.00
   10   16   14      0.31      0.00
   12   16   14      0.39      0.00
   14   16   14     -0.01      0.00
  -11   17   14      0.11      0.00
   -9   17   14      0.18      0.00
   -7   17   14      0.40      0.00
   -5   17   14      0.67      0.00
   -3   17   14      0.33      0.00
    3   17   14     -0.18      0.00
    5   17   14      0.18      0.00
    7   17   14      0.71      0.00
    9   17   14      0.02      0.00
   11   17   14     -0.05      0.00
   -8   18   14      0.12      0.00
   -6   18   14     -0.27      0.00
   -4   18   14     -0.16      0.00
   -2   18   14     -0.07      0.00
    0   18   14      0.41      0.00
    2   18   14      0.53      0.00
    4   18   14      0.15      0.00
    6   18   14     -0.30      0.00
    8   18   14     -0.18      0.00
   -5   19   14      0.28      0.00
   -3   19   14      0.52      0.00
   -1   19   14     -0.13      0.00
    1   19   14     -0.08      0.00
    3   19   14     -0.54      0.00
    5   19   14      0.29      0.00
  -24    0   15      0.05      0.00
  -22    0   15      0.17      0.00
   22    0   15     -0.17      0.00
   24    0   15     -0.19      0.00
  -25    1   15      0.02      0.00
  -23    1   15     -0.01      0.00
   23    1   15      0.28      0.00
  -24    2   15      0.11      0.00
  -22    2   15      0.23      0.00
   22    2   15     -0.26      0.00
   24    2   15     -0.04      0.00
  -23    3   15     -0.10      0.00
   23    3   15      0.00      0.00
  -24    4   15      0.01      0.00
  -22    4   15      0.24      0.00
   22    4   15     -0.09      0.00
   24    4   15      0.03      0.00
  -23    5   15      0.12      0.00
  -21    5   15      0.10      0.00
   21    5   15      0.01      0.00
   23    5   15      0.06      0.00
  -22    6   15      0.18      0.00
   20    6   15     -0.23      0.00
   22    6   15     -0.13      0.00
  -23    7   15     -0.20      0.00
  -21    7   15      0.46      0.00
   21    7   15      0.29      0.00
   23    7   15     -0.17      0.00
  -22    8   15      0.29      0.00
  -20    8   15     -0.49      0.00
   20    8   15     -0.25      0.00
   22    8   15     -0.12      0.00
  -21    9   15      0.25      0.00
  -19    9   15      0.79      0.00
   19    9   15      0.05      0.00
   21    9   15      0.14      0.00
  -20   10   15     -0.22      0.00
  -18   10   15     -0.33      0.00
   18   10   15      0.16      0.00
   20   10   15     -0.19      0.00
  -19   11   15      0.45      0.00
  -17   11   15      0.33      0.00
   17   11   15     -0.09      0.00
   19   11   15      0.05      0.00
  -18   12   15     -0.08      0.00
  -16   12   15     -0.09      0.00
   16   12   15      0.20      0.00
   18   12   15      0.03      0.00
  -17   13   15      0.30      0.00
  -15   13   15     -0.05      0.00
  -13   13   15      0.03      0.00
   13   13   15     -0.15      0.00
   15   13   15     -0.11      0.00
   17   13   15      0.18      0.00
  -16   14   15     -0.02      0.00
  -14   14   15      0.28      0.00
  -12   14   15      0.09      0.00
   12   14   15      0.11      0.00
   14   14   15      0.47      0.00
   16   14   15      0.03      0.00
  -15   15   15     -0.05      0.00
  -13   15   15     -0.10      0.00
  -11   15   15      0.13      0.00
   -9   15   15     -0.55      0.00
    9   15   15      0.42      0.00
   11   15   15      0.52      0.00
   13   15   15     -0.19      0.00
  -12   16   15      0.17      0.00
  -10   16   15      0.27      0.00
   -8   16   15      0.80      0.00
   -6   16   15      0.30      0.00
   -4   16   15      0.25      0.00
    4   16   15      0.49      0.00
    6   16   15      0.49      0.00
    8   16   15     -0.07      0.00
   10   16   15     -0.32      0.00
   12   16   15      0.21      0.00
   -9   17   15     -0.33      0.00
   -7   17   15     -0.15      0.00
   -5   17   15     -0.10      0.00
   -3   17   15      0.29      0.00
   -1   17   15      0.26      0.00
    1   17   15      0.66      0.00
    3   17   15     -0.13      0.00
    5   17   15     -0.22      0.00
    7   17   15     -0.27      0.00
    9   17   15      0.53      0.00
   -6   18   15      0.48      0.00
   -4   18   15      0.07      0.00
   -2   18   15      0.07      0.00
    0   18   15     -0.37      0.00
    2   18   15     -0.24      0.00
    4   18   15      0.13      0.00
    6   18   15      0.37      0.00
  -24    0   16     -0.02      0.00
  -22    0   16      0.15      0.00
   22    0   16      0.19      0.00
  -23    1   16      0.19      0.00
  -21    1   16      0.01      0.00
   21    1   16     -0.25      0.00
   23    1   16     -0.06      0.00
  -22    2   16      0.03      0.00
   22    2   16      0.26      0.00
  -23    3   16      0.30      0.00
  -21    3   16     -0.08      0.00
   21    3   16     -0.33      0.00
   23    3   16      0.14      0.00
  -22    4   16      0.10      0.00
  -20    4   16      0.30      0.00
   20    4   16      0.18      0.00
   22    4   16      0.00      0.00
  -23    5   16      0.11      0.00
  -21    5   16      0.01      0.00
   21    5   16     -0.01      0.00
  -22    6   16      0.22      0.00
  -20    6   16      0.35      0.00
   20    6   16      0.15      0.00
   22    6   16     -0.01      0.00
  -21    7   16     -0.31      0.00
  -19    7   16      0.25      0.00
   19    7   16     -0.04      0.00
   21    7   16     -0.20      0.00
  -20    8   16      0.51      0.00
  -18    8   16     -0.39      0.00
   18    8   16     -0.03      0.00
   20    8   16      0.20      0.00
  -19    9   16      0.10      0.00
  -17    9   16      0.54      0.00
   17    9   16      0.22      0.00
   19    9   16     -0.20      0.00
  -18   10   16     -0.07      0.00
  -16   10   16     -0.34      0.00
   16   10   16      0.03      0.00
   18   10   16      0.00      0.00
  -17   11   16      0.33      0.00
  -15   11   16      0.27      0.00
   15   11   16      0.07      0.00
   17   11   16      0.05      0.00
  -16   12   16     -0.04      0.00
  -14   12   16     -0.31      0.00
   14   12   16      0.06      0.00
   16   12   16      0.12      0.00
  -15   13   16      0.27      0.00
  -13   13   16      0.15      0.00
  -11   13   16      0.46      0.00
   11   13   16      0.37      0.00
   13   13   16      0.36      0.00
   15   13   16      0.06      0.00
  -14   14   16     -0.14      0.00
  -12   14   16     -0.06      0.00
  -10   14   16     -0.55      0.00
   10   14   16      0.15      0.00
   12   14   16     -0.13      0.00
   14   14   16     -0.01      0.00
  -13   15   16      0.10      0.00
  -11   15   16      0.34      0.00
   -9   15   16      0.64      0.00
   -7   15   16     -0.01      0.00
   -5   15   16     -0.24      0.00
    5   15   16      0.55      0.00
    7   15   16     -0.40      0.00
    9   15   16     -0.10      0.00
   11   15   16      0.15      0.00
  -10   16   16     -0.21      0.00
   -8   16   16     -0.24      0.00
   -6   16   16      0.53      0.00
   -4   16   16      0.13      0.00
   -2   16   16      0.45      0.00
    0   16   16      0.21      0.00
    2   16   16      0.02      0.00
    4   16   16     -0.49      0.00
    6   16   16      0.05      0.00
    8   16   16      0.36      0.00
   10   16   16      0.23      0.00
   -7   17   16     -0.04      0.00
   -5   17   16      0.06      0.00
   -3   17   16     -0.21      0.00
   -1   17   16     -0.02      0.00
    1   17   16     -0.33      0.00
    3   17   16      0.45      0.00
    5   17   16      0.16      0.00
    7   17   16      0.06      0.00
  -22    0   17      0.03      0.00
  -20    0   17      0.44      0.00
   20    0   17     -0.38      0.00
   22    0   17      0.10      0.00
  -21    1   17      0.13      0.00
  -19    1   17     -0.22      0.00
   19    1   17      0.10      0.00
   21    1   17      0.21      0.00
  -22    2   17      0.20      0.00
  -20    2   17      0.15      0.00
   20    2   17     -0.19      0.00
   22    2   17     -0.02      0.00
  -21    3   17      0.16      0.00
  -19    3   17     -0.33      0.00
   19    3   17     -0.05      0.00
   21    3   17      0.26      0.00
  -22    4   17      0.12      0.00
  -20    4   17      0.39      0.00
   20    4   17     -0.24      0.00
   22    4   17      0.12      0.00
  -21    5   17      0.06      0.00
  -19    5   17     -0.41      0.00
   19    5   17      0.27      0.00
   21    5   17     -0.03      0.00
  -20    6   17      0.40      0.00
  -18    6   17      0.76      0.00
   18    6   17     -0.07      0.00
   20    6   17     -0.10      0.00
  -19    7   17     -0.57      0.00
  -17    7   17     -0.41      0.00
   17    7   17      0.05      0.00
   19    7   17      0.07      0.00
  -20    8   17      0.25      0.00
  -18    8   17      0.86      0.00
  -16    8   17      0.11      0.00
   16    8   17      0.24      0.00
   18    8   17     -0.10      0.00
   20    8   17     -0.09      0.00
  -19    9   17     -0.56      0.00
  -17    9   17     -0.35      0.00
  -15    9   17     -0.25      0.00
   15    9   17      0.01      0.00
   17    9   17     -0.03      0.00
   19    9   17      0.20      0.00
  -18   10   17      0.44      0.00
  -16   10   17      0.35      0.00
  -14   10   17      0.18      0.00
   14   10   17      0.16      0.00
   16   10   17      0.00      0.00
   18   10   17      0.01      0.00
  -17   11   17     -0.34      0.00
  -15   11   17     -0.17      0.00
  -13   11   17     -0.38      0.00
   13   11   17      0.03      0.00
   15   11   17      0.18      0.00
   17   11   17      0.08      0.00
  -16   12   17      0.03      0.00
  -14   12   17      0.32      0.00
  -12   12   17      0.16      0.00
   12   12   17      0.42      0.00
   14   12   17     -0.11      0.00
   16   12   17      0.04      0.00
  -13   13   17     -0.16      0.00
  -11   13   17     -0.35      0.00
   -9   13   17     -0.09      0.00
    9   13   17     -0.07      0.00
   11   13   17     -0.32      0.00
   13   13   17      0.17      0.00
  -12   14   17      0.18      0.00
  -10   14   17      0.42      0.00
   -8   14   17     -0.33      0.00
   -6   14   17     -0.32      0.00
   -4   14   17      0.05      0.00
    4   14   17      0.31      0.00
    6   14   17     -0.12      0.00
    8   14   17     -0.05      0.00
   10   14   17      0.51      0.00
   12   14   17      0.19      0.00
   -9   15   17      0.07      0.00
   -7   15   17      0.52      0.00
   -5   15   17      0.26      0.00
   -3   15   17     -0.10      0.00
   -1   15   17      0.19      0.00
    1   15   17     -0.36      0.00
    3   15   17     -0.24      0.00
    5   15   17     -0.18      0.00
    7   15   17      0.42      0.00
    9   15   17     -0.23      0.00
   -6   16   17     -0.38      0.00
   -4   16   17      0.33      0.00
   -2   16   17     -0.11      0.00
    0   16   17      0.23      0.00
    2   16   17      0.20      0.00
    4   16   17      0.42      0.00
    6   16   17     -0.18      0.00
  -20    0   18     -0.34      0.00
  -18    0   18     -0.31      0.00
   18    0   18     -0.07      0.00
   20    0   18      0.38      0.00
  -21    1   18      0.22      0.00
  -19    1   18      0.70      0.00
   19    1   18     -0.29      0.00
   21    1   18     -0.02      0.00
  -20    2   18     -0.08      0.00
  -18    2   18     -0.73      0.00
   18    2   18      0.10      0.00
   20    2   18      0.19      0.00
  -21    3   18      0.21      0.00
  -19    3   18      0.68      0.00
  -17    3   18      0.68      0.00
   17    3   18     -0.19      0.00
   19    3   18     -0.10      0.00
  -20    4   18     -0.32      0.00
  -18    4   18     -0.40      0.00
   18    4   18      0.07      0.00
   20    4   18      0.26      0.00
  -19    5   18      0.69      0.00
  -17    5   18      0.35      0.00
   17    5   18      0.05      0.00
   19    5   18     -0.27      0.00
  -18    6   18     -0.37      0.00
  -16    6   18     -0.24      0.00
   16    6   18      0.06      0.00
   18    6   18      0.18      0.00
  -19    7   18      0.58      0.00
  -17    7   18      0.21      0.00
  -15    7   18      0.25      0.00
   15    7   18      0.29      0.00
   17    7   18     -0.21      0.00
   19    7   18     -0.01      0.00
  -18    8   18     -0.46      0.00
  -16    8   18      0.06      0.00
  -14    8   18     -0.65      0.00
   14    8   18     -0.08      0.00
   16    8   18      0.04      0.00
   18    8   18      0.18      0.00
  -17    9   18     -0.01      0.00
  -15    9   18      0.24      0.00
  -13    9   18      0.14      0.00
   13    9   18      0.26      0.00
   15    9   18      0.06      0.00
   17    9   18      0.00      0.00
  -16   10   18     -0.19      0.00
  -14   10   18     -0.18      0.00
  -12   10   18     -0.34      0.00
   12   10   18      0.13      0.00
   14   10   18     -0.02      0.00
   16   10   18      0.18      0.00
  -15   11   18      0.04      0.00
  -13   11   18      0.17      0.00
  -11   11   18     -0.02      0.00
    9   11   18      0.58      0.00
   11   11   18      0.21      0.00
   13   11   18      0.04      0.00
   15   11   18     -0.02      0.00
  -14   12   18     -0.28      0.00
  -12   12   18     -0.05      0.00
  -10   12   18     -0.09      0.00
   -8   12   18      0.50      0.00
    8   12   18     -0.38      0.00
   10   12   18     -0.12      0.00
   12   12   18      0.08      0.00
   14   12   18      0.33      0.00
  -11   13   18      0.06      0.00
   -9   13   18     -0.19      0.00
   -7   13   18     -0.36      0.00
   -5   13   18      0.44      0.00
   -3   13   18      0.20      0.00
   -1   13   18      0.29      0.00
    1   13   18      0.37      0.00
    3   13   18      0.45      0.00
    5   13   18     -0.12      0.00
    7   13   18      0.32      0.00
    9   13   18      0.40      0.00
   11   13   18      0.19      0.00
  -10   14   18     -0.02      0.00
   -8   14   18      0.53      0.00
   -6   14   18     -0.12      0.00
   -4   14   18     -0.22      0.00
   -2   14   18     -0.19      0.00
    0   14   18     -0.17      0.00
    2   14   18     -0.44      0.00
    4   14   18     -0.01      0.00
    6   14   18     -0.05      0.00
    8   14   18     -0.20      0.00
   10   14   18     -0.24      0.00
   -7   15   18      0.00      0.00
   -5   15   18      0.32      0.00
   -3   15   18      0.43      0.00
   -1   15   18      0.05      0.00
    1   15   18      0.50      0.00
    3   15   18      0.11      0.00
    5   15   18      0.21      0.00
    7   15   18      0.02      0.00
  -18    0   19      0.30      0.00
  -16    0   19      0.31      0.00
   16    0   19     -0.01      0.00
   18    0   19      0.02      0.00
  -19    1   19     -0.37      0.00
  -17    1   19     -0.12      0.00
   17    1   19     -0.16      0.00
   19    1   19      0.20      0.00
  -18    2   19      0.61      0.00
  -16    2   19     -0.15      0.00
   16    2   19      0.04      0.00
   18    2   19     -0.13      0.00
  -19    3   19     -0.30      0.00
  -17    3   19     -0.16      0.00
  -15    3   19      0.26      0.00
   15    3   19      0.00      0.00
   17    3   19      0.12      0.00
   19    3   19      0.05      0.00
  -18    4   19      0.25      0.00
  -16    4   19      0.09      0.00
   16    4   19     -0.14      0.00
   18    4   19      0.00      0.00
  -17    5   19      0.08      0.00
  -15    5   19     -0.15      0.00
   15    5   19      0.34      0.00
   17    5   19      0.00      0.00
  -18    6   19      0.08      0.00
  -16    6   19      0.04      0.00
  -14    6   19     -0.23      0.00
   14    6   19      0.08      0.00
   16    6   19     -0.15      0.00
   18    6   19     -0.04      0.00
  -17    7   19     -0.03      0.00
  -15    7   19     -0.08      0.00
  -13    7   19      0.07      0.00
   13    7   19      0.02      0.00
   15    7   19      0.06      0.00
   17    7   19      0.24      0.00
  -16    8   19     -0.17      0.00
  -14    8   19      0.14      0.00
  -12    8   19     -0.64      0.00
   12    8   19      0.30      0.00
   14    8   19      0.09      0.00
   16    8   19     -0.06      0.00
  -15    9   19     -0.28      0.00
  -13    9   19      0.11      0.00
  -11    9   19      0.02      0.00
   11    9   19      0.10      0.00
   13    9   19     -0.11      0.00
   15    9   19      0.18      0.00
  -14   10   19     -0.10      0.00
  -12   10   19     -0.09      0.00
  -10   10   19     -0.36      0.00
   -8   10   19     -0.33      0.00
    8   10   19      0.41      0.00
   10   10   19      0.24      0.00
   12   10   19      0.03      0.00
   14   10   19      0.19      0.00
  -13   11   19     -0.04      0.00
  -11   11   19      0.05      0.00
   -9   11   19      0.17      0.00
   -7   11   19      0.05      0.00
   -5   11   19     -0.51      0.00
    5   11   19      0.12      0.00
    7   11   19     -0.13      0.00
    9   11   19     -0.14      0.00
   11   11   19      0.23      0.00
   13   11   19      0.03      0.00
  -10   12   19     -0.06      0.00
   -8   12   19     -0.19      0.00
   -6   12   19      0.35      0.00
   -4   12   19      0.33      0.00
   -2   12   19      0.02      0.00
    0   12   19      0.35      0.00
    2   12   19      0.14      0.00
    4   12   19      0.07      0.00
    6   12   19      0.10      0.00
    8   12   19      0.45      0.00
   10   12   19     -0.12      0.00
   -9   13   19      0.08      0.00
   -7   13   19      0.02      0.00
   -5   13   19     -0.50      0.00
   -3   13   19      0.11      0.00
   -1   13   19     -0.27      0.00
    1   13   19     -0.06      0.00
    3   13   19     -0.20      0.00
    5   13   19      0.09      0.00
    7   13   19     -0.34      0.00
    9   13   19      0.06      0.00
   -6   14   19      0.61      0.00
   -4   14   19      0.18      0.00
   -2   14   19      0.25      0.00
    0   14   19      0.12      0.00
    2   14   19      0.30      0.00
    4   14   19      0.03      0.00
    6   14   19      0.31      0.00
  -18    0   20      0.12      0.00
  -16    0   20      0.17      0.00
  -14    0   20      0.70      0.00
   14    0   20     -0.23      0.00
   16    0   20     -0.26      0.00
   18    0   20     -0.18      0.00
  -17    1   20     -0.15      0.00
  -15    1   20     -0.48      0.00
  -13    1   20     -0.56      0.00
   13    1   20      0.14      0.00
   15    1   20      0.22      0.00
   17    1   20      0.26      0.00
  -18    2   20     -0.15      0.00
  -16    2   20      0.47      0.00
  -14    2   20      0.30      0.00
   14    2   20     -0.11      0.00
   16    2   20     -0.29      0.00
  -17    3   20     -0.03      0.00
  -15    3   20     -0.57      0.00
  -13    3   20     -0.42      0.00
   13    3   20     -0.05      0.00
   15    3   20      0.24      0.00
   17    3   20      0.09      0.00
  -16    4   20      0.15      0.00
  -14    4   20      0.43      0.00
  -12    4   20      0.06      0.00
   12    4   20     -0.09      0.00
   14    4   20      0.03      0.00
   16    4   20     -0.03      0.00
  -15    5   20     -0.15      0.00
  -13    5   20     -0.75      0.00
   13    5   20      0.28      0.00
   15    5   20     -0.18      0.00
  -16    6   20     -0.03      0.00
  -14    6   20      0.29      0.00
  -12    6   20      0.07      0.00
   12    6   20     -0.07      0.00
   14    6   20      0.13      0.00
   16    6   20      0.06      0.00
  -15    7   20     -0.24      0.00
  -13    7   20     -0.33      0.00
  -11    7   20     -0.33      0.00
    9    7   20      0.46      0.00
   11    7   20      0.43      0.00
   13    7   20      0.06      0.00
   15    7   20     -0.01      0.00
  -14    8   20     -0.07      0.00
  -12    8   20      0.27      0.00
  -10    8   20     -0.29      0.00
   -8    8   20      0.20      0.00
    8    8   20     -0.43      0.00
   10    8   20     -0.03      0.00
   12    8   20     -0.17      0.00
   14    8   20      0.20      0.00
  -13    9   20     -0.34      0.00
  -11    9   20     -0.04      0.00
   -9    9   20     -0.27      0.00
   -7    9   20      0.06      0.00
    5    9   20     -0.08      0.00
    7    9   20      0.40      0.00
    9    9   20      0.35      0.00
   11    9   20      0.19      0.00
   13    9   20      0.23      0.00
  -12   10   20     -0.04      0.00
  -10   10   20      0.06      0.00
   -8   10   20     -0.07      0.00
   -6   10   20     -0.29      0.00
   -4   10   20     -0.19      0.00
   -2   10   20      0.19      0.00
    0   10   20     -0.06      0.00
    2   10   20      0.32      0.00
    4   10   20      0.33      0.00
    6   10   20     -0.07      0.00
    8   10   20     -0.04      0.00
   10   10   20     -0.01      0.00
   12   10   20      0.00      0.00
   -9   11   20     -0.07      0.00
   -7   11   20      0.19      0.00
   -5   11   20      0.15      0.00
   -3   11   20     -0.08      0.00
   -1   11   20     -0.03      0.00
    1   11   20      0.06      0.00
    3   11   20     -0.24      0.00
    5   11   20      0.13      0.00
    7   11   20      0.14      0.00
    9   11   20      0.09      0.00
   -8   12   20     -0.01      0.00
   -6   12   20     -0.14      0.00
   -4   12   20      0.08      0.00
   -2   12   20      0.16      0.00
    0   12   20     -0.10      0.00
    2   12   20      0.20      0.00
    4   12   20     -0.05      0.00
    6   12   20      0.07      0.00
    8   12   20     -0.06      0.00
   -5   13   20      0.30      0.00
   -3   13   20     -0.23      0.00
   -1   13   20      0.30      0.00
    1   13   20     -0.12      0.00
    3   13   20      0.25      0.00
  -16    0   21     -0.06      0.00
  -14    0   21     -0.10      0.00
  -12    0   21      0.60      0.00
   10    0   21      0.40      0.00
   12    0   21      0.39      0.00
   14    0   21      0.46      0.00
  -15    1   21     -0.05      0.00
  -13    1   21     -0.47      0.00
  -11    1   21     -0.87      0.00
   11    1   21     -0.16      0.00
   13    1   21     -0.44      0.00
   15    1   21     -0.25      0.00
  -14    2   21      0.09      0.00
  -12    2   21      0.28      0.00
  -10    2   21      0.25      0.00
   10    2   21      0.41      0.00
   12    2   21      0.35      0.00
   14    2   21      0.31      0.00
  -15    3   21      0.16      0.00
  -13    3   21     -0.52      0.00
  -11    3   21     -0.56      0.00
   11    3   21     -0.27      0.00
   13    3   21     -0.08      0.00
   15    3   21     -0.28      0.00
  -14    4   21     -0.15      0.00
  -12    4   21      0.23      0.00
  -10    4   21      0.18      0.00
   10    4   21      0.31      0.00
   12    4   21      0.26      0.00
   14    4   21      0.16      0.00
  -13    5   21      0.00      0.00
  -11    5   21     -0.76      0.00
   -9    5   21     -0.19      0.00
    9    5   21     -0.51      0.00
   11    5   21      0.08      0.00
   13    5   21     -0.13      0.00
  -14    6   21     -0.25      0.00
  -12    6   21      0.18      0.00
  -10    6   21      0.03      0.00
   -8    6   21      0.17      0.00
   -6    6   21      0.23      0.00
    6    6   21      0.78      0.00
    8    6   21      0.74      0.00
   10    6   21      0.35      0.00
   12    6   21      0.18      0.00
  -13    7   21     -0.19      0.00
  -11    7   21     -0.26      0.00
   -9    7   21     -0.38      0.00
   -7    7   21     -0.38      0.00
   -5    7   21     -0.41      0.00
    5    7   21     -0.10      0.00
    7    7   21     -0.64      0.00
    9    7   21     -0.09      0.00
   11    7   21     -0.19      0.00
  -12    8   21     -0.08      0.00
  -10    8   21      0.23      0.00
   -8    8   21     -0.09      0.00
   -6    8   21      0.40      0.00
   -4    8   21     -0.41      0.00
   -2    8   21     -0.22      0.00
    0    8   21     -0.30      0.00
    2    8   21     -0.26      0.00
    4    8   21      0.08      0.00
    6    8   21      0.53      0.00
    8    8   21      0.56      0.00
   10    8   21      0.26      0.00
   -9    9   21     -0.07      0.00
   -7    9   21     -0.26      0.00
   -5    9   21     -0.04      0.00
   -3    9   21      0.35      0.00
   -1    9   21      0.13      0.00
    1    9   21      0.40      0.00
    3    9   21      0.24      0.00
    5    9   21     -0.08      0.00
    7    9   21     -0.22      0.00
    9    9   21     -0.14      0.00
   -8   10   21      0.11      0.00
   -6   10   21      0.05      0.00
   -4   10   21     -0.20      0.00
   -2   10   21     -0.15      0.00
    0   10   21     -0.13      0.00
    2   10   21     -0.18      0.00
    4   10   21      0.03      0.00
    6   10   21      0.29      0.00
    8   10   21      0.17      0.00
   -5   11   21      0.29      0.00
   -3   11   21      0.11      0.00
   -1   11   21      0.20      0.00
    1   11   21      0.11      0.00
    3   11   21      0.21      0.00
    5   11   21     -0.07      0.00
    0   12   21      0.08      0.00
  -12    0   22     -0.64      0.00
  -10    0   22     -0.21      0.00
   -8    0   22     -0.37      0.00
   -6    0   22     -0.21      0.00
    6    0   22     -0.87      0.00
    8    0   22     -0.53      0.00
   10    0   22     -0.03      0.00
   12    0   22     -0.22      0.00
  -13    1   22      0.20      0.00
  -11    1   22      0.08      0.00
   -9    1   22     -0.26      0.00
   -7    1   22     -0.03      0.00
    5    1   22      0.77      0.00
    7    1   22      0.98      0.00
    9    1   22      0.36      0.00
   11    1   22      0.24      0.00
   13    1   22      0.26      0.00
  -12    2   22     -0.49      0.00
  -10    2   22     -0.34      0.00
   -8    2   22     -0.33      0.00
   -6    2   22     -0.19      0.00
    6    2   22     -0.82      0.00
    8    2   22     -0.40      0.00
   10    2   22     -0.01      0.00
   12    2   22     -0.16      0.00
  -13    3   22      0.36      0.00
  -11    3   22     -0.06      0.00
   -9    3   22      0.03      0.00
   -7    3   22     -0.19      0.00
   -5    3   22     -0.24      0.00
    5    3   22      0.61      0.00
    7    3   22      1.00      0.00
    9    3   22      0.12      0.00
   11    3   22      0.32      0.00
  -12    4   22     -0.48      0.00
  -10    4   22     -0.37      0.00
   -8    4   22     -0.28      0.00
   -6    4   22     -0.22      0.00
   -4    4   22      0.35      0.00
   -2    4   22      0.10      0.00
    0    4   22      0.27      0.00
    2    4   22      0.09      0.00
    4    4   22     -0.26      0.00
    6    4   22     -0.62      0.00
    8    4   22     -0.26      0.00
   10    4   22      0.09      0.00
   12    4   22      0.01      0.00
  -11    5   22      0.35      0.00
   -9    5   22     -0.20      0.00
   -7    5   22      0.16      0.00
   -5    5   22     -0.55      0.00
   -3    5   22     -0.28      0.00
   -1    5   22     -0.30      0.00
    1    5   22      0.01      0.00
    3    5   22      0.14      0.00
    5    5   22      0.85      0.00
    7    5   22      0.52      0.00
    9    5   22      0.36      0.00
   11    5   22      0.00      0.00
  -10    6   22     -0.22      0.00
   -8    6   22     -0.35      0.00
   -6    6   22      0.05      0.00
   -4    6   22      0.27      0.00
   -2    6   22      0.26      0.00
    0    6   22      0.15      0.00
    2    6   22      0.14      0.00
    4    6   22     -0.29      0.00
    6    6   22     -0.43      0.00
    8    6   22     -0.10      0.00
   10    6   22      0.02      0.00
   -9    7   22      0.15      0.00
   -7    7   22     -0.08      0.00
   -5    7   22     -0.29      0.00
   -3    7   22     -0.40      0.00
   -1    7   22     -0.05      0.00
    1    7   22     -0.17      0.00
    3    7   22      0.36      0.00
    5    7   22      0.49      0.00
    7    7   22      0.57      0.00
    9    7   22      0.18      0.00
   -8    8   22     -0.01      0.00
   -6    8   22      0.00      0.00
   -4    8   22      0.45      0.00
   -2    8   22      0.09      0.00
    0    8   22      0.29      0.00
    2    8   22      0.10      0.00
    4    8   22     -0.22      0.00
    6    8   22     -0.17      0.00
    8    8   22     -0.21      0.00
   -5    9   22     -0.21      0.00
   -3    9   22     -0.20      0.00
   -1    9   22     -0.01      0.00
    1    9   22     -0.16      0.00
    3    9   22      0.27      0.00
    5    9   22      0.27      0.00
   -2   10   22      0.07      0.00
    0   10   22      0.24      0.00
    2   10   22      0.00      0.00
    0    0    0      0.00      0.00
# SQUEEZE RESULTS
# Note: Data are Listed for all Voids in the P1 Unit Cell
# i.e. Centre of Gravity, Solvent Accessible Volume,
# Recovered number of Electrons in the Void and
# Details about the Squeezed Material
loop_
  _platon_squeeze_void_nr
  _platon_squeeze_void_average_x
  _platon_squeeze_void_average_y
  _platon_squeeze_void_average_z
  _platon_squeeze_void_volume
  _platon_squeeze_void_count_electrons
  _platon_squeeze_void_content
   1  0.000  0.000  0.000        15         1 ' '
   2  0.500  0.000  0.500       234        36 ' '
   3  0.250  0.250  0.500        11         0 ' '
   4  0.750  0.250  0.500        11         0 ' '
   5  0.000  0.500  0.500       234        36 ' '
   6  0.500  0.500  0.000        15         1 ' '
   7  0.250  0.750  0.500        11         0 ' '
   8  0.750  0.750  0.500        11         0 ' '
_platon_squeeze_details
(replace by semicolon in column 1 when used as .sqf)
TITL 33 in C2                    New: C2/m
CELL   24.1490   18.0200   18.4860     90.00     90.22     90.00
SPGR C2/m
# Solvent Accessible Volume =     555.0
# Electrons Found in S.A.V. =      74.7
# Note: Atoms in Void as Cxxx and Qxxx all others
C101 1.000 0.500 0.500 !       6.38 eA-3
C102 0.915 0.504 0.359 !       4.17 eA-3
C103 0.135 0.503 0.594 !       2.92 eA-3
C104 0.030 0.500 0.656 !       2.74 eA-3
Q105 0.227 0.424 0.409 !       1.67 eA-3
Q106 0.819 0.118 0.352 !       1.57 eA-3
Q107 0.843 0.125 0.029 !       1.35 eA-3
Q108 0.117 0.392 0.108 !       1.34 eA-3
Q109 0.101 0.131 0.828 !       1.27 eA-3
Q110 0.610 0.408 0.735 !       1.26 eA-3
Q111 0.790 0.269 0.750 !       1.21 eA-3
Q112 0.734 0.387 0.018 !       1.18 eA-3
Q113 0.673 0.134 0.043 !       1.18 eA-3
Q114 0.719 0.138 0.378 !       1.15 eA-3
Q115 0.326 0.455 0.371 !       1.12 eA-3
Q116 0.251 0.504 0.188 !       1.10 eA-3
Q117 0.758 0.499 0.578 !       1.08 eA-3
Q118 0.165 0.193 0.908 !       1.07 eA-3
Q119 0.828 0.058 0.139 !       1.07 eA-3
Q120 0.381 0.026 0.193 !       1.05 eA-3
Q121 0.338 0.499 0.984 !       1.04 eA-3
Q122 0.179 0.283 0.214 !       1.04 eA-3
Q123 0.646 0.170 0.129 !       1.03 eA-3
Q124 0.384 0.413 0.062 !       1.02 eA-3
Q125 0.257 0.236 0.874 !       1.01 eA-3
Q126 0.757 0.736 0.874 !       1.01 eA-3
Q127 0.282 0.264 0.144 !       1.00 eA-3
Q128 1.000 0.500 0.000 !       1.00 eA-3
Q129 0.290 0.497 0.406 !       0.98 eA-3
Q130 0.032 0.348 0.945 !       0.98 eA-3
Q131 0.611 0.514 0.703 !       0.98 eA-3
Q132 0.135 0.326 0.288 !       0.98 eA-3
Q133 0.249 0.510 0.953 !       0.97 eA-3
Q134 0.345 0.298 0.240 !       0.96 eA-3
Q135 1.000 0.406-0.004 !       0.96 eA-3
Q136 0.392 0.506 0.031 !       0.94 eA-3
Q137 0.875 0.334 0.736 !       0.94 eA-3
Q138 0.195 0.105 0.839 !       0.92 eA-3
Q139 0.358 0.305 0.143 !       0.92 eA-3
Q140 0.251 0.247 0.210 !       0.91 eA-3
Q141 0.142 0.504 0.031 !       0.91 eA-3
Q142 0.889 0.172 0.547 !       0.91 eA-3
Q143 0.194 0.264 0.187 !       0.90 eA-3
Q144 0.225 0.229 0.728 !       0.89 eA-3
Q145 0.320 0.163 0.671 !       0.88 eA-3
Q146 0.344 0.155 0.671 !       0.87 eA-3
Q147 0.226 0.200 0.926 !       0.83 eA-3
Q148 0.735 0.193 0.335 !       0.83 eA-3
Q149 0.416 0.498 0.203 !       0.83 eA-3
Q150 0.354 0.508 0.344 !       0.82 eA-3
Q151 0.789 0.506 0.703 !       0.82 eA-3
Q152 0.827 0.428 0.985 !       0.81 eA-3
Q153 0.459 0.321 0.722 !       0.80 eA-3
Q154 0.066 0.508 0.172 !       0.79 eA-3
Q155 0.600 0.027 0.314 !       0.79 eA-3
Q156 0.826 0.425 0.204 !       0.78 eA-3
Q157 1.000 0.313-0.001 !       0.77 eA-3
Q158 0.799 0.491 0.016 !       0.76 eA-3
Q159 0.171 0.508 0.109 !       0.75 eA-3
Q160 0.284 0.440 0.114 !       0.72 eA-3
Q161 0.625 0.360 0.906 !       0.72 eA-3
Q162 0.089 0.401 0.176 !       0.71 eA-3
Q163 0.844 0.145 0.631 !       0.71 eA-3
Q164 0.326 0.496 0.141 !       0.71 eA-3
Q165 0.242 0.434 0.967 !       0.70 eA-3
Q166 0.040 0.283 0.937 !       0.70 eA-3
Q167 0.235 0.070 0.575 !       0.69 eA-3
Q168 0.255 0.493 0.313 !       0.68 eA-3
Q169 0.517 0.253 0.989 !       0.68 eA-3
Q170 0.446 0.421 0.898 !       0.67 eA-3
Q171 0.803 0.503 0.781 !       0.66 eA-3
Q172 0.187 0.067 0.316 !       0.65 eA-3
Q173 0.251 0.328 0.030 !       0.65 eA-3
Q174 0.796 0.498 0.234 !       0.65 eA-3
Q175 0.563 0.190 0.717 !       0.65 eA-3
Q176 0.032 0.301 0.320 !       0.64 eA-3
Q177 0.789 0.497 0.906 !       0.64 eA-3
Q178 0.531 0.339 0.156 !       0.64 eA-3
Q179 0.562 0.499 0.578 !       0.62 eA-3
Q180 0.079 0.275 0.473 !       0.62 eA-3
Q181 0.088 0.030 0.906 !       0.61 eA-3
Q182 0.346 0.149 0.472 !       0.60 eA-3
Q183 0.647 0.052 0.374 !       0.60 eA-3
Q184 0.641 0.089 0.358 !       0.60 eA-3
Q185 0.141 0.589 0.358 !       0.60 eA-3
Q186 0.107 0.449 0.108 !       0.59 eA-3
Q187 0.266 0.400 0.387 !       0.58 eA-3
Q188 0.021 0.263 0.769 !       0.58 eA-3
Q189 0.712 0.263 0.776 !       0.57 eA-3
Q190 0.594 0.498 0.922 !       0.57 eA-3
Q191 0.139 0.054 0.171 !       0.57 eA-3
Q192 0.204 0.154 0.971 !       0.56 eA-3
Q193 0.884 0.146 0.772 !       0.55 eA-3
Q194 1.000 0.345 0.617 !       0.54 eA-3
Q195 0.469 0.494 0.469 !       0.53 eA-3
Q196 0.780 0.124 0.187 !       0.53 eA-3
Q197 0.979 0.336 0.248 !       0.52 eA-3
Q198 0.076 0.161 0.094 !       0.52 eA-3
Q199 0.250 0.344 0.629 !       0.51 eA-3
(replace by semicolon in column 1 when used as .sqf)
;
_shelx_fab_checksum              21093
loop_
_space_group_symop_operation_xyz
'x, y, z'
'-x, y, -z'
'x+1/2, y+1/2, z'
'-x+1/2, y+1/2, -z'
'-x, -y, -z'
'x, -y, z'
'-x+1/2, -y+1/2, -z'
'x+1/2, -y+1/2, z'
loop_
_atom_site_label
_atom_site_type_symbol
_atom_site_fract_x
_atom_site_fract_y
_atom_site_fract_z
_atom_site_U_iso_or_equiv
_atom_site_adp_type
_atom_site_occupancy
_atom_site_site_symmetry_order
_atom_site_calc_flag
_atom_site_refinement_flags_posn
_atom_site_refinement_flags_adp
_atom_site_refinement_flags_occupancy
_atom_site_disorder_assembly
_atom_site_disorder_group
Lu1 Lu 0.16622(6) 0.5000 0.17050(9) 0.0714(6) Uani 0.2083 2 d S TU P A 1
Lu2 Lu 0.26754(11) 0.54897(16) 0.28439(12) 0.0692(8) Uani 0.1479 1 d . U P A 1
Lu3 Lu 0.33186(13) 0.5000 0.1713(3) 0.1204(18) Uani 0.1445 2 d S TU P A 1
Lu4 Lu 0.31880(7) 0.44539(11) 0.19414(9) 0.0449(4) Uani 0.1344 1 d . U P A 1
Lu5 Lu 0.2376(5) 0.4597(5) 0.0973(3) 0.173(4) Uani 0.1129 1 d . U P A 1
Lu6 Lu 0.2802(5) 0.4191(5) 0.2486(6) 0.232(5) Uani 0.1051 1 d . U P A 1
Lu7 Lu 0.20860(18) 0.4209(3) 0.1366(3) 0.0633(9) Uani 0.0865 1 d . U P A 1
Lu8 Lu 0.1916(3) 0.4245(4) 0.1817(5) 0.109(2) Uani 0.071 1 d . U P A 1
Lu9 Lu 0.2465(2) 0.5269(4) 0.0827(3) 0.0520(11) Uani 0.0689 1 d . U P A 1
Lu10 Lu 0.2420(4) 0.4796(5) 0.2955(3) 0.100(4) Uani 0.0529 1 d . U P A 1
Lu11 Lu 0.1902(4) 0.5373(8) 0.1291(7) 0.117(4) Uani 0.044 1 d . U P A 1
C1 C 0.30831(17) 0.27257(19) 0.2295(2) 0.109(5) Uani 0.5 1 d G U P A -1
C2 C 0.31516(17) 0.3100(2) 0.2999(2) 0.115(5) Uani 0.5 1 d G U P A -1
C3 C 0.27230(18) 0.3202(2) 0.3382(2) 0.113(6) Uani 0.5 1 d G U P A -1
C4 C 0.22428(18) 0.2904(2) 0.3055(2) 0.130(6) Uani 0.5 1 d G U P A -1
C5 C 0.25261(18) 0.25871(17) 0.2421(2) 0.131(6) Uani 0.5 1 d G U P A -1
C6 C 0.22638(18) 0.25739(18) 0.1964(3) 0.123(6) Uani 0.5 1 d G U P A -1
C7 C 0.24210(18) 0.2702(2) 0.1203(2) 0.115(6) Uani 0.5 1 d G U P A -1
C8 C 0.31435(17) 0.2931(2) 0.0995(2) 0.131(6) Uani 0.5 1 d G U P A -1
C9 C 0.34496(16) 0.2913(2) 0.1682(3) 0.129(7) Uani 0.5 1 d G U P A -1
C10 C 0.38686(12) 0.3509(2) 0.1667(2) 0.117(6) Uani 0.5 1 d G U P A -1
C11 C 0.39237(11) 0.3892(2) 0.2403(2) 0.116(6) Uani 0.5 1 d G U P A -1
C12 C 0.35435(14) 0.3702(2) 0.3004(2) 0.110(6) Uani 0.5 1 d G U P A -1
C13 C 0.34396(14) 0.4352(2) 0.34947(16) 0.110(5) Uani 0.5 1 d G U P A -1
C14 C 0.29871(17) 0.4443(3) 0.39589(12) 0.134(7) Uani 0.5 1 d G U P A -1
C15 C 0.26040(18) 0.3761(2) 0.38551(15) 0.122(6) Uani 0.5 1 d G U P A -1
C16 C 0.21216(18) 0.4109(3) 0.40113(14) 0.101(5) Uani 0.5 1 d G U P A -1
C17 C 0.16730(16) 0.3840(2) 0.35935(18) 0.113(5) Uani 0.5 1 d G U P A -1
C18 C 0.17515(17) 0.3234(2) 0.3151(2) 0.123(6) Uani 0.5 1 d G U P A -1
C19 C 0.14276(15) 0.3183(2) 0.2418(2) 0.117(6) Uani 0.5 1 d G U P A -1
C20 C 0.16901(16) 0.2833(2) 0.1789(2) 0.095(5) Uani 0.5 1 d G U P A -1
C21 C 0.16062(15) 0.3164(2) 0.1100(2) 0.091(4) Uani 0.5 1 d G U P A -1
C22 C 0.21397(17) 0.3103(2) 0.0607(2) 0.097(5) Uani 0.5 1 d G U P A -1
C23 C 0.23069(17) 0.3624(3) 0.02058(16) 0.112(5) Uani 0.5 1 d G U P A -1
C24 C 0.29608(17) 0.3933(3) 0.00696(15) 0.152(7) Uani 0.5 1 d G U P A -1
C25 C 0.33887(16) 0.3495(3) 0.0510(2) 0.137(6) Uani 0.5 1 d G U P A -1
C26 C 0.38763(13) 0.3780(3) 0.0919(2) 0.163(8) Uani 0.5 1 d G U P A -1
C27 C 0.40488(12) 0.4552(3) 0.0770(2) 0.139(7) Uani 0.5 1 d G U P A -1
C28 C 0.42020(9) 0.4798(3) 0.1396(2) 0.106(6) Uani 0.5 1 d G U P A -1
C29 C 0.41364(8) 0.4595(3) 0.2102(2) 0.109(5) Uani 0.5 1 d G U P A -1
C30 C 0.40238(9) 0.5203(3) 0.2633(2) 0.121(6) Uani 0.5 1 d G U P A -1
C31 C 0.35185(14) 0.5763(2) 0.33529(18) 0.122(6) Uani 0.5 1 d G U P A -1
C32 C 0.37001(12) 0.5014(2) 0.32428(18) 0.090(4) Uani 0.5 1 d G U P A -1
C33 C 0.30661(17) 0.5885(2) 0.37872(15) 0.114(5) Uani 0.5 1 d G U P A -1
C34 C 0.27905(18) 0.5180(3) 0.40946(11) 0.092(5) Uani 0.5 1 d G U P A -1
C35 C 0.22596(18) 0.5396(3) 0.41475(11) 0.115(6) Uani 0.5 1 d G U P A -1
C36 C 0.18376(18) 0.4724(3) 0.40607(13) 0.102(5) Uani 0.5 1 d G U P A -1
C37 C 0.13610(15) 0.4837(3) 0.37047(18) 0.105(5) Uani 0.5 1 d G U P A -1
C38 C 0.12403(14) 0.4124(3) 0.3310(2) 0.125(6) Uani 0.5 1 d G U P A -1
C39 C 0.09416(11) 0.4427(3) 0.2835(2) 0.111(6) Uani 0.5 1 d G U P A -1
C40 C 0.10304(11) 0.3773(3) 0.2311(2) 0.101(5) Uani 0.5 1 d G U P A -1
C41 C 0.09605(10) 0.4084(3) 0.1577(2) 0.097(5) Uani 0.5 1 d G U P A -1
C42 C 0.12870(13) 0.3801(3) 0.0992(2) 0.092(5) Uani 0.5 1 d G U P A -1
C43 C 0.14572(14) 0.4379(3) 0.04496(18) 0.109(5) Uani 0.5 1 d G U P A -1
C44 C 0.22427(18) 0.4903(3) -0.02232(10) 0.124(5) Uani 0.5 1 d G U P A -1
C45 C 0.19457(17) 0.4264(3) 0.00568(14) 0.120(6) Uani 0.5 1 d G U P A -1
C46 C 0.28178(19) 0.5210(3) -0.02919(11) 0.128(6) Uani 0.5 1 d G U P A -1
C47 C 0.32104(18) 0.4662(3) -0.01609(13) 0.134(7) Uani 0.5 1 d G U P A -1
C48 C 0.37270(15) 0.4932(3) 0.02019(18) 0.152(6) Uani 0.5 1 d G U P A -1
C49 C 0.36235(16) 0.5596(3) 0.02450(18) 0.134(7) Uani 0.5 1 d G U P A -1
C50 C 0.39020(13) 0.5860(3) 0.0766(2) 0.116(6) Uani 0.5 1 d G U P A -1
C51 C 0.41245(10) 0.5670(3) 0.1308(2) 0.112(6) Uani 0.5 1 d G U P A -1
C52 C 0.41162(9) 0.5777(3) 0.2051(2) 0.127(6) Uani 0.5 1 d G U P A -1
C53 C 0.38445(12) 0.6370(2) 0.2266(2) 0.136(6) Uani 0.5 1 d G U P A -1
C54 C 0.35864(14) 0.6453(2) 0.2880(2) 0.095(5) Uani 0.5 1 d G U P A -1
C55 C 0.32600(16) 0.6953(2) 0.2680(2) 0.125(6) Uani 0.5 1 d G U P A -1
C56 C 0.26252(18) 0.71018(19) 0.3005(2) 0.132(6) Uani 0.5 1 d G U P A -1
C57 C 0.25931(18) 0.6596(2) 0.35855(19) 0.134(7) Uani 0.5 1 d G U P A -1
C58 C 0.20894(18) 0.6276(2) 0.37790(17) 0.120(6) Uani 0.5 1 d G U P A -1
C59 C 0.15666(16) 0.6406(2) 0.3433(2) 0.098(5) Uani 0.5 1 d G U P A -1
C60 C 0.11989(14) 0.5616(3) 0.3408(2) 0.103(5) Uani 0.5 1 d G U P A -1
C61 C 0.09134(10) 0.5741(3) 0.2636(2) 0.099(5) Uani 0.5 1 d G U P A -1
C62 C 0.07944(8) 0.4883(3) 0.2402(2) 0.102(4) Uani 0.5 1 d G U P A -1
C63 C 0.08060(8) 0.4751(3) 0.1701(2) 0.100(5) Uani 0.5 1 d G U P A -1
C64 C 0.09404(10) 0.5326(3) 0.1156(2) 0.112(5) Uani 0.5 1 d G U P A -1
C65 C 0.12553(13) 0.5105(3) 0.05366(19) 0.106(4) Uani 0.5 1 d G U P A -1
C66 C 0.15281(16) 0.5737(3) 0.02310(18) 0.152(7) Uani 0.5 1 d G U P A -1
C67 C 0.20405(18) 0.5637(3) -0.01206(13) 0.155(7) Uani 0.5 1 d G U P A -1
C68 C 0.24272(19) 0.6218(3) -0.00385(16) 0.141(6) Uani 0.5 1 d G U P A -1
C69 C 0.29417(19) 0.6291(3) 0.00096(17) 0.141(6) Uani 0.5 1 d G U P A -1
C70 C 0.31503(18) 0.5789(3) -0.00988(15) 0.126(6) Uani 0.5 1 d G U P A -1
C71 C 0.31318(18) 0.6737(3) 0.0535(2) 0.135(6) Uani 0.5 1 d G U P A -1
C72 C 0.36266(15) 0.6502(3) 0.0908(2) 0.141(7) Uani 0.5 1 d G U P A -1
C73 C 0.36584(15) 0.6777(2) 0.1570(2) 0.119(6) Uani 0.5 1 d G U P A -1
C74 C 0.31817(17) 0.72050(19) 0.1940(3) 0.122(6) Uani 0.5 1 d G U P A -1
C75 C 0.27022(18) 0.73915(18) 0.1640(3) 0.106(5) Uani 0.5 1 d G U P A -1
C76 C 0.20517(18) 0.73662(19) 0.1864(3) 0.131(6) Uani 0.5 1 d G U P A -1
C77 C 0.21108(18) 0.72577(19) 0.2632(2) 0.105(5) Uani 0.5 1 d G U P A -1
C78 C 0.16115(17) 0.6931(2) 0.2871(2) 0.110(6) Uani 0.5 1 d G U P A -1
C79 C 0.12739(14) 0.6761(2) 0.2259(3) 0.116(6) Uani 0.5 1 d G U P A -1
C80 C 0.10361(12) 0.6268(3) 0.2073(3) 0.118(6) Uani 0.5 1 d G U P A -1
C81 C 0.10436(12) 0.6096(3) 0.1371(2) 0.117(6) Uani 0.5 1 d G U P A -1
C82 C 0.14752(16) 0.6365(3) 0.0677(2) 0.154(7) Uani 0.5 1 d G U P A -1
C83 C 0.18691(17) 0.6867(2) 0.0878(2) 0.168(8) Uani 0.5 1 d G U P A -1
C84 C 0.23676(18) 0.6779(3) 0.0487(2) 0.149(6) Uani 0.5 1 d G U P A -1
C85 C 0.27110(19) 0.7138(2) 0.0898(2) 0.113(6) Uani 0.5 1 d G U P A -1
C86 C 0.15552(16) 0.7018(2) 0.1619(3) 0.144(7) Uani 0.5 1 d G U P A -1
Ni1A Ni 0.46792(2) 0.5000 0.41606(3) 0.0203(2) Uani 1 2 d S T P B 2
N1A N 0.51798(17) 0.5000 0.3324(2) 0.0243(9) Uani 1 2 d S T P B 2
N2A N 0.46649(11) 0.39139(17) 0.41482(15) 0.0226(6) Uani 1 1 d . . . B 2
N3A N 0.41630(17) 0.5000 0.4977(2) 0.0237(9) Uani 1 2 d S T P B 2
C1A C 0.5632(2) 0.3782(3) 0.1286(3) 0.0523(12) Uani 1 1 d . . . B 2
H1AA H 0.5494 0.4177 0.0988 0.078 Uiso 1 1 calc R U . B 2
H1AB H 0.5328 0.3537 0.1519 0.078 Uiso 1 1 calc R U . B 2
H1AC H 0.5828 0.3432 0.0991 0.078 Uiso 1 1 calc R U . B 2
C2A C 0.60243(18) 0.4099(3) 0.1860(2) 0.0396(10) Uani 1 1 d . . . B 2
H2AA H 0.6184 0.3693 0.2135 0.048 Uiso 1 1 calc R U . B 2
H2AB H 0.6325 0.4357 0.1620 0.048 Uiso 1 1 calc R U . B 2
C3A C 0.57427(15) 0.4624(2) 0.2370(2) 0.0304(8) Uani 1 1 d . . . B 2
C4A C 0.53916(14) 0.4397(2) 0.29650(19) 0.0260(7) Uani 1 1 d . . . B 2
C5A C 0.52815(15) 0.3668(2) 0.3127(2) 0.0281(8) Uani 1 1 d . . . B 2
H5A H 0.5451 0.3302 0.2850 0.034 Uiso 1 1 calc R U . B 2
C6A C 0.49350(14) 0.3446(2) 0.36756(19) 0.0246(7) Uani 1 1 d . . . B 2
C7A C 0.48070(15) 0.2679(2) 0.3827(2) 0.0284(8) Uani 1 1 d . . . B 2
C8A C 0.50120(17) 0.2033(2) 0.3396(2) 0.0358(9) Uani 1 1 d . . . B 2
H8AA H 0.4996 0.1589 0.3693 0.043 Uiso 1 1 calc R U . B 2
H8AB H 0.5396 0.2117 0.3270 0.043 Uiso 1 1 calc R U . B 2
C9A C 0.4679(2) 0.1905(3) 0.2709(3) 0.0539(13) Uani 1 1 d . . . B 2
H9AA H 0.4725 0.2321 0.2390 0.081 Uiso 1 1 calc R U . B 2
H9AB H 0.4294 0.1851 0.2828 0.081 Uiso 1 1 calc R U . B 2
H9AC H 0.4807 0.1462 0.2474 0.081 Uiso 1 1 calc R U . B 2
C10A C 0.44621(15) 0.2680(2) 0.4408(2) 0.0275(8) Uani 1 1 d . . . B 2
C11A C 0.42010(16) 0.2031(2) 0.4779(2) 0.0342(9) Uani 1 1 d . . . B 2
H11A H 0.4192 0.2123 0.5296 0.041 Uiso 1 1 calc R U . B 2
H11B H 0.4426 0.1593 0.4698 0.041 Uiso 1 1 calc R U . B 2
C12A C 0.3611(2) 0.1883(3) 0.4507(3) 0.0564(13) Uani 1 1 d . . . B 2
H12A H 0.3618 0.1791 0.3996 0.085 Uiso 1 1 calc R U . B 2
H12B H 0.3383 0.2308 0.4604 0.085 Uiso 1 1 calc R U . B 2
H12C H 0.3462 0.1458 0.4752 0.085 Uiso 1 1 calc R U . B 2
C13A C 0.43785(14) 0.3449(2) 0.45959(19) 0.0246(7) Uani 1 1 d . . . B 2
C14A C 0.40410(14) 0.3669(2) 0.51553(19) 0.0260(7) Uani 1 1 d . . . B 2
H14A H 0.3876 0.3303 0.5436 0.031 Uiso 1 1 calc R U . B 2
C15A C 0.39336(14) 0.4399(2) 0.53227(19) 0.0240(7) Uani 1 1 d . . . B 2
C16A C 0.35593(14) 0.4623(2) 0.58871(19) 0.0263(7) Uani 1 1 d . . . B 2
C17A C 0.32251(16) 0.4106(2) 0.6345(2) 0.0319(8) Uani 1 1 d . . . B 2
H17A H 0.3134 0.4353 0.6795 0.038 Uiso 1 1 calc R U . B 2
H17B H 0.3449 0.3675 0.6462 0.038 Uiso 1 1 calc R U . B 2
C18A C 0.26936(19) 0.3849(3) 0.5982(3) 0.0502(12) Uani 1 1 d . . . B 2
H18A H 0.2465 0.4271 0.5875 0.075 Uiso 1 1 calc R U . B 2
H18B H 0.2499 0.3520 0.6301 0.075 Uiso 1 1 calc R U . B 2
H18C H 0.2781 0.3593 0.5542 0.075 Uiso 1 1 calc R U . B 2
C1B C 0.3805(8) 0.0000 0.1774(9) 0.190(12) Uani 1 2 d DS T P C 3
H1BA H 0.4177 0.0000 0.1644 0.229 Uiso 1 2 calc R U P C 3
C2B C 0.3472(6) 0.0692(6) 0.1891(8) 0.161(6) Uani 1 1 d D . . C 3
H2B H 0.3642 0.1153 0.1850 0.193 Uiso 1 1 calc R U . C 3
C3B C 0.2944(5) 0.0653(5) 0.2050(5) 0.103(3) Uani 1 1 d . . . C 3
H3B H 0.2735 0.1077 0.2140 0.124 Uiso 1 1 calc R U . C 3
C4B C 0.2728(7) 0.0000 0.2074(6) 0.113(5) Uani 1 2 d S T P C 3
H4B H 0.2345 0.0000 0.2118 0.136 Uiso 1 2 calc R U P C 3
C1C C 0.4816(4) 0.2391(7) 0.0285(7) 0.136(4) Uani 1 1 d . . . D 4
H1C H 0.4711 0.2853 0.0462 0.163 Uiso 1 1 calc R U . D 4
C2C C 0.4610(3) 0.1848(6) 0.0584(4) 0.090(2) Uani 1 1 d . . . D 4
H2C H 0.4351 0.1888 0.0953 0.108 Uiso 1 1 calc R U . D 4
C3C C 0.4800(4) 0.1162(7) 0.0321(7) 0.149(5) Uani 1 1 d . . . D 4
H3C H 0.4685 0.0720 0.0530 0.179 Uiso 1 1 calc R U . D 4
loop_
_atom_site_aniso_label
_atom_site_aniso_U_11
_atom_site_aniso_U_22
_atom_site_aniso_U_33
_atom_site_aniso_U_23
_atom_site_aniso_U_13
_atom_site_aniso_U_12
Lu1 0.0248(7) 0.145(2) 0.0439(8) 0.000 -0.0096(6) 0.000
Lu2 0.0685(14) 0.0891(19) 0.0498(11) -0.0457(12) -0.0312(10) 0.0309(13)
Lu3 0.0316(15) 0.216(6) 0.113(3) 0.000 -0.0153(16) 0.000
Lu4 0.0310(8) 0.0659(11) 0.0378(8) -0.0099(7) -0.0099(6) 0.0329(7)
Lu5 0.275(8) 0.202(7) 0.043(3) -0.055(4) -0.031(4) -0.018(6)
Lu6 0.293(10) 0.163(7) 0.238(9) 0.051(6) -0.150(8) 0.036(7)
Lu7 0.059(2) 0.066(2) 0.065(2) -0.0389(19) -0.0163(17) -0.0103(18)
Lu8 0.080(4) 0.123(5) 0.124(5) 0.026(5) -0.047(4) -0.068(3)
Lu9 0.060(2) 0.073(3) 0.0233(19) 0.0075(15) -0.0071(14) -0.0161(16)
Lu10 0.116(5) 0.138(9) 0.046(3) 0.035(3) 0.014(3) 0.076(6)
Lu11 0.066(5) 0.155(7) 0.129(8) 0.100(6) -0.067(5) -0.057(5)
C1 0.130(12) 0.043(7) 0.153(13) -0.007(8) -0.052(10) 0.036(8)
C2 0.136(12) 0.070(9) 0.141(12) 0.043(9) -0.041(10) 0.028(9)
C3 0.176(14) 0.067(9) 0.096(11) 0.040(9) 0.015(11) 0.038(10)
C4 0.154(14) 0.073(10) 0.165(13) 0.087(9) 0.031(12) 0.015(10)
C5 0.165(14) 0.044(7) 0.183(14) 0.025(10) -0.039(13) 0.021(10)
C6 0.152(13) 0.033(7) 0.185(14) 0.005(10) -0.048(12) 0.010(9)
C7 0.149(12) 0.044(7) 0.152(12) -0.046(9) -0.042(11) 0.009(8)
C8 0.134(12) 0.109(11) 0.149(12) -0.085(9) -0.040(10) 0.088(10)
C9 0.122(12) 0.106(12) 0.157(13) -0.034(10) -0.036(11) 0.097(10)
C10 0.092(9) 0.151(13) 0.107(10) -0.057(9) -0.044(8) 0.107(9)
C11 0.058(8) 0.135(12) 0.154(12) 0.023(11) -0.058(8) 0.046(8)
C12 0.124(11) 0.065(7) 0.141(11) 0.007(8) -0.115(9) 0.019(8)
C13 0.122(11) 0.088(9) 0.119(10) 0.043(8) -0.099(9) -0.045(9)
C14 0.174(14) 0.142(14) 0.087(10) 0.031(10) -0.078(10) 0.000(12)
C15 0.182(14) 0.110(11) 0.074(9) 0.064(9) -0.012(10) -0.001(11)
C16 0.157(13) 0.110(11) 0.036(6) 0.041(7) 0.023(8) 0.010(10)
C17 0.128(10) 0.131(11) 0.081(9) 0.054(8) 0.041(8) -0.010(10)
C18 0.136(12) 0.093(11) 0.139(12) 0.070(10) 0.032(11) -0.033(10)
C19 0.118(11) 0.093(10) 0.139(12) 0.067(9) -0.015(10) -0.061(9)
C20 0.069(8) 0.038(6) 0.177(13) 0.009(8) -0.047(9) -0.014(6)
C21 0.083(8) 0.088(9) 0.101(9) -0.010(8) -0.031(8) -0.057(7)
C22 0.123(11) 0.067(8) 0.103(10) -0.058(8) -0.016(9) -0.017(8)
C23 0.163(13) 0.103(11) 0.070(9) -0.033(9) -0.029(9) -0.003(11)
C24 0.182(14) 0.171(14) 0.102(11) -0.078(11) 0.019(11) 0.041(13)
C25 0.114(11) 0.183(14) 0.114(11) -0.119(10) -0.044(9) 0.068(11)
C26 0.117(13) 0.204(16) 0.169(14) -0.055(14) -0.007(12) 0.065(13)
C27 0.089(10) 0.196(16) 0.131(12) 0.006(12) 0.056(10) 0.052(11)
C28 0.043(5) 0.172(17) 0.102(8) 0.015(10) 0.015(6) 0.019(7)
C29 0.037(6) 0.170(14) 0.119(11) -0.014(10) -0.017(8) 0.012(7)
C30 0.077(8) 0.164(15) 0.121(10) 0.027(9) -0.060(7) -0.047(8)
C31 0.122(11) 0.159(12) 0.086(9) 0.027(10) -0.041(9) -0.087(11)
C32 0.073(6) 0.096(7) 0.102(7) 0.029(13) -0.072(6) -0.045(11)
C33 0.109(11) 0.166(13) 0.068(8) -0.057(9) -0.036(8) 0.010(10)
C34 0.097(8) 0.145(15) 0.033(4) 0.001(6) -0.021(5) -0.037(8)
C35 0.107(10) 0.198(14) 0.041(6) -0.038(8) 0.002(7) -0.003(10)
C36 0.116(9) 0.153(13) 0.038(5) 0.007(6) 0.035(6) 0.003(8)
C37 0.097(8) 0.138(13) 0.080(7) 0.009(8) 0.052(6) -0.023(9)
C38 0.101(11) 0.154(13) 0.121(12) 0.044(10) 0.054(10) -0.034(10)
C39 0.065(9) 0.150(13) 0.118(11) 0.039(10) 0.049(8) -0.024(9)
C40 0.070(9) 0.105(11) 0.130(11) 0.007(9) 0.042(8) -0.038(9)
C41 0.063(8) 0.109(11) 0.118(10) 0.022(10) -0.019(8) -0.026(8)
C42 0.074(8) 0.132(12) 0.068(8) -0.012(9) -0.018(7) -0.046(8)
C43 0.101(10) 0.142(12) 0.083(9) -0.005(9) -0.052(8) -0.014(10)
C44 0.163(11) 0.145(12) 0.063(6) 0.009(11) -0.043(8) -0.018(13)
C45 0.129(12) 0.167(13) 0.064(8) -0.024(10) -0.049(9) -0.015(12)
C46 0.163(12) 0.177(16) 0.045(6) 0.014(9) 0.000(8) -0.005(11)
C47 0.154(13) 0.188(16) 0.060(9) -0.027(9) 0.037(9) 0.039(11)
C48 0.140(11) 0.221(16) 0.095(9) 0.015(15) 0.071(8) 0.029(16)
C49 0.128(12) 0.176(15) 0.098(10) 0.061(10) 0.067(9) -0.001(11)
C50 0.076(10) 0.123(12) 0.148(13) 0.042(11) 0.065(9) -0.023(9)
C51 0.057(8) 0.179(15) 0.098(10) 0.027(11) 0.009(8) -0.043(9)
C52 0.067(10) 0.170(15) 0.143(12) -0.001(12) -0.011(10) -0.071(9)
C53 0.111(11) 0.139(12) 0.159(12) 0.001(11) -0.012(11) -0.065(10)
C54 0.100(11) 0.103(10) 0.082(9) -0.005(9) -0.020(9) -0.071(9)
C55 0.128(11) 0.098(11) 0.148(12) -0.028(10) -0.035(10) -0.053(9)
C56 0.150(13) 0.098(12) 0.147(13) -0.068(10) -0.042(12) 0.012(11)
C57 0.169(14) 0.141(14) 0.093(11) -0.062(11) -0.030(11) 0.020(12)
C58 0.124(11) 0.154(13) 0.081(10) -0.072(10) -0.008(9) 0.026(11)
C59 0.102(10) 0.091(10) 0.100(10) -0.031(9) 0.013(9) 0.043(9)
C60 0.084(10) 0.124(12) 0.103(10) 0.014(10) 0.048(9) 0.011(9)
C61 0.056(8) 0.108(10) 0.132(11) 0.026(10) 0.007(8) 0.028(8)
C62 0.051(5) 0.118(11) 0.138(10) 0.029(10) 0.008(6) -0.035(8)
C63 0.082(8) 0.106(11) 0.111(9) -0.001(8) -0.016(8) -0.018(7)
C64 0.119(11) 0.110(10) 0.106(10) 0.005(9) -0.031(9) 0.013(9)
C65 0.123(9) 0.112(11) 0.083(7) 0.016(10) -0.057(7) 0.002(11)
C66 0.169(15) 0.171(15) 0.115(12) 0.033(12) -0.063(12) 0.020(14)
C67 0.194(15) 0.178(15) 0.093(11) 0.038(12) -0.063(12) -0.003(14)
C68 0.190(14) 0.152(13) 0.081(9) 0.083(9) -0.028(11) -0.020(12)
C69 0.188(14) 0.129(12) 0.106(10) 0.099(9) 0.019(11) -0.006(11)
C70 0.168(13) 0.152(14) 0.059(8) 0.064(9) 0.039(9) 0.011(11)
C71 0.159(13) 0.104(11) 0.143(12) 0.084(10) 0.031(11) -0.004(10)
C72 0.122(12) 0.117(12) 0.184(14) 0.068(11) 0.048(12) -0.046(10)
C73 0.110(11) 0.081(10) 0.165(14) 0.028(10) 0.025(12) -0.054(10)
C74 0.116(12) 0.070(10) 0.181(14) -0.005(10) -0.004(12) -0.054(9)
C75 0.103(10) 0.028(6) 0.186(13) 0.031(8) -0.033(10) -0.023(7)
C76 0.125(12) 0.055(10) 0.212(14) 0.014(11) -0.040(12) 0.047(9)
C77 0.129(11) 0.041(7) 0.145(12) -0.034(8) -0.008(11) 0.037(8)
C78 0.110(10) 0.084(10) 0.138(12) -0.043(9) -0.018(10) 0.057(9)
C79 0.070(9) 0.105(12) 0.174(14) -0.027(11) -0.021(10) 0.055(9)
C80 0.088(11) 0.118(13) 0.147(13) -0.020(11) -0.026(10) 0.042(10)
C81 0.123(13) 0.109(11) 0.118(12) 0.015(11) -0.037(11) 0.048(11)
C82 0.180(15) 0.127(13) 0.155(14) 0.052(12) -0.091(12) 0.031(12)
C83 0.180(16) 0.132(14) 0.192(15) 0.079(13) -0.028(14) 0.041(13)
C84 0.175(13) 0.122(12) 0.148(12) 0.088(10) -0.002(11) 0.009(11)
C85 0.120(12) 0.064(9) 0.154(13) 0.077(9) 0.007(11) -0.006(8)
C86 0.143(13) 0.099(12) 0.191(15) 0.029(12) -0.030(13) 0.077(11)
Ni1A 0.0162(3) 0.0209(3) 0.0239(3) 0.000 -0.0001(2) 0.000
N1A 0.020(2) 0.024(2) 0.028(2) 0.000 -0.0015(16) 0.000
N2A 0.0182(14) 0.0237(15) 0.0260(14) -0.0006(11) -0.0011(11) 0.0002(11)
N3A 0.021(2) 0.025(2) 0.025(2) 0.000 -0.0041(16) 0.000
C1A 0.061(3) 0.055(3) 0.041(2) -0.013(2) 0.010(2) -0.001(2)
C2A 0.038(2) 0.042(2) 0.039(2) -0.0035(18) 0.0158(18) 0.0022(18)
C3A 0.0250(18) 0.037(2) 0.0289(18) -0.0013(16) 0.0038(14) 0.0006(16)
C4A 0.0217(17) 0.0328(19) 0.0234(17) 0.0000(14) 0.0014(13) 0.0013(14)
C5A 0.0243(17) 0.0304(19) 0.0295(18) -0.0054(15) 0.0010(14) 0.0044(15)
C6A 0.0200(16) 0.0260(18) 0.0279(18) -0.0003(14) -0.0024(13) 0.0022(13)
C7A 0.0242(17) 0.0265(19) 0.0344(19) -0.0023(15) -0.0034(14) 0.0033(14)
C8A 0.039(2) 0.0253(19) 0.044(2) -0.0052(17) 0.0019(17) 0.0039(16)
C9A 0.059(3) 0.046(3) 0.056(3) -0.022(2) -0.008(2) 0.009(2)
C10A 0.0239(17) 0.0238(18) 0.0348(19) 0.0011(15) -0.0047(14) -0.0007(14)
C11A 0.035(2) 0.0236(19) 0.044(2) 0.0022(16) 0.0010(17) -0.0025(16)
C12A 0.049(3) 0.062(3) 0.058(3) 0.007(2) -0.002(2) -0.030(2)
C13A 0.0187(16) 0.0240(17) 0.0312(18) -0.0004(14) -0.0033(13) -0.0013(13)
C14A 0.0222(17) 0.0267(18) 0.0291(18) 0.0046(14) -0.0013(14) -0.0021(14)
C15A 0.0183(16) 0.0286(18) 0.0251(17) 0.0021(14) -0.0044(13) -0.0029(13)
C16A 0.0189(16) 0.0318(18) 0.0281(18) -0.0002(15) 0.0004(13) 0.0001(14)
C17A 0.0296(19) 0.036(2) 0.0305(19) 0.0035(16) 0.0084(15) -0.0009(16)
C18A 0.036(2) 0.057(3) 0.058(3) 0.016(2) -0.001(2) -0.017(2)
C1B 0.101(12) 0.38(4) 0.093(11) 0.000 -0.023(9) 0.000
C2B 0.209(16) 0.108(9) 0.165(12) 0.017(8) -0.074(12) -0.076(10)
C3B 0.132(8) 0.076(5) 0.101(6) 0.002(4) 0.022(6) -0.001(5)
C4B 0.165(13) 0.104(10) 0.071(7) 0.000 0.041(8) 0.000
C1C 0.095(8) 0.132(9) 0.180(13) -0.050(9) -0.018(7) -0.001(6)
C2C 0.073(5) 0.132(8) 0.064(4) -0.001(5) 0.003(3) -0.024(5)
C3C 0.115(9) 0.145(10) 0.185(14) 0.080(9) -0.074(8) -0.042(7)
loop_
_atom_type_symbol
_atom_type_description
_atom_type_scat_dispersion_real
_atom_type_scat_dispersion_imag
_atom_type_scat_source
C C 0.0033 0.0016 'International Tables Vol C Tables 4.2.6.8 and 6.1.1.4'
H H 0.0000 0.0000 'International Tables Vol C Tables 4.2.6.8 and 6.1.1.4'
Lu Lu -0.4720 5.8584 'International Tables Vol C Tables 4.2.6.8 and 6.1.1.4'
N N 0.0061 0.0033 'International Tables Vol C Tables 4.2.6.8 and 6.1.1.4'
Ni Ni 0.3393 1.1124 'International Tables Vol C Tables 4.2.6.8 and 6.1.1.4'
loop_
_geom_angle_atom_site_label_1
_geom_angle_atom_site_label_2
_geom_angle_atom_site_label_3
_geom_angle
_geom_angle_site_symmetry_1
_geom_angle_site_symmetry_3
Lu11 Lu1 Lu11 69.9(18) . 6_565
Lu11 Lu1 Lu8 113.9(8) . .
Lu11 Lu1 Lu8 51.0(8) 6_565 .
Lu11 Lu1 Lu8 51.0(8) . 6_565
Lu11 Lu1 Lu8 113.9(8) 6_565 6_565
Lu8 Lu1 Lu8 129.2(3) . 6_565
Lu11 Lu1 Lu7 86.9(9) . .
Lu11 Lu1 Lu7 21.6(8) 6_565 .
Lu8 Lu1 Lu7 29.8(3) . .
Lu8 Lu1 Lu7 120.9(3) 6_565 .
Lu11 Lu1 Lu7 21.6(8) . 6_565
Lu11 Lu1 Lu7 86.9(9) 6_565 6_565
Lu8 Lu1 Lu7 120.9(3) . 6_565
Lu8 Lu1 Lu7 29.8(3) 6_565 6_565
Lu7 Lu1 Lu7 99.7(3) . 6_565
Lu11 Lu1 C64 86.3(4) . .
Lu11 Lu1 C64 104.8(4) 6_565 .
Lu8 Lu1 C64 131.0(2) . .
Lu8 Lu1 C64 98.7(2) 6_565 .
Lu7 Lu1 C64 120.53(19) . .
Lu7 Lu1 C64 94.58(17) 6_565 .
Lu11 Lu1 C63 127.2(4) . .
Lu11 Lu1 C63 111.2(5) 6_565 .
Lu8 Lu1 C63 101.9(2) . .
Lu8 Lu1 C63 126.1(3) 6_565 .
Lu7 Lu1 C63 112.00(18) . .
Lu7 Lu1 C63 134.33(18) 6_565 .
C64 Lu1 C63 41.2 . .
Lu11 Lu1 Lu5 21.2(7) . 6_565
Lu11 Lu1 Lu5 55.0(8) 6_565 6_565
Lu8 Lu1 Lu5 93.4(4) . 6_565
Lu8 Lu1 Lu5 59.5(4) 6_565 6_565
Lu7 Lu1 Lu5 68.4(3) . 6_565
Lu7 Lu1 Lu5 32.0(3) 6_565 6_565
C64 Lu1 Lu5 104.4(2) . 6_565
C63 Lu1 Lu5 142.7(2) . 6_565
Lu11 Lu1 Lu5 55.0(8) . .
Lu11 Lu1 Lu5 21.2(7) 6_565 .
Lu8 Lu1 Lu5 59.5(4) . .
Lu8 Lu1 Lu5 93.4(4) 6_565 .
Lu7 Lu1 Lu5 32.0(3) . .
Lu7 Lu1 Lu5 68.4(3) 6_565 .
C64 Lu1 Lu5 115.2(2) . .
C63 Lu1 Lu5 131.5(2) . .
Lu5 Lu1 Lu5 36.6(5) 6_565 .
Lu11 Lu1 C41 133.4(6) . .
Lu11 Lu1 C41 83.7(7) 6_565 .
Lu8 Lu1 C41 71.1(2) . .
Lu8 Lu1 C41 158.5(2) 6_565 .
Lu7 Lu1 C41 80.08(16) . .
Lu7 Lu1 C41 152.9(2) 6_565 .
C64 Lu1 C41 63.62(7) . .
C63 Lu1 C41 32.4 . .
Lu5 Lu1 C41 133.9(2) 6_565 .
Lu5 Lu1 C41 104.9(3) . .
Lu11 Lu1 C65 64.2(5) . .
Lu11 Lu1 C65 69.9(5) 6_565 .
Lu8 Lu1 C65 111.3(3) . .
Lu8 Lu1 C65 102.7(3) 6_565 .
Lu7 Lu1 C65 88.9(2) . .
Lu7 Lu1 C65 81.94(19) 6_565 .
C64 Lu1 C65 36.7 . .
C63 Lu1 C65 67.25(7) . .
Lu5 Lu1 C65 75.5(2) 6_565 .
Lu5 Lu1 C65 78.5(2) . .
C41 Lu1 C65 70.91(8) . .
Lu10 Lu2 Lu6 143.8(9) 6_565 6_565
Lu10 Lu2 Lu10 24.1(7) 6_565 .
Lu6 Lu2 Lu10 143.0(6) 6_565 .
Lu10 Lu2 Lu2 51.6(7) 6_565 6_565
Lu6 Lu2 Lu2 128.3(7) 6_565 6_565
Lu10 Lu2 Lu2 27.5(3) . 6_565
Lu10 Lu2 Lu4 132.3(5) 6_565 6_565
Lu6 Lu2 Lu4 37.1(8) 6_565 6_565
Lu10 Lu2 Lu4 114.9(3) . 6_565
Lu2 Lu2 Lu4 92.79(10) 6_565 6_565
Lu10 Lu2 C33 109.6(5) 6_565 .
Lu6 Lu2 C33 103.5(6) 6_565 .
Lu10 Lu2 C33 112.0(4) . .
Lu2 Lu2 C33 109.79(15) 6_565 .
Lu4 Lu2 C33 112.42(19) 6_565 .
Lu10 Lu2 C31 133.7(7) 6_565 .
Lu6 Lu2 C31 82.3(6) 6_565 .
Lu10 Lu2 C31 121.2(4) . .
Lu2 Lu2 C31 102.38(13) 6_565 .
Lu4 Lu2 C31 77.81(15) 6_565 .
C33 Lu2 C31 36.16(5) . .
Lu10 Lu2 C34 72.5(6) 6_565 .
Lu6 Lu2 C34 142.7(6) 6_565 .
Lu10 Lu2 C34 72.6(3) . .
Lu2 Lu2 C34 76.52(13) 6_565 .
Lu4 Lu2 C34 135.86(15) 6_565 .
C33 Lu2 C34 39.48(5) . .
C31 Lu2 C34 63.51(7) . .
Lu10 Lu2 C57 107.9(6) 6_565 .
Lu6 Lu2 C57 85.5(7) 6_565 .
Lu10 Lu2 C57 127.5(3) . .
Lu2 Lu2 C57 145.19(13) 6_565 .
Lu4 Lu2 C57 117.5(2) 6_565 .
C33 Lu2 C57 44.88(7) . .
C31 Lu2 C57 70.53(10) . .
C34 Lu2 C57 69.84(8) . .
Lu10 Lu2 Lu6 64.4(7) 6_565 .
Lu6 Lu2 Lu6 111.0(10) 6_565 .
Lu10 Lu2 Lu6 41.2(4) . .
Lu2 Lu2 Lu6 17.3(3) 6_565 .
Lu4 Lu2 Lu6 75.9(4) 6_565 .
C33 Lu2 Lu6 119.4(2) . .
C31 Lu2 Lu6 101.8(3) . .
C34 Lu2 Lu6 91.4(2) . .
C57 Lu2 Lu6 161.2(3) . .
Lu10 Lu2 C35 56.2(5) 6_565 .
Lu6 Lu2 C35 145.4(7) 6_565 .
Lu10 Lu2 C35 68.8(3) . .
Lu2 Lu2 C35 86.29(12) 6_565 .
Lu4 Lu2 C35 166.08(15) 6_565 .
C33 Lu2 C35 55.36(7) . .
C31 Lu2 C35 88.81(9) . .
C34 Lu2 C35 30.7 . .
C57 Lu2 C35 60.08(7) . .
Lu6 Lu2 C35 103.6(3) . .
Lu10 Lu2 C58 76.8(6) 6_565 .
Lu6 Lu2 C58 108.1(8) 6_565 .
Lu10 Lu2 C58 98.3(3) . .
Lu2 Lu2 C58 122.35(13) 6_565 .
Lu4 Lu2 C58 144.77(19) 6_565 .
C33 Lu2 C58 61.12(8) . .
C31 Lu2 C58 95.35(10) . .
C34 Lu2 C58 63.56(7) . .
C57 Lu2 C58 31.5 . .
Lu6 Lu2 C58 139.0(4) . .
C35 Lu2 C58 39.4 . .
Lu4 Lu3 Lu4 123.6(5) 6_565 .
Lu4 Lu3 C29 114.8(3) 6_565 .
Lu4 Lu3 C29 80.8(2) . .
Lu4 Lu3 C28 120.8(2) 6_565 .
Lu4 Lu3 C28 103.1(2) . .
C29 Lu3 C28 35.62(6) . .
Lu4 Lu3 Lu6 99.4(4) 6_565 .
Lu4 Lu3 Lu6 24.5(3) . .
C29 Lu3 Lu6 94.1(3) . .
C28 Lu3 Lu6 123.7(3) . .
Lu4 Lu3 Lu6 24.5(3) 6_565 6_565
Lu4 Lu3 Lu6 99.4(4) . 6_565
C29 Lu3 Lu6 118.1(3) . 6_565
C28 Lu3 Lu6 138.8(3) . 6_565
Lu6 Lu3 Lu6 75.0(6) . 6_565
Lu4 Lu3 C51 84.56(18) 6_565 .
Lu4 Lu3 C51 142.0(2) . .
C29 Lu3 C51 63.13(10) . .
C28 Lu3 C51 39.75(7) . .
Lu6 Lu3 C51 155.9(3) . .
Lu6 Lu3 C51 107.7(3) 6_565 .
Lu4 Lu3 C30 78.5(2) 6_565 .
Lu4 Lu3 C30 93.8(3) . .
C29 Lu3 C30 37.20(7) . .
C28 Lu3 C30 62.82(10) . .
Lu6 Lu3 C30 92.3(3) . .
Lu6 Lu3 C30 81.8(3) 6_565 .
C51 Lu3 C30 65.02(9) . .
Lu4 Lu3 C52 67.97(18) 6_565 .
Lu4 Lu3 C52 128.9(3) . .
C29 Lu3 C52 53.90(8) . .
C28 Lu3 C52 54.14(8) . .
Lu6 Lu3 C52 127.2(3) . .
Lu6 Lu3 C52 85.0(3) 6_565 .
C51 Lu3 C52 33.0 . .
C30 Lu3 C52 35.98(6) . .
Lu4 Lu3 C27 135.8(3) 6_565 .
Lu4 Lu3 C27 99.9(2) . .
C29 Lu3 C27 60.89(10) . .
C28 Lu3 C27 29.64(6) . .
Lu6 Lu3 C27 124.4(3) . .
Lu6 Lu3 C27 160.2(3) 6_565 .
C51 Lu3 C27 53.16(9) . .
C30 Lu3 C27 92.35(12) . .
C52 Lu3 C27 79.36(12) . .
Lu4 Lu3 Lu9 100.0(2) 6_565 6_565
Lu4 Lu3 Lu9 81.6(2) . 6_565
C29 Lu3 Lu9 145.2(2) . 6_565
C28 Lu3 Lu9 122.8(3) . 6_565
Lu6 Lu3 Lu9 81.5(3) . 6_565
Lu6 Lu3 Lu9 94.2(3) 6_565 6_565
C51 Lu3 Lu9 121.4(3) . 6_565
C30 Lu3 Lu9 173.4(3) . 6_565
C52 Lu3 Lu9 149.3(2) . 6_565
C27 Lu3 Lu9 93.2(2) . 6_565
Lu4 Lu3 Lu9 81.6(2) 6_565 .
Lu4 Lu3 Lu9 100.0(2) . .
C29 Lu3 Lu9 160.1(3) . .
C28 Lu3 Lu9 126.9(3) . .
Lu6 Lu3 Lu9 94.2(3) . .
Lu6 Lu3 Lu9 81.5(3) 6_565 .
C51 Lu3 Lu9 109.9(2) . .
C30 Lu3 Lu9 159.83(19) . .
C52 Lu3 Lu9 130.81(19) . .
C27 Lu3 Lu9 99.6(2) . .
Lu9 Lu3 Lu9 20.9(3) 6_565 .
Lu3 Lu4 Lu6 137.0(5) . .
Lu3 Lu4 Lu4 28.2(2) . 6_565
Lu6 Lu4 Lu4 109.0(4) . 6_565
Lu3 Lu4 Lu2 115.4(3) . 6_565
Lu6 Lu4 Lu2 22.7(4) . 6_565
Lu4 Lu4 Lu2 87.21(10) 6_565 6_565
Lu3 Lu4 C11 108.7(2) . .
Lu6 Lu4 C11 95.8(4) . .
Lu4 Lu4 C11 117.21(13) 6_565 .
Lu2 Lu4 C11 101.08(15) 6_565 .
Lu3 Lu4 C29 70.9(2) . .
Lu6 Lu4 C29 125.6(3) . .
Lu4 Lu4 C29 83.72(12) 6_565 .
Lu2 Lu4 C29 118.73(14) 6_565 .
C11 Lu4 C29 37.9 . .
Lu3 Lu4 C10 110.4(2) . .
Lu6 Lu4 C10 110.7(4) . .
Lu4 Lu4 C10 134.69(12) 6_565 .
Lu2 Lu4 C10 127.41(16) 6_565 .
C11 Lu4 C10 38.3 . .
C29 Lu4 C10 55.54(6) . .
Lu3 Lu4 C12 132.0(3) . .
Lu6 Lu4 C12 60.4(3) . .
Lu4 Lu4 C12 122.34(11) 6_565 .
Lu2 Lu4 C12 66.78(13) 6_565 .
C11 Lu4 C12 35.6 . .
C29 Lu4 C12 68.17(7) . .
C10 Lu4 C12 63.77(8) . .
Lu3 Lu4 Lu5 82.5(3) . .
Lu6 Lu4 Lu5 91.4(4) . .
Lu4 Lu4 Lu5 84.4(2) 6_565 .
Lu2 Lu4 Lu5 95.5(2) 6_565 .
C11 Lu4 Lu5 153.1(2) . .
C29 Lu4 Lu5 143.0(3) . .
C10 Lu4 Lu5 115.2(2) . .
C12 Lu4 Lu5 145.0(3) . .
Lu3 Lu4 Lu10 104.8(3) . .
Lu6 Lu4 Lu10 32.2(5) . .
Lu4 Lu4 Lu10 76.9(2) 6_565 .
Lu2 Lu4 Lu10 13.08(15) 6_565 .
C11 Lu4 Lu10 112.80(19) . .
C29 Lu4 Lu10 124.3(2) . .
C10 Lu4 Lu10 140.4(2) . .
C12 Lu4 Lu10 79.42(17) . .
Lu5 Lu4 Lu10 86.5(3) . .
Lu3 Lu4 C28 53.4(2) . .
Lu6 Lu4 C28 155.6(3) . .
Lu4 Lu4 C28 76.83(11) 6_565 .
Lu2 Lu4 C28 145.40(13) 6_565 .
C11 Lu4 C28 61.65(6) . .
C29 Lu4 C28 30.1 . .
C10 Lu4 C28 58.06(6) . .
C12 Lu4 C28 96.12(8) . .
Lu5 Lu4 C28 112.9(2) . .
Lu10 Lu4 C28 145.3(2) . .
Lu3 Lu4 C30 62.2(2) . .
Lu6 Lu4 C30 108.1(4) . .
Lu4 Lu4 C30 60.49(9) 6_565 .
Lu2 Lu4 C30 92.35(12) 6_565 .
C11 Lu4 C30 57.08(6) . .
C29 Lu4 C30 33.1 . .
C10 Lu4 C30 86.85(8) . .
C12 Lu4 C30 69.82(7) . .
Lu5 Lu4 C30 143.6(2) . .
Lu10 Lu4 C30 94.0(2) . .
C28 Lu4 C30 53.07(6) . .
Lu9 Lu5 Lu7 175(2) 6_565 .
Lu9 Lu5 Lu9 39.2(16) 6_565 .
Lu7 Lu5 Lu9 140.5(9) . .
Lu9 Lu5 Lu11 136(3) 6_565 6_565
Lu7 Lu5 Lu11 41.0(7) . 6_565
Lu9 Lu5 Lu11 102.1(12) . 6_565
Lu9 Lu5 Lu5 55.2(18) 6_565 6_565
Lu7 Lu5 Lu5 124.7(5) . 6_565
Lu9 Lu5 Lu5 16.0(5) . 6_565
Lu11 Lu5 Lu5 87.6(9) 6_565 6_565
Lu9 Lu5 Lu11 95(2) 6_565 .
Lu7 Lu5 Lu11 83.7(6) . .
Lu9 Lu5 Lu11 57.5(6) . .
Lu11 Lu5 Lu11 45.0(10) 6_565 .
Lu5 Lu5 Lu11 42.7(4) 6_565 .
Lu9 Lu5 Lu8 163(2) 6_565 .
Lu7 Lu5 Lu8 18.0(3) . .
Lu9 Lu5 Lu8 124.2(7) . .
Lu11 Lu5 Lu8 33.9(7) 6_565 .
Lu5 Lu5 Lu8 108.3(4) 6_565 .
Lu11 Lu5 Lu8 70.1(4) . .
Lu9 Lu5 C45 83.9(15) 6_565 .
Lu7 Lu5 C45 91.9(6) . .
Lu9 Lu5 C45 100.8(6) . .
Lu11 Lu5 C45 86.6(7) 6_565 .
Lu5 Lu5 C45 106.8(3) 6_565 .
Lu11 Lu5 C45 99.4(6) . .
Lu8 Lu5 C45 105.3(5) . .
Lu9 Lu5 C23 94.4(16) 6_565 .
Lu7 Lu5 C23 83.6(5) . .
Lu9 Lu5 C23 128.5(6) . .
Lu11 Lu5 C23 104.7(7) 6_565 .
Lu5 Lu5 C23 140.9(2) 6_565 .
Lu11 Lu5 C23 136.1(6) . .
Lu8 Lu5 C23 101.6(5) . .
C45 Lu5 C23 39.41(13) . .
Lu9 Lu5 C44 46.7(15) 6_565 .
Lu7 Lu5 C44 128.8(6) . .
Lu9 Lu5 C44 65.5(5) . .
Lu11 Lu5 C44 107.8(9) 6_565 .
Lu5 Lu5 C44 76.1(3) 6_565 .
Lu11 Lu5 C44 92.2(6) . .
Lu8 Lu5 C44 137.9(6) . .
C45 Lu5 C44 38.34(11) . .
C23 Lu5 C44 64.73(15) . .
Lu9 Lu5 Lu1 125(2) 6_565 .
Lu7 Lu5 Lu1 53.5(4) . .
Lu9 Lu5 Lu1 87.3(6) . .
Lu11 Lu5 Lu1 19.2(5) 6_565 .
Lu5 Lu5 Lu1 71.7(2) 6_565 .
Lu11 Lu5 Lu1 30.4(3) . .
Lu8 Lu5 Lu1 40.0(3) . .
C45 Lu5 Lu1 101.3(5) . .
C23 Lu5 Lu1 123.8(5) . .
C44 Lu5 Lu1 112.6(4) . .
Lu9 Lu5 Lu7 80.3(18) 6_565 6_565
Lu7 Lu5 Lu7 99.5(6) . 6_565
Lu9 Lu5 Lu7 41.1(4) . 6_565
Lu11 Lu5 Lu7 63.9(9) 6_565 6_565
Lu5 Lu5 Lu7 25.2(2) 6_565 6_565
Lu11 Lu5 Lu7 20.2(2) . 6_565
Lu8 Lu5 Lu7 83.4(4) . 6_565
C45 Lu5 Lu7 111.3(5) . 6_565
C23 Lu5 Lu7 150.7(5) . 6_565
C44 Lu5 Lu7 92.1(4) . 6_565
Lu1 Lu5 Lu7 46.8(2) . 6_565
Lu2 Lu6 Lu4 120.2(10) 6_565 .
Lu2 Lu6 Lu10 17.0(4) 6_565 .
Lu4 Lu6 Lu10 120.1(7) . .
Lu2 Lu6 C12 101.9(7) 6_565 .
Lu4 Lu6 C12 84.8(6) . .
Lu10 Lu6 C12 118.8(6) . .
Lu2 Lu6 Lu10 22.5(4) 6_565 6_565
Lu4 Lu6 Lu10 105.7(6) . 6_565
Lu10 Lu6 Lu10 14.5(4) . 6_565
C12 Lu6 Lu10 119.6(5) . 6_565
Lu2 Lu6 C2 110.5(8) 6_565 .
Lu4 Lu6 C2 108.8(7) . .
Lu10 Lu6 C2 122.5(7) . .
C12 Lu6 C2 36.74(13) . .
Lu10 Lu6 C2 133.0(6) 6_565 .
Lu2 Lu6 Lu3 102.7(8) 6_565 .
Lu4 Lu6 Lu3 18.5(2) . .
Lu10 Lu6 Lu3 101.6(6) . .
C12 Lu6 Lu3 94.5(5) . .
Lu10 Lu6 Lu3 87.2(4) 6_565 .
C2 Lu6 Lu3 124.4(6) . .
Lu2 Lu6 C13 65.7(6) 6_565 .
Lu4 Lu6 C13 94.9(5) . .
Lu10 Lu6 C13 82.7(6) . .
C12 Lu6 C13 37.40(14) . .
Lu10 Lu6 C13 82.2(5) 6_565 .
C2 Lu6 C13 64.06(19) . .
Lu3 Lu6 C13 93.1(4) . .
Lu2 Lu6 C3 86.7(8) 6_565 .
Lu4 Lu6 C3 139.4(7) . .
Lu10 Lu6 C3 94.6(7) . .
C12 Lu6 C3 58.67(19) . .
Lu10 Lu6 C3 107.5(6) 6_565 .
C2 Lu6 C3 30.71(11) . .
Lu3 Lu6 C3 153.0(5) . .
C13 Lu6 C3 67.5(2) . .
Lu2 Lu6 Lu2 34.4(5) 6_565 .
Lu4 Lu6 Lu2 87.5(5) . .
Lu10 Lu6 Lu2 33.7(4) . .
C12 Lu6 Lu2 111.4(4) . .
Lu10 Lu6 Lu2 19.7(2) 6_565 .
C2 Lu6 Lu2 137.6(5) . .
Lu3 Lu6 Lu2 69.2(3) . .
C13 Lu6 Lu2 76.0(3) . .
C3 Lu6 Lu2 120.2(5) . .
Lu2 Lu6 Lu8 92.7(8) 6_565 .
Lu4 Lu6 Lu8 101.4(5) . .
Lu10 Lu6 Lu8 75.9(5) . .
C12 Lu6 Lu8 158.7(5) . .
Lu10 Lu6 Lu8 78.7(4) 6_565 .
C2 Lu6 Lu8 123.2(5) . .
Lu3 Lu6 Lu8 97.5(3) . .
C13 Lu6 Lu8 157.6(7) . .
C3 Lu6 Lu8 107.4(5) . .
Lu2 Lu6 Lu8 89.4(4) . .
Lu2 Lu6 C15 56.5(6) 6_565 .
Lu4 Lu6 C15 149.4(5) . .
Lu10 Lu6 C15 66.4(5) . .
C12 Lu6 C15 67.9(2) . .
Lu10 Lu6 C15 78.1(5) 6_565 .
C2 Lu6 C15 56.1(2) . .
Lu3 Lu6 C15 146.1(5) . .
C13 Lu6 C15 55.0(2) . .
C3 Lu6 C15 30.37(15) . .
Lu2 Lu6 C15 89.9(4) . .
Lu8 Lu6 C15 109.0(6) . .
Lu11 Lu7 Lu8 81.9(11) 6_565 .
Lu11 Lu7 Lu5 73.1(11) 6_565 .
Lu8 Lu7 Lu5 137.9(7) . .
Lu11 Lu7 Lu9 72.5(12) 6_565 6_565
Lu8 Lu7 Lu9 138.4(6) . 6_565
Lu5 Lu7 Lu9 1.2(5) . 6_565
Lu11 Lu7 Lu1 29.2(9) 6_565 .
Lu8 Lu7 Lu1 53.3(6) . .
Lu5 Lu7 Lu1 94.5(6) . .
Lu9 Lu7 Lu1 94.2(3) 6_565 .
Lu11 Lu7 Lu11 19.2(7) 6_565 .
Lu8 Lu7 Lu11 84.2(7) . .
Lu5 Lu7 Lu11 61.6(5) . .
Lu9 Lu7 Lu11 61.3(5) 6_565 .
Lu1 Lu7 Lu11 33.1(4) . .
Lu11 Lu7 C42 78.1(7) 6_565 .
Lu8 Lu7 C42 85.1(4) . .
Lu5 Lu7 C42 120.7(5) . .
Lu9 Lu7 C42 119.6(3) 6_565 .
Lu1 Lu7 C42 83.0(2) . .
Lu11 Lu7 C42 97.3(3) . .
Lu11 Lu7 C21 114.6(7) 6_565 .
Lu8 Lu7 C21 91.5(5) . .
Lu5 Lu7 C21 129.5(4) . .
Lu9 Lu7 C21 128.8(3) 6_565 .
Lu1 Lu7 C21 115.3(2) . .
Lu11 Lu7 C21 133.8(3) . .
C42 Lu7 C21 36.58(7) . .
Lu11 Lu7 C43 55.8(6) 6_565 .
Lu8 Lu7 C43 111.0(6) . .
Lu5 Lu7 C43 82.2(5) . .
Lu9 Lu7 C43 81.0(3) 6_565 .
Lu1 Lu7 C43 77.5(2) . .
Lu11 Lu7 C43 71.6(3) . .
C42 Lu7 C43 39.26(8) . .
C21 Lu7 C43 67.24(10) . .
Lu11 Lu7 Lu9 55.6(11) 6_565 .
Lu8 Lu7 Lu9 119.9(6) . .
Lu5 Lu7 Lu9 20.0(5) . .
Lu9 Lu7 Lu9 19.9(3) 6_565 .
Lu1 Lu7 Lu9 74.7(2) . .
Lu11 Lu7 Lu9 42.0(4) . .
C42 Lu7 Lu9 119.2(3) . .
C21 Lu7 Lu9 141.8(3) . .
C43 Lu7 Lu9 80.5(3) . .
Lu11 Lu7 Lu5 47.9(10) 6_565 6_565
Lu8 Lu7 Lu5 110.0(6) . 6_565
Lu5 Lu7 Lu5 30.1(5) . 6_565
Lu9 Lu7 Lu5 30.1(3) 6_565 6_565
Lu1 Lu7 Lu5 64.8(3) . 6_565
Lu11 Lu7 Lu5 32.6(4) . 6_565
C42 Lu7 Lu5 118.1(4) . 6_565
C21 Lu7 Lu5 146.8(3) . 6_565
C43 Lu7 Lu5 81.3(3) . 6_565
Lu9 Lu7 Lu5 10.2(3) . 6_565
Lu11 Lu7 C22 129.1(7) 6_565 .
Lu8 Lu7 C22 126.5(7) . .
Lu5 Lu7 C22 95.3(4) . .
Lu9 Lu7 C22 95.0(3) 6_565 .
Lu1 Lu7 C22 147.9(2) . .
Lu11 Lu7 C22 140.4(5) . .
C42 Lu7 C22 65.81(10) . .
C21 Lu7 C22 39.13(7) . .
C43 Lu7 C22 73.76(11) . .
Lu9 Lu7 C22 113.5(3) . .
Lu5 Lu7 C22 123.1(3) 6_565 .
Lu7 Lu8 Lu11 47.3(5) . 6_565
Lu7 Lu8 Lu1 96.9(7) . .
Lu11 Lu8 Lu1 49.9(6) 6_565 .
Lu7 Lu8 Lu5 24.1(4) . .
Lu11 Lu8 Lu5 37.1(6) 6_565 .
Lu1 Lu8 Lu5 80.5(4) . .
Lu7 Lu8 Lu11 71.5(7) . .
Lu11 Lu8 Lu11 29.2(8) 6_565 .
Lu1 Lu8 Lu11 28.4(4) . .
Lu5 Lu8 Lu11 52.5(4) . .
Lu7 Lu8 C42 71.0(4) . .
Lu11 Lu8 C42 69.0(6) 6_565 .
Lu1 Lu8 C42 87.5(3) . .
Lu5 Lu8 C42 87.8(4) . .
Lu11 Lu8 C42 91.1(3) . .
Lu7 Lu8 C41 104.9(5) . .
Lu11 Lu8 C41 83.9(6) 6_565 .
Lu1 Lu8 C41 71.9(3) . .
Lu5 Lu8 C41 115.7(4) . .
Lu11 Lu8 C41 91.0(4) . .
C42 Lu8 C41 35.83(8) . .
Lu7 Lu8 Lu9 26.8(4) . 6_565
Lu11 Lu8 Lu9 35.9(6) 6_565 6_565
Lu1 Lu8 Lu9 78.1(3) . 6_565
Lu5 Lu8 Lu9 2.9(4) . 6_565
Lu11 Lu8 Lu9 49.9(5) . 6_565
C42 Lu8 Lu9 89.2(3) . 6_565
C41 Lu8 Lu9 116.0(3) . 6_565
Lu7 Lu8 Lu6 93.5(7) . .
Lu11 Lu8 Lu6 116.9(6) 6_565 .
Lu1 Lu8 Lu6 117.1(4) . .
Lu5 Lu8 Lu6 85.5(5) . .
Lu11 Lu8 Lu6 105.3(3) . .
C42 Lu8 Lu6 152.9(6) . .
C41 Lu8 Lu6 158.7(5) . .
Lu9 Lu8 Lu6 85.3(4) 6_565 .
Lu7 Lu8 C21 66.4(6) . .
Lu11 Lu8 C21 90.5(7) 6_565 .
Lu1 Lu8 C21 121.1(3) . .
Lu5 Lu8 C21 90.0(4) . .
Lu11 Lu8 C21 118.4(4) . .
C42 Lu8 C21 33.82(10) . .
C41 Lu8 C21 60.63(13) . .
Lu9 Lu8 C21 92.5(4) 6_565 .
Lu6 Lu8 C21 119.8(5) . .
Lu7 Lu8 C40 133.5(5) . .
Lu11 Lu8 C40 118.5(7) 6_565 .
Lu1 Lu8 C40 90.6(4) . .
Lu5 Lu8 C40 150.4(4) . .
Lu11 Lu8 C40 117.2(5) . .
C42 Lu8 C40 63.57(13) . .
C41 Lu8 C40 35.40(9) . .
Lu9 Lu8 C40 151.1(3) 6_565 .
Lu6 Lu8 C40 123.3(5) . .
C21 Lu8 C40 70.57(14) . .
Lu7 Lu8 C19 123.5(8) . .
Lu11 Lu8 C19 142.2(6) 6_565 .
Lu1 Lu8 C19 123.9(5) . .
Lu5 Lu8 C19 147.4(5) . .
Lu11 Lu8 C19 150.8(5) . .
C42 Lu8 C19 73.56(15) . .
C41 Lu8 C19 61.94(13) . .
Lu9 Lu8 C19 150.2(5) 6_565 .
Lu6 Lu8 C19 99.0(4) . .
C21 Lu8 C19 59.66(15) . .
C40 Lu8 C19 33.65(8) . .
Lu5 Lu9 Lu9 124.8(18) 6_565 6_565
Lu5 Lu9 Lu5 109(2) 6_565 .
Lu9 Lu9 Lu5 16.0(5) 6_565 .
Lu5 Lu9 Lu11 33(2) 6_565 .
Lu9 Lu9 Lu11 96.7(5) 6_565 .
Lu5 Lu9 Lu11 81.6(7) . .
Lu5 Lu9 Lu7 3.5(16) 6_565 6_565
Lu9 Lu9 Lu7 124.7(2) 6_565 6_565
Lu5 Lu9 Lu7 108.8(7) . 6_565
Lu11 Lu9 Lu7 31.4(5) . 6_565
Lu5 Lu9 Lu11 72.8(19) 6_565 6_565
Lu9 Lu9 Lu11 54.3(4) 6_565 6_565
Lu5 Lu9 Lu11 39.5(6) . 6_565
Lu11 Lu9 Lu11 42.4(7) . 6_565
Lu7 Lu9 Lu11 71.9(4) 6_565 6_565
Lu5 Lu9 C44 129.8(18) 6_565 .
Lu9 Lu9 C44 71.9(2) 6_565 .
Lu5 Lu9 C44 81.7(4) . .
Lu11 Lu9 C44 108.1(4) . .
Lu7 Lu9 C44 126.3(4) 6_565 .
Lu11 Lu9 C44 92.5(3) 6_565 .
Lu5 Lu9 C67 96.1(17) 6_565 .
Lu9 Lu9 C67 108.1(2) 6_565 .
Lu5 Lu9 C67 113.2(6) . .
Lu11 Lu9 C67 89.8(4) . .
Lu7 Lu9 C67 93.1(4) 6_565 .
Lu11 Lu9 C67 102.0(3) 6_565 .
C44 Lu9 C67 39.10(10) . .
Lu5 Lu9 C46 144.7(18) 6_565 .
Lu9 Lu9 C46 87.3(2) 6_565 .
Lu5 Lu9 C46 102.6(5) . .
Lu11 Lu9 C46 144.7(4) . .
Lu7 Lu9 C46 142.9(4) 6_565 .
Lu11 Lu9 C46 129.4(4) 6_565 .
C44 Lu9 C46 40.15(11) . .
C67 Lu9 C46 55.96(15) . .
Lu5 Lu9 C68 90.2(17) 6_565 .
Lu9 Lu9 C68 136.86(19) 6_565 .
Lu5 Lu9 C68 147.4(6) . .
Lu11 Lu9 C68 104.3(5) . .
Lu7 Lu9 C68 88.7(3) 6_565 .
Lu11 Lu9 C68 134.1(4) 6_565 .
C44 Lu9 C68 65.94(17) . .
C67 Lu9 C68 36.38(11) . .
C46 Lu9 C68 54.47(14) . .
Lu5 Lu9 Lu7 89.5(18) 6_565 .
Lu9 Lu9 Lu7 35.39(18) 6_565 .
Lu5 Lu9 Lu7 19.5(5) . .
Lu11 Lu9 Lu7 62.6(5) . .
Lu7 Lu9 Lu7 89.4(3) 6_565 .
Lu11 Lu9 Lu7 21.6(3) 6_565 .
C44 Lu9 Lu7 92.2(3) . .
C67 Lu9 Lu7 114.6(3) . .
C46 Lu9 Lu7 120.3(3) . .
C68 Lu9 Lu7 150.6(3) . .
Lu5 Lu9 Lu8 13.8(17) 6_565 6_565
Lu9 Lu9 Lu8 111.1(3) 6_565 6_565
Lu5 Lu9 Lu8 95.2(6) . 6_565
Lu11 Lu9 Lu8 25.5(5) . 6_565
Lu7 Lu9 Lu8 14.8(3) 6_565 6_565
Lu11 Lu9 Lu8 60.5(3) 6_565 6_565
C44 Lu9 Lu8 131.8(3) . 6_565
C67 Lu9 Lu8 104.2(3) . 6_565
C46 Lu9 Lu8 157.4(4) . 6_565
C68 Lu9 Lu8 103.4(4) . 6_565
Lu7 Lu9 Lu8 76.0(3) . 6_565
Lu10 Lu10 Lu2 128.4(7) 6_565 6_565
Lu10 Lu10 Lu2 27.5(3) 6_565 .
Lu2 Lu10 Lu2 100.9(8) 6_565 .
Lu10 Lu10 Lu6 130.7(5) 6_565 .
Lu2 Lu10 Lu6 19.2(5) 6_565 .
Lu2 Lu10 Lu6 105.1(6) . .
Lu10 Lu10 Lu6 34.8(4) 6_565 6_565
Lu2 Lu10 Lu6 96.0(8) 6_565 6_565
Lu2 Lu10 Lu6 14.6(3) . 6_565
Lu6 Lu10 Lu6 95.9(8) . 6_565
Lu10 Lu10 C34 73.1(2) 6_565 .
Lu2 Lu10 C34 97.0(7) 6_565 .
Lu2 Lu10 C34 73.1(4) . .
Lu6 Lu10 C34 116.2(5) . .
Lu6 Lu10 C34 87.2(4) 6_565 .
Lu10 Lu10 C14 105.5(3) 6_565 .
Lu2 Lu10 C14 66.6(5) 6_565 .
Lu2 Lu10 C14 95.7(5) . .
Lu6 Lu10 C14 85.1(4) . .
Lu6 Lu10 C14 106.6(5) 6_565 .
C34 Lu10 C14 34.93(11) . .
Lu10 Lu10 C16 120.7(2) 6_565 .
Lu2 Lu10 C16 96.1(6) 6_565 .
Lu2 Lu10 C16 134.6(5) . .
Lu6 Lu10 C16 104.5(6) . .
Lu6 Lu10 C16 149.2(5) 6_565 .
C34 Lu10 C16 63.20(15) . .
C14 Lu10 C16 53.80(13) . .
Lu10 Lu10 C35 64.2(2) 6_565 .
Lu2 Lu10 C35 127.4(7) 6_565 .
Lu2 Lu10 C35 79.3(4) . .
Lu6 Lu10 C35 146.2(5) . .
Lu6 Lu10 C35 93.2(4) 6_565 .
C34 Lu10 C35 31.91(10) . .
C14 Lu10 C35 61.18(17) . .
C16 Lu10 C35 57.33(14) . .
Lu10 Lu10 C36 93.0(2) 6_565 .
Lu2 Lu10 C36 126.4(6) 6_565 .
Lu2 Lu10 C36 114.5(4) . .
Lu6 Lu10 C36 134.9(6) . .
Lu6 Lu10 C36 126.9(5) 6_565 .
C34 Lu10 C36 60.11(15) . .
C14 Lu10 C36 70.87(16) . .
C16 Lu10 C36 30.82(8) . .
C35 Lu10 C36 37.27(10) . .
Lu10 Lu10 C15 137.3(2) 6_565 .
Lu2 Lu10 C15 65.0(5) 6_565 .
Lu2 Lu10 C15 132.2(5) . .
Lu6 Lu10 C15 76.4(5) . .
Lu6 Lu10 C15 142.0(5) 6_565 .
C34 Lu10 C15 64.56(16) . .
C14 Lu10 C15 36.50(10) . .
C16 Lu10 C15 31.58(9) . .
C35 Lu10 C15 76.43(17) . .
C36 Lu10 C15 61.39(15) . .
Lu10 Lu10 Lu8 112.3(2) 6_565 .
Lu2 Lu10 Lu8 84.8(7) 6_565 .
Lu2 Lu10 Lu8 114.9(4) . .
Lu6 Lu10 Lu8 65.9(5) . .
Lu6 Lu10 Lu8 100.9(3) 6_565 .
C34 Lu10 Lu8 171.4(4) . .
C14 Lu10 Lu8 141.8(4) . .
C16 Lu10 Lu8 108.3(4) . .
C35 Lu10 Lu8 143.3(4) . .
C36 Lu10 Lu8 112.1(4) . .
C15 Lu10 Lu8 109.1(4) . .
Lu7 Lu11 Lu1 129.3(17) 6_565 .
Lu7 Lu11 Lu8 50.8(10) 6_565 6_565
Lu1 Lu11 Lu8 79.1(11) . 6_565
Lu7 Lu11 Lu5 65.9(8) 6_565 6_565
Lu1 Lu11 Lu5 139.6(11) . 6_565
Lu8 Lu11 Lu5 109.0(10) 6_565 6_565
Lu7 Lu11 Lu11 148.3(7) 6_565 6_565
Lu1 Lu11 Lu11 55.1(9) . 6_565
Lu8 Lu11 Lu11 125.2(7) 6_565 6_565
Lu5 Lu11 Lu11 92.4(9) 6_565 6_565
Lu7 Lu11 Lu9 76.2(9) 6_565 .
Lu1 Lu11 Lu9 134.1(11) . .
Lu8 Lu11 Lu9 118.6(8) 6_565 .
Lu5 Lu11 Lu9 10.4(7) 6_565 .
Lu11 Lu11 Lu9 83.3(5) 6_565 .
Lu7 Lu11 Lu5 111.8(10) 6_565 .
Lu1 Lu11 Lu5 94.6(9) . .
Lu8 Lu11 Lu5 131.4(6) 6_565 .
Lu5 Lu11 Lu5 49.7(9) 6_565 .
Lu11 Lu11 Lu5 42.7(4) 6_565 .
Lu9 Lu11 Lu5 40.9(5) . .
Lu7 Lu11 Lu9 102.7(11) 6_565 6_565
Lu1 Lu11 Lu9 106.8(10) . 6_565
Lu8 Lu11 Lu9 132.3(6) 6_565 6_565
Lu5 Lu11 Lu9 38.4(7) 6_565 6_565
Lu11 Lu11 Lu9 54.3(4) 6_565 6_565
Lu9 Lu11 Lu9 29.1(5) . 6_565
Lu5 Lu11 Lu9 12.2(4) . 6_565
Lu7 Lu11 C65 131.2(7) 6_565 .
Lu1 Lu11 C65 86.3(5) . .
Lu8 Lu11 C65 132.7(10) 6_565 .
Lu5 Lu11 C65 111.1(10) 6_565 .
Lu11 Lu11 C65 77.0(4) 6_565 .
Lu9 Lu11 C65 103.9(8) . .
Lu5 Lu11 C65 94.1(8) . .
Lu9 Lu11 C65 94.9(7) 6_565 .
Lu7 Lu11 Lu7 135.8(8) 6_565 .
Lu1 Lu11 Lu7 60.0(6) . .
Lu8 Lu11 Lu7 120.3(7) 6_565 .
Lu5 Lu11 Lu7 83.5(10) 6_565 .
Lu11 Lu11 Lu7 12.50(19) 6_565 .
Lu9 Lu11 Lu7 75.4(7) . .
Lu5 Lu11 Lu7 34.7(4) . .
Lu9 Lu11 Lu7 46.9(4) 6_565 .
C65 Lu11 Lu7 88.4(6) . .
Lu7 Lu11 C66 95.1(7) 6_565 .
Lu1 Lu11 C66 122.5(5) . .
Lu8 Lu11 C66 123.5(10) 6_565 .
Lu5 Lu11 C66 86.9(7) 6_565 .
Lu11 Lu11 C66 106.9(4) 6_565 .
Lu9 Lu11 C66 84.7(6) . .
Lu5 Lu11 C66 100.7(8) . .
Lu9 Lu11 C66 93.8(6) 6_565 .
C65 Lu11 C66 37.93(14) . .
Lu7 Lu11 C66 115.0(7) . .
Lu7 Lu11 Lu8 133.8(6) 6_565 .
Lu1 Lu11 Lu8 37.6(5) . .
Lu8 Lu11 Lu8 99.7(9) 6_565 .
Lu5 Lu11 Lu8 102.8(9) 6_565 .
Lu11 Lu11 Lu8 25.6(4) 6_565 .
Lu9 Lu11 Lu8 96.5(7) . .
Lu5 Lu11 Lu8 57.5(5) . .
Lu9 Lu11 Lu8 69.6(5) 6_565 .
C65 Lu11 Lu8 95.0(5) . .
Lu7 Lu11 Lu8 24.3(2) . .
C66 Lu11 Lu8 130.0(6) . .
C5 C1 C2 92.3 . .
C5 C1 C9 138.8 . .
C2 C1 C9 120.4 . .
C5 C1 Lu6 84.9(3) . .
C2 C1 Lu6 58.3(2) . .
C9 C1 Lu6 91.6(3) . .
C3 C2 C12 115.1 . .
C3 C2 C1 118.0 . .
C12 C2 C1 115.0 . .
C3 C2 Lu6 79.0(4) . .
C12 C2 Lu6 66.8(3) . .
C1 C2 Lu6 89.3(3) . .
C2 C3 C15 129.7 . .
C2 C3 C4 112.1 . .
C15 C3 C4 112.3 . .
C2 C3 Lu6 70.3(3) . .
C15 C3 Lu6 85.0(3) . .
C4 C3 Lu6 93.1(2) . .
C18 C4 C3 120.1 . .
C18 C4 C5 133.7 . .
C3 C4 C5 96.0 . .
C18 C4 Lu6 96.2(3) . .
C3 C4 Lu6 57.68(17) . .
C5 C4 Lu6 78.6(3) . .
C6 C5 C1 116.7 . .
C6 C5 C4 111.5 . .
C1 C5 C4 121.1 . .
C6 C5 Lu6 100.84(16) . .
C1 C5 Lu6 67.3(3) . .
C4 C5 Lu6 72.2(3) . .
C5 C6 C7 127.2 . .
C5 C6 C20 135.9 . .
C7 C6 C20 89.2 . .
C6 C7 C22 131.8 . .
C6 C7 C8 118.9 . .
C22 C7 C8 99.6 . .
C6 C7 Lu7 88.49(12) . .
C22 C7 Lu7 58.91(10) . .
C8 C7 Lu7 94.46(10) . .
C9 C8 C25 109.8 . .
C9 C8 C7 106.8 . .
C25 C8 C7 131.7 . .
C8 C9 C10 108.1 . .
C8 C9 C1 111.6 . .
C10 C9 C1 126.3 . .
C8 C9 Lu4 90.71(6) . .
C10 C9 Lu4 56.92(6) . .
C1 C9 Lu4 87.72(7) . .
C26 C10 C9 105.8 . .
C26 C10 C11 133.2 . .
C9 C10 C11 111.7 . .
C26 C10 Lu4 88.49(8) . .
C9 C10 Lu4 92.39(9) . .
C11 C10 Lu4 63.45(7) . .
C29 C11 C12 134.2 . .
C29 C11 C10 94.7 . .
C12 C11 C10 120.6 . .
C29 C11 Lu4 75.09(10) . .
C12 C11 Lu4 84.06(9) . .
C10 C11 Lu4 78.29(8) . .
C29 C11 Lu6 101.3(2) . .
C12 C11 Lu6 52.8(2) . .
C10 C11 Lu6 93.2(3) . .
Lu4 C11 Lu6 31.5(2) . .
C29 C11 Lu3 52.74(8) . .
C12 C11 Lu3 100.60(10) . .
C10 C11 Lu3 82.72(11) . .
Lu4 C11 Lu3 22.35(8) . .
Lu6 C11 Lu3 51.2(2) . .
C2 C12 C11 125.3 . .
C2 C12 C13 118.7 . .
C11 C12 C13 112.1 . .
C2 C12 Lu6 76.5(3) . .
C11 C12 Lu6 94.9(4) . .
C13 C12 Lu6 79.3(3) . .
C2 C12 Lu4 100.21(8) . .
C11 C12 Lu4 60.29(6) . .
C13 C12 Lu4 89.65(8) . .
Lu6 C12 Lu4 34.9(4) . .
C14 C13 C32 116.6 . .
C14 C13 C12 126.4 . .
C32 C13 C12 112.3 . .
C14 C13 Lu6 89.5(4) . .
C32 C13 Lu6 97.4(3) . .
C12 C13 Lu6 63.3(3) . .
C14 C13 Lu10 59.53(13) . .
C32 C13 Lu10 91.9(2) . .
C12 C13 Lu10 99.11(19) . .
Lu6 C13 Lu10 36.8(3) . .
C14 C13 Lu4 115.6 . .
C32 C13 Lu4 73.65(8) . .
C12 C13 Lu4 59.59(7) . .
Lu6 C13 Lu4 29.6(3) . .
Lu10 C13 Lu4 56.64(13) . .
C13 C14 C34 118.4 . .
C13 C14 C15 107.3 . .
C34 C14 C15 123.9 . .
C13 C14 Lu10 90.08(18) . .
C34 C14 Lu10 72.5(2) . .
C15 C14 Lu10 77.0(3) . .
C13 C14 Lu6 60.5(3) . .
C34 C14 Lu6 105.6(2) . .
C15 C14 Lu6 69.9(2) . .
Lu10 C14 Lu6 36.6(3) . .
C13 C14 Lu2 80.87(7) . .
C34 C14 Lu2 55.57(6) . .
C15 C14 Lu2 105.97(8) . .
Lu10 C14 Lu2 29.0(2) . .
Lu6 C14 Lu2 51.05(19) . .
C16 C15 C3 131.3 . .
C16 C15 C14 97.0 . .
C3 C15 C14 122.5 . .
C16 C15 Lu10 69.62(18) . .
C3 C15 Lu10 99.13(19) . .
C14 C15 Lu10 66.5(2) . .
C16 C15 Lu6 102.9(3) . .
C3 C15 Lu6 64.6(2) . .
C14 C15 Lu6 77.3(2) . .
Lu10 C15 Lu6 37.2(3) . .
C36 C16 C15 149.2 . .
C36 C16 C17 85.8 . .
C15 C16 C17 112.6 . .
C36 C16 Lu10 77.3(2) . .
C15 C16 Lu10 78.79(19) . .
C17 C16 Lu10 88.0(2) . .
C38 C17 C18 100.9 . .
C38 C17 C16 135.5 . .
C18 C17 C16 119.2 . .
C38 C17 C36 91.2 . .
C18 C17 C36 158.1 . .
C16 C17 C36 44.7 . .
C38 C17 C37 50.2 . .
C18 C17 C37 147.4 . .
C16 C17 C37 85.6 . .
C36 C17 C37 41.0 . .
C38 C17 Lu10 96.36(16) . .
C18 C17 Lu10 98.57(18) . .
C16 C17 Lu10 61.28(16) . .
C36 C17 Lu10 61.59(18) . .
C37 C17 Lu10 74.06(17) . .
C4 C18 C17 123.7 . .
C4 C18 C19 107.4 . .
C17 C18 C19 119.4 . .
C40 C19 C20 119.7 . .
C40 C19 C18 113.9 . .
C20 C19 C18 119.7 . .
C40 C19 Lu8 72.0(2) . .
C20 C19 Lu8 76.8(3) . .
C18 C19 Lu8 96.00(16) . .
C21 C20 C19 118.0 . .
C21 C20 C6 117.0 . .
C19 C20 C6 111.4 . .
C21 C20 Lu8 68.70(18) . .
C19 C20 Lu8 69.8(2) . .
C6 C20 Lu8 96.14(17) . .
C21 C20 Lu7 54.53(10) . .
C19 C20 Lu7 89.37(11) . .
C6 C20 Lu7 91.14(11) . .
Lu8 C20 Lu7 19.7(2) . .
C42 C21 C20 123.3 . .
C42 C21 C22 115.1 . .
C20 C21 C22 111.9 . .
C42 C21 Lu7 68.25(15) . .
C20 C21 Lu7 94.74(16) . .
C22 C21 Lu7 76.47(14) . .
C42 C21 Lu8 66.07(19) . .
C20 C21 Lu8 78.92(18) . .
C22 C21 Lu8 96.8(2) . .
Lu7 C21 Lu8 22.17(17) . .
C23 C22 C7 130.8 . .
C23 C22 C21 123.3 . .
C7 C22 C21 88.7 . .
C23 C22 Lu7 75.51(16) . .
C7 C22 Lu7 89.78(15) . .
C21 C22 Lu7 64.40(13) . .
C23 C22 Lu5 50.99(15) . .
C7 C22 Lu5 101.24(16) . .
C21 C22 Lu5 87.7(2) . .
Lu7 C22 Lu5 25.6(2) . .
C22 C23 C45 120.1 . .
C22 C23 C24 129.2 . .
C45 C23 C24 105.4 . .
C22 C23 Lu5 103.3(2) . .
C45 C23 Lu5 63.4(3) . .
C24 C23 Lu5 76.8(3) . .
C22 C23 Lu7 74.59(15) . .
C45 C23 Lu7 72.27(15) . .
C24 C23 Lu7 101.22(11) . .
Lu5 C23 Lu7 29.9(3) . .
C47 C24 C25 109.2 . .
C47 C24 C23 134.6 . .
C25 C24 C23 112.3 . .
C47 C24 Lu5 89.9(2) . .
C25 C24 Lu5 105.8(2) . .
C23 C24 Lu5 61.9(2) . .
C8 C25 C26 104.3 . .
C8 C25 C24 113.9 . .
C26 C25 C24 128.5 . .
C10 C26 C27 119.7 . .
C10 C26 C25 110.5 . .
C27 C26 C25 117.0 . .
C10 C26 Lu4 59.90(7) . .
C27 C26 Lu4 83.50(8) . .
C25 C26 Lu4 91.25(6) . .
C10 C26 Lu3 76.90(10) . .
C27 C26 Lu3 61.63(8) . .
C25 C26 Lu3 98.46(8) . .
Lu4 C26 Lu3 22.06(7) . .
C28 C27 C48 128.8 . .
C28 C27 C26 103.7 . .
C48 C27 C26 115.0 . .
C28 C27 Lu3 59.16(10) . .
C48 C27 Lu3 88.64(10) . .
C26 C27 Lu3 88.55(8) . .
C27 C28 C29 136.9 . .
C27 C28 C51 102.4 . .
C29 C28 C51 110.4 . .
C27 C28 Lu3 91.20(13) . .
C29 C28 Lu3 71.32(14) . .
C51 C28 Lu3 75.82(10) . .
C27 C28 Lu4 89.92(7) . .
C29 C28 Lu4 58.48(6) . .
C51 C28 Lu4 99.04(8) . .
Lu3 C28 Lu4 23.53(6) . .
C28 C29 C11 129.2 . .
C28 C29 C30 116.9 . .
C11 C29 C30 108.5 . .
C28 C29 Lu3 73.06(14) . .
C11 C29 Lu3 95.36(10) . .
C30 C29 Lu3 78.94(13) . .
C28 C29 Lu4 91.41(8) . .
C11 C29 Lu4 67.04(9) . .
C30 C29 Lu4 89.00(8) . .
Lu3 C29 Lu4 28.33(7) . .
C32 C30 C29 116.6 . .
C32 C30 C52 144.7 . .
C29 C30 C52 90.3 . .
C32 C30 Lu3 97.64(12) . .
C29 C30 Lu3 63.86(10) . .
C52 C30 Lu3 73.07(10) . .
C32 C30 Lu4 81.06(7) . .
C29 C30 Lu4 57.91(6) . .
C52 C30 Lu4 96.58(8) . .
Lu3 C30 Lu4 23.98(7) . .
C33 C31 C32 118.5 . .
C33 C31 C54 106.9 . .
C32 C31 C54 130.6 . .
C33 C31 Lu2 64.41(8) . .
C32 C31 Lu2 90.65(10) . .
C54 C31 Lu2 92.10(12) . .
C30 C32 C13 135.0 . .
C30 C32 C31 93.2 . .
C13 C32 C31 127.2 . .
C30 C32 Lu2 102.29(9) . .
C13 C32 Lu2 87.16(10) . .
C31 C32 Lu2 57.51(9) . .
C30 C32 Lu4 69.92(7) . .
C13 C32 Lu4 77.99(8) . .
C31 C32 Lu4 108.50(7) . .
Lu2 C32 Lu4 59.80(6) . .
C30 C32 Lu3 54.17(8) . .
C13 C32 Lu3 99.69(7) . .
C31 C32 Lu3 92.81(7) . .
Lu2 C32 Lu3 57.71(8) . .
Lu4 C32 Lu3 21.93(5) . .
C30 C32 Lu6 98.6(3) . .
C13 C32 Lu6 54.21(19) . .
C31 C32 Lu6 108.3(2) . .
Lu2 C32 Lu6 50.8(2) . .
Lu4 C32 Lu6 28.7(3) . .
Lu3 C32 Lu6 47.5(2) . .
C31 C33 C34 115.3 . .
C31 C33 C57 120.7 . .
C34 C33 C57 113.4 . .
C31 C33 Lu2 79.44(10) . .
C34 C33 Lu2 80.44(13) . .
C57 C33 Lu2 77.39(11) . .
C31 C33 Lu10 90.49(15) . .
C34 C33 Lu10 54.15(13) . .
C57 C33 Lu10 91.86(16) . .
Lu2 C33 Lu10 26.41(17) . .
C35 C34 C14 126.7 . .
C35 C34 C33 101.7 . .
C14 C34 C33 123.7 . .
C35 C34 Lu10 78.1(2) . .
C14 C34 Lu10 72.6(2) . .
C33 C34 Lu10 94.3(2) . .
C35 C34 Lu2 84.02(9) . .
C14 C34 Lu2 94.83(9) . .
C33 C34 Lu2 60.07(11) . .
Lu10 C34 Lu2 34.3(2) . .
C34 C35 C36 112.6 . .
C34 C35 C58 116.8 . .
C36 C35 C58 119.6 . .
C34 C35 Lu10 70.0(2) . .
C36 C35 Lu10 71.5(2) . .
C58 C35 Lu10 94.87(18) . .
C34 C35 Lu2 65.32(7) . .
C36 C35 Lu2 101.79(9) . .
C58 C35 Lu2 71.22(9) . .
Lu10 C35 Lu2 31.9(2) . .
C16 C36 C37 123.0 . .
C16 C36 C35 108.4 . .
C37 C36 C35 118.9 . .
C16 C36 C17 49.5 . .
C37 C36 C17 73.7 . .
C35 C36 C17 146.8 . .
C16 C36 Lu10 71.85(19) . .
C37 C36 Lu10 94.36(19) . .
C35 C36 Lu10 71.3(2) . .
C17 C36 Lu10 77.5(2) . .
C36 C37 C38 105.8 . .
C36 C37 C60 121.6 . .
C38 C37 C60 123.5 . .
C36 C37 C17 65.3 . .
C38 C37 C17 40.6 . .
C60 C37 C17 152.4 . .
C36 C37 C39 139.2 . .
C38 C37 C39 38.1 . .
C60 C37 C39 85.7 . .
C17 C37 C39 77.0 . .
C36 C37 Lu10 58.38(14) . .
C38 C37 Lu10 85.2(2) . .
C60 C37 Lu10 94.30(16) . .
C17 C37 Lu10 65.70(19) . .
C39 C37 Lu10 92.89(17) . .
C39 C38 C17 158.0 . .
C39 C38 C37 94.4 . .
C17 C38 C37 89.2 . .
C39 C38 C40 49.9 . .
C17 C38 C40 117.0 . .
C37 C38 C40 139.4 . .
C62 C39 C38 158.4 . .
C62 C39 C40 98.5 . .
C38 C39 C40 91.5 . .
C62 C39 C37 115.0 . .
C38 C39 C37 47.5 . .
C40 C39 C37 134.7 . .
C62 C39 Lu1 57.01(6) . .
C38 C39 Lu1 108.19(5) . .
C40 C39 Lu1 74.68(8) . .
C37 C39 Lu1 98.11(6) . .
C19 C40 C41 118.6 . .
C19 C40 C39 124.8 . .
C41 C40 C39 105.7 . .
C19 C40 C38 86.6 . .
C41 C40 C38 138.6 . .
C39 C40 C38 38.7 . .
C19 C40 Lu8 74.3(2) . .
C41 C40 Lu8 68.10(17) . .
C39 C40 Lu8 95.2(2) . .
C38 C40 Lu8 90.89(19) . .
C19 C40 Lu1 105.21(6) . .
C41 C40 Lu1 54.32(6) . .
C39 C40 Lu1 74.64(7) . .
C38 C40 Lu1 89.09(6) . .
Lu8 C40 Lu1 31.1(2) . .
C63 C41 C42 129.1 . .
C63 C41 C40 103.0 . .
C42 C41 C40 119.8 . .
C63 C41 Lu8 97.8(2) . .
C42 C41 Lu8 69.3(3) . .
C40 C41 Lu8 76.50(19) . .
C63 C41 Lu1 62.48(8) . .
C42 C41 Lu1 85.88(8) . .
C40 C41 Lu1 95.37(8) . .
Lu8 C41 Lu1 37.0(2) . .
C63 C41 Lu7 103.70(12) . .
C42 C41 Lu7 51.50(9) . .
C40 C41 Lu7 92.96(13) . .
Lu8 C41 Lu7 19.1(2) . .
Lu1 C41 Lu7 41.78(9) . .
C21 C42 C41 119.3 . .
C21 C42 C43 120.8 . .
C41 C42 C43 114.1 . .
C21 C42 Lu7 75.16(17) . .
C41 C42 Lu7 97.44(14) . .
C43 C42 Lu7 74.56(18) . .
C21 C42 Lu8 80.1(2) . .
C41 C42 Lu8 74.9(3) . .
C43 C42 Lu8 91.13(18) . .
Lu7 C42 Lu8 23.9(2) . .
C21 C42 Lu1 113.97(6) . .
C41 C42 Lu1 61.94(6) . .
C43 C42 Lu1 71.18(7) . .
Lu7 C42 Lu1 43.54(13) . .
Lu8 C42 Lu1 34.1(2) . .
C45 C43 C65 119.3 . .
C45 C43 C42 118.4 . .
C65 C43 C42 118.2 . .
C45 C43 Lu7 78.87(14) . .
C65 C43 Lu7 105.61(13) . .
C42 C43 Lu7 66.19(15) . .
C45 C43 Lu5 57.71(19) . .
C65 C43 Lu5 96.9(2) . .
C42 C43 Lu5 95.6(2) . .
Lu7 C43 Lu5 29.8(2) . .
C45 C43 Lu11 93.7(3) . .
C65 C43 Lu11 55.5(2) . .
C42 C43 Lu11 101.0(2) . .
Lu7 C43 Lu11 51.6(3) . .
Lu5 C43 Lu11 44.1(3) . .
C45 C43 Lu1 111.39(6) . .
C65 C43 Lu1 64.27(7) . .
C42 C43 Lu1 75.91(8) . .
Lu7 C43 Lu1 43.96(11) . .
Lu5 C43 Lu1 54.13(19) . .
Lu11 C43 Lu1 26.0(2) . .
C45 C43 Lu8 97.2(2) . .
C65 C43 Lu8 96.6(2) . .
C42 C43 Lu8 55.93(12) . .
Lu7 C43 Lu8 18.3(2) . .
Lu5 C43 Lu8 45.1(2) . .
Lu11 C43 Lu8 49.5(2) . .
Lu1 C43 Lu8 32.3(2) . .
C67 C44 C45 121.2 . .
C67 C44 C46 89.3 . .
C45 C44 C46 141.3 . .
C67 C44 Lu9 71.0(2) . .
C45 C44 Lu9 92.52(18) . .
C46 C44 Lu9 74.41(15) . .
C67 C44 Lu5 98.1(2) . .
C45 C44 Lu5 62.3(3) . .
C46 C44 Lu5 92.5(3) . .
Lu9 C44 Lu5 32.78(18) . .
C43 C45 C44 119.0 . .
C43 C45 C23 121.2 . .
C44 C45 C23 113.3 . .
C43 C45 Lu5 87.4(3) . .
C44 C45 Lu5 79.4(3) . .
C23 C45 Lu5 77.2(3) . .
C43 C45 Lu7 66.88(12) . .
C44 C45 Lu7 108.57(12) . .
C23 C45 Lu7 72.72(14) . .
Lu5 C45 Lu7 30.2(3) . .
C43 C45 Lu9 91.08(14) . .
C44 C45 Lu9 53.84(14) . .
C23 C45 Lu9 99.11(16) . .
Lu5 C45 Lu9 28.2(3) . .
Lu7 C45 Lu9 54.98(16) . .
C70 C46 C47 95.6 . .
C70 C46 C44 143.5 . .
C47 C46 C44 110.8 . .
C70 C46 Lu9 87.01(16) . .
C47 C46 Lu9 97.73(19) . .
C44 C46 Lu9 65.44(14) . .
C70 C46 Lu5 107.98(17) . .
C47 C46 Lu5 80.6(2) . .
C44 C46 Lu5 55.2(2) . .
Lu9 C46 Lu5 26.02(15) . .
C46 C47 C48 114.4 . .
C46 C47 C24 113.3 . .
C48 C47 C24 119.4 . .
C46 C47 C70 41.7 . .
C48 C47 C70 73.1 . .
C24 C47 C70 145.4 . .
C46 C47 Lu9 52.72(14) . .
C48 C47 Lu9 96.77(12) . .
C24 C47 Lu9 84.10(15) . .
C70 C47 Lu9 61.75(15) . .
C46 C47 Lu5 71.4(2) . .
C48 C47 Lu5 105.54(16) . .
C24 C47 Lu5 58.9(2) . .
C70 C47 Lu5 87.1(2) . .
Lu9 C47 Lu5 25.37(15) . .
C49 C48 C27 121.1 . .
C49 C48 C47 100.2 . .
C27 C48 C47 127.2 . .
C49 C48 C50 36.7 . .
C27 C48 C50 84.7 . .
C47 C48 C50 132.5 . .
C49 C48 Lu3 80.21(7) . .
C27 C48 Lu3 61.63(7) . .
C47 C48 Lu3 98.97(7) . .
C50 C48 Lu3 63.14(7) . .
C48 C49 C50 108.0 . .
C48 C49 C70 113.2 . .
C50 C49 C70 135.0 . .
C51 C50 C49 140.6 . .
C51 C50 C72 107.7 . .
C49 C50 C72 102.0 . .
C51 C50 C48 107.0 . .
C49 C50 C48 35.3 . .
C72 C50 C48 134.7 . .
C51 C50 Lu3 61.84(9) . .
C49 C50 Lu3 90.05(10) . .
C72 C50 Lu3 96.06(8) . .
C48 C50 Lu3 75.73(10) . .
C50 C51 C52 142.1 . .
C50 C51 C28 115.1 . .
C52 C51 C28 92.2 . .
C50 C51 Lu3 92.48(12) . .
C52 C51 Lu3 75.34(13) . .
C28 C51 Lu3 64.43(9) . .
C53 C52 C51 114.9 . .
C53 C52 C30 105.3 . .
C51 C52 C30 127.9 . .
C53 C52 Lu3 98.51(9) . .
C51 C52 Lu3 71.63(13) . .
C30 C52 Lu3 70.95(12) . .
C54 C53 C52 126.6 . .
C54 C53 C73 122.0 . .
C52 C53 C73 106.1 . .
C54 C53 C55 40.2 . .
C52 C53 C55 158.8 . .
C73 C53 C55 82.0 . .
C54 C53 Lu3 100.99(10) . .
C52 C53 Lu3 55.35(7) . .
C73 C53 Lu3 89.18(10) . .
C55 C53 Lu3 106.21(8) . .
C55 C54 C53 97.4 . .
C55 C54 C31 133.2 . .
C53 C54 C31 117.1 . .
C55 C54 Lu2 86.87(8) . .
C53 C54 Lu2 106.60(6) . .
C31 C54 Lu2 54.83(8) . .
C54 C55 C74 125.6 . .
C54 C55 C56 126.0 . .
C74 C55 C56 99.9 . .
C54 C55 C53 42.3 . .
C74 C55 C53 83.6 . .
C56 C55 C53 155.2 . .
C57 C56 C77 116.1 . .
C57 C56 C55 102.9 . .
C77 C56 C55 130.3 . .
C57 C56 Lu2 55.77(7) . .
C77 C56 Lu2 100.37(6) . .
C55 C56 Lu2 76.42(8) . .
C58 C57 C56 120.9 . .
C58 C57 C33 102.2 . .
C56 C57 C33 126.6 . .
C58 C57 Lu2 83.06(10) . .
C56 C57 Lu2 95.54(10) . .
C33 C57 Lu2 57.73(8) . .
C57 C58 C59 125.9 . .
C57 C58 C35 105.5 . .
C59 C58 C35 121.3 . .
C57 C58 Lu2 65.46(10) . .
C59 C58 Lu2 105.58(7) . .
C35 C58 Lu2 69.42(10) . .
C78 C59 C58 111.6 . .
C78 C59 C60 126.2 . .
C58 C59 C60 109.8 . .
C37 C60 C61 123.3 . .
C37 C60 C59 128.5 . .
C61 C60 C59 97.6 . .
C80 C61 C60 130.4 . .
C80 C61 C62 118.1 . .
C60 C61 C62 100.3 . .
C80 C61 Lu1 74.84(8) . .
C60 C61 Lu1 101.64(6) . .
C62 C61 Lu1 60.32(7) . .
C39 C62 C63 121.6 . .
C39 C62 C61 114.9 . .
C63 C62 C61 115.3 . .
C39 C62 Lu1 98.99(8) . .
C63 C62 Lu1 58.78(7) . .
C61 C62 Lu1 84.76(9) . .
C41 C63 C62 110.7 . .
C41 C63 C64 118.0 . .
C62 C63 C64 123.2 . .
C41 C63 Lu1 85.07(10) . .
C62 C63 Lu1 89.02(9) . .
C64 C63 Lu1 68.75(9) . .
C41 C63 Lu8 55.65(16) . .
C62 C63 Lu8 90.42(19) . .
C64 C63 Lu8 93.83(15) . .
Lu1 C63 Lu8 31.28(13) . .
C41 C63 Lu11 92.7(3) . .
C62 C63 Lu11 101.8(3) . .
C64 C63 Lu11 50.66(15) . .
Lu1 C63 Lu11 18.32(15) . .
Lu8 C63 Lu11 45.5(2) . .
C65 C64 C81 112.9 . .
C65 C64 C63 117.9 . .
C81 C64 C63 121.0 . .
C65 C64 Lu1 82.31(9) . .
C81 C64 Lu1 89.63(10) . .
C63 C64 Lu1 70.06(9) . .
C65 C64 Lu11 64.2(4) . .
C81 C64 Lu11 76.6(4) . .
C63 C64 Lu11 100.0(2) . .
Lu1 C64 Lu11 30.1(2) . .
C43 C65 C66 122.3 . .
C43 C65 C64 122.4 . .
C66 C65 C64 109.9 . .
C43 C65 Lu11 91.8(4) . .
C66 C65 Lu11 75.1(3) . .
C64 C65 Lu11 78.8(4) . .
C43 C65 Lu1 83.55(9) . .
C66 C65 Lu1 103.45(8) . .
C64 C65 Lu1 60.99(7) . .
Lu11 C65 Lu1 29.5(3) . .
C43 C65 Lu5 55.08(18) . .
C66 C65 Lu5 86.1(2) . .
C64 C65 Lu5 110.78(13) . .
Lu11 C65 Lu5 39.7(4) . .
Lu1 C65 Lu5 49.80(14) . .
C43 C65 Lu9 76.87(15) . .
C66 C65 Lu9 62.65(14) . .
C64 C65 Lu9 110.57(12) . .
Lu11 C65 Lu9 31.8(4) . .
Lu1 C65 Lu9 56.18(12) . .
Lu5 C65 Lu9 24.44(16) . .
C82 C66 C67 117.0 . .
C82 C66 C65 111.5 . .
C67 C66 C65 119.0 . .
C82 C66 Lu11 76.2(5) . .
C67 C66 Lu11 90.8(4) . .
C65 C66 Lu11 67.0(3) . .
C82 C66 Lu9 95.28(16) . .
C67 C66 Lu9 53.28(13) . .
C65 C66 Lu9 88.67(14) . .
Lu11 C66 Lu9 37.5(4) . .
C68 C67 C66 115.9 . .
C68 C67 C44 118.5 . .
C66 C67 C44 118.8 . .
C68 C67 Lu9 79.99(18) . .
C66 C67 Lu9 94.65(17) . .
C44 C67 Lu9 69.9(2) . .
C68 C67 Lu11 96.4(2) . .
C66 C67 Lu11 57.3(2) . .
C44 C67 Lu11 90.5(4) . .
Lu9 C67 Lu11 37.3(3) . .
C68 C67 Lu5 102.9(2) . .
C66 C67 Lu5 90.3(2) . .
C44 C67 Lu5 52.51(16) . .
Lu9 C67 Lu5 23.77(19) . .
Lu11 C67 Lu5 39.9(3) . .
C69 C68 C84 88.8 . .
C69 C68 C67 137.9 . .
C84 C68 C67 122.5 . .
C69 C68 C70 30.8 . .
C84 C68 C70 115.2 . .
C67 C68 C70 107.3 . .
C69 C68 Lu9 89.58(14) . .
C84 C68 Lu9 93.31(17) . .
C67 C68 Lu9 63.63(14) . .
C70 C68 Lu9 73.25(16) . .
C70 C69 C68 111.7 . .
C70 C69 C71 119.3 . .
C68 C69 C71 116.9 . .
C70 C69 C84 148.2 . .
C68 C69 C84 49.1 . .
C71 C69 C84 68.2 . .
C70 C69 Lu9 73.77(16) . .
C68 C69 Lu9 62.20(13) . .
C71 C69 Lu9 98.70(13) . .
C84 C69 Lu9 74.52(16) . .
C69 C70 C49 122.3 . .
C69 C70 C46 115.1 . .
C49 C70 C46 115.0 . .
C69 C70 C68 37.5 . .
C49 C70 C68 147.9 . .
C46 C70 C68 77.7 . .
C69 C70 C47 154.0 . .
C49 C70 C47 73.2 . .
C46 C70 C47 42.7 . .
C68 C70 C47 118.1 . .
C69 C70 Lu9 82.92(18) . .
C49 C70 Lu9 98.01(14) . .
C46 C70 Lu9 60.90(15) . .
C68 C70 Lu9 61.10(16) . .
C47 C70 Lu9 73.73(18) . .
C69 C71 C85 113.9 . .
C69 C71 C72 116.9 . .
C85 C71 C72 121.2 . .
C69 C71 C84 69.5 . .
C85 C71 C84 44.3 . .
C72 C71 C84 149.5 . .
C73 C72 C50 118.0 . .
C73 C72 C71 112.2 . .
C50 C72 C71 124.2 . .
C72 C73 C53 127.4 . .
C72 C73 C74 123.7 . .
C53 C73 C74 94.7 . .
C75 C74 C55 125.7 . .
C75 C74 C73 126.3 . .
C55 C74 C73 99.6 . .
C74 C75 C85 107.5 . .
C74 C75 C76 136.9 . .
C85 C75 C76 104.5 . .
C86 C76 C77 109.4 . .
C86 C76 C75 138.1 . .
C77 C76 C75 99.3 . .
C78 C77 C76 106.5 . .
C78 C77 C56 120.1 . .
C76 C77 C56 125.4 . .
C59 C78 C77 125.3 . .
C59 C78 C79 113.3 . .
C77 C78 C79 109.1 . .
C80 C79 C78 135.3 . .
C80 C79 C86 104.3 . .
C78 C79 C86 108.2 . .
C79 C80 C81 118.5 . .
C79 C80 C61 114.3 . .
C81 C80 C61 123.6 . .
C79 C80 C86 43.6 . .
C81 C80 C86 75.0 . .
C61 C80 C86 150.2 . .
C79 C80 Lu1 116.40(6) . .
C81 C80 Lu1 64.42(6) . .
C61 C80 Lu1 75.68(7) . .
C86 C80 Lu1 96.13(7) . .
C80 C81 C64 118.8 . .
C80 C81 C82 131.9 . .
C64 C81 C82 99.6 . .
C80 C81 Lu11 101.3(3) . .
C64 C81 Lu11 67.9(3) . .
C82 C81 Lu11 65.9(2) . .
C80 C81 Lu1 87.40(7) . .
C64 C81 Lu1 55.34(7) . .
C82 C81 Lu1 92.45(7) . .
Lu11 C81 Lu1 27.0(2) . .
C83 C82 C66 129.0 . .
C83 C82 C81 113.9 . .
C66 C82 C81 105.4 . .
C83 C82 Lu11 93.9(3) . .
C66 C82 Lu11 68.3(4) . .
C81 C82 Lu11 72.1(3) . .
C82 C83 C84 112.4 . .
C82 C83 C86 90.8 . .
C84 C83 C86 150.2 . .
C82 C83 Lu11 57.02(15) . .
C84 C83 Lu11 90.5(3) . .
C86 C83 Lu11 86.7(3) . .
C85 C84 C68 134.1 . .
C85 C84 C83 100.8 . .
C68 C84 C83 121.4 . .
C85 C84 C71 49.9 . .
C68 C84 C71 84.2 . .
C83 C84 C71 146.1 . .
C85 C84 C69 92.2 . .
C68 C84 C69 42.1 . .
C83 C84 C69 158.2 . .
C71 C84 C69 42.3 . .
C85 C84 Lu9 107.43(11) . .
C68 C84 Lu9 56.53(13) . .
C83 C84 Lu9 93.66(12) . .
C71 C84 Lu9 82.28(12) . .
C69 C84 Lu9 65.56(13) . .
C84 C85 C71 85.8 . .
C84 C85 C75 134.7 . .
C71 C85 C75 128.5 . .
C76 C86 C79 106.2 . .
C76 C86 C83 86.9 . .
C79 C86 C83 151.4 . .
C76 C86 C80 133.1 . .
C79 C86 C80 32.1 . .
C83 C86 C80 122.7 . .
N2A Ni1A N2A 177.58(16) . 6_565
N2A Ni1A N3A 89.87(8) . .
N2A Ni1A N3A 89.87(8) 6_565 .
N2A Ni1A N1A 90.10(8) . .
N2A Ni1A N1A 90.10(8) 6_565 .
N3A Ni1A N1A 178.49(16) . .
C4A N1A C4A 104.6(4) . 6_565
C4A N1A Ni1A 127.7(2) . .
C4A N1A Ni1A 127.7(2) 6_565 .
C13A N2A C6A 104.5(3) . .
C13A N2A Ni1A 127.9(2) . .
C6A N2A Ni1A 127.6(2) . .
C15A N3A C15A 104.0(4) . 6_565
C15A N3A Ni1A 128.0(2) . .
C15A N3A Ni1A 128.0(2) 6_565 .
C2A C1A H1AA 109.5 . .
C2A C1A H1AB 109.5 . .
H1AA C1A H1AB 109.5 . .
C2A C1A H1AC 109.5 . .
H1AA C1A H1AC 109.5 . .
H1AB C1A H1AC 109.5 . .
C3A C2A C1A 113.0(4) . .
C3A C2A H2AA 109.0 . .
C1A C2A H2AA 109.0 . .
C3A C2A H2AB 109.0 . .
C1A C2A H2AB 109.0 . .
H2AA C2A H2AB 107.8 . .
C3A C3A C4A 106.4(2) 6_565 .
C3A C3A C2A 129.1(2) 6_565 .
C4A C3A C2A 124.5(4) . .
N1A C4A C5A 125.4(3) . .
N1A C4A C3A 111.3(3) . .
C5A C4A C3A 123.4(3) . .
C4A C5A C6A 123.8(3) . .
C4A C5A H5A 118.1 . .
C6A C5A H5A 118.1 . .
C5A C6A N2A 125.4(3) . .
C5A C6A C7A 123.5(3) . .
N2A C6A C7A 111.1(3) . .
C10A C7A C6A 106.5(3) . .
C10A C7A C8A 128.8(4) . .
C6A C7A C8A 124.7(3) . .
C7A C8A C9A 112.8(3) . .
C7A C8A H8AA 109.0 . .
C9A C8A H8AA 109.0 . .
C7A C8A H8AB 109.0 . .
C9A C8A H8AB 109.0 . .
H8AA C8A H8AB 107.8 . .
C8A C9A H9AA 109.5 . .
C8A C9A H9AB 109.5 . .
H9AA C9A H9AB 109.5 . .
C8A C9A H9AC 109.5 . .
H9AA C9A H9AC 109.5 . .
H9AB C9A H9AC 109.5 . .
C7A C10A C13A 106.2(3) . .
C7A C10A C11A 128.3(3) . .
C13A C10A C11A 125.5(3) . .
C10A C11A C12A 112.2(4) . .
C10A C11A H11A 109.2 . .
C12A C11A H11A 109.2 . .
C10A C11A H11B 109.2 . .
C12A C11A H11B 109.2 . .
H11A C11A H11B 107.9 . .
C11A C12A H12A 109.5 . .
C11A C12A H12B 109.5 . .
H12A C12A H12B 109.5 . .
C11A C12A H12C 109.5 . .
H12A C12A H12C 109.5 . .
H12B C12A H12C 109.5 . .
N2A C13A C14A 125.5(3) . .
N2A C13A C10A 111.7(3) . .
C14A C13A C10A 122.7(3) . .
C15A C14A C13A 123.8(3) . .
C15A C14A H14A 118.1 . .
C13A C14A H14A 118.1 . .
C14A C15A N3A 124.9(3) . .
C14A C15A C16A 123.4(3) . .
N3A C15A C16A 111.7(3) . .
C16A C16A C15A 106.3(2) 6_565 .
C16A C16A C17A 128.5(2) 6_565 .
C15A C16A C17A 125.1(3) . .
C16A C17A C18A 113.4(3) . .
C16A C17A H17A 108.9 . .
C18A C17A H17A 108.9 . .
C16A C17A H17B 108.9 . .
C18A C17A H17B 108.9 . .
H17A C17A H17B 107.7 . .
C17A C18A H18A 109.5 . .
C17A C18A H18B 109.5 . .
H18A C18A H18B 109.5 . .
C17A C18A H18C 109.5 . .
H18A C18A H18C 109.5 . .
H18B C18A H18C 109.5 . .
C2B C1B C2B 112.5(15) 6 .
C2B C1B H1BA 123.8 6 .
C2B C1B H1BA 123.8 . .
C3B C2B C1B 120.7(12) . .
C3B C2B H2B 119.6 . .
C1B C2B H2B 119.6 . .
C4B C3B C2B 116.7(12) . .
C4B C3B H3B 121.7 . .
C2B C3B H3B 121.7 . .
C3B C4B C3B 132.2(17) 6 .
C3B C4B H4B 113.9 6 .
C3B C4B H4B 113.9 . .
C2C C1C C1C 127.3(7) . 2_655
C2C C1C H1C 116.4 . .
C1C C1C H1C 116.4 2_655 .
C1C C2C C3C 114.2(9) . .
C1C C2C H2C 122.9 . .
C3C C2C H2C 122.9 . .
C2C C3C C3C 118.4(6) . 2_655
C2C C3C H3C 120.8 . .
C3C C3C H3C 120.8 2_655 .
loop_
_geom_bond_atom_site_label_1
_geom_bond_atom_site_label_2
_geom_bond_distance
_geom_bond_site_symmetry_2
Lu1 Lu11 1.174(10) .
Lu1 Lu11 1.174(10) 6_565
Lu1 Lu8 1.506(9) .
Lu1 Lu8 1.506(9) 6_565
Lu1 Lu7 1.864(5) .
Lu1 Lu7 1.864(5) 6_565
Lu1 C64 2.098(2) .
Lu1 C63 2.116(2) .
Lu1 Lu5 2.312(10) 6_565
Lu1 Lu5 2.313(10) .
Lu1 C41 2.377(3) .
Lu1 C65 2.377(3) .
Lu2 Lu10 0.830(6) 6_565
Lu2 Lu6 0.929(13) 6_565
Lu2 Lu10 1.409(10) .
Lu2 Lu2 1.765(6) 6_565
Lu2 Lu4 2.084(3) 6_565
Lu2 C33 2.104(3) .
Lu2 C31 2.293(3) .
Lu2 C34 2.394(3) .
Lu2 C57 2.428(4) .
Lu2 Lu6 2.452(12) .
Lu2 C35 2.620(4) .
Lu2 C58 2.649(3) .
Lu3 Lu4 1.116(3) 6_565
Lu3 Lu4 1.116(3) .
Lu3 C29 2.222(4) .
Lu3 C28 2.244(4) .
Lu3 Lu6 2.395(13) .
Lu3 Lu6 2.395(13) 6_565
Lu3 C51 2.412(4) .
Lu3 C30 2.430(5) .
Lu3 C52 2.459(4) .
Lu3 C27 2.613(5) .
Lu3 Lu9 2.673(7) 6_565
Lu3 Lu9 2.673(7) .
Lu4 Lu6 1.455(14) .
Lu4 Lu4 1.968(4) 6_565
Lu4 Lu2 2.084(3) 6_565
Lu4 C11 2.213(3) .
Lu4 C29 2.322(3) .
Lu4 C10 2.422(3) .
Lu4 C12 2.534(3) .
Lu4 Lu5 2.662(9) .
Lu4 Lu10 2.712(7) .
Lu4 C28 2.723(3) .
Lu4 C30 2.741(3) .
Lu5 Lu9 0.422(13) 6_565
Lu5 Lu7 1.230(10) .
Lu5 Lu9 1.259(8) .
Lu5 Lu11 1.290(13) 6_565
Lu5 Lu5 1.452(19) 6_565
Lu5 Lu11 1.901(16) .
Lu5 Lu8 2.021(11) .
Lu5 C45 2.073(7) .
Lu5 C23 2.262(8) .
Lu5 C44 2.301(7) .
Lu5 Lu7 2.377(10) 6_565
Lu6 Lu2 0.929(13) 6_565
Lu6 Lu10 1.672(14) .
Lu6 C12 2.212(9) .
Lu6 Lu10 2.222(15) 6_565
Lu6 C2 2.340(8) .
Lu6 C13 2.432(9) .
Lu6 C3 2.440(10) .
Lu6 Lu8 2.468(11) .
Lu6 C15 2.691(13) .
Lu7 Lu11 0.885(11) 6_565
Lu7 Lu8 0.933(9) .
Lu7 Lu9 1.651(8) 6_565
Lu7 Lu11 2.149(17) .
Lu7 C42 2.176(4) .
Lu7 C21 2.264(5) .
Lu7 C43 2.292(5) .
Lu7 Lu9 2.343(8) .
Lu7 Lu5 2.377(10) 6_565
Lu7 C22 2.441(5) .
Lu8 Lu11 1.192(17) 6_565
Lu8 Lu11 2.254(12) .
Lu8 C42 2.292(6) .
Lu8 C41 2.366(6) .
Lu8 Lu9 2.428(10) 6_565
Lu8 C21 2.471(8) .
Lu8 C40 2.479(7) .
Lu8 C19 2.509(6) .
Lu9 Lu5 0.422(13) 6_565
Lu9 Lu9 0.970(13) 6_565
Lu9 Lu11 1.621(16) .
Lu9 Lu7 1.651(8) 6_565
Lu9 Lu11 1.983(19) 6_565
Lu9 C44 2.117(6) .
Lu9 C67 2.131(6) .
Lu9 C46 2.242(6) .
Lu9 C68 2.342(7) .
Lu9 Lu8 2.428(10) 6_565
Lu10 Lu10 0.735(18) 6_565
Lu10 Lu2 0.830(6) 6_565
Lu10 Lu6 2.222(15) 6_565
Lu10 C34 2.388(8) .
Lu10 C14 2.388(7) .
Lu10 C16 2.424(7) .
Lu10 C35 2.486(7) .
Lu10 C36 2.489(7) .
Lu10 C15 2.537(7) .
Lu11 Lu7 0.885(11) 6_565
Lu11 Lu8 1.192(17) 6_565
Lu11 Lu5 1.290(13) 6_565
Lu11 Lu11 1.34(3) 6_565
Lu11 Lu9 1.983(19) 6_565
Lu11 C65 2.145(9) .
Lu11 C66 2.251(8) .
C1 C5 1.3886 .
C1 C2 1.4738 .
C1 C9 1.4803 .
C2 C3 1.2695 .
C2 C12 1.4396 .
C3 C15 1.3657 .
C3 C4 1.4115 .
C4 C18 1.3395 .
C4 C5 1.4744 .
C5 C6 1.0554 .
C6 C7 1.4757 .
C6 C20 1.4963 .
C7 C22 1.4813 .
C7 C8 1.8354 .
C8 C9 1.4675 .
C8 C25 1.4796 .
C9 C10 1.4750 .
C10 C26 1.4675 .
C10 C11 1.5315 .
C11 C29 1.4753 .
C11 C12 1.4849 .
C12 C13 1.5032 .
C13 C14 1.4016 .
C13 C32 1.4273 .
C14 C34 1.4334 .
C14 C15 1.5490 .
C15 C16 1.3544 .
C16 C36 1.3072 .
C16 C17 1.4133 .
C17 C38 1.2734 .
C17 C18 1.3780 .
C17 C36 1.8540 .
C17 C37 1.9582 .
C18 C19 1.5646 .
C19 C40 1.4439 .
C19 C20 1.4696 .
C20 C21 1.4206 .
C21 C42 1.3960 .
C21 C22 1.5845 .
C22 C23 1.2622 .
C23 C45 1.4727 .
C23 C24 1.6943 .
C24 C47 1.5075 .
C24 C25 1.5318 .
C25 C26 1.4881 .
C26 C27 1.4767 .
C27 C28 1.2928 .
C27 C48 1.4729 .
C28 C29 1.3665 .
C28 C51 1.5908 .
C29 C30 1.4969 .
C30 C32 1.4155 .
C30 C52 1.5101 .
C31 C33 1.3761 .
C31 C32 1.4341 .
C31 C54 1.5305 .
C33 C34 1.5433 .
C33 C57 1.7553 .
C34 C35 1.3432 .
C35 C36 1.5899 .
C35 C58 1.7749 .
C36 C37 1.3392 .
C37 C38 1.5050 .
C37 C60 1.5572 .
C37 C39 2.0357 .
C38 C39 1.2602 .
C38 C40 2.0158 .
C39 C62 1.1994 .
C39 C40 1.5414 .
C40 C41 1.4768 .
C41 C63 1.2799 .
C41 C42 1.4344 .
C42 C43 1.5048 .
C43 C45 1.4030 .
C43 C65 1.4050 .
C44 C67 1.4217 .
C44 C45 1.4525 .
C44 C46 1.5007 .
C46 C70 1.3630 .
C46 C47 1.3897 .
C47 C48 1.4959 .
C47 C70 2.0391 .
C48 C49 1.2247 .
C48 C50 2.0151 .
C49 C50 1.2663 .
C49 C70 1.3506 .
C50 C51 1.1854 .
C50 C72 1.3604 .
C51 C52 1.3854 .
C52 C53 1.3168 .
C53 C54 1.3049 .
C53 C73 1.5471 .
C53 C55 1.9213 .
C54 C55 1.2515 .
C55 C74 1.4530 .
C55 C56 1.6704 .
C56 C57 1.4100 .
C56 C77 1.4469 .
C57 C58 1.3936 .
C58 C59 1.4323 .
C59 C78 1.4088 .
C59 C60 1.6791 .
C60 C61 1.5981 .
C61 C80 1.4399 .
C61 C62 1.6301 .
C62 C63 1.3183 .
C63 C64 1.4821 .
C64 C65 1.4333 .
C64 C81 1.4639 .
C65 C66 1.4322 .
C66 C82 1.4062 .
C66 C67 1.4116 .
C67 C68 1.4108 .
C68 C69 1.2523 .
C68 C84 1.4104 .
C68 C70 1.9133 .
C69 C70 1.0556 .
C69 C71 1.3405 .
C69 C84 1.8664 .
C71 C85 1.4182 .
C71 C72 1.4402 .
C71 C84 1.8490 .
C72 C73 1.3218 .
C73 C74 1.5475 .
C74 C75 1.3253 .
C75 C85 1.4457 .
C75 C76 1.6265 .
C76 C86 1.4255 .
C76 C77 1.4394 .
C77 C78 1.4145 .
C78 C79 1.4249 .
C79 C80 1.1114 .
C79 C86 1.4427 .
C80 C81 1.3353 .
C80 C86 2.0272 .
C81 C82 1.7261 .
C82 C83 1.3634 .
C83 C84 1.4160 .
C83 C86 1.5915 .
C84 C85 1.2961 .
Ni1A N2A 1.958(3) .
Ni1A N2A 1.958(3) 6_565
Ni1A N3A 1.962(4) .
Ni1A N1A 1.966(4) .
N1A C4A 1.374(4) .
N1A C4A 1.374(4) 6_565
N2A C13A 1.367(5) .
N2A C6A 1.380(5) .
N3A C15A 1.375(4) .
N3A C15A 1.375(4) 6_565
C1A C2A 1.530(7) .
C1A H1AA 0.9600 .
C1A H1AB 0.9600 .
C1A H1AC 0.9600 .
C2A C3A 1.501(5) .
C2A H2AA 0.9700 .
C2A H2AB 0.9700 .
C3A C3A 1.354(8) 6_565
C3A C4A 1.451(5) .
C4A C5A 1.374(5) .
C5A C6A 1.376(5) .
C5A H5A 0.9300 .
C6A C7A 1.445(5) .
C7A C10A 1.361(6) .
C7A C8A 1.496(5) .
C8A C9A 1.519(6) .
C8A H8AA 0.9700 .
C8A H8AB 0.9700 .
C9A H9AA 0.9600 .
C9A H9AB 0.9600 .
C9A H9AC 0.9600 .
C10A C13A 1.444(5) .
C10A C11A 1.497(5) .
C11A C12A 1.533(6) .
C11A H11A 0.9700 .
C11A H11B 0.9700 .
C12A H12A 0.9600 .
C12A H12B 0.9600 .
C12A H12C 0.9600 .
C13A C14A 1.377(5) .
C14A C15A 1.375(5) .
C14A H14A 0.9300 .
C15A C16A 1.441(5) .
C16A C16A 1.358(8) 6_565
C16A C17A 1.497(5) .
C17A C18A 1.518(6) .
C17A H17A 0.9700 .
C17A H17B 0.9700 .
C18A H18A 0.9600 .
C18A H18B 0.9600 .
C18A H18C 0.9600 .
C1B C2B 1.500(14) 6
C1B C2B 1.500(14) .
C1B H1BA 0.9300 .
C2B C3B 1.312(16) .
C2B H2B 0.9300 .
C3B C4B 1.288(11) .
C3B H3B 0.9300 .
C4B C3B 1.288(11) 6
C4B H4B 0.9300 .
C1C C2C 1.230(14) .
C1C C1C 1.38(2) 2_655
C1C H1C 0.9300 .
C2C C3C 1.406(15) .
C2C H2C 0.9300 .
C3C C3C 1.53(3) 2_655
C3C H3C 0.9300 .
loop_
_geom_torsion_atom_site_label_1
_geom_torsion_atom_site_label_2
_geom_torsion_atom_site_label_3
_geom_torsion_atom_site_label_4
_geom_torsion
_geom_torsion_site_symmetry_1
_geom_torsion_site_symmetry_4
Lu4 Lu3 Lu4 Lu6 8.3(8) 6_565 .
C29 Lu3 Lu4 Lu6 122.1(6) . .
C28 Lu3 Lu4 Lu6 150.1(5) . .
Lu6 Lu3 Lu4 Lu6 4.8(5) 6_565 .
C51 Lu3 Lu4 Lu6 140.1(6) . .
C30 Lu3 Lu4 Lu6 87.1(6) . .
C52 Lu3 Lu4 Lu6 95.9(6) . .
C27 Lu3 Lu4 Lu6 -179.8(5) . .
Lu9 Lu3 Lu4 Lu6 -88.1(6) 6_565 .
Lu9 Lu3 Lu4 Lu6 -78.1(6) . .
C29 Lu3 Lu4 Lu4 113.7(5) . 6_565
C28 Lu3 Lu4 Lu4 141.8(6) . 6_565
Lu6 Lu3 Lu4 Lu4 -8.3(8) . 6_565
Lu6 Lu3 Lu4 Lu4 -3.5(3) 6_565 6_565
C51 Lu3 Lu4 Lu4 131.8(9) . 6_565
C30 Lu3 Lu4 Lu4 78.8(4) . 6_565
C52 Lu3 Lu4 Lu4 87.6(6) . 6_565
C27 Lu3 Lu4 Lu4 171.8(5) . 6_565
Lu9 Lu3 Lu4 Lu4 -96.4(4) 6_565 6_565
Lu9 Lu3 Lu4 Lu4 -86.4(4) . 6_565
Lu4 Lu3 Lu4 Lu2 -0.3(5) 6_565 6_565
C29 Lu3 Lu4 Lu2 113.48(17) . 6_565
C28 Lu3 Lu4 Lu2 141.48(18) . 6_565
Lu6 Lu3 Lu4 Lu2 -8.6(5) . 6_565
Lu6 Lu3 Lu4 Lu2 -3.8(3) 6_565 6_565
C51 Lu3 Lu4 Lu2 131.5(5) . 6_565
C30 Lu3 Lu4 Lu2 78.51(19) . 6_565
C52 Lu3 Lu4 Lu2 87.3(3) . 6_565
C27 Lu3 Lu4 Lu2 171.57(14) . 6_565
Lu9 Lu3 Lu4 Lu2 -96.7(2) 6_565 6_565
Lu9 Lu3 Lu4 Lu2 -86.7(3) . 6_565
Lu4 Lu3 Lu4 C11 -112.9(4) 6_565 .
C29 Lu3 Lu4 C11 0.81(18) . .
C28 Lu3 Lu4 C11 28.8(3) . .
Lu6 Lu3 Lu4 C11 -121.3(6) . .
Lu6 Lu3 Lu4 C11 -116.4(3) 6_565 .
C51 Lu3 Lu4 C11 18.9(6) . .
C30 Lu3 Lu4 C11 -34.2(2) . .
C52 Lu3 Lu4 C11 -25.3(4) . .
C27 Lu3 Lu4 C11 58.9(2) . .
Lu9 Lu3 Lu4 C11 150.66(18) 6_565 .
Lu9 Lu3 Lu4 C11 160.62(19) . .
Lu4 Lu3 Lu4 C29 -113.7(5) 6_565 .
C28 Lu3 Lu4 C29 28.01(11) . .
Lu6 Lu3 Lu4 C29 -122.1(6) . .
Lu6 Lu3 Lu4 C29 -117.2(3) 6_565 .
C51 Lu3 Lu4 C29 18.0(4) . .
C30 Lu3 Lu4 C29 -34.97(6) . .
C52 Lu3 Lu4 C29 -26.2(2) . .
C27 Lu3 Lu4 C29 58.10(10) . .
Lu9 Lu3 Lu4 C29 149.9(2) 6_565 .
Lu9 Lu3 Lu4 C29 159.8(3) . .
Lu4 Lu3 Lu4 C10 -153.6(3) 6_565 .
C29 Lu3 Lu4 C10 -39.85(18) . .
C28 Lu3 Lu4 C10 -11.8(3) . .
Lu6 Lu3 Lu4 C10 -161.9(6) . .
Lu6 Lu3 Lu4 C10 -157.1(2) 6_565 .
C51 Lu3 Lu4 C10 -21.8(6) . .
C30 Lu3 Lu4 C10 -74.8(2) . .
C52 Lu3 Lu4 C10 -66.0(4) . .
C27 Lu3 Lu4 C10 18.2(2) . .
Lu9 Lu3 Lu4 C10 110.00(19) 6_565 .
Lu9 Lu3 Lu4 C10 120.0(2) . .
Lu4 Lu3 Lu4 C12 -81.1(4) 6_565 .
C29 Lu3 Lu4 C12 32.7(3) . .
C28 Lu3 Lu4 C12 60.7(4) . .
Lu6 Lu3 Lu4 C12 -89.4(7) . .
Lu6 Lu3 Lu4 C12 -84.6(3) 6_565 .
C51 Lu3 Lu4 C12 50.7(7) . .
C30 Lu3 Lu4 C12 -2.3(3) . .
C52 Lu3 Lu4 C12 6.5(5) . .
C27 Lu3 Lu4 C12 90.8(3) . .
Lu9 Lu3 Lu4 C12 -177.5(2) 6_565 .
Lu9 Lu3 Lu4 C12 -167.5(2) . .
Lu4 Lu3 Lu4 Lu5 92.2(4) 6_565 .
C29 Lu3 Lu4 Lu5 -154.0(2) . .
C28 Lu3 Lu4 Lu5 -126.0(3) . .
Lu6 Lu3 Lu4 Lu5 83.9(6) . .
Lu6 Lu3 Lu4 Lu5 88.8(3) 6_565 .
C51 Lu3 Lu4 Lu5 -136.0(6) . .
C30 Lu3 Lu4 Lu5 171.0(3) . .
C52 Lu3 Lu4 Lu5 179.8(4) . .
C27 Lu3 Lu4 Lu5 -95.9(3) . .
Lu9 Lu3 Lu4 Lu5 -4.2(3) 6_565 .
Lu9 Lu3 Lu4 Lu5 5.8(3) . .
Lu4 Lu3 Lu4 Lu10 7.9(5) 6_565 .
C29 Lu3 Lu4 Lu10 121.7(2) . .
C28 Lu3 Lu4 Lu10 149.7(3) . .
Lu6 Lu3 Lu4 Lu10 -0.4(6) . .
Lu6 Lu3 Lu4 Lu10 4.4(3) 6_565 .
C51 Lu3 Lu4 Lu10 139.7(5) . .
C30 Lu3 Lu4 Lu10 86.7(2) . .
C52 Lu3 Lu4 Lu10 95.5(4) . .
C27 Lu3 Lu4 Lu10 179.7(2) . .
Lu9 Lu3 Lu4 Lu10 -88.5(2) 6_565 .
Lu9 Lu3 Lu4 Lu10 -78.5(3) . .
Lu4 Lu3 Lu4 C28 -141.8(6) 6_565 .
C29 Lu3 Lu4 C28 -28.01(11) . .
Lu6 Lu3 Lu4 C28 -150.1(5) . .
Lu6 Lu3 Lu4 C28 -145.2(4) 6_565 .
C51 Lu3 Lu4 C28 -10.0(3) . .
C30 Lu3 Lu4 C28 -62.97(14) . .
C52 Lu3 Lu4 C28 -54.2(2) . .
C27 Lu3 Lu4 C28 30.09(9) . .
Lu9 Lu3 Lu4 C28 121.8(3) 6_565 .
Lu9 Lu3 Lu4 C28 131.8(3) . .
Lu4 Lu3 Lu4 C30 -78.8(4) 6_565 .
C29 Lu3 Lu4 C30 34.97(6) . .
C28 Lu3 Lu4 C30 62.97(14) . .
Lu6 Lu3 Lu4 C30 -87.1(6) . .
Lu6 Lu3 Lu4 C30 -82.3(3) 6_565 .
C51 Lu3 Lu4 C30 53.0(4) . .
C52 Lu3 Lu4 C30 8.8(2) . .
C27 Lu3 Lu4 C30 93.06(15) . .
Lu9 Lu3 Lu4 C30 -175.2(2) 6_565 .
Lu9 Lu3 Lu4 C30 -165.2(3) . .
Lu3 Lu4 Lu6 Lu2 -20.5(12) . 6_565
Lu4 Lu4 Lu6 Lu2 -16.4(9) 6_565 6_565
C11 Lu4 Lu6 Lu2 105.0(8) . 6_565
C29 Lu4 Lu6 Lu2 79.6(9) . 6_565
C10 Lu4 Lu6 Lu2 141.4(7) . 6_565
C12 Lu4 Lu6 Lu2 100.7(9) . 6_565
Lu5 Lu4 Lu6 Lu2 -100.9(8) . 6_565
Lu10 Lu4 Lu6 Lu2 -19.7(5) . 6_565
C28 Lu4 Lu6 Lu2 83.8(13) . 6_565
C30 Lu4 Lu6 Lu2 47.8(9) . 6_565
Lu3 Lu4 Lu6 Lu10 -0.8(10) . .
Lu4 Lu4 Lu6 Lu10 3.4(7) 6_565 .
Lu2 Lu4 Lu6 Lu10 19.7(5) 6_565 .
C11 Lu4 Lu6 Lu10 124.8(6) . .
C29 Lu4 Lu6 Lu10 99.4(6) . .
C10 Lu4 Lu6 Lu10 161.1(5) . .
C12 Lu4 Lu6 Lu10 120.4(8) . .
Lu5 Lu4 Lu6 Lu10 -81.2(7) . .
C28 Lu4 Lu6 Lu10 103.6(10) . .
C30 Lu4 Lu6 Lu10 67.6(7) . .
Lu3 Lu4 Lu6 C12 -121.2(5) . .
Lu4 Lu4 Lu6 C12 -117.1(2) 6_565 .
Lu2 Lu4 Lu6 C12 -100.7(9) 6_565 .
C11 Lu4 Lu6 C12 4.3(3) . .
C29 Lu4 Lu6 C12 -21.1(6) . .
C10 Lu4 Lu6 C12 40.7(4) . .
Lu5 Lu4 Lu6 C12 158.4(3) . .
Lu10 Lu4 Lu6 C12 -120.4(8) . .
C28 Lu4 Lu6 C12 -16.9(13) . .
C30 Lu4 Lu6 C12 -52.9(4) . .
Lu3 Lu4 Lu6 Lu10 -1.9(8) . 6_565
Lu4 Lu4 Lu6 Lu10 2.3(5) 6_565 6_565
Lu2 Lu4 Lu6 Lu10 18.6(6) 6_565 6_565
C11 Lu4 Lu6 Lu10 123.7(4) . 6_565
C29 Lu4 Lu6 Lu10 98.3(4) . 6_565
C10 Lu4 Lu6 Lu10 160.0(3) . 6_565
C12 Lu4 Lu6 Lu10 119.3(6) . 6_565
Lu5 Lu4 Lu6 Lu10 -82.3(4) . 6_565
Lu10 Lu4 Lu6 Lu10 -1.1(2) . 6_565
C28 Lu4 Lu6 Lu10 102.5(10) . 6_565
C30 Lu4 Lu6 Lu10 66.5(4) . 6_565
Lu3 Lu4 Lu6 C2 -149.4(4) . .
Lu4 Lu4 Lu6 C2 -145.2(3) 6_565 .
Lu2 Lu4 Lu6 C2 -128.9(11) 6_565 .
C11 Lu4 Lu6 C2 -23.9(5) . .
C29 Lu4 Lu6 C2 -49.2(7) . .
C10 Lu4 Lu6 C2 12.5(6) . .
C12 Lu4 Lu6 C2 -28.2(2) . .
Lu5 Lu4 Lu6 C2 130.2(5) . .
Lu10 Lu4 Lu6 C2 -148.6(10) . .
C28 Lu4 Lu6 C2 -45.1(14) . .
C30 Lu4 Lu6 C2 -81.1(5) . .
Lu4 Lu4 Lu6 Lu3 4.1(4) 6_565 .
Lu2 Lu4 Lu6 Lu3 20.5(12) 6_565 .
C11 Lu4 Lu6 Lu3 125.5(6) . .
C29 Lu4 Lu6 Lu3 100.2(7) . .
C10 Lu4 Lu6 Lu3 161.9(7) . .
C12 Lu4 Lu6 Lu3 121.2(5) . .
Lu5 Lu4 Lu6 Lu3 -80.4(5) . .
Lu10 Lu4 Lu6 Lu3 0.8(10) . .
C28 Lu4 Lu6 Lu3 104.3(13) . .
C30 Lu4 Lu6 Lu3 68.3(5) . .
Lu3 Lu4 Lu6 C13 -85.2(6) . .
Lu4 Lu4 Lu6 C13 -81.0(3) 6_565 .
Lu2 Lu4 Lu6 C13 -64.7(8) 6_565 .
C11 Lu4 Lu6 C13 40.4(3) . .
C29 Lu4 Lu6 C13 15.0(6) . .
C10 Lu4 Lu6 C13 76.7(4) . .
C12 Lu4 Lu6 C13 36.05(13) . .
Lu5 Lu4 Lu6 C13 -165.6(3) . .
Lu10 Lu4 Lu6 C13 -84.4(8) . .
C28 Lu4 Lu6 C13 19.2(13) . .
C30 Lu4 Lu6 C13 -16.8(4) . .
Lu3 Lu4 Lu6 C3 -145.8(7) . .
Lu4 Lu4 Lu6 C3 -141.7(8) 6_565 .
Lu2 Lu4 Lu6 C3 -125.3(15) 6_565 .
C11 Lu4 Lu6 C3 -20.3(9) . .
C29 Lu4 Lu6 C3 -45.7(12) . .
C10 Lu4 Lu6 C3 16.1(10) . .
C12 Lu4 Lu6 C3 -24.6(6) . .
Lu5 Lu4 Lu6 C3 133.8(9) . .
Lu10 Lu4 Lu6 C3 -145.0(14) . .
C28 Lu4 Lu6 C3 -41.5(18) . .
C30 Lu4 Lu6 C3 -77.5(9) . .
Lu3 Lu4 Lu6 Lu2 -9.4(7) . .
Lu4 Lu4 Lu6 Lu2 -5.3(3) 6_565 .
Lu2 Lu4 Lu6 Lu2 11.1(6) 6_565 .
C11 Lu4 Lu6 Lu2 116.1(2) . .
C29 Lu4 Lu6 Lu2 90.7(4) . .
C10 Lu4 Lu6 Lu2 152.44(17) . .
C12 Lu4 Lu6 Lu2 111.8(4) . .
Lu5 Lu4 Lu6 Lu2 -89.9(3) . .
Lu10 Lu4 Lu6 Lu2 -8.7(5) . .
C28 Lu4 Lu6 Lu2 94.9(10) . .
C30 Lu4 Lu6 Lu2 58.9(3) . .
Lu3 Lu4 Lu6 Lu8 79.4(7) . .
Lu4 Lu4 Lu6 Lu8 83.6(5) 6_565 .
Lu2 Lu4 Lu6 Lu8 99.9(9) 6_565 .
C11 Lu4 Lu6 Lu8 -155.0(4) . .
C29 Lu4 Lu6 Lu8 179.6(3) . .
C10 Lu4 Lu6 Lu8 -118.7(4) . .
C12 Lu4 Lu6 Lu8 -159.4(6) . .
Lu5 Lu4 Lu6 Lu8 -1.0(5) . .
Lu10 Lu4 Lu6 Lu8 80.2(6) . .
C28 Lu4 Lu6 Lu8 -176.3(8) . .
C30 Lu4 Lu6 Lu8 147.7(3) . .
Lu3 Lu4 Lu6 C15 -95.0(12) . .
Lu4 Lu4 Lu6 C15 -90.8(12) 6_565 .
Lu2 Lu4 Lu6 C15 -74.4(14) 6_565 .
C11 Lu4 Lu6 C15 30.6(13) . .
C29 Lu4 Lu6 C15 5.2(15) . .
C10 Lu4 Lu6 C15 66.9(13) . .
C12 Lu4 Lu6 C15 26.3(10) . .
Lu5 Lu4 Lu6 C15 -175.4(12) . .
Lu10 Lu4 Lu6 C15 -94.2(16) . .
C28 Lu4 Lu6 C15 9(2) . .
C30 Lu4 Lu6 C15 -26.6(13) . .
Lu9 Lu5 Lu7 Lu11 27.0(13) . 6_565
Lu5 Lu5 Lu7 Lu11 29.4(6) 6_565 6_565
Lu11 Lu5 Lu7 Lu11 16.7(4) . 6_565
Lu8 Lu5 Lu7 Lu11 56.3(12) . 6_565
C45 Lu5 Lu7 Lu11 -82.6(7) . 6_565
C23 Lu5 Lu7 Lu11 -121.2(7) . 6_565
C44 Lu5 Lu7 Lu11 -71.0(10) . 6_565
Lu1 Lu5 Lu7 Lu11 20.1(5) . 6_565
Lu7 Lu5 Lu7 Lu11 29.4(6) 6_565 6_565
Lu9 Lu5 Lu7 Lu8 -29(2) . .
Lu11 Lu5 Lu7 Lu8 -56.3(12) 6_565 .
Lu5 Lu5 Lu7 Lu8 -26.8(15) 6_565 .
Lu11 Lu5 Lu7 Lu8 -39.5(14) . .
C45 Lu5 Lu7 Lu8 -138.8(12) . .
C23 Lu5 Lu7 Lu8 -177.4(12) . .
C44 Lu5 Lu7 Lu8 -127.3(11) . .
Lu1 Lu5 Lu7 Lu8 -36.2(11) . .
Lu7 Lu5 Lu7 Lu8 -26.8(15) 6_565 .
Lu9 Lu5 Lu7 Lu9 84(29) . 6_565
Lu11 Lu5 Lu7 Lu9 57(29) 6_565 6_565
Lu5 Lu5 Lu7 Lu9 86(29) 6_565 6_565
Lu11 Lu5 Lu7 Lu9 74(29) . 6_565
Lu8 Lu5 Lu7 Lu9 113(28) . 6_565
C45 Lu5 Lu7 Lu9 -26(28) . 6_565
C23 Lu5 Lu7 Lu9 -64(29) . 6_565
C44 Lu5 Lu7 Lu9 -14(28) . 6_565
Lu1 Lu5 Lu7 Lu9 77(29) . 6_565
Lu7 Lu5 Lu7 Lu9 86(29) 6_565 6_565
Lu9 Lu5 Lu7 Lu1 6.9(14) . .
Lu11 Lu5 Lu7 Lu1 -20.1(5) 6_565 .
Lu5 Lu5 Lu7 Lu1 9.3(4) 6_565 .
Lu11 Lu5 Lu7 Lu1 -3.4(4) . .
Lu8 Lu5 Lu7 Lu1 36.2(11) . .
C45 Lu5 Lu7 Lu1 -102.7(3) . .
C23 Lu5 Lu7 Lu1 -141.3(3) . .
C44 Lu5 Lu7 Lu1 -91.1(7) . .
Lu7 Lu5 Lu7 Lu1 9.3(4) 6_565 .
Lu9 Lu5 Lu7 Lu11 10.3(11) . .
Lu11 Lu5 Lu7 Lu11 -16.7(4) 6_565 .
Lu5 Lu5 Lu7 Lu11 12.7(3) 6_565 .
Lu8 Lu5 Lu7 Lu11 39.5(14) . .
C45 Lu5 Lu7 Lu11 -99.3(6) . .
C23 Lu5 Lu7 Lu11 -137.9(5) . .
C44 Lu5 Lu7 Lu11 -87.8(10) . .
Lu1 Lu5 Lu7 Lu11 3.4(4) . .
Lu7 Lu5 Lu7 Lu11 12.7(3) 6_565 .
Lu9 Lu5 Lu7 C42 91.4(12) . .
Lu11 Lu5 Lu7 C42 64.4(7) 6_565 .
Lu5 Lu5 Lu7 C42 93.8(4) 6_565 .
Lu11 Lu5 Lu7 C42 81.1(4) . .
Lu8 Lu5 Lu7 C42 120.7(15) . .
C45 Lu5 Lu7 C42 -18.2(6) . .
C23 Lu5 Lu7 C42 -56.8(5) . .
C44 Lu5 Lu7 C42 -6.6(11) . .
Lu1 Lu5 Lu7 C42 84.5(5) . .
Lu7 Lu5 Lu7 C42 93.8(4) 6_565 .
Lu9 Lu5 Lu7 C21 135.3(10) . .
Lu11 Lu5 Lu7 C21 108.3(8) 6_565 .
Lu5 Lu5 Lu7 C21 137.7(4) 6_565 .
Lu11 Lu5 Lu7 C21 125.0(5) . .
Lu8 Lu5 Lu7 C21 164.6(17) . .
C45 Lu5 Lu7 C21 25.7(8) . .
C23 Lu5 Lu7 C21 -12.9(7) . .
C44 Lu5 Lu7 C21 37.3(12) . .
Lu1 Lu5 Lu7 C21 128.4(7) . .
Lu7 Lu5 Lu7 C21 137.7(4) 6_565 .
Lu9 Lu5 Lu7 C43 83.6(13) . .
Lu11 Lu5 Lu7 C43 56.6(6) 6_565 .
Lu5 Lu5 Lu7 C43 86.0(3) 6_565 .
Lu11 Lu5 Lu7 C43 73.3(4) . .
Lu8 Lu5 Lu7 C43 112.8(13) . .
C45 Lu5 Lu7 C43 -26.0(3) . .
C23 Lu5 Lu7 C43 -64.60(19) . .
C44 Lu5 Lu7 C43 -14.5(7) . .
Lu1 Lu5 Lu7 C43 76.7(2) . .
Lu7 Lu5 Lu7 C43 86.0(3) 6_565 .
Lu11 Lu5 Lu7 Lu9 -27.0(13) 6_565 .
Lu5 Lu5 Lu7 Lu9 2.4(10) 6_565 .
Lu11 Lu5 Lu7 Lu9 -10.3(11) . .
Lu8 Lu5 Lu7 Lu9 29(2) . .
C45 Lu5 Lu7 Lu9 -109.6(15) . .
C23 Lu5 Lu7 Lu9 -148.1(15) . .
C44 Lu5 Lu7 Lu9 -98.0(18) . .
Lu1 Lu5 Lu7 Lu9 -6.9(14) . .
Lu7 Lu5 Lu7 Lu9 2.4(10) 6_565 .
Lu9 Lu5 Lu7 Lu5 -2.4(10) . 6_565
Lu11 Lu5 Lu7 Lu5 -29.4(6) 6_565 6_565
Lu11 Lu5 Lu7 Lu5 -12.7(3) . 6_565
Lu8 Lu5 Lu7 Lu5 26.8(15) . 6_565
C45 Lu5 Lu7 Lu5 -112.0(6) . 6_565
C23 Lu5 Lu7 Lu5 -150.6(5) . 6_565
C44 Lu5 Lu7 Lu5 -100.5(9) . 6_565
Lu1 Lu5 Lu7 Lu5 -9.3(4) . 6_565
Lu7 Lu5 Lu7 Lu5 0.002(2) 6_565 6_565
Lu9 Lu5 Lu7 C22 156.3(13) . .
Lu11 Lu5 Lu7 C22 129.4(6) 6_565 .
Lu5 Lu5 Lu7 C22 158.8(3) 6_565 .
Lu11 Lu5 Lu7 C22 146.1(4) . .
Lu8 Lu5 Lu7 C22 -174.4(14) . .
C45 Lu5 Lu7 C22 46.8(4) . .
C23 Lu5 Lu7 C22 8.2(3) . .
C44 Lu5 Lu7 C22 58.3(8) . .
Lu1 Lu5 Lu7 C22 149.4(3) . .
Lu7 Lu5 Lu7 C22 158.8(2) 6_565 .
Lu11 Lu1 Lu7 Lu11 -36.9(17) . 6_565
Lu8 Lu1 Lu7 Lu11 167.2(16) . 6_565
Lu8 Lu1 Lu7 Lu11 -76.9(16) 6_565 6_565
Lu7 Lu1 Lu7 Lu11 -54.3(15) 6_565 6_565
C64 Lu1 Lu7 Lu11 46.9(16) . 6_565
C63 Lu1 Lu7 Lu11 92.2(15) . 6_565
Lu5 Lu1 Lu7 Lu11 -47.5(15) 6_565 6_565
Lu5 Lu1 Lu7 Lu11 -42.4(15) . 6_565
C41 Lu1 Lu7 Lu11 98.1(15) . 6_565
C65 Lu1 Lu7 Lu11 27.3(15) . 6_565
Lu11 Lu1 Lu7 Lu8 155.9(7) . .
Lu11 Lu1 Lu7 Lu8 -167.2(16) 6_565 .
Lu8 Lu1 Lu7 Lu8 115.9(7) 6_565 .
Lu7 Lu1 Lu7 Lu8 138.5(4) 6_565 .
C64 Lu1 Lu7 Lu8 -120.3(4) . .
C63 Lu1 Lu7 Lu8 -75.0(5) . .
Lu5 Lu1 Lu7 Lu8 145.3(5) 6_565 .
Lu5 Lu1 Lu7 Lu8 150.4(6) . .
C41 Lu1 Lu7 Lu8 -69.1(4) . .
C65 Lu1 Lu7 Lu8 -139.9(4) . .
Lu11 Lu1 Lu7 Lu5 5.4(7) . .
Lu11 Lu1 Lu7 Lu5 42.4(15) 6_565 .
Lu8 Lu1 Lu7 Lu5 -150.4(6) . .
Lu8 Lu1 Lu7 Lu5 -34.5(7) 6_565 .
Lu7 Lu1 Lu7 Lu5 -12.0(5) 6_565 .
C64 Lu1 Lu7 Lu5 89.3(4) . .
C63 Lu1 Lu7 Lu5 134.6(4) . .
Lu5 Lu1 Lu7 Lu5 -5.2(2) 6_565 .
C41 Lu1 Lu7 Lu5 140.5(4) . .
C65 Lu1 Lu7 Lu5 69.7(4) . .
Lu11 Lu1 Lu7 Lu9 4.3(5) . 6_565
Lu11 Lu1 Lu7 Lu9 41.2(15) 6_565 6_565
Lu8 Lu1 Lu7 Lu9 -151.6(5) . 6_565
Lu8 Lu1 Lu7 Lu9 -35.7(5) 6_565 6_565
Lu7 Lu1 Lu7 Lu9 -13.1(4) 6_565 6_565
C64 Lu1 Lu7 Lu9 88.1(3) . 6_565
C63 Lu1 Lu7 Lu9 133.4(3) . 6_565
Lu5 Lu1 Lu7 Lu9 -6.3(4) 6_565 6_565
Lu5 Lu1 Lu7 Lu9 -1.2(5) . 6_565
C41 Lu1 Lu7 Lu9 139.3(3) . 6_565
C65 Lu1 Lu7 Lu9 68.5(3) . 6_565
Lu11 Lu1 Lu7 Lu11 36.9(17) 6_565 .
Lu8 Lu1 Lu7 Lu11 -155.9(7) . .
Lu8 Lu1 Lu7 Lu11 -39.9(5) 6_565 .
Lu7 Lu1 Lu7 Lu11 -17.4(5) 6_565 .
C64 Lu1 Lu7 Lu11 83.9(5) . .
C63 Lu1 Lu7 Lu11 129.1(5) . .
Lu5 Lu1 Lu7 Lu11 -10.6(5) 6_565 .
Lu5 Lu1 Lu7 Lu11 -5.4(7) . .
C41 Lu1 Lu7 Lu11 135.0(5) . .
C65 Lu1 Lu7 Lu11 64.2(5) . .
Lu11 Lu1 Lu7 C42 -115.0(5) . .
Lu11 Lu1 Lu7 C42 -78.1(15) 6_565 .
Lu8 Lu1 Lu7 C42 89.1(5) . .
Lu8 Lu1 Lu7 C42 -155.0(4) 6_565 .
Lu7 Lu1 Lu7 C42 -132.42(16) 6_565 .
C64 Lu1 Lu7 C42 -31.2(2) . .
C63 Lu1 Lu7 C42 14.1(2) . .
Lu5 Lu1 Lu7 C42 -125.6(3) 6_565 .
Lu5 Lu1 Lu7 C42 -120.5(5) . .
C41 Lu1 Lu7 C42 20.02(11) . .
C65 Lu1 Lu7 C42 -50.78(14) . .
Lu11 Lu1 Lu7 C21 -132.6(5) . .
Lu11 Lu1 Lu7 C21 -95.7(15) 6_565 .
Lu8 Lu1 Lu7 C21 71.5(5) . .
Lu8 Lu1 Lu7 C21 -172.5(4) 6_565 .
Lu7 Lu1 Lu7 C21 -149.99(17) 6_565 .
C64 Lu1 Lu7 C21 -48.7(4) . .
C63 Lu1 Lu7 C21 -3.5(3) . .
Lu5 Lu1 Lu7 C21 -143.2(4) 6_565 .
Lu5 Lu1 Lu7 C21 -138.0(6) . .
C41 Lu1 Lu7 C21 2.5(2) . .
C65 Lu1 Lu7 C21 -68.4(2) . .
Lu11 Lu1 Lu7 C43 -75.5(5) . .
Lu11 Lu1 Lu7 C43 -38.6(15) 6_565 .
Lu8 Lu1 Lu7 C43 128.6(5) . .
Lu8 Lu1 Lu7 C43 -115.5(4) 6_565 .
Lu7 Lu1 Lu7 C43 -92.93(19) 6_565 .
C64 Lu1 Lu7 C43 8.3(2) . .
C63 Lu1 Lu7 C43 53.58(19) . .
Lu5 Lu1 Lu7 C43 -86.2(3) 6_565 .
Lu5 Lu1 Lu7 C43 -81.0(5) . .
C41 Lu1 Lu7 C43 59.51(10) . .
C65 Lu1 Lu7 C43 -11.30(10) . .
Lu11 Lu1 Lu7 Lu9 7.9(4) . .
Lu11 Lu1 Lu7 Lu9 44.8(15) 6_565 .
Lu8 Lu1 Lu7 Lu9 -148.0(5) . .
Lu8 Lu1 Lu7 Lu9 -32.1(5) 6_565 .
Lu7 Lu1 Lu7 Lu9 -9.5(3) 6_565 .
C64 Lu1 Lu7 Lu9 91.7(2) . .
C63 Lu1 Lu7 Lu9 137.0(2) . .
Lu5 Lu1 Lu7 Lu9 -2.7(3) 6_565 .
Lu5 Lu1 Lu7 Lu9 2.4(5) . .
C41 Lu1 Lu7 Lu9 142.92(19) . .
C65 Lu1 Lu7 Lu9 72.12(18) . .
Lu11 Lu1 Lu7 Lu5 10.6(5) . 6_565
Lu11 Lu1 Lu7 Lu5 47.5(15) 6_565 6_565
Lu8 Lu1 Lu7 Lu5 -145.3(5) . 6_565
Lu8 Lu1 Lu7 Lu5 -29.3(5) 6_565 6_565
Lu7 Lu1 Lu7 Lu5 -6.8(3) 6_565 6_565
C64 Lu1 Lu7 Lu5 94.5(3) . 6_565
C63 Lu1 Lu7 Lu5 139.7(3) . 6_565
Lu5 Lu1 Lu7 Lu5 5.2(2) . 6_565
C41 Lu1 Lu7 Lu5 145.7(2) . 6_565
C65 Lu1 Lu7 Lu5 74.9(2) . 6_565
Lu11 Lu1 Lu7 C22 -102.0(7) . .
Lu11 Lu1 Lu7 C22 -65.1(16) 6_565 .
Lu8 Lu1 Lu7 C22 102.1(8) . .
Lu8 Lu1 Lu7 C22 -142.0(5) 6_565 .
Lu7 Lu1 Lu7 C22 -119.4(5) 6_565 .
C64 Lu1 Lu7 C22 -18.2(7) . .
C63 Lu1 Lu7 C22 27.1(7) . .
Lu5 Lu1 Lu7 C22 -112.7(7) 6_565 .
Lu5 Lu1 Lu7 C22 -107.5(8) . .
C41 Lu1 Lu7 C22 33.0(6) . .
C65 Lu1 Lu7 C22 -37.8(6) . .
Lu5 Lu7 Lu8 Lu11 53.5(12) . 6_565
Lu9 Lu7 Lu8 Lu11 51.8(10) 6_565 6_565
Lu1 Lu7 Lu8 Lu11 6.3(7) . 6_565
Lu11 Lu7 Lu8 Lu11 19.2(6) . 6_565
C42 Lu7 Lu8 Lu11 -78.6(7) . 6_565
C21 Lu7 Lu8 Lu11 -114.7(7) . 6_565
C43 Lu7 Lu8 Lu11 -48.6(8) . 6_565
Lu9 Lu7 Lu8 Lu11 42.4(7) . 6_565
Lu5 Lu7 Lu8 Lu11 39.5(7) 6_565 6_565
C22 Lu7 Lu8 Lu11 -133.5(9) . 6_565
Lu11 Lu7 Lu8 Lu1 -6.3(7) 6_565 .
Lu5 Lu7 Lu8 Lu1 47.2(13) . .
Lu9 Lu7 Lu8 Lu1 45.6(10) 6_565 .
Lu11 Lu7 Lu8 Lu1 12.9(3) . .
C42 Lu7 Lu8 Lu1 -84.9(3) . .
C21 Lu7 Lu8 Lu1 -120.9(3) . .
C43 Lu7 Lu8 Lu1 -54.8(5) . .
Lu9 Lu7 Lu8 Lu1 36.1(6) . .
Lu5 Lu7 Lu8 Lu1 33.2(5) 6_565 .
C22 Lu7 Lu8 Lu1 -139.8(5) . .
Lu11 Lu7 Lu8 Lu5 -53.5(12) 6_565 .
Lu9 Lu7 Lu8 Lu5 -1.6(9) 6_565 .
Lu1 Lu7 Lu8 Lu5 -47.2(13) . .
Lu11 Lu7 Lu8 Lu5 -34.3(12) . .
C42 Lu7 Lu8 Lu5 -132.1(13) . .
C21 Lu7 Lu8 Lu5 -168.2(13) . .
C43 Lu7 Lu8 Lu5 -102.0(14) . .
Lu9 Lu7 Lu8 Lu5 -11.1(10) . .
Lu5 Lu7 Lu8 Lu5 -14.0(9) 6_565 .
C22 Lu7 Lu8 Lu5 173.0(17) . .
Lu11 Lu7 Lu8 Lu11 -19.2(6) 6_565 .
Lu5 Lu7 Lu8 Lu11 34.3(12) . .
Lu9 Lu7 Lu8 Lu11 32.6(9) 6_565 .
Lu1 Lu7 Lu8 Lu11 -12.9(3) . .
C42 Lu7 Lu8 Lu11 -97.8(2) . .
C21 Lu7 Lu8 Lu11 -133.9(3) . .
C43 Lu7 Lu8 Lu11 -67.8(4) . .
Lu9 Lu7 Lu8 Lu11 23.2(5) . .
Lu5 Lu7 Lu8 Lu11 20.3(4) 6_565 .
C22 Lu7 Lu8 Lu11 -152.7(6) . .
Lu11 Lu7 Lu8 C42 78.6(7) 6_565 .
Lu5 Lu7 Lu8 C42 132.1(13) . .
Lu9 Lu7 Lu8 C42 130.5(10) 6_565 .
Lu1 Lu7 Lu8 C42 84.9(3) . .
Lu11 Lu7 Lu8 C42 97.8(2) . .
C21 Lu7 Lu8 C42 -36.06(9) . .
C43 Lu7 Lu8 C42 30.1(3) . .
Lu9 Lu7 Lu8 C42 121.0(5) . .
Lu5 Lu7 Lu8 C42 118.1(5) 6_565 .
C22 Lu7 Lu8 C42 -54.9(5) . .
Lu11 Lu7 Lu8 C41 66.8(8) 6_565 .
Lu5 Lu7 Lu8 C41 120.2(10) . .
Lu9 Lu7 Lu8 C41 118.6(7) 6_565 .
Lu1 Lu7 Lu8 C41 73.0(4) . .
Lu11 Lu7 Lu8 C41 86.0(5) . .
C42 Lu7 Lu8 C41 -11.9(4) . .
C21 Lu7 Lu8 C41 -47.9(5) . .
C43 Lu7 Lu8 C41 18.2(7) . .
Lu9 Lu7 Lu8 C41 109.1(4) . .
Lu5 Lu7 Lu8 C41 106.3(4) 6_565 .
C22 Lu7 Lu8 C41 -66.7(9) . .
Lu11 Lu7 Lu8 Lu9 -51.8(10) 6_565 6_565
Lu5 Lu7 Lu8 Lu9 1.6(9) . 6_565
Lu1 Lu7 Lu8 Lu9 -45.6(10) . 6_565
Lu11 Lu7 Lu8 Lu9 -32.6(9) . 6_565
C42 Lu7 Lu8 Lu9 -130.5(10) . 6_565
C21 Lu7 Lu8 Lu9 -166.5(10) . 6_565
C43 Lu7 Lu8 Lu9 -100.4(11) . 6_565
Lu9 Lu7 Lu8 Lu9 -9.5(5) . 6_565
Lu5 Lu7 Lu8 Lu9 -12.3(7) 6_565 6_565
C22 Lu7 Lu8 Lu9 174.7(14) . 6_565
Lu11 Lu7 Lu8 Lu6 -124.1(7) 6_565 .
Lu5 Lu7 Lu8 Lu6 -70.7(13) . .
Lu9 Lu7 Lu8 Lu6 -72.3(11) 6_565 .
Lu1 Lu7 Lu8 Lu6 -117.9(4) . .
Lu11 Lu7 Lu8 Lu6 -104.9(3) . .
C42 Lu7 Lu8 Lu6 157.2(3) . .
C21 Lu7 Lu8 Lu6 121.2(3) . .
C43 Lu7 Lu8 Lu6 -172.7(3) . .
Lu9 Lu7 Lu8 Lu6 -81.8(6) . .
Lu5 Lu7 Lu8 Lu6 -84.6(5) 6_565 .
C22 Lu7 Lu8 Lu6 102.4(5) . .
Lu11 Lu7 Lu8 C21 114.7(7) 6_565 .
Lu5 Lu7 Lu8 C21 168.2(13) . .
Lu9 Lu7 Lu8 C21 166.5(10) 6_565 .
Lu1 Lu7 Lu8 C21 120.9(3) . .
Lu11 Lu7 Lu8 C21 133.9(3) . .
C42 Lu7 Lu8 C21 36.06(9) . .
C43 Lu7 Lu8 C21 66.1(3) . .
Lu9 Lu7 Lu8 C21 157.0(6) . .
Lu5 Lu7 Lu8 C21 154.2(5) 6_565 .
C22 Lu7 Lu8 C21 -18.8(4) . .
Lu11 Lu7 Lu8 C40 91.1(11) 6_565 .
Lu5 Lu7 Lu8 C40 144.6(9) . .
Lu9 Lu7 Lu8 C40 143.0(5) 6_565 .
Lu1 Lu7 Lu8 C40 97.4(10) . .
Lu11 Lu7 Lu8 C40 110.3(10) . .
C42 Lu7 Lu8 C40 12.5(10) . .
C21 Lu7 Lu8 C40 -23.5(10) . .
C43 Lu7 Lu8 C40 42.6(12) . .
Lu9 Lu7 Lu8 C40 133.5(7) . .
Lu5 Lu7 Lu8 C40 130.6(8) 6_565 .
C22 Lu7 Lu8 C40 -42.4(14) . .
Lu11 Lu7 Lu8 C19 132.7(8) 6_565 .
Lu5 Lu7 Lu8 C19 -173.8(9) . .
Lu9 Lu7 Lu8 C19 -175.5(5) 6_565 .
Lu1 Lu7 Lu8 C19 139.0(7) . .
Lu11 Lu7 Lu8 C19 151.9(6) . .
C42 Lu7 Lu8 C19 54.1(6) . .
C21 Lu7 Lu8 C19 18.0(7) . .
C43 Lu7 Lu8 C19 84.1(8) . .
Lu9 Lu7 Lu8 C19 175.1(3) . .
Lu5 Lu7 Lu8 C19 172.2(4) 6_565 .
C22 Lu7 Lu8 C19 -0.8(11) . .
Lu11 Lu1 Lu8 Lu7 -26.5(9) . .
Lu11 Lu1 Lu8 Lu7 6.0(7) 6_565 .
Lu8 Lu1 Lu8 Lu7 -84.7(9) 6_565 .
Lu7 Lu1 Lu8 Lu7 -49.6(6) 6_565 .
C64 Lu1 Lu8 Lu7 80.5(5) . .
C63 Lu1 Lu8 Lu7 113.8(4) . .
Lu5 Lu1 Lu8 Lu7 -32.1(5) 6_565 .
Lu5 Lu1 Lu8 Lu7 -17.7(4) . .
C41 Lu1 Lu8 Lu7 103.4(5) . .
C65 Lu1 Lu8 Lu7 43.8(5) . .
Lu11 Lu1 Lu8 Lu11 -32.5(11) . 6_565
Lu8 Lu1 Lu8 Lu11 -90.8(10) 6_565 6_565
Lu7 Lu1 Lu8 Lu11 -6.0(7) . 6_565
Lu7 Lu1 Lu8 Lu11 -55.6(7) 6_565 6_565
C64 Lu1 Lu8 Lu11 74.5(7) . 6_565
C63 Lu1 Lu8 Lu11 107.7(6) . 6_565
Lu5 Lu1 Lu8 Lu11 -38.1(6) 6_565 6_565
Lu5 Lu1 Lu8 Lu11 -23.7(6) . 6_565
C41 Lu1 Lu8 Lu11 97.4(7) . 6_565
C65 Lu1 Lu8 Lu11 37.7(7) . 6_565
Lu11 Lu1 Lu8 Lu5 -8.8(8) . .
Lu11 Lu1 Lu8 Lu5 23.7(6) 6_565 .
Lu8 Lu1 Lu8 Lu5 -67.1(9) 6_565 .
Lu7 Lu1 Lu8 Lu5 17.7(4) . .
Lu7 Lu1 Lu8 Lu5 -31.9(5) 6_565 .
C64 Lu1 Lu8 Lu5 98.2(4) . .
C63 Lu1 Lu8 Lu5 131.4(3) . .
Lu5 Lu1 Lu8 Lu5 -14.4(2) 6_565 .
C41 Lu1 Lu8 Lu5 121.1(3) . .
C65 Lu1 Lu8 Lu5 61.4(3) . .
Lu11 Lu1 Lu8 Lu11 32.5(11) 6_565 .
Lu8 Lu1 Lu8 Lu11 -58.2(8) 6_565 .
Lu7 Lu1 Lu8 Lu11 26.5(9) . .
Lu7 Lu1 Lu8 Lu11 -23.1(6) 6_565 .
C64 Lu1 Lu8 Lu11 107.0(8) . .
C63 Lu1 Lu8 Lu11 140.3(7) . .
Lu5 Lu1 Lu8 Lu11 -5.5(7) 6_565 .
Lu5 Lu1 Lu8 Lu11 8.8(8) . .
C41 Lu1 Lu8 Lu11 129.9(6) . .
C65 Lu1 Lu8 Lu11 70.3(7) . .
Lu11 Lu1 Lu8 C42 -97.0(7) . .
Lu11 Lu1 Lu8 C42 -64.5(7) 6_565 .
Lu8 Lu1 Lu8 C42 -155.3(6) 6_565 .
Lu7 Lu1 Lu8 C42 -70.5(5) . .
Lu7 Lu1 Lu8 C42 -120.1(2) 6_565 .
C64 Lu1 Lu8 C42 10.0(5) . .
C63 Lu1 Lu8 C42 43.2(3) . .
Lu5 Lu1 Lu8 C42 -102.6(3) 6_565 .
Lu5 Lu1 Lu8 C42 -88.2(4) . .
C41 Lu1 Lu8 C42 32.93(10) . .
C65 Lu1 Lu8 C42 -26.7(3) . .
Lu11 Lu1 Lu8 C41 -129.9(6) . .
Lu11 Lu1 Lu8 C41 -97.4(7) 6_565 .
Lu8 Lu1 Lu8 C41 171.8(7) 6_565 .
Lu7 Lu1 Lu8 C41 -103.4(5) . .
Lu7 Lu1 Lu8 C41 -153.0(3) 6_565 .
C64 Lu1 Lu8 C41 -22.9(4) . .
C63 Lu1 Lu8 C41 10.3(2) . .
Lu5 Lu1 Lu8 C41 -135.5(3) 6_565 .
Lu5 Lu1 Lu8 C41 -121.1(3) . .
C65 Lu1 Lu8 C41 -59.7(2) . .
Lu11 Lu1 Lu8 Lu9 -7.3(7) . 6_565
Lu11 Lu1 Lu8 Lu9 25.3(6) 6_565 6_565
Lu8 Lu1 Lu8 Lu9 -65.5(8) 6_565 6_565
Lu7 Lu1 Lu8 Lu9 19.2(4) . 6_565
Lu7 Lu1 Lu8 Lu9 -30.3(4) 6_565 6_565
C64 Lu1 Lu8 Lu9 99.7(4) . 6_565
C63 Lu1 Lu8 Lu9 133.0(2) . 6_565
Lu5 Lu1 Lu8 Lu9 -12.8(3) 6_565 6_565
Lu5 Lu1 Lu8 Lu9 1.6(3) . 6_565
C41 Lu1 Lu8 Lu9 122.7(3) . 6_565
C65 Lu1 Lu8 Lu9 63.0(2) . 6_565
Lu11 Lu1 Lu8 Lu6 71.0(10) . .
Lu11 Lu1 Lu8 Lu6 103.5(8) 6_565 .
Lu8 Lu1 Lu8 Lu6 12.8(12) 6_565 .
Lu7 Lu1 Lu8 Lu6 97.5(7) . .
Lu7 Lu1 Lu8 Lu6 48.0(8) 6_565 .
C64 Lu1 Lu8 Lu6 178.0(4) . .
C63 Lu1 Lu8 Lu6 -148.7(5) . .
Lu5 Lu1 Lu8 Lu6 65.5(6) 6_565 .
Lu5 Lu1 Lu8 Lu6 79.9(6) . .
C41 Lu1 Lu8 Lu6 -159.0(7) . .
C65 Lu1 Lu8 Lu6 141.3(5) . .
Lu11 Lu1 Lu8 C21 -93.0(7) . .
Lu11 Lu1 Lu8 C21 -60.5(7) 6_565 .
Lu8 Lu1 Lu8 C21 -151.3(4) 6_565 .
Lu7 Lu1 Lu8 C21 -66.5(6) . .
Lu7 Lu1 Lu8 C21 -116.1(3) 6_565 .
C64 Lu1 Lu8 C21 14.0(8) . .
C63 Lu1 Lu8 C21 47.2(5) . .
Lu5 Lu1 Lu8 C21 -98.6(5) 6_565 .
Lu5 Lu1 Lu8 C21 -84.2(6) . .
C41 Lu1 Lu8 C21 36.9(3) . .
C65 Lu1 Lu8 C21 -22.7(5) . .
Lu11 Lu1 Lu8 C40 -160.5(6) . .
Lu11 Lu1 Lu8 C40 -128.0(7) 6_565 .
Lu8 Lu1 Lu8 C40 141.2(6) 6_565 .
Lu7 Lu1 Lu8 C40 -134.0(5) . .
Lu7 Lu1 Lu8 C40 176.4(2) 6_565 .
C64 Lu1 Lu8 C40 -53.5(5) . .
C63 Lu1 Lu8 C40 -20.3(3) . .
Lu5 Lu1 Lu8 C40 -166.1(3) 6_565 .
Lu5 Lu1 Lu8 C40 -151.7(4) . .
C41 Lu1 Lu8 C40 -30.59(9) . .
C65 Lu1 Lu8 C40 -90.3(3) . .
Lu11 Lu1 Lu8 C19 -165.2(6) . .
Lu11 Lu1 Lu8 C19 -132.7(8) 6_565 .
Lu8 Lu1 Lu8 C19 136.5(4) 6_565 .
Lu7 Lu1 Lu8 C19 -138.7(7) . .
Lu7 Lu1 Lu8 C19 171.7(3) 6_565 .
C64 Lu1 Lu8 C19 -58.2(7) . .
C63 Lu1 Lu8 C19 -25.0(5) . .
Lu5 Lu1 Lu8 C19 -170.8(4) 6_565 .
Lu5 Lu1 Lu8 C19 -156.4(6) . .
C41 Lu1 Lu8 C19 -35.3(3) . .
C65 Lu1 Lu8 C19 -95.0(5) . .
Lu9 Lu5 Lu9 Lu5 180.004(11) 6_565 6_565
Lu7 Lu5 Lu9 Lu5 7(3) . 6_565
Lu11 Lu5 Lu9 Lu5 25(2) 6_565 6_565
Lu11 Lu5 Lu9 Lu5 19(2) . 6_565
Lu8 Lu5 Lu9 Lu5 -3(3) . 6_565
C45 Lu5 Lu9 Lu5 113.9(17) . 6_565
C23 Lu5 Lu9 Lu5 145.3(13) . 6_565
C44 Lu5 Lu9 Lu5 129(2) . 6_565
Lu1 Lu5 Lu9 Lu5 13(2) . 6_565
Lu7 Lu5 Lu9 Lu5 3.7(17) 6_565 6_565
Lu7 Lu5 Lu9 Lu9 -173(3) . 6_565
Lu11 Lu5 Lu9 Lu9 -155(2) 6_565 6_565
Lu5 Lu5 Lu9 Lu9 180(100) 6_565 6_565
Lu11 Lu5 Lu9 Lu9 -161(2) . 6_565
Lu8 Lu5 Lu9 Lu9 177(3) . 6_565
C45 Lu5 Lu9 Lu9 -66.1(17) . 6_565
C23 Lu5 Lu9 Lu9 -34.8(13) . 6_565
C44 Lu5 Lu9 Lu9 -51(2) . 6_565
Lu1 Lu5 Lu9 Lu9 -167(2) . 6_565
Lu7 Lu5 Lu9 Lu9 -176.3(17) 6_565 6_565
Lu9 Lu5 Lu9 Lu11 161(2) 6_565 .
Lu7 Lu5 Lu9 Lu11 -12.1(13) . .
Lu11 Lu5 Lu9 Lu11 5.6(5) 6_565 .
Lu5 Lu5 Lu9 Lu11 -19(2) 6_565 .
Lu8 Lu5 Lu9 Lu11 -22.7(7) . .
C45 Lu5 Lu9 Lu11 94.4(6) . .
C23 Lu5 Lu9 Lu11 125.8(10) . .
C44 Lu5 Lu9 Lu11 109.8(4) . .
Lu1 Lu5 Lu9 Lu11 -6.6(4) . .
Lu7 Lu5 Lu9 Lu11 -15.8(5) 6_565 .
Lu9 Lu5 Lu9 Lu7 176.3(17) 6_565 6_565
Lu7 Lu5 Lu9 Lu7 3.7(16) . 6_565
Lu11 Lu5 Lu9 Lu7 21.4(9) 6_565 6_565
Lu5 Lu5 Lu9 Lu7 -3.7(17) 6_565 6_565
Lu11 Lu5 Lu9 Lu7 15.8(5) . 6_565
Lu8 Lu5 Lu9 Lu7 -6.9(11) . 6_565
C45 Lu5 Lu9 Lu7 110.2(4) . 6_565
C23 Lu5 Lu9 Lu7 141.6(7) . 6_565
C44 Lu5 Lu9 Lu7 125.6(4) . 6_565
Lu1 Lu5 Lu9 Lu7 9.2(5) . 6_565
Lu9 Lu5 Lu9 Lu11 155(2) 6_565 6_565
Lu7 Lu5 Lu9 Lu11 -17.7(9) . 6_565
Lu5 Lu5 Lu9 Lu11 -25(2) 6_565 6_565
Lu11 Lu5 Lu9 Lu11 -5.6(5) . 6_565
Lu8 Lu5 Lu9 Lu11 -28.3(5) . 6_565
C45 Lu5 Lu9 Lu11 88.8(9) . 6_565
C23 Lu5 Lu9 Lu11 120.2(13) . 6_565
C44 Lu5 Lu9 Lu11 104.2(6) . 6_565
Lu1 Lu5 Lu9 Lu11 -12.2(5) . 6_565
Lu7 Lu5 Lu9 Lu11 -21.4(9) 6_565 6_565
Lu9 Lu5 Lu9 C44 51(2) 6_565 .
Lu7 Lu5 Lu9 C44 -122.0(13) . .
Lu11 Lu5 Lu9 C44 -104.2(6) 6_565 .
Lu5 Lu5 Lu9 C44 -129(2) 6_565 .
Lu11 Lu5 Lu9 C44 -109.8(4) . .
Lu8 Lu5 Lu9 C44 -132.5(8) . .
C45 Lu5 Lu9 C44 -15.4(4) . .
C23 Lu5 Lu9 C44 16.0(9) . .
Lu1 Lu5 Lu9 C44 -116.4(2) . .
Lu7 Lu5 Lu9 C44 -125.6(4) 6_565 .
Lu9 Lu5 Lu9 C67 74(2) 6_565 .
Lu7 Lu5 Lu9 C67 -98.3(12) . .
Lu11 Lu5 Lu9 C67 -80.6(6) 6_565 .
Lu5 Lu5 Lu9 C67 -106(2) 6_565 .
Lu11 Lu5 Lu9 C67 -86.2(5) . .
Lu8 Lu5 Lu9 C67 -108.9(6) . .
C45 Lu5 Lu9 C67 8.2(8) . .
C23 Lu5 Lu9 C67 39.6(12) . .
C44 Lu5 Lu9 C67 23.7(4) . .
Lu1 Lu5 Lu9 C67 -92.8(4) . .
Lu7 Lu5 Lu9 C67 -102.0(7) 6_565 .
Lu9 Lu5 Lu9 C46 16(2) 6_565 .
Lu7 Lu5 Lu9 C46 -156.4(11) . .
Lu11 Lu5 Lu9 C46 -138.7(5) 6_565 .
Lu5 Lu5 Lu9 C46 -164(2) 6_565 .
Lu11 Lu5 Lu9 C46 -144.3(5) . .
Lu8 Lu5 Lu9 C46 -167.0(5) . .
C45 Lu5 Lu9 C46 -49.9(6) . .
C23 Lu5 Lu9 C46 -18.5(11) . .
C44 Lu5 Lu9 C46 -34.5(3) . .
Lu1 Lu5 Lu9 C46 -150.9(2) . .
Lu7 Lu5 Lu9 C46 -160.1(6) 6_565 .
Lu9 Lu5 Lu9 C68 57(3) 6_565 .
Lu7 Lu5 Lu9 C68 -115.5(10) . .
Lu11 Lu5 Lu9 C68 -97.7(11) 6_565 .
Lu5 Lu5 Lu9 C68 -123(3) 6_565 .
Lu11 Lu5 Lu9 C68 -103.3(12) . .
Lu8 Lu5 Lu9 C68 -126.0(8) . .
C45 Lu5 Lu9 C68 -8.9(16) . .
C23 Lu5 Lu9 C68 22(2) . .
C44 Lu5 Lu9 C68 6.5(12) . .
Lu1 Lu5 Lu9 C68 -109.9(11) . .
Lu7 Lu5 Lu9 C68 -119.1(15) 6_565 .
Lu9 Lu5 Lu9 Lu7 173(3) 6_565 .
Lu11 Lu5 Lu9 Lu7 17.7(9) 6_565 .
Lu5 Lu5 Lu9 Lu7 -7(3) 6_565 .
Lu11 Lu5 Lu9 Lu7 12.1(13) . .
Lu8 Lu5 Lu9 Lu7 -10.5(7) . .
C45 Lu5 Lu9 Lu7 106.5(16) . .
C23 Lu5 Lu9 Lu7 138(2) . .
C44 Lu5 Lu9 Lu7 122.0(13) . .
Lu1 Lu5 Lu9 Lu7 5.5(11) . .
Lu7 Lu5 Lu9 Lu7 -3.7(16) 6_565 .
Lu9 Lu5 Lu9 Lu8 -177.8(19) 6_565 6_565
Lu7 Lu5 Lu9 Lu8 9.6(14) . 6_565
Lu11 Lu5 Lu9 Lu8 27.3(7) 6_565 6_565
Lu5 Lu5 Lu9 Lu8 2.2(19) 6_565 6_565
Lu11 Lu5 Lu9 Lu8 21.7(4) . 6_565
Lu8 Lu5 Lu9 Lu8 -1.0(8) . 6_565
C45 Lu5 Lu9 Lu8 116.1(4) . 6_565
C23 Lu5 Lu9 Lu8 147.5(8) . 6_565
C44 Lu5 Lu9 Lu8 131.5(3) . 6_565
Lu1 Lu5 Lu9 Lu8 15.1(3) . 6_565
Lu7 Lu5 Lu9 Lu8 5.9(3) 6_565 6_565
Lu6 Lu2 Lu10 Lu10 -108.6(16) 6_565 6_565
Lu2 Lu2 Lu10 Lu10 179.987(9) 6_565 6_565
Lu4 Lu2 Lu10 Lu10 -141.0(7) 6_565 6_565
C33 Lu2 Lu10 Lu10 89.1(6) . 6_565
C31 Lu2 Lu10 Lu10 128.5(7) . 6_565
C34 Lu2 Lu10 Lu10 85.9(6) . 6_565
C57 Lu2 Lu10 Lu10 39.9(4) . 6_565
Lu6 Lu2 Lu10 Lu10 -160.8(4) . 6_565
C35 Lu2 Lu10 Lu10 53.6(7) . 6_565
C58 Lu2 Lu10 Lu10 27.0(5) . 6_565
Lu10 Lu2 Lu10 Lu2 -179.987(8) 6_565 6_565
Lu6 Lu2 Lu10 Lu2 71.4(16) 6_565 6_565
Lu4 Lu2 Lu10 Lu2 39.0(7) 6_565 6_565
C33 Lu2 Lu10 Lu2 -90.9(6) . 6_565
C31 Lu2 Lu10 Lu2 -51.5(7) . 6_565
C34 Lu2 Lu10 Lu2 -94.1(6) . 6_565
C57 Lu2 Lu10 Lu2 -140.1(4) . 6_565
Lu6 Lu2 Lu10 Lu2 19.2(4) . 6_565
C35 Lu2 Lu10 Lu2 -126.4(7) . 6_565
C58 Lu2 Lu10 Lu2 -153.0(5) . 6_565
Lu10 Lu2 Lu10 Lu6 160.8(4) 6_565 .
Lu6 Lu2 Lu10 Lu6 52.2(15) 6_565 .
Lu2 Lu2 Lu10 Lu6 -19.2(4) 6_565 .
Lu4 Lu2 Lu10 Lu6 19.8(6) 6_565 .
C33 Lu2 Lu10 Lu6 -110.1(4) . .
C31 Lu2 Lu10 Lu6 -70.7(5) . .
C34 Lu2 Lu10 Lu6 -113.3(5) . .
C57 Lu2 Lu10 Lu6 -159.3(4) . .
C35 Lu2 Lu10 Lu6 -145.6(5) . .
C58 Lu2 Lu10 Lu6 -172.2(4) . .
Lu10 Lu2 Lu10 Lu6 108.6(16) 6_565 6_565
Lu2 Lu2 Lu10 Lu6 -71.4(16) 6_565 6_565
Lu4 Lu2 Lu10 Lu6 -32.4(14) 6_565 6_565
C33 Lu2 Lu10 Lu6 -162.3(15) . 6_565
C31 Lu2 Lu10 Lu6 -123.0(15) . 6_565
C34 Lu2 Lu10 Lu6 -165.6(14) . 6_565
C57 Lu2 Lu10 Lu6 148.5(15) . 6_565
Lu6 Lu2 Lu10 Lu6 -52.2(15) . 6_565
C35 Lu2 Lu10 Lu6 162.2(14) . 6_565
C58 Lu2 Lu10 Lu6 135.6(14) . 6_565
Lu10 Lu2 Lu10 C34 -85.9(6) 6_565 .
Lu6 Lu2 Lu10 C34 165.6(14) 6_565 .
Lu2 Lu2 Lu10 C34 94.1(6) 6_565 .
Lu4 Lu2 Lu10 C34 133.1(2) 6_565 .
C33 Lu2 Lu10 C34 3.3(2) . .
C31 Lu2 Lu10 C34 42.6(3) . .
C57 Lu2 Lu10 C34 -45.9(3) . .
Lu6 Lu2 Lu10 C34 113.3(5) . .
C35 Lu2 Lu10 C34 -32.29(6) . .
C58 Lu2 Lu10 C34 -58.86(15) . .
Lu10 Lu2 Lu10 C14 -112.8(6) 6_565 .
Lu6 Lu2 Lu10 C14 138.7(14) 6_565 .
Lu2 Lu2 Lu10 C14 67.2(6) 6_565 .
Lu4 Lu2 Lu10 C14 106.2(3) 6_565 .
C33 Lu2 Lu10 C14 -23.6(3) . .
C31 Lu2 Lu10 C14 15.7(4) . .
C34 Lu2 Lu10 C14 -26.90(12) . .
C57 Lu2 Lu10 C14 -72.8(4) . .
Lu6 Lu2 Lu10 C14 86.4(5) . .
C35 Lu2 Lu10 C14 -59.19(16) . .
C58 Lu2 Lu10 C14 -85.8(2) . .
Lu10 Lu2 Lu10 C16 -70.0(10) 6_565 .
Lu6 Lu2 Lu10 C16 -178.6(13) 6_565 .
Lu2 Lu2 Lu10 C16 110.0(10) 6_565 .
Lu4 Lu2 Lu10 C16 149.0(5) 6_565 .
C33 Lu2 Lu10 C16 19.1(7) . .
C31 Lu2 Lu10 C16 58.4(6) . .
C34 Lu2 Lu10 C16 15.8(5) . .
C57 Lu2 Lu10 C16 -30.1(8) . .
Lu6 Lu2 Lu10 C16 129.2(9) . .
C35 Lu2 Lu10 C16 -16.5(4) . .
C58 Lu2 Lu10 C16 -43.0(6) . .
Lu10 Lu2 Lu10 C35 -53.6(7) 6_565 .
Lu6 Lu2 Lu10 C35 -162.2(14) 6_565 .
Lu2 Lu2 Lu10 C35 126.4(7) 6_565 .
Lu4 Lu2 Lu10 C35 165.43(17) 6_565 .
C33 Lu2 Lu10 C35 35.5(2) . .
C31 Lu2 Lu10 C35 74.9(2) . .
C34 Lu2 Lu10 C35 32.29(6) . .
C57 Lu2 Lu10 C35 -13.6(4) . .
Lu6 Lu2 Lu10 C35 145.6(5) . .
C58 Lu2 Lu10 C35 -26.58(18) . .
Lu10 Lu2 Lu10 C36 -41.2(9) 6_565 .
Lu6 Lu2 Lu10 C36 -149.8(14) 6_565 .
Lu2 Lu2 Lu10 C36 138.8(9) 6_565 .
Lu4 Lu2 Lu10 C36 177.8(2) 6_565 .
C33 Lu2 Lu10 C36 47.9(4) . .
C31 Lu2 Lu10 C36 87.3(4) . .
C34 Lu2 Lu10 C36 44.7(3) . .
C57 Lu2 Lu10 C36 -1.3(6) . .
Lu6 Lu2 Lu10 C36 158.0(7) . .
C35 Lu2 Lu10 C36 12.4(2) . .
C58 Lu2 Lu10 C36 -14.2(4) . .
Lu10 Lu2 Lu10 C15 -113.9(7) 6_565 .
Lu6 Lu2 Lu10 C15 137.5(14) 6_565 .
Lu2 Lu2 Lu10 C15 66.1(6) 6_565 .
Lu4 Lu2 Lu10 C15 105.1(5) 6_565 .
C33 Lu2 Lu10 C15 -24.8(6) . .
C31 Lu2 Lu10 C15 14.5(6) . .
C34 Lu2 Lu10 C15 -28.1(4) . .
C57 Lu2 Lu10 C15 -74.0(6) . .
Lu6 Lu2 Lu10 C15 85.3(7) . .
C35 Lu2 Lu10 C15 -60.4(4) . .
C58 Lu2 Lu10 C15 -86.9(5) . .
Lu10 Lu2 Lu10 Lu8 90.7(7) 6_565 .
Lu6 Lu2 Lu10 Lu8 -17.9(16) 6_565 .
Lu2 Lu2 Lu10 Lu8 -89.3(7) 6_565 .
Lu4 Lu2 Lu10 Lu8 -50.3(5) 6_565 .
C33 Lu2 Lu10 Lu8 179.9(4) . .
C31 Lu2 Lu10 Lu8 -140.8(4) . .
C34 Lu2 Lu10 Lu8 176.6(5) . .
C57 Lu2 Lu10 Lu8 130.7(4) . .
Lu6 Lu2 Lu10 Lu8 -70.1(5) . .
C35 Lu2 Lu10 Lu8 144.3(5) . .
C58 Lu2 Lu10 Lu8 117.7(4) . .
Lu2 Lu6 Lu10 Lu10 91.1(17) 6_565 6_565
Lu4 Lu6 Lu10 Lu10 -4.2(9) . 6_565
C12 Lu6 Lu10 Lu10 97.3(6) . 6_565
C2 Lu6 Lu10 Lu10 140.0(5) . 6_565
Lu3 Lu6 Lu10 Lu10 -4.5(6) . 6_565
C13 Lu6 Lu10 Lu10 87.2(4) . 6_565
C3 Lu6 Lu10 Lu10 153.8(3) . 6_565
Lu2 Lu6 Lu10 Lu10 11.5(3) . 6_565
Lu8 Lu6 Lu10 Lu10 -99.4(4) . 6_565
C15 Lu6 Lu10 Lu10 142.2(4) . 6_565
Lu4 Lu6 Lu10 Lu2 -95.3(18) . 6_565
C12 Lu6 Lu10 Lu2 6.2(14) . 6_565
Lu10 Lu6 Lu10 Lu2 -91.1(17) 6_565 6_565
C2 Lu6 Lu10 Lu2 49.0(15) . 6_565
Lu3 Lu6 Lu10 Lu2 -95.6(17) . 6_565
C13 Lu6 Lu10 Lu2 -3.9(14) . 6_565
C3 Lu6 Lu10 Lu2 62.7(15) . 6_565
Lu2 Lu6 Lu10 Lu2 -79.5(18) . 6_565
Lu8 Lu6 Lu10 Lu2 169.6(18) . 6_565
C15 Lu6 Lu10 Lu2 51.1(15) . 6_565
Lu2 Lu6 Lu10 Lu2 79.5(18) 6_565 .
Lu4 Lu6 Lu10 Lu2 -15.8(8) . .
C12 Lu6 Lu10 Lu2 85.7(7) . .
Lu10 Lu6 Lu10 Lu2 -11.5(3) 6_565 .
C2 Lu6 Lu10 Lu2 128.5(6) . .
Lu3 Lu6 Lu10 Lu2 -16.0(6) . .
C13 Lu6 Lu10 Lu2 75.7(5) . .
C3 Lu6 Lu10 Lu2 142.3(4) . .
Lu8 Lu6 Lu10 Lu2 -110.9(4) . .
C15 Lu6 Lu10 Lu2 130.6(5) . .
Lu2 Lu6 Lu10 Lu6 91.1(17) 6_565 6_565
Lu4 Lu6 Lu10 Lu6 -4.2(9) . 6_565
C12 Lu6 Lu10 Lu6 97.3(6) . 6_565
Lu10 Lu6 Lu10 Lu6 0.005(5) 6_565 6_565
C2 Lu6 Lu10 Lu6 140.1(5) . 6_565
Lu3 Lu6 Lu10 Lu6 -4.5(6) . 6_565
C13 Lu6 Lu10 Lu6 87.2(4) . 6_565
C3 Lu6 Lu10 Lu6 153.8(3) . 6_565
Lu2 Lu6 Lu10 Lu6 11.6(3) . 6_565
Lu8 Lu6 Lu10 Lu6 -99.4(4) . 6_565
C15 Lu6 Lu10 Lu6 142.2(4) . 6_565
Lu2 Lu6 Lu10 C34 1.2(16) 6_565 .
Lu4 Lu6 Lu10 C34 -94.1(6) . .
C12 Lu6 Lu10 C34 7.4(10) . .
Lu10 Lu6 Lu10 C34 -89.8(7) 6_565 .
C2 Lu6 Lu10 C34 50.2(10) . .
Lu3 Lu6 Lu10 C34 -94.3(5) . .
C13 Lu6 Lu10 C34 -2.6(6) . .
C3 Lu6 Lu10 C34 64.0(6) . .
Lu2 Lu6 Lu10 C34 -78.3(7) . .
Lu8 Lu6 Lu10 C34 170.8(5) . .
C15 Lu6 Lu10 C34 52.3(4) . .
Lu2 Lu6 Lu10 C14 -15.1(15) 6_565 .
Lu4 Lu6 Lu10 C14 -110.4(6) . .
C12 Lu6 Lu10 C14 -8.9(7) . .
Lu10 Lu6 Lu10 C14 -106.2(5) 6_565 .
C2 Lu6 Lu10 C14 33.9(7) . .
Lu3 Lu6 Lu10 C14 -110.7(4) . .
C13 Lu6 Lu10 C14 -19.0(3) . .
C3 Lu6 Lu10 C14 47.6(3) . .
Lu2 Lu6 Lu10 C14 -94.6(5) . .
Lu8 Lu6 Lu10 C14 154.5(4) . .
C15 Lu6 Lu10 C14 35.99(11) . .
Lu2 Lu6 Lu10 C16 -65.7(16) 6_565 .
Lu4 Lu6 Lu10 C16 -161.0(5) . .
C12 Lu6 Lu10 C16 -59.5(8) . .
Lu10 Lu6 Lu10 C16 -156.8(7) 6_565 .
C2 Lu6 Lu10 C16 -16.7(9) . .
Lu3 Lu6 Lu10 C16 -161.3(3) . .
C13 Lu6 Lu10 C16 -69.6(4) . .
C3 Lu6 Lu10 C16 -3.0(5) . .
Lu2 Lu6 Lu10 C16 -145.2(7) . .
Lu8 Lu6 Lu10 C16 103.8(4) . .
C15 Lu6 Lu10 C16 -14.6(3) . .
Lu2 Lu6 Lu10 C35 -13.8(19) 6_565 .
Lu4 Lu6 Lu10 C35 -109.1(10) . .
C12 Lu6 Lu10 C35 -7.6(17) . .
Lu10 Lu6 Lu10 C35 -104.8(14) 6_565 .
C2 Lu6 Lu10 C35 35.2(17) . .
Lu3 Lu6 Lu10 C35 -109.3(11) . .
C13 Lu6 Lu10 C35 -17.6(13) . .
C3 Lu6 Lu10 C35 49.0(13) . .
Lu2 Lu6 Lu10 C35 -93.3(13) . .
Lu8 Lu6 Lu10 C35 155.8(11) . .
C15 Lu6 Lu10 C35 37.3(11) . .
Lu2 Lu6 Lu10 C36 -71.7(17) 6_565 .
Lu4 Lu6 Lu10 C36 -167.0(5) . .
C12 Lu6 Lu10 C36 -65.5(12) . .
Lu10 Lu6 Lu10 C36 -162.8(10) 6_565 .
C2 Lu6 Lu10 C36 -22.7(12) . .
Lu3 Lu6 Lu10 C36 -167.3(6) . .
C13 Lu6 Lu10 C36 -75.6(8) . .
C3 Lu6 Lu10 C36 -9.0(9) . .
Lu2 Lu6 Lu10 C36 -151.2(11) . .
Lu8 Lu6 Lu10 C36 97.9(7) . .
C15 Lu6 Lu10 C36 -20.6(6) . .
Lu2 Lu6 Lu10 C15 -51.1(15) 6_565 .
Lu4 Lu6 Lu10 C15 -146.4(6) . .
C12 Lu6 Lu10 C15 -44.9(6) . .
Lu10 Lu6 Lu10 C15 -142.2(4) 6_565 .
C2 Lu6 Lu10 C15 -2.1(6) . .
Lu3 Lu6 Lu10 C15 -146.6(4) . .
C13 Lu6 Lu10 C15 -54.9(2) . .
C3 Lu6 Lu10 C15 11.6(3) . .
Lu2 Lu6 Lu10 C15 -130.6(5) . .
Lu8 Lu6 Lu10 C15 118.5(4) . .
Lu2 Lu6 Lu10 Lu8 -169.6(18) 6_565 .
Lu4 Lu6 Lu10 Lu8 95.1(6) . .
C12 Lu6 Lu10 Lu8 -163.4(8) . .
Lu10 Lu6 Lu10 Lu8 99.4(4) 6_565 .
C2 Lu6 Lu10 Lu8 -120.6(8) . .
Lu3 Lu6 Lu10 Lu8 94.9(3) . .
C13 Lu6 Lu10 Lu8 -173.4(4) . .
C3 Lu6 Lu10 Lu8 -106.8(4) . .
Lu2 Lu6 Lu10 Lu8 110.9(4) . .
C15 Lu6 Lu10 Lu8 -118.5(4) . .
Lu11 Lu1 Lu11 Lu7 -140.3(14) 6_565 6_565
Lu8 Lu1 Lu11 Lu7 -113.9(16) . 6_565
Lu8 Lu1 Lu11 Lu7 8.1(11) 6_565 6_565
Lu7 Lu1 Lu11 Lu7 -126.7(14) . 6_565
C64 Lu1 Lu11 Lu7 112.4(15) . 6_565
C63 Lu1 Lu11 Lu7 117.8(9) . 6_565
Lu5 Lu1 Lu11 Lu7 -98.4(15) 6_565 6_565
Lu5 Lu1 Lu11 Lu7 -123.2(13) . 6_565
C41 Lu1 Lu11 Lu7 160.1(8) . 6_565
C65 Lu1 Lu11 Lu7 143.0(18) . 6_565
Lu11 Lu1 Lu11 Lu8 -148.4(5) 6_565 6_565
Lu8 Lu1 Lu11 Lu8 -122.0(8) . 6_565
Lu7 Lu1 Lu11 Lu8 -134.8(5) . 6_565
Lu7 Lu1 Lu11 Lu8 -8.1(11) 6_565 6_565
C64 Lu1 Lu11 Lu8 104.3(5) . 6_565
C63 Lu1 Lu11 Lu8 109.7(5) . 6_565
Lu5 Lu1 Lu11 Lu8 -106.5(19) 6_565 6_565
Lu5 Lu1 Lu11 Lu8 -131.3(5) . 6_565
C41 Lu1 Lu11 Lu8 151.9(4) . 6_565
C65 Lu1 Lu11 Lu8 134.8(8) . 6_565
Lu11 Lu1 Lu11 Lu5 -42(2) 6_565 6_565
Lu8 Lu1 Lu11 Lu5 -15(2) . 6_565
Lu8 Lu1 Lu11 Lu5 106.5(19) 6_565 6_565
Lu7 Lu1 Lu11 Lu5 -28(2) . 6_565
Lu7 Lu1 Lu11 Lu5 98.4(15) 6_565 6_565
C64 Lu1 Lu11 Lu5 -149(2) . 6_565
C63 Lu1 Lu11 Lu5 -143.8(15) . 6_565
Lu5 Lu1 Lu11 Lu5 -24.8(17) . 6_565
C41 Lu1 Lu11 Lu5 -101.5(16) . 6_565
C65 Lu1 Lu11 Lu5 -119(2) . 6_565
Lu8 Lu1 Lu11 Lu11 26.4(3) . 6_565
Lu8 Lu1 Lu11 Lu11 148.4(5) 6_565 6_565
Lu7 Lu1 Lu11 Lu11 13.6(3) . 6_565
Lu7 Lu1 Lu11 Lu11 140.3(14) 6_565 6_565
C64 Lu1 Lu11 Lu11 -107.3(3) . 6_565
C63 Lu1 Lu11 Lu11 -101.9(8) . 6_565
Lu5 Lu1 Lu11 Lu11 42(2) 6_565 6_565
Lu5 Lu1 Lu11 Lu11 17.1(6) . 6_565
C41 Lu1 Lu11 Lu11 -59.6(8) . 6_565
C65 Lu1 Lu11 Lu11 -76.7(4) . 6_565
Lu11 Lu1 Lu11 Lu9 -29.0(13) 6_565 .
Lu8 Lu1 Lu11 Lu9 -2.6(15) . .
Lu8 Lu1 Lu11 Lu9 119.4(10) 6_565 .
Lu7 Lu1 Lu11 Lu9 -15.4(12) . .
Lu7 Lu1 Lu11 Lu9 111.3(12) 6_565 .
C64 Lu1 Lu11 Lu9 -136.3(12) . .
C63 Lu1 Lu11 Lu9 -130.9(7) . .
Lu5 Lu1 Lu11 Lu9 12.9(11) 6_565 .
Lu5 Lu1 Lu11 Lu9 -11.9(9) . .
C41 Lu1 Lu11 Lu9 -88.7(8) . .
C65 Lu1 Lu11 Lu9 -105.8(15) . .
Lu11 Lu1 Lu11 Lu5 -17.1(6) 6_565 .
Lu8 Lu1 Lu11 Lu5 9.3(8) . .
Lu8 Lu1 Lu11 Lu5 131.3(5) 6_565 .
Lu7 Lu1 Lu11 Lu5 -3.5(4) . .
Lu7 Lu1 Lu11 Lu5 123.2(13) 6_565 .
C64 Lu1 Lu11 Lu5 -124.4(5) . .
C63 Lu1 Lu11 Lu5 -119.0(5) . .
Lu5 Lu1 Lu11 Lu5 24.8(17) 6_565 .
C41 Lu1 Lu11 Lu5 -76.8(6) . .
C65 Lu1 Lu11 Lu5 -93.8(8) . .
Lu11 Lu1 Lu11 Lu9 -17.3(6) 6_565 6_565
Lu8 Lu1 Lu11 Lu9 9.1(8) . 6_565
Lu8 Lu1 Lu11 Lu9 131.1(5) 6_565 6_565
Lu7 Lu1 Lu11 Lu9 -3.7(5) . 6_565
Lu7 Lu1 Lu11 Lu9 123.0(13) 6_565 6_565
C64 Lu1 Lu11 Lu9 -124.6(5) . 6_565
C63 Lu1 Lu11 Lu9 -119.2(5) . 6_565
Lu5 Lu1 Lu11 Lu9 24.6(17) 6_565 6_565
Lu5 Lu1 Lu11 Lu9 -0.2(4) . 6_565
C41 Lu1 Lu11 Lu9 -76.9(6) . 6_565
C65 Lu1 Lu11 Lu9 -94.0(8) . 6_565
Lu11 Lu1 Lu11 C65 76.7(4) 6_565 .
Lu8 Lu1 Lu11 C65 103.1(4) . .
Lu8 Lu1 Lu11 C65 -134.8(8) 6_565 .
Lu7 Lu1 Lu11 C65 90.3(4) . .
Lu7 Lu1 Lu11 C65 -143.0(18) 6_565 .
C64 Lu1 Lu11 C65 -30.6(4) . .
C63 Lu1 Lu11 C65 -25.1(11) . .
Lu5 Lu1 Lu11 C65 119(2) 6_565 .
Lu5 Lu1 Lu11 C65 93.8(8) . .
C41 Lu1 Lu11 C65 17.1(11) . .
Lu11 Lu1 Lu11 Lu7 -13.6(3) 6_565 .
Lu8 Lu1 Lu11 Lu7 12.8(4) . .
Lu8 Lu1 Lu11 Lu7 134.8(5) 6_565 .
Lu7 Lu1 Lu11 Lu7 126.7(14) 6_565 .
C64 Lu1 Lu11 Lu7 -120.9(2) . .
C63 Lu1 Lu11 Lu7 -115.5(7) . .
Lu5 Lu1 Lu11 Lu7 28(2) 6_565 .
Lu5 Lu1 Lu11 Lu7 3.5(4) . .
C41 Lu1 Lu11 Lu7 -73.2(7) . .
C65 Lu1 Lu11 Lu7 -90.3(4) . .
Lu11 Lu1 Lu11 C66 88.6(11) 6_565 .
Lu8 Lu1 Lu11 C66 115.0(9) . .
Lu8 Lu1 Lu11 C66 -122.9(15) 6_565 .
Lu7 Lu1 Lu11 C66 102.2(11) . .
Lu7 Lu1 Lu11 C66 -131(2) 6_565 .
C64 Lu1 Lu11 C66 -18.7(11) . .
C63 Lu1 Lu11 C66 -13.2(18) . .
Lu5 Lu1 Lu11 C66 131(3) 6_565 .
Lu5 Lu1 Lu11 C66 105.7(14) . .
C41 Lu1 Lu11 C66 29.0(18) . .
C65 Lu1 Lu11 C66 11.9(7) . .
Lu11 Lu1 Lu11 Lu8 -26.4(3) 6_565 .
Lu8 Lu1 Lu11 Lu8 122.0(8) 6_565 .
Lu7 Lu1 Lu11 Lu8 -12.8(4) . .
Lu7 Lu1 Lu11 Lu8 113.9(16) 6_565 .
C64 Lu1 Lu11 Lu8 -133.7(4) . .
C63 Lu1 Lu11 Lu8 -128.3(10) . .
Lu5 Lu1 Lu11 Lu8 15(2) 6_565 .
Lu5 Lu1 Lu11 Lu8 -9.3(8) . .
C41 Lu1 Lu11 Lu8 -86.1(10) . .
C65 Lu1 Lu11 Lu8 -103.1(4) . .
Lu5 Lu9 Lu11 Lu7 5(3) 6_565 6_565
Lu9 Lu9 Lu11 Lu7 155.6(5) 6_565 6_565
Lu5 Lu9 Lu11 Lu7 150.3(8) . 6_565
Lu11 Lu9 Lu11 Lu7 155.6(5) 6_565 6_565
C44 Lu9 Lu11 Lu7 -131.3(6) . 6_565
C67 Lu9 Lu11 Lu7 -96.2(6) . 6_565
C46 Lu9 Lu11 Lu7 -109.7(10) . 6_565
C68 Lu9 Lu11 Lu7 -62.4(6) . 6_565
Lu7 Lu9 Lu11 Lu7 145.8(7) . 6_565
Lu8 Lu9 Lu11 Lu7 28.9(8) 6_565 6_565
Lu5 Lu9 Lu11 Lu1 -127(3) 6_565 .
Lu9 Lu9 Lu11 Lu1 23.6(13) 6_565 .
Lu5 Lu9 Lu11 Lu1 18.3(12) . .
Lu7 Lu9 Lu11 Lu1 -132.0(15) 6_565 .
Lu11 Lu9 Lu11 Lu1 23.6(13) 6_565 .
C44 Lu9 Lu11 Lu1 96.7(12) . .
C67 Lu9 Lu11 Lu1 131.8(13) . .
C46 Lu9 Lu11 Lu1 118.3(10) . .
C68 Lu9 Lu11 Lu1 165.6(11) . .
Lu7 Lu9 Lu11 Lu1 13.8(11) . .
Lu8 Lu9 Lu11 Lu1 -103.1(12) 6_565 .
Lu5 Lu9 Lu11 Lu8 -24(3) 6_565 6_565
Lu9 Lu9 Lu11 Lu8 126.7(9) 6_565 6_565
Lu5 Lu9 Lu11 Lu8 121.4(10) . 6_565
Lu7 Lu9 Lu11 Lu8 -28.9(8) 6_565 6_565
Lu11 Lu9 Lu11 Lu8 126.7(9) 6_565 6_565
C44 Lu9 Lu11 Lu8 -160.2(8) . 6_565
C67 Lu9 Lu11 Lu8 -125.1(9) . 6_565
C46 Lu9 Lu11 Lu8 -138.6(8) . 6_565
C68 Lu9 Lu11 Lu8 -91.3(9) . 6_565
Lu7 Lu9 Lu11 Lu8 116.9(9) . 6_565
Lu9 Lu9 Lu11 Lu5 150(3) 6_565 6_565
Lu5 Lu9 Lu11 Lu5 145(3) . 6_565
Lu7 Lu9 Lu11 Lu5 -5(3) 6_565 6_565
Lu11 Lu9 Lu11 Lu5 150(3) 6_565 6_565
C44 Lu9 Lu11 Lu5 -137(3) . 6_565
C67 Lu9 Lu11 Lu5 -101(3) . 6_565
C46 Lu9 Lu11 Lu5 -115(3) . 6_565
C68 Lu9 Lu11 Lu5 -68(3) . 6_565
Lu7 Lu9 Lu11 Lu5 140(3) . 6_565
Lu8 Lu9 Lu11 Lu5 24(3) 6_565 6_565
Lu5 Lu9 Lu11 Lu11 -150(3) 6_565 6_565
Lu9 Lu9 Lu11 Lu11 -0.001(1) 6_565 6_565
Lu5 Lu9 Lu11 Lu11 -5.3(5) . 6_565
Lu7 Lu9 Lu11 Lu11 -155.6(5) 6_565 6_565
C44 Lu9 Lu11 Lu11 73.0(3) . 6_565
C67 Lu9 Lu11 Lu11 108.2(2) . 6_565
C46 Lu9 Lu11 Lu11 94.7(9) . 6_565
C68 Lu9 Lu11 Lu11 142.0(3) . 6_565
Lu7 Lu9 Lu11 Lu11 -9.8(3) . 6_565
Lu8 Lu9 Lu11 Lu11 -126.7(9) 6_565 6_565
Lu5 Lu9 Lu11 Lu5 -145(3) 6_565 .
Lu9 Lu9 Lu11 Lu5 5.3(5) 6_565 .
Lu7 Lu9 Lu11 Lu5 -150.3(8) 6_565 .
Lu11 Lu9 Lu11 Lu5 5.3(5) 6_565 .
C44 Lu9 Lu11 Lu5 78.3(5) . .
C67 Lu9 Lu11 Lu5 113.5(5) . .
C46 Lu9 Lu11 Lu5 100.0(9) . .
C68 Lu9 Lu11 Lu5 147.3(6) . .
Lu7 Lu9 Lu11 Lu5 -4.5(4) . .
Lu8 Lu9 Lu11 Lu5 -121.4(10) 6_565 .
Lu5 Lu9 Lu11 Lu9 -150(3) 6_565 6_565
Lu5 Lu9 Lu11 Lu9 -5.3(5) . 6_565
Lu7 Lu9 Lu11 Lu9 -155.6(5) 6_565 6_565
Lu11 Lu9 Lu11 Lu9 0.001(2) 6_565 6_565
C44 Lu9 Lu11 Lu9 73.0(3) . 6_565
C67 Lu9 Lu11 Lu9 108.2(2) . 6_565
C46 Lu9 Lu11 Lu9 94.7(9) . 6_565
C68 Lu9 Lu11 Lu9 142.0(3) . 6_565
Lu7 Lu9 Lu11 Lu9 -9.8(3) . 6_565
Lu8 Lu9 Lu11 Lu9 -126.7(9) 6_565 6_565
Lu5 Lu9 Lu11 C65 135(3) 6_565 .
Lu9 Lu9 Lu11 C65 -74.8(5) 6_565 .
Lu5 Lu9 Lu11 C65 -80.1(7) . .
Lu7 Lu9 Lu11 C65 129.6(8) 6_565 .
Lu11 Lu9 Lu11 C65 -74.8(5) 6_565 .
C44 Lu9 Lu11 C65 -1.7(6) . .
C67 Lu9 Lu11 C65 33.4(5) . .
C46 Lu9 Lu11 C65 19.9(13) . .
C68 Lu9 Lu11 C65 67.2(6) . .
Lu7 Lu9 Lu11 C65 -84.6(6) . .
Lu8 Lu9 Lu11 C65 158.5(13) 6_565 .
Lu5 Lu9 Lu11 Lu7 -140(3) 6_565 .
Lu9 Lu9 Lu11 Lu7 9.8(3) 6_565 .
Lu5 Lu9 Lu11 Lu7 4.5(4) . .
Lu7 Lu9 Lu11 Lu7 -145.8(7) 6_565 .
Lu11 Lu9 Lu11 Lu7 9.8(3) 6_565 .
C44 Lu9 Lu11 Lu7 82.9(4) . .
C67 Lu9 Lu11 Lu7 118.0(3) . .
C46 Lu9 Lu11 Lu7 104.5(9) . .
C68 Lu9 Lu11 Lu7 151.8(3) . .
Lu8 Lu9 Lu11 Lu7 -116.9(9) 6_565 .
Lu5 Lu9 Lu11 C66 102(3) 6_565 .
Lu9 Lu9 Lu11 C66 -107.8(3) 6_565 .
Lu5 Lu9 Lu11 C66 -113.0(7) . .
Lu7 Lu9 Lu11 C66 96.6(6) 6_565 .
Lu11 Lu9 Lu11 C66 -107.8(3) 6_565 .
C44 Lu9 Lu11 C66 -34.7(5) . .
C67 Lu9 Lu11 C66 0.5(3) . .
C46 Lu9 Lu11 C66 -13.0(11) . .
C68 Lu9 Lu11 C66 34.2(5) . .
Lu7 Lu9 Lu11 C66 -117.6(5) . .
Lu8 Lu9 Lu11 C66 125.5(12) 6_565 .
Lu5 Lu9 Lu11 Lu8 -128(3) 6_565 .
Lu9 Lu9 Lu11 Lu8 22.0(4) 6_565 .
Lu5 Lu9 Lu11 Lu8 16.7(5) . .
Lu7 Lu9 Lu11 Lu8 -133.6(7) 6_565 .
Lu11 Lu9 Lu11 Lu8 22.0(4) 6_565 .
C44 Lu9 Lu11 Lu8 95.0(4) . .
C67 Lu9 Lu11 Lu8 130.2(4) . .
C46 Lu9 Lu11 Lu8 116.7(8) . .
C68 Lu9 Lu11 Lu8 164.0(3) . .
Lu7 Lu9 Lu11 Lu8 12.2(2) . .
Lu8 Lu9 Lu11 Lu8 -104.7(9) 6_565 .
C5 C1 C2 C3 -5.5 . .
C9 C1 C2 C3 148.2 . .
Lu6 C1 C2 C3 77.1(4) . .
C5 C1 C2 C12 -146.4 . .
C9 C1 C2 C12 7.2 . .
Lu6 C1 C2 C12 -63.8(4) . .
C5 C1 C2 Lu6 -82.6(4) . .
C9 C1 C2 Lu6 71.1(4) . .
C12 C2 C3 C15 -7.7 . .
C1 C2 C3 C15 -148.6 . .
Lu6 C2 C3 C15 -65.4(3) . .
C12 C2 C3 C4 142.9 . .
C1 C2 C3 C4 1.9 . .
Lu6 C2 C3 C4 85.2(3) . .
C12 C2 C3 Lu6 57.7(3) . .
C1 C2 C3 Lu6 -83.2(3) . .
C2 C3 C4 C18 -147.3 . .
C15 C3 C4 C18 8.6 . .
Lu6 C3 C4 C18 -77.3(3) . .
C2 C3 C4 C5 2.5 . .
C15 C3 C4 C5 158.3 . .
Lu6 C3 C4 C5 72.5(3) . .
C2 C3 C4 Lu6 -69.9(3) . .
C15 C3 C4 Lu6 85.9(3) . .
C2 C1 C5 C6 149.0 . .
C9 C1 C5 C6 4.5 . .
Lu6 C1 C5 C6 91.1(2) . .
C2 C1 C5 C4 7.5 . .
C9 C1 C5 C4 -137.0 . .
Lu6 C1 C5 C4 -50.4(2) . .
C2 C1 C5 Lu6 57.9(2) . .
C9 C1 C5 Lu6 -86.6(2) . .
C18 C4 C5 C6 -7.3 . .
C3 C4 C5 C6 -150.2 . .
Lu6 C4 C5 C6 -94.94(17) . .
C18 C4 C5 C1 135.9 . .
C3 C4 C5 C1 -7.0 . .
Lu6 C4 C5 C1 48.27(17) . .
C18 C4 C5 Lu6 87.66(17) . .
C3 C4 C5 Lu6 -55.28(17) . .
C1 C5 C6 C7 -1.4 . .
C4 C5 C6 C7 143.6 . .
Lu6 C5 C6 C7 68.6(3) . .
C1 C5 C6 C20 -140.9 . .
C4 C5 C6 C20 4.1 . .
Lu6 C5 C6 C20 -70.9(3) . .
C5 C6 C7 C22 -140.0 . .
C20 C6 C7 C22 13.2 . .
C5 C6 C7 C8 -1.4 . .
C20 C6 C7 C8 151.7 . .
C5 C6 C7 Lu7 -95.70(8) . .
C20 C6 C7 Lu7 57.45(8) . .
C6 C7 C8 C9 2.2 . .
C22 C7 C8 C9 152.2 . .
Lu7 C7 C8 C9 92.97(11) . .
C6 C7 C8 C25 -135.7 . .
C22 C7 C8 C25 14.3 . .
Lu7 C7 C8 C25 -44.92(11) . .
C25 C8 C9 C10 4.4 . .
C7 C8 C9 C10 -143.4 . .
C25 C8 C9 C1 147.5 . .
C7 C8 C9 C1 -0.4 . .
C25 C8 C9 Lu4 59.66(6) . .
C7 C8 C9 Lu4 -88.19(6) . .
C5 C1 C9 C8 -3.1 . .
C2 C1 C9 C8 -140.9 . .
Lu6 C1 C9 C8 -87.23(19) . .
C5 C1 C9 C10 131.7 . .
C2 C1 C9 C10 -6.0 . .
Lu6 C1 C9 C10 47.63(19) . .
C5 C1 C9 Lu4 86.71(5) . .
C2 C1 C9 Lu4 -51.00(5) . .
Lu6 C1 C9 Lu4 2.64(19) . .
C8 C9 C10 C26 -10.5 . .
C1 C9 C10 C26 -146.6 . .
Lu4 C9 C10 C26 -89.11(7) . .
C8 C9 C10 C11 140.9 . .
C1 C9 C10 C11 4.8 . .
Lu4 C9 C10 C11 62.31(7) . .
C8 C9 C10 Lu4 78.61(7) . .
C1 C9 C10 Lu4 -57.47(7) . .
C26 C10 C11 C29 -14.4 . .
C9 C10 C11 C29 -155.2 . .
Lu4 C10 C11 C29 -73.70(10) . .
C26 C10 C11 C12 135.2 . .
C9 C10 C11 C12 -5.6 . .
Lu4 C10 C11 C12 75.82(10) . .
C26 C10 C11 Lu4 59.33(10) . .
C9 C10 C11 Lu4 -81.47(10) . .
C26 C10 C11 Lu6 87.3(2) . .
C9 C10 C11 Lu6 -53.5(2) . .
Lu4 C10 C11 Lu6 28.0(2) . .
C26 C10 C11 Lu3 37.11(8) . .
C9 C10 C11 Lu3 -103.69(8) . .
Lu4 C10 C11 Lu3 -22.23(9) . .
C3 C2 C12 C11 -151.0 . .
C1 C2 C12 C11 -8.8 . .
Lu6 C2 C12 C11 -86.4(4) . .
C3 C2 C12 C13 5.0 . .
C1 C2 C12 C13 147.1 . .
Lu6 C2 C12 C13 69.5(4) . .
C3 C2 C12 Lu6 -64.5(4) . .
C1 C2 C12 Lu6 77.6(4) . .
C3 C2 C12 Lu4 -90.28(7) . .
C1 C2 C12 Lu4 51.86(7) . .
Lu6 C2 C12 Lu4 -25.7(4) . .
C29 C11 C12 C2 143.6 . .
C10 C11 C12 C2 8.5 . .
Lu4 C11 C12 C2 81.14(10) . .
Lu6 C11 C12 C2 76.9(3) . .
Lu3 C11 C12 C2 96.24(9) . .
C29 C11 C12 C13 -13.7 . .
C10 C11 C12 C13 -148.8 . .
Lu4 C11 C12 C13 -76.15(10) . .
Lu6 C11 C12 C13 -80.4(3) . .
Lu3 C11 C12 C13 -61.05(9) . .
C29 C11 C12 Lu6 66.7(3) . .
C10 C11 C12 Lu6 -68.4(3) . .
Lu4 C11 C12 Lu6 4.2(3) . .
Lu3 C11 C12 Lu6 19.4(3) . .
C29 C11 C12 Lu4 62.46(10) . .
C10 C11 C12 Lu4 -72.65(10) . .
Lu6 C11 C12 Lu4 -4.2(3) . .
Lu3 C11 C12 Lu4 15.10(9) . .
C2 C12 C13 C14 -0.5 . .
C11 C12 C13 C14 158.5 . .
Lu6 C12 C13 C14 67.5(4) . .
Lu4 C12 C13 C14 100.96(7) . .
C2 C12 C13 C32 -155.0 . .
C11 C12 C13 C32 3.9 . .
Lu6 C12 C13 C32 -87.1(4) . .
Lu4 C12 C13 C32 -53.58(7) . .
C2 C12 C13 Lu6 -68.0(4) . .
C11 C12 C13 Lu6 91.0(4) . .
Lu4 C12 C13 Lu6 33.5(3) . .
C2 C12 C13 Lu10 -59.19(17) . .
C11 C12 C13 Lu10 99.76(17) . .
Lu6 C12 C13 Lu10 8.8(4) . .
Lu4 C12 C13 Lu10 42.27(17) . .
C2 C12 C13 Lu4 -101.47(7) . .
C11 C12 C13 Lu4 57.49(7) . .
Lu6 C12 C13 Lu4 -33.5(3) . .
C32 C13 C14 C34 5.4 . .
C12 C13 C14 C34 -148.2 . .
Lu6 C13 C14 C34 -92.6(2) . .
Lu10 C13 C14 C34 -70.1(2) . .
Lu4 C13 C14 C34 -78.37(9) . .
C32 C13 C14 C15 151.8 . .
C12 C13 C14 C15 -1.8 . .
Lu6 C13 C14 C15 53.9(2) . .
Lu10 C13 C14 C15 76.4(2) . .
Lu4 C13 C14 C15 68.08(9) . .
C32 C13 C14 Lu10 75.4(3) . .
C12 C13 C14 Lu10 -78.2(2) . .
Lu6 C13 C14 Lu10 -22.5(3) . .
Lu4 C13 C14 Lu10 -8.3(2) . .
C32 C13 C14 Lu6 98.0(2) . .
C12 C13 C14 Lu6 -55.6(2) . .
Lu10 C13 C14 Lu6 22.5(3) . .
Lu4 C13 C14 Lu6 14.2(2) . .
C32 C13 C14 Lu2 47.82(8) . .
C12 C13 C14 Lu2 -105.78(8) . .
Lu6 C13 C14 Lu2 -50.1(2) . .
Lu10 C13 C14 Lu2 -27.6(2) . .
Lu4 C13 C14 Lu2 -35.91(8) . .
C2 C3 C15 C16 144.1 . .
C4 C3 C15 C16 -6.4 . .
Lu6 C3 C15 C16 84.9(3) . .
C2 C3 C15 C14 5.4 . .
C4 C3 C15 C14 -145.1 . .
Lu6 C3 C15 C14 -53.8(3) . .
C2 C3 C15 Lu10 73.3(2) . .
C4 C3 C15 Lu10 -77.2(2) . .
Lu6 C3 C15 Lu10 14.1(3) . .
C2 C3 C15 Lu6 59.2(3) . .
C4 C3 C15 Lu6 -91.3(3) . .
C13 C14 C15 C16 -150.1 . .
C34 C14 C15 C16 -6.0 . .
Lu10 C14 C15 C16 -64.18(18) . .
Lu6 C14 C15 C16 -101.7(3) . .
Lu2 C14 C15 C16 -64.92(7) . .
C13 C14 C15 C3 -0.1 . .
C34 C14 C15 C3 144.1 . .
Lu10 C14 C15 C3 85.89(18) . .
Lu6 C14 C15 C3 48.3(3) . .
Lu2 C14 C15 C3 85.16(7) . .
C13 C14 C15 Lu10 -85.95(18) . .
C34 C14 C15 Lu10 58.18(18) . .
Lu6 C14 C15 Lu10 -37.5(3) . .
Lu2 C14 C15 Lu10 -0.73(17) . .
C13 C14 C15 Lu6 -48.4(3) . .
C34 C14 C15 Lu6 95.7(3) . .
Lu10 C14 C15 Lu6 37.5(3) . .
Lu2 C14 C15 Lu6 36.8(3) . .
C3 C15 C16 C36 -124.0 . .
C14 C15 C16 C36 21.9 . .
Lu10 C15 C16 C36 -39.8(2) . .
Lu6 C15 C16 C36 -56.6(2) . .
C3 C15 C16 C17 -1.2 . .
C14 C15 C16 C17 144.8 . .
Lu10 C15 C16 C17 83.0(2) . .
Lu6 C15 C16 C17 66.2(2) . .
C3 C15 C16 Lu10 -84.2(2) . .
C14 C15 C16 Lu10 61.7(2) . .
Lu6 C15 C16 Lu10 -16.8(3) . .
C36 C16 C17 C38 9.6 . .
C15 C16 C17 C38 -144.8 . .
Lu10 C16 C17 C38 -67.8(2) . .
C36 C16 C17 C18 161.0 . .
C15 C16 C17 C18 6.6 . .
Lu10 C16 C17 C18 83.6(2) . .
C15 C16 C17 C36 -154.4 . .
Lu10 C16 C17 C36 -77.4(2) . .
C36 C16 C17 C37 3.2 . .
C15 C16 C17 C37 -151.2 . .
Lu10 C16 C17 C37 -74.2(2) . .
C36 C16 C17 Lu10 77.4(2) . .
C15 C16 C17 Lu10 -77.0(2) . .
C3 C4 C18 C17 -3.9 . .
C5 C4 C18 C17 -140.1 . .
Lu6 C4 C18 C17 -59.9(2) . .
C3 C4 C18 C19 141.9 . .
C5 C4 C18 C19 5.8 . .
Lu6 C4 C18 C19 85.9(2) . .
C38 C17 C18 C4 155.7 . .
C16 C17 C18 C4 -4.4 . .
C36 C17 C18 C4 33.4 . .
C37 C17 C18 C4 131.2 . .
Lu10 C17 C18 C4 57.44(16) . .
C38 C17 C18 C19 13.6 . .
C16 C17 C18 C19 -146.4 . .
C36 C17 C18 C19 -108.6 . .
C37 C17 C18 C19 -10.8 . .
Lu10 C17 C18 C19 -84.58(16) . .
C4 C18 C19 C40 -152.7 . .
C17 C18 C19 C40 -5.2 . .
C4 C18 C19 C20 -1.5 . .
C17 C18 C19 C20 146.1 . .
C4 C18 C19 Lu8 -79.7(3) . .
C17 C18 C19 Lu8 67.8(3) . .
C40 C19 C20 C21 9.4 . .
C18 C19 C20 C21 -140.1 . .
Lu8 C19 C20 C21 -50.69(16) . .
C40 C19 C20 C6 148.9 . .
C18 C19 C20 C6 -0.7 . .
Lu8 C19 C20 C6 88.76(16) . .
C40 C19 C20 Lu8 60.12(16) . .
C18 C19 C20 Lu8 -89.44(16) . .
C40 C19 C20 Lu7 57.91(10) . .
C18 C19 C20 Lu7 -91.66(10) . .
Lu8 C19 C20 Lu7 -2.2(2) . .
C5 C6 C20 C21 138.8 . .
C7 C6 C20 C21 -10.0 . .
C5 C6 C20 C19 -1.0 . .
C7 C6 C20 C19 -149.9 . .
C5 C6 C20 Lu8 69.7(2) . .
C7 C6 C20 Lu8 -79.2(2) . .
C5 C6 C20 Lu7 88.72(10) . .
C7 C6 C20 Lu7 -60.11(10) . .
C19 C20 C21 C42 -0.2 . .
C6 C20 C21 C42 -137.4 . .
Lu8 C20 C21 C42 -51.4(2) . .
Lu7 C20 C21 C42 -67.02(14) . .
C19 C20 C21 C22 144.1 . .
C6 C20 C21 C22 6.9 . .
Lu8 C20 C21 C22 92.9(2) . .
Lu7 C20 C21 C22 77.31(14) . .
C19 C20 C21 Lu7 66.81(14) . .
C6 C20 C21 Lu7 -70.41(14) . .
Lu8 C20 C21 Lu7 15.6(2) . .
C19 C20 C21 Lu8 51.2(2) . .
C6 C20 C21 Lu8 -86.0(2) . .
Lu7 C20 C21 Lu8 -15.6(2) . .
C6 C7 C22 C23 125.1 . .
C8 C7 C22 C23 -18.9 . .
Lu7 C7 C22 C23 70.50(13) . .
C6 C7 C22 C21 -9.8 . .
C8 C7 C22 C21 -153.8 . .
Lu7 C7 C22 C21 -64.40(13) . .
C6 C7 C22 Lu7 54.57(13) . .
C8 C7 C22 Lu7 -89.41(13) . .
C6 C7 C22 Lu5 77.6(2) . .
C8 C7 C22 Lu5 -66.4(2) . .
Lu7 C7 C22 Lu5 23.0(2) . .
C42 C21 C22 C23 8.0 . .
C20 C21 C22 C23 -139.4 . .
Lu7 C21 C22 C23 -49.72(16) . .
Lu8 C21 C22 C23 -58.69(18) . .
C42 C21 C22 C7 148.1 . .
C20 C21 C22 C7 0.7 . .
Lu7 C21 C22 C7 90.36(16) . .
Lu8 C21 C22 C7 81.39(18) . .
C42 C21 C22 Lu7 57.73(16) . .
C20 C21 C22 Lu7 -89.71(16) . .
Lu8 C21 C22 Lu7 -9.0(2) . .
C42 C21 C22 Lu5 46.79(16) . .
C20 C21 C22 Lu5 -100.65(16) . .
Lu7 C21 C22 Lu5 -10.9(2) . .
Lu8 C21 C22 Lu5 -19.9(2) . .
C7 C22 C23 C45 -135.1 . .
C21 C22 C23 C45 -13.1 . .
Lu7 C22 C23 C45 -58.34(12) . .
Lu5 C22 C23 C45 -66.7(3) . .
C7 C22 C23 C24 15.2 . .
C21 C22 C23 C24 137.3 . .
Lu7 C22 C23 C24 92.04(12) . .
Lu5 C22 C23 C24 83.7(3) . .
C7 C22 C23 Lu5 -68.4(3) . .
C21 C22 C23 Lu5 53.7(3) . .
Lu7 C22 C23 Lu5 8.4(3) . .
C7 C22 C23 Lu7 -76.81(12) . .
C21 C22 C23 Lu7 45.28(12) . .
Lu5 C22 C23 Lu7 -8.4(3) . .
C22 C23 C24 C47 -154.6 . .
C45 C23 C24 C47 -0.9 . .
Lu5 C23 C24 C47 -58.1(2) . .
Lu7 C23 C24 C47 -75.43(16) . .
C22 C23 C24 C25 0.1 . .
C45 C23 C24 C25 153.8 . .
Lu5 C23 C24 C25 96.6(2) . .
Lu7 C23 C24 C25 79.27(16) . .
C22 C23 C24 Lu5 -96.5(2) . .
C45 C23 C24 Lu5 57.1(2) . .
Lu7 C23 C24 Lu5 -17.4(3) . .
C9 C8 C25 C26 3.4 . .
C7 C8 C25 C26 140.4 . .
C9 C8 C25 C24 -141.3 . .
C7 C8 C25 C24 -4.3 . .
C47 C24 C25 C8 157.5 . .
C23 C24 C25 C8 -3.7 . .
Lu5 C24 C25 C8 61.9(3) . .
C47 C24 C25 C26 23.2 . .
C23 C24 C25 C26 -138.0 . .
Lu5 C24 C25 C26 -72.4(3) . .
C9 C10 C26 C27 153.3 . .
C11 C10 C26 C27 10.9 . .
Lu4 C10 C26 C27 61.27(8) . .
C9 C10 C26 C25 13.0 . .
C11 C10 C26 C25 -129.4 . .
Lu4 C10 C26 C25 -79.06(8) . .
C9 C10 C26 Lu4 92.06(8) . .
C11 C10 C26 Lu4 -50.33(8) . .
C9 C10 C26 Lu3 107.27(7) . .
C11 C10 C26 Lu3 -35.12(7) . .
Lu4 C10 C26 Lu3 15.21(8) . .
C8 C25 C26 C10 -10.2 . .
C24 C25 C26 C10 127.3 . .
C8 C25 C26 C27 -151.7 . .
C24 C25 C26 C27 -14.2 . .
C8 C25 C26 Lu4 -68.39(8) . .
C24 C25 C26 Lu4 69.12(8) . .
C8 C25 C26 Lu3 -89.33(10) . .
C24 C25 C26 Lu3 48.18(10) . .
C10 C26 C27 C28 4.9 . .
C25 C26 C27 C28 142.7 . .
Lu4 C26 C27 C28 54.66(6) . .
Lu3 C26 C27 C28 57.73(10) . .
C10 C26 C27 C48 -140.7 . .
C25 C26 C27 C48 -2.8 . .
Lu4 C26 C27 C48 -90.90(6) . .
Lu3 C26 C27 C48 -87.83(10) . .
C10 C26 C27 Lu3 -52.85(10) . .
C25 C26 C27 Lu3 85.01(10) . .
Lu4 C26 C27 Lu3 -3.08(10) . .
C48 C27 C28 C29 122.5 . .
C26 C27 C28 C29 -16.4 . .
Lu3 C27 C28 C29 63.48(10) . .
C48 C27 C28 C51 -16.7 . .
C26 C27 C28 C51 -155.6 . .
Lu3 C27 C28 C51 -75.74(10) . .
C48 C27 C28 Lu3 59.00(10) . .
C26 C27 C28 Lu3 -79.90(10) . .
C48 C27 C28 Lu4 82.50(8) . .
C26 C27 C28 Lu4 -56.40(8) . .
Lu3 C27 C28 Lu4 23.50(6) . .
C27 C28 C29 C11 12.2 . .
C51 C28 C29 C11 149.3 . .
Lu3 C28 C29 C11 82.98(10) . .
Lu4 C28 C29 C11 61.09(9) . .
C27 C28 C29 C30 -138.5 . .
C51 C28 C29 C30 -1.4 . .
Lu3 C28 C29 C30 -67.70(10) . .
Lu4 C28 C29 C30 -89.59(9) . .
C27 C28 C29 Lu3 -70.80(10) . .
C51 C28 C29 Lu3 66.33(10) . .
Lu4 C28 C29 Lu3 -21.89(7) . .
C27 C28 C29 Lu4 -48.92(9) . .
C51 C28 C29 Lu4 88.22(9) . .
Lu3 C28 C29 Lu4 21.89(7) . .
C12 C11 C29 C28 -137.8 . .
C10 C11 C29 C28 4.7 . .
Lu4 C11 C29 C28 -71.89(8) . .
Lu6 C11 C29 C28 -89.5(3) . .
Lu3 C11 C29 C28 -72.48(14) . .
C12 C11 C29 C30 14.8 . .
C10 C11 C29 C30 157.2 . .
Lu4 C11 C29 C30 80.70(8) . .
Lu6 C11 C29 C30 63.1(3) . .
Lu3 C11 C29 C30 80.10(14) . .
C12 C11 C29 Lu3 -65.28(14) . .
C10 C11 C29 Lu3 77.14(14) . .
Lu4 C11 C29 Lu3 0.59(13) . .
Lu6 C11 C29 Lu3 -17.0(3) . .
C12 C11 C29 Lu4 -65.88(8) . .
C10 C11 C29 Lu4 76.54(8) . .
Lu6 C11 C29 Lu4 -17.6(3) . .
Lu3 C11 C29 Lu4 -0.59(13) . .
C28 C29 C30 C32 149.8 . .
C11 C29 C30 C32 -6.6 . .
Lu3 C29 C30 C32 85.42(12) . .
Lu4 C29 C30 C32 58.75(9) . .
C28 C29 C30 C52 -6.5 . .
C11 C29 C30 C52 -162.9 . .
Lu3 C29 C30 C52 -70.91(12) . .
Lu4 C29 C30 C52 -97.57(9) . .
C28 C29 C30 Lu3 64.40(12) . .
C11 C29 C30 Lu3 -92.01(12) . .
Lu4 C29 C30 Lu3 -26.67(10) . .
C28 C29 C30 Lu4 91.07(9) . .
C11 C29 C30 Lu4 -65.34(9) . .
Lu3 C29 C30 Lu4 26.67(10) . .
C29 C30 C32 C13 0.1 . .
C52 C30 C32 C13 136.0 . .
Lu3 C30 C32 C13 64.66(9) . .
Lu4 C30 C32 C13 47.28(7) . .
C29 C30 C32 C31 -155.7 . .
C52 C30 C32 C31 -19.8 . .
Lu3 C30 C32 C31 -91.15(9) . .
Lu4 C30 C32 C31 -108.54(7) . .
C29 C30 C32 Lu2 -98.26(9) . .
C52 C30 C32 Lu2 37.65(9) . .
Lu3 C30 C32 Lu2 -33.73(8) . .
Lu4 C30 C32 Lu2 -51.11(8) . .
C29 C30 C32 Lu4 -47.15(7) . .
C52 C30 C32 Lu4 88.76(7) . .
Lu3 C30 C32 Lu4 17.39(5) . .
C29 C30 C32 Lu3 -64.54(9) . .
C52 C30 C32 Lu3 71.38(9) . .
Lu4 C30 C32 Lu3 -17.39(5) . .
C29 C30 C32 Lu6 -46.67(19) . .
C52 C30 C32 Lu6 89.24(19) . .
Lu3 C30 C32 Lu6 17.86(19) . .
Lu4 C30 C32 Lu6 0.48(19) . .
C14 C13 C32 C30 -155.8 . .
C12 C13 C32 C30 1.5 . .
Lu6 C13 C32 C30 -62.7(3) . .
Lu10 C13 C32 C30 -99.19(15) . .
Lu4 C13 C32 C30 -44.87(5) . .
C14 C13 C32 C31 -6.7 . .
C12 C13 C32 C31 150.5 . .
Lu6 C13 C32 C31 86.4(3) . .
Lu10 C13 C32 C31 49.90(15) . .
Lu4 C13 C32 C31 104.23(5) . .
C14 C13 C32 Lu2 -51.20(6) . .
C12 C13 C32 Lu2 106.03(6) . .
Lu6 C13 C32 Lu2 41.9(3) . .
Lu10 C13 C32 Lu2 5.39(16) . .
Lu4 C13 C32 Lu2 59.71(6) . .
C14 C13 C32 Lu4 -110.91(5) . .
C12 C13 C32 Lu4 46.32(5) . .
Lu6 C13 C32 Lu4 -17.8(3) . .
Lu10 C13 C32 Lu4 -54.33(15) . .
C14 C13 C32 Lu3 -107.75(8) . .
C12 C13 C32 Lu3 49.48(8) . .
Lu6 C13 C32 Lu3 -14.7(3) . .
Lu10 C13 C32 Lu3 -51.17(16) . .
Lu4 C13 C32 Lu3 3.16(7) . .
C14 C13 C32 Lu6 -93.1(3) . .
C12 C13 C32 Lu6 64.1(3) . .
Lu10 C13 C32 Lu6 -36.5(4) . .
Lu4 C13 C32 Lu6 17.8(3) . .
C33 C31 C32 C30 163.5 . .
C54 C31 C32 C30 9.2 . .
Lu2 C31 C32 C30 102.54(10) . .
C33 C31 C32 C13 4.8 . .
C54 C31 C32 C13 -149.4 . .
Lu2 C31 C32 C13 -56.12(10) . .
C33 C31 C32 Lu2 60.96(10) . .
C54 C31 C32 Lu2 -93.33(10) . .
C33 C31 C32 Lu4 93.60(7) . .
C54 C31 C32 Lu4 -60.68(7) . .
Lu2 C31 C32 Lu4 32.65(10) . .
C33 C31 C32 Lu3 109.24(8) . .
C54 C31 C32 Lu3 -45.04(8) . .
Lu2 C31 C32 Lu3 48.29(11) . .
C33 C31 C32 Lu6 63.3(3) . .
C54 C31 C32 Lu6 -91.0(3) . .
Lu2 C31 C32 Lu6 2.4(3) . .
C32 C31 C33 C34 -1.7 . .
C54 C31 C33 C34 158.1 . .
Lu2 C31 C33 C34 74.04(13) . .
C32 C31 C33 C57 -144.1 . .
C54 C31 C33 C57 15.8 . .
Lu2 C31 C33 C57 -68.35(13) . .
C32 C31 C33 Lu2 -75.76(13) . .
C54 C31 C33 Lu2 84.10(13) . .
C32 C31 C33 Lu10 -51.65(14) . .
C54 C31 C33 Lu10 108.21(14) . .
Lu2 C31 C33 Lu10 24.11(18) . .
C13 C14 C34 C35 140.0 . .
C15 C14 C34 C35 -0.5 . .
Lu10 C14 C34 C35 59.8(2) . .
Lu6 C14 C34 C35 75.6(3) . .
Lu2 C14 C34 C35 86.13(10) . .
C13 C14 C34 C33 -3.0 . .
C15 C14 C34 C33 -143.6 . .
Lu10 C14 C34 C33 -83.3(2) . .
Lu6 C14 C34 C33 -67.5(3) . .
Lu2 C14 C34 C33 -56.95(10) . .
C13 C14 C34 Lu10 80.3(2) . .
C15 C14 C34 Lu10 -60.2(2) . .
Lu6 C14 C34 Lu10 15.8(4) . .
Lu2 C14 C34 Lu10 26.4(2) . .
C13 C14 C34 Lu2 53.92(10) . .
C15 C14 C34 Lu2 -86.60(10) . .
Lu10 C14 C34 Lu2 -26.4(2) . .
Lu6 C14 C34 Lu2 -10.6(3) . .
C31 C33 C34 C35 -149.4 . .
C57 C33 C34 C35 -4.3 . .
Lu2 C33 C34 C35 -76.02(10) . .
Lu10 C33 C34 C35 -78.71(19) . .
C31 C33 C34 C14 1.1 . .
C57 C33 C34 C14 146.2 . .
Lu2 C33 C34 C14 74.52(10) . .
Lu10 C33 C34 C14 71.83(19) . .
C31 C33 C34 Lu10 -70.74(19) . .
C57 C33 C34 Lu10 74.37(19) . .
Lu2 C33 C34 Lu10 2.69(18) . .
C31 C33 C34 Lu2 -73.42(10) . .
C57 C33 C34 Lu2 71.68(10) . .
Lu10 C33 C34 Lu2 -2.69(18) . .
C14 C34 C35 C36 1.4 . .
C33 C34 C35 C36 150.7 . .
Lu10 C34 C35 C36 58.8(2) . .
Lu2 C34 C35 C36 93.00(11) . .
C14 C34 C35 C58 -142.6 . .
C33 C34 C35 C58 6.7 . .
Lu10 C34 C35 C58 -85.3(2) . .
Lu2 C34 C35 C58 -51.06(11) . .
C14 C34 C35 Lu10 -57.4(2) . .
C33 C34 C35 Lu10 91.9(2) . .
Lu2 C34 C35 Lu10 34.2(2) . .
C14 C34 C35 Lu2 -91.58(11) . .
C33 C34 C35 Lu2 57.74(11) . .
Lu10 C34 C35 Lu2 -34.2(2) . .
C15 C16 C36 C37 123.3 . .
C17 C16 C36 C37 -5.6 . .
Lu10 C16 C36 C37 83.3(2) . .
C15 C16 C36 C35 -22.2 . .
C17 C16 C36 C35 -151.1 . .
Lu10 C16 C36 C35 -62.3(2) . .
C15 C16 C36 C17 128.9 . .
Lu10 C16 C36 C17 88.9(2) . .
C15 C16 C36 Lu10 40.1(2) . .
C17 C16 C36 Lu10 -88.9(2) . .
C34 C35 C36 C16 4.7 . .
C58 C35 C36 C16 147.6 . .
Lu10 C35 C36 C16 62.62(18) . .
Lu2 C35 C36 C16 72.64(8) . .
C34 C35 C36 C37 -142.5 . .
C58 C35 C36 C37 0.5 . .
Lu10 C35 C36 C37 -84.51(18) . .
Lu2 C35 C36 C37 -74.49(8) . .
C34 C35 C36 C17 -37.5 . .
C58 C35 C36 C17 105.4 . .
Lu10 C35 C36 C17 20.45(18) . .
Lu2 C35 C36 C17 30.47(8) . .
C34 C35 C36 Lu10 -57.96(18) . .
C58 C35 C36 Lu10 84.96(18) . .
Lu2 C35 C36 Lu10 10.02(18) . .
C38 C17 C36 C16 -173.3 . .
C18 C17 C36 C16 -49.4 . .
C37 C17 C36 C16 -175.1 . .
Lu10 C17 C36 C16 -76.70(18) . .
C38 C17 C36 C37 1.8 . .
C18 C17 C36 C37 125.7 . .
C16 C17 C36 C37 175.1 . .
Lu10 C17 C36 C37 98.40(18) . .
C38 C17 C36 C35 -116.4 . .
C18 C17 C36 C35 7.5 . .
C16 C17 C36 C35 56.9 . .
C37 C17 C36 C35 -118.2 . .
Lu10 C17 C36 C35 -19.81(18) . .
C38 C17 C36 Lu10 -96.58(18) . .
C18 C17 C36 Lu10 27.27(18) . .
C16 C17 C36 Lu10 76.70(18) . .
C37 C17 C36 Lu10 -98.40(18) . .
C16 C36 C37 C38 2.8 . .
C35 C36 C37 C38 145.0 . .
C17 C36 C37 C38 -1.6 . .
Lu10 C36 C37 C38 74.0(2) . .
C16 C36 C37 C60 -145.2 . .
C35 C36 C37 C60 -3.0 . .
C17 C36 C37 C60 -149.6 . .
Lu10 C36 C37 C60 -74.0(2) . .
C16 C36 C37 C17 4.4 . .
C35 C36 C37 C17 146.6 . .
Lu10 C36 C37 C17 75.6(2) . .
C16 C36 C37 C39 -19.7 . .
C35 C36 C37 C39 122.4 . .
C17 C36 C37 C39 -24.2 . .
Lu10 C36 C37 C39 51.4(2) . .
C16 C36 C37 Lu10 -71.2(2) . .
C35 C36 C37 Lu10 71.0(2) . .
C17 C36 C37 Lu10 -75.6(2) . .
C18 C17 C38 C39 -63.3 . .
C16 C17 C38 C39 91.6 . .
C36 C17 C38 C39 98.3 . .
C37 C17 C38 C39 99.8 . .
Lu10 C17 C38 C39 36.74(17) . .
C18 C17 C38 C37 -163.1 . .
C16 C17 C38 C37 -8.3 . .
C36 C17 C38 C37 -1.6 . .
Lu10 C17 C38 C37 -63.10(18) . .
C18 C17 C38 C40 -15.5 . .
C16 C17 C38 C40 139.4 . .
C36 C17 C38 C40 146.1 . .
C37 C17 C38 C40 147.7 . .
Lu10 C17 C38 C40 84.57(18) . .
C36 C37 C38 C39 -156.0 . .
C60 C37 C38 C39 -8.8 . .
C17 C37 C38 C39 -158.3 . .
Lu10 C37 C38 C39 -100.83(13) . .
C36 C37 C38 C17 2.2 . .
C60 C37 C38 C17 149.5 . .
C39 C37 C38 C17 158.3 . .
Lu10 C37 C38 C17 57.46(13) . .
C36 C37 C38 C40 -130.7 . .
C60 C37 C38 C40 16.5 . .
C17 C37 C38 C40 -132.9 . .
C39 C37 C38 C40 25.3 . .
Lu10 C37 C38 C40 -75.48(13) . .
C17 C38 C39 C62 -57.9 . .
C37 C38 C39 C62 40.9 . .
C40 C38 C39 C62 -117.7 . .
C17 C38 C39 C40 59.8 . .
C37 C38 C39 C40 158.6 . .
C17 C38 C39 C37 -98.9 . .
C40 C38 C39 C37 -158.6 . .
C17 C38 C39 Lu1 -14.58(8) . .
C37 C38 C39 Lu1 84.28(8) . .
C40 C38 C39 Lu1 -74.35(8) . .
C20 C19 C40 C41 -9.0 . .
C18 C19 C40 C41 142.2 . .
Lu8 C19 C40 C41 53.5(2) . .
C20 C19 C40 C39 -148.0 . .
C18 C19 C40 C39 3.2 . .
Lu8 C19 C40 C39 -85.4(2) . .
C20 C19 C40 C38 -154.5 . .
C18 C19 C40 C38 -3.2 . .
Lu8 C19 C40 C38 -91.9(2) . .
C20 C19 C40 Lu8 -62.6(2) . .
C18 C19 C40 Lu8 88.7(2) . .
C20 C19 C40 Lu1 -66.32(7) . .
C18 C19 C40 Lu1 84.89(7) . .
Lu8 C19 C40 Lu1 -3.8(2) . .
C62 C39 C40 C19 150.4 . .
C38 C39 C40 C19 -10.4 . .
C37 C39 C40 C19 11.8 . .
Lu1 C39 C40 C19 98.08(5) . .
C62 C39 C40 C41 7.2 . .
C38 C39 C40 C41 -153.6 . .
C37 C39 C40 C41 -131.4 . .
Lu1 C39 C40 C41 -45.12(5) . .
C62 C39 C40 C38 160.8 . .
C37 C39 C40 C38 22.2 . .
Lu1 C39 C40 C38 108.47(5) . .
C62 C39 C40 Lu8 75.87(18) . .
C38 C39 C40 Lu8 -84.89(18) . .
C37 C39 C40 Lu8 -62.68(18) . .
Lu1 C39 C40 Lu8 23.58(17) . .
C62 C39 C40 Lu1 52.30(5) . .
C38 C39 C40 Lu1 -108.47(5) . .
C37 C39 C40 Lu1 -86.25(5) . .
C19 C40 C41 C63 -151.6 . .
C39 C40 C41 C63 -5.7 . .
C38 C40 C41 C63 -30.6 . .
Lu8 C40 C41 C63 -95.1(3) . .
Lu1 C40 C41 C63 -62.96(8) . .
C19 C40 C41 C42 -0.3 . .
C39 C40 C41 C42 145.6 . .
C38 C40 C41 C42 120.7 . .
Lu8 C40 C41 C42 56.2(3) . .
Lu1 C40 C41 C42 88.32(8) . .
C19 C40 C41 Lu8 -56.6(3) . .
C39 C40 C41 Lu8 89.4(3) . .
C38 C40 C41 Lu8 64.5(3) . .
Lu1 C40 C41 Lu8 32.1(2) . .
C19 C40 C41 Lu1 -88.66(8) . .
C39 C40 C41 Lu1 57.26(8) . .
C38 C40 C41 Lu1 32.40(8) . .
Lu8 C40 C41 Lu1 -32.1(2) . .
C19 C40 C41 Lu7 -46.83(10) . .
C39 C40 C41 Lu7 99.09(10) . .
C38 C40 C41 Lu7 74.23(10) . .
Lu8 C40 C41 Lu7 9.7(3) . .
Lu1 C40 C41 Lu7 41.83(9) . .
C20 C21 C42 C41 -9.2 . .
C22 C21 C42 C41 -152.5 . .
Lu7 C21 C42 C41 -90.27(16) . .
Lu8 C21 C42 C41 -66.3(2) . .
C20 C21 C42 C43 142.4 . .
C22 C21 C42 C43 -0.8 . .
Lu7 C21 C42 C43 61.41(16) . .
Lu8 C21 C42 C43 85.4(2) . .
C20 C21 C42 Lu7 81.04(16) . .
C22 C21 C42 Lu7 -62.25(16) . .
Lu8 C21 C42 Lu7 23.97(18) . .
C20 C21 C42 Lu8 57.1(2) . .
C22 C21 C42 Lu8 -86.2(2) . .
Lu7 C21 C42 Lu8 -23.97(18) . .
C20 C21 C42 Lu1 60.84(7) . .
C22 C21 C42 Lu1 -82.45(8) . .
Lu7 C21 C42 Lu1 -20.19(15) . .
Lu8 C21 C42 Lu1 3.8(2) . .
C63 C41 C42 C21 152.3 . .
C40 C41 C42 C21 9.4 . .
Lu8 C41 C42 C21 69.2(2) . .
Lu1 C41 C42 C21 103.22(8) . .
Lu7 C41 C42 C21 77.12(18) . .
C63 C41 C42 C43 -1.2 . .
C40 C41 C42 C43 -144.1 . .
Lu8 C41 C42 C43 -84.3(2) . .
Lu1 C41 C42 C43 -50.26(8) . .
Lu7 C41 C42 C43 -76.36(18) . .
C63 C41 C42 Lu7 75.17(18) . .
C40 C41 C42 Lu7 -67.74(18) . .
Lu8 C41 C42 Lu7 -8.0(3) . .
Lu1 C41 C42 Lu7 26.10(17) . .
C63 C41 C42 Lu8 83.1(2) . .
C40 C41 C42 Lu8 -59.8(2) . .
Lu1 C41 C42 Lu8 34.07(19) . .
Lu7 C41 C42 Lu8 8.0(3) . .
C63 C41 C42 Lu1 49.07(8) . .
C40 C41 C42 Lu1 -93.84(8) . .
Lu8 C41 C42 Lu1 -34.07(19) . .
Lu7 C41 C42 Lu1 -26.10(17) . .
C21 C42 C43 C45 -0.3 . .
C41 C42 C43 C45 152.8 . .
Lu7 C42 C43 C45 61.43(14) . .
Lu8 C42 C43 C45 78.9(3) . .
Lu1 C42 C43 C45 106.97(6) . .
C21 C42 C43 C65 -157.3 . .
C41 C42 C43 C65 -4.2 . .
Lu7 C42 C43 C65 -95.57(14) . .
Lu8 C42 C43 C65 -78.1(3) . .
Lu1 C42 C43 C65 -50.03(6) . .
C21 C42 C43 Lu7 -61.72(14) . .
C41 C42 C43 Lu7 91.34(14) . .
Lu8 C42 C43 Lu7 17.4(3) . .
Lu1 C42 C43 Lu7 45.54(13) . .
C21 C42 C43 Lu5 -56.4(2) . .
C41 C42 C43 Lu5 96.6(2) . .
Lu7 C42 C43 Lu5 5.3(2) . .
Lu8 C42 C43 Lu5 22.7(3) . .
Lu1 C42 C43 Lu5 50.8(2) . .
C21 C42 C43 Lu11 -100.7(3) . .
C41 C42 C43 Lu11 52.4(3) . .
Lu7 C42 C43 Lu11 -39.0(3) . .
Lu8 C42 C43 Lu11 -21.5(4) . .
Lu1 C42 C43 Lu11 6.6(3) . .
C21 C42 C43 Lu1 -107.26(6) . .
C41 C42 C43 Lu1 45.80(6) . .
Lu7 C42 C43 Lu1 -45.54(13) . .
Lu8 C42 C43 Lu1 -28.1(3) . .
C21 C42 C43 Lu8 -79.2(3) . .
C41 C42 C43 Lu8 73.9(3) . .
Lu7 C42 C43 Lu8 -17.4(3) . .
Lu1 C42 C43 Lu8 28.1(3) . .
C65 C43 C45 C44 2.6 . .
C42 C43 C45 C44 -154.1 . .
Lu7 C43 C45 C44 -99.16(15) . .
Lu5 C43 C45 C44 -76.3(3) . .
Lu11 C43 C45 C44 -49.5(2) . .
Lu1 C43 C45 C44 -69.04(9) . .
Lu8 C43 C45 C44 -99.12(16) . .
C65 C43 C45 C23 152.3 . .
C42 C43 C45 C23 -4.4 . .
Lu7 C43 C45 C23 50.53(15) . .
Lu5 C43 C45 C23 73.4(3) . .
Lu11 C43 C45 C23 100.2(2) . .
Lu1 C43 C45 C23 80.66(9) . .
Lu8 C43 C45 C23 50.57(16) . .
C65 C43 C45 Lu5 78.9(3) . .
C42 C43 C45 Lu5 -77.8(3) . .
Lu7 C43 C45 Lu5 -22.8(3) . .
Lu11 C43 C45 Lu5 26.9(3) . .
Lu1 C43 C45 Lu5 7.3(3) . .
Lu8 C43 C45 Lu5 -22.8(3) . .
C65 C43 C45 Lu7 101.77(15) . .
C42 C43 C45 Lu7 -54.97(15) . .
Lu5 C43 C45 Lu7 22.8(3) . .
Lu11 C43 C45 Lu7 49.7(2) . .
Lu1 C43 C45 Lu7 30.12(12) . .
Lu8 C43 C45 Lu7 0.0(2) . .
C65 C43 C45 Lu9 50.98(16) . .
C42 C43 C45 Lu9 -105.76(16) . .
Lu7 C43 C45 Lu9 -50.80(19) . .
Lu5 C43 C45 Lu9 -27.9(3) . .
Lu11 C43 C45 Lu9 -1.1(2) . .
Lu1 C43 C45 Lu9 -20.67(15) . .
Lu8 C43 C45 Lu9 -50.8(2) . .
C67 C44 C45 C43 -1.5 . .
C46 C44 C45 C43 135.7 . .
Lu9 C44 C45 C43 67.75(19) . .
Lu5 C44 C45 C43 81.0(3) . .
C67 C44 C45 C23 -153.4 . .
C46 C44 C45 C23 -16.3 . .
Lu9 C44 C45 C23 -84.21(19) . .
Lu5 C44 C45 C23 -71.0(3) . .
C67 C44 C45 Lu5 -82.4(3) . .
C46 C44 C45 Lu5 54.7(3) . .
Lu9 C44 C45 Lu5 -13.2(4) . .
C67 C44 C45 Lu7 -74.77(14) . .
C46 C44 C45 Lu7 62.40(14) . .
Lu9 C44 C45 Lu7 -5.5(2) . .
Lu5 C44 C45 Lu7 7.7(3) . .
C67 C44 C45 Lu9 -69.23(19) . .
C46 C44 C45 Lu9 67.95(19) . .
Lu5 C44 C45 Lu9 13.2(4) . .
C22 C23 C45 C43 11.4 . .
C24 C23 C45 C43 -145.1 . .
Lu5 C23 C45 C43 -79.0(3) . .
Lu7 C23 C45 C43 -48.03(12) . .
C22 C23 C45 C44 162.7 . .
C24 C23 C45 C44 6.2 . .
Lu5 C23 C45 C44 72.3(3) . .
Lu7 C23 C45 C44 103.25(12) . .
C22 C23 C45 Lu5 90.4(3) . .
C24 C23 C45 Lu5 -66.2(3) . .
Lu7 C23 C45 Lu5 30.9(3) . .
C22 C23 C45 Lu7 59.48(12) . .
C24 C23 C45 Lu7 -97.10(12) . .
Lu5 C23 C45 Lu7 -30.9(3) . .
C22 C23 C45 Lu9 108.29(13) . .
C24 C23 C45 Lu9 -48.29(13) . .
Lu5 C23 C45 Lu9 17.9(3) . .
Lu7 C23 C45 Lu9 48.81(16) . .
C67 C44 C46 C70 26.1 . .
C45 C44 C46 C70 -118.4 . .
Lu9 C44 C46 C70 -44.3(2) . .
Lu5 C44 C46 C70 -72.0(2) . .
C67 C44 C46 C47 159.6 . .
C45 C44 C46 C47 15.1 . .
Lu9 C44 C46 C47 89.1(2) . .
Lu5 C44 C46 C47 61.5(2) . .
C67 C44 C46 Lu9 70.5(2) . .
C45 C44 C46 Lu9 -74.0(2) . .
Lu5 C44 C46 Lu9 -27.7(2) . .
C67 C44 C46 Lu5 98.1(2) . .
C45 C44 C46 Lu5 -46.4(2) . .
Lu9 C44 C46 Lu5 27.7(2) . .
C70 C46 C47 C48 8.3 . .
C44 C46 C47 C48 -146.0 . .
Lu9 C46 C47 C48 -79.44(16) . .
Lu5 C46 C47 C48 -99.06(17) . .
C70 C46 C47 C24 149.8 . .
C44 C46 C47 C24 -4.5 . .
Lu9 C46 C47 C24 62.07(16) . .
Lu5 C46 C47 C24 42.44(17) . .
C44 C46 C47 C70 -154.3 . .
Lu9 C46 C47 C70 -87.73(16) . .
Lu5 C46 C47 C70 -107.35(17) . .
C70 C46 C47 Lu9 87.73(16) . .
C44 C46 C47 Lu9 -66.60(16) . .
Lu5 C46 C47 Lu9 -19.6(2) . .
C70 C46 C47 Lu5 107.35(17) . .
C44 C46 C47 Lu5 -46.98(17) . .
Lu9 C46 C47 Lu5 19.6(2) . .
C25 C24 C47 C46 -155.1 . .
C23 C24 C47 C46 0.1 . .
Lu5 C24 C47 C46 -48.3(2) . .
C25 C24 C47 C48 -15.7 . .
C23 C24 C47 C48 139.6 . .
Lu5 C24 C47 C48 91.1(2) . .
C25 C24 C47 C70 -119.0 . .
C23 C24 C47 C70 36.3 . .
Lu5 C24 C47 C70 -12.2(2) . .
C25 C24 C47 Lu9 -110.13(12) . .
C23 C24 C47 Lu9 45.11(12) . .
Lu5 C24 C47 Lu9 -3.3(3) . .
C25 C24 C47 Lu5 -106.8(2) . .
C23 C24 C47 Lu5 48.5(2) . .
C28 C27 C48 C49 9.2 . .
C26 C27 C48 C49 144.3 . .
Lu3 C27 C48 C49 56.58(8) . .
C28 C27 C48 C47 -126.6 . .
C26 C27 C48 C47 8.6 . .
Lu3 C27 C48 C47 -79.19(8) . .
C28 C27 C48 C50 14.8 . .
C26 C27 C48 C50 150.0 . .
Lu3 C27 C48 C50 62.23(8) . .
C28 C27 C48 Lu3 -47.40(8) . .
C26 C27 C48 Lu3 87.77(8) . .
C46 C47 C48 C49 -1.7 . .
C24 C47 C48 C49 -140.7 . .
C70 C47 C48 C49 4.0 . .
Lu9 C47 C48 C49 -53.71(15) . .
Lu5 C47 C48 C49 -78.0(2) . .
C46 C47 C48 C27 140.9 . .
C24 C47 C48 C27 1.9 . .
C70 C47 C48 C27 146.6 . .
Lu9 C47 C48 C27 88.91(15) . .
Lu5 C47 C48 C27 64.6(2) . .
C46 C47 C48 C50 18.2 . .
C24 C47 C48 C50 -120.7 . .
C70 C47 C48 C50 24.0 . .
Lu9 C47 C48 C50 -33.73(15) . .
Lu5 C47 C48 C50 -58.0(2) . .
C46 C47 C48 Lu3 79.84(7) . .
C24 C47 C48 Lu3 -59.16(7) . .
C70 C47 C48 Lu3 85.59(7) . .
Lu9 C47 C48 Lu3 27.87(14) . .
Lu5 C47 C48 Lu3 3.6(2) . .
C27 C48 C49 C50 9.4 . .
C47 C48 C49 C50 155.1 . .
Lu3 C48 C49 C50 57.61(7) . .
C27 C48 C49 C70 -151.9 . .
C47 C48 C49 C70 -6.3 . .
C50 C48 C49 C70 -161.4 . .
Lu3 C48 C49 C70 -103.76(7) . .
C48 C49 C50 C51 -22.6 . .
C70 C49 C50 C51 132.8 . .
C48 C49 C50 C72 -160.9 . .
C70 C49 C50 C72 -5.4 . .
C70 C49 C50 C48 155.5 . .
C48 C49 C50 Lu3 -64.69(8) . .
C70 C49 C50 Lu3 90.76(8) . .
C49 C50 C51 C52 -118.6 . .
C72 C50 C51 C52 18.3 . .
C48 C50 C51 C52 -132.0 . .
Lu3 C50 C51 C52 -69.12(10) . .
C49 C50 C51 C28 13.4 . .
C72 C50 C51 C28 150.3 . .
C48 C50 C51 C28 -0.1 . .
Lu3 C50 C51 C28 62.83(10) . .
C49 C50 C51 Lu3 -49.47(10) . .
C72 C50 C51 Lu3 87.44(10) . .
C48 C50 C51 Lu3 -62.91(10) . .
C27 C28 C51 C50 7.9 . .
C29 C28 C51 C50 -143.7 . .
Lu3 C28 C51 C50 -80.16(14) . .
Lu4 C28 C51 C50 -84.02(6) . .
C27 C28 C51 C52 160.7 . .
C29 C28 C51 C52 9.1 . .
Lu3 C28 C51 C52 72.61(14) . .
Lu4 C28 C51 C52 68.75(6) . .
C27 C28 C51 Lu3 88.07(14) . .
C29 C28 C51 Lu3 -63.49(14) . .
Lu4 C28 C51 Lu3 -3.86(13) . .
C50 C51 C52 C53 -16.3 . .
C28 C51 C52 C53 -153.9 . .
Lu3 C51 C52 C53 -91.02(9) . .
C50 C51 C52 C30 120.7 . .
C28 C51 C52 C30 -16.9 . .
Lu3 C51 C52 C30 45.98(9) . .
C50 C51 C52 Lu3 74.76(9) . .
C28 C51 C52 Lu3 -62.85(9) . .
C32 C30 C52 C53 14.8 . .
C29 C30 C52 C53 156.4 . .
Lu3 C30 C52 C53 93.88(11) . .
Lu4 C30 C52 C53 98.64(6) . .
C32 C30 C52 C51 -125.3 . .
C29 C30 C52 C51 16.3 . .
Lu3 C30 C52 C51 -46.22(11) . .
Lu4 C30 C52 C51 -41.46(6) . .
C32 C30 C52 Lu3 -79.05(11) . .
C29 C30 C52 Lu3 62.47(11) . .
Lu4 C30 C52 Lu3 4.76(9) . .
C51 C52 C53 C54 150.6 . .
C30 C52 C53 C54 4.5 . .
Lu3 C52 C53 C54 76.97(13) . .
C51 C52 C53 C73 -3.8 . .
C30 C52 C53 C73 -149.9 . .
Lu3 C52 C53 C73 -77.45(13) . .
C51 C52 C53 C55 106.1 . .
C30 C52 C53 C55 -40.0 . .
Lu3 C52 C53 C55 32.48(13) . .
C51 C52 C53 Lu3 73.63(13) . .
C30 C52 C53 Lu3 -72.47(13) . .
C52 C53 C54 C55 -156.9 . .
C73 C53 C54 C55 -6.2 . .
Lu3 C53 C54 C55 -102.16(8) . .
C52 C53 C54 C31 -9.5 . .
C73 C53 C54 C31 141.2 . .
C55 C53 C54 C31 147.4 . .
Lu3 C53 C54 C31 45.26(8) . .
C52 C53 C54 Lu2 -67.96(8) . .
C73 C53 C54 Lu2 82.75(8) . .
C55 C53 C54 Lu2 88.94(8) . .
Lu3 C53 C54 Lu2 -13.23(9) . .
C33 C31 C54 C55 -22.8 . .
C32 C31 C54 C55 133.7 . .
Lu2 C31 C54 C55 41.07(8) . .
C33 C31 C54 C53 -155.7 . .
C32 C31 C54 C53 0.8 . .
Lu2 C31 C54 C53 -91.82(8) . .
C33 C31 C54 Lu2 -63.86(8) . .
C32 C31 C54 Lu2 92.66(8) . .
C53 C54 C55 C74 9.0 . .
C31 C54 C55 C74 -129.9 . .
Lu2 C54 C55 C74 -97.35(6) . .
C53 C54 C55 C56 150.3 . .
C31 C54 C55 C56 11.5 . .
Lu2 C54 C55 C56 44.01(6) . .
C31 C54 C55 C53 -138.9 . .
Lu2 C54 C55 C53 -106.34(6) . .
C54 C55 C56 C57 6.3 . .
C74 C55 C56 C57 155.3 . .
C53 C55 C56 C57 59.0 . .
C54 C55 C56 C77 -135.4 . .
C74 C55 C56 C77 13.6 . .
C53 C55 C56 C77 -82.8 . .
C54 C55 C56 Lu2 -43.19(6) . .
C74 C55 C56 Lu2 105.77(6) . .
C53 C55 C56 Lu2 9.43(6) . .
C77 C56 C57 C58 -0.4 . .
C55 C56 C57 C58 -148.7 . .
Lu2 C56 C57 C58 -85.22(9) . .
C77 C56 C57 C33 138.2 . .
C55 C56 C57 C33 -10.0 . .
Lu2 C56 C57 C33 53.43(9) . .
C77 C56 C57 Lu2 84.82(9) . .
C55 C56 C57 Lu2 -63.44(9) . .
C31 C33 C57 C58 143.0 . .
C34 C33 C57 C58 0.0 . .
Lu2 C33 C57 C58 73.56(13) . .
Lu10 C33 C57 C58 51.31(14) . .
C31 C33 C57 C56 -1.5 . .
C34 C33 C57 C56 -144.6 . .
Lu2 C33 C57 C56 -70.96(13) . .
Lu10 C33 C57 C56 -93.21(14) . .
C31 C33 C57 Lu2 69.43(13) . .
C34 C33 C57 Lu2 -73.60(13) . .
Lu10 C33 C57 Lu2 -22.25(15) . .
C56 C57 C58 C59 0.4 . .
C33 C57 C58 C59 -146.7 . .
Lu2 C57 C58 C59 -91.94(8) . .
C56 C57 C58 C35 150.5 . .
C33 C57 C58 C35 3.4 . .
Lu2 C57 C58 C35 58.17(8) . .
C56 C57 C58 Lu2 92.32(8) . .
C33 C57 C58 Lu2 -54.78(8) . .
C34 C35 C58 C57 -7.3 . .
C36 C35 C58 C57 -148.8 . .
Lu10 C35 C58 C57 -77.4(2) . .
Lu2 C35 C58 C57 -55.64(9) . .
C34 C35 C58 C59 144.4 . .
C36 C35 C58 C59 3.0 . .
Lu10 C35 C58 C59 74.4(2) . .
Lu2 C35 C58 C59 96.15(9) . .
C34 C35 C58 Lu2 48.30(8) . .
C36 C35 C58 Lu2 -93.14(9) . .
Lu10 C35 C58 Lu2 -21.7(2) . .
C57 C58 C59 C78 -2.1 . .
C35 C58 C59 C78 -147.9 . .
Lu2 C58 C59 C78 -72.82(11) . .
C57 C58 C59 C60 142.8 . .
C35 C58 C59 C60 -3.0 . .
Lu2 C58 C59 C60 72.06(11) . .
C36 C37 C60 C61 139.3 . .
C38 C37 C60 C61 -3.0 . .
C17 C37 C60 C61 42.4 . .
C39 C37 C60 C61 -8.5 . .
Lu10 C37 C60 C61 84.10(18) . .
C36 C37 C60 C59 2.9 . .
C38 C37 C60 C59 -139.4 . .
C17 C37 C60 C59 -93.9 . .
C39 C37 C60 C59 -144.8 . .
Lu10 C37 C60 C59 -52.27(18) . .
C78 C59 C60 C37 139.0 . .
C58 C59 C60 C37 0.5 . .
C78 C59 C60 C61 -5.4 . .
C58 C59 C60 C61 -143.9 . .
C37 C60 C61 C80 -133.9 . .
C59 C60 C61 C80 13.1 . .
C37 C60 C61 C62 7.6 . .
C59 C60 C61 C62 154.6 . .
C37 C60 C61 Lu1 -53.98(7) . .
C59 C60 C61 Lu1 93.03(8) . .
C38 C39 C62 C63 109.8 . .
C40 C39 C62 C63 -6.7 . .
C37 C39 C62 C63 142.0 . .
Lu1 C39 C62 C63 58.75(8) . .
C38 C39 C62 C61 -37.3 . .
C40 C39 C62 C61 -153.8 . .
C37 C39 C62 C61 -5.1 . .
Lu1 C39 C62 C61 -88.37(8) . .
C38 C39 C62 Lu1 51.04(8) . .
C40 C39 C62 Lu1 -65.47(8) . .
C37 C39 C62 Lu1 83.25(8) . .
C80 C61 C62 C39 147.3 . .
C60 C61 C62 C39 -0.1 . .
Lu1 C61 C62 C39 97.49(7) . .
C80 C61 C62 C63 -1.9 . .
C60 C61 C62 C63 -149.4 . .
Lu1 C61 C62 C63 -51.75(7) . .
C80 C61 C62 Lu1 49.85(7) . .
C60 C61 C62 Lu1 -97.64(7) . .
C42 C41 C63 C62 -145.3 . .
C40 C41 C63 C62 2.2 . .
Lu8 C41 C63 C62 -75.6(2) . .
Lu1 C41 C63 C62 -87.08(9) . .
Lu7 C41 C63 C62 -94.12(12) . .
C42 C41 C63 C64 4.6 . .
C40 C41 C63 C64 152.1 . .
Lu8 C41 C63 C64 74.2(2) . .
Lu1 C41 C63 C64 62.74(9) . .
Lu7 C41 C63 C64 55.70(12) . .
C42 C41 C63 Lu1 -58.17(9) . .
C40 C41 C63 Lu1 89.32(9) . .
Lu8 C41 C63 Lu1 11.5(2) . .
Lu7 C41 C63 Lu1 -7.03(13) . .
C42 C41 C63 Lu8 -69.6(2) . .
C40 C41 C63 Lu8 77.9(2) . .
Lu1 C41 C63 Lu8 -11.5(2) . .
Lu7 C41 C63 Lu8 -18.49(18) . .
C42 C41 C63 Lu11 -41.5(2) . .
C40 C41 C63 Lu11 106.0(2) . .
Lu8 C41 C63 Lu11 28.1(3) . .
Lu1 C41 C63 Lu11 16.6(2) . .
Lu7 C41 C63 Lu11 9.6(2) . .
C39 C62 C63 C41 3.5 . .
C61 C62 C63 C41 150.5 . .
Lu1 C62 C63 C41 84.36(10) . .
C39 C62 C63 C64 -144.5 . .
C61 C62 C63 C64 2.5 . .
Lu1 C62 C63 C64 -63.60(10) . .
C39 C62 C63 Lu1 -80.88(10) . .
C61 C62 C63 Lu1 66.12(10) . .
C39 C62 C63 Lu8 -49.63(14) . .
C61 C62 C63 Lu8 97.37(14) . .
Lu1 C62 C63 Lu8 31.25(13) . .
C39 C62 C63 Lu11 -94.1(3) . .
C61 C62 C63 Lu11 52.9(3) . .
Lu1 C62 C63 Lu11 -13.2(3) . .
C41 C63 C64 C65 -2.5 . .
C62 C63 C64 C65 143.3 . .
Lu1 C63 C64 C65 69.34(11) . .
Lu8 C63 C64 C65 50.26(18) . .
Lu11 C63 C64 C65 66.0(5) . .
C41 C63 C64 C81 -148.8 . .
C62 C63 C64 C81 -3.0 . .
Lu1 C63 C64 C81 -76.94(11) . .
Lu8 C63 C64 C81 -96.02(18) . .
Lu11 C63 C64 C81 -80.3(5) . .
C41 C63 C64 Lu1 -71.85(11) . .
C62 C63 C64 Lu1 73.93(11) . .
Lu8 C63 C64 Lu1 -19.08(19) . .
Lu11 C63 C64 Lu1 -3.3(5) . .
C41 C63 C64 Lu11 -68.5(5) . .
C62 C63 C64 Lu11 77.3(5) . .
Lu1 C63 C64 Lu11 3.3(5) . .
Lu8 C63 C64 Lu11 -15.7(5) . .
C45 C43 C65 C66 0.7 . .
C42 C43 C65 C66 157.5 . .
Lu7 C43 C65 C66 86.48(15) . .
Lu5 C43 C65 C66 57.36(19) . .
Lu11 C43 C65 C66 73.5(3) . .
Lu1 C43 C65 C66 101.85(7) . .
Lu8 C43 C65 C66 102.77(14) . .
C45 C43 C65 C64 -150.7 . .
C42 C43 C65 C64 6.1 . .
Lu7 C43 C65 C64 -64.87(15) . .
Lu5 C43 C65 C64 -94.0(2) . .
Lu11 C43 C65 C64 -77.9(3) . .
Lu1 C43 C65 C64 -49.50(7) . .
Lu8 C43 C65 C64 -48.58(14) . .
C45 C43 C65 Lu11 -72.8(3) . .
C42 C43 C65 Lu11 84.0(3) . .
Lu7 C43 C65 Lu11 13.0(4) . .
Lu5 C43 C65 Lu11 -16.1(3) . .
Lu1 C43 C65 Lu11 28.4(3) . .
Lu8 C43 C65 Lu11 29.3(4) . .
C45 C43 C65 Lu1 -101.18(7) . .
C42 C43 C65 Lu1 55.61(7) . .
Lu7 C43 C65 Lu1 -15.37(14) . .
Lu5 C43 C65 Lu1 -44.5(2) . .
Lu11 C43 C65 Lu1 -28.4(3) . .
Lu8 C43 C65 Lu1 0.91(14) . .
C45 C43 C65 Lu5 -56.68(19) . .
C42 C43 C65 Lu5 100.1(2) . .
Lu7 C43 C65 Lu5 29.1(2) . .
Lu11 C43 C65 Lu5 16.1(3) . .
Lu1 C43 C65 Lu5 44.5(2) . .
Lu8 C43 C65 Lu5 45.4(2) . .
C45 C43 C65 Lu9 -44.46(12) . .
C42 C43 C65 Lu9 112.32(12) . .
Lu7 C43 C65 Lu9 41.34(17) . .
Lu5 C43 C65 Lu9 12.2(2) . .
Lu11 C43 C65 Lu9 28.3(3) . .
Lu1 C43 C65 Lu9 56.72(13) . .
Lu8 C43 C65 Lu9 57.63(18) . .
C81 C64 C65 C43 146.1 . .
C63 C64 C65 C43 -2.8 . .
Lu1 C64 C65 C43 59.76(10) . .
Lu11 C64 C65 C43 85.0(3) . .
C81 C64 C65 C66 -8.4 . .
C63 C64 C65 C66 -157.3 . .
Lu1 C64 C65 C66 -94.70(10) . .
Lu11 C64 C65 C66 -69.4(3) . .
C81 C64 C65 Lu11 61.1(3) . .
C63 C64 C65 Lu11 -87.8(3) . .
Lu1 C64 C65 Lu11 -25.3(3) . .
C81 C64 C65 Lu1 86.31(10) . .
C63 C64 C65 Lu1 -62.57(10) . .
Lu11 C64 C65 Lu1 25.3(3) . .
C81 C64 C65 Lu5 85.1(2) . .
C63 C64 C65 Lu5 -63.8(2) . .
Lu1 C64 C65 Lu5 -1.3(2) . .
Lu11 C64 C65 Lu5 24.0(3) . .
C81 C64 C65 Lu9 58.90(16) . .
C63 C64 C65 Lu9 -89.98(16) . .
Lu1 C64 C65 Lu9 -27.41(15) . .
Lu11 C64 C65 Lu9 -2.2(3) . .
C43 C65 C66 C82 -146.1 . .
C64 C65 C66 C82 8.3 . .
Lu11 C65 C66 C82 -63.6(5) . .
Lu1 C65 C66 C82 -55.31(8) . .
Lu5 C65 C66 C82 -102.35(13) . .
Lu9 C65 C66 C82 -95.14(15) . .
C43 C65 C66 C67 -5.2 . .
C64 C65 C66 C67 149.3 . .
Lu11 C65 C66 C67 77.4(5) . .
Lu1 C65 C66 C67 85.64(8) . .
Lu5 C65 C66 C67 38.60(13) . .
Lu9 C65 C66 C67 45.81(15) . .
C43 C65 C66 Lu11 -82.6(5) . .
C64 C65 C66 Lu11 71.9(5) . .
Lu1 C65 C66 Lu11 8.2(5) . .
Lu5 C65 C66 Lu11 -38.8(5) . .
Lu9 C65 C66 Lu11 -31.6(5) . .
C43 C65 C66 Lu9 -51.00(15) . .
C64 C65 C66 Lu9 103.49(15) . .
Lu11 C65 C66 Lu9 31.6(5) . .
Lu1 C65 C66 Lu9 39.83(14) . .
Lu5 C65 C66 Lu9 -7.21(18) . .
C82 C66 C67 C68 -5.7 . .
C65 C66 C67 C68 -144.5 . .
Lu11 C66 C67 C68 -80.6(4) . .
Lu9 C66 C67 C68 -81.1(2) . .
C82 C66 C67 C44 145.0 . .
C65 C66 C67 C44 6.2 . .
Lu11 C66 C67 C44 70.1(4) . .
Lu9 C66 C67 C44 69.6(2) . .
C82 C66 C67 Lu9 75.4(2) . .
C65 C66 C67 Lu9 -63.4(2) . .
Lu11 C66 C67 Lu9 0.5(4) . .
C82 C66 C67 Lu11 74.9(4) . .
C65 C66 C67 Lu11 -63.9(4) . .
Lu9 C66 C67 Lu11 -0.5(4) . .
C82 C66 C67 Lu5 98.81(17) . .
C65 C66 C67 Lu5 -40.03(17) . .
Lu11 C66 C67 Lu5 23.9(4) . .
Lu9 C66 C67 Lu5 23.39(17) . .
C45 C44 C67 C68 147.0 . .
C46 C44 C67 C68 -7.9 . .
Lu9 C44 C67 C68 65.86(16) . .
Lu5 C44 C67 C68 84.5(3) . .
C45 C44 C67 C66 -3.0 . .
C46 C44 C67 C66 -157.8 . .
Lu9 C44 C67 C66 -84.10(16) . .
Lu5 C44 C67 C66 -65.5(3) . .
C45 C44 C67 Lu9 81.10(16) . .
C46 C44 C67 Lu9 -73.75(16) . .
Lu5 C44 C67 Lu9 18.6(3) . .
C45 C44 C67 Lu11 49.35(17) . .
C46 C44 C67 Lu11 -105.50(17) . .
Lu9 C44 C67 Lu11 -31.8(2) . .
Lu5 C44 C67 Lu11 -13.1(3) . .
C45 C44 C67 Lu5 62.5(3) . .
C46 C44 C67 Lu5 -92.4(3) . .
Lu9 C44 C67 Lu5 -18.6(3) . .
C66 C67 C68 C69 146.2 . .
C44 C67 C68 C69 -4.6 . .
Lu9 C67 C68 C69 55.85(19) . .
Lu11 C67 C68 C69 89.5(3) . .
Lu5 C67 C68 C69 49.5(2) . .
C66 C67 C68 C84 14.2 . .
C44 C67 C68 C84 -136.6 . .
Lu9 C67 C68 C84 -76.14(19) . .
Lu11 C67 C68 C84 -42.5(3) . .
Lu5 C67 C68 C84 -82.5(2) . .
C66 C67 C68 C70 150.9 . .
C44 C67 C68 C70 0.1 . .
Lu9 C67 C68 C70 60.55(19) . .
Lu11 C67 C68 C70 94.2(3) . .
Lu5 C67 C68 C70 54.2(2) . .
C66 C67 C68 Lu9 90.34(19) . .
C44 C67 C68 Lu9 -60.49(19) . .
Lu11 C67 C68 Lu9 33.6(4) . .
Lu5 C67 C68 Lu9 -6.4(3) . .
C84 C68 C69 C70 150.0 . .
C67 C68 C69 C70 8.8 . .
Lu9 C68 C69 C70 56.63(17) . .
C84 C68 C69 C71 7.6 . .
C67 C68 C69 C71 -133.5 . .
C70 C68 C69 C71 -142.3 . .
Lu9 C68 C69 C71 -85.68(17) . .
C67 C68 C69 C84 -141.2 . .
C70 C68 C69 C84 -150.0 . .
Lu9 C68 C69 C84 -93.32(17) . .
C84 C68 C69 Lu9 93.32(17) . .
C67 C68 C69 Lu9 -47.86(17) . .
C70 C68 C69 Lu9 -56.63(17) . .
C68 C69 C70 C49 -145.3 . .
C71 C69 C70 C49 -4.0 . .
C84 C69 C70 C49 -99.4 . .
Lu9 C69 C70 C49 -95.03(13) . .
C68 C69 C70 C46 2.9 . .
C71 C69 C70 C46 144.2 . .
C84 C69 C70 C46 48.8 . .
Lu9 C69 C70 C46 53.17(13) . .
C71 C69 C70 C68 141.3 . .
C84 C69 C70 C68 45.9 . .
Lu9 C69 C70 C68 50.30(13) . .
C68 C69 C70 C47 -24.3 . .
C71 C69 C70 C47 117.0 . .
C84 C69 C70 C47 21.6 . .
Lu9 C69 C70 C47 26.01(13) . .
C68 C69 C70 Lu9 -50.30(13) . .
C71 C69 C70 Lu9 91.01(13) . .
C84 C69 C70 Lu9 -4.40(12) . .
C48 C49 C70 C69 161.7 . .
C50 C49 C70 C69 7.1 . .
C48 C49 C70 C46 13.4 . .
C50 C49 C70 C46 -141.1 . .
C48 C49 C70 C68 121.0 . .
C50 C49 C70 C68 -33.5 . .
C48 C49 C70 C47 4.8 . .
C50 C49 C70 C47 -149.8 . .
C48 C49 C70 Lu9 74.99(17) . .
C50 C49 C70 Lu9 -79.56(17) . .
C47 C46 C70 C69 -162.8 . .
C44 C46 C70 C69 -25.8 . .
Lu9 C46 C70 C69 -65.37(19) . .
Lu5 C46 C70 C69 -81.0(2) . .
C47 C46 C70 C49 -12.3 . .
C44 C46 C70 C49 124.7 . .
Lu9 C46 C70 C49 85.19(19) . .
Lu5 C46 C70 C49 69.6(2) . .
C47 C46 C70 C68 -161.1 . .
C44 C46 C70 C68 -24.0 . .
Lu9 C46 C70 C68 -63.58(19) . .
Lu5 C46 C70 C68 -79.2(2) . .
C44 C46 C70 C47 137.0 . .
Lu9 C46 C70 C47 97.48(19) . .
Lu5 C46 C70 C47 81.9(2) . .
C47 C46 C70 Lu9 -97.48(19) . .
C44 C46 C70 Lu9 39.54(19) . .
Lu5 C46 C70 Lu9 -15.6(3) . .
C70 C69 C71 C85 -147.5 . .
C68 C69 C71 C85 -8.1 . .
C84 C69 C71 C85 -1.9 . .
Lu9 C69 C71 C85 -71.29(16) . .
C70 C69 C71 C72 1.8 . .
C68 C69 C71 C72 141.2 . .
C84 C69 C71 C72 147.4 . .
Lu9 C69 C71 C72 77.98(16) . .
C70 C69 C71 C84 -145.6 . .
C68 C69 C71 C84 -6.2 . .
Lu9 C69 C71 C84 -69.38(15) . .
C51 C50 C72 C73 0.4 . .
C49 C50 C72 C73 154.1 . .
C48 C50 C72 C73 138.7 . .
Lu3 C50 C72 C73 62.77(10) . .
C51 C50 C72 C71 -151.3 . .
C49 C50 C72 C71 2.4 . .
C48 C50 C72 C71 -13.0 . .
Lu3 C50 C72 C71 -88.92(10) . .
C69 C71 C72 C73 -154.2 . .
C85 C71 C72 C73 -7.3 . .
C84 C71 C72 C73 -59.1 . .
C69 C71 C72 C50 -1.1 . .
C85 C71 C72 C50 145.8 . .
C84 C71 C72 C50 94.1 . .
C50 C72 C73 C53 -17.1 . .
C71 C72 C73 C53 137.9 . .
C50 C72 C73 C74 -146.6 . .
C71 C72 C73 C74 8.3 . .
C54 C53 C73 C72 -137.8 . .
C52 C53 C73 C72 18.1 . .
C55 C53 C73 C72 -141.9 . .
Lu3 C53 C73 C72 -35.37(8) . .
C54 C53 C73 C74 2.1 . .
C52 C53 C73 C74 158.0 . .
C55 C53 C73 C74 -1.9 . .
Lu3 C53 C73 C74 104.57(8) . .
C54 C55 C74 C75 141.2 . .
C56 C55 C74 C75 -7.9 . .
C53 C55 C74 C75 147.3 . .
C54 C55 C74 C73 -8.1 . .
C56 C55 C74 C73 -157.3 . .
C53 C55 C74 C73 -2.1 . .
C72 C73 C74 C75 -4.4 . .
C53 C73 C74 C75 -146.5 . .
C72 C73 C74 C55 144.6 . .
C53 C73 C74 C55 2.6 . .
C55 C74 C75 C85 -142.8 . .
C73 C74 C75 C85 -1.4 . .
C55 C74 C75 C76 -6.7 . .
C73 C74 C75 C76 134.7 . .
C74 C75 C76 C86 -117.4 . .
C85 C75 C76 C86 19.4 . .
C74 C75 C76 C77 16.0 . .
C85 C75 C76 C77 152.9 . .
C86 C76 C77 C78 -7.9 . .
C75 C76 C77 C78 -156.9 . .
C86 C76 C77 C56 140.4 . .
C75 C76 C77 C56 -8.6 . .
C57 C56 C77 C78 2.3 . .
C55 C56 C77 C78 140.1 . .
Lu2 C56 C77 C78 59.15(8) . .
C57 C56 C77 C76 -142.1 . .
C55 C56 C77 C76 -4.4 . .
Lu2 C56 C77 C76 -85.28(7) . .
C58 C59 C78 C77 4.2 . .
C60 C59 C78 C77 -133.7 . .
C58 C59 C78 C79 142.1 . .
C60 C59 C78 C79 4.2 . .
C76 C77 C78 C59 145.8 . .
C56 C77 C78 C59 -4.6 . .
C76 C77 C78 C79 6.4 . .
C56 C77 C78 C79 -143.9 . .
C59 C78 C79 C80 -12.8 . .
C77 C78 C79 C80 131.9 . .
C59 C78 C79 C86 -147.3 . .
C77 C78 C79 C86 -2.7 . .
C78 C79 C80 C81 -139.9 . .
C86 C79 C80 C81 -4.2 . .
C78 C79 C80 C61 19.4 . .
C86 C79 C80 C61 155.1 . .
C78 C79 C80 C86 -135.7 . .
C78 C79 C80 Lu1 -66.06(8) . .
C86 C79 C80 Lu1 69.61(7) . .
C60 C61 C80 C79 -20.3 . .
C62 C61 C80 C79 -156.3 . .
Lu1 C61 C80 C79 -112.84(6) . .
C60 C61 C80 C81 137.8 . .
C62 C61 C80 C81 1.8 . .
Lu1 C61 C80 C81 45.24(6) . .
C60 C61 C80 C86 15.5 . .
C62 C61 C80 C86 -120.5 . .
Lu1 C61 C80 C86 -77.05(6) . .
C60 C61 C80 Lu1 92.52(6) . .
C62 C61 C80 Lu1 -43.47(6) . .
C79 C80 C81 C64 155.1 . .
C61 C80 C81 C64 -2.1 . .
C86 C80 C81 C64 152.1 . .
Lu1 C80 C81 C64 47.59(7) . .
C79 C80 C81 C82 16.5 . .
C61 C80 C81 C82 -140.7 . .
C86 C80 C81 C82 13.6 . .
Lu1 C80 C81 C82 -90.96(7) . .
C79 C80 C81 Lu11 84.2(3) . .
C61 C80 C81 Lu11 -73.0(3) . .
C86 C80 C81 Lu11 81.2(3) . .
Lu1 C80 C81 Lu11 -23.3(3) . .
C79 C80 C81 Lu1 107.51(7) . .
C61 C80 C81 Lu1 -49.71(7) . .
C86 C80 C81 Lu1 104.52(7) . .
C65 C64 C81 C80 -145.2 . .
C63 C64 C81 C80 2.6 . .
Lu1 C64 C81 C80 -63.72(9) . .
Lu11 C64 C81 C80 -91.1(3) . .
C65 C64 C81 C82 4.8 . .
C63 C64 C81 C82 152.6 . .
Lu1 C64 C81 C82 86.31(9) . .
Lu11 C64 C81 C82 58.9(3) . .
C65 C64 C81 Lu11 -54.1(3) . .
C63 C64 C81 Lu11 93.7(3) . .
Lu1 C64 C81 Lu11 27.4(3) . .
C65 C64 C81 Lu1 -81.48(9) . .
C63 C64 C81 Lu1 66.31(9) . .
Lu11 C64 C81 Lu1 -27.4(3) . .
C67 C66 C82 C83 -6.9 . .
C65 C66 C82 C83 134.9 . .
Lu11 C66 C82 C83 76.8(3) . .
Lu9 C66 C82 C83 44.26(13) . .
C67 C66 C82 C81 -146.8 . .
C65 C66 C82 C81 -5.0 . .
Lu11 C66 C82 C81 -63.1(3) . .
Lu9 C66 C82 C81 -95.64(13) . .
C67 C66 C82 Lu11 -83.7(3) . .
C65 C66 C82 Lu11 58.1(3) . .
Lu9 C66 C82 Lu11 -32.6(3) . .
C80 C81 C82 C83 -2.7 . .
C64 C81 C82 C83 -146.7 . .
Lu11 C81 C82 C83 -86.2(4) . .
Lu1 C81 C82 C83 -91.41(7) . .
C80 C81 C82 C66 144.1 . .
C64 C81 C82 C66 0.1 . .
Lu11 C81 C82 C66 60.5(4) . .
Lu1 C81 C82 C66 55.37(7) . .
C80 C81 C82 Lu11 83.5(4) . .
C64 C81 C82 Lu11 -60.4(4) . .
Lu1 C81 C82 Lu11 -5.2(4) . .
C66 C82 C83 C84 10.1 . .
C81 C82 C83 C84 147.4 . .
Lu11 C82 C83 C84 75.2(4) . .
C66 C82 C83 C86 -150.6 . .
C81 C82 C83 C86 -13.4 . .
Lu11 C82 C83 C86 -85.6(4) . .
C66 C82 C83 Lu11 -65.1(4) . .
C81 C82 C83 Lu11 72.1(4) . .
C69 C68 C84 C85 -7.6 . .
C67 C68 C84 C85 142.6 . .
C70 C68 C84 C85 8.9 . .
Lu9 C68 C84 C85 81.95(14) . .
C69 C68 C84 C83 -161.2 . .
C67 C68 C84 C83 -11.1 . .
C70 C68 C84 C83 -144.8 . .
Lu9 C68 C84 C83 -71.73(14) . .
C69 C68 C84 C71 -5.0 . .
C67 C68 C84 C71 145.2 . .
C70 C68 C84 C71 11.5 . .
Lu9 C68 C84 C71 84.55(14) . .
C67 C68 C84 C69 150.1 . .
C70 C68 C84 C69 16.5 . .
Lu9 C68 C84 C69 89.51(14) . .
C69 C68 C84 Lu9 -89.51(14) . .
C67 C68 C84 Lu9 60.61(14) . .
C70 C68 C84 Lu9 -73.03(14) . .
C82 C83 C84 C85 -162.0 . .
C86 C83 C84 C85 -23.5 . .
Lu11 C83 C84 C85 -107.8(2) . .
C82 C83 C84 C68 -0.9 . .
C86 C83 C84 C68 137.6 . .
Lu11 C83 C84 C68 53.3(2) . .
C82 C83 C84 C71 -135.1 . .
C86 C83 C84 C71 3.5 . .
Lu11 C83 C84 C71 -80.9(2) . .
C82 C83 C84 C69 -36.5 . .
C86 C83 C84 C69 102.1 . .
Lu11 C83 C84 C69 17.8(2) . .
C82 C83 C84 Lu9 -53.48(12) . .
C86 C83 C84 Lu9 85.07(12) . .
Lu11 C83 C84 Lu9 0.7(2) . .
C69 C71 C84 C85 -177.5 . .
C72 C71 C84 C85 73.9 . .
C69 C71 C84 C68 4.9 . .
C85 C71 C84 C68 -177.6 . .
C72 C71 C84 C68 -103.6 . .
C69 C71 C84 C83 146.9 . .
C85 C71 C84 C83 -35.6 . .
C72 C71 C84 C83 38.4 . .
C85 C71 C84 C69 177.5 . .
C72 C71 C84 C69 -108.6 . .
C69 C71 C84 Lu9 61.88(13) . .
C85 C71 C84 Lu9 -120.63(13) . .
C72 C71 C84 Lu9 -46.68(12) . .
C70 C69 C84 C85 112.6 . .
C68 C69 C84 C85 174.6 . .
C71 C69 C84 C85 1.9 . .
Lu9 C69 C84 C85 108.18(13) . .
C70 C69 C84 C68 -62.0 . .
C71 C69 C84 C68 -172.7 . .
Lu9 C69 C84 C68 -66.39(13) . .
C70 C69 C84 C83 -14.3 . .
C68 C69 C84 C83 47.7 . .
C71 C69 C84 C83 -125.0 . .
Lu9 C69 C84 C83 -18.72(13) . .
C70 C69 C84 C71 110.7 . .
C68 C69 C84 C71 172.7 . .
Lu9 C69 C84 C71 106.27(13) . .
C70 C69 C84 Lu9 4.39(13) . .
C68 C69 C84 Lu9 66.39(13) . .
C71 C69 C84 Lu9 -106.27(13) . .
C68 C84 C85 C71 3.4 . .
C83 C84 C85 C71 160.7 . .
C69 C84 C85 C71 -1.7 . .
Lu9 C84 C85 C71 63.35(13) . .
C68 C84 C85 C75 -140.2 . .
C83 C84 C85 C75 17.1 . .
C71 C84 C85 C75 -143.6 . .
C69 C84 C85 C75 -145.3 . .
Lu9 C84 C85 C75 -80.24(13) . .
C69 C71 C85 C84 2.6 . .
C72 C71 C85 C84 -145.2 . .
C69 C71 C85 C75 149.9 . .
C72 C71 C85 C75 2.1 . .
C84 C71 C85 C75 147.3 . .
C74 C75 C85 C84 133.1 . .
C76 C75 C85 C84 -17.5 . .
C74 C75 C85 C71 2.3 . .
C76 C75 C85 C71 -148.3 . .
C77 C76 C86 C79 6.2 . .
C75 C76 C86 C79 136.8 . .
C77 C76 C86 C83 -147.9 . .
C75 C76 C86 C83 -17.4 . .
C77 C76 C86 C80 -14.4 . .
C75 C76 C86 C80 116.1 . .
C80 C79 C86 C76 -151.0 . .
C78 C79 C86 C76 -2.2 . .
C80 C79 C86 C83 -36.5 . .
C78 C79 C86 C83 112.4 . .
C78 C79 C86 C80 148.8 . .
C82 C83 C86 C76 165.1 . .
C84 C83 C86 C76 22.8 . .
Lu11 C83 C86 C76 108.19(15) . .
C82 C83 C86 C79 46.1 . .
C84 C83 C86 C79 -96.2 . .
Lu11 C83 C86 C79 -10.81(15) . .
C82 C83 C86 C80 24.1 . .
C84 C83 C86 C80 -118.2 . .
Lu11 C83 C86 C80 -32.85(15) . .
C1A C2A C3A C3A -100.3(4) . 6_565
C1A C2A C3A C4A 77.6(5) . .
C4A N1A C4A C5A -178.6(2) 6_565 .
Ni1A N1A C4A C5A 0.9(6) . .
C4A N1A C4A C3A 0.0(5) 6_565 .
Ni1A N1A C4A C3A 179.5(3) . .
C3A C3A C4A N1A 0.0(3) 6_565 .
C2A C3A C4A N1A -178.3(4) . .
C3A C3A C4A C5A 178.6(3) 6_565 .
C2A C3A C4A C5A 0.3(6) . .
N1A C4A C5A C6A 0.6(6) . .
C3A C4A C5A C6A -177.8(3) . .
C4A C5A C6A N2A -2.0(6) . .
C4A C5A C6A C7A 177.9(4) . .
C13A N2A C6A C5A -179.3(3) . .
Ni1A N2A C6A C5A 1.7(5) . .
C13A N2A C6A C7A 0.8(4) . .
Ni1A N2A C6A C7A -178.1(2) . .
C5A C6A C7A C10A 179.1(3) . .
N2A C6A C7A C10A -1.0(4) . .
C5A C6A C7A C8A -2.6(6) . .
N2A C6A C7A C8A 177.2(3) . .
C10A C7A C8A C9A 97.4(5) . .
C6A C7A C8A C9A -80.5(5) . .
C6A C7A C10A C13A 0.7(4) . .
C8A C7A C10A C13A -177.4(4) . .
C6A C7A C10A C11A 179.2(4) . .
C8A C7A C10A C11A 1.1(7) . .
C7A C10A C11A C12A -96.2(5) . .
C13A C10A C11A C12A 82.1(5) . .
C6A N2A C13A C14A -179.4(3) . .
Ni1A N2A C13A C14A -0.4(5) . .
C6A N2A C13A C10A -0.4(4) . .
Ni1A N2A C13A C10A 178.6(2) . .
C7A C10A C13A N2A -0.3(4) . .
C11A C10A C13A N2A -178.8(3) . .
C7A C10A C13A C14A 178.8(3) . .
C11A C10A C13A C14A 0.2(6) . .
N2A C13A C14A C15A 2.2(6) . .
C10A C13A C14A C15A -176.7(3) . .
C13A C14A C15A N3A -2.7(6) . .
C13A C14A C15A C16A 177.0(3) . .
C15A N3A C15A C14A 179.6(2) 6_565 .
Ni1A N3A C15A C14A 1.4(6) . .
C15A N3A C15A C16A -0.1(5) 6_565 .
Ni1A N3A C15A C16A -178.3(3) . .
C14A C15A C16A C16A -179.7(3) . 6_565
N3A C15A C16A C16A 0.0(3) . 6_565
C14A C15A C16A C17A -2.3(6) . .
N3A C15A C16A C17A 177.4(3) . .
C16A C16A C17A C18A 94.6(4) 6_565 .
C15A C16A C17A C18A -82.2(5) . .
C2B C1B C2B C3B -2(2) 6 .
C1B C2B C3B C4B -2(2) . .
C2B C3B C4B C3B 9(2) . 6
C1C C1C C2C C3C 3(2) 2_655 .
C1C C2C C3C C3C -3.7(16) . 2_655
