#------------------------------------------------------------------------------
#$Date: 2018-10-30 01:17:58 +0200 (Tue, 30 Oct 2018) $
#$Revision: 211694 $
#$URL: file:///home/coder/svn-repositories/cod/cif/1/55/01/1550133.cif $
#------------------------------------------------------------------------------
#
# This file is available in the Crystallography Open Database (COD),
# http://www.crystallography.net/
#
# All data on this site have been placed in the public domain by the
# contributors.
#
data_1550133
loop_
_publ_author_name
'Condakes, Matthew'
'Rosen, Rachel'
'Harwood, Stephen'
'Maimone, Thomas'
_publ_section_title
;
 A Copper-Catalyzed Double Coupling Enables a 3-Step Synthesis of the
 Quassinoid Core Architecture
;
_journal_name_full               'Chemical Science'
_journal_paper_doi               10.1039/C8SC03835J
_journal_year                    2019
_chemical_absolute_configuration ad
_chemical_formula_moiety         'C24 H32 O8'
_chemical_formula_sum            'C24 H32 O8'
_chemical_formula_weight         448.49
_space_group_crystal_system      monoclinic
_space_group_IT_number           4
_space_group_name_Hall           'P 2yb'
_space_group_name_H-M_alt        'P 1 21 1'
_symmetry_space_group_name_Hall  'P 2yb'
_symmetry_space_group_name_H-M   'P 1 21 1'
_atom_sites_solution_hydrogens   geom
_atom_sites_solution_primary     dual
_audit_creation_method           SHELXL-2014/7
_audit_update_record
;
2018-07-19 deposited with the CCDC.
2018-10-29 downloaded from the CCDC.
;
_cell_angle_alpha                90
_cell_angle_beta                 113.345(2)
_cell_angle_gamma                90
_cell_formula_units_Z            2
_cell_length_a                   7.47360(10)
_cell_length_b                   20.0163(2)
_cell_length_c                   8.26160(10)
_cell_measurement_reflns_used    16547
_cell_measurement_temperature    100(2)
_cell_measurement_theta_max      78.5250
_cell_measurement_theta_min      5.8380
_cell_volume                     1134.71(3)
_computing_cell_refinement       'CrysAlisPro 1.171.39.46e (Rigaku OD, 2018)'
_computing_data_collection       'CrysAlisPro 1.171.39.46e (Rigaku OD, 2018)'
_computing_data_reduction        'CrysAlisPro 1.171.39.46e (Rigaku OD, 2018)'
_computing_molecular_graphics    'Olex2 (Dolomanov et al., 2009)'
_computing_publication_material  'Olex2 (Dolomanov et al., 2009)'
_computing_structure_refinement  'SHELXL-2014/7 (Sheldrick, 2014)'
_computing_structure_solution    'ShelXT (Sheldrick, 2015)'
_diffrn_ambient_temperature      100(2)
_diffrn_measured_fraction_theta_full 1.000
_diffrn_measured_fraction_theta_max 1.000
_diffrn_measurement_device_type  'ROD, Synergy Custom DW system, Pilatus 200K'
_diffrn_measurement_method       '\w scans'
_diffrn_radiation_type           CuK\a
_diffrn_radiation_wavelength     1.54184
_diffrn_reflns_av_R_equivalents  0.0521
_diffrn_reflns_av_unetI/netI     0.0291
_diffrn_reflns_Laue_measured_fraction_full 1.000
_diffrn_reflns_Laue_measured_fraction_max 1.000
_diffrn_reflns_limit_h_max       9
_diffrn_reflns_limit_h_min       -9
_diffrn_reflns_limit_k_max       25
_diffrn_reflns_limit_k_min       -25
_diffrn_reflns_limit_l_max       10
_diffrn_reflns_limit_l_min       -10
_diffrn_reflns_number            22974
_diffrn_reflns_point_group_measured_fraction_full 1.000
_diffrn_reflns_point_group_measured_fraction_max 0.999
_diffrn_reflns_theta_full        74.000
_diffrn_reflns_theta_max         74.486
_diffrn_reflns_theta_min         4.418
_diffrn_source                   'Rotating-anode X-ray tube'
_exptl_absorpt_coefficient_mu    0.813
_exptl_absorpt_correction_T_max  1.00000
_exptl_absorpt_correction_T_min  0.84049
_exptl_absorpt_correction_type   multi-scan
_exptl_absorpt_process_details
;
Olex2 1.2-ac3
(compiled 2017.08.10 svn.r3458 for OlexSys, GUI svn.r5381)
;
_exptl_crystal_colour            colourless
_exptl_crystal_density_diffrn    1.313
_exptl_crystal_description       block
_exptl_crystal_F_000             480
_exptl_crystal_size_max          0.220
_exptl_crystal_size_mid          0.100
_exptl_crystal_size_min          0.040
_refine_diff_density_max         0.196
_refine_diff_density_min         -0.174
_refine_diff_density_rms         0.045
_refine_ls_abs_structure_details
;
 Flack x determined using 2084 quotients [(I+)-(I-)]/[(I+)+(I-)]
 (Parsons, Flack and Wagner, Acta Cryst. B69 (2013) 249-259).
;
_refine_ls_abs_structure_Flack   -0.04(10)
_refine_ls_extinction_method     none
_refine_ls_goodness_of_fit_ref   1.102
_refine_ls_hydrogen_treatment    constr
_refine_ls_matrix_type           full
_refine_ls_number_parameters     312
_refine_ls_number_reflns         4646
_refine_ls_number_restraints     1
_refine_ls_restrained_S_all      1.102
_refine_ls_R_factor_all          0.0408
_refine_ls_R_factor_gt           0.0396
_refine_ls_shift/su_max          0.000
_refine_ls_shift/su_mean         0.000
_refine_ls_structure_factor_coef Fsqd
_refine_ls_weighting_details
'w=1/[\s^2^(Fo^2^)+(0.0756P)^2^+0.0767P] where P=(Fo^2^+2Fc^2^)/3'
_refine_ls_weighting_scheme      calc
_refine_ls_wR_factor_gt          0.1091
_refine_ls_wR_factor_ref         0.1098
_reflns_Friedel_coverage         0.941
_reflns_Friedel_fraction_full    0.999
_reflns_Friedel_fraction_max     0.999
_reflns_number_gt                4490
_reflns_number_total             4646
_reflns_threshold_expression     'I > 2\s(I)'
_cod_data_source_file            c8sc03835j2.cif
_cod_data_source_block           MLC_LIT_DA2
_cod_database_code               1550133
_shelx_shelxl_version_number     2014/7
_shelx_space_group_comment
;
The symmetry employed for this shelxl refinement is uniquely defined
by the following loop, which should always be used as a source of
symmetry information in preference to the above space-group names.
They are only intended as comments.
;
_shelx_estimated_absorpt_t_min   0.841
_shelx_estimated_absorpt_t_max   0.968
_shelx_res_file
;
 
    shelx.res created by SHELXL-2014/7
 
TITL shelxt_a.res in P2(1)
CELL  1.54184   7.4736  20.0163   8.2616   90.000  113.345   90.000
ZERR     2.00   0.0001   0.0002   0.0001    0.000    0.002    0.000
LATT  -1
SYMM  - X, 1/2 + Y, - Z
SFAC  C    H    O
UNIT  48 64 16
MERG   2
FMAP   2
PLAN   20
SIZE     0.040   0.100   0.220
ACTA   148.00
BOND   $H
LIST   4
WPDB  -2
L.S.  10
TEMP  -173.00
WGHT    0.075600    0.076700
FVAR      10.81455   0.48812
C1    1    1.134956    0.277219    1.035889    11.00000    0.03987    0.04918 =
         0.06792    0.02025    0.02721    0.02069
AFIX 137
H1A   2    1.092563    0.234285    0.975849    11.00000   -1.50000
H1B   2    1.228665    0.269390    1.156965    11.00000   -1.50000
H1C   2    1.196768    0.303836    0.972743    11.00000   -1.50000
AFIX   0
C2    1    0.825175    0.324117    0.880942    11.00000    0.03585    0.02533 =
         0.04579    0.00725    0.02063    0.00517
C3    1    0.657695    0.361773    0.897777    11.00000    0.03127    0.02484 =
         0.03860    0.00714    0.01686    0.00658
AFIX  13
H3    2    0.618718    0.335698    0.981845    11.00000   -1.20000
AFIX   0
C4    1    0.480345    0.361821    0.720674    11.00000    0.03463    0.02264 =
         0.03410    0.00036    0.01435    0.00200
AFIX  13
H4    2    0.526123    0.348951    0.626480    11.00000   -1.20000
AFIX   0
C5    1    0.181593    0.305502    0.581558    11.00000    0.04301    0.02336 =
         0.04303   -0.00306    0.00959   -0.00369
AFIX  23
H5A   2    0.098663    0.269011    0.594246    11.00000   -1.20000
H5B   2    0.212450    0.295556    0.478068    11.00000   -1.20000
AFIX   0
C6    1    0.074482    0.370716    0.554336    11.00000    0.03558    0.02307 =
         0.05451    0.00170    0.00511   -0.00281
AFIX  23
H6A   2   -0.047855    0.367940    0.447315    11.00000   -1.20000
H6B   2    0.039995    0.379717    0.656270    11.00000   -1.20000
AFIX   0
C7    1    0.375586    0.427936    0.669829    11.00000    0.03196    0.02448 =
         0.02688    0.00239    0.01020    0.00246
C8    1    0.454419    0.487328    0.729980    11.00000    0.03040    0.02329 =
         0.02592    0.00153    0.01047    0.00216
C9    1    0.668004    0.490881    0.855142    11.00000    0.02942    0.02356 =
         0.03017    0.00155    0.00883    0.00306
C10   1    0.797406    0.494911    0.750566    11.00000    0.03477    0.03102 =
         0.04104    0.00128    0.01706   -0.00031
AFIX 137
H10A  2    0.777591    0.454964    0.676882    11.00000   -1.50000
H10B  2    0.934421    0.497603    0.832516    11.00000   -1.50000
H10C  2    0.762923    0.534741    0.675451    11.00000   -1.50000
AFIX   0
C11   1    0.723099    0.430934    0.982038    11.00000    0.02893    0.02848 =
         0.03275    0.00489    0.00904    0.00459
AFIX  13
H11   2    0.868602    0.429968    1.040613    11.00000   -1.20000
AFIX   0
C12   1    0.648739    0.450895    1.122580    11.00000    0.03856    0.03201 =
         0.02871    0.00574    0.00841    0.00589
AFIX  13
H12   2    0.736552    0.431946    1.239053    11.00000   -1.20000
AFIX   0
C13   1    0.390960    0.438560    1.215832    11.00000    0.06842    0.04719 =
         0.05387   -0.00369    0.03934   -0.00215
AFIX 137
H13A  2    0.486228    0.420565    1.326855    11.00000   -1.50000
H13B  2    0.265719    0.415837    1.185771    11.00000   -1.50000
H13C  2    0.374431    0.486551    1.228966    11.00000   -1.50000
AFIX   0
C14   1    0.707929    0.547855    0.989152    11.00000    0.02995    0.03198 =
         0.02783   -0.00113    0.00590    0.00088
AFIX  13
H14   2    0.850548    0.558103    1.038401    11.00000   -1.20000
AFIX   0
C15   1    0.596741    0.612038    0.921568    11.00000    0.03328    0.02446 =
         0.03014   -0.00298    0.00800   -0.00245
AFIX  23
H15A  2    0.644124    0.633496    0.838015    11.00000   -1.20000
H15B  2    0.621816    0.643049    1.021556    11.00000   -1.20000
AFIX   0
C16   1    0.377987    0.599674    0.829196    11.00000    0.03199    0.02189 =
         0.02890    0.00098    0.00965    0.00048
AFIX  13
H16   2    0.337832    0.576609    0.916861    11.00000   -1.20000
AFIX   0
C17   1    0.255690    0.662660    0.774239    11.00000    0.03362    0.02417 =
         0.03156   -0.00108    0.01019    0.00197
C18   1    0.327474    0.722144    0.764894    11.00000    0.03778    0.02565 =
         0.04964    0.00012    0.00916    0.00026
AFIX  93
H18A  2    0.243751    0.759901    0.730509    11.00000   -1.20000
H18B  2    0.462832    0.727175    0.792556    11.00000   -1.20000
AFIX   0
C19   1    0.042470    0.653533    0.731173    11.00000    0.03635    0.02829 =
         0.04698    0.00287    0.01465    0.00491
AFIX 137
H19A  2   -0.022065    0.697208    0.708838    11.00000   -1.50000
H19B  2    0.025462    0.631956    0.830616    11.00000   -1.50000
H19C  2   -0.015295    0.625471    0.625927    11.00000   -1.50000
AFIX   0
C20   1    0.331277    0.550539    0.671474    11.00000    0.02880    0.02081 =
         0.02907    0.00113    0.00727   -0.00125
AFIX  13
H20   2    0.193281    0.536069    0.638904    11.00000   -1.20000
AFIX   0
C21   1    0.335551    0.584466    0.509791    11.00000    0.03331    0.02119 =
         0.03133    0.00068    0.01049   -0.00177
C22   1    0.180242    0.587144    0.358375    11.00000    0.03983    0.02991 =
         0.03072    0.00336    0.00785   -0.00213
AFIX  43
H22   2    0.065438    0.564912    0.352285    11.00000   -1.20000
AFIX   0
PART    1
C23A  1    0.334174    0.665963    0.246130    21.00000    0.06058    0.02343 =
         0.04112    0.01452    0.01193    0.00661
AFIX  23
H23A  2    0.311878    0.706255    0.305124    21.00000   -1.20000
H23B  2    0.342411    0.680050    0.134419    21.00000   -1.20000
AFIX   0
C24A  1    0.523246    0.632897    0.363831    21.00000    0.05174    0.02761 =
         0.03392    0.00095    0.02061   -0.00448
AFIX  23
H24A  2    0.545443    0.592202    0.306227    21.00000   -1.20000
H24B  2    0.633761    0.663831    0.385635    21.00000   -1.20000
AFIX   0
PART    2
C23B  1    0.360325    0.642706    0.234461   -21.00000    0.04769    0.02205 =
         0.03597    0.01071    0.01577    0.00106
AFIX  23
H23C  2    0.347433    0.677779    0.146031   -21.00000   -1.20000
H23D  2    0.434084    0.605165    0.212591   -21.00000   -1.20000
AFIX   0
C24B  1    0.473332    0.669872    0.410878   -21.00000    0.04430    0.02090 =
         0.03746    0.00760    0.01979    0.00334
AFIX  23
H24C  2    0.597946    0.688843    0.416371   -21.00000   -1.20000
H24D  2    0.398994    0.705595    0.439514   -21.00000   -1.20000
AFIX   0
PART    0
O1    3    0.967873    0.312882    1.039005    11.00000    0.03489    0.04100 =
         0.05110    0.01447    0.01988    0.01505
O2    3    0.834882    0.306577    0.744705    11.00000    0.04789    0.04790 =
         0.05324   -0.00048    0.02613    0.01216
O3    3    0.356133    0.309408    0.735285    11.00000    0.03711    0.02163 =
         0.04232    0.00269    0.01279    0.00076
O4    3    0.192374    0.424391    0.535430    11.00000    0.03536    0.02251 =
         0.03459    0.00065    0.00264   -0.00129
O5    3    0.458446    0.428003    1.079272    11.00000    0.04462    0.03807 =
         0.03693    0.00197    0.02116    0.00208
O6    3    0.658375    0.521779    1.129914    11.00000    0.04466    0.03217 =
         0.02841    0.00152    0.01151    0.00477
O7    3    0.173904    0.620009    0.209008    11.00000    0.04638    0.04534 =
         0.02758    0.00779    0.00549   -0.00375
O8    3    0.509482    0.615074    0.533406    11.00000    0.03648    0.03073 =
         0.03253    0.00715    0.00846   -0.00609
HKLF    4
 
REM  shelxt_a.res in P2(1)
REM R1 =  0.0396 for    4490 Fo > 4sig(Fo)  and  0.0408 for all    4646 data
REM    312 parameters refined using      1 restraints
 
END
 
WGHT      0.0741      0.0826
 
REM Highest difference peak  0.196,  deepest hole -0.174,  1-sigma level  0.045
Q1    1   0.9728  0.3115  1.1737  11.00000  0.05    0.20
Q2    1  -0.0481  0.6070  0.6894  11.00000  0.05    0.18
Q3    1   0.2444  0.3174  0.8279  11.00000  0.05    0.17
Q4    1   0.7334  0.4916  0.8038  11.00000  0.05    0.17
Q5    1   0.3950  0.3072  0.6168  11.00000  0.05    0.16
Q6    1   0.9410  0.2908  0.6854  11.00000  0.05    0.16
Q7    1   0.7974  0.5407  1.0934  11.00000  0.05    0.15
Q8    1   0.1971  0.6171  0.4829  11.00000  0.05    0.15
Q9    1   0.5310  0.4294  1.1766  11.00000  0.05    0.15
Q10   1   0.1649  0.6534  0.8330  11.00000  0.05    0.15
Q11   1   0.3234  0.4347  0.9476  11.00000  0.05    0.15
Q12   1   0.2899  0.5491  0.3848  11.00000  0.05    0.14
Q13   1   0.2984  0.2908  0.4724  11.00000  0.05    0.14
Q14   1   1.0596  0.3111  1.1356  11.00000  0.05    0.14
Q15   1   0.7880  0.3160  0.5928  11.00000  0.05    0.14
Q16   1   1.0801  0.3305  1.0033  11.00000  0.05    0.14
Q17   1   0.1664  0.6570  0.6995  11.00000  0.05    0.14
Q18   1  -0.0042  0.5990  0.3810  11.00000  0.05    0.14
Q19   1   0.0583  0.4315  0.5730  11.00000  0.05    0.14
Q20   1   0.4510  0.5947  0.9370  11.00000  0.05    0.14
;
_shelx_res_checksum              76791
_shelx_hkl_file
;
   0 -25   0-31.5448 107.915  24
   0 -24   0 795.761 214.951  24
   0 -24   1 10633.2 503.751  24
   0 -24  -1 12619.7 508.357  24
   0 -24  -2 2271.27 188.984  18
   0 -24  -2 3967.06 255.989  24
   0 -23   0 26.8964 234.429  24
   0 -23   0 31.4824 195.899  18
   0 -23  -1 2411.84 313.894  24
   0 -23   1 1211.30 242.059  18
   0 -23   1 1893.68 306.214  24
   0 -23  -1 1933.19 278.662  18
   0 -23   2 5845.66 428.103  24
   0 -23  -2 6253.92 409.933  18
   0 -23  -3 1077.19 173.071  18
   0 -23  -3 1544.16 194.945  24
   0 -22   0 10431.6 630.302  24
   0 -22   0 9464.65 662.391  18
   0 -22   1 273.330 260.155  18
   0 -22  -1 482.164 284.059  24
   0 -22   1 519.502 315.581  24
   0 -22  -1 524.146 287.006  18
   0 -22   1 657.537 210.990  36
   0 -22   2 8998.85 590.309  24
   0 -22  -2 12660.3 587.240  24
   0 -22  -2 10289.5 604.755  18
   0 -22   2 6415.28 516.355  18
   0 -22   2 8568.58 457.494  36
   0 -22  -3 923.649 223.748  18
   0 -22   3 675.993 198.390  36
   0 -22  -3 1167.06 227.560  24
   0 -22   3 651.884 191.813  31
   0 -22  -4 3660.08 240.300  24
   0 -22   4 3143.40 229.110  31
   0 -21   0-166.773 307.676  18
   0 -21   0 155.088 285.678  24
   0 -21  -1 14303.9 857.942  18
   0 -21   1 11135.2 569.220  26
   0 -21  -1 15034.8 738.589  24
   0 -21   1 13470.5 761.948  24
   0 -21  -1 14668.2 645.172  28
   0 -21   1 10642.1 765.929  18
   0 -21   2 1645.94 284.815  36
   0 -21   2 1628.49 273.148  26
   0 -21  -2 2065.39 250.249  28
   0 -21   2 1918.35 393.042  24
   0 -21  -2 2143.73 394.307  18
   0 -21  -2 2420.11 348.579  24
   0 -21   2 1151.37 322.766  18
   0 -21   3 5855.61 513.282  19
   0 -21  -3 6279.06 490.478  18
   0 -21   3 4903.49 382.409  36
   0 -21   4 109.345 184.269  36
   0 -21   4 227.382 238.578  19
   0 -21  -4 229.410 191.792  18
   0 -21  -4 177.193 176.006  24
   0 -21   4 59.9279 179.398  31
   0 -21   5 222.253 142.001  19
   0 -21   5 188.631 121.218  31
   0 -21  -5 198.304 92.9051  24
   0 -20   0 16412.6 1019.80  18
   0 -20   0 13191.0 620.396  26
   0 -20   0 15832.5 741.928  28
   0 -20   0 15503.3 817.675  24
   0 -20  -1 861.943 409.319  18
   0 -20  -1 994.453 321.552  24
   0 -20   1 913.426 362.445  24
   0 -20   1 658.490 377.630  18
   0 -20   1 593.576 233.664  26
   0 -20  -1 1040.60 271.217  28
   0 -20  -2 14570.6 649.362  28
   0 -20   2 14134.7 864.476  19
   0 -20   2 12651.4 664.435  26
   0 -20  -2 15538.9 763.671  24
   0 -20   2 13962.4 816.604  24
   0 -20  -2 15633.3 920.914  18
   0 -20   2 13977.3 694.701  36
   0 -20  -3 4239.92 473.008  18
   0 -20  -3 3575.35 291.680  28
   0 -20   3 3154.96 370.596  26
   0 -20   3 3397.10 481.493  19
   0 -20  -3 3540.15 360.525  23
   0 -20   3 3243.31 367.420  36
   0 -20   4 1337.58 277.988  31
   0 -20   4 1312.79 349.563  19
   0 -20  -4 1985.92 312.075  18
   0 -20   4 1333.36 184.385  30
   0 -20   4 1112.60 269.922  36
   0 -20   5 1078.86 142.657  30
   0 -20   5 1029.10 253.514  19
   0 -20   5 860.542 210.103  36
   0 -20   5 1261.51 217.652  31
   0 -19   0 88.7843 245.025  28
   0 -19   0-18.0175 174.449  26
   0 -19   0 289.801 309.322  24
   0 -19   0 241.767 377.848  18
   0 -19  -1 2789.84 554.745  18
   0 -19  -1 2301.19 389.951  24
   0 -19   1 2353.80 484.936  19
   0 -19  -1 1878.56 301.489  28
   0 -19   1 1599.63 384.303  24
   0 -19   1 1653.65 295.123  26
   0 -19  -1 1467.48 331.602  23
   0 -19   2 5369.91 553.135  24
   0 -19   2 4035.62 418.268  26
   0 -19  -2 5390.78 618.434  18
   0 -19   2 4727.65 593.236  19
   0 -19  -2 6194.14 430.737  28
   0 -19   3 318.135 266.003  26
   0 -19  -3 873.989 370.656  18
   0 -19  -3 166.335 244.744  23
   0 -19   3 375.891 398.878  19
   0 -19  -3 291.880 182.803  28
   0 -19   3 429.208 177.650  30
   0 -19   3 522.627 294.305  36
   0 -19   4 2308.79 351.918  36
   0 -19   4 2362.61 455.130  19
   0 -19   4 2068.36 258.375  30
   0 -19  -4 2968.10 402.720  18
   0 -19  -4 2292.62 284.774  23
   0 -19   5 8739.28 582.067  19
   0 -19   5 8778.10 415.384  30
   0 -19   5 8064.96 474.574  36
   0 -19   5 8945.02 495.460  31
   0 -19   6 4286.29 306.828  19
   0 -19   6 5432.17 292.542  31
   0 -18   0 98280.0 2732.26  26
   0 -18   0 101027. 3247.01  18
   0 -18   0 100860. 2832.29  23
   0 -18   0 103840. 2834.20  28
   0 -18   1 15651.3 937.653  19
   0 -18   1 14410.6 807.347  24
   0 -18   1 15065.1 748.319  28
   0 -18   1 13692.9 693.646  26
   0 -18  -1 15124.6 1007.24  18
   0 -18  -1 13550.2 734.772  23
   0 -18  -1 14637.3 711.639  28
   0 -18   2 2189.02 506.320  19
   0 -18   2 2124.86 352.302  26
   0 -18   2 2464.87 441.513  24
   0 -18  -2 2467.23 308.809  28
   0 -18  -2 2742.49 526.925  18
   0 -18  -2 2442.99 373.848  23
   0 -18   3 3965.23 344.740  30
   0 -18  -3 4221.85 355.193  28
   0 -18  -3 5265.43 593.094  18
   0 -18   3 5466.80 642.106  19
   0 -18   3 4668.76 472.429  26
   0 -18   3 4190.81 454.110  36
   0 -18  -3 4748.85 431.967  23
   0 -18  -4 11173.5 726.387  18
   0 -18  -4 11029.4 571.693  23
   0 -18  -4 9220.60 460.633  28
   0 -18   4 9168.08 513.583  30
   0 -18   4 9338.02 608.277  36
   0 -18   4 9510.81 767.257  19
   0 -18   5 4045.50 507.912  19
   0 -18   5 4806.33 352.531  30
   0 -18   5 4938.84 425.283  31
   0 -18   5 4815.15 414.674  36
   0 -18   6 227.982 150.435  30
   0 -18   6 423.636 240.620  19
   0 -17   0 160.267 197.504  26
   0 -17   0-21.7215 223.494  28
   0 -17   0 50.1854 281.962  24
   0 -17   0-233.858 240.800  23
   0 -17   0 119.458 353.906  19
   0 -17   1 144213. 3758.82  24
   0 -17   1 129213. 3583.46  26
   0 -17  -1 129305. 3630.93  23
   0 -17   1 147626. 3981.28  19
   0 -17  -1 155622. 4200.53  18
   0 -17   1 137697. 3655.72  28
   0 -17  -1 145115. 3622.94  28
   0 -17   2 641.882 194.854  30
   0 -17  -2 718.315 427.871  18
   0 -17  -2 577.787 231.205  28
   0 -17  -2 604.852 275.129  23
   0 -17   2 627.148 284.220  26
   0 -17   2 388.483 320.848  24
   0 -17   2 1312.93 464.548  19
   0 -17  -3 7709.71 529.976  23
   0 -17  -3 7925.63 481.093  28
   0 -17   3 8038.66 753.958  19
   0 -17   3 7078.40 464.009  30
   0 -17   3 7100.53 562.599  26
   0 -17  -3 8756.04 747.491  18
   0 -17   3 7713.01 573.982  36
   0 -17  -4 2087.09 441.120  18
   0 -17  -4 1765.17 291.093  23
   0 -17   4 1078.64 346.391  26
   0 -17   4 1115.75 460.876  19
   0 -17   4 916.145 348.612  36
   0 -17  -4 1464.50 223.670  28
   0 -17   4 1442.71 284.648  30
   0 -17   5 5332.39 473.188  36
   0 -17   5 5275.61 395.453  30
   0 -17   5 4684.27 572.726  19
   0 -17   5 5772.79 486.554  31
   0 -17  -5 4903.37 339.278  23
   0 -17  -5 5573.58 525.546  18
   0 -17   6 6622.34 441.990  36
   0 -17   6 8030.27 572.608  19
   0 -17   6 8242.69 416.913  30
   0 -16   0 207787. 5161.36  24
   0 -16   0 199045. 5009.57  26
   0 -16   0 213143. 5101.27  28
   0 -16   0 208075. 5349.42  19
   0 -16   0 197502. 5078.82  23
   0 -16  -1 2857.29 517.652  18
   0 -16   1 1724.53 437.339  19
   0 -16   1 2555.17 335.351  28
   0 -16   1 1941.45 302.113  26
   0 -16   1 1949.39 343.404  24
   0 -16  -1 2222.07 296.578  28
   0 -16  -1 1831.30 314.527  23
   0 -16   2 798.763 217.402  30
   0 -16  -2 1597.40 460.334  18
   0 -16   2 1151.44 358.877  24
   0 -16  -2 1535.88 306.320  23
   0 -16   2 1459.53 469.873  19
   0 -16  -2 1289.92 250.160  28
   0 -16   2 1145.75 298.066  26
   0 -16   3 3127.71 559.179  19
   0 -16  -3 3325.23 381.216  23
   0 -16  -3 3522.22 336.138  28
   0 -16  -3 3919.21 554.880  18
   0 -16   3 3205.85 408.817  26
   0 -16   3 3093.48 333.155  30
   0 -16   4 22126.6 1214.27  19
   0 -16  -4 19594.5 791.606  28
   0 -16  -4 17219.4 920.046  21
   0 -16   4 22308.6 879.699  30
   0 -16  -4 24126.5 1151.68  18
   0 -16   4 20548.6 959.410  36
   0 -16  -4 22205.8 886.430  23
   0 -16   4 22074.2 950.426  26
   0 -16   5 207.122 347.299  31
   0 -16  -5 295.917 303.361  18
   0 -16   5 262.277 437.268  19
   0 -16  -5 101.857 155.713  23
   0 -16   5 57.6073 319.209  36
   0 -16   5 143.313 247.006  30
   0 -16   6 3949.19 507.158  19
   0 -16   6 3545.01 325.716  30
   0 -16   6 3568.42 393.660  36
   0 -16   7 1129.97 230.141  19
   0 -16   7 1650.61 185.450  30
   0 -16   7 1507.60 197.563  31
   0 -15   0-45.2209 297.826  19
   0 -15   0 102.259 177.178  26
   0 -15   0 48.5853 193.612  23
   0 -15   0 9.50175 180.712  28
   0 -15  -1 11634.7 640.315  23
   0 -15  -1 14514.5 915.170  18
   0 -15   1 12628.5 636.203  28
   0 -15   1 10800.5 597.440  23
   0 -15   1 14132.0 843.623  19
   0 -15  -1 14638.9 644.212  28
   0 -15   1 14570.6 715.134  24
   0 -15   1 12821.2 627.262  26
   0 -15   2 17728.2 857.969  24
   0 -15  -2 18868.8 812.460  23
   0 -15   2 17859.0 806.748  26
   0 -15   2 18289.5 1018.25  19
   0 -15   2 17160.0 803.674  28
   0 -15  -2 19676.4 785.004  28
   0 -15   2 16352.9 705.967  30
   0 -15  -3 24909.5 965.388  23
   0 -15   3 22610.7 908.266  30
   0 -15  -3 23782.0 911.731  28
   0 -15   3 23067.4 984.048  26
   0 -15   3 25056.5 1276.04  19
   0 -15  -3 22373.4 1040.50  21
   0 -15  -4 4890.59 408.722  23
   0 -15  -4 5542.83 587.504  18
   0 -15  -4 4196.71 474.862  21
   0 -15  -4 4259.27 350.385  28
   0 -15   4 4141.03 483.239  36
   0 -15   4 4498.77 411.620  30
   0 -15   4 5008.80 486.583  26
   0 -15   4 4036.12 641.743  19
   0 -15  -5 7153.63 430.076  23
   0 -15  -5 7886.30 655.743  18
   0 -15   5 6408.08 560.958  36
   0 -15   5 5731.62 385.208  38
   0 -15   5 6821.43 495.656  30
   0 -15   5 7249.01 745.799  19
   0 -15   6 18644.9 816.290  31
   0 -15   6 19963.5 770.318  30
   0 -15   6 17887.9 814.989  36
   0 -15   6 19272.4 1021.83  19
   0 -15   7 2685.88 352.016  19
   0 -15   7 2083.64 188.901  25
   0 -15   7 2799.77 272.524  31
   0 -14   0 91884.1 2421.05  26
   0 -14   0 94089.7 2468.32  28
   0 -14   0 96662.7 2700.30  19
   0 -14   1 2242.02 283.407  28
   0 -14   1 1962.34 264.046  23
   0 -14  -1 2639.00 277.018  28
   0 -14   1 2792.71 429.319  19
   0 -14   1 2519.54 283.022  26
   0 -14   1 2724.92 325.585  24
   0 -14  -2 10865.0 628.255  21
   0 -14   2 10051.9 516.192  30
   0 -14  -2 10630.5 577.489  23
   0 -14   2 10715.7 585.188  28
   0 -14   2 11550.5 784.975  19
   0 -14   2 10004.7 574.827  26
   0 -14  -2 11524.3 561.888  28
   0 -14  -3 9644.14 743.762  18
   0 -14  -3 6771.60 547.781  21
   0 -14   3 8894.58 750.810  19
   0 -14   3 6968.68 512.129  26
   0 -14  -3 6377.20 431.062  28
   0 -14  -3 7039.49 475.376  23
   0 -14   3 7095.89 473.910  30
   0 -14   4 8884.96 631.709  36
   0 -14  -4 8758.28 525.136  23
   0 -14  -4 11048.1 775.417  18
   0 -14  -4 9091.21 655.865  21
   0 -14   4 8768.39 589.098  26
   0 -14   4 8015.60 466.630  38
   0 -14  -4 7783.39 473.150  28
   0 -14   4 9339.92 571.435  30
   0 -14   4 8958.88 836.044  19
   0 -14   5 1447.68 254.106  38
   0 -14   5 2099.99 555.824  19
   0 -14   5 1527.04 322.533  30
   0 -14  -5 1440.65 243.171  23
   0 -14  -5 1196.01 207.294  28
   0 -14  -5 2000.44 435.858  18
   0 -14  -5 1636.06 373.900  21
   0 -14   5 1520.42 395.734  36
   0 -14   6 7989.98 583.569  36
   0 -14   6 9518.88 554.771  30
   0 -14   6 9696.72 809.744  19
   0 -14   6 9273.12 586.415  31
   0 -14   6 7291.41 443.487  38
   0 -14   7 737.220 166.723  38
   0 -14   7 626.027 232.097  31
   0 -14   7 1007.40 354.679  19
   0 -13   0-12.6311 262.620  19
   0 -13   0-21.4190 132.435  26
   0 -13   0 39.5489 153.161  23
   0 -13   0 109.645 153.425  28
   0 -13   1 12469.2 607.850  24
   0 -13   1 10163.8 528.022  23
   0 -13   1 11515.8 557.274  28
   0 -13   1 11507.6 550.682  26
   0 -13   1 11855.5 720.665  19
   0 -13  -1 12804.6 562.748  28
   0 -13   2 15489.9 688.302  28
   0 -13   2 16386.1 903.389  19
   0 -13  -2 15898.6 669.626  28
   0 -13  -2 14892.2 735.399  21
   0 -13   2 15210.7 638.799  30
   0 -13   2 15515.9 689.259  26
   0 -13  -2 15409.1 687.818  23
   0 -13  -3 9847.66 522.957  28
   0 -13  -3 9536.10 532.874  23
   0 -13   3 9155.13 564.696  26
   0 -13   3 10208.8 547.021  30
   0 -13   3 9674.64 760.093  19
   0 -13  -3 9654.95 641.646  21
   0 -13  -4 5026.54 390.008  23
   0 -13   4 5364.18 467.897  26
   0 -13   4 4358.84 638.437  19
   0 -13   4 5082.43 430.997  30
   0 -13  -4 5839.15 592.972  18
   0 -13  -4 4849.88 374.304  28
   0 -13   4 4733.56 479.271  36
   0 -13  -4 4150.38 355.004  33
   0 -13   4 4453.14 362.999  38
   0 -13  -4 4640.14 501.029  21
   0 -13  -5 5398.17 579.259  18
   0 -13  -5 4770.23 367.500  23
   0 -13   5 4956.33 397.254  38
   0 -13  -5 4014.90 502.766  21
   0 -13   5 5089.71 713.350  19
   0 -13   5 5055.84 515.402  36
   0 -13  -5 4472.64 348.501  28
   0 -13  -5 3938.56 351.753  33
   0 -13   5 5718.85 465.744  30
   0 -13   6 1785.99 296.213  38
   0 -13   6 1777.68 352.586  30
   0 -13   6 2095.77 565.565  19
   0 -13   6 2401.86 386.397  31
   0 -13   7 3763.57 360.584  31
   0 -13   7 3988.32 507.383  19
   0 -13   7 3826.65 304.352  38
   0 -13   7 4578.32 362.093  30
   0 -13   8 387.076 90.9084  38
   0 -13   8 202.324 99.0947  25
   0 -13   8 338.872 161.128  19
   0 -13   8 341.653 93.2889  31
   0 -12   0 8277.99 438.886   6
   0 -12   0 7830.97 424.505  23
   0 -12   0 8044.62 422.057  28
   0 -12  -1 3178.76 300.079   6
   0 -12   1 3052.91 273.741  23
   0 -12   1 3318.58 278.341  26
   0 -12   1 3218.18 276.998  28
   0 -12  -1 3235.54 302.987  21
   0 -12   1 4246.24 430.969  19
   0 -12  -1 3045.77 261.785  28
   0 -12  -1 3168.85 364.698  19
   0 -12   1 3739.24 315.898  24
   0 -12  -2 65569.7 1883.58  23
   0 -12   2 66750.6 2141.76  19
   0 -12   2 66130.6 1893.34  26
   0 -12   2 64830.7 1840.36  30
   0 -12   2 62888.9 1874.98  28
   0 -12  -2 67839.1 1997.38  21
   0 -12   3 25827.6 928.544  30
   0 -12  -3 23765.5 1035.32  21
   0 -12   3 27034.3 1232.34  19
   0 -12   3 25577.1 960.955  26
   0 -12  -3 23727.5 889.428  28
   0 -12  -3 23634.2 908.619  23
   0 -12  -3 24424.6 878.567  33
   0 -12  -4 26329.3 961.653  33
   0 -12   4 26773.0 975.887  38
   0 -12  -4 28661.9 1007.35  23
   0 -12   4 26895.8 1340.86  19
   0 -12  -4 27629.1 989.390  28
   0 -12   4 29109.5 1054.22  30
   0 -12   4 27433.9 1090.41  36
   0 -12  -4 26244.5 1184.94  21
   0 -12  -5 6177.16 593.090  21
   0 -12  -5 8050.10 661.842  18
   0 -12   5 6433.51 499.096  30
   0 -12  -5 5767.90 409.651  33
   0 -12  -5 5761.73 402.133  28
   0 -12   5 6136.85 454.570  38
   0 -12   5 6491.32 564.624  36
   0 -12  -5 6245.17 405.269  23
   0 -12   6 6986.55 563.150  31
   0 -12   6 7425.23 496.912  38
   0 -12  -6 6639.69 416.860  33
   0 -12   6 7578.25 812.828  19
   0 -12   7 2887.24 517.443  19
   0 -12   7 2683.43 346.171  31
   0 -12   7 2714.83 325.242  30
   0 -12   7 2574.00 300.942  38
   0 -12   8 3363.52 240.072  25
   0 -12   8 3465.33 343.319  19
   0 -12   8 2904.63 218.485  31
   0 -11   0 101.291 132.475   6
   0 -11   0-61.4006 212.227  19
   0 -11   1 81708.3 2344.68   7
   0 -11   1 106841. 2720.56  19
   0 -11   1 92195.5 2381.86   6
   0 -11  -1 104954. 2563.03   6
   0 -11  -1 119849. 2700.71  19
   0 -11  -2 43586.9 1265.88  33
   0 -11  -2 45518.3 1329.67  23
   0 -11   2 46553.1 1342.03  26
   0 -11   2 44952.5 1326.44  28
   0 -11  -2 44956.2 1300.28  28
   0 -11   2 44935.9 1291.64  30
   0 -11   2 47514.7 1578.93  19
   0 -11  -2 48343.7 1441.71  21
   0 -11  -3 57396.4 1628.79  23
   0 -11   3 56824.2 1664.30  26
   0 -11   3 53692.8 1572.17  38
   0 -11  -3 55020.7 1611.86  28
   0 -11   3 56042.9 1627.66  30
   0 -11  -3 54237.7 1580.62  33
   0 -11  -3 54669.7 1785.70  21
   0 -11  -4 19099.9 738.603  28
   0 -11  -4 15702.3 872.318  21
   0 -11  -4 17435.8 714.149  23
   0 -11  -4 17855.7 714.493  33
   0 -11   4 15637.2 820.610  24
   0 -11   4 16290.2 719.659  38
   0 -11   4 16033.8 778.439  36
   0 -11   4 16878.9 745.829  30
   0 -11  -5 910.120 224.040  33
   0 -11   5 1136.35 354.640  36
   0 -11   5 1120.89 278.092  38
   0 -11   5 1201.47 301.412  30
   0 -11  -5 815.140 208.516  28
   0 -11  -5 1589.85 407.641  21
   0 -11  -5 1344.35 213.849  23
   0 -11   6 1576.29 342.046  30
   0 -11   6 1690.02 313.872  38
   0 -11  -6 1674.78 251.625  33
   0 -11   6 1444.23 359.131  31
   0 -11   7 16245.7 1005.68  19
   0 -11   7 17543.5 725.325  38
   0 -11   7 16593.9 745.678  31
   0 -11  -7 14626.1 587.352  33
   0 -11   7 17471.6 724.842  30
   0 -11   8 953.115 176.031  38
   0 -11   8 1146.09 320.677  19
   0 -11   8 673.208 163.358  31
   0 -10   0 266076. 6282.69   6
   0 -10   1 57428.4 1485.60   6
   0 -10  -1 60543.1 1627.33   6
   0 -10  -2 5268.18 369.860   6
   0 -10   2 4788.02 315.182   7
   0 -10   2 4986.12 458.936  19
   0 -10  -3 29717.3 978.690  23
   0 -10  -3 29522.8 954.023  33
   0 -10  -3 28202.4 1111.28  21
   0 -10  -3 29454.1 979.368  28
   0 -10   3 29902.6 969.929  38
   0 -10   3 29702.1 995.284  30
   0 -10   3 30175.3 1022.32  26
   0 -10  -4 2877.49 288.290  33
   0 -10  -4 3948.70 451.995  18
   0 -10   4 2939.09 324.850  30
   0 -10   4 3485.04 327.313  38
   0 -10  -4 3085.83 291.441  28
   0 -10  -4 3227.38 286.986  23
   0 -10   4 3258.46 358.069  36
   0 -10  -4 2791.31 402.036  21
   0 -10   5 167.282 222.878  38
   0 -10  -5 219.104 167.736  28
   0 -10  -5 44.3328 192.656  33
   0 -10  -5 144.258 299.423  21
   0 -10  -6 426.275 212.561  33
   0 -10   6 218.878 287.440  31
   0 -10   6 529.983 276.562  30
   0 -10   6 797.341 294.416  38
   0 -10   7 2793.48 349.135  38
   0 -10   7 3002.82 363.703  31
   0 -10  -7 2391.74 255.680  33
   0 -10   7 3305.98 350.778  30
   0 -10   8 528.041 168.756  31
   0 -10   8 1028.63 202.541  38
   0 -10   8 560.058 335.119  19
   0  -9   0 6.12340 139.109   6
   0  -9   1 12667.7 472.877   6
   0  -9   1 12509.4 461.195   7
   0  -9   2 169535. 3557.79   1
   0  -9  -2 203571. 4176.13  18
   0  -9  -2 200366. 3990.53   8
   0  -9  -2 185351. 3888.43   6
   0  -9   2 156940. 3718.34   7
   0  -9  -2 197539. 3586.83   2
   0  -9   3 15522.9 701.613  24
   0  -9  -3 19839.5 815.355  21
   0  -9   3 16591.9 658.597  30
   0  -9   3 13156.1 629.412   7
   0  -9  -3 19262.0 812.924   8
   0  -9   4 7131.03 440.473  38
   0  -9   4 7043.92 455.756  26
   0  -9  -4 6612.94 551.077  21
   0  -9  -4 7793.77 438.729  33
   0  -9   4 7732.21 465.499  30
   0  -9  -4 7897.85 413.123  23
   0  -9   4 8395.51 512.839  36
   0  -9  -4 7436.71 432.045  28
   0  -9  -4 8795.21 629.275  18
   0  -9   4 6904.97 647.805  14
   0  -9  -5 8234.27 484.546  33
   0  -9  -5 7903.14 475.591  28
   0  -9   5 8532.70 776.788  14
   0  -9   5 8436.26 531.686  30
   0  -9   5 8641.90 534.416  38
   0  -9  -5 7346.00 657.640  21
   0  -9   6 3954.11 413.426  38
   0  -9   6 3675.53 454.204  36
   0  -9   6 4077.21 433.797  31
   0  -9  -6 3715.32 353.516  33
   0  -9   6 2725.35 629.991  14
   0  -9   6 4049.67 331.071   5
   0  -9   6 4834.10 425.430  30
   0  -9  -6 4091.76 335.596   3
   0  -9  -7 4383.11 323.077   3
   0  -9   7 4755.94 427.691  38
   0  -9   7 4613.67 335.240   5
   0  -9  -7 3623.13 317.748  33
   0  -9   7 4614.88 389.298  30
   0  -9   7 4608.73 434.245  31
   0  -9   8 362.077 200.974  38
   0  -9   8 228.755 171.892  31
   0  -8   0 137715. 3348.44   6
   0  -8   1 15006.5 519.461   6
   0  -8   1 14809.2 500.513   7
   0  -8   2 33498.9 1074.98   7
   0  -8   2 37110.1 983.975   1
   0  -8  -2 41358.1 1207.35   6
   0  -8  -2 40084.8 1020.16   2
   0  -8  -2 45768.4 1260.44   8
   0  -8   3 131453. 3215.16   1
   0  -8  -3 150993. 3303.37   2
   0  -8   3 108139. 3281.55   7
   0  -8  -3 153438. 3543.00   8
   0  -8  -3 149592. 3614.31  18
   0  -8  -3 116391. 3421.63  21
   0  -8  -3 144088. 3411.43   6
   0  -8   4 12888.7 594.656  26
   0  -8  -4 11931.5 514.772  23
   0  -8  -4 11344.9 707.342  21
   0  -8   4 12119.0 568.997  38
   0  -8   4 11747.8 767.431  14
   0  -8  -4 11461.9 544.694  28
   0  -8  -4 12814.7 558.038  33
   0  -8   5 5446.58 366.196   5
   0  -8  -5 5015.33 380.955  28
   0  -8  -5 5556.28 577.204  21
   0  -8   5 6006.34 635.741  14
   0  -8   5 6219.08 457.507  38
   0  -8  -5 5533.10 366.596   3
   0  -8  -5 5845.30 410.300  33
   0  -8   5 6336.25 446.352  30
   0  -8   6 1601.36 327.094  31
   0  -8   6 1636.06 260.814   5
   0  -8   6 1941.75 312.877  30
   0  -8  -6 1076.14 251.367  33
   0  -8  -6 1400.52 230.877  28
   0  -8  -6 1577.58 247.206   3
   0  -8   6 1818.00 328.716  38
   0  -8   6 1905.61 536.036  14
   0  -8   6 1530.88 359.085  36
   0  -8   7 1488.45 335.258  38
   0  -8  -7 1426.12 231.727   3
   0  -8   7 1159.60 242.286   5
   0  -8   7 1372.76 268.859  30
   0  -8  -7 1572.40 256.786  33
   0  -8   7 1182.02 494.331  14
   0  -8   7 1221.11 303.626  31
   0  -8   8-7.44706 205.159  38
   0  -8   8 298.998 146.709   5
   0  -8  -8 143.258 132.753   3
   0  -8   8 143.963 170.869  31
   0  -7   0 124.562 99.2994   7
   0  -7   0 283.164 155.552   6
   0  -7   1 82083.4 1915.77   1
   0  -7   1 83053.0 2032.09   7
   0  -7   1 77684.1 2027.63   6
   0  -7  -2 117411. 2682.33   8
   0  -7  -2 112335. 2498.46   2
   0  -7   3 10628.9 634.249  14
   0  -7  -3 13561.8 575.191   6
   0  -7   3 11273.6 523.872   7
   0  -7   3 12381.5 468.651   1
   0  -7  -3 14366.2 697.236  18
   0  -7  -3 14306.2 625.726   8
   0  -7  -3 13158.5 523.324   2
   0  -7  -4 24056.5 834.491  33
   0  -7   4 23155.9 835.242  30
   0  -7  -4 22686.4 1013.30  21
   0  -7  -4 23800.1 791.627   3
   0  -7   4 22081.0 836.237  26
   0  -7   4 22023.1 1039.84  14
   0  -7   4 21574.7 793.998   1
   0  -7   4 24339.2 859.877  38
   0  -7  -5 5041.92 358.871   3
   0  -7   5 5391.00 370.575   5
   0  -7   5 5216.22 431.393  31
   0  -7   5 5116.58 585.316  14
   0  -7  -5 4678.68 535.912  21
   0  -7  -5 5096.28 389.794  33
   0  -7   5 5356.46 420.623  38
   0  -7   5 5113.41 442.495  36
   0  -7  -5 4653.58 362.294  28
   0  -7   5 5505.35 405.660  30
   0  -7   6 27816.3 999.378   5
   0  -7   6 27770.7 1121.05  36
   0  -7   6 27768.5 1376.84  14
   0  -7  -6 29557.7 1015.15   3
   0  -7   6 28568.6 1036.38  30
   0  -7  -6 26156.8 998.018  33
   0  -7   6 29547.9 1087.14  38
   0  -7   6 28658.4 1091.10  31
   0  -7   7 9944.88 871.033  14
   0  -7   7 11613.1 595.447  30
   0  -7  -7 10930.1 563.624  33
   0  -7   7 12078.7 597.501   5
   0  -7   7 11819.4 667.562  38
   0  -7  -7 12746.6 601.654   3
   0  -7   7 10794.0 624.727  31
   0  -7  -8 4049.94 271.729  33
   0  -7   8 3408.77 295.284  31
   0  -7   9 472.860 119.913  25
   0  -7  -9 684.810 125.975  13
   0  -6   0 828273. 17496.9   6
   0  -6   0 751356. 17356.9   7
   0  -6  -1 65141.8 1493.46   8
   0  -6   1 50261.3 1279.05   1
   0  -6   1 55413.4 1378.02   7
   0  -6  -1 56393.3 1303.51   2
   0  -6   1 52560.7 1362.14   6
   0  -6  -1 68688.3 1529.49   6
   0  -6   2 320287. 5269.75   7
   0  -6   2 332329. 5147.26   1
   0  -6  -2 329829. 5224.27   2
   0  -6  -3 22107.9 751.922   2
   0  -6   3 20805.8 685.541   1
   0  -6  -3 24872.6 797.547   6
   0  -6   3 18146.3 724.606   7
   0  -6  -3 25732.3 851.402   8
   0  -6   4 31107.5 1058.85  26
   0  -6  -4 37271.5 1167.20   2
   0  -6   4 32646.6 1056.80  30
   0  -6   4 34260.3 1060.45   1
   0  -6  -4 34746.5 1040.81   3
   0  -6  -4 38014.7 1124.32   6
   0  -6   4 32842.9 1083.16  38
   0  -6  -4 31232.7 1249.26  21
   0  -6   4 33367.9 1290.20  14
   0  -6  -5 3154.17 318.028  33
   0  -6   5 2431.20 441.628  14
   0  -6  -5 3637.93 310.669   3
   0  -6   5 3190.41 314.184  30
   0  -6   5 2834.30 291.052   5
   0  -6  -5 3183.79 464.326  21
   0  -6   5 2660.49 340.654  36
   0  -6   5 2865.88 326.723  38
   0  -6   5 3324.76 340.026  31
   0  -6   6 53069.2 1677.13  31
   0  -6   6 49847.9 1715.07  36
   0  -6   6 56779.5 1718.14  38
   0  -6  -6 51297.3 1627.12  33
   0  -6   6 54563.2 1630.66   5
   0  -6   6 52084.2 2017.37  14
   0  -6   6 53586.9 1624.30  30
   0  -6  -6 55215.6 1634.54   3
   0  -6   7 28926.9 1427.35  14
   0  -6  -7 31770.9 1097.86   3
   0  -6   7 31126.9 1066.78  30
   0  -6   7 29381.6 1108.00  31
   0  -6   7 32100.9 1112.76   5
   0  -6  -7 29274.7 1056.67  33
   0  -6  -8 8909.27 453.215   3
   0  -6   8 9908.79 484.001   5
   0  -6   8 6899.13 410.116  31
   0  -6   8 7243.11 645.553  14
   0  -6  -8 7712.90 400.318  33
   0  -6  -9 1170.62 118.442   3
   0  -6  -9 1304.28 173.928  13
   0  -6   9 1162.46 122.322   5
   0  -6   9 1302.22 160.625  38
   0  -5   0 47.1822 169.365   6
   0  -5   0 67.8767 90.5094   7
   0  -5  -1 638850. 11471.3   8
   0  -5   1 516706. 11358.1   7
   0  -5   1 423864. 11305.3   6
   0  -5  -1 482616. 11298.3   2
   0  -5   1 510647. 11275.3   1
   0  -5  -1 570166. 11462.9   6
   0  -5  -2 33828.1 949.357   2
   0  -5   2 33223.2 894.269   1
   0  -5   3 290696. 7085.48   7
   0  -5   3 318423. 7032.32   1
   0  -5  -3 366008. 7142.57   6
   0  -5   3 295386. 6821.55  39
   0  -5   3 299701. 6829.06  39
   0  -5  -3 342305. 7130.61   2
   0  -5  -3 335580. 7185.19   8
   0  -5  -4 2231.94 219.136   6
   0  -5  -4 1494.89 307.831  21
   0  -5  -4 2108.54 298.193  18
   0  -5   4 1778.37 234.511   7
   0  -5   4 2186.71 243.477  38
   0  -5   4 1870.01 205.129   1
   0  -5   4 2139.38 256.969  36
   0  -5  -4 1559.92 225.489   8
   0  -5   4 1950.04 222.572  30
   0  -5  -4 2015.81 242.138   2
   0  -5   4 2130.90 332.985  14
   0  -5   4 1534.50 289.210  15
   0  -5  -4 1840.15 206.052   3
   0  -5   5 2135.53 261.630   5
   0  -5   5 1362.12 384.716  14
   0  -5  -5 2196.10 263.691   3
   0  -5   5 1894.98 254.601  30
   0  -5   5 2018.01 279.709  31
   0  -5   5 1792.12 295.746  36
   0  -5  -5 2061.60 285.842  33
   0  -5   5 1954.06 282.200  38
   0  -5   6 9635.79 551.253   5
   0  -5   6 8934.68 553.467  31
   0  -5  -6 10051.5 552.560   3
   0  -5   6 9309.60 526.753  30
   0  -5   6 9648.13 795.186  14
   0  -5  -6 9541.94 564.828  33
   0  -5   7 50175.3 1927.77  14
   0  -5  -7 52957.4 1568.19   3
   0  -5  -7 48842.2 1516.35  33
   0  -5   7 50377.5 1552.21   5
   0  -5   7 49922.3 1487.52  30
   0  -5  -8 867.662 209.568  33
   0  -5  -8 1085.96 235.359   3
   0  -5   8 1176.76 247.820   5
   0  -5   8 1324.48 282.173  38
   0  -5   8 753.843 385.535  14
   0  -5   9 1625.51 161.852   5
   0  -5   9 1240.08 163.846  38
   0  -5  -9 1490.48 196.852  13
   0  -5  -9 1631.12 157.659   3
   0  -4   0 500647. 11470.5   7
   0  -4   0 535902. 11556.0   6
   0  -4  -1 161166. 3470.08   2
   0  -4   1 155949. 3429.04   1
   0  -4  -1 159563. 3564.24   6
   0  -4   2 74864.1 1807.34   1
   0  -4  -2 76516.5 1894.66   6
   0  -4   2 71744.9 1699.79  39
   0  -4  -3 48811.0 1354.48   6
   0  -4  -3 49165.5 1409.78   2
   0  -4   3 48732.0 1324.97   1
   0  -4  -4 4717.57 388.107  18
   0  -4   4 3566.80 360.805  15
   0  -4  -4 4604.38 285.524   6
   0  -4   4 3812.32 280.082   1
   0  -4  -4 4650.49 346.897   2
   0  -4  -4 3722.49 402.707  21
   0  -4  -4 3952.12 284.250   3
   0  -4  -4 3586.90 319.987   8
   0  -4   4 3415.48 374.386  14
   0  -4  -5 579.259 187.285   3
   0  -4   5 627.240 197.349   5
   0  -4   5 355.996 250.370  15
   0  -4  -5 399.188 210.820  33
   0  -4   5 720.501 191.290  30
   0  -4   5 749.046 312.600  14
   0  -4   5 629.812 236.504  36
   0  -4   5 841.980 215.109  31
   0  -4  -6 5422.26 428.244   3
   0  -4   6 5249.82 431.986  31
   0  -4  -6 5054.41 435.535  33
   0  -4   6 5688.67 439.154   5
   0  -4   6 5652.19 612.748  14
   0  -4   6 5684.49 402.949  30
   0  -4   7 21420.7 1200.30  14
   0  -4   7 24859.8 964.546   5
   0  -4  -7 24260.8 861.153  17
   0  -4  -7 22124.4 909.164  33
   0  -4   7 23659.6 964.269  38
   0  -4   7 19226.8 869.564  31
   0  -4  -7 26947.7 971.590   3
   0  -4   7 21662.8 839.766  30
   0  -4  -8 5972.49 390.800  33
   0  -4   8 5896.92 621.856  14
   0  -4   8 6900.43 452.828  38
   0  -4   8 7081.36 457.318   5
   0  -4  -8 7265.05 453.843   3
   0  -4  -9 2874.43 212.826   3
   0  -4  -9 2807.17 248.934  13
   0  -4   9 2555.29 210.725   5
   0  -3   0-21.4979 109.052   6
   0  -3   0 289.866 61.3615   7
   0  -3  -1 210804. 4394.87   8
   0  -3  -1 196901. 4365.22   2
   0  -3  -2 112802. 2156.49   6
   0  -3   2 107149. 2083.95   1
   0  -3  -2 112833. 2203.08   2
   0  -3   3 8644.65 377.415   1
   0  -3  -3 9215.62 384.406   6
   0  -3  -3 8863.05 458.536   2
   0  -3  -4 4580.81 347.926   2
   0  -3   4 3241.36 284.312   7
   0  -3  -4 5023.90 286.380   6
   0  -3   4 4022.63 283.724   1
   0  -3  -4 4358.62 298.479   3
   0  -3  -4 3812.07 401.011  21
   0  -3   4 4075.75 380.105  14
   0  -3   5 4801.02 487.131  14
   0  -3  -5 4808.24 356.521   3
   0  -3   5 4598.18 355.588  31
   0  -3   5 4648.24 327.320  30
   0  -3   5 4579.69 355.987   5
   0  -3   5 3872.20 412.790  15
   0  -3   5 4391.51 380.155  36
   0  -3  -5 3852.80 360.381  33
   0  -3   5 4728.59 363.894  38
   0  -3   6 45272.3 1421.37  38
   0  -3  -6 41052.0 1393.90  33
   0  -3   6 42417.8 1381.96  31
   0  -3   6 42325.6 1646.06  14
   0  -3   6 42076.9 1310.29  30
   0  -3   6 45029.4 1405.99   5
   0  -3  -6 44286.9 1396.97   3
   0  -3  -7 15864.7 753.491  33
   0  -3   7 13090.6 677.337  31
   0  -3   7 14024.1 634.813  30
   0  -3  -7 17910.0 781.422   3
   0  -3   7 16243.7 766.164  38
   0  -3   7 15939.5 1019.26  14
   0  -3   7 17230.1 785.933   5
   0  -3  -7 16653.0 703.135  17
   0  -3  -8 1194.53 245.488  33
   0  -3   8 1124.06 435.702  14
   0  -3   8 1290.62 270.660  38
   0  -3  -8 1493.89 273.351   3
   0  -3   8 1424.87 295.073   5
   0  -3  -8 1085.05 196.619  17
   0  -3  -9 2528.18 264.600  13
   0  -3  -9 2686.07 221.424   3
   0  -3   9 2766.12 232.449   5
   0  -3   9 2352.34 204.331  38
   0  -2   0 255018. 5815.43   7
   0  -2   0 269012. 5855.96   6
   0  -2  -1 99622.8 2214.14   2
   0  -2   1 89928.9 2154.79   1
   0  -2  -2 86022.0 2072.19   2
   0  -2  -2 90486.2 2008.63   6
   0  -2  -2 76377.1 1948.50   9
   0  -2   2 93760.2 1997.77   1
   0  -2   2 76309.1 1898.17   6
   0  -2  -3 57445.9 1548.36   2
   0  -2   3 59275.0 1446.85   1
   0  -2  -3 61056.1 1430.56   6
   0  -2  -4 44591.0 1359.72   2
   0  -2  -4 38869.1 1236.93   3
   0  -2  -4 47050.7 1209.77   6
   0  -2   4 42708.8 1389.17  14
   0  -2   4 38832.0 1280.60  22
   0  -2   4 49131.5 1313.13   1
   0  -2   5 48218.7 1397.76   5
   0  -2   5 43101.6 1300.28  30
   0  -2   5 45298.3 1380.57  38
   0  -2   5 41266.9 1485.44  15
   0  -2   5 44532.8 1420.71  36
   0  -2  -5 47381.1 1393.82   3
   0  -2   5 48100.5 1598.39  14
   0  -2  -5 43055.0 1392.70  33
   0  -2   5 47039.5 1388.61  31
   0  -2  -6 51123.3 1548.84  33
   0  -2   6 44893.1 1451.76  31
   0  -2   6 41209.4 1351.59  30
   0  -2  -6 50197.0 1504.72   3
   0  -2   6 50952.0 1771.40  14
   0  -2   6 37257.3 1545.23  15
   0  -2   6 50270.8 1516.55   5
   0  -2   6 49961.0 1506.80  38
   0  -2  -7 20765.9 854.722   3
   0  -2   7 18264.6 803.230  38
   0  -2   7 18939.5 1061.66  14
   0  -2   7 16351.3 671.285  30
   0  -2  -7 19146.2 780.460  17
   0  -2  -7 17547.6 806.849  33
   0  -2   7 19916.1 852.577   5
   0  -2   8 1451.71 325.849   5
   0  -2  -8 1345.06 269.459  33
   0  -2  -8 1331.40 277.795   3
   0  -2  -8 1343.64 229.775  17
   0  -2   8 1419.62 267.245  38
   0  -2   8 1278.91 416.148  14
   0  -2  -9 1409.90 230.771  13
   0  -2   9 1244.84 165.049  38
   0  -2   9 1517.35 203.041   5
   0  -2  -9 1455.77 187.801   3
   0  -1  -1 346490. 7965.34   2
   0  -1   1 361334. 7913.01   1
   0  -1   1 340236. 7874.83   6
   0  -1  -2 312530. 7064.50   6
   0  -1   2 312540. 7083.19   1
   0  -1  -2 321003. 7186.89   2
   0  -1   3 17665.7 602.561   6
   0  -1   3 22938.8 669.082   1
   0  -1  -3 19499.6 601.467   9
   0  -1  -3 21640.4 764.368   2
   0  -1  -3 20906.4 603.452   6
   0  -1  -4 7531.57 396.471   3
   0  -1  -4 6475.82 321.848   9
   0  -1   4 7846.99 473.749  14
   0  -1   4 8605.84 417.697   1
   0  -1  -4 9406.53 498.099   2
   0  -1   5 32714.8 1064.31  38
   0  -1   5 32465.3 1060.42   5
   0  -1   5 34487.5 1249.61  14
   0  -1   5 30760.3 970.988  30
   0  -1   5 31660.3 1045.38  31
   0  -1  -5 31229.9 1085.29  33
   0  -1  -5 30087.1 969.081  35
   0  -1   5 29083.1 1127.31  15
   0  -1  -5 32678.4 1067.74   3
   0  -1   6 43891.8 1361.05  38
   0  -1  -6 42148.7 1390.18  33
   0  -1   6 39611.3 1313.83  31
   0  -1  -6 43271.3 1374.84   3
   0  -1   6 42358.2 1372.15   5
   0  -1   6 39051.9 1225.98  30
   0  -1   6 44807.4 1630.36  14
   0  -1   7 22307.2 942.735   5
   0  -1  -7 22530.7 939.839   3
   0  -1  -7 21170.6 923.845  33
   0  -1   7 22388.4 911.506  38
   0  -1  -7 22503.1 898.081  17
   0  -1   7 21899.8 1153.36  14
   0  -1  -8 1138.68 355.556  13
   0  -1   8 1101.15 418.342  14
   0  -1  -8 1443.44 251.614  17
   0  -1   8 1266.94 248.112  38
   0  -1  -8 1416.71 276.179  33
   0  -1  -8 1263.20 283.278   3
   0  -1   8 1487.30 319.877   5
   0  -1  -9 2340.80 219.663   3
   0  -1   9 2365.48 234.658   5
   0  -1  -9 1037.18 126.049  33
   0  -1   9 2031.10 182.853  38
   0  -1   9 963.698 262.586  14
   0  -1  -9 2482.79 267.219  13
   0   0  -1 139646. 3150.17   6
   0   0  -1 130520. 3160.43   1
   0   0   1 134746. 3164.96   1
   0   0  -1 130363. 3212.72   2
   0   0   2 99333.2 2610.22   6
   0   0   2 109334. 2634.95   1
   0   0  -2 102049. 2705.57   2
   0   0  -2 112130. 2585.60   6
   0   0  -3 11036.7 379.933   9
   0   0   3 10044.7 411.280   1
   0   0   3 9528.65 404.134   6
   0   0  -3 9381.47 486.443   2
   0   0   4 132078. 2816.78   1
   0   0  -4 118965. 2898.24   2
   0   0  -4 100707. 2634.06   9
   0   0   4 106897. 2831.14  14
   0   0   4 91337.7 2862.11  11
   0   0   5 12053.5 675.047  14
   0   0   5 10755.8 599.912  15
   0   0   5 10599.2 516.813  31
   0   0  -5 11049.9 482.588  35
   0   0  -5 11434.8 584.474  33
   0   0   5 11386.2 540.006  38
   0   0   6 8307.70 593.236  15
   0   0   6 9339.15 530.830  38
   0   0   6 7535.40 473.056  31
   0   0   6 9852.12 695.667  14
   0   0  -6 9311.16 576.805  33
   0   0  -7 201.008 255.763  17
   0   0  -7 22.8343 268.627  33
   0   0   7-320.489 407.071  14
   0   0   7-30.1053 218.013  38
   0   0   8 12278.8 577.508  38
   0   0  -8 12934.0 633.753  33
   0   0   8 11341.4 781.445  14
   0   0  -8 13991.8 622.477  17
   0   0  -9 2224.33 175.230  33
   0   0   9 2635.34 324.678  14
   0   1   1 356437. 9451.68   6
   0   1   1 459815. 9423.13   9
   0   1   2 295360. 6774.69   6
   0   1   3 19943.8 688.245   6
   0   1  -3 20832.2 612.149   9
   0   1   4 6576.97 467.740  11
   0   1  -4 6795.54 374.550   3
   0   1  -4 6267.47 314.998   9
   0   1   5 31780.8 1020.98  38
   0   1   5 31210.3 1109.02  15
   0   1   5 33382.6 1197.97  14
   0   1  -5 32913.7 1098.38  33
   0   1   5 28493.1 1024.66  22
   0   1  -5 28835.7 931.627  35
   0   1   6 43693.2 1331.99  38
   0   1  -6 38852.9 1203.57  35
   0   1  -6 40601.7 1399.79  33
   0   1   6 36166.5 1392.56  15
   0   1   6 46581.7 1588.15  14
   0   1   7 22258.8 1123.76  14
   0   1  -7 23936.3 946.843  17
   0   1  -7 20888.6 931.882  33
   0   1   7 20570.2 855.098  38
   0   1   8 1331.03 409.141  14
   0   1  -8 1404.65 268.069  17
   0   1  -8 1308.13 289.781  33
   0   1   8 1480.42 244.927  38
   0   1   9 1522.46 274.213  14
   0   1  -9 1508.31 166.857  33
   0   2   0 293412. 6624.45   8
   0   2   1 105919. 2423.44   6
   0   2   1 103386. 2362.97   1
   0   2   2 84255.8 2177.40   6
   0   2  -2 87019.5 2203.99   2
   0   2  -3 58758.8 1626.30   2
   0   2   3 61564.2 1538.30   1
   0   2  -4 39630.3 1215.70   3
   0   2  -4 46627.4 1351.94   2
   0   2  -4 39746.6 1140.56   9
   0   2   4 36007.1 1323.76  11
   0   2   4 46183.5 1260.59   1
   0   2   4 43007.5 1303.93  14
   0   2   5 38192.2 1522.54  11
   0   2   5 50051.4 1540.69  14
   0   2   5 47622.5 1376.54   5
   0   2   5 43214.0 1314.66  38
   0   2   5 39253.7 1310.30  22
   0   2  -5 48545.9 1388.25   3
   0   2  -5 41035.6 1236.11  35
   0   2   5 43594.8 1401.20  15
   0   2  -5 51945.3 1466.81  33
   0   2  -6 43869.5 1332.55  35
   0   2  -6 51922.6 1523.24   3
   0   2   6 48328.5 1498.13   5
   0   2  -6 53432.1 1599.05  33
   0   2   6 48653.2 1682.95  14
   0   2   6 40182.4 1510.72  15
   0   2   6 44155.5 1412.41  38
   0   2   7 19497.4 859.066   5
   0   2  -7 17227.8 854.962  33
   0   2  -7 19113.6 853.611   3
   0   2   7 18104.8 1003.13  14
   0   2   7 18628.0 774.340  38
   0   2  -7 20138.5 874.285  17
   0   2  -8 1445.04 294.272  33
   0   2   8 731.721 357.353  14
   0   2   8 1343.53 316.945   5
   0   2   8 1123.61 208.978  38
   0   2  -8 1433.99 276.290  17
   0   2  -8 1509.48 281.577   3
   0   2   9 1378.50 199.269   5
   0   2  -9 829.556 140.573  33
   0   2  -9 1376.20 175.267  17
   0   2  -9 1357.97 235.545  13
   0   2  -9 1362.53 179.988   3
   0   2   9 772.067 234.361  14
   0   3   0 72.6751 89.0648   8
   0   3   1 201847. 4436.99   6
   0   3   1 198368. 4335.98   1
   0   3   2 116105. 2835.33   6
   0   3   2 119014. 2737.24   1
   0   3   2 120680. 2713.49   9
   0   3  -3 8677.25 447.520   2
   0   3   3 8817.29 458.195   6
   0   3   3 9116.45 384.496   1
   0   3  -4 3727.24 250.153   9
   0   3  -4 4040.96 332.241   2
   0   3   4 4803.03 305.293   1
   0   3   4 3770.70 351.595  11
   0   3  -4 3373.64 272.070   3
   0   3   4 4399.87 351.335  14
   0   3   5 4636.15 371.088  15
   0   3   5 4075.10 457.471  11
   0   3   5 4590.08 353.543   5
   0   3  -5 4648.91 401.657  33
   0   3   5 5345.69 443.599  14
   0   3   5 4318.56 309.715  38
   0   3  -5 5022.32 361.232   3
   0   3   6 41258.1 1529.80  14
   0   3   6 38035.6 1400.39  15
   0   3  -6 43175.1 1378.85   3
   0   3   6 41818.8 1374.12   5
   0   3   6 38841.8 1281.45  38
   0   3   7 16891.0 947.880  14
   0   3  -7 17809.2 818.809  17
   0   3  -7 18048.3 900.559  13
   0   3  -7 17352.8 790.805   3
   0   3  -7 15593.8 809.910  33
   0   3   7 17337.1 796.450   5
   0   3   7 15408.0 683.035  38
   0   3  -8 1075.68 343.420  13
   0   3  -8 1169.87 288.620  17
   0   3   8 1472.12 396.359  14
   0   3  -8 1416.45 271.326   3
   0   3  -8 855.603 286.305  33
   0   3   8 1318.53 196.585  38
   0   3   8 1308.17 296.364   5
   0   3  -9 2778.80 219.694   3
   0   3  -9 1621.38 176.618  33
   0   3  -9 2641.52 221.448  17
   0   3   9 2514.55 223.632   5
   0   3  -9 2654.73 266.277  13
   0   3   9 1519.01 258.855  14
   0   4   0 530784. 12001.2   8
   0   4   1 168743. 3652.06   1
   0   4  -1 148416. 3677.86   2
   0   4   2 70510.2 1821.63   9
   0   4   2 78876.7 1979.06   6
   0   4   2 81823.2 1833.65   1
   0   4  -2 71203.6 1881.90   2
   0   4  -3 45944.5 1364.43   2
   0   4   3 44841.5 1407.97   6
   0   4   4 4380.97 300.116   1
   0   4  -4 4190.94 337.050   2
   0   4   4 3943.58 359.958  11
   0   4   4 4293.36 261.086   7
   0   4   4 4601.14 354.577  14
   0   4  -4 3713.76 282.477   3
   0   4   5 804.416 258.339  14
   0   4  -5 733.474 251.056  33
   0   4   5 602.846 194.022   5
   0   4  -5 568.286 193.570   3
   0   4   5 604.269 198.783  15
   0   4   5 610.212 156.282  38
   0   4   5 481.877 272.940  11
   0   4   6 5480.98 370.029  38
   0   4   6 5375.75 532.849  14
   0   4  -6 5890.19 434.936   3
   0   4  -6 6228.99 513.747  33
   0   4   6 4707.55 422.312  15
   0   4   6 5061.14 417.601   5
   0   4   7 23461.4 1138.74  14
   0   4  -7 26851.4 1039.53  17
   0   4  -7 24770.7 1032.84  33
   0   4  -7 26042.8 1097.10  13
   0   4   7 23476.9 948.658   5
   0   4  -7 24631.3 961.619   3
   0   4   8 6106.58 428.915   5
   0   4  -8 6037.95 448.176  33
   0   4  -8 7327.25 486.421  17
   0   4   8 5212.38 526.568  14
   0   4  -8 7003.72 529.241  13
   0   4  -8 6451.80 423.995   3
   0   4  -9 2639.06 215.231  17
   0   4   9 1365.91 231.373  14
   0   4  -9 2589.64 200.225   3
   0   4  -9 1656.30 175.039  33
   0   4   9 2703.07 210.191   5
   0   4  -9 2485.88 248.415  13
   0   5   0 38.8758 130.882   8
   0   5  -1 503991. 11794.2   2
   0   5   1 502515. 11730.4   7
   0   5   2 33842.0 1058.94   6
   0   5   2 33634.1 902.543   1
   0   5  -3 321675. 7735.65   2
   0   5   3 321712. 7604.51   9
   0   5   4 1708.33 167.323   7
   0   5   4 2161.10 279.434  11
   0   5   4 2116.56 282.023  14
   0   5   4 1826.23 208.885  15
   0   5   4 1849.59 206.545   1
   0   5  -4 1718.02 208.969   3
   0   5  -4 2094.87 246.417   2
   0   5   5 2072.58 329.395  14
   0   5   5 1865.77 248.957   5
   0   5   5 1735.94 346.757  11
   0   5  -5 2111.91 256.251   3
   0   5   5 2203.62 270.508  15
   0   5  -5 2227.81 325.208  33
   0   5   6 8361.93 459.575  38
   0   5   6 8260.37 554.820  15
   0   5  -6 10432.8 648.446  33
   0   5   6 9165.09 544.773   5
   0   5  -6 10841.9 678.708  13
   0   5  -6 10566.2 567.487   3
   0   5  -6 10654.0 628.997  17
   0   5   6 9721.80 678.564  14
   0   5  -7 53818.0 1648.12  17
   0   5  -7 47262.3 1618.05  33
   0   5   7 49609.2 1754.95  14
   0   5  -7 56764.0 1737.89  13
   0   5   7 42465.2 1372.96  38
   0   5  -7 51827.8 1558.81   3
   0   5   7 48928.7 1544.75   5
   0   5   8 898.872 322.155  14
   0   5  -8 1222.84 289.346  17
   0   5   8 754.364 241.141   5
   0   5  -8 807.551 278.334  33
   0   5  -8 1090.34 228.523   3
   0   5  -8 1175.37 324.764  13
   0   5  -9 1927.25 190.079  17
   0   5  -9 1893.57 216.947  13
   0   5   9 1848.46 167.612   5
   0   5   9 839.763 177.518  14
   0   5  -9 1561.88 150.076   3
   0   5  -9 933.114 142.209  33
   0   6   0 904754. 20430.8   8
   0   6   1 64316.7 1442.18   1
   0   6   1 71571.0 1598.42   8
   0   6   2 358520. 7696.09   9
   0   6   2 338181. 7616.40   1
   0   6   3 24011.2 747.564   1
   0   6   3 26070.3 725.789   9
   0   6  -4 31808.4 1025.15   3
   0   6  -4 37632.2 1170.74   2
   0   6   4 30942.9 1043.91  15
   0   6   4 36862.4 1090.24   1
   0   6   4 38373.1 1189.87  14
   0   6  -4 32822.2 1122.83  13
   0   6   4 32594.0 1161.90  11
   0   6  -5 2800.11 287.425   3
   0   6   5 2661.52 362.297  14
   0   6  -5 3541.42 381.322  13
   0   6   5 2259.15 370.264  11
   0   6   5 2764.93 296.598  15
   0   6   5 3105.05 297.413   5
   0   6   6 53786.5 1614.51   5
   0   6  -6 55725.6 1758.57  13
   0   6  -6 55209.2 1623.67   3
   0   6   6 51502.9 1667.43  15
   0   6   6 52659.4 1802.16  14
   0   6   7 31949.2 1125.88   5
   0   6  -7 32126.1 1239.56  33
   0   6  -7 36082.7 1256.34  17
   0   6  -7 34840.5 1285.13  13
   0   6   7 33368.7 1339.51  14
   0   6  -7 28919.7 1100.53   3
   0   6  -8 10111.4 578.858  13
   0   6   8 9235.48 478.653   5
   0   6  -8 9950.35 546.517  17
   0   6  -8 9073.94 539.556  33
   0   6  -8 8883.95 462.992   3
   0   6  -9 659.850 118.670  33
   0   6  -9 1103.77 172.123  13
   0   6   9 1075.74 113.422   5
   0   7   0 189.435 131.161   8
   0   7   1 88431.3 1956.98   1
   0   7   1 93622.2 2148.64   8
   0   7   2 105567. 2458.17   1
   0   7   2 111746. 2571.69   9
   0   7   3 12752.9 423.979   9
   0   7   3 11470.1 418.427   1
   0   7  -3 12792.6 481.834   2
   0   7  -4 24010.8 896.845  13
   0   7  -4 26629.4 919.125   2
   0   7   4 24204.8 932.844  14
   0   7   4 24850.5 857.824  15
   0   7   4 25242.0 846.795   1
   0   7   4 22963.1 925.999  11
   0   7  -4 21572.3 780.413   3
   0   7   5 4600.95 453.077  14
   0   7  -5 4833.04 417.307  17
   0   7   5 5079.68 355.463   5
   0   7  -5 4735.34 349.494   3
   0   7  -5 5695.16 457.739  13
   0   7   5 4324.56 471.171  11
   0   7   5 4478.08 370.581  15
   0   7   6 23966.4 1196.34  11
   0   7  -6 29750.7 1020.16   3
   0   7   6 28794.8 1010.28   5
   0   7   6 22745.8 1008.88  15
   0   7   6 28007.6 1179.18  14
   0   7  -6 28513.9 1151.08  33
   0   7  -6 30472.9 1174.29  13
   0   7   7 11809.2 761.425  14
   0   7  -7 13004.2 751.828  13
   0   7   7 11832.7 602.479   5
   0   7  -7 12274.2 601.359   3
   0   7  -7 12419.9 727.089  33
   0   7   8 4346.02 314.642   5
   0   7  -8 5414.28 414.050  17
   0   7  -8 4614.50 311.809   3
   0   7  -8 4840.50 412.428  33
   0   7  -8 5186.12 422.497  13
   0   7  -9 131.141 80.3001  33
   0   7  -9 532.770 122.090  17
   0   7  -9 404.741 114.659  13
   0   8   0 164893. 3948.31   8
   0   8   1 17275.6 604.222   8
   0   8  -2 37449.8 1026.55   2
   0   8   2 39390.2 1148.19   9
   0   8  -3 132844. 3176.41   2
   0   8  -3 127692. 3223.82  13
   0   8   3 128999. 3121.62   1
   0   8   3 136193. 3154.88   9
   0   8  -4 12334.9 602.697  13
   0   8   4 10986.4 595.802  11
   0   8  -4 12153.3 575.577  17
   0   8   4 10266.5 524.370  15
   0   8   5 4830.04 384.965  15
   0   8  -5 6559.62 492.535  13
   0   8   5 5264.12 363.398   5
   0   8   5 5185.76 488.928  14
   0   8  -5 6303.80 384.444   3
   0   8  -5 6792.54 477.762  17
   0   8   5 4553.83 476.753  11
   0   8  -6 1556.05 368.163  33
   0   8  -6 1349.14 246.784   3
   0   8   6 1340.06 238.968   5
   0   8   6 1471.96 374.275  14
   0   8   6 1333.84 267.450  15
   0   8   6 1382.44 373.176  11
   0   8  -6 1349.35 369.391  13
   0   8  -6 1406.19 339.426  17
   0   8  -7 1288.77 341.153  13
   0   8  -7 1310.35 233.299   3
   0   8   7 1285.25 372.268  14
   0   8   7 1350.82 237.634   5
   0   8  -7 1394.95 376.481  33
   0   8  -8 428.687 245.291  13
   0   8   8 100.239 134.869   5
   0   8  -8 249.843 244.747  33
   0   8  -8 165.497 124.427   3
   0   8   8 356.930 259.045  14
   0   9   0 18.2261 124.694   8
   0   9   1 16651.8 597.593   8
   0   9  -1 13228.1 585.472   8
   0   9   2 172056. 4176.36   1
   0   9  -2 181638. 4177.82   2
   0   9   3 17677.8 726.524  16
   0   9  -3 16626.5 659.720  17
   0   9  -3 17603.7 702.812  13
   0   9  -4 7500.17 457.782  17
   0   9  -4 6442.92 392.283  37
   0   9   4 7412.31 494.001  11
   0   9   4 7295.95 438.432  15
   0   9  -4 7623.90 489.301  13
   0   9   5 7873.67 498.036  15
   0   9   5 7979.58 597.565  11
   0   9  -5 8661.53 546.021  17
   0   9  -5 9591.03 588.652  13
   0   9  -5 7083.29 413.869   3
   0   9   5 9397.25 623.867  14
   0   9   6 3805.71 483.295  11
   0   9   6 3599.30 314.902   5
   0   9  -6 4773.85 471.078  13
   0   9   6 3556.92 448.566  14
   0   9  -6 4033.58 495.757  33
   0   9   6 3397.33 360.633  15
   0   9  -6 4081.98 432.579  17
   0   9  -6 3716.50 317.712   3
   0   9  -7 4725.01 458.039  13
   0   9   7 3926.02 307.403   5
   0   9   7 4131.23 470.849  14
   0   9  -7 4569.58 482.373  33
   0   9  -7 3934.82 303.592   3
   0   9  -7 4775.46 449.400  17
   0   9  -8 160.183 215.042  13
   0   9  -8 307.216 226.524  33
   0   9  -8 520.528 236.141  17
   0   9   8 265.875 240.242  14
   0  10   0 262263. 6534.56  39
   0  10   0 349127. 6794.55   8
   0  10   1 67858.4 1767.73   8
   0  10  -1 60562.4 1779.27   8
   0  10   2 5735.74 365.998   9
   0  10   3 27931.2 980.036  11
   0  10   3 29046.7 1020.42  16
   0  10  -3 29222.2 1006.39  13
   0  10  -3 29220.9 951.130  17
   0  10  -4 3064.07 348.606  13
   0  10   4 3099.07 311.914  15
   0  10   4 3172.69 353.592  11
   0  10  -4 2535.01 281.488  37
   0  10  -4 3200.01 321.480  17
   0  10   5 14.5550 254.873  11
   0  10   5 364.469 288.452  14
   0  10   5 224.550 195.922  15
   0  10  -5-11.8256 264.628  13
   0  10  -5 238.106 245.375  17
   0  10  -6 403.890 346.841  33
   0  10   6 453.409 300.569  11
   0  10  -6 883.828 307.035  17
   0  10   6 371.728 322.900  14
   0  10   6 513.175 212.120  15
   0  10  -6 313.057 294.837  13
   0  10  -7 2873.77 373.325  13
   0  10   7 2908.62 413.115  14
   0  10  -7 2917.29 417.285  33
   0  10  -7 3224.18 379.725  17
   0  10  -8 832.083 213.708  13
   0  10   8 600.917 245.018  14
   0  10  -8 700.907 195.504  17
   0  10  -8 804.826 239.198  33
   0  11   0 115.258 82.5513  39
   0  11   0 69.5067 119.214   8
   0  11  -1 100496. 2656.50   8
   0  11  -2 46974.1 1358.54  13
   0  11   2 45015.8 1284.65  10
   0  11   2 44191.2 1318.62  11
   0  11   3 56925.7 1643.50  16
   0  11  -3 51972.9 1522.49  17
   0  11   3 54215.8 1588.04  11
   0  11  -3 56875.6 1618.06  13
   0  11  -3 50175.9 1490.96  35
   0  11   4 15313.8 757.837  11
   0  11  -4 17624.3 742.048  17
   0  11   4 17032.0 743.134  15
   0  11  -4 16679.7 770.709  13
   0  11  -4 16672.0 705.271  37
   0  11  -5 1174.81 291.226  17
   0  11   5 911.694 244.165  15
   0  11   5 1506.38 367.854  14
   0  11  -5 1056.79 318.853  13
   0  11   5 695.019 289.401  11
   0  11   6 871.219 317.613  11
   0  11   6 1156.13 248.861  15
   0  11  -6 1238.62 413.858  33
   0  11  -6 1879.82 352.899  13
   0  11   6 1640.29 383.978  14
   0  11  -6 1658.74 331.633  17
   0  11  -7 17060.7 817.211  33
   0  11  -7 18090.0 783.029  13
   0  11   7 16122.6 818.111  14
   0  11  -7 18907.1 775.320  17
   0  11  -8 869.132 175.709  13
   0  11   8 695.851 213.985  14
   0  11  -8 1164.95 196.160  17
   0  11  -8 1141.32 223.616  33
   0  12   0 6735.68 414.914  13
   0  12   0 6740.10 377.882  16
   0  12   1 2895.49 253.040  11
   0  12   1 3037.76 241.400  39
   0  12  -1 3636.85 312.149   8
   0  12  -1 3407.71 299.727  13
   0  12  -1 3277.55 273.025  16
   0  12   2 65241.7 1776.52  10
   0  12  -2 68343.0 1862.28  13
   0  12   2 63068.2 1811.97  11
   0  12   3 21535.0 860.985  11
   0  12  -3 21805.9 806.339  35
   0  12  -3 23243.8 818.452  17
   0  12  -4 28301.4 1059.55  13
   0  12  -4 27634.5 987.744  17
   0  12   4 26390.1 1060.47  11
   0  12   4 28060.3 1022.17  15
   0  12   5 5731.90 442.306  15
   0  12  -5 6721.44 488.692  17
   0  12   5 5546.29 506.479  11
   0  12   5 7157.50 562.092  14
   0  12  -5 6448.54 514.415  13
   0  12  -6 7534.95 540.238  13
   0  12   6 6029.93 531.224  11
   0  12   6 6061.57 440.476  15
   0  12  -6 8482.53 530.562  17
   0  12   6 6880.83 564.257  14
   0  12  -7 2667.54 306.248  17
   0  12   7 2039.47 349.378  14
   0  12  -7 2501.82 374.460  33
   0  12  -7 2410.05 312.714  13
   0  12  -8 3914.12 242.548  17
   0  12  -8 4054.35 279.237  33
   0  13   0 63.1180 183.121  13
   0  13   0 44.6608 122.104  16
   0  13   1 12388.8 544.195  11
   0  13  -1 11369.5 572.273  13
   0  13  -2 13925.7 658.158  13
   0  13   2 14347.5 597.970  10
   0  13   2 15093.5 633.067  11
   0  13  -2 13301.5 638.497  16
   0  13  -3 8476.30 447.521  17
   0  13  -3 8488.62 527.459  13
   0  13   3 9570.74 519.721  11
   0  13  -3 8773.63 495.980  35
   0  13  -4 4542.86 392.703  37
   0  13  -4 4798.36 380.728  17
   0  13   4 4697.38 396.352  15
   0  13   4 4558.94 423.132  11
   0  13  -4 4306.72 419.845  13
   0  13  -5 4628.40 400.641  17
   0  13  -5 3973.24 343.323  37
   0  13   5 4110.34 378.234  15
   0  13   5 4368.01 487.923  14
   0  13  -5 4887.62 441.564  13
   0  13   5 3670.10 421.023  11
   0  13   6 1824.20 366.664  14
   0  13  -6 2050.10 308.281  17
   0  13   6 1428.21 250.720  15
   0  13   6 1591.46 313.395  11
   0  13  -6 2321.94 340.189  13
   0  13  -7 3276.39 321.443  13
   0  13   7 3940.08 372.119  14
   0  13  -7 4421.03 330.361  17
   0  13  -7 4242.15 412.318  33
   0  13  -8 388.672 138.736  33
   0  13  -8 284.609 98.0142  16
   0  14   0 79419.8 2167.69  13
   0  14   0 72732.9 2050.57  16
   0  14  -1 2059.06 297.323  13
   0  14  -1 2412.24 266.425  16
   0  14   1 2720.70 272.912  11
   0  14  -2 9234.79 546.140  13
   0  14   2 9756.77 509.985  11
   0  14   2 9284.68 483.115  10
   0  14  -2 9389.28 532.441  16
   0  14  -3 6597.43 431.839  35
   0  14   3 7094.15 465.007  11
   0  14  -3 6123.44 471.543  16
   0  14  -3 6992.37 490.974  13
   0  14  -4 7570.05 490.941  37
   0  14  -4 7513.04 462.826  17
   0  14  -4 8134.55 546.857  13
   0  14   4 7461.85 527.407  11
   0  14   4 8553.60 539.578  15
   0  14  -5 1420.03 262.617  17
   0  14  -5 1230.24 306.437  13
   0  14   5 1257.23 256.240  15
   0  14   5 1607.90 372.518  14
   0  14   5 1271.65 295.670  11
   0  14  -6 8806.08 484.557  17
   0  14   6 7135.29 436.241  15
   0  14   6 8302.40 567.990  14
   0  14  -6 7398.95 499.111  13
   0  14   7 639.731 223.157  14
   0  14  -7 505.279 188.619  16
   0  14  -7 792.226 275.834  33
   0  14  -7 893.246 184.433  17
   0  15   0 118.180 160.901  11
   0  15  -1 10984.6 564.284  16
   0  15   1 12437.5 581.824  11
   0  15   2 16352.5 685.001  10
   0  15  -2 16064.8 760.170  13
   0  15  -2 15292.1 728.516  16
   0  15   3 20905.9 860.497  11
   0  15  -3 20383.6 890.266  13
   0  15  -3 21604.2 826.543  35
   0  15  -3 19722.7 879.038  16
   0  15   4 4609.58 413.467  15
   0  15  -4 3768.04 405.430  13
   0  15   4 4008.90 389.957  11
   0  15  -4 4204.14 426.701  16
   0  15  -4 4412.51 395.558  37
   0  15  -5 5424.79 445.297  13
   0  15  -5 5996.54 398.079  17
   0  15  -5 6013.19 492.000  16
   0  15   5 7004.61 558.095  14
   0  15   5 5872.51 429.947  15
   0  15   6 13680.0 599.214  15
   0  15  -6 15588.3 617.502  17
   0  15  -6 14724.7 705.133  16
   0  15  -6 14134.9 633.958  13
   0  15   7 2352.34 250.972  14
   0  15  -7 1774.26 209.910  16
   0  15  -7 1902.07 169.230  17
   0  16   0 181968. 4540.76  11
   0  16  -1 1750.03 247.907  16
   0  16   1 1720.82 243.960  11
   0  16   2 1171.35 222.625  10
   0  16   2 1719.17 245.373  11
   0  16  -2 1083.68 245.675  16
   0  16  -2 1283.96 284.999  35
   0  16  -3 2177.93 323.173  13
   0  16  -3 2580.65 315.480  35
   0  16  -3 2448.57 327.814  16
   0  16   3 2915.12 319.674  11
   0  16   4 18136.7 809.414  15
   0  16  -4 17969.7 766.077  37
   0  16  -4 16971.6 816.731  16
   0  16  -4 17760.0 806.584  13
   0  16  -5 122.052 211.050  16
   0  16   5 201.029 184.609  15
   0  16   5 99.2194 279.963  14
   0  16   6 3549.90 362.394  14
   0  16  -6 2443.61 277.747  16
   0  16  -7 642.305 113.976  16
   0  16   7 948.775 147.530  14
   0  17   0 9.86979 178.919  11
   0  17   1 132559. 3361.09  11
   0  17   1 126719. 3378.13  10
   0  17   2 514.860 186.966  11
   0  17  -2 364.831 199.025  16
   0  17  -2 469.014 265.313  35
   0  17   2 237.701 165.075  10
   0  17  -3 6681.22 438.796  35
   0  17  -3 5928.01 493.333  37
   0  17   3 7340.02 519.330  15
   0  17   4 1273.74 272.744  15
   0  17  -4 917.953 238.094  16
   0  17  -4 1115.47 276.091  37
   0  17  -5 3681.57 344.241  16
   0  17   5 4982.51 448.802  14
   0  17   5 4532.55 350.485  15
   0  17   6 6215.22 407.975  14
   0  17  -6 4568.42 314.149  16
   0  18   0 87095.0 2398.33  11
   0  18  -1 10282.5 591.985  11
   0  18   1 11911.0 586.780  11
   0  18  -2 1514.74 242.940  16
   0  18  -2 2035.94 321.276  35
   0  18   2 2152.16 260.478  10
   0  18  -3 4429.85 426.677  37
   0  18  -3 4072.21 348.526  35
   0  18   3 4223.22 420.521  15
   0  18  -4 7799.98 474.310  37
   0  18  -4 6941.09 454.899  16
   0  18   5 4192.85 393.359  14
   0  18   5 4136.65 306.598  15
   0  18   6 230.569 163.790  14
   0  18  -6 153.830 198.125  33
   0  19   0-99.6968 153.483  11
   0  19   1 1587.89 259.065  10
   0  19  -1 1317.54 238.599  11
   0  19   2 4259.93 324.906  10
   0  19  -2 4456.45 395.541  35
   0  19  -2 3963.35 358.246  11
   0  19  -3 592.256 286.272  37
   0  19   3 357.246 228.725  15
   0  19  -3 461.281 213.948  35
   0  19   4 2716.21 365.223  14
   0  19  -4 1693.25 265.417  37
   0  19   4 2494.93 284.705  15
   0  19  -5 7852.72 498.661  33
   0  19   5 8664.52 483.262  14
   0  19   5 7387.71 369.410  15
   0  19  -6 4643.68 280.703  33
   0  20   0 14289.1 700.088  10
   0  20   1 676.113 212.643  10
   0  20  -2 12772.5 571.590  35
   0  20  -2 8007.50 469.571  11
   0  20  -3 2967.32 342.409  37
   0  20   3 2976.20 325.271  15
   0  20   4 1389.86 220.101  15
   0  20  -4 693.785 166.102  11
   0  20   4 1783.15 298.906  14
   0  20  -4 939.093 183.233  37
   0  20  -5 622.778 228.318  33
   0  20   5 891.344 187.409  14
   0  21   0-93.4673 190.841  10
   0  21  -1 11243.6 617.461  10
   0  21   1 10643.1 525.818  10
   0  21  -2 1806.46 335.199  37
   0  21  -2 1960.62 266.258  35
   0  21   2 1619.57 292.109  15
   0  21  -3 4860.01 363.601  37
   0  21   3 5855.30 393.789  15
   0  21   4 179.326 197.273  14
   0  21   4 87.5438 124.855  15
   0  21  -5 152.020 140.418  33
   0  21  -5 119.170 98.5725  10
   0  22   0 8380.34 456.616  10
   0  22   1 368.197 148.627  10
   0  22  -1 393.154 203.266  10
   0  22  -1 402.504 234.935  35
   0  22  -2 8593.95 502.302  10
   0  22   2 9838.87 514.906  15
   0  22  -2 9099.14 498.258  37
   0  22  -3 831.419 173.839  37
   0  22   3 837.212 180.104  15
   0  22  -3 747.241 215.514  10
   0  22  -4 2652.74 228.038  10
   0  22   4 2721.58 222.261  14
   0  23   0-23.2671 135.215  10
   0  23   0-46.5534 218.629  35
   0  23  -1 1685.60 196.166  35
   0  23  -1 1466.72 216.562  10
   0  23  -1 1552.93 303.427  37
   0  23   1 1850.65 258.583  15
   0  23  -2 6367.11 365.444  37
   0  23  -2 5481.57 351.366  10
   0  23   2 6464.54 372.987  15
   0  23  -3 1025.95 172.270  10
   0  23   3 1203.82 148.344  15
   0  23   3 1216.83 184.414  14
   0  24   0 772.280 143.873  35
   0  24  -1 10226.6 435.561  37
   0  24   1 10545.1 457.822  15
   0  24   1 10609.8 412.568  35
   0  24  -2 2109.87 163.389  37
   0  24  -2 2502.19 197.860  10
   0  25   0 115.922 122.908  37
   0  25   0 33.5742 94.3276  15
   1 -24  -2 2223.94 233.190  18
   1 -24  -2 2559.61 240.816  24
  -1 -24   1 7185.91 397.762  24
   1 -24  -1 7857.70 447.104  18
  -1 -24   0 1622.91 214.605  24
   1 -24   0 1252.32 212.654  18
   1 -24   1 2797.25 248.145  18
   1 -24   1 4774.70 325.668  24
  -1 -24  -1 5109.64 266.597  24
   1 -24   1 3149.20 205.803  36
   1 -23  -4 2901.76 203.522  24
   1 -23  -3 2417.41 269.226  18
   1 -23  -3 3096.93 272.926  24
  -1 -23   2 1087.52 251.326  24
   1 -23  -2 787.322 252.030  18
   1 -23  -2 1336.68 255.709  24
  -1 -23   1 1394.07 271.945  24
   1 -23  -1 1285.18 310.979  18
  -1 -23   0 3248.67 325.069  24
   1 -23   0 3043.60 399.626  18
  -1 -23  -1 2120.20 246.771  24
   1 -23   1 1348.09 287.008  18
   1 -23   1 1932.66 212.721  26
   1 -23   1 1544.24 231.295  36
   1 -23   2 1907.12 219.173  36
  -1 -23  -2 2276.77 210.076  24
   1 -23   3 2558.95 186.342  31
   1 -23   3 2062.11 175.235  36
   1 -22  -4 5046.13 325.137  24
   1 -22  -4 4258.79 339.439  18
   1 -22  -3 698.377 231.892  24
   1 -22  -3 615.000 257.999  18
   1 -22  -3 591.344 165.110  28
   1 -22  -2 8612.38 633.887  18
   1 -22  -2 9771.09 558.352  24
   1 -22  -2 9559.83 485.000  28
   1 -22  -1 8146.54 662.568  18
  -1 -22   1 7839.93 534.079  24
   1 -22  -1 9363.30 514.112  28
   1 -22   0 4492.93 338.980  26
  -1 -22   0 5125.43 424.271  24
   1 -22   1 235.393 298.769  18
  -1 -22  -1 728.053 243.249  24
  -1 -22  -1 646.115 198.120  18
   1 -22   1 675.015 218.158  26
   1 -22   2 6027.99 401.231  36
   1 -22   2 5347.16 444.895  24
   1 -22   2 5677.05 371.971  26
  -1 -22  -2 5984.61 382.863  18
   1 -22   2 4414.64 456.730  18
  -1 -22  -3 1621.38 179.284  24
   1 -22   3 1327.77 215.488  36
   1 -22   3 1810.54 228.113  31
   1 -21  -5 1650.54 198.656  24
  -1 -21   5 801.317 159.140  31
  -1 -21   4 5896.80 369.946  31
   1 -21  -4 6943.04 489.420  18
   1 -21  -4 6359.13 334.427  28
   1 -21  -4 7360.84 447.860  24
  -1 -21   3 804.460 218.873  31
  -1 -21   3 929.902 317.440  24
   1 -21  -3 1320.04 357.840  18
   1 -21  -3 978.070 216.356  28
   1 -21  -3 990.202 289.533  24
   1 -21  -2 1897.31 287.178  28
   1 -21  -2 2024.65 368.280  24
  -1 -21   2 1242.17 346.907  24
   1 -21  -2 1547.95 404.804  18
   1 -21  -1 3522.32 373.875  28
   1 -21  -1 2965.21 286.963  26
   1 -21  -1 3225.83 541.356  18
  -1 -21   1 3608.34 420.511  24
   1 -21   0 2320.62 495.960  18
   1 -21   0 2371.60 301.477  26
   1 -21   0 2575.37 351.741  28
  -1 -21   0 3154.44 396.883  24
  -1 -21   0 2393.22 353.327  18
  -1 -21  -1 463.213 275.853  23
  -1 -21  -1 434.413 245.817  24
  -1 -21  -1 481.159 246.818  18
   1 -21   1 465.111 239.307  26
   1 -21   1 473.178 321.699  24
   1 -21   1 282.495 349.472  18
   1 -21   2 2096.60 374.141  24
   1 -21   2 2093.56 434.623  19
   1 -21   2 1778.97 314.192  36
  -1 -21  -2 2166.63 299.754  24
  -1 -21  -2 1974.66 294.046  18
   1 -21   2 2099.52 306.580  26
   1 -21   3 3837.30 353.344  36
  -1 -21  -3 4497.73 352.571  18
  -1 -21  -3 4226.91 331.910  23
  -1 -21  -3 5243.30 338.116  24
   1 -21   3 3680.82 446.158  19
   1 -21   4 2338.99 243.311  31
   1 -21   4 2235.48 240.705  36
   1 -21   4 2477.71 301.225  19
  -1 -20   6 1871.94 175.493  31
   1 -20  -6 3092.45 197.581  24
  -1 -20   5 1066.15 205.043  36
  -1 -20   5 1221.61 252.125  19
   1 -20  -5 1615.79 276.228  18
  -1 -20   5 1298.76 228.002  31
  -1 -20   4 2146.58 288.598  36
  -1 -20   4 3185.40 331.526  31
  -1 -20   4 2836.97 376.693  19
   1 -20  -4 3249.71 278.779  28
   1 -20  -4 3385.82 422.579  18
   1 -20  -3 1640.54 404.723  18
  -1 -20   3 1527.26 371.782  24
   1 -20  -3 1406.78 261.141  28
  -1 -20   3 1382.79 275.467  31
  -1 -20   3 1101.37 350.707  19
  -1 -20   3 1035.88 241.346  36
  -1 -20   2 1682.83 376.366  24
   1 -20  -2 2671.67 334.015  28
  -1 -20   2 1657.26 267.629  36
   1 -20  -2 2951.25 421.279  24
   1 -20  -2 2205.22 496.750  18
  -1 -20   1 3664.30 444.767  24
   1 -20  -1 4827.18 658.338  18
  -1 -20   1 3178.48 432.876  18
   1 -20  -1 4498.37 420.801  28
   1 -20  -1 3992.43 351.296  26
  -1 -20   0 10.6319 257.567  23
   1 -20   0 291.334 231.257  26
   1 -20   0 319.656 273.964  28
  -1 -20   0 419.247 289.085  24
   1 -20   0 110.836 419.039  18
  -1 -20   0 169.400 271.002  18
  -1 -20  -1 7930.61 548.317  23
   1 -20   1 8156.17 531.712  26
  -1 -20  -1 8695.90 568.067  24
  -1 -20  -1 8779.67 634.554  18
   1 -20   1 8189.93 729.149  19
   1 -20   1 8177.89 620.670  24
  -1 -20  -1 8827.97 465.714  28
   1 -20   2 271.306 276.043  26
   1 -20   2 429.831 411.608  19
  -1 -20  -2 215.134 262.719  18
  -1 -20  -2 447.715 244.660  24
   1 -20   2 62.1728 302.375  24
  -1 -20  -3 4850.16 389.464  23
   1 -20   3 5046.80 564.308  19
  -1 -20  -3 5179.51 375.534  24
   1 -20   3 4488.65 309.337  30
  -1 -20  -3 5126.51 427.292  18
   1 -20   3 4938.66 413.991  26
   1 -20   3 4709.91 430.196  36
   1 -20   4 1099.61 323.218  19
   1 -20   4 1341.97 192.737  30
  -1 -20  -4 1413.33 191.590  24
   1 -20   4 1088.65 253.524  36
   1 -20   4 1239.76 260.716  31
  -1 -20  -4 1496.89 207.254  23
   1 -20   5 2544.02 165.605  30
   1 -20   5 2938.00 224.941  36
   1 -20   5 2852.07 266.644  19
  -1 -19   6 381.979 172.782  31
  -1 -19   6 428.648 182.454  19
  -1 -19   5 1638.01 292.180  31
   1 -19  -5 1577.46 198.655  28
  -1 -19   5 1401.30 265.971  36
  -1 -19   5 1718.81 209.664  30
  -1 -19   5 1850.27 350.823  19
   1 -19  -5 2545.87 358.801  18
   1 -19  -4 1811.23 309.306  21
  -1 -19   4 1724.04 221.911  30
  -1 -19   4 1821.29 307.647  36
   1 -19  -4 2202.08 273.691  28
   1 -19  -4 3000.86 446.626  18
  -1 -19   4 2644.37 419.356  19
  -1 -19   4 2214.11 333.015  31
   1 -19  -3 6889.21 541.358  21
  -1 -19   3 6714.49 593.836  19
  -1 -19   3 7905.93 630.077  24
   1 -19  -3 9297.15 767.530  18
   1 -19  -3 8301.37 512.286  28
  -1 -19   3 6704.20 477.739  36
  -1 -19   2 12435.2 750.742  24
  -1 -19   2 10344.6 575.314  26
   1 -19  -2 16112.4 1037.67  18
   1 -19  -2 11771.0 568.408  26
  -1 -19   2 12891.5 792.647  19
  -1 -19   2 11189.7 596.837  36
   1 -19  -2 11918.3 706.324  21
   1 -19  -2 13971.4 678.165  28
  -1 -19   2 9669.82 716.786  18
  -1 -19   1 8640.85 692.880  18
   1 -19  -1 8900.03 526.306  26
   1 -19  -1 9245.28 590.783  28
   1 -19  -1 9915.67 872.073  18
   1 -19  -1 9051.48 607.625  21
  -1 -19   1 9244.76 632.176  24
  -1 -19   0 2218.70 301.131  28
   1 -19   0 2456.65 338.063  26
  -1 -19   0 2565.36 449.850  18
   1 -19   0 1793.44 326.179  21
  -1 -19   0 2307.97 355.268  23
  -1 -19   0 2334.93 379.196  24
   1 -19   0 2072.51 360.001  28
  -1 -19  -1 9788.42 600.279  23
  -1 -19  -1 9115.59 494.224  28
   1 -19   1 7790.29 575.841  28
  -1 -19  -1 9488.20 600.646  24
  -1 -19  -1 9256.44 694.494  18
   1 -19   1 8521.81 641.843  24
   1 -19   1 8385.45 561.142  26
   1 -19   1 9733.52 803.445  19
   1 -19   2 4312.18 497.264  24
   1 -19   2 3948.01 321.897  30
  -1 -19  -2 5069.16 494.993  18
   1 -19   2 4286.10 433.295  26
   1 -19   2 4537.14 618.465  19
  -1 -19  -3 8342.33 586.271  18
   1 -19   3 6919.41 565.600  24
   1 -19   3 7911.16 546.194  26
   1 -19   3 7500.68 690.621  19
  -1 -19  -3 8384.39 516.042  23
   1 -19   3 7116.95 545.250  36
   1 -19   3 7508.27 441.393  30
  -1 -19  -4 12810.1 566.291  23
   1 -19   4 12038.6 539.847  30
   1 -19   4 12357.7 629.750  36
   1 -19   4 11900.8 755.811  19
   1 -19   5 16029.2 730.882  19
   1 -19   5 15174.4 624.813  36
  -1 -18   6 1815.88 312.694  19
  -1 -18   6 1708.50 269.756  31
  -1 -18   6 1796.75 217.744  30
  -1 -18   5 1748.23 324.659  31
  -1 -18   5 2091.64 259.697  30
  -1 -18   5 1283.88 358.628  19
  -1 -18   5 1952.06 322.790  36
   1 -18  -5 1314.27 288.133  21
   1 -18  -5 1727.97 229.349  28
  -1 -18   4 1969.67 366.112  31
  -1 -18   4 1481.73 411.032  19
   1 -18  -4 1819.87 356.169  21
   1 -18  -4 2140.24 471.333  18
  -1 -18   4 1862.16 258.142  30
   1 -18  -4 1896.26 280.533  28
  -1 -18   4 1783.17 332.392  36
   1 -18  -3 9580.47 557.283  28
   1 -18  -3 7161.56 592.380  21
  -1 -18   3 7838.76 547.860  26
   1 -18  -3 9082.65 568.304  23
   1 -18  -3 10597.8 846.892  18
  -1 -18   3 8551.50 686.916  19
  -1 -18   3 9114.52 666.851  24
  -1 -18   3 7867.41 534.544  36
  -1 -18   2 31059.8 1181.92  26
  -1 -18   2 37027.9 1457.35  19
   1 -18  -2 34781.3 1173.73  26
   1 -18  -2 44410.5 1811.28  18
  -1 -18   2 35254.4 1370.43  24
   1 -18  -2 37248.5 1395.44  21
   1 -18  -2 40737.0 1314.24  28
  -1 -18   1 8654.62 561.143  23
  -1 -18   1 10298.0 662.562  24
  -1 -18   1 10861.5 729.374  19
   1 -18  -1 9992.33 562.563  26
  -1 -18   1 8960.36 722.471  18
   1 -18  -1 9393.36 845.667  18
   1 -18  -1 10311.7 658.656  21
   1 -18  -1 10940.3 627.832  28
  -1 -18   0 3078.75 338.986  28
   1 -18   0 2911.10 361.458  26
  -1 -18   0 3310.42 497.301  18
  -1 -18   0 2377.43 360.742  23
   1 -18   0 2385.56 368.148  21
   1 -18   0 3286.26 558.867  19
   1 -18   0 3154.53 387.915  28
  -1 -18   0 3628.50 420.283  24
   1 -18   1 939.341 299.099  21
   1 -18   1 1426.38 336.872  28
  -1 -18  -1 1336.93 319.921  23
  -1 -18  -1 2146.04 408.287  18
  -1 -18  -1 1403.30 316.886  24
   1 -18   1 1418.29 321.609  26
   1 -18   1 1327.69 486.823  19
   1 -18   1 1357.61 362.616  24
  -1 -18  -1 1571.77 245.854  28
   1 -18   2 4792.51 471.684  26
  -1 -18  -2 6034.45 565.408  18
   1 -18   2 3783.91 440.443  21
   1 -18   2 5230.80 518.873  24
   1 -18   2 5752.85 670.424  19
   1 -18   2 5205.33 388.156  30
   1 -18   3 6528.13 530.566  36
   1 -18   3 6377.89 717.972  19
   1 -18   3 5991.54 557.479  24
   1 -18   3 5791.04 420.748  30
  -1 -18  -3 7197.38 575.480  18
  -1 -18  -3 7028.62 490.967  23
   1 -18   3 6647.90 527.331  26
  -1 -18  -4 3013.82 381.235  18
   1 -18   4 2767.42 504.470  19
  -1 -18  -4 2908.31 305.392  23
   1 -18   4 2308.43 382.868  36
   1 -18   4 2551.80 301.098  30
   1 -18   5 8150.75 588.938  19
   1 -18   5 8316.98 424.711  30
  -1 -18  -5 8516.96 374.508  23
   1 -18   5 7526.84 475.030  36
   1 -18   6 956.601 187.507  19
   1 -18   6 1039.79 131.208  30
   1 -18   6 991.860 142.890  31
  -1 -17   7 1080.52 188.716  31
  -1 -17   7 561.412 186.436  19
  -1 -17   6 79.8568 256.547  31
  -1 -17   6 132.792 188.569  30
  -1 -17   6 290.581 293.094  19
  -1 -17   6 8.40067 232.748  36
  -1 -17   5 972.884 331.520  31
   1 -17  -5 992.603 217.698  28
  -1 -17   5 994.578 399.923  19
   1 -17  -5 1154.33 321.434  21
  -1 -17   5 910.902 308.991  36
  -1 -17   5 820.121 243.005  30
   1 -17  -4 10268.6 567.161  23
   1 -17  -4 7966.46 640.921  21
   1 -17  -4 8643.13 528.900  28
  -1 -17   4 8189.20 704.212  19
   1 -17  -4 11163.6 814.287  18
  -1 -17   4 8241.96 491.583  30
  -1 -17   4 8625.48 574.779  36
  -1 -17   3 504.001 192.899  30
   1 -17  -3 170.043 244.724  23
  -1 -17   3 705.205 381.336  19
   1 -17  -3 349.280 286.019  21
   1 -17  -3 403.497 242.570  28
  -1 -17   3 347.286 261.640  36
  -1 -17   3 626.423 267.514  26
  -1 -17   3 288.854 311.702  24
   1 -17  -3 432.906 445.157  18
   1 -17  -2 31112.2 1129.93  28
   1 -17  -2 30465.0 1158.07  23
  -1 -17   2 31436.5 1316.99  19
  -1 -17   2 26851.8 1052.82  26
   1 -17  -2 30958.8 1254.41  21
   1 -17  -2 35071.9 1597.85  18
   1 -17  -2 28051.5 1026.61  26
  -1 -17   2 29241.1 1200.90  24
  -1 -17   1 57235.3 2100.01  18
  -1 -17   1 68608.9 1985.73  24
   1 -17  -1 61223.1 1806.54  26
  -1 -17   1 60574.3 1835.44  23
  -1 -17   1 57784.4 1823.30  28
   1 -17  -1 63155.6 1989.39  21
   1 -17  -1 65864.9 1893.75  28
  -1 -17   1 55560.0 1734.77  26
  -1 -17   0 24267.1 994.540  23
   1 -17   0 25701.6 998.355  26
   1 -17   0 26052.0 1034.61  28
   1 -17   0 29769.2 1312.16  19
  -1 -17   0 24495.6 955.826  28
   1 -17   0 21633.3 1046.04  21
  -1 -17   0 27320.5 1065.10  24
  -1 -17   0 28216.0 1299.91  18
   1 -17   1 2042.56 520.033  19
   1 -17   1 1185.39 320.461  21
  -1 -17  -1 2174.30 431.597  18
   1 -17   1 1278.56 324.952  28
  -1 -17  -1 1700.72 332.436  23
   1 -17   1 1112.55 217.943  30
   1 -17   1 1280.65 344.448  24
  -1 -17  -1 1580.32 249.454  28
   1 -17   1 1415.43 318.726  26
   1 -17   2 8773.90 801.322  19
   1 -17   2 7332.32 475.509  30
   1 -17   2 8243.84 566.167  26
  -1 -17  -2 10784.3 755.441  18
   1 -17   2 8073.54 615.563  24
   1 -17   2 5822.11 542.659  21
  -1 -17  -3 11524.2 635.704  23
   1 -17   3 10627.6 581.075  30
   1 -17   3 10800.0 886.761  19
   1 -17   3 10609.7 680.248  36
  -1 -17  -3 11446.5 754.593  18
   1 -17   3 9936.23 684.976  24
   1 -17   3 10798.1 668.037  26
   1 -17   4 1560.93 391.963  36
   1 -17   4 777.359 277.199  21
  -1 -17  -4 1822.80 281.097  23
  -1 -17  -4 2248.91 395.871  18
   1 -17   4 1190.40 285.869  30
   1 -17   4 1683.43 533.849  19
   1 -17   5 10524.5 553.406  31
  -1 -17  -5 10452.2 434.067  23
   1 -17   5 11208.9 514.246  30
   1 -17   5 9987.34 699.990  19
   1 -17   6 2709.44 228.424  30
   1 -17   6 2358.60 236.519  31
  -1 -16   7 4148.21 282.257  30
  -1 -16   7 2819.31 344.316  19
  -1 -16   6 1820.50 321.710  36
  -1 -16   6 2105.45 307.086  30
  -1 -16   6 1492.17 212.844  25
  -1 -16   6 2102.76 443.716  19
   1 -16  -6 1853.17 218.783  28
  -1 -16   6 2133.49 354.194  31
  -1 -16   5 9626.33 619.976  36
   1 -16  -5 9478.96 530.064  28
   1 -16  -5 9489.60 695.963  21
  -1 -16   5 9864.92 779.125  19
  -1 -16   5 11035.9 578.456  30
  -1 -16   5 9578.85 642.128  31
   1 -16  -4 4657.66 627.347  18
  -1 -16   4 4694.61 589.565  19
  -1 -16   4 4097.18 372.639  30
   1 -16  -4 3877.66 495.559  21
   1 -16  -4 4281.47 393.296  23
  -1 -16   4 4393.47 455.265  36
  -1 -16   4 4042.59 515.936  24
   1 -16  -4 4109.00 393.828  28
   1 -16  -3 24404.7 1112.51  21
  -1 -16   3 25242.0 1190.91  19
   1 -16  -3 24749.2 979.895  23
  -1 -16   3 22960.9 964.243  36
  -1 -16   3 20137.2 829.608  30
   1 -16  -3 24928.6 971.352  28
  -1 -16   3 22398.8 964.612  26
  -1 -16   3 22820.2 1053.18  24
   1 -16  -2 96180.7 2679.82  21
   1 -16  -2 81017.0 2467.22  23
   1 -16  -2 102487. 3071.39  18
   1 -16  -2 96599.0 2507.88  28
  -1 -16   2 82605.8 2415.62  26
  -1 -16   2 92865.8 2609.33  24
   1 -16  -2 79995.9 2360.28  26
  -1 -16   2 90649.1 2722.22  19
  -1 -16   1 15046.8 824.776  19
  -1 -16   1 12351.9 608.380  26
  -1 -16   1 12847.1 660.825  28
   1 -16  -1 14792.5 790.413  21
   1 -16  -1 13975.4 665.101  26
  -1 -16   1 14747.8 756.834  24
  -1 -16   1 12942.6 660.977  23
   1 -16  -1 14646.6 706.546  28
  -1 -16   0 35205.9 1221.59  28
  -1 -16   0 43221.1 1356.31  24
   1 -16   0 31861.6 1324.79  21
  -1 -16   0 41045.3 1589.53  18
   1 -16   0 37428.0 1526.15  19
   1 -16   0 34974.7 1307.25  24
   1 -16   0 35773.7 1266.32  28
   1 -16   0 36905.7 1256.44  26
  -1 -16   0 35130.4 1248.91  23
  -1 -16  -1 8146.04 539.302  23
  -1 -16  -1 9099.69 730.670  18
  -1 -16  -1 8777.53 483.653  28
   1 -16   1 7104.88 576.851  21
   1 -16   1 8204.67 574.983  24
   1 -16   1 8820.14 750.782  19
   1 -16   1 7020.42 441.594  30
   1 -16   1 8462.91 553.339  26
   1 -16   2 25036.2 1017.58  26
   1 -16   2 23691.7 933.331  30
   1 -16   2 20586.6 1059.75  21
   1 -16   2 26323.5 1315.22  19
   1 -16   2 26473.6 1107.41  24
  -1 -16  -2 31331.0 1322.68  18
   1 -16   3 10656.0 601.395  30
   1 -16   3 10247.4 692.844  24
   1 -16   3 10659.6 653.447  26
  -1 -16  -3 11661.1 773.391  18
   1 -16   3 11639.6 922.980  19
  -1 -16  -3 10344.4 614.720  23
   1 -16   4 4698.54 353.503  38
   1 -16   4 5545.89 458.169  30
  -1 -16  -4 5972.01 440.655  23
   1 -16   4 5727.30 534.969  36
   1 -16   4 5372.47 717.544  19
   1 -16   5 5790.47 355.700  38
   1 -16   5 7275.19 509.537  31
   1 -16   5 7024.62 469.312  30
  -1 -16  -5 6962.74 396.371  23
   1 -16   6 1114.27 210.425  30
   1 -16   6 922.899 216.337  31
  -1 -15   7 1490.33 206.324  25
  -1 -15   7 1955.82 367.688  19
  -1 -15   7 2048.78 265.012  30
  -1 -15   6 13565.9 719.074  36
  -1 -15   6 14046.4 889.413  19
   1 -15  -6 13393.0 595.278  28
  -1 -15   6 15474.7 766.614  31
  -1 -15   6 15381.1 693.448  30
  -1 -15   6 12252.1 600.168  25
   1 -15  -5 3856.51 356.729  28
   1 -15  -5 4336.62 343.387  23
  -1 -15   5 4152.95 453.390  36
  -1 -15   5 4327.88 400.929  30
  -1 -15   5 5086.45 504.558  31
  -1 -15   5 4341.58 603.786  19
   1 -15  -5 4062.65 525.726  21
  -1 -15   5 3331.62 327.630  25
   1 -15  -4 20275.3 874.289  28
  -1 -15   4 19889.1 913.585  36
  -1 -15   4 20674.3 932.846  26
  -1 -15   4 22588.4 1170.73  19
  -1 -15   4 21070.7 855.415  30
   1 -15  -4 22245.6 1094.11  21
   1 -15  -4 23040.4 884.937  23
   1 -15  -3 3950.49 599.350  18
   1 -15  -3 3015.61 432.418  21
  -1 -15   3 2988.40 302.148  30
   1 -15  -3 3047.19 355.779  23
  -1 -15   3 3953.63 523.859  19
  -1 -15   3 3343.78 428.056  24
  -1 -15   3 2866.81 355.836  26
  -1 -15   3 3454.71 381.150  36
   1 -15  -3 2712.16 278.827  26
   1 -15  -3 2973.05 333.845  28
  -1 -15   2 11272.8 656.349  24
   1 -15  -2 10999.8 607.046  23
  -1 -15   2 9421.06 555.269  26
  -1 -15   2 9236.80 520.674  23
   1 -15  -2 12680.7 895.287  18
   1 -15  -2 9954.29 530.718  26
  -1 -15   2 12008.4 759.723  19
   1 -15  -2 11547.7 601.679  28
   1 -15  -2 11476.0 691.157  21
  -1 -15   1 37871.9 1348.05  19
   1 -15  -1 34390.0 1378.85  19
  -1 -15   1 33316.0 1190.50  24
   1 -15  -1 32629.5 1106.25  26
  -1 -15   1 29611.0 1087.16  28
  -1 -15   1 30835.3 1103.47  23
   1 -15  -1 33206.5 1253.61  21
   1 -15  -1 32735.8 1139.85  28
  -1 -15   1 30244.7 1058.52  26
   1 -15   0 693.972 252.747  24
   1 -15   0 541.613 227.294  28
   1 -15   0 643.452 369.419  19
  -1 -15   0 918.444 299.513  19
  -1 -15   0 752.707 229.492  23
  -1 -15   0 648.398 311.089  18
   1 -15   0 259.234 240.142  21
   1 -15   0 560.457 226.409  26
  -1 -15   0 640.088 188.609  28
   1 -15   1 36054.8 1238.79  26
   1 -15   1 31783.9 1320.75  21
  -1 -15  -1 44992.2 1621.32  18
   1 -15   1 32835.1 1135.93  30
   1 -15   1 35560.6 1278.32  24
  -1 -15  -1 35264.0 1161.05  28
   1 -15   1 39742.5 1538.82  19
  -1 -15  -1 39042.3 1274.17  23
   1 -15   2 2941.20 398.052  24
   1 -15   2 3215.12 536.816  19
   1 -15   2 2848.50 326.033  30
   1 -15   2 2865.10 369.184  26
  -1 -15  -2 3378.71 374.114  23
   1 -15   3 5425.75 539.055  24
  -1 -15  -3 7135.72 626.567  18
   1 -15   3 5683.23 504.407  26
   1 -15   3 5544.49 699.248  19
  -1 -15  -3 6402.43 481.367  23
   1 -15   3 5753.13 465.931  30
  -1 -15  -4 8856.32 533.430  23
  -1 -15  -4 8804.68 671.036  18
   1 -15   4 8721.63 558.644  30
   1 -15   4 7153.37 466.044  38
  -1 -15  -5 8815.35 468.392  23
   1 -15   5 9295.73 589.260  31
   1 -15   5 9399.99 550.158  30
   1 -15   6 5015.27 378.175  31
   1 -15   6 4403.06 391.680  36
   1 -15   6 4342.30 296.286  38
   1 -15   7 205.760 80.1489  31
   1 -15   7 359.770 109.721  30
  -1 -14   8 2298.13 268.678  19
  -1 -14   8 1917.75 171.049  25
  -1 -14   7 1815.42 398.455  19
  -1 -14   7 1669.69 278.499  30
  -1 -14   7 1583.81 243.554  25
  -1 -14   7 1174.19 185.857  38
  -1 -14   6 3270.28 438.638  36
  -1 -14   6 3853.97 397.547  30
   1 -14  -6 2669.19 454.439  21
   1 -14  -6 2807.58 296.409  28
  -1 -14   6 2853.47 544.498  19
  -1 -14   6 3696.41 471.056  31
   1 -14  -6 4018.17 495.143  18
  -1 -14   6 3008.93 284.263  38
  -1 -14   5 2511.73 356.720  30
   1 -14  -5 2061.33 253.535  23
  -1 -14   5 2217.72 541.732  19
   1 -14  -5 2204.22 305.297  28
  -1 -14   5 1616.61 379.012  36
   1 -14  -5 1751.47 437.197  21
  -1 -14   5 2376.06 414.898  31
  -1 -14   4 13027.6 899.170  19
   1 -14  -4 14509.3 672.647  23
   1 -14  -4 12912.5 829.645  21
  -1 -14   4 13252.5 664.024  30
  -1 -14   4 13561.0 729.324  26
  -1 -14   4 13054.8 791.716  24
  -1 -14   4 13162.3 721.919  36
   1 -14  -4 14943.0 709.710  28
  -1 -14   3 13554.2 630.843  30
  -1 -14   3 18375.0 963.229  19
   1 -14  -3 14390.2 625.118  26
  -1 -14   3 13231.3 698.770  26
   1 -14  -3 17713.0 1036.84  18
   1 -14  -3 14584.1 686.576  23
  -1 -14   3 15164.1 785.780  24
   1 -14  -3 15358.3 709.071  28
   1 -14  -3 14498.0 820.084  21
  -1 -14   3 15352.2 722.773  36
   1 -14  -2 36482.1 1316.69  21
  -1 -14   2 30856.5 1117.52  26
   1 -14  -2 37446.8 1192.33  28
  -1 -14   2 30331.7 1075.62  23
  -1 -14   2 34654.5 1230.04  24
  -1 -14   2 37393.4 1384.96  19
   1 -14  -2 36654.4 1534.27  18
   1 -14  -2 34509.4 1175.54  23
   1 -14  -2 33165.0 1105.86  26
   1 -14  -1 62127.0 1940.41  19
  -1 -14   1 51989.3 1588.12  26
   1 -14  -1 56668.6 1805.49  21
  -1 -14   1 55810.6 1641.98  23
   1 -14  -1 57346.5 1677.72  28
  -1 -14   1 58526.0 1723.78  24
  -1 -14   1 57275.2 1844.72  19
  -1 -14   1 53953.1 1640.54  28
   1 -14  -1 57971.0 1644.39  26
   1 -14   0 5262.42 389.326  26
   1 -14   0 4847.54 449.840  21
  -1 -14   0 6846.47 572.947  18
  -1 -14   0 5052.74 388.101  23
  -1 -14   0 5832.91 382.335  28
   1 -14   0 5628.63 543.337  19
   1 -14   0 5048.59 382.043  28
  -1 -14   0 6216.63 496.375  19
   1 -14   0 4254.14 377.715  23
   1 -14   1 25294.1 1071.58  21
   1 -14   1 25564.6 959.774  26
   1 -14   1 23924.8 886.155  30
   1 -14   1 28040.9 1218.83  19
   1 -14   1 25023.3 989.620  24
  -1 -14  -1 24190.6 953.842  23
  -1 -14  -1 26162.3 899.841  28
  -1 -14  -2 64185.5 1985.16  18
   1 -14   2 50889.4 1592.03  26
   1 -14   2 44059.7 1537.97  28
  -1 -14  -2 54847.2 1619.54  23
   1 -14   2 46021.9 1520.26  30
   1 -14   2 48196.7 1624.87  24
   1 -14   2 56992.0 1967.60  19
   1 -14   3 14423.2 797.419  24
   1 -14   3 13301.2 637.728  38
   1 -14   3 14924.7 728.164  30
  -1 -14  -3 15322.4 724.720  23
  -1 -14  -4 5267.67 554.608  18
   1 -14   4 4454.70 459.157  26
   1 -14   4 3898.44 371.976  38
  -1 -14  -4 3684.02 378.627  33
  -1 -14  -4 4866.29 410.476  23
   1 -14   4 4790.98 444.137  30
  -1 -14  -5 3895.45 336.420  23
   1 -14   5 3732.77 359.549  38
   1 -14   5 4432.56 428.533  30
   1 -14   6 106.880 193.272  38
   1 -14   6 714.848 252.725  31
   1 -14   6 468.393 266.644  36
   1 -14   7 1884.05 169.822  38
   1 -14   7 1947.73 191.673  30
   1 -14   7 1409.53 166.830  31
  -1 -13   8 161.812 227.933  19
  -1 -13   8 12.2698 167.009  31
  -1 -13   8 11.7129 103.239  38
  -1 -13   8 73.6600 141.084  25
  -1 -13   7 1956.91 251.547  38
  -1 -13   7 1671.15 445.866  19
  -1 -13   7 2144.89 334.530  30
   1 -13  -7 2021.48 220.777  28
  -1 -13   6 1290.21 332.730  30
   1 -13  -6 1306.85 392.011  18
   1 -13  -6 606.036 213.686  28
  -1 -13   6 601.062 330.622  36
  -1 -13   6 903.373 236.390  38
   1 -13  -6 787.161 380.128  21
  -1 -13   6 1207.91 518.206  19
   1 -13  -5 15663.8 927.779  18
  -1 -13   5 15081.6 721.672  30
  -1 -13   5 14257.5 779.171  31
   1 -13  -5 12887.0 866.326  21
   1 -13  -5 14208.5 629.053  23
  -1 -13   5 12996.8 612.386  38
   1 -13  -5 13826.3 693.260  28
  -1 -13   5 13692.2 771.575  36
  -1 -13   5 14693.5 987.849  19
   1 -13  -4 4819.32 375.808  23
   1 -13  -4 4547.07 394.336  28
   1 -13  -4 4929.26 535.157  21
  -1 -13   4 4836.12 443.021  26
  -1 -13   4 4249.41 471.823  24
  -1 -13   4 5493.41 422.229  30
  -1 -13   4 5063.20 597.124  19
  -1 -13   4 4932.98 444.737  36
   1 -13  -3 381.628 160.936  26
   1 -13  -3 510.750 194.126  23
  -1 -13   3 347.050 185.903  30
   1 -13  -3 320.977 190.738  28
  -1 -13   3 251.504 248.520  24
   1 -13  -3 259.491 257.949  21
  -1 -13   3 520.716 338.435  19
  -1 -13   3 530.350 226.030  26
  -1 -13   2 26599.2 1081.03  19
   1 -13  -2 24439.6 888.151  28
  -1 -13   2 21686.0 902.820  24
  -1 -13   2 21398.3 804.084  23
   1 -13  -2 23500.9 840.235  26
   1 -13  -2 24852.7 898.701  23
   1 -13  -2 27188.1 1042.30  21
  -1 -13   2 22260.4 864.829  28
  -1 -13   2 21296.2 839.911  26
   1 -13  -1 494.068 176.448  26
   1 -13  -1 710.638 199.336  28
  -1 -13   1 451.930 185.820  24
   1 -13  -1 561.002 239.490  21
  -1 -13   1 340.033 162.654  28
  -1 -13   1 466.619 158.849  26
  -1 -13   1 415.322 170.779  23
   1 -13  -1 392.642 281.705  19
  -1 -13   1 611.124 268.218  19
  -1 -13   0 29030.0 1052.25  19
   1 -13   0 26059.5 915.221  28
  -1 -13   0 26257.2 917.341  23
   1 -13   0 26681.8 911.455  26
   1 -13   0 27572.3 1046.22  21
  -1 -13   0 23874.1 870.952  28
   1 -13   0 28579.7 1138.64  19
  -1 -13  -1 15586.7 674.265  23
   1 -13   1 13632.4 667.437  24
   1 -13   1 14683.4 845.319  19
  -1 -13  -1 15995.5 622.218  28
   1 -13   1 14015.1 611.573  30
   1 -13   1 14480.2 656.334  26
  -1 -13  -1 16758.2 883.182  18
  -1 -13  -2 270.612 293.022  18
   1 -13   2 367.291 221.756  26
  -1 -13  -2 271.660 200.316  23
   1 -13   2 305.043 195.288  28
   1 -13   2 452.617 223.723  24
   1 -13   2 70.8624 354.039  19
   1 -13   2 467.938 210.597  30
  -1 -13  -3 3264.81 353.041  33
   1 -13   3 3619.00 334.285  38
   1 -13   3 3274.60 410.420  24
  -1 -13  -3 3620.45 364.048  23
   1 -13   3 3300.26 363.356  30
  -1 -13  -3 3930.50 476.375  18
  -1 -13  -4 5401.46 435.589  33
   1 -13   4 5933.29 496.868  26
  -1 -13  -4 5196.09 423.753  23
  -1 -13  -4 6679.82 600.431  18
   1 -13   4 5320.80 428.988  38
   1 -13   4 5217.53 458.032  30
  -1 -13  -5 28677.8 996.492  23
   1 -13   5 28823.4 1143.83  36
   1 -13   5 26655.6 1031.79  38
  -1 -13  -5 28833.8 1033.88  33
   1 -13   6 1935.59 351.153  36
  -1 -13  -6 2406.43 278.889  33
   1 -13   6 2106.15 299.212  38
   1 -13   6 2258.90 319.148  31
   1 -13   6 2558.00 340.034  30
   1 -13   7 4430.32 287.694  38
   1 -13   7 3835.65 275.511  31
   1 -13   7 4138.77 424.539  19
   1 -13   7 4757.36 296.147  30
  -1 -12   8 5376.53 307.164  38
  -1 -12   8 4775.15 352.836  31
  -1 -12   8 5106.87 340.419  25
  -1 -12   8 4273.90 443.611  19
  -1 -12   7 2586.20 514.291  19
  -1 -12   7 3055.74 418.055  31
  -1 -12   7 2961.73 310.841  38
   1 -12  -7 2809.20 267.647  28
   1 -12  -6 13639.1 919.862  21
   1 -12  -6 13947.7 685.597  28
   1 -12  -6 16414.0 932.893  18
  -1 -12   6 15994.8 763.598  30
  -1 -12   6 14333.9 806.345  36
  -1 -12   6 14988.8 685.291  38
   1 -12  -5 49024.7 1904.39  21
  -1 -12   5 51966.4 1745.83  36
  -1 -12   5 58896.4 1801.28  31
   1 -12  -5 52963.3 1668.49  28
  -1 -12   5 56656.3 1698.91  30
  -1 -12   5 50922.7 1590.07  38
   1 -12  -5 62330.4 2033.27  18
  -1 -12   4 16216.0 721.572  30
   1 -12  -4 16625.4 755.823  28
  -1 -12   4 13877.3 790.686  24
  -1 -12   4 16517.3 964.384  19
  -1 -12   4 15743.2 759.948  26
   1 -12  -4 18119.5 937.327  21
   1 -12  -4 18000.6 716.760  23
  -1 -12   4 16338.2 772.971  36
   1 -12  -3 4540.89 320.366  26
   1 -12  -3 4989.83 357.209  23
  -1 -12   3 5414.41 438.945  24
  -1 -12   3 4784.34 388.903  26
  -1 -12   3 5242.42 357.669  30
   1 -12  -3 4704.47 455.031  21
   1 -12  -3 5358.42 391.485  28
  -1 -12   3 5425.24 527.011  19
   1 -12  -2 21744.0 773.040  26
  -1 -12   2 20381.4 796.243  28
   1 -12  -2 21288.0 804.823  23
  -1 -12   2 18833.6 729.274  23
  -1 -12   2 23901.5 876.704  24
  -1 -12   2 22939.5 987.302  19
   1 -12  -2 23911.2 835.858  28
  -1 -12   2 20632.7 787.809  26
   1 -12  -2 23685.6 942.299  21
   1 -12  -1 17001.6 753.882  21
  -1 -12   1 16522.4 765.282  19
   1 -12  -1 14957.5 769.816  19
  -1 -12   1 15338.4 622.838  28
   1 -12  -1 14914.8 625.137  28
   1 -12  -1 14993.2 608.760  26
  -1 -12   1 16844.0 672.258  24
  -1 -12   1 14259.3 605.027  23
  -1 -12   0 80358.8 2090.35  19
   1 -12   0 60377.2 1954.44   6
   1 -12   0 62674.8 1896.87  23
   1 -12   0 71057.5 1911.06  26
   1 -12   0 66345.1 1907.85  28
   1 -12   0 75107.3 2165.71  19
   1 -12   0 74500.4 2083.40  21
  -1 -12   0 72657.8 1924.53  23
  -1 -12   0 76289.7 1938.76   6
  -1 -12   0 70804.9 1893.35  28
  -1 -12  -1 25010.8 876.408  23
   1 -12   1 22464.8 808.461  30
   1 -12   1 23740.5 1059.72  19
   1 -12   1 21857.4 833.977  26
  -1 -12  -1 23218.9 797.256  28
   1 -12   1 23404.2 870.036  24
  -1 -12  -2 627.043 279.594  18
   1 -12   2 575.528 201.034  30
  -1 -12  -2 746.401 210.621  23
   1 -12   2 409.802 188.877  28
   1 -12   2 458.329 222.735  24
   1 -12   2 573.464 212.756  26
  -1 -12  -2 437.157 198.239  33
   1 -12   2 385.876 158.913  38
   1 -12   3 4422.73 367.231  38
  -1 -12  -3 5147.31 401.051  33
   1 -12   3 4404.71 399.414  30
   1 -12   3 4527.45 442.883  24
  -1 -12  -3 5232.46 407.996  23
  -1 -12  -4 3685.46 489.570  18
  -1 -12  -4 3753.89 372.025  33
   1 -12   4 2964.27 347.032  38
  -1 -12  -4 3298.15 341.797  23
   1 -12   4 3202.49 385.158  26
   1 -12   4 3801.69 390.084  30
   1 -12   5 1478.85 379.924  36
  -1 -12  -5 1845.84 310.976  33
   1 -12   5 1588.90 307.666  38
  -1 -12  -5 2073.42 265.679  23
   1 -12   6 5914.07 452.606  30
   1 -12   6 5084.88 421.309  38
  -1 -12  -6 5639.62 404.375  33
   1 -12   6 4919.27 467.028  36
   1 -12   6 5715.12 451.895  31
   1 -12   7 1962.52 234.661  30
   1 -12   7 1571.91 379.996  19
   1 -12   7 1935.47 234.864  31
   1 -12   7 1828.18 240.805  38
  -1 -11   8 1200.02 355.497  19
  -1 -11   8 1606.50 230.319  38
  -1 -11   8 1090.38 257.770  31
  -1 -11   7 4644.45 484.800  31
  -1 -11   7 4691.49 388.032  38
   1 -11  -7 4141.58 339.284  28
  -1 -11   6 3255.31 359.516  38
   1 -11  -6 2853.24 522.610  21
  -1 -11   6 2959.71 449.018  36
   1 -11  -6 3248.44 471.123  18
  -1 -11   6 2915.48 390.837  30
   1 -11  -6 3056.06 344.643  28
   1 -11  -5 85.9503 198.019  28
  -1 -11   5 36.8756 270.155  36
   1 -11  -5 346.852 313.338  18
  -1 -11   5 111.446 195.069  38
  -1 -11   5 12.3877 282.630  31
   1 -11  -5 277.563 360.412  21
  -1 -11   5 74.2591 229.944  30
  -1 -11   4 14478.9 616.431  38
  -1 -11   4 13791.9 754.800  24
   1 -11  -4 15140.3 636.078  23
  -1 -11   4 15327.5 683.033  30
   1 -11  -4 14199.5 672.685  28
   1 -11  -4 15272.0 849.896  21
   1 -11  -4 17207.4 924.195  18
  -1 -11   4 15621.4 725.032  26
  -1 -11   4 14781.1 710.884  36
   1 -11  -3 841.847 166.111  26
   1 -11  -3 776.530 180.242  23
  -1 -11   3 1129.99 205.140  30
   1 -11  -3 919.332 197.566  28
   1 -11  -3 1073.26 272.708  21
  -1 -11   3 1310.40 235.786  26
  -1 -11   3 1289.18 343.246  19
  -1 -11   3 1428.29 267.966  24
  -1 -11   2 27319.5 1001.88   7
   1 -11  -2 33983.4 1046.00  28
   1 -11  -2 36656.0 1188.39  21
  -1 -11   2 30983.1 1203.94  19
   1 -11  -2 32269.3 1019.86  23
  -1 -11   2 32672.9 1068.45  24
  -1 -11   2 31288.8 1011.01  26
  -1 -11   2 31008.2 1022.57  28
   1 -11  -1 20642.7 815.241  21
   1 -11  -1 19488.4 837.787  19
  -1 -11   1 18205.7 622.351   6
   1 -11  -1 17485.2 790.379   6
  -1 -11   1 18912.5 801.073  19
  -1 -11   0 18795.8 660.672   6
   1 -11   0 13417.8 650.923   6
   1 -11   0 15026.9 704.516  21
  -1 -11   0 17467.4 717.395  19
   1 -11   0 15579.4 765.448  19
  -1 -11  -1 6746.50 398.041   6
   1 -11   1 5283.25 361.341  24
  -1 -11  -1 5586.89 347.506  33
   1 -11   1 5727.78 362.449  26
   1 -11   1 5892.04 357.094  28
   1 -11   2 48955.9 1547.62  24
  -1 -11  -2 53784.2 1542.65  23
   1 -11   2 51170.1 1509.06  30
  -1 -11  -2 50832.6 1492.03  33
   1 -11   2 48072.6 1492.13  28
   1 -11   2 50293.1 1472.70  38
  -1 -11  -3 9248.45 633.520  18
   1 -11   3 7508.01 482.883  30
  -1 -11  -3 9273.61 499.584  33
   1 -11   3 7795.43 472.644  38
   1 -11   3 7545.33 524.545  24
   1 -11   3 7577.70 481.845  26
  -1 -11  -3 8831.40 495.983  23
   1 -11   4 3196.57 397.945  36
  -1 -11  -4 3716.36 468.056  18
   1 -11   4 3312.39 375.213  26
   1 -11   4 3234.06 361.096  38
   1 -11   4 3105.10 366.383  30
  -1 -11  -4 3617.46 335.355  23
  -1 -11  -4 3256.37 351.932  33
   1 -11   5 8034.22 596.550  36
   1 -11   5 7674.18 530.284  38
  -1 -11  -5 7324.97 449.557  23
  -1 -11  -5 8326.24 518.950  33
   1 -11   5 8232.22 561.665  30
   1 -11   6 5843.79 501.528  36
  -1 -11  -6 5619.93 413.542  33
   1 -11   6 6294.48 746.842  19
   1 -11   6 5548.84 464.465  31
   1 -11   6 5803.71 463.364  38
   1 -11   6 5966.99 445.464  30
  -1 -11  -7 1219.03 208.587  33
   1 -11   7 833.653 372.409  19
   1 -11   7 1054.09 208.314  31
   1 -11   7 1170.52 244.329  38
   1 -11   7 1146.03 216.740  30
   1 -11   8 3223.91 190.013  38
   1 -11   8 2914.89 248.081  19
  -1 -10   9 7470.04 335.443  25
   1 -10  -9 10008.3 360.956  13
  -1 -10   9 6740.34 396.709  19
  -1 -10   9 9051.90 335.139  38
  -1 -10   8 1556.18 287.231  31
  -1 -10   8 1292.01 246.161  38
  -1 -10   7 4674.76 411.830  38
  -1 -10   7 4405.11 476.669  31
   1 -10  -7 3972.56 348.210  28
  -1 -10   7 4926.21 449.216  30
  -1 -10   6 4765.00 421.364  38
  -1 -10   6 4058.92 493.824  36
   1 -10  -6 3677.43 569.071  21
   1 -10  -6 4456.73 401.072  28
  -1 -10   6 4405.66 694.452  14
  -1 -10   5 6726.65 521.250  36
   1 -10  -5 5330.44 586.554  21
   1 -10  -5 6954.46 596.468  18
  -1 -10   5 6490.09 457.009  30
  -1 -10   5 6367.14 701.765  14
   1 -10  -5 6549.93 452.653  28
  -1 -10   5 5910.31 424.459  38
   1 -10  -4 584.640 157.509  23
  -1 -10   4 630.184 223.634  36
  -1 -10   4 679.986 258.810  24
  -1 -10   4 580.070 171.323  38
   1 -10  -4 602.504 282.359  21
   1 -10  -4 468.665 295.241  18
   1 -10  -4 708.479 201.565  28
  -1 -10   4 511.494 355.656  14
  -1 -10   4 639.857 206.715  30
  -1 -10   4 640.520 229.656  26
  -1 -10   3 15261.7 607.606  30
   1 -10  -3 16519.5 867.751  18
   1 -10  -3 16698.9 660.407  28
  -1 -10   3 15098.1 639.755  26
   1 -10  -3 16299.6 758.474  21
   1 -10  -3 15986.7 697.704   8
  -1 -10   3 14659.2 670.512  24
   1 -10  -3 14606.6 590.496  23
  -1 -10   2 166.635 135.389   7
   1 -10  -2 403.043 187.805   6
  -1 -10   2 435.720 232.040  19
   1 -10  -2 266.763 178.519  21
   1 -10  -1 56146.2 1690.29   6
   1 -10  -1 54156.3 1693.76  19
  -1 -10   1 59469.7 1499.29   6
   1 -10   0 25463.3 841.042   6
  -1 -10   0 30275.5 818.750   6
   1 -10   1 4107.94 250.003   7
   1 -10   1 4574.93 313.646   6
  -1 -10  -1 6987.94 382.396   6
  -1 -10  -1 8149.78 517.773  18
   1 -10   2 17611.6 664.827  30
  -1 -10  -2 19870.5 871.680  18
  -1 -10  -2 17166.5 670.581  23
  -1 -10  -2 18435.5 661.954  33
   1 -10   2 16567.3 677.305  24
   1 -10   2 15894.4 639.848  28
  -1 -10  -3 24544.3 1063.87  21
   1 -10   3 27370.1 987.402  30
  -1 -10  -3 31336.1 1008.36  33
   1 -10   3 23828.0 1007.70  24
   1 -10   3 27972.0 985.806  38
  -1 -10  -3 34184.4 1241.92  18
   1 -10   3 28735.0 1001.38  26
  -1 -10  -3 31068.3 1015.56  23
  -1 -10  -4 10477.0 560.321  33
   1 -10   4 9982.66 596.446  36
   1 -10   4 9555.10 562.520  26
  -1 -10  -4 10060.8 538.007  23
   1 -10   4 9832.98 575.092  38
  -1 -10  -4 10685.6 702.886  18
  -1 -10  -5 10616.8 599.983  33
   1 -10   5 10367.4 615.339  30
  -1 -10  -5 10422.2 530.463  23
   1 -10   5 11581.3 643.862  38
   1 -10   5 10507.2 664.277  36
   1 -10   6 5007.39 422.267  30
   1 -10   6 4493.07 469.327  36
   1 -10   6 4565.43 418.282  31
  -1 -10  -6 5026.71 407.641  33
   1 -10   6 4890.44 456.301  38
  -1 -10  -7 2266.14 254.474  33
   1 -10   7 2041.70 300.228  38
   1 -10   7 2055.92 259.986  30
   1 -10   7 1549.39 239.052  31
   1 -10   7 2058.17 467.582  19
   1 -10   8 1655.23 240.656  19
   1 -10   8 1957.36 184.688  38
  -1  -9   9 2161.92 188.555  38
  -1  -9   9 1345.46 246.117  19
   1  -9  -8 4367.62 276.361   3
  -1  -9   8 4081.42 358.576  38
  -1  -9   8 4252.01 387.955  31
  -1  -9   7 17925.5 866.373  31
  -1  -9   7 19346.2 820.267  38
  -1  -9   7 19297.3 818.370  30
   1  -9  -7 16374.1 748.408  28
   1  -9  -7 17161.3 695.862   3
  -1  -9   7 17019.8 695.448   5
   1  -9  -6 32274.4 1145.80  28
   1  -9  -6 29926.9 1034.01   3
   1  -9  -6 29855.7 1416.64  21
  -1  -9   6 29811.1 1024.68   5
  -1  -9   6 32032.2 1142.71  38
  -1  -9   6 31173.9 1235.24  36
  -1  -9   6 32648.7 1234.24  31
  -1  -9   5 1498.21 448.783  14
  -1  -9   5 1655.94 316.524  36
   1  -9  -5 1419.69 386.799  21
  -1  -9   5 1694.76 285.165  30
   1  -9  -5 2003.78 370.763  18
  -1  -9   5 1375.23 259.085  38
   1  -9  -5 1499.62 254.813  28
  -1  -9   4 11445.4 636.875  24
  -1  -9   4 11807.5 591.131  26
   1  -9  -4 11507.0 696.958  21
  -1  -9   4 12007.7 566.096  30
  -1  -9   4 12211.3 785.527  14
  -1  -9   4 12679.6 614.678  36
  -1  -9   4 11753.8 537.781  38
   1  -9  -4 13135.1 608.379  28
   1  -9  -3 3281.49 401.259  18
   1  -9  -3 2825.60 329.864  21
  -1  -9   3 2913.51 401.673  14
   1  -9  -3 3107.57 293.169   8
  -1  -9   3 2531.77 265.161   7
  -1  -9   3 2593.37 277.747  24
   1  -9  -2 251.454 87.1463   2
   1  -9  -2 731.326 212.494   6
  -1  -9   2 551.916 160.841   7
  -1  -9   1 12661.8 447.926   6
   1  -9  -1 13331.5 606.195   6
   1  -9   0 1145.12 120.566   7
   1  -9   0 1571.33 235.845   6
   1  -9   1 234361. 6103.72   7
   1  -9   1 238964. 6170.53   6
  -1  -9  -2 136723. 3201.92   6
  -1  -9  -2 146125. 3401.00   8
  -1  -9  -2 147127. 3426.38  18
  -1  -9  -3 4689.53 434.798  18
  -1  -9  -3 3714.27 379.954  21
   1  -9   3 4068.42 354.512  24
   1  -9   3 3550.11 318.286  30
   1  -9   3 4294.41 336.875  38
  -1  -9  -3 4346.60 329.342  23
  -1  -9  -3 4008.18 328.114  33
   1  -9   3 3910.95 323.892  26
   1  -9   4 1680.67 425.358  14
   1  -9   4 2677.55 316.146  30
   1  -9   4 2486.10 315.527  38
  -1  -9  -4 2946.57 318.126  33
   1  -9   4 2630.40 311.506  26
  -1  -9  -4 2594.40 278.645  23
   1  -9   4 2447.95 329.651  36
  -1  -9  -4 2526.66 393.591  18
   1  -9   5 32186.2 1209.18  36
   1  -9   5 31597.4 1051.75   5
  -1  -9  -5 33109.0 1162.26  33
   1  -9   5 32917.6 1189.46  38
   1  -9   5 32980.8 1159.06  30
  -1  -9  -5 32248.7 1066.31  23
  -1  -9  -5 29369.6 1036.65   3
   1  -9   6 1038.65 276.680  31
   1  -9   6 1099.48 325.706  38
  -1  -9  -6 1236.90 288.574  33
   1  -9   6 1481.11 298.811  30
   1  -9   6 1359.73 335.426  36
   1  -9   6 1234.74 222.818   5
  -1  -9  -6 1412.19 225.640   3
  -1  -9  -7 2228.43 224.390   3
  -1  -9  -7 1990.49 265.152  33
   1  -9   7 1702.55 247.594  31
   1  -9   7 1816.36 305.849  38
   1  -9   7 1753.75 247.576  30
   1  -9   7 1729.91 209.448   5
   1  -9   8 2462.40 221.837  38
   1  -9   8 1901.03 291.491  19
  -1  -8   9 2005.29 307.045  19
  -1  -8   9 2601.19 230.536  25
  -1  -8   9 2532.72 219.656  38
  -1  -8   8 12892.6 542.363   5
   1  -8  -8 10074.6 501.069  28
  -1  -8   8 14413.3 647.617  38
  -1  -8   8 11572.0 620.155  31
   1  -8  -8 12672.9 533.942   3
  -1  -8   7 3703.45 342.276   5
   1  -8  -7 3909.98 338.201   3
  -1  -8   7 3942.07 416.052  38
  -1  -8   7 3616.46 399.636  30
   1  -8  -7 3542.90 351.507  28
  -1  -8   7 3829.90 454.079  31
  -1  -8   6 1897.80 362.230  36
   1  -8  -6 2303.40 481.371  21
  -1  -8   6 2183.82 375.906  31
  -1  -8   6 2262.40 276.881   5
  -1  -8   6 2639.21 348.724  38
   1  -8  -6 2129.88 270.428   3
   1  -8  -6 2319.23 314.410  28
  -1  -8   6 2376.90 335.833  30
  -1  -8   5 8276.76 443.935   5
  -1  -8   5 9825.97 529.350  38
   1  -8  -5 8147.29 660.645  21
   1  -8  -5 10986.3 681.748  18
   1  -8  -5 10263.1 553.812  28
   1  -8  -5 9639.33 475.947   3
  -1  -8   5 8163.50 731.366  14
  -1  -8   5 9622.19 580.075  36
  -1  -8   4 28840.2 951.502  30
   1  -8  -4 24481.1 1000.39   8
   1  -8  -4 26793.0 1113.43  21
  -1  -8   4 27040.2 1177.72  14
  -1  -8   4 28388.3 929.375  38
  -1  -8   4 28110.9 990.340  36
   1  -8  -4 27165.0 964.018  28
  -1  -8   4 28383.9 979.956  26
   1  -8  -3 52578.0 1506.25   6
   1  -8  -3 43175.2 1440.52  21
   1  -8  -3 50015.6 1345.46   2
  -1  -8   3 45941.7 1524.71  14
   1  -8  -3 55156.2 1652.07  18
  -1  -8   3 43342.1 1244.55   1
   1  -8  -3 47508.6 1396.33   8
  -1  -8   3 42047.1 1356.97   7
   1  -8  -2 18526.6 719.408   6
  -1  -8   2 14083.5 468.504   1
   1  -8  -2 16203.5 530.249   2
   1  -8  -2 18060.3 617.420   8
  -1  -8   2 14701.0 579.614   7
   1  -8  -1 70438.3 1667.53   6
  -1  -8   1 73177.0 1469.08   6
  -1  -8   0 58794.5 1486.68   6
   1  -8   0 54542.5 1364.65   7
   1  -8   0 54918.3 1541.96   6
   1  -8   1 77414.3 1832.52   1
  -1  -8  -1 82305.7 1836.31   2
   1  -8   2 9750.05 408.739   6
  -1  -8  -2 12474.4 534.538   6
  -1  -8  -2 12488.9 612.639   8
   1  -8   2 10161.0 400.595   1
  -1  -8  -2 10695.0 403.702   2
  -1  -8  -2 13019.6 642.677  18
   1  -8   3 529.185 184.796  38
  -1  -8  -3 369.976 151.768  23
  -1  -8  -3 350.488 215.887  21
   1  -8   3 504.527 172.422  26
  -1  -8  -3 350.474 209.520  18
   1  -8   3 399.926 186.427  24
  -1  -8  -3 376.731 168.483  33
   1  -8   3 599.514 298.915  14
   1  -8   4 15663.8 940.953  14
  -1  -8  -4 22586.3 986.799  18
  -1  -8  -4 19509.5 789.208  33
   1  -8   4 19395.0 795.890  38
   1  -8   4 18891.2 808.749  36
  -1  -8  -4 18464.7 730.966  23
  -1  -8  -4 18074.2 694.218   3
   1  -8   4 18705.4 764.793  30
   1  -8   4 17490.0 746.395  26
   1  -8   5 11302.1 880.027  14
   1  -8   5 14765.1 725.492  38
   1  -8   5 14088.7 726.265  36
   1  -8   5 14604.5 684.605  30
   1  -8   5 15387.6 720.405  31
  -1  -8  -5 11896.6 571.372  23
  -1  -8  -5 13323.5 689.708  33
   1  -8   5 13948.7 626.160   5
  -1  -8  -5 12637.5 601.978   3
   1  -8   6 2323.93 528.078  14
   1  -8   6 3087.23 351.911  31
  -1  -8  -6 3199.60 373.323  33
   1  -8   6 2623.09 386.490  36
   1  -8   6 3118.88 349.570  30
   1  -8   6 3465.91 418.460  38
   1  -8   6 3091.88 320.343   5
  -1  -8  -6 3357.05 317.883   3
   1  -8   7 1167.40 221.435  31
   1  -8   7 1830.08 257.093  30
  -1  -8  -7 1442.52 257.445  33
   1  -8   7 1665.19 235.189   5
  -1  -8  -7 1834.06 227.798   3
   1  -8   7 1577.79 331.600  38
  -1  -8  -8 2619.51 187.148  33
   1  -8   8 2288.22 336.746  19
  -1  -8  -8 2990.95 235.965  13
  -1  -7   9 4011.26 233.870   5
   1  -7  -9 4406.96 236.064   3
  -1  -7   9 3836.20 280.498  38
  -1  -7   9 4099.25 292.908  25
   1  -7  -8 436.445 188.432   3
  -1  -7   8 311.833 204.688   5
  -1  -7   8 476.019 253.110  31
  -1  -7   8 451.052 280.633  38
   1  -7  -8 346.552 177.119  28
  -1  -7   7 9515.41 564.178  30
  -1  -7   7 9389.29 587.281  38
  -1  -7   7 9244.85 534.219   5
   1  -7  -7 8960.82 553.968  28
  -1  -7   7 8263.11 592.775  31
   1  -7  -7 9534.39 528.876   3
  -1  -7   6 5842.80 451.261  30
   1  -7  -6 6179.21 419.535   3
  -1  -7   6 5800.76 408.668   5
  -1  -7   6 5942.51 496.220  31
  -1  -7   6 6291.10 476.096  38
  -1  -7   6 5689.26 508.880  36
   1  -7  -6 6087.98 668.694  21
  -1  -7   5 7468.31 640.531  14
  -1  -7   5 8092.39 474.716  38
   1  -7  -5 8335.38 441.497   3
  -1  -7   5 6479.12 448.569  30
  -1  -7   5 6837.54 405.577   5
   1  -7  -5 7855.78 633.604  21
  -1  -7   5 8400.36 520.056  31
  -1  -7   5 7207.04 504.767  36
   1  -7  -5 8037.13 575.283  18
   1  -7  -4 46760.3 1386.66   2
  -1  -7   4 44128.5 1538.88  14
   1  -7  -4 51974.1 1557.46  18
  -1  -7   4 41091.9 1313.94  26
   1  -7  -4 46707.7 1397.49   6
   1  -7  -4 42051.4 1486.94  21
   1  -7  -4 39861.1 1360.59   8
  -1  -7   4 40526.3 1264.05   1
  -1  -7   4 45892.7 1356.17  36
  -1  -7   4 43101.6 1292.34  30
  -1  -7   4 44534.0 1291.58  38
   1  -7  -3 38118.8 1108.94   2
   1  -7  -3 38606.1 1122.39   8
   1  -7  -3 38138.0 1184.09   6
  -1  -7   3 33207.9 989.074   1
  -1  -7   3 31092.9 1062.43   7
   1  -7  -2 53216.1 1485.33   2
  -1  -7   2 55271.9 1426.57   1
   1  -7  -2 57799.4 1634.15   6
  -1  -7   2 56128.0 1530.10   7
   1  -7  -2 58450.2 1399.83   1
   1  -7  -1 122863. 2876.88   2
   1  -7  -1 122826. 2876.80   1
   1  -7  -1 139979. 3168.72   6
  -1  -7   1 134925. 2969.46   6
  -1  -7   1 127429. 3023.56   7
  -1  -7   0 262984. 5712.54   6
   1  -7   0 238514. 5579.79   2
   1  -7   1 58264.8 1667.78   2
  -1  -7  -1 67519.3 1590.55   2
   1  -7   1 62477.4 1583.59   1
  -1  -7  -1 72358.0 1754.01   6
   1  -7   2 6902.94 320.198   1
  -1  -7  -2 7560.22 331.250   2
   1  -7   3 23569.5 838.310  30
  -1  -7  -3 21106.6 938.844  21
  -1  -7  -3 28497.9 871.600   2
  -1  -7  -3 26494.0 869.917  33
  -1  -7  -3 28171.7 906.787   6
   1  -7   3 20454.5 980.683  14
   1  -7   3 22508.5 838.826  38
  -1  -7  -3 25752.3 995.146  18
   1  -7   3 24172.1 788.764   1
  -1  -7  -4 13629.1 583.885   3
   1  -7   4 13495.9 614.073  26
   1  -7   4 13601.4 594.443   5
  -1  -7  -4 14384.7 661.110  33
   1  -7   4 14478.6 660.202  38
   1  -7   4 13697.4 626.643  30
   1  -7   4 13978.2 663.190  36
  -1  -7  -4 15279.7 620.818  23
   1  -7   4 12131.8 800.936  14
   1  -7   5 67972.6 1966.32   5
   1  -7   5 71667.9 2064.90  38
   1  -7   5 69388.0 1993.36  30
  -1  -7  -5 71755.2 2051.88  33
   1  -7   5 69322.7 2061.98  36
   1  -7   5 70437.1 2024.98  31
  -1  -7  -5 71761.5 1972.87   3
   1  -7   5 62546.8 2284.37  14
   1  -7   6 9316.13 611.349  36
   1  -7   6 9961.02 551.103   5
   1  -7   6 9583.90 544.317  30
  -1  -7  -6 10594.8 555.447   3
  -1  -7  -6 10204.3 601.751  33
   1  -7   6 8826.81 544.101  31
   1  -7   7 1457.21 250.363   5
  -1  -7  -7 1956.19 288.720  33
   1  -7   7 1613.31 243.975  30
  -1  -7  -7 1785.05 252.247   3
   1  -7   7 1520.25 234.529  31
  -1  -7  -8 115.601 162.876  13
  -1  -7  -8 42.4690 114.090   3
   1  -7   8-123.148 263.411  19
   1  -7   8-4.45792 117.697   5
  -1  -7  -8 142.511 131.913  33
   1  -7   8 193.231 171.518  38
   1  -6  -9 1218.75 168.310   3
  -1  -6   9 1101.81 170.855   5
  -1  -6   8 8605.13 539.077  31
  -1  -6   8 9346.26 562.478  38
  -1  -6   8 8951.36 509.128   5
   1  -6  -8 7862.67 465.574  28
   1  -6  -8 9664.68 505.541   3
  -1  -6   7 8772.77 566.457  38
   1  -6  -7 7854.32 502.611   3
  -1  -6   7 7392.09 571.360  31
  -1  -6   7 8227.61 526.717  30
  -1  -6   7 8182.84 521.848   5
   1  -6  -6 18093.5 746.748  33
   1  -6  -6 19564.0 1107.28  21
  -1  -6   6 22075.6 873.881  38
  -1  -6   6 19610.4 817.812  30
  -1  -6   6 19472.6 796.135   5
   1  -6  -6 20698.7 821.025   3
  -1  -6   6 19189.7 882.681  31
  -1  -6   5 12344.3 796.453  14
   1  -6  -5 12915.8 579.429   3
  -1  -6   5 11528.4 543.865   5
  -1  -6   5 12370.5 579.724  30
  -1  -6   5 13136.1 641.754  31
  -1  -6   5 12076.0 591.634  38
  -1  -6   5 11731.8 631.377  36
   1  -6  -5 14425.7 738.134  18
  -1  -6   5 11462.6 752.420  15
   1  -6  -5 12411.8 766.605  21
   1  -6  -4 781.157 174.118   6
   1  -6  -4 501.220 149.047   8
  -1  -6   4 302.942 151.301   7
  -1  -6   4 430.759 251.564  14
  -1  -6   4 445.774 210.917  22
   1  -6  -4 650.171 197.403   2
   1  -6  -4 584.354 234.567  21
   1  -6  -4 856.276 232.732  18
  -1  -6   4 268.038 252.275  15
  -1  -6   4 425.831 138.077   1
   1  -6  -3 3848.19 280.876   8
  -1  -6   3 4095.26 247.468   1
   1  -6  -3 4226.90 336.547   6
  -1  -6   3 4031.11 297.553   7
   1  -6  -3 4166.84 325.265   2
   1  -6  -2 24384.3 666.877   1
  -1  -6   2 22805.4 751.868   7
  -1  -6   2 23173.4 683.813   1
   1  -6  -1 262305. 6285.50   1
  -1  -6   1 273056. 6343.71   6
   1  -6  -1 311659. 6535.51   6
  -1  -6   1 315978. 6434.66   7
   1  -6   0 43004.7 1128.51   1
   1  -6   0 45743.1 1141.30   2
  -1  -6  -1 4615.83 276.484   6
   1  -6   1 3910.39 262.833   2
  -1  -6  -1 4657.54 205.258   2
  -1  -6  -2 47531.4 1196.27   2
   1  -6   2 39309.5 1131.93   1
  -1  -6  -3 58033.4 1560.11   6
  -1  -6  -3 56294.7 1687.56  18
  -1  -6  -3 57661.8 1547.47   2
   1  -6   3 54008.3 1481.30   1
   1  -6   4 12806.9 580.601  30
  -1  -6  -4 12987.9 561.765  23
   1  -6   4 14366.9 636.980  38
  -1  -6  -4 13488.7 630.562  33
   1  -6   4 12355.5 567.856  26
  -1  -6  -4 12820.5 563.594   3
   1  -6   4 11201.3 738.508  14
   1  -6   4 13655.7 630.482  36
  -1  -6  -5 1862.68 325.404  33
   1  -6   5 1910.34 271.792  30
   1  -6   5 2019.71 449.770  14
   1  -6   5 2394.65 290.457   5
  -1  -6  -5 2129.12 277.752   3
   1  -6   5 2284.56 300.309  31
   1  -6   5 1979.05 314.160  36
   1  -6   6 15432.6 998.245  14
   1  -6   6 16673.1 752.360  31
  -1  -6  -6 18189.1 780.309   3
  -1  -6  -6 18626.6 835.907  33
   1  -6   6 17906.2 752.651  30
   1  -6   6 17704.5 782.212   5
   1  -6   7 7971.69 485.395   5
   1  -6   7 6237.09 394.086  31
  -1  -6  -7 7836.69 492.331  33
   1  -6   7 5838.79 621.054  14
  -1  -6  -7 7946.71 468.211   3
   1  -6   7 7848.13 529.827  38
   1  -6   7 7505.87 421.086  30
  -1  -6  -8 3434.21 257.056   3
  -1  -6  -8 3831.33 308.607  13
   1  -6   8 3273.42 282.545  38
  -1  -6  -8 3041.20 251.961  33
   1  -6   8 3307.80 258.120   5
   1  -5  -9 2417.66 228.520   3
  -1  -5   9 2222.75 380.676  14
  -1  -5   9 2456.84 238.510   5
  -1  -5   8 7030.19 473.317   5
  -1  -5   8 5840.70 463.056  31
   1  -5  -8 7550.97 472.941   3
   1  -5  -8 7140.42 391.123  17
   1  -5  -8 5398.50 402.966  28
   1  -5  -7 9468.11 564.553   3
   1  -5  -7 7996.35 475.834  33
  -1  -5   7 9199.25 611.929  31
  -1  -5   7 10334.7 622.754  38
  -1  -5   7 10092.2 569.317  30
  -1  -5   7 10651.9 598.927   5
  -1  -5   6 30319.7 1072.86   5
  -1  -5   6 31786.7 1120.03  38
   1  -5  -6 29248.9 1020.97  33
  -1  -5   6 30570.0 1073.58  30
  -1  -5   6 32692.7 1168.17  31
   1  -5  -6 30817.6 1079.61   3
  -1  -5   5 13917.8 658.285  31
  -1  -5   5 15102.4 645.229  38
  -1  -5   5 14906.6 830.198  14
   1  -5  -5 14024.8 613.152   3
  -1  -5   5 14093.9 677.993  36
  -1  -5   5 12916.4 581.102   5
  -1  -5   5 12679.7 777.064  15
   1  -5  -5 13047.0 795.974  21
  -1  -5   5 13658.0 604.647  30
   1  -5  -4 57447.9 1541.95   6
  -1  -5   4 53369.0 1567.23  22
   1  -5  -4 56920.5 1643.83   2
   1  -5  -4 62442.4 1699.08  18
  -1  -5   4 49529.7 1634.90  14
   1  -5  -4 50386.3 1666.06  21
  -1  -5   4 50070.8 1651.54  15
   1  -5  -4 45958.8 1516.14   8
  -1  -5   4 52417.4 1482.76   1
  -1  -5   3 167087. 4220.37   7
   1  -5  -3 168943. 4289.30   2
   1  -5  -3 189479. 4260.10   8
  -1  -5   3 171830. 4156.64   1
   1  -5  -3 178370. 4292.03   6
   1  -5  -3 181343. 4134.86   1
   1  -5  -2 10605.9 372.141   1
  -1  -5   2 11898.0 396.682   1
  -1  -5   2 11149.3 446.713   7
  -1  -5   1 424609. 9919.94   7
   1  -5  -1 439715. 9822.12   1
   1  -5  -1 437543. 9872.17   8
   1  -5   0 284773. 6618.84   2
  -1  -5   0 305594. 6695.16   6
  -1  -5  -1 19974.5 554.389   2
   1  -5   1 19901.5 615.378   2
  -1  -5  -2 25663.1 730.602   2
   1  -5   2 19166.1 784.402   2
   1  -5   2 21169.5 584.860  39
   1  -5   2 19977.4 651.506   1
  -1  -5  -2 25028.3 743.117   6
   1  -5   3 48130.1 1268.69   1
  -1  -5  -3 47881.1 1315.15   2
   1  -5   3 39438.8 1109.07  39
  -1  -5  -3 47119.0 1284.48   6
  -1  -5  -3 41173.5 1380.29  18
  -1  -5  -4 33923.0 1054.62  23
   1  -5   4 34540.1 1123.86  36
  -1  -5  -4 34465.1 1141.30  33
   1  -5   4 34380.8 1072.41  26
   1  -5   4 33856.4 1072.51  30
  -1  -5  -4 32639.6 1040.87  37
   1  -5   4 30876.5 1259.82  14
  -1  -5  -4 33995.6 1073.21   3
   1  -5   5 12777.6 602.717  30
  -1  -5  -5 14144.2 640.063   3
  -1  -5  -5 15604.0 716.849  33
   1  -5   5 13250.3 629.246  31
   1  -5   5 11807.4 817.702  14
   1  -5   5 13579.9 651.005   5
   1  -5   5 11638.7 647.451  36
   1  -5   6 7816.80 489.420  31
   1  -5   6 8545.84 490.605  30
   1  -5   6 6973.95 694.854  14
  -1  -5  -6 9113.52 594.375  33
  -1  -5  -6 9154.54 542.006   3
   1  -5   6 8936.93 579.004  38
   1  -5   6 8571.95 542.388   5
  -1  -5  -7 1235.81 262.771   3
   1  -5   7 890.936 404.043  14
   1  -5   7 1270.68 211.584  30
  -1  -5  -7 1208.03 295.828  33
   1  -5   7 1223.08 281.468   5
   1  -5   7 1283.26 292.651  38
  -1  -5  -8 220.519 151.646   3
  -1  -5  -8 322.815 212.812  13
   1  -5   8 456.588 179.021   5
   1  -5   8 428.090 180.948  38
  -1  -5  -8 318.068 176.544  33
  -1  -4   9 4672.41 325.231   5
   1  -4  -9 4709.04 309.391   3
  -1  -4   9 3606.84 309.525  38
  -1  -4   9 3509.27 455.511  14
   1  -4  -8 9927.02 553.604   3
  -1  -4   8 11496.8 604.362   5
  -1  -4   8 8841.39 556.846  31
  -1  -4   8 11597.5 895.372  14
   1  -4  -8 9191.29 486.997  17
  -1  -4   7 4569.52 452.159  31
  -1  -4   7 4928.49 406.614  30
   1  -4  -7 4881.62 382.247  33
  -1  -4   7 4545.52 427.990   5
  -1  -4   6 9236.87 514.514  30
  -1  -4   6 9144.57 699.297  15
  -1  -4   6 10173.8 589.163  31
   1  -4  -6 8868.11 530.243   3
  -1  -4   6 9973.60 546.760   5
  -1  -4   6 10665.7 580.211  38
   1  -4  -6 7777.19 479.730  33
  -1  -4   5 12246.5 634.194  22
  -1  -4   5 10738.9 516.366   5
   1  -4  -5 9686.58 685.480  21
  -1  -4   5 11358.8 574.455  31
   1  -4  -5 11734.6 548.027   3
  -1  -4   5 11706.2 702.736  14
  -1  -4   5 10577.4 682.181  15
  -1  -4   5 10968.0 518.131  30
  -1  -4   5 11938.1 558.799  38
  -1  -4   4 9042.37 424.753   1
  -1  -4   4 8394.16 530.789  15
  -1  -4   4 7539.31 302.514  39
   1  -4  -4 8052.67 528.087  21
   1  -4  -4 9037.07 430.233   6
  -1  -4   4 8388.08 511.448  14
   1  -4  -3 24078.2 858.660   2
  -1  -4   3 24933.2 747.883   1
  -1  -4   3 25442.2 651.086  39
   1  -4  -3 24781.2 727.794   1
   1  -4  -3 25413.9 834.611   6
   1  -4  -2 19475.4 560.062   8
  -1  -4   2 18340.0 583.851   7
   1  -4  -2 16277.3 610.006   6
  -1  -4   2 17593.1 532.226   1
   1  -4  -2 16995.0 513.686   1
   1  -4  -1 156656. 3556.19   8
  -1  -4   1 147377. 3615.54   7
   1  -4  -1 156819. 3540.78   1
   1  -4   0 225532. 4945.21  39
  -1  -4   0 219860. 4984.46   6
  -1  -4  -1 75876.7 1839.99   2
   1  -4   1 73350.0 1788.91  39
   1  -4   1 77508.7 1893.97   2
  -1  -4  -2 140495. 3357.30   8
  -1  -4  -2 138067. 3269.56   2
   1  -4   2 136806. 3213.38   1
   1  -4   2 134171. 3171.88  39
  -1  -4  -2 136450. 3259.07   6
  -1  -4  -3 24719.0 846.502   8
   1  -4   3 23194.1 727.162   1
  -1  -4  -3 22007.9 835.856  18
  -1  -4  -3 24963.7 797.926   2
   1  -4   3 20162.1 641.722  39
   1  -4   4 10147.5 476.636  30
   1  -4   4 9898.64 508.303  36
  -1  -4  -4 9828.97 466.688  37
   1  -4   4 9604.62 508.143  38
   1  -4   4 9049.52 598.100  14
  -1  -4  -4 10720.3 496.680   3
   1  -4   5 6576.08 593.018  14
   1  -4   5 7978.31 454.489  31
  -1  -4  -5 7214.80 429.780  37
   1  -4   5 6878.81 418.215  30
   1  -4   5 6866.06 477.017  36
   1  -4   5 7499.46 476.861   5
  -1  -4  -5 7127.81 504.304  33
   1  -4   5 6895.34 478.277  38
  -1  -4  -5 7192.78 453.808   3
   1  -4   6 3285.66 383.288  38
   1  -4   6 3343.88 311.284  30
  -1  -4  -6 3298.15 412.655  33
   1  -4   6 3092.60 307.292  31
  -1  -4  -6 3425.48 375.264   3
   1  -4   6 2975.23 369.705   5
   1  -4   6 3154.26 513.184  14
  -1  -4  -7 13686.3 692.546  33
  -1  -4  -7 15452.4 705.948   3
   1  -4   7 14656.0 706.296  38
   1  -4   7 14905.4 699.388   5
   1  -4   7 12749.8 550.005  30
   1  -4   7 13100.1 859.830  14
   1  -4   8 8507.16 436.573  38
  -1  -4  -8 8558.70 431.272  33
   1  -4   8 8616.19 453.263   5
  -1  -4  -8 8554.02 482.799  13
  -1  -4  -8 8637.15 442.470   3
   1  -3  -9 591.277 186.827   3
  -1  -3   9 612.637 211.271   5
  -1  -3   9 459.848 340.985  14
  -1  -3   9 485.839 197.091  38
   1  -3  -8 19634.0 800.689   3
  -1  -3   8 18596.5 804.473   5
  -1  -3   8 17749.2 1067.21  14
  -1  -3   8 20092.4 822.145  38
  -1  -3   7 11623.7 646.129   5
  -1  -3   7 9729.73 763.903  15
   1  -3  -7 11621.1 590.179  33
   1  -3  -7 13460.1 672.878   3
  -1  -3   7 11775.7 661.831  38
  -1  -3   7 10795.0 649.147  31
  -1  -3   7 11876.4 587.982  30
  -1  -3   6 5860.01 452.746  31
  -1  -3   6 6113.58 411.108  30
  -1  -3   6 5087.78 534.679  15
   1  -3  -6 6512.50 454.736   3
  -1  -3   6 6416.37 446.432   5
   1  -3  -6 5538.83 410.306  33
  -1  -3   5 11299.1 524.214   5
  -1  -3   5 10832.4 655.464  15
  -1  -3   5 11168.1 540.473  38
  -1  -3   5 11276.5 597.967  22
  -1  -3   5 11213.9 508.335  30
  -1  -3   5 11012.9 554.189  31
  -1  -3   4 9677.93 449.913   1
  -1  -3   4 9008.30 359.819  39
  -1  -3   4 8769.30 513.148  14
  -1  -3   4 9680.13 470.062   7
   1  -3  -4 10296.5 442.486   6
   1  -3  -4 10113.8 577.413   2
   1  -3  -3 165968. 3772.24   1
  -1  -3   3 161128. 3793.05   1
  -1  -3   3 151221. 3691.49  39
   1  -3  -3 147911. 3914.29   2
  -1  -3   2 445533. 10182.0  39
   1  -3  -2 469964. 10217.8   1
  -1  -3   2 440665. 10269.8   7
  -1  -3   2 452094. 10233.6   1
   1  -3  -2 444605. 10304.5   6
   1  -3  -1 23861.2 603.559   7
  -1  -3   1 21011.9 633.379   1
  -1  -3   1 20562.7 669.630   7
   1  -3  -1 27358.6 636.091   1
   1  -3  -1 27509.4 619.877   8
  -1  -3   0 482135. 10991.5   2
  -1  -3   0 461090. 11077.6   8
  -1  -3   0 489473. 11026.4   6
   1  -3   0 462798. 10999.2   2
  -1  -3  -1 66731.3 1624.92   2
   1  -3   1 65043.7 1587.99  39
  -1  -3  -2 28900.0 915.222   9
  -1  -3  -2 33323.6 899.009   6
  -1  -3  -2 33690.6 971.255   8
   1  -3   2 30232.6 1005.98   2
   1  -3   2 27792.1 802.008   6
  -1  -3  -2 33583.2 934.131   2
   1  -3   2 33823.8 883.446   1
  -1  -3  -3 86758.6 2112.57   8
   1  -3   3 82265.1 1982.42   1
  -1  -3  -3 89502.2 2076.43   2
  -1  -3  -4 36597.5 1125.29   3
   1  -3   4 34927.3 1133.51  36
   1  -3   4 34549.1 1274.79  14
  -1  -3  -4 37396.6 1097.64  37
  -1  -3  -4 35358.0 1086.92  35
   1  -3   4 36472.3 1150.49  38
   1  -3   4 33393.5 1065.61  30
  -1  -3  -5 48936.7 1410.99  17
  -1  -3  -5 49997.0 1554.46  33
   1  -3   5 45224.2 1657.25  14
   1  -3   5 45628.9 1410.71  31
   1  -3   5 45346.7 1379.56  30
  -1  -3  -5 48861.2 1403.91  37
   1  -3   5 48862.5 1492.75   5
   1  -3   5 41942.9 1451.63  36
   1  -3   5 48619.7 1490.08  38
  -1  -3  -5 51466.2 1496.31   3
   1  -3   6 4189.24 410.157  38
  -1  -3  -6 3962.04 399.063   3
  -1  -3  -6 4287.66 339.435  17
   1  -3   6 3390.14 526.111  14
   1  -3   6 4084.47 413.035   5
  -1  -3  -6 3849.42 434.495  33
   1  -3   6 3743.40 311.596  30
  -1  -3  -7 9326.15 560.125   3
   1  -3   7 9754.60 575.652   5
  -1  -3  -7 9618.46 589.624  33
   1  -3   7 8885.02 542.911  38
  -1  -3  -8 2692.59 321.764  13
   1  -3   8 2329.63 280.142   5
  -1  -3  -8 2081.61 271.357  33
  -1  -3  -8 2443.66 265.850   3
   1  -3   8 1962.70 242.536  38
   1  -2  -9-85.4300 136.424  17
  -1  -2   9-13.2960 323.856  14
  -1  -2   9 49.4658 204.845   5
  -1  -2   9-6.53402 175.741  38
   1  -2  -9 82.9874 175.801   3
  -1  -2   8 866.483 288.452  38
   1  -2  -8 700.811 225.179  33
  -1  -2   8 611.344 488.592  14
   1  -2  -8 824.805 281.968   3
  -1  -2   8 741.094 301.861   5
  -1  -2   7 3857.61 408.350   5
  -1  -2   7 4117.81 412.387  38
   1  -2  -7 4463.96 391.154  33
  -1  -2   7 3418.00 393.959  31
  -1  -2   7 3534.99 334.663  30
   1  -2  -6 17403.0 748.392  33
  -1  -2   6 16945.3 822.293  22
  -1  -2   6 18723.2 784.907  38
   1  -2  -6 19244.0 794.301   3
  -1  -2   6 18454.2 775.519   5
  -1  -2   6 18645.4 807.737  31
  -1  -2   6 17246.4 917.833  15
  -1  -2   6 17654.5 717.901  30
  -1  -2   5 42911.1 1271.12  30
   1  -2  -5 39394.7 1507.36  21
  -1  -2   5 42678.2 1453.35  15
  -1  -2   5 42836.2 1292.60   5
  -1  -2   5 44156.2 1385.81  22
  -1  -2   5 45346.8 1355.66  31
   1  -2  -4 20104.3 830.915   2
  -1  -2   4 18784.8 618.111  39
   1  -2  -4 19347.1 643.162   6
  -1  -2   4 19968.6 700.852   1
  -1  -2   4 19551.4 704.121   7
   1  -2  -3 135285. 3128.02   1
  -1  -2   3 128768. 3157.78   7
  -1  -2   3 132981. 3146.09   1
   1  -2  -2 898928. 21034.0   6
  -1  -2   2 949923. 20955.5  39
  -1  -2   2 891579. 20995.4   1
   1  -2  -2 973037. 20986.5   1
   1  -2  -1 143741. 3471.23   7
  -1  -2   1 152222. 3504.40   1
  -1  -2   1 142959. 3529.60   7
   1  -2  -1 153629. 3489.53   1
   1  -2   0 551250. 12894.7   2
   1  -2   0 589849. 12905.7  39
  -1  -2   0 574922. 12894.9   2
  -1  -2   0 582852. 12958.4   8
   1  -2   1 240289. 5905.58   2
  -1  -2  -1 281747. 5944.18   8
  -1  -2  -1 269035. 5932.17   9
  -1  -2  -1 244383. 5888.84   2
   1  -2   2 49886.7 1463.58   2
   1  -2   2 52851.7 1338.61   1
  -1  -2  -2 53671.7 1395.31   2
   1  -2   2 47812.0 1273.29   6
  -1  -2  -2 56060.4 1414.52   8
  -1  -2  -2 51203.0 1370.85   9
   1  -2   3 45692.6 1226.73   1
   1  -2   3 39246.1 1136.25   6
  -1  -2  -3 41638.9 1264.23   8
  -1  -2  -3 46999.6 1297.99   2
  -1  -2  -3 39387.5 1203.84   9
  -1  -2  -4 6247.78 371.419  35
   1  -2   4 6391.25 468.443  14
  -1  -2  -4 5705.92 363.720   3
  -1  -2  -4 6682.49 368.041  37
  -1  -2  -4 7308.70 441.829  33
   1  -2   4 6342.74 385.867  38
   1  -2   5 12634.6 618.982   5
  -1  -2  -5 11069.6 635.184  33
   1  -2   5 12131.1 730.121  14
  -1  -2  -5 13571.4 588.243  35
   1  -2   5 10049.0 496.792  30
   1  -2   5 11937.7 598.964  38
  -1  -2  -5 11926.3 546.669  37
  -1  -2  -5 12575.0 609.030   3
  -1  -2  -5 12321.9 567.674  17
   1  -2   6 22005.2 906.899  38
   1  -2   6 22501.7 949.779   5
   1  -2   6 21938.9 1105.73  14
  -1  -2  -6 23793.8 881.344  17
  -1  -2  -6 23655.2 996.432  33
  -1  -2  -6 21677.0 817.805  37
  -1  -2  -6 23323.2 943.996   3
  -1  -2  -7 646.973 205.776  17
   1  -2   7 552.587 370.777  14
   1  -2   7 402.211 255.173  38
  -1  -2  -7 763.482 311.449  33
   1  -2   7 616.115 291.695   5
  -1  -2  -7 703.006 285.109   3
  -1  -2  -8 3257.20 301.202   3
   1  -2   8 4204.47 340.307   5
  -1  -2  -8 3978.90 375.654  13
   1  -2   8 3832.69 294.626  38
  -1  -2  -8 3650.61 321.769  33
  -1  -1   9 3171.84 458.049  14
  -1  -1   9 3777.81 330.865   5
   1  -1  -9 4313.15 382.873  13
   1  -1  -9 4266.05 326.589   3
   1  -1  -9 4367.38 293.684  17
  -1  -1   9 3134.14 249.814  25
  -1  -1   9 4155.44 310.902  38
  -1  -1   8 50498.4 1838.20  14
   1  -1  -8 49210.3 1514.03   3
  -1  -1   8 49140.8 1486.78  38
  -1  -1   8 51486.2 1547.85   5
  -1  -1   7 82712.3 2372.07   5
  -1  -1   7 91524.5 2376.69  38
   1  -1  -7 79158.9 2290.25  33
  -1  -1   7 71945.9 2503.43  15
  -1  -1   7 76400.8 2325.44  31
   1  -1  -7 91892.0 2397.26   3
  -1  -1   6 679.042 233.683   5
  -1  -1   6 676.750 226.999  38
  -1  -1   6 756.267 187.441  30
   1  -1  -6 622.239 232.318  33
  -1  -1   6 542.125 233.256  31
  -1  -1   6 752.617 264.042  22
  -1  -1   6 612.607 290.210  15
   1  -1  -6 767.310 251.810   3
  -1  -1   5 2923.02 244.053  30
  -1  -1   5 2602.86 394.739  11
  -1  -1   5 3009.66 277.772   5
  -1  -1   5 2901.16 309.965  22
  -1  -1   5 2846.88 278.916  38
  -1  -1   5 3143.46 351.718  15
  -1  -1   5 2831.04 289.055  31
  -1  -1   4 93826.8 2405.89   1
  -1  -1   4 89265.3 2380.84   7
   1  -1  -4 93356.2 2295.35   6
  -1  -1   4 94555.0 2328.22  39
   1  -1  -3 81223.3 1911.27   6
   1  -1  -3 77246.0 1901.63   1
  -1  -1   3 78610.2 1925.41   1
  -1  -1   3 78403.4 1924.59   7
   1  -1  -2 375086. 8486.14   1
  -1  -1   2 381440. 8475.60  39
  -1  -1   2 385993. 8511.87   1
   1  -1  -1 874614. 19085.7   1
  -1  -1   1 898294. 19086.2  39
  -1  -1   1 864285. 19091.3   1
   1  -1   0 164982. 3883.60  39
   1  -1   0 163355. 3865.13   2
  -1  -1   0 173418. 3866.78   2
  -1  -1   0 164421. 3888.66   8
  -1  -1  -1 606898. 12708.6   8
  -1  -1  -1 582866. 12699.4   2
   1  -1   1 569134. 12704.4   2
   1  -1   2 208769. 5252.16   6
   1  -1   2 205427. 5423.24   2
  -1  -1  -3 16547.9 627.549   9
  -1  -1  -3 18149.1 683.980   2
   1  -1   3 16390.6 593.137   6
   1  -1   3 17478.6 629.202   1
  -1  -1  -4 61911.8 1609.49  35
   1  -1   4 56870.4 1750.64  14
  -1  -1  -4 60578.6 1644.67   3
   1  -1   4 57882.8 1637.49  38
  -1  -1  -4 71296.5 1765.87  33
  -1  -1  -4 47270.4 1589.11   9
  -1  -1  -5 1198.26 293.145  33
   1  -1   5 1287.29 246.078  38
   1  -1   5 808.704 306.067  14
  -1  -1  -5 1555.40 265.643   3
  -1  -1  -5 1327.65 239.246  37
   1  -1   5 1441.06 265.542   5
  -1  -1  -5 1264.30 250.646  35
  -1  -1  -5 1437.50 240.541  17
   1  -1   6 1656.44 291.721  38
  -1  -1  -6 1309.99 344.300  33
  -1  -1  -6 1337.40 251.703  37
   1  -1   6 2070.79 337.531   5
  -1  -1  -6 2420.66 357.351   3
   1  -1   6 1594.96 407.902  14
   1  -1   7 4726.42 544.963  14
  -1  -1  -7 5405.61 539.417  13
  -1  -1  -7 4852.13 374.300  17
  -1  -1  -7 4356.17 451.181  33
  -1  -1  -7 4844.45 445.467   3
   1  -1   7 4253.83 378.015  38
   1  -1   7 4260.57 433.330   5
   1  -1   8 4749.17 457.123  14
   1  -1   8 7173.75 442.904   5
  -1  -1  -8 7387.92 426.513   3
  -1  -1  -8 7417.24 482.548  13
  -1  -1  -8 5758.89 317.979  17
   1  -1   8 6197.60 356.349  38
  -1  -1  -8 6450.95 415.571  33
   1   0  -9 229.416 249.519  13
   1   0  -9 101.893 168.123  17
  -1   0   9-4.73406 114.235  25
  -1   0   9-13.0590 318.085  14
  -1   0   9-30.4866 157.102  38
   1   0  -8 886.164 246.033  33
  -1   0   8 516.145 468.115  14
  -1   0   8 1184.04 287.929  38
  -1   0   8 990.329 326.058  15
   1   0  -7 2523.37 343.599  33
  -1   0   7 2907.56 353.454  38
  -1   0   7 2024.80 404.182  15
   1   0  -6 38893.6 1290.86  33
  -1   0   6 38708.2 1338.26  22
  -1   0   6 38500.9 1198.27  30
  -1   0   6 38595.3 1441.65  15
  -1   0   6 41863.9 1301.64  38
  -1   0   6 40034.0 1320.92  31
  -1   0   5 50580.7 1586.26   7
  -1   0   5 54153.3 1556.73  39
  -1   0   5 58270.4 1636.35  31
  -1   0   5 57021.6 1648.60  22
  -1   0   5 58405.6 1594.86  38
  -1   0   5 59811.2 1743.64  15
  -1   0   5 53193.3 1807.94  11
   1   0  -4 32868.2 1051.78   2
  -1   0   4 34273.4 869.643   7
   1   0  -4 35180.2 735.342   6
  -1   0   4 36266.2 916.224   1
  -1   0   4 38042.3 871.006  39
  -1   0   3 14087.4 501.982   1
  -1   0   3 14341.8 492.304   7
  -1   0   3 14429.3 479.872  39
   1   0  -3 12987.2 446.187   6
   1   0  -3 13877.2 363.278   9
  -1   0   2 451894. 9854.83  39
  -1   0   2 429989. 9867.56   7
   1   0  -2 417303. 9848.55   1
  -1   0   2 443221. 9878.16   1
  -1   0   1 3129.53 159.253  39
  -1   0   1 2806.04 159.082   1
   1   0  -1 2961.20 146.040   1
   1   0  -1 2912.42 162.388   7
   1   0  -1 3118.89 127.261   9
   1   0   0 602473. 13193.1   8
  -1   0   0 608174. 13206.7   2
   1   0   0 532094. 13200.6   2
   1   0   0 597182. 13237.2  39
  -1   0   0 528774. 13191.1   8
  -1   0  -1 13264.0 424.061   2
  -1   0  -1 11792.0 425.296   9
   1   0   1 11237.0 425.769   2
   1   0   1 13685.6 397.696   6
  -1   0  -2 20325.5 631.854   9
  -1   0  -2 18715.8 642.679   2
   1   0   2 20123.5 601.669   6
  -1   0  -3 31836.3 974.510   9
   1   0   3 32925.4 982.736   1
   1   0   3 32412.4 986.212   6
  -1   0  -3 31996.0 1035.45   2
  -1   0  -4 411.069 182.975  35
   1   0   4 307.026 194.411  14
  -1   0  -4 233.273 167.605  27
  -1   0  -4 304.876 215.357  33
  -1   0  -4 150.457 125.535   9
  -1   0  -5 32870.7 1097.97  17
   1   0   5 33739.6 1269.90  14
   1   0   5 30280.2 1064.36  38
  -1   0  -5 31208.9 1027.81  37
  -1   0  -5 32713.8 1047.50  35
  -1   0  -5 31853.8 1166.26  33
  -1   0  -6 19052.4 761.345  37
  -1   0  -6 22812.3 882.233  17
   1   0   6 20631.4 843.129  38
   1   0   6 18923.4 1024.27  14
  -1   0  -6 23965.4 991.006  33
  -1   0  -7 2118.83 302.458  17
  -1   0  -7 1880.54 408.939  13
   1   0   7 1961.93 278.147  38
  -1   0  -7 2116.52 383.024  33
   1   0   7 1566.96 402.562  14
   1   0   8 1033.39 177.798  38
  -1   0  -8 1182.42 296.573  13
  -1   0  -8 1061.73 257.544  33
  -1   0  -8 1030.37 190.126  17
   1   0   8 604.673 271.626  14
  -1   1   9 3774.51 465.728  14
   1   1  -9 4210.09 315.336  17
   1   1  -9 4223.18 369.716  13
  -1   1   8 47085.5 1692.05  14
  -1   1   8 45927.5 1350.90  38
   1   1  -7 74972.4 2277.40  33
  -1   1   7 79324.3 2501.91  15
   1   1  -6 778.765 246.906  33
  -1   1   6 569.009 228.741  22
  -1   1   6 520.148 273.870  15
  -1   1   6 590.876 213.519  38
  -1   1   6 768.738 236.740  31
  -1   1   5 2901.53 282.241   5
  -1   1   5 3459.94 284.209   7
  -1   1   5 3115.30 275.487  38
  -1   1   5 3353.96 296.456  31
  -1   1   5 2832.31 289.451  22
  -1   1   5 2888.04 263.045  39
  -1   1   5 2589.63 310.746  10
  -1   1   5 3330.48 352.186  15
   1   1  -4 95663.2 2134.90   6
  -1   1   4 97190.1 2317.50  39
  -1   1   4 97734.3 2318.72   7
  -1   1   3 80611.7 1875.56   7
   1   1  -3 72589.2 1775.05   6
  -1   1   2 356773. 8327.00  39
  -1   1   2 375164. 8315.23   7
  -1   1   1 952480. 19869.1   9
  -1   1   1 844188. 19916.4  39
   1   1  -1 915721. 19925.2   7
   1   1  -1 796400. 19893.9  39
  -1   1   0 133339. 3189.41   8
   1   1   0 161230. 3257.85   8
   1   1   1 564895. 13097.4   6
   1   1   1 596061. 13109.4   9
   1   1   2 242809. 5526.54   6
  -1   1  -2 232857. 5508.47   9
  -1   1  -3 18972.4 657.165   9
   1   1   3 18389.0 697.479   6
  -1   1  -4 57101.8 1515.28  35
  -1   1  -4 54541.3 1549.11   3
   1   1   5 1352.79 226.832  38
  -1   1  -5 1352.03 251.478  35
  -1   1  -5 1189.96 230.252  37
   1   1   5 1243.50 304.131  14
  -1   1  -5 1391.97 255.843  17
  -1   1  -5 1494.17 320.011  33
  -1   1  -6 2303.34 336.345  17
   1   1   6 2047.37 282.634  38
  -1   1  -6 2104.69 304.944  35
   1   1   6 1642.84 391.484  14
  -1   1  -6 1927.13 264.719  37
  -1   1  -6 2240.69 398.693  33
   1   1   7 4367.46 349.375  38
  -1   1  -7 5001.82 487.805  33
   1   1   7 4126.91 512.869  14
  -1   1  -7 4868.14 411.663  17
  -1   1  -7 4351.82 522.344  13
  -1   1  -8 7507.23 492.764  13
  -1   1  -8 6236.18 423.896  33
  -1   1  -8 6589.34 371.729  17
   1   1   8 4981.28 449.760  14
   1   1   8 5663.60 308.352  38
  -1   2   9 14.0677 187.468   5
   1   2  -9 279.746 190.941  17
   1   2  -9 276.160 236.085  13
  -1   2   9 244.385 304.750  14
   1   2  -9-6.90489 170.075   3
   1   2  -8 1226.22 363.413  13
   1   2  -8 1059.34 318.340  17
   1   2  -8 1069.87 288.640   3
  -1   2   8 921.399 246.714  38
   1   2  -8 893.791 272.371  33
  -1   2   8 608.319 276.966  15
  -1   2   8 906.400 308.167   5
  -1   2   8 497.442 411.253  14
  -1   2   7 5061.64 516.854  15
  -1   2   7 5131.89 453.726   5
  -1   2   7 4813.05 402.408  38
   1   2  -7 4233.98 419.303   3
  -1   2   7 4277.57 587.787  14
   1   2  -7 3447.52 396.520  33
  -1   2   6 16763.8 770.130  22
   1   2  -6 18855.0 807.485  33
  -1   2   6 19576.0 797.382   5
  -1   2   6 18488.5 753.498  38
   1   2  -6 18429.4 790.677   3
  -1   2   6 19050.3 890.910  15
  -1   2   5 35552.1 1275.83  10
  -1   2   5 43168.9 1259.82   5
  -1   2   5 43274.6 1293.03  39
   1   2  -5 36772.5 1245.94  33
  -1   2   5 43037.5 1244.30  38
  -1   2   5 44169.8 1363.36  15
  -1   2   5 42716.6 1284.70  31
  -1   2   5 38063.8 1226.62   7
  -1   2   5 45014.0 1306.76  22
   1   2  -4 19146.5 808.597   2
  -1   2   4 18806.8 643.065   7
  -1   2   4 18668.6 686.399   1
  -1   2   3 135720. 2862.88   7
   1   2  -3 134121. 2891.65   1
  -1   2   2 946590. 21535.6   7
  -1   2   2 999999. 21578.7   1
  -1   2   2 956700. 21582.1  39
   1   2  -2 938580. 21550.5   1
  -1   2   1 148131. 3456.75   1
   1   2  -1 151669. 3437.62  39
   1   2  -1 150519. 3446.26   1
  -1   2   0 537700. 12273.5   2
   1   2   0 562299. 12282.2   2
  -1   2   0 535914. 12298.8  39
   1   2   1 270330. 5896.43   9
  -1   2  -1 249316. 5878.11   2
   1   2   1 241642. 5896.98   2
   1   2   1 265432. 5899.08   6
   1   2   2 57998.6 1483.18   6
   1   2   2 54100.7 1544.42   2
  -1   2  -2 52773.9 1451.71   2
   1   2   2 54569.1 1414.64   1
   1   2   3 45125.3 1312.64   1
  -1   2  -3 46902.5 1385.02   2
  -1   2  -3 46492.4 1311.21   9
  -1   2  -4 5537.20 347.657  35
   1   2   4 6982.22 445.361  14
  -1   2  -4 4980.65 338.205   9
   1   2   4 5171.86 389.282   6
  -1   2  -4 6637.04 381.636   3
   1   2   5 11808.4 601.295   5
  -1   2  -5 11511.2 595.173  17
  -1   2  -5 12521.7 676.706  33
  -1   2  -5 11558.2 556.167  35
   1   2   5 11296.7 542.623  38
   1   2   5 13133.5 714.993  14
  -1   2  -5 11661.6 550.671  37
  -1   2  -5 12489.3 611.108   3
  -1   2  -6 24882.1 1069.26  13
  -1   2  -6 20139.9 791.248  37
  -1   2  -6 24074.1 1028.47  33
   1   2   6 21005.3 829.978  38
   1   2   6 22574.9 932.795   5
  -1   2  -6 21398.1 829.363  35
  -1   2  -6 24539.0 950.726   3
   1   2   6 22622.2 1067.44  14
  -1   2  -6 23289.7 943.641  17
   1   2   7 590.660 191.355  38
   1   2   7 322.393 271.328   5
  -1   2  -7 761.104 262.188  17
  -1   2  -7 528.812 379.921  13
  -1   2  -7 302.280 317.196  33
  -1   2  -7 674.201 277.932   3
   1   2   7 494.297 328.668  14
   1   2   8 3593.92 327.933   5
  -1   2  -8 4100.34 362.593  33
  -1   2  -8 3638.58 300.419  17
  -1   2  -8 3953.34 394.184  13
  -1   2  -8 4327.77 337.620   3
   1   3  -9 345.290 135.274  33
   1   3  -9 746.341 236.056  13
   1   3  -9 630.898 211.747  17
  -1   3   9 367.548 193.811   5
  -1   3   9 641.035 322.884  14
   1   3  -9 741.300 190.954   3
  -1   3   8 17918.5 1036.09  14
   1   3  -8 20356.2 853.798  17
  -1   3   8 19677.1 831.521   5
   1   3  -8 16741.9 755.207  33
  -1   3   8 18068.1 726.307  38
   1   3  -8 19223.2 806.880   3
   1   3  -8 20150.2 891.930  13
  -1   3   7 13096.7 875.983  14
  -1   3   7 12746.9 676.799   5
  -1   3   7 11017.8 736.356  15
  -1   3   7 12628.5 620.728  38
   1   3  -7 10292.5 631.686  33
   1   3  -7 13360.6 672.191   3
   1   3  -6 6113.73 454.735  33
  -1   3   6 5744.80 488.382  15
  -1   3   6 5197.87 411.681  22
   1   3  -6 6822.02 461.781   3
  -1   3   6 5568.73 592.671  11
  -1   3   6 6469.45 414.080  38
  -1   3   6 6468.50 446.476   5
  -1   3   5 10664.8 521.340  22
  -1   3   5 9143.12 462.380  38
   1   3  -5 11754.8 554.683  33
  -1   3   5 9007.99 510.270  10
  -1   3   5 11206.3 655.800  11
  -1   3   5 11478.7 578.567  15
  -1   3   5 11475.1 521.168   5
   1   3  -4 9959.56 559.066   2
  -1   3   4 8302.49 383.485   7
  -1   3   4 8844.26 473.478  14
  -1   3   4 9826.31 446.553   1
  -1   3   3 173874. 3787.11   7
  -1   3   3 168659. 3846.58   1
  -1   3   2 467842. 10417.1   7
  -1   3   2 460305. 10468.7   1
   1   3  -2 454553. 10440.7   1
   1   3  -1 21406.4 580.081  39
   1   3  -1 21944.4 579.201   1
   1   3  -1 22011.9 571.078   6
  -1   3   0 461758. 10281.1  39
   1   3   0 450737. 10301.4   6
   1   3   0 470819. 10266.3   2
  -1   3   0 453763. 10253.6   2
   1   3   0 425058. 10339.0   9
   1   3   1 68156.1 1713.28   6
   1   3   1 65996.2 1695.83   2
  -1   3  -1 64558.2 1658.73   2
   1   3   2 33540.9 912.039   1
  -1   3  -2 32355.4 954.292   2
   1   3   2 30534.2 1027.86   2
   1   3   2 31410.3 917.973   9
  -1   3  -3 84087.7 2142.47   2
   1   3   3 81051.7 2064.30   1
  -1   3  -4 33321.3 1014.64  35
   1   3   4 32787.7 1157.36   6
   1   3   4 27107.1 1151.17  11
  -1   3  -4 38476.0 1089.36   3
  -1   3  -4 33969.0 1023.75  37
  -1   3  -4 27023.0 1004.94   9
   1   3   4 36040.0 1144.50  14
  -1   3  -5 46873.4 1415.45  37
   1   3   5 44826.2 1399.59  38
   1   3   5 50632.9 1513.35   5
  -1   3  -5 50263.4 1510.32   3
  -1   3  -5 46673.9 1418.05  35
  -1   3  -5 54598.4 1561.71  17
   1   3   5 49312.2 1626.77  14
   1   3   6 4065.97 405.691   5
  -1   3  -6 5006.37 539.237  13
  -1   3  -6 3852.74 350.270  35
   1   3   6 3506.23 456.053  14
  -1   3  -6 3978.41 470.016  33
  -1   3  -6 3694.12 325.697  37
   1   3   6 3721.59 315.205  38
  -1   3  -6 4185.95 401.505   3
  -1   3  -6 4629.10 434.006  17
  -1   3  -7 9417.69 559.957   3
   1   3   7 7697.09 617.754  14
   1   3   7 8177.97 430.647  38
   1   3   7 8984.04 557.302   5
  -1   3  -7 9753.93 576.821  17
  -1   3  -7 8425.21 610.964  33
   1   3   8 1446.74 292.369  14
  -1   3  -8 2388.05 319.110  33
  -1   3  -8 2377.48 263.658   3
   1   3   8 2130.00 276.304   5
  -1   3  -8 2477.55 269.651  17
   1   4  -9 4631.29 353.347  13
   1   4  -9 4154.11 290.687   3
   1   4  -9 4038.16 317.042  17
  -1   4   9 4715.28 313.685   5
  -1   4   9 3826.64 420.142  14
  -1   4   8 10178.4 577.391   5
   1   4  -8 11969.5 657.779  13
   1   4  -8 10993.2 569.988   3
   1   4  -8 11506.0 637.921  17
  -1   4   8 9712.84 760.694  14
   1   4  -8 8876.51 547.065  33
  -1   4   7 5679.07 454.127   5
  -1   4   7 5339.51 395.644  38
   1   4  -7 5345.09 444.636   3
   1   4  -7 4428.07 447.577  33
  -1   4   7 5726.32 614.731  14
  -1   4   7 5091.25 500.088  15
  -1   4   6 8375.77 468.604  38
  -1   4   6 7090.58 472.970  22
   1   4  -6 10327.2 554.992   3
  -1   4   6 8892.29 584.586  15
   1   4  -6 9848.16 575.672  33
  -1   4   6 9189.52 526.218   5
  -1   4   6 8334.31 685.424  11
  -1   4   5 11355.2 579.180  15
  -1   4   5 11171.6 530.276  22
  -1   4   5 11077.4 496.113  38
  -1   4   5 11179.3 661.210  11
   1   4  -5 10429.7 523.443   3
  -1   4   5 10918.9 517.475   5
  -1   4   4 7960.34 461.162  11
  -1   4   4 7907.10 350.163   7
   1   4  -4 8290.77 502.181   2
  -1   4   4 8722.59 422.871   1
  -1   4   4 7927.28 420.926  15
   1   4  -3 23496.2 833.760   2
   1   4  -3 24890.6 705.017   1
  -1   4   3 24898.5 729.592   1
   1   4  -2 17865.0 512.175   1
  -1   4   2 16840.6 525.138   1
   1   4  -1 159620. 3429.25  39
   1   4  -1 143837. 3461.01   7
   1   4  -1 142096. 3429.96   6
  -1   4   1 142555. 3425.87   1
  -1   4   1 157623. 3469.66  39
   1   4  -1 149281. 3412.24   1
   1   4   0 209100. 4820.10   2
   1   4   0 204155. 4921.57   8
   1   4   0 198285. 4861.77   7
   1   4   1 71383.4 1920.81   6
  -1   4  -1 73813.5 1824.59   2
   1   4   1 76004.9 1882.90   2
   1   4   2 126088. 3220.22   9
  -1   4  -2 136051. 3249.55   2
   1   4   2 123007. 3338.90   2
   1   4   2 142153. 3203.66   1
   1   4   2 145157. 3378.24   6
   1   4   3 24049.9 761.542   1
   1   4   3 23741.8 873.373   6
  -1   4  -3 22750.0 804.073   2
  -1   4  -4 9194.26 454.619  37
   1   4   4 9824.52 571.427   6
  -1   4  -4 10075.7 467.988  35
  -1   4  -4 9943.66 476.137   3
  -1   4  -4 10451.9 517.654  17
   1   4   4 9003.80 577.848  11
   1   4   4 10097.4 540.273  14
  -1   4  -5 7422.58 501.141  17
   1   4   5 7095.03 461.850   5
  -1   4  -5 7331.39 466.631   3
  -1   4  -5 6952.88 431.365  35
   1   4   5 7630.73 552.521  14
  -1   4  -5 6897.45 429.454  37
  -1   4  -6 2726.43 289.358  37
   1   4   6 3414.41 443.031  14
  -1   4  -6 3309.27 408.389  17
  -1   4  -6 3508.68 376.639   3
   1   4   6 2830.45 356.974   5
  -1   4  -6 3235.67 332.635  35
  -1   4  -6 3477.96 465.626  33
  -1   4  -7 14536.4 787.716  33
  -1   4  -7 15405.3 708.499   3
   1   4   7 14329.7 695.927   5
  -1   4  -7 16646.3 758.884  17
  -1   4  -8 9206.88 455.311  17
   1   4   8 8291.57 437.157   5
  -1   4  -8 9081.99 449.292   3
  -1   4  -8 8594.72 487.783  33
   1   5  -9 2454.64 272.644  13
  -1   5   9 1955.17 340.928  14
  -1   5   9 2391.08 231.938   5
   1   5  -9 2033.54 208.148   3
   1   5  -9 2692.11 270.226  17
  -1   5   8 7633.63 487.156   5
   1   5  -8 6772.77 482.857  33
   1   5  -8 7581.54 464.726   3
   1   5  -8 7404.49 537.295  13
   1   5  -8 7679.48 533.637  17
  -1   5   8 5484.88 482.673  15
  -1   5   8 7486.06 666.804  14
  -1   5   7 10134.0 582.134   5
   1   5  -7 9418.04 617.348  33
   1   5  -7 10343.5 579.468   3
  -1   5   7 8668.96 623.951  15
  -1   5   7 9752.08 766.518  14
   1   5  -7 10252.6 664.828  13
  -1   5   7 9201.70 499.965  38
   1   5  -6 30069.3 1075.83   3
  -1   5   6 30583.9 1020.54  38
  -1   5   6 29373.1 1063.42   5
  -1   5   6 29915.3 1167.87  15
  -1   5   6 27943.7 1296.21  11
   1   5  -5 12793.0 594.342   3
  -1   5   5 14089.8 596.400   5
  -1   5   5 14136.9 662.155  15
  -1   5   5 13594.5 559.573  38
  -1   5   5 13893.2 597.391  22
  -1   5   5 15730.6 772.201  11
  -1   5   4 51957.9 1512.00  11
  -1   5   4 46603.6 1289.83   7
  -1   5   4 50047.3 1435.99  15
   1   5  -4 52735.3 1565.41   2
  -1   5   4 55189.3 1456.55   1
  -1   5   4 46161.2 1525.37  16
  -1   5   3 173011. 3938.05   1
   1   5  -3 165662. 4056.17   2
   1   5  -3 179596. 3902.47   1
  -1   5   2 10595.8 378.107   1
   1   5  -2 10903.0 357.030   1
   1   5  -1 463242. 9963.88   7
   1   5  -1 435765. 9915.33  39
   1   5  -1 432679. 9890.30   1
   1   5  -1 417648. 9955.91   6
  -1   5   1 454029. 9966.40  39
  -1   5   0 279181. 6521.48  39
  -1   5   0 277263. 6519.48   8
   1   5   0 283441. 6554.04   7
   1   5   0 283331. 6504.76   2
   1   5   1 21794.0 669.643   2
  -1   5  -1 19527.0 597.951   2
   1   5   2 22753.9 834.538   2
   1   5   2 24409.6 765.903   9
  -1   5  -2 22269.5 737.146   2
   1   5   2 24729.0 716.419   1
   1   5   3 44532.3 1405.36   6
  -1   5  -3 45668.4 1311.39   2
   1   5   3 41711.9 1234.41   1
  -1   5  -4 32010.6 1046.87  37
  -1   5  -4 34506.9 1054.93  35
  -1   5  -4 37601.4 1152.32  17
  -1   5  -4 35119.0 1080.72   3
   1   5   4 32942.1 1145.77  14
  -1   5  -4 34713.3 1174.01  33
   1   5   5 13657.5 723.974  14
  -1   5  -5 13894.3 688.189  17
  -1   5  -5 13264.7 626.730   3
  -1   5  -5 11594.3 575.399  35
  -1   5  -5 12289.3 590.864  37
   1   5   5 13711.3 639.960   5
  -1   5  -6 9906.74 612.380  17
  -1   5  -6 8902.23 547.407   3
  -1   5  -6 7246.09 435.387  37
  -1   5  -6 7438.06 454.857  35
   1   5   6 8422.25 616.531  14
   1   5   6 8526.85 534.667   5
  -1   5  -7 1651.01 281.514   3
   1   5   7 877.399 306.704  14
  -1   5  -7 1465.31 386.238  33
   1   5   7 1256.22 276.306   5
  -1   5  -7 1532.29 326.453  17
  -1   5  -8 374.855 159.167   3
  -1   5  -8 226.821 195.612  17
   1   5   8 192.754 184.846  14
   1   5   8 36.3737 159.358   5
  -1   5  -8 366.296 238.910  33
   1   6  -9 872.826 196.938  17
  -1   6   9 539.506 269.077  14
   1   6  -9 1038.70 200.402  13
   1   6  -9 992.345 152.606   3
   1   6  -9 519.552 139.808  33
  -1   6   9 1033.90 165.931   5
   1   6  -8 8570.55 477.253   3
  -1   6   8 9653.39 694.512  14
   1   6  -8 9620.11 565.227  13
   1   6  -8 7788.93 502.806  33
  -1   6   8 8584.60 497.003   5
   1   6  -7 7878.20 568.268  33
   1   6  -7 8945.47 596.299  13
  -1   6   7 6414.89 552.165  15
   1   6  -7 7887.57 497.869   3
  -1   6   7 6526.78 704.856  11
  -1   6   7 7104.44 662.543  14
  -1   6   7 7689.94 502.508   5
   1   6  -6 21094.7 898.953  33
  -1   6   6 19164.0 744.054  38
   1   6  -6 20267.0 897.044  13
  -1   6   6 21206.3 822.000   5
  -1   6   6 18428.3 1012.97  11
   1   6  -6 19572.6 811.875   3
  -1   6   6 19385.5 903.780  15
  -1   6   5 12921.3 699.958  11
  -1   6   5 12467.7 546.397   5
   1   6  -5 10656.9 528.293   3
  -1   6   5 9678.09 466.411  38
  -1   6   5 13059.9 620.454  15
  -1   6   4 595.965 175.811  15
  -1   6   4 423.977 206.993  16
  -1   6   4 514.801 184.970  11
  -1   6   4 613.037 145.016   1
   1   6  -4 599.406 184.856   2
  -1   6   3 3408.09 232.177   1
   1   6  -3 4010.10 315.589   2
  -1   6   3 3739.20 177.862   9
   1   6  -2 21878.3 632.570   1
  -1   6   2 25385.6 690.728   1
  -1   6   1 328168. 7080.44  39
   1   6  -1 310023. 6978.69   1
   1   6  -1 346895. 7087.30   7
   1   6  -1 290704. 7012.84  39
   1   6  -1 282500. 7067.00   6
  -1   6   0 50323.8 1366.06   8
   1   6   0 56571.0 1376.87   7
   1   6   0 58018.8 1334.98   1
   1   6   0 54559.7 1331.08   2
   1   6   0 62067.8 1519.96   8
   1   6   0 65029.9 1523.58   6
  -1   6   0 51988.6 1354.41  39
   1   6   1 4793.31 264.182   2
   1   6   1 5291.57 311.851   9
   1   6   1 4612.15 283.053   8
  -1   6  -1 4311.35 203.533   2
   1   6   2 47990.9 1419.22   6
   1   6   2 47698.9 1284.67   9
  -1   6  -2 45651.3 1234.79   2
  -1   6  -3 46748.3 1491.31  13
   1   6   3 55134.0 1441.58   1
  -1   6  -3 52911.1 1481.81   2
   1   6   3 54871.0 1445.03   9
   1   6   3 57044.9 1674.36   6
  -1   6  -3 44823.8 1435.85  17
   1   6   4 13614.3 649.874  14
  -1   6  -4 13616.9 677.301  13
  -1   6  -4 12739.2 558.942   3
   1   6   4 12425.1 550.689   5
  -1   6  -4 12992.7 574.904  37
  -1   6  -4 13225.4 571.729  35
   1   6   5 2087.44 345.470  14
  -1   6  -5 2184.07 385.334  13
  -1   6  -5 2397.19 354.868  17
  -1   6  -5 1895.92 277.596  37
  -1   6  -5 2222.27 281.870   3
   1   6   5 1889.09 273.784   5
  -1   6  -5 2156.30 297.682  35
   1   6   6 17924.4 770.152   5
  -1   6  -6 20075.6 873.518  17
  -1   6  -6 15026.6 662.889  37
  -1   6  -6 16709.5 687.642  35
  -1   6  -6 18188.9 774.283   3
   1   6   6 15952.2 857.456  14
   1   6   7 6764.27 542.820  14
  -1   6  -7 8239.57 603.906  33
   1   6   7 7861.42 486.072   5
  -1   6  -7 8476.28 483.623   3
  -1   6  -7 9082.26 567.458  17
  -1   6  -8 3421.03 255.950   3
   1   6   8 3075.75 245.178   5
  -1   6  -8 3490.31 298.900  17
  -1   6  -8 3497.16 347.612  13
  -1   6  -8 3524.97 333.363  33
   1   7  -9 3497.01 203.499   3
   1   7  -9 4054.96 263.546  13
  -1   7   9 4040.68 220.388   5
  -1   7   9 3521.93 351.866  14
  -1   7   8 238.748 196.226   5
   1   7  -8 341.980 243.767  13
   1   7  -8 350.150 258.644  33
  -1   7   8 205.454 212.544  15
  -1   7   8 344.257 347.115  14
   1   7  -8 351.508 179.915   3
  -1   7   7 10212.6 737.144  14
   1   7  -7 9986.27 629.924  17
   1   7  -7 8916.71 598.165  33
   1   7  -7 8392.76 580.528  13
  -1   7   7 8243.14 603.744  15
  -1   7   7 8255.29 509.920   5
   1   7  -7 9184.93 521.490   3
   1   7  -6 6049.95 487.046  13
  -1   7   6 5890.38 417.241   5
  -1   7   6 5783.72 475.374  15
   1   7  -6 6154.67 511.717  33
  -1   7   6 5226.96 572.955  11
   1   7  -6 5761.44 408.571   3
   1   7  -5 6506.84 408.510   3
  -1   7   5 8064.74 484.239  15
  -1   7   5 7611.54 423.135   5
   1   7  -5 7601.55 481.614  13
  -1   7   5 8127.99 573.053  11
   1   7  -4 42180.8 1242.40  13
   1   7  -4 44435.5 1327.20   2
   1   7  -4 36861.4 1158.56   3
  -1   7   4 43145.8 1245.71   1
  -1   7   4 37300.1 1333.71  16
  -1   7   4 38786.6 1192.22  10
  -1   7   4 42096.1 1274.68  15
  -1   7   4 44986.4 1346.79  11
  -1   7   3 36058.6 931.398   9
  -1   7   3 34913.2 999.499   1
   1   7  -2 53030.3 1301.69   1
  -1   7   2 54659.8 1361.62   1
   1   7  -2 51300.4 1395.35   2
  -1   7   1 147106. 2943.57  39
   1   7  -1 132677. 2950.20   6
   1   7  -1 119419. 2782.72   2
   1   7  -1 144757. 3097.37   8
   1   7  -1 112070. 2779.26   1
   1   7   0 277823. 5932.34   6
  -1   7   0 244513. 5743.77  39
   1   7   0 265966. 5764.93   7
  -1   7   0 251508. 5785.08   8
   1   7   0 233627. 5700.36   2
   1   7   0 286577. 5946.97   8
   1   7   0 249051. 5687.15   1
   1   7   1 75331.0 1848.95   9
   1   7   1 61278.8 1663.47   7
   1   7   1 74982.2 1915.38   6
   1   7   1 65279.9 1737.11   2
  -1   7  -1 66510.1 1644.07   2
   1   7   1 77897.3 1851.54   8
   1   7   1 71398.7 1653.10   1
   1   7   2 7597.21 482.948   6
   1   7   2 6886.94 309.766   1
  -1   7  -2 6577.31 311.592   2
   1   7   2 7691.47 392.796   9
   1   7   3 24076.9 795.038   1
  -1   7  -3 25419.3 844.649   2
  -1   7  -3 23011.5 884.292  13
   1   7   3 27453.9 1049.54   6
   1   7   3 25768.5 830.469   9
  -1   7  -3 22449.4 834.646  17
  -1   7  -4 14843.3 707.936  13
  -1   7  -4 11889.2 565.221  35
  -1   7  -4 13496.2 574.962   3
   1   7   4 11301.5 654.553  11
  -1   7  -4 13586.5 644.572  17
   1   7   4 16200.6 707.490  14
   1   7   4 13065.0 564.181   5
  -1   7  -4 12507.4 586.181  37
  -1   7  -5 76035.3 2155.73  13
  -1   7  -5 62775.0 1881.25  37
   1   7   5 72976.5 2106.07  14
  -1   7  -5 67645.9 1926.33   3
   1   7   5 68893.7 1924.40   5
  -1   7  -5 64233.4 1873.83  35
   1   7   6 9420.98 647.104  14
   1   7   6 9610.85 538.449   5
  -1   7  -6 9868.50 636.840  17
  -1   7  -6 8511.35 477.586  35
  -1   7  -6 10781.2 561.345   3
  -1   7  -6 8344.86 469.504  37
  -1   7  -6 10301.5 700.126  13
   1   7   7 1151.69 312.094  14
  -1   7  -7 1676.04 329.657  17
  -1   7  -7 1697.36 390.316  13
   1   7   7 1692.63 253.540   5
  -1   7  -7 1534.28 385.817  33
  -1   7  -7 1877.55 256.381   3
  -1   7  -8 151.606 176.516  17
  -1   7  -8 54.0411 105.339   3
   1   7   8 107.621 110.747   5
  -1   7  -8 112.718 201.505  13
  -1   7  -8-6.57462 195.288  33
   1   8  -9 1200.01 140.083  13
   1   8  -9 1000.04 125.950  33
  -1   8   8 14480.0 767.552  14
   1   8  -8 10950.2 504.344   3
   1   8  -8 13088.1 620.337  13
   1   8  -8 12385.4 619.861  33
  -1   8   8 13058.9 539.797   5
   1   8  -8 14309.6 663.330  17
   1   8  -7 3147.15 427.667  33
   1   8  -7 3848.89 418.455  13
  -1   8   7 3095.80 318.071   5
  -1   8   7 3894.96 544.921  11
  -1   8   7 3358.34 399.514  15
   1   8  -7 3632.45 425.726  17
   1   8  -7 3781.76 333.305   3
  -1   8   7 3461.40 501.588  14
  -1   8   6 1834.01 418.517  11
   1   8  -6 2334.14 276.052   3
   1   8  -6 2125.91 344.272  13
  -1   8   6 2037.85 268.515   5
  -1   8   6 1871.89 333.340  15
  -1   8   5 7863.39 567.070  11
   1   8  -5 9653.36 538.787  13
   1   8  -5 8391.39 451.882   3
  -1   8   5 8994.38 537.888  15
  -1   8   5 8838.31 450.861   5
   1   8  -4 29205.6 934.207  13
   1   8  -4 26889.9 946.713   2
  -1   8   4 29771.3 1016.26  11
  -1   8   4 27719.4 895.816  10
  -1   8   4 23296.6 999.106  16
  -1   8   4 24856.9 885.155   1
  -1   8   4 26617.2 954.206  15
  -1   8   3 47420.7 1353.54  11
  -1   8   3 46337.0 1386.61  16
  -1   8   3 47945.4 1231.82   9
   1   8  -3 45039.8 1309.80   2
  -1   8   3 42935.8 1260.02   1
  -1   8   2 15121.6 483.821   1
   1   8  -2 14416.2 505.928   2
  -1   8   1 73593.6 1349.38  39
   1   8  -1 87975.4 1622.87   8
   1   8   0 60874.8 1453.88   6
   1   8   0 49906.9 1110.63   1
   1   8   0 59353.0 1241.16   7
   1   8   0 67717.2 1488.39   8
  -1   8   0 55789.5 1233.16  39
  -1   8   0 60882.8 1304.19   8
   1   8   1 98655.8 2234.70   8
   1   8   1 89986.5 2308.81   6
   1   8   1 80712.2 1971.79   1
  -1   8  -1 79553.4 1962.87   2
   1   8   1 94056.2 2237.39   9
   1   8   1 81457.1 1994.96   7
   1   8   2 12686.5 428.204   1
  -1   8  -2 11059.4 416.857   2
   1   8   2 12064.3 531.716   9
  -1   8  -3 347.119 207.672  13
  -1   8  -3 548.611 195.512  37
  -1   8  -3 568.363 128.167   2
   1   8   3 555.958 117.812   1
  -1   8  -3 505.506 197.066  35
  -1   8  -3 641.544 194.506  17
  -1   8  -4 16721.6 662.454   3
  -1   8  -4 20108.2 845.684  13
  -1   8  -4 18598.6 778.026  17
   1   8   4 17627.2 672.098   5
   1   8   4 14596.3 772.653  11
  -1   8  -4 17315.3 715.777  37
   1   8   4 19593.8 822.403  14
  -1   8  -4 16576.0 696.578  35
  -1   8  -5 13394.5 623.576  35
   1   8   5 12982.0 609.509   5
  -1   8  -5 16489.4 830.113  13
  -1   8  -5 14582.7 638.025   3
  -1   8  -5 13802.6 785.721  33
  -1   8  -5 12467.0 620.800  37
  -1   8  -5 15474.0 759.644  17
   1   8   5 13485.7 732.575  14
  -1   8  -6 2878.89 303.741   3
  -1   8  -6 2794.21 290.902  37
  -1   8  -6 3348.51 459.307  13
  -1   8  -6 2728.19 296.831  35
   1   8   6 3070.54 411.504  14
   1   8   6 3004.00 306.982   5
  -1   8  -7 2188.71 386.863  13
   1   8   7 1503.18 304.827  14
  -1   8  -7 1871.97 358.751  17
  -1   8  -7 1567.87 218.179   3
   1   8   7 1466.50 225.134   5
  -1   8  -8 3595.14 311.148  13
  -1   8  -8 2739.59 271.882  33
  -1   8  -8 3378.43 268.524  17
   1   8   8 2390.81 159.440   5
  -1   9   9 1625.32 229.712  14
   1   9  -9 1810.59 178.768  17
   1   9  -8 4302.31 379.692  17
   1   9  -8 3935.29 367.342  33
  -1   9   8 4722.37 471.345  14
   1   9  -8 3936.26 256.759   3
  -1   9   8 4318.02 272.756   5
   1   9  -8 4306.24 358.728  13
  -1   9   7 18602.9 962.969  14
   1   9  -7 19870.2 891.522  33
  -1   9   7 14036.8 925.822  11
  -1   9   7 17163.8 841.228  15
   1   9  -7 17117.0 696.658   3
   1   9  -7 20575.8 876.076  17
  -1   9   7 17157.7 697.440   5
   1   9  -7 19314.2 838.003  13
   1   9  -6 32731.2 1166.51  13
  -1   9   6 28435.6 1004.52   5
   1   9  -6 33013.5 1173.07  17
  -1   9   6 27299.2 1270.76  11
   1   9  -6 28550.5 1000.49   3
  -1   9   6 35062.9 1325.76  14
  -1   9   6 29861.6 1167.52  15
   1   9  -5 1838.85 275.549  13
  -1   9   5 1396.10 324.103  11
  -1   9   5 1555.87 277.402  15
   1   9  -4 11367.6 541.337  13
  -1   9   4 12638.4 548.260  10
  -1   9   4 11742.7 584.807  15
  -1   9   4 11028.8 631.829  16
  -1   9   4 12711.2 622.719  11
  -1   9   3 2766.20 239.355  10
   1   9  -3 2716.69 216.185   2
  -1   9   3 2440.38 203.949   1
  -1   9   3 2722.16 262.060  39
  -1   9   3 2656.48 280.337  16
  -1   9   3 2622.75 263.120  11
  -1   9   2 524.394 143.779  39
   1   9  -2 223.331 79.9433   2
  -1   9   1 14616.1 489.036  39
   1   9  -1 13595.8 593.756   8
  -1   9   0 1700.70 169.333   8
   1   9   0 2208.36 233.326   6
   1   9   0 2286.68 240.078   8
  -1   9   0 1561.88 142.973  39
   1   9   1 360920. 6807.48   8
   1   9   1 324576. 6884.12   6
   1   9   1 270643. 6446.53   7
   1   9   1 275092. 6422.26   1
   1   9   1 320081. 6776.37   9
  -1   9  -1 256544. 6594.10   8
  -1   9  -2 112827. 3029.12  17
  -1   9  -2 126254. 2929.86   2
  -1   9  -2 115208. 3095.47  13
   1   9   2 123298. 2925.47   1
   1   9   3 4037.69 293.914  15
  -1   9  -3 4458.28 344.934  17
  -1   9  -3 3910.50 341.600  37
  -1   9  -3 4020.81 333.415  35
  -1   9  -3 4232.08 384.038  13
  -1   9  -4 2442.94 319.272  17
  -1   9  -4 2237.39 354.215  13
  -1   9  -4 1872.50 289.423  35
   1   9   4 2707.98 333.266  14
  -1   9  -4 2425.13 319.290  37
  -1   9  -5 29330.7 1000.07   3
  -1   9  -5 30087.1 1041.44  37
  -1   9  -5 29091.3 1014.87  35
   1   9   5 28939.0 993.734   5
  -1   9  -5 33738.1 1182.60  17
   1   9   5 32237.3 1214.01  14
  -1   9  -5 31272.1 1234.14  33
  -1   9  -6 1287.83 396.899  13
   1   9   6 1328.12 325.881  14
  -1   9  -6 1002.70 222.005  37
  -1   9  -6 1291.50 218.189   3
   1   9   6 1243.69 218.964   5
  -1   9  -6 1875.78 388.723  17
  -1   9  -6 1080.87 231.941  35
  -1   9  -7 2046.06 356.408  13
   1   9   7 1731.47 200.104   5
  -1   9  -7 1750.15 202.133   3
   1   9   7 1643.27 290.829  14
  -1   9  -8 2633.53 252.761  33
  -1   9  -8 2912.06 262.338  13
   1  10  -9 8904.04 322.893  17
  -1  10   9 5452.29 337.189  14
   1  10  -8 1274.51 242.815  17
   1  10  -8 1262.17 233.400  13
   1  10  -8 1201.68 273.428  33
  -1  10   8 1103.74 311.881  14
  -1  10   7 4134.39 528.302  14
   1  10  -7 4389.84 467.443  33
   1  10  -7 4440.63 399.412  13
  -1  10   7 3755.33 509.973  11
   1  10  -7 4540.08 419.093  17
  -1  10   7 4035.91 405.518  15
   1  10  -6 4978.84 429.757  13
   1  10  -6 4573.34 429.936  17
  -1  10   6 4036.07 423.498  15
  -1  10   6 4173.57 509.939  11
  -1  10   6 3873.34 523.571  14
   1  10  -5 6147.74 438.969  13
   1  10  -5 6075.38 441.962  17
  -1  10   5 5806.27 512.680  11
  -1  10   5 5530.54 442.116  15
  -1  10   4 867.572 230.872  11
  -1  10   4 510.336 229.336  16
  -1  10   4 789.728 223.195  15
   1  10  -4 444.538 189.069  13
  -1  10   4 470.671 161.688  10
  -1  10   3 13502.7 578.537  10
  -1  10   3 14533.4 664.458  16
  -1  10   2 250.905 132.267  39
  -1  10   2 424.780 149.065  16
  -1  10   2 200.675 133.976  11
  -1  10   2 406.222 157.507  10
   1  10  -2 365.871 169.500   8
   1  10  -1 59085.8 1710.06   8
  -1  10   1 62827.1 1547.17  39
  -1  10   0 26664.7 790.203  39
  -1  10   0 28910.0 866.680   8
  -1  10  -1 4171.58 298.794   8
   1  10   1 8780.00 443.529   8
   1  10   1 8725.59 466.745   9
  -1  10  -1 5489.21 375.816  13
   1  10   2 17198.5 712.821   9
  -1  10  -2 16113.0 635.040  17
  -1  10  -2 16444.2 652.971  35
  -1  10  -2 17592.0 724.432  13
  -1  10  -3 27481.1 962.686  17
  -1  10  -3 24973.8 934.065  37
   1  10   3 28717.9 930.628  15
  -1  10  -3 26832.9 1020.32  13
  -1  10  -3 25643.2 919.650  35
  -1  10  -4 8479.92 510.550  35
  -1  10  -4 10481.7 638.181  13
   1  10   4 10522.2 604.028  14
  -1  10  -4 9482.18 548.532  37
  -1  10  -4 10655.5 592.573  17
   1  10   4 8751.56 475.042  15
  -1  10  -5 11139.9 703.437  13
  -1  10  -5 10172.0 557.040  37
  -1  10  -5 10600.0 636.732  17
  -1  10  -5 10603.7 719.418  33
  -1  10  -5 9215.79 513.882  35
   1  10   5 8900.86 616.619  14
  -1  10  -6 5078.38 513.454  13
  -1  10  -6 4863.67 467.402  17
   1  10   6 4101.45 430.131  14
  -1  10  -6 3973.88 318.242  35
  -1  10  -6 3581.36 310.165  37
   1  10   7 1646.11 285.855  14
  -1  10  -7 2230.58 343.010  13
  -1  10  -7 2466.99 328.459  17
  -1  10  -8 2134.92 207.103  33
  -1  10  -8 2061.72 203.708  13
  -1  10  -8 1752.61 197.142  16
  -1  11   8 1512.90 302.093  14
   1  11  -8 1306.55 255.358  33
   1  11  -8 1814.94 241.844  17
   1  11  -7 4616.53 391.387  13
  -1  11   7 4039.04 397.686  15
  -1  11   7 3779.48 493.784  11
  -1  11   7 4852.67 505.508  14
   1  11  -7 4551.16 409.179  17
   1  11  -7 3638.99 446.424  33
   1  11  -6 2859.87 345.108  13
   1  11  -6 3138.04 365.772  17
  -1  11   6 3563.05 507.295  14
  -1  11   6 2577.21 358.202  15
  -1  11   6 2735.79 449.384  11
  -1  11   5 170.513 276.764  11
   1  11  -5 88.6485 194.075  13
   1  11  -5 29.4331 203.997  17
  -1  11   5 162.124 235.188  15
  -1  11   4 15098.9 729.929  11
  -1  11   4 13811.3 608.369  10
  -1  11   4 15156.4 705.778  15
   1  11  -4 14123.2 619.270  17
  -1  11   4 13416.1 737.407  16
  -1  11   3 1040.27 223.963  16
  -1  11   3 829.662 179.071  10
  -1  11   3 1002.47 210.983  11
  -1  11   2 31880.1 1036.22  10
  -1  11   2 32524.8 1041.50  39
  -1  11   2 34254.8 1082.39  11
  -1  11   2 34819.1 1095.42  16
   1  11  -1 19528.6 797.557   8
  -1  11   1 19225.1 646.066  39
  -1  11   1 17639.7 694.825  16
  -1  11   0 14948.1 547.007   8
  -1  11   0 14886.6 614.334  16
  -1  11   0 11953.6 599.454  13
  -1  11   0 12616.0 457.000  39
   1  11   1 6706.07 440.286   9
  -1  11  -1 5694.36 386.865  16
  -1  11  -1 5832.29 402.219  13
  -1  11  -2 51413.2 1473.43  17
  -1  11  -2 53836.4 1588.40  13
  -1  11  -2 50087.1 1485.45  35
  -1  11  -3 8011.44 531.972  13
  -1  11  -3 7093.23 451.653  17
  -1  11  -3 7438.61 479.131  37
  -1  11  -3 6753.23 446.687  35
   1  11   3 7043.37 422.310  15
  -1  11  -4 3099.78 417.365  13
  -1  11  -4 2740.47 334.821  35
  -1  11  -4 3275.01 366.461  17
  -1  11  -4 3053.76 356.201  37
   1  11   4 2649.53 275.180  15
   1  11   4 3300.45 382.375  14
   1  11   5 7865.27 573.006  14
  -1  11  -5 9058.42 649.681  13
  -1  11  -5 8241.97 646.459  33
  -1  11  -5 7457.97 457.811  35
  -1  11  -5 6864.46 470.591  37
   1  11   6 5703.48 473.953  14
  -1  11  -6 6476.12 491.789  17
  -1  11  -6 6387.42 564.980  33
  -1  11  -6 6684.68 542.795  13
  -1  11  -7 1257.28 275.081  13
  -1  11  -7 1365.47 258.118  17
   1  11   7 833.680 220.332  14
  -1  11  -8 3945.33 232.513  33
  -1  11  -8 3929.28 216.587  17
  -1  12   8 5104.12 401.635  14
   1  12  -8 4883.83 349.952  33
   1  12  -8 5224.74 318.517  17
   1  12  -7 2048.40 269.687  13
  -1  12   7 3387.05 445.339  14
   1  12  -7 2894.53 322.693  17
  -1  12   7 2686.27 405.900  11
  -1  12   7 2672.36 331.208  15
   1  12  -7 2475.97 394.398  33
  -1  12   6 14064.2 728.234  15
   1  12  -6 12146.5 633.892  13
  -1  12   6 12399.2 839.999  14
  -1  12   6 12779.3 799.473  11
   1  12  -5 49027.2 1577.19  13
  -1  12   5 53037.1 1780.02  11
  -1  12   5 54188.8 1698.48  15
   1  12  -5 52795.5 1598.76  17
   1  12  -4 15106.2 657.162  17
  -1  12   4 17397.2 789.811  15
  -1  12   4 15708.2 674.011  10
  -1  12   4 18937.3 825.601  11
  -1  12   4 17193.2 848.410  16
  -1  12   3 5451.43 363.403  10
  -1  12   3 5086.74 412.004  16
  -1  12   3 5136.55 390.442  11
  -1  12   2 21356.6 799.645  39
  -1  12   2 21581.6 840.205  16
  -1  12   2 22636.2 839.470  11
  -1  12   2 22681.1 819.105  10
  -1  12   1 13676.5 682.087  13
  -1  12   1 14605.5 629.800  16
  -1  12   1 14167.1 624.766  11
  -1  12   0 63731.6 1927.91  13
  -1  12   0 70762.3 1914.81  16
  -1  12  -1 23768.4 920.051  13
  -1  12  -1 23924.9 904.728  16
  -1  12  -2 362.915 237.736  13
  -1  12  -2 497.133 220.986  35
  -1  12  -2 372.256 165.356  17
  -1  12  -3 4368.65 408.316  37
  -1  12  -3 5023.41 455.339  13
  -1  12  -3 4470.43 371.292  17
  -1  12  -3 4161.88 379.984  35
   1  12   3 5266.54 373.643  15
  -1  12  -4 3376.28 436.704  13
  -1  12  -4 2810.74 360.407  37
  -1  12  -4 3240.26 370.546  17
   1  12   4 2931.81 290.894  15
  -1  12  -4 3031.63 338.841  35
   1  12   4 3369.79 399.043  14
   1  12   5 1716.16 339.369  14
  -1  12  -5 1470.92 264.078  35
  -1  12  -5 1583.70 288.335  37
  -1  12  -5 1993.15 348.900  17
  -1  12  -5 1962.04 402.708  13
  -1  12  -5 1988.06 423.828  33
  -1  12  -6 6111.19 513.584  13
   1  12   6 5436.73 447.544  14
  -1  12  -6 5366.15 444.026  17
  -1  12  -6 5861.46 534.440  33
  -1  12  -7 2057.49 282.642  13
  -1  12  -7 1964.81 249.151  17
   1  13  -8 86.0261 170.144  33
   1  13  -8 80.0115 108.517  17
  -1  13   8 60.1558 181.110  14
   1  13  -8 85.1215 111.189  16
  -1  13   7 2185.73 286.368  15
  -1  13   7 1668.45 320.539  11
   1  13  -7 1955.65 260.356  17
  -1  13   7 2304.42 382.640  14
   1  13  -6 814.919 237.223  17
  -1  13   6 684.424 264.085  15
  -1  13   6 867.673 323.169  11
  -1  13   6 644.434 373.030  14
  -1  13   5 14032.4 734.953  15
   1  13  -5 13600.7 637.611  17
  -1  13   5 13703.4 776.181  11
  -1  13   4 3936.34 425.938  16
  -1  13   4 4778.30 427.441  11
  -1  13   4 4583.62 352.543  10
  -1  13   4 5001.16 437.422  15
  -1  13   3 367.760 174.817  10
  -1  13   3 208.597 197.934  11
  -1  13   3 604.261 225.420  16
  -1  13   2 24494.9 925.291  16
  -1  13   2 22991.6 877.377  10
  -1  13   2 24940.2 920.437  11
  -1  13   1 546.722 190.709  16
  -1  13   1 398.475 183.730  11
  -1  13   1 482.663 271.059  13
  -1  13   0 25346.8 998.830  13
  -1  13   0 26282.6 957.888  16
  -1  13  -1 14390.7 678.125  16
  -1  13  -1 13712.3 696.966  13
  -1  13  -2 314.437 242.937  13
  -1  13  -2 332.825 171.260  17
  -1  13  -2 405.186 221.631  16
  -1  13  -2 239.326 230.358  35
  -1  13  -3 3867.58 405.564  37
  -1  13  -3 3378.25 333.023  17
  -1  13  -3 3640.65 368.692  35
   1  13   3 3565.08 326.876  15
  -1  13  -3 3288.27 404.326  13
   1  13   4 4940.41 367.771  15
  -1  13  -4 5803.18 533.372  13
  -1  13  -4 4694.32 436.001  37
  -1  13  -4 4820.34 405.642  35
  -1  13  -4 5940.04 456.461  17
   1  13   4 5637.08 489.623  14
  -1  13  -5 31912.5 1185.24  13
  -1  13  -5 23401.9 890.573  35
  -1  13  -5 24472.9 937.553  37
  -1  13  -5 29339.1 1168.51  33
  -1  13  -5 29925.6 1058.17  17
   1  13   5 26590.8 1074.39  14
  -1  13  -6 2506.58 364.125  13
  -1  13  -6 2798.47 330.463  17
   1  13   6 1887.21 316.758  14
  -1  13  -6 2213.64 396.386  33
  -1  13  -7 4327.33 336.129  16
  -1  13  -7 4664.21 339.246  13
  -1  13  -7 4446.08 300.465  17
  -1  14   8 2421.80 243.471  14
   1  14  -8 2710.17 216.093  33
  -1  14   7 1066.15 221.265  15
   1  14  -7 1569.55 215.817  17
  -1  14   7 1288.26 318.822  14
   1  14  -7 1448.82 316.565  33
   1  14  -6 3573.30 317.355  17
  -1  14   6 2998.75 405.309  11
  -1  14   6 2706.49 340.102  15
  -1  14   6 2751.48 452.567  14
  -1  14   5 2623.71 365.274  15
   1  14  -5 2020.67 259.757  17
  -1  14   5 1766.40 348.805  11
  -1  14   4 14295.8 741.027  15
  -1  14   4 12804.1 605.149  10
  -1  14   4 14849.4 739.276  11
  -1  14   3 13333.5 676.924  11
  -1  14   3 13333.8 626.701  10
  -1  14   3 13867.4 716.482  16
  -1  14   2 33072.6 1153.08  10
  -1  14   2 32988.0 1185.96  16
  -1  14   1 55934.2 1670.85  11
  -1  14   1 58134.3 1679.94  16
  -1  14   0 5256.82 399.604  16
  -1  14   0 4772.93 449.481  13
  -1  14  -1 25984.5 1052.20  13
  -1  14  -1 26325.6 1007.74  16
  -1  14  -2 50070.3 1624.18  13
  -1  14  -2 48502.1 1592.67  16
  -1  14  -2 45568.0 1472.40  35
  -1  14  -3 13269.5 745.697  13
   1  14   3 14737.0 678.018  15
  -1  14  -3 15296.1 805.105  16
  -1  14  -3 13459.9 673.973  35
  -1  14  -3 13222.4 634.762  17
  -1  14  -3 13359.2 702.236  37
   1  14   4 4756.30 455.300  14
  -1  14  -4 4701.82 398.283  17
  -1  14  -4 4912.45 495.898  13
   1  14   4 3861.97 338.616  15
  -1  14  -4 4070.82 415.892  37
  -1  14  -4 4126.59 379.801  35
  -1  14  -5 3368.79 480.279  33
  -1  14  -5 2994.78 300.163  35
  -1  14  -5 3670.33 366.144  17
  -1  14  -5 3157.34 332.084  37
  -1  14  -5 3757.16 444.133  13
   1  14   5 3659.42 398.782  14
  -1  14  -6 352.764 252.670  13
  -1  14  -6 598.951 323.497  33
  -1  14  -6 375.322 207.617  17
  -1  14  -6 373.879 260.363  16
   1  14   6 478.557 221.011  14
  -1  14  -7 1935.24 217.778  16
  -1  14  -7 1118.00 164.420  13
  -1  14  -7 1695.55 173.718  17
  -1  14  -7 1692.94 230.281  33
  -1  15   7 1401.12 211.418  15
  -1  15   7 2158.68 314.450  14
   1  15  -7 985.571 173.282  16
   1  15  -7 1940.20 306.725  33
  -1  15   6 11004.5 654.026  11
   1  15  -6 10870.5 582.506  16
  -1  15   5 3987.20 431.811  11
  -1  15   5 3946.21 408.752  15
  -1  15   4 20103.7 883.528  11
  -1  15   4 18622.2 738.386  10
  -1  15   4 17428.1 867.347  16
  -1  15   4 21429.4 916.485  15
  -1  15   3 2989.62 346.746  11
  -1  15   3 2618.71 294.338  10
  -1  15   3 2527.04 341.582  16
  -1  15   2 10787.2 599.417  16
  -1  15   2 10173.5 566.646  10
  -1  15   2 10415.3 584.658  11
  -1  15   1 32540.6 1159.78  16
  -1  15   1 31864.7 1145.32  11
  -1  15   0 625.652 284.628  13
  -1  15   0 390.381 201.416  16
  -1  15  -1 34322.9 1281.99  13
  -1  15  -1 32370.8 1200.53  16
  -1  15  -2 3201.46 428.384  13
  -1  15  -2 2885.65 374.234  35
  -1  15  -2 3238.11 381.569  16
  -1  15  -3 4691.10 424.012  35
  -1  15  -3 5109.84 482.917  37
  -1  15  -3 4924.30 499.641  13
  -1  15  -3 5571.01 396.349  17
   1  15   3 5303.97 407.045  15
  -1  15  -3 5033.80 486.664  16
  -1  15  -4 7613.74 475.855  17
   1  15   4 7424.01 454.923  15
  -1  15  -4 7257.08 467.073  35
  -1  15  -4 7977.41 589.341  13
  -1  15  -4 9160.69 634.907  16
  -1  15  -4 7523.02 516.680  37
   1  15   4 8123.93 573.448  14
  -1  15  -5 7948.66 600.917  33
   1  15   5 7840.11 520.585  14
  -1  15  -5 7510.22 448.975  37
  -1  15  -5 7490.40 558.438  16
  -1  15  -5 7741.66 470.899  17
  -1  15  -5 8100.22 555.050  13
   1  15   6 3574.92 312.258  14
  -1  15  -6 3928.13 351.715  13
  -1  15  -6 4318.40 306.858  17
  -1  15  -6 4997.56 420.978  33
  -1  15  -6 4525.66 375.356  16
  -1  15  -7 319.464 132.666  33
  -1  15  -7 306.520 104.127  16
   1  16  -7 3225.48 302.826  33
  -1  16   7 3146.78 313.052  14
  -1  16   6 1711.73 268.459  15
  -1  16   6 1878.16 300.503  11
  -1  16   6 2076.25 360.608  14
  -1  16   5 9303.89 591.392  11
  -1  16   5 9537.12 571.904  15
  -1  16   4 3962.21 439.753  15
  -1  16   4 3920.35 407.994  11
  -1  16   4 3347.25 389.948  16
  -1  16   3 21555.7 954.367  16
  -1  16   3 24019.4 958.635  11
  -1  16   3 21532.9 869.082  10
  -1  16   2 79134.2 2386.11  10
  -1  16   2 85239.3 2450.50  16
  -1  16   1 13229.2 693.696  10
  -1  16   1 14879.3 717.306  11
  -1  16   1 13515.2 689.285  16
  -1  16   0 33705.6 1204.76  11
  -1  16   0 31410.4 1257.91  13
  -1  16   0 30761.6 1160.86  16
  -1  16  -1 7441.51 584.133  13
  -1  16  -1 7745.47 525.368  16
  -1  16  -2 22406.7 1031.49  13
  -1  16  -2 23933.2 939.191  35
  -1  16  -2 21814.5 980.703  16
  -1  16  -3 10670.1 633.507  37
  -1  16  -3 10782.8 679.219  13
  -1  16  -3 10023.2 650.325  16
  -1  16  -3 9833.09 576.794  35
   1  16   3 9429.61 548.952  15
  -1  16  -4 5030.99 373.209  17
   1  16   4 6112.66 488.045  14
  -1  16  -4 6247.95 524.334  13
  -1  16  -4 5721.71 493.476  16
  -1  16  -4 4497.87 385.150  35
  -1  16  -4 5062.21 431.203  37
   1  16   4 5174.98 367.673  15
  -1  16  -5 5373.43 366.129  37
  -1  16  -5 6797.70 525.941  33
  -1  16  -5 6049.39 470.096  13
  -1  16  -5 5982.07 376.007  17
  -1  16  -5 5544.81 456.472  16
   1  16   5 7107.63 471.327  14
  -1  16  -6 845.307 203.000  16
   1  16   6 707.407 151.789  14
  -1  16  -6 846.525 150.845  17
  -1  16  -6 1030.53 257.328  33
  -1  16  -6 977.452 199.819  13
  -1  17   7 1020.85 198.397  14
   1  17  -7 1128.26 203.928  33
  -1  17   6 282.041 266.854  14
  -1  17   6 334.508 183.374  15
   1  17  -6 305.228 274.940  33
  -1  17   5 1169.27 264.494  15
  -1  17   5 831.244 247.967  11
  -1  17   5 1216.19 378.560  14
  -1  17   4 8770.66 557.451  11
  -1  17   4 8576.67 588.344  15
  -1  17   3 290.915 227.410  11
  -1  17   3 330.954 224.539  16
  -1  17   3 315.521 190.633  10
  -1  17   2 28826.6 1109.66  16
  -1  17   2 29819.0 1099.24  11
  -1  17   2 26895.0 1058.26  10
  -1  17   1 57751.5 1811.31  10
  -1  17   1 61158.8 1826.24  11
  -1  17   1 55392.7 1777.56  16
  -1  17   0 20261.9 972.079  13
  -1  17   0 22119.7 934.998  11
  -1  17   0 20863.0 905.992  16
  -1  17  -1 1637.09 288.596  16
  -1  17  -1 1472.52 347.609  13
  -1  17  -2 6528.56 502.107  35
  -1  17  -2 7262.07 577.381  13
  -1  17  -2 6343.63 506.816  16
  -1  17  -3 9419.17 603.487  37
  -1  17  -3 10012.4 646.613  13
   1  17   3 9839.07 545.968  15
  -1  17  -3 9148.83 542.391  35
  -1  17  -4 1380.59 304.449  16
  -1  17  -4 1684.70 339.859  13
   1  17   4 2044.23 327.829  14
  -1  17  -4 1625.01 302.791  37
  -1  17  -4 1313.28 245.752  35
   1  17   4 1456.18 217.091  15
  -1  17  -5 7404.21 389.625  37
  -1  17  -5 10422.7 578.862  33
  -1  17  -5 8684.60 508.751  16
  -1  17  -5 8865.71 508.966  13
   1  17   5 9072.39 488.459  14
  -1  17  -6 1517.37 185.684  16
  -1  17  -6 2264.34 253.266  33
   1  18  -6 1986.11 308.701  33
  -1  18   6 2024.00 281.345  14
  -1  18   6 1600.88 216.227  15
  -1  18   5 1940.34 363.140  14
  -1  18   5 1387.62 251.688  11
  -1  18   5 1605.56 269.447  15
  -1  18   4 1465.07 284.326  11
  -1  18   4 1895.60 327.321  15
  -1  18   3 8043.22 527.008  11
  -1  18   3 9575.05 631.968  15
  -1  18   3 8242.13 484.990  10
  -1  18   2 34539.2 1219.71  11
  -1  18   2 34757.9 1199.91  10
  -1  18   2 31841.8 1195.18  16
  -1  18   1 8672.19 539.630  16
  -1  18   1 8741.78 566.870  10
  -1  18   1 8908.70 556.232  11
  -1  18   0 2724.39 350.468  11
  -1  18   0 2634.39 330.075  16
  -1  18  -1 1138.24 345.607  13
  -1  18  -1 1370.63 282.984  16
  -1  18  -2 4910.13 480.718  13
  -1  18  -2 5043.70 454.164  35
  -1  18  -2 4271.10 419.650  16
  -1  18  -2 5740.51 521.013  37
  -1  18  -3 5582.44 438.004  35
  -1  18  -3 6566.98 512.785  37
  -1  18  -3 5680.94 490.800  13
   1  18   3 6584.67 430.949  15
   1  18   4 2496.07 318.744  14
  -1  18  -4 2406.78 312.047  37
  -1  18  -4 1986.29 313.387  13
  -1  18  -4 1825.77 290.340  16
  -1  18  -4 1868.42 240.400  35
  -1  18  -5 7626.44 461.689  33
   1  18   5 7155.07 386.638  14
  -1  18  -6 778.252 146.893  33
  -1  19   6 377.038 178.113  14
  -1  19   6 211.685 99.8987  15
  -1  19   5 2184.28 336.299  14
  -1  19   5 2021.34 259.874  15
  -1  19   4 1987.74 270.021  11
  -1  19   4 2052.80 322.681  15
   1  19  -3 7291.61 476.803  37
  -1  19   3 7871.79 560.256  15
  -1  19   3 7196.43 482.409  11
  -1  19   3 7250.01 433.183  10
  -1  19   2 11957.3 618.168  10
  -1  19   2 12188.2 636.311  11
  -1  19   1 7023.15 478.665  16
  -1  19   1 8345.72 515.844  11
  -1  19   1 7354.29 522.669  10
   1  19   0 1908.53 264.818  10
  -1  19   0 1744.71 279.802  16
  -1  19   0 2143.88 322.917  11
  -1  19   0 2068.53 342.888  10
  -1  19  -1 6489.77 492.596  11
  -1  19  -1 5937.13 452.353  16
  -1  19  -2 2888.86 380.172  13
  -1  19  -2 3733.66 396.857  35
  -1  19  -2 2817.91 341.562  16
  -1  19  -2 3957.64 452.377  37
  -1  19  -3 5279.82 444.825  13
  -1  19  -3 6954.00 492.029  37
  -1  19  -3 6058.74 441.579  16
  -1  19  -3 5509.73 403.379  35
   1  19   3 6803.48 420.664  15
   1  19   4 11365.8 542.525  14
  -1  19  -4 10211.7 484.133  37
  -1  19  -5 13430.0 525.621  33
  -1  19  -5 13190.3 469.217  10
  -1  20   6 1977.52 187.273  14
  -1  20   5 1377.61 261.279  14
  -1  20   5 1187.22 199.840  15
  -1  20   4 2689.91 318.762  15
  -1  20   3 1370.26 226.582  11
  -1  20   3 1287.49 199.899  10
   1  20  -3 1217.43 270.785  37
  -1  20   3 1532.38 313.352  15
  -1  20   2 2100.96 280.980  11
  -1  20   2 2102.88 272.709  10
  -1  20   1 3071.70 323.343  11
  -1  20   1 3561.93 369.216  10
  -1  20   0 138.918 229.453  10
  -1  20   0 237.705 207.152  11
  -1  20   0 259.421 182.834  16
   1  20   0 387.410 180.053  10
  -1  20  -1 6329.49 463.505  11
  -1  20  -1 5512.85 412.040  16
  -1  20  -1 7175.19 521.484  35
  -1  20  -1 7223.25 525.989  10
  -1  20  -2 322.131 330.614  37
  -1  20  -2 259.942 208.980  11
   1  20   2 242.950 189.827  15
  -1  20  -2 179.005 274.529  35
  -1  20  -2 138.702 179.112  16
   1  20   3 3691.34 291.986  15
  -1  20  -3 3469.12 326.695  11
   1  20   3 4461.89 369.217  14
  -1  20  -3 3456.82 304.677  35
  -1  20  -3 2954.04 290.296  16
  -1  20  -3 4739.25 399.712  37
  -1  20  -4 1016.91 253.150  33
  -1  20  -4 676.250 155.551  16
  -1  20  -4 1001.88 184.186  37
  -1  20  -4 887.699 191.458  11
   1  20   4 1069.38 196.791  14
  -1  20  -5 1772.92 184.066  33
  -1  21   5 923.968 145.836  15
  -1  21   5 956.132 192.362  14
  -1  21   4 5835.07 378.677  15
   1  21  -3 921.715 223.848  37
  -1  21   3 861.500 254.292  15
  -1  21   2 1313.09 221.537  10
  -1  21   2 1285.96 210.687  11
  -1  21   1 2557.78 275.443  11
  -1  21   1 2639.58 306.036  10
   1  21  -1 2750.00 296.381  10
   1  21  -1 3272.98 309.303  35
   1  21   0 2153.10 238.262  10
  -1  21   0 2380.48 372.470  35
  -1  21   0 1874.17 262.232  11
  -1  21   0 1927.53 308.546  10
  -1  21  -1 412.706 191.926  11
  -1  21  -1 441.580 240.590  10
  -1  21  -1 568.225 289.889  35
  -1  21  -2 2035.86 300.077  35
  -1  21  -2 1375.33 229.565  11
   1  21   2 1859.12 250.927  15
  -1  21  -2 1644.03 332.267  37
  -1  21  -3 2793.48 260.190  11
  -1  21  -3 2437.67 209.148  35
  -1  21  -3 3875.19 336.910  10
   1  21   3 3279.52 237.433  15
   1  21   3 4219.31 329.709  14
  -1  21  -3 3900.62 326.146  37
  -1  21  -4 1580.95 212.495  33
  -1  21  -4 1342.25 148.360  11
  -1  21  -4 1156.77 124.574  37
  -1  22   4 3374.28 255.324  15
  -1  22   4 4114.25 313.330  14
  -1  22   3 667.510 213.344  15
   1  22  -2 6983.39 420.184  37
   1  22  -2 5986.16 392.698  10
  -1  22   2 6797.42 369.418  10
   1  22  -1 6407.81 382.288  10
  -1  22   1 7145.07 420.875  10
  -1  22   0 4437.02 401.824  35
  -1  22   0 4307.67 359.973  10
  -1  22  -1 408.132 291.061  37
  -1  22  -1 480.614 258.957  35
  -1  22  -1 611.552 223.991  10
  -1  22  -1 381.003 153.964  11
  -1  22  -2 4712.68 302.547  35
   1  22   2 5256.54 319.143  15
  -1  22  -3 1626.20 197.934  37
  -1  22  -3 1548.84 212.307  10
   1  22   3 1572.10 179.679  14
   1  23  -4 1809.33 159.218  10
  -1  23   4 2323.92 191.521  14
  -1  23   3 2416.77 232.204  15
   1  23  -3 2012.96 199.034  10
   1  23  -2 722.861 172.854  37
   1  23  -2 825.352 174.190  10
  -1  23   1 996.150 182.601  10
   1  23  -1 1239.18 165.265  10
  -1  23   1 1286.04 250.112  15
  -1  23   1 1321.69 279.186  35
   1  23   0 2894.98 226.552  35
  -1  23   0 3688.72 330.635  35
  -1  23   0 3082.13 273.694  10
  -1  23  -1 1818.90 229.682  35
  -1  23  -1 1905.82 289.218  37
   1  23   1 1738.94 211.959  15
  -1  23  -1 1467.52 223.389  10
  -1  23  -2 2149.74 258.219  37
   1  23   2 1587.11 152.689  15
   1  23   2 1964.97 199.157  14
  -1  23  -3 2351.45 188.776  10
  -1  24   2 2520.46 231.460  35
  -1  24   1 8603.97 406.997  15
  -1  24   1 8207.33 403.377  37
  -1  24   1 9183.82 399.734  35
   1  24   0 1267.94 175.534  15
  -1  24   0 1510.86 193.026  35
  -1  24   0 1442.24 175.750  10
  -1  24   0 1318.26 198.985  15
  -1  24  -1 4609.10 281.741  37
  -1  24  -1 4010.73 248.417  10
   1  24   1 3866.01 218.536  15
  -1  24  -2 2047.02 153.918  37
  -1  24  -2 2535.24 182.290  10
   2 -24  -2 1757.44 192.394  24
   2 -24  -2 1331.69 199.841  18
   2 -24  -1 11779.1 570.263  18
   2 -24  -1 14342.0 534.779  24
   2 -24   0 6901.36 343.330  24
   2 -24   0 6410.88 301.946  36
   2 -23  -4 3851.12 236.303  24
   2 -23  -4 2995.10 241.407  18
   2 -23  -3 3061.43 261.217  24
   2 -23  -3 2518.01 216.938  28
   2 -23  -3 2216.87 273.481  18
   2 -23  -2 5803.83 341.291  28
   2 -23  -2 5343.46 362.416  24
   2 -23  -2 4606.86 424.071  18
   2 -23  -1 7793.80 449.745  24
   2 -23  -1 6858.17 532.205  18
   2 -23   0 3100.92 300.316  24
   2 -23   0 3045.60 247.779  26
   2 -23   0 2419.42 371.605  18
   2 -23   1 1756.23 223.339  36
   2 -23   1 1434.22 282.010  18
   2 -23   1 1952.67 206.520  26
   2 -23   2 157.503 128.359  36
   2 -23   2 146.796 135.751  18
   2 -22  -4 1082.36 166.019  28
   2 -22  -3 1464.79 256.282  24
   2 -22  -3 1465.13 299.179  18
   2 -22  -3 1400.38 223.293  28
  -2 -22   2 479.893 217.455  24
   2 -22  -2 687.047 226.236  28
   2 -22  -2 673.049 327.623  18
   2 -22  -2 461.866 233.289  24
   2 -22  -1 4099.94 382.864  24
   2 -22  -1 3640.10 484.967  18
  -2 -22   1 3289.25 333.110  24
   2 -22  -1 3957.98 354.108  28
   2 -22  -1 3833.49 308.202  26
  -2 -22   0 1467.52 225.440  24
   2 -22   0 1221.43 239.102  26
   2 -22   0 970.273 277.225  24
   2 -22   0 817.857 366.976  18
  -2 -22  -1 2912.85 292.503  23
   2 -22   1 2992.51 321.183  36
   2 -22   1 2642.42 315.509  24
   2 -22   1 3181.23 303.484  26
   2 -22   1 1964.11 373.401  18
  -2 -22  -2 5255.83 326.934  23
   2 -22   2 5499.84 339.332  26
   2 -22   2 4707.31 332.982  36
   2 -22   3 6252.69 299.284  36
   2 -22   3 6837.36 302.760  31
   2 -21  -5 64.5072 108.443  28
   2 -21  -5 15.6192 161.128  18
   2 -21  -4 11126.2 502.020  28
   2 -21  -3 1082.57 237.989  28
   2 -21  -3 1053.53 260.441  21
   2 -21  -3 1089.82 383.642  18
   2 -21  -3 1340.08 293.945  24
  -2 -21   2 2116.11 329.003  24
   2 -21  -2 2402.42 339.140  21
   2 -21  -2 2824.87 512.743  18
   2 -21  -2 2841.66 334.001  28
   2 -21  -2 2497.67 350.601  24
   2 -21  -2 2646.95 277.766  26
  -2 -21   1 87.4901 212.674  24
   2 -21  -1 106.637 273.845  24
   2 -21  -1 98.9227 383.097  18
   2 -21  -1 138.893 238.185  21
   2 -21  -1-8.38003 207.509  26
   2 -21  -1 57.0408 253.353  28
   2 -21   0 7534.25 527.292  24
  -2 -21   0 7873.59 471.434  24
  -2 -21   0 7339.16 462.092  23
   2 -21   0 7406.72 712.815  18
   2 -21   0 7880.81 492.736  26
   2 -21   1 1910.14 331.524  24
  -2 -21  -1 2342.35 300.120  23
   2 -21   1 1584.48 262.794  21
  -2 -21  -1 2424.29 268.950  24
   2 -21   1 2395.04 328.003  26
   2 -21   2 3149.96 353.627  36
   2 -21   2 3870.59 341.481  26
   2 -21   3 1297.60 225.076  36
  -2 -21  -3 1670.94 205.031  23
  -2 -20   6 1204.25 130.843  31
  -2 -20   5 1011.08 187.300  31
   2 -20  -5 944.970 219.830  21
   2 -20  -5 1236.03 187.886  28
   2 -20  -5 1432.35 270.845  18
   2 -20  -4 400.089 244.268  21
   2 -20  -4 540.748 216.419  28
   2 -20  -3 7964.68 539.408  24
  -2 -20   3 6131.48 494.816  24
   2 -20  -3 5731.59 365.401  26
   2 -20  -3 6219.78 522.673  21
   2 -20  -3 7527.56 484.979  28
   2 -20  -2 20880.7 978.709  21
   2 -20  -2 24135.4 974.972  24
  -2 -20   2 19706.3 912.902  24
   2 -20  -2 24545.6 948.622  28
   2 -20  -2 23635.4 1285.84  18
   2 -20  -2 21301.0 844.973  26
   2 -20  -1 129.414 271.245  24
  -2 -20   1 64.0972 220.961  23
  -2 -20   1 154.446 255.400  24
   2 -20  -1-82.8519 242.653  21
   2 -20  -1 213.026 238.477  26
   2 -20  -1-155.879 420.927  18
   2 -20  -1 201.554 285.759  28
  -2 -20   0 3308.63 364.980  23
   2 -20   0 2354.87 366.841  21
  -2 -20   0 3075.34 354.381  24
   2 -20   0 3035.46 398.978  24
   2 -20   0 3033.53 375.561  26
   2 -20   1 1238.37 306.735  24
   2 -20   1 706.397 271.490  21
  -2 -20  -1 1355.96 249.975  24
  -2 -20  -1 1379.17 310.171  23
   2 -20   1 1362.35 322.591  26
   2 -20   2 2963.21 368.398  24
   2 -20   2 1850.22 300.460  21
   2 -20   2 3137.84 388.258  36
   2 -20   2 2586.49 250.110  30
   2 -20   2 2737.55 354.647  26
   2 -20   3 11910.1 571.899  36
   2 -20   3 12830.0 566.833  26
   2 -20   3 12762.5 481.326  30
   2 -20   4 4409.09 295.081  31
  -2 -20  -4 4611.05 255.380  23
   2 -20   4 3901.37 335.831  19
   2 -20   4 4304.03 240.482  30
  -2 -19   6 1347.74 205.161  31
   2 -19  -6 1821.13 173.684  28
   2 -19  -5 2574.95 365.137  18
   2 -19  -5 2609.39 348.330  21
  -2 -19   5 2520.55 285.826  31
   2 -19  -5 2720.26 276.636  28
   2 -19  -4 9102.57 635.247  21
  -2 -19   4 7488.89 459.162  31
   2 -19  -4 9386.73 524.362  28
  -2 -19   4 6895.89 498.299  19
   2 -19  -3 15449.8 862.685  21
  -2 -19   3 15384.1 809.337  24
   2 -19  -3 16388.6 749.735  28
   2 -19  -3 14202.3 642.546  26
  -2 -19   2 4869.06 474.858  24
   2 -19  -2 5502.36 491.876  24
   2 -19  -2 5066.64 521.762  21
   2 -19  -2 4994.31 414.589  26
   2 -19  -2 5611.71 752.396  18
   2 -19  -2 5816.27 474.038  28
   2 -19  -1 1141.41 293.395  26
  -2 -19   1 1089.80 316.624  24
   2 -19  -1 1062.45 347.661  21
   2 -19  -1 715.898 508.003  18
  -2 -19   1 924.860 266.146  23
   2 -19  -1 1200.04 327.797  28
   2 -19  -1 1424.13 352.507  24
  -2 -19   0 2603.55 338.330  24
  -2 -19   0 2411.05 351.948  23
   2 -19   0 2383.58 374.981  24
   2 -19   0 2148.25 388.463  21
   2 -19   0 2523.64 364.858  26
   2 -19   1 4222.42 472.717  21
   2 -19   1 4277.90 345.591  30
   2 -19   1 5138.26 488.343  24
   2 -19   1 5216.56 469.504  26
  -2 -19  -1 5219.05 405.846  24
  -2 -19  -1 4989.95 453.989  23
   2 -19   2 3366.76 411.006  24
   2 -19   2 3039.67 402.786  21
  -2 -19  -2 4583.97 353.448  24
   2 -19   2 4142.98 438.362  26
   2 -19   2 3674.06 331.148  30
  -2 -19  -2 4535.54 386.823  18
  -2 -19  -3 17297.4 677.105  23
   2 -19   3 14989.2 604.436  30
   2 -19   4 4796.17 337.400  31
  -2 -19  -4 5104.95 299.300  23
   2 -19   4 4645.40 433.683  19
   2 -19   4 4504.25 296.091  30
  -2 -18   7 47.7603 118.024  31
  -2 -18   6 3896.04 339.773  31
   2 -18  -6 2935.01 347.753  21
   2 -18  -6 3809.30 277.646  28
   2 -18  -5 11140.5 550.350  28
   2 -18  -5 9716.70 661.468  21
   2 -18  -5 11555.6 720.119  18
  -2 -18   5 9824.61 552.059  31
  -2 -18   5 8126.61 551.769  19
  -2 -18   5 8077.54 478.402  36
   2 -18  -4 6973.44 622.903  21
   2 -18  -4 6400.95 393.970  26
  -2 -18   4 6225.72 517.788  19
   2 -18  -4 7184.80 505.656  28
  -2 -18   4 6425.52 435.373  36
  -2 -18   4 7495.81 490.720  31
   2 -18  -3 3333.94 483.666  21
  -2 -18   3 3143.88 402.649  19
  -2 -18   3 3052.95 331.726  31
   2 -18  -3 3203.47 338.354  26
   2 -18  -3 3951.63 415.528  28
  -2 -18   3 3102.22 423.834  24
  -2 -18   2 26290.1 1090.73  24
  -2 -18   2 26221.3 962.909  23
   2 -18  -2 25493.8 995.495  26
   2 -18  -2 26739.7 1188.10  21
   2 -18  -2 26625.7 1055.39  28
   2 -18  -1 14821.0 730.390  26
   2 -18  -1 14506.9 775.595  24
   2 -18  -1 14668.6 858.667  21
  -2 -18   1 14063.5 707.099  23
  -2 -18   1 15719.4 779.144  24
   2 -18   0 833.788 306.483  24
  -2 -18   0 618.008 260.709  24
  -2 -18   0 972.008 290.267  23
   2 -18   0 932.132 361.456  21
   2 -18   0 621.229 296.921  26
   2 -18   1 9171.67 638.809  24
  -2 -18  -1 10457.4 584.973  24
  -2 -18  -1 9972.09 609.228  23
   2 -18   1 8186.55 658.278  21
   2 -18   1 8745.00 510.315  30
  -2 -18  -1 10143.2 632.228  18
   2 -18   1 9794.30 607.761  28
   2 -18   1 9544.18 614.546  26
  -2 -18  -2 5873.69 413.918  24
   2 -18   2 4620.80 471.769  24
   2 -18   2 5441.14 495.630  26
   2 -18   2 3902.33 487.851  21
  -2 -18  -2 5447.66 460.511  18
   2 -18   2 4570.77 390.115  30
   2 -18   3 11983.9 834.550  19
  -2 -18  -3 14553.1 663.011  23
  -2 -18  -3 13345.7 564.976  24
   2 -18   3 12922.8 605.739  30
  -2 -18  -4 2571.94 264.652  23
   2 -18   4 1013.75 264.753  21
   2 -18   4 1795.38 316.798  36
   2 -18   4 1973.96 266.666  30
   2 -18   4 1577.13 397.190  19
   2 -18   5 1421.87 249.044  19
  -2 -18  -5 1410.56 114.236  23
   2 -18   5 1449.41 204.260  36
   2 -18   5 1681.20 193.127  31
   2 -18   5 1856.62 192.089  30
  -2 -17   7 416.579 183.781  31
   2 -17  -6 1751.81 318.164  18
   2 -17  -6 1658.56 361.385  21
  -2 -17   6 1934.65 317.815  31
  -2 -17   6 1360.37 301.591  19
   2 -17  -6 1750.42 239.576  28
   2 -17  -5 2723.06 444.006  18
   2 -17  -5 2703.52 452.048  21
  -2 -17   5 2184.75 368.516  19
  -2 -17   5 2607.68 362.422  31
  -2 -17   5 2155.00 312.661  36
  -2 -17   5 2489.28 284.438  30
   2 -17  -5 2603.18 329.370  28
  -2 -17   4 443.733 241.926  36
   2 -17  -4 934.822 439.658  18
  -2 -17   4 690.530 270.398  31
   2 -17  -4 575.549 199.638  26
  -2 -17   4 742.753 195.820  30
   2 -17  -4 489.245 362.632  21
  -2 -17   4 347.481 299.814  19
   2 -17  -4 903.088 290.454  28
   2 -17  -3 19477.0 1021.73  21
  -2 -17   3 19039.7 932.050  24
   2 -17  -3 18358.9 788.212  26
  -2 -17   3 17569.5 791.574  31
   2 -17  -3 19659.8 866.092  28
  -2 -17   3 17619.3 897.768  19
  -2 -17   2 19316.6 791.974  23
  -2 -17   2 18829.1 901.510  19
   2 -17  -2 20455.8 894.772  28
   2 -17  -2 20015.6 1025.46  21
   2 -17  -2 19005.8 836.625  26
  -2 -17   2 18654.7 903.494  24
  -2 -17   1 28582.1 1095.78  24
   2 -17  -1 28036.7 1115.69  24
  -2 -17   1 24820.7 1004.70  23
   2 -17  -1 27002.8 1218.81  21
   2 -17  -1 28306.1 1065.73  26
  -2 -17   0 17804.3 854.600  23
  -2 -17   0 23196.8 912.557  24
   2 -17   0 21170.0 897.848  26
   2 -17   0 20590.2 911.119  24
   2 -17   0 16656.2 725.459  30
   2 -17   0 17425.0 860.688  28
   2 -17   0 19957.6 1024.40  21
   2 -17   1 4398.91 449.250  24
   2 -17   1 3616.42 405.347  28
   2 -17   1 3854.31 499.845  21
  -2 -17  -1 4574.66 449.904  18
   2 -17   1 3965.29 437.109  26
   2 -17   1 3922.08 369.807  30
  -2 -17  -1 3629.87 414.207  23
  -2 -17  -1 4986.17 415.652  24
   2 -17   2 58663.1 1890.38  24
   2 -17   2 60124.9 1873.57  26
   2 -17   2 52027.6 1967.44  21
   2 -17   2 58838.2 1768.84  30
  -2 -17  -2 66535.1 1979.19  18
  -2 -17  -3 4194.51 410.470  23
   2 -17   3 3855.51 390.114  30
   2 -17   3 3417.92 583.804  19
  -2 -17  -4 13264.5 573.730  23
   2 -17   4 12402.3 632.017  36
   2 -17   4 12263.7 783.818  19
   2 -17   4 12383.8 580.250  30
   2 -17   5 2046.41 233.301  30
  -2 -17  -5 1859.84 175.334  23
   2 -17   5 1881.70 252.024  36
   2 -17   5 1611.66 320.112  19
   2 -17   5 2243.71 245.833  31
   2 -16  -7 11679.2 457.043  28
  -2 -16   7 12667.7 568.885  31
  -2 -16   6 1316.55 351.200  19
   2 -16  -6 1637.50 350.923  18
   2 -16  -6 1663.03 391.601  21
   2 -16  -6 1637.72 271.859  28
  -2 -16   6 1975.26 349.277  31
  -2 -16   6 1699.41 268.132  30
  -2 -16   6 1202.46 214.466  25
   2 -16  -5 7985.24 678.986  21
  -2 -16   5 8337.43 492.276  30
  -2 -16   5 6834.76 500.342  36
   2 -16  -5 9885.86 731.149  18
  -2 -16   5 8683.18 575.309  31
   2 -16  -5 8055.02 527.981  28
  -2 -16   5 7404.57 619.625  19
  -2 -16   5 6557.02 415.329  25
   2 -16  -4 3305.15 322.275  26
   2 -16  -4 3617.82 513.488  21
  -2 -16   4 3018.60 358.496  36
   2 -16  -4 4356.84 617.112  18
   2 -16  -4 3050.63 381.044  28
  -2 -16   4 3231.44 388.932  31
  -2 -16   4 3203.65 316.631  30
  -2 -16   4 3381.92 458.432  24
  -2 -16   4 3036.84 442.204  19
   2 -16  -3 109558. 2907.93  26
  -2 -16   3 102929. 3041.92  24
  -2 -16   3 106423. 3082.20  19
   2 -16  -3 107086. 2971.59  28
  -2 -16   2 14305.8 658.964  23
   2 -16  -2 15453.2 754.300  28
   2 -16  -2 15095.7 886.417  21
  -2 -16   2 14257.4 764.542  24
  -2 -16   2 15506.2 802.005  19
   2 -16  -2 15305.4 735.180  26
   2 -16  -1 791.657 272.905  26
  -2 -16   1 755.380 240.898  23
   2 -16  -1 789.169 349.159  21
  -2 -16   1 745.870 260.690  24
   2 -16   0 1912.60 420.467  21
   2 -16   0 2160.78 336.936  26
  -2 -16   0 2648.69 339.113  24
   2 -16   0 2119.67 348.250  24
   2 -16   0 2124.12 328.886  28
   2 -16   0 1960.19 276.899  30
  -2 -16   0 2259.19 329.038  23
   2 -16   1 1687.24 346.709  26
   2 -16   1 1991.60 343.019  24
  -2 -16  -1 2047.19 343.622  23
  -2 -16  -1 2248.34 355.697  18
   2 -16   1 1967.22 419.857  21
   2 -16   1 2000.04 329.206  28
   2 -16   1 1586.72 283.234  30
   2 -16   2 24169.1 1220.57  21
   2 -16   2 26666.9 1035.76  30
  -2 -16  -2 32566.9 1238.75  18
   2 -16   2 26658.6 1113.03  24
   2 -16   2 30122.7 1409.74  19
  -2 -16  -3 51375.0 1697.16  18
   2 -16   3 49714.0 1604.09  26
   2 -16   3 48133.9 1524.70  30
  -2 -16  -3 50922.1 1570.22  23
   2 -16   3 48466.0 1898.15  19
  -2 -16  -4 6679.44 439.764  23
   2 -16   4 5912.94 484.083  36
   2 -16   4 5362.20 380.401  38
   2 -16   4 6094.70 654.260  19
   2 -16   4 5949.13 461.299  30
   2 -16   4 5773.22 457.222  26
  -2 -16  -5 5222.95 307.254  23
   2 -16   5 5150.26 398.748  36
   2 -16   5 4636.15 298.982  38
   2 -16   5 5472.51 515.906  19
   2 -16   5 5248.63 371.511  31
   2 -16   5 5683.78 373.710  30
   2 -16   6 4036.23 290.144  19
  -2 -15   8 128.838 90.3033  25
  -2 -15   8 147.383 143.037  31
  -2 -15   7 1954.80 237.580  25
  -2 -15   7 2302.01 348.508  19
  -2 -15   7 2453.90 345.275  31
   2 -15  -7 2343.87 243.260  28
  -2 -15   6 384.331 223.845  25
  -2 -15   6 333.576 279.220  36
   2 -15  -6 447.211 351.281  21
  -2 -15   6 453.974 330.399  19
  -2 -15   6 546.676 318.798  31
  -2 -15   6 433.830 231.172  30
   2 -15  -6 278.172 241.902  28
   2 -15  -6 267.369 299.351  18
   2 -15  -5 13610.0 608.267  26
   2 -15  -5 17509.1 957.565  18
  -2 -15   5 14459.2 678.282  30
   2 -15  -5 14907.0 736.747  28
  -2 -15   5 12765.5 699.785  36
  -2 -15   5 12290.1 617.502  25
  -2 -15   5 15702.6 781.628  31
  -2 -15   5 13878.4 850.363  19
   2 -15  -5 13944.2 902.937  21
   2 -15  -4 29452.4 1303.68  21
  -2 -15   4 23106.0 996.809  36
   2 -15  -4 32693.0 1430.02  18
   2 -15  -4 27299.6 985.690  26
  -2 -15   4 27201.9 1070.16  31
  -2 -15   4 25966.3 958.245  30
   2 -15  -4 27829.9 1085.08  28
  -2 -15   4 24579.9 1128.94  24
  -2 -15   4 25727.1 1185.82  19
   2 -15  -3 67010.2 2167.54  21
  -2 -15   3 64727.7 2065.99  19
   2 -15  -3 62936.1 1866.83  26
  -2 -15   3 58638.9 1830.57  36
   2 -15  -3 64521.9 1931.40  28
  -2 -15   3 63603.8 2012.35  24
  -2 -15   2 4402.45 357.596  23
  -2 -15   2 4902.95 449.491  24
  -2 -15   2 4432.68 443.722  19
   2 -15  -2 5553.48 544.870  21
   2 -15  -2 6227.98 447.756  26
   2 -15  -2 6144.97 461.325  28
   2 -15  -1 12080.0 638.629  26
  -2 -15   1 14082.1 679.452  24
  -2 -15   1 11704.9 606.658  23
   2 -15  -1 13229.7 790.767  21
   2 -15   0 15342.2 751.426  24
   2 -15   0 15383.7 874.690  21
  -2 -15   0 16928.9 745.914  24
   2 -15   0 16488.5 755.506  26
   2 -15   0 15061.1 722.173  28
   2 -15   0 14259.0 656.481  30
  -2 -15   0 14636.2 706.526  23
   2 -15   1 963.814 279.107  24
   2 -15   1 889.904 283.723  26
  -2 -15  -1 1134.15 277.142  23
   2 -15   1 1289.20 399.333  21
   2 -15   1 882.382 450.034  19
  -2 -15  -1 1141.98 294.277  18
   2 -15   1 695.050 248.473  28
   2 -15   1 886.461 247.868  30
   2 -15   2 10895.0 663.554  24
   2 -15   2 11935.8 891.880  19
   2 -15   2 10027.2 548.464  38
   2 -15   2 11358.3 640.563  30
   2 -15   3 4424.08 673.290  19
  -2 -15  -3 4881.30 491.621  18
   2 -15   3 3716.65 357.824  38
   2 -15   3 4189.06 464.501  36
  -2 -15  -3 4200.86 418.872  23
   2 -15   3 4017.81 425.744  30
   2 -15   3 4197.12 448.945  26
  -2 -15  -4 21412.5 843.432  23
   2 -15   4 21062.6 879.221  30
   2 -15   4 19433.4 1120.09  19
   2 -15   4 21940.3 925.475  36
   2 -15   4 18118.5 783.637  38
   2 -15   4 19683.6 855.463  26
  -2 -15  -5 2144.09 234.113  23
   2 -15   5 1775.28 304.057  36
   2 -15   5 1982.38 444.464  19
   2 -15   5 2116.42 295.259  31
   2 -15   5 2010.57 260.604  38
   2 -15   6 819.629 243.645  19
   2 -15   6 888.880 170.229  30
   2 -15   6 683.187 137.053  38
   2 -15   6 637.564 129.857  31
  -2 -14   8 168.979 170.315  19
  -2 -14   8 333.627 149.616  25
  -2 -14   7 1414.43 248.705  25
  -2 -14   7 1750.80 358.092  31
   2 -14  -7 1629.93 237.850  28
  -2 -14   7 1378.26 353.184  19
  -2 -14   7 1506.17 284.476  30
   2 -14  -6 1136.76 423.492  21
  -2 -14   6 1354.22 303.130  30
  -2 -14   6 1344.76 273.135  25
  -2 -14   6 1149.89 406.027  19
  -2 -14   6 1178.59 351.494  31
   2 -14  -6 1096.00 270.136  28
  -2 -14   6 1334.04 337.000  36
   2 -14  -6 2356.64 412.024  18
  -2 -14   5 730.635 293.391  36
   2 -14  -5 890.106 418.795  21
  -2 -14   5 819.541 255.651  30
   2 -14  -5 988.801 219.707  26
  -2 -14   5 641.785 319.847  31
  -2 -14   5 707.686 236.044  25
   2 -14  -5 856.908 290.164  28
  -2 -14   5 672.828 361.938  19
   2 -14  -5 701.880 364.498  18
   2 -14  -4 830.210 226.962  26
  -2 -14   4 849.684 327.149  24
   2 -14  -4 1896.52 493.582  18
  -2 -14   4 1252.25 318.385  31
  -2 -14   4 903.550 205.489  25
   2 -14  -4 862.517 399.990  21
  -2 -14   4 930.742 279.698  36
  -2 -14   4 756.781 227.504  30
   2 -14  -4 1197.13 287.581  28
  -2 -14   4 1222.05 358.762  19
   2 -14  -3 3947.20 574.072  18
   2 -14  -3 3634.36 468.090  21
  -2 -14   3 3314.25 336.633  36
   2 -14  -3 3896.26 354.866  26
  -2 -14   3 2625.74 309.802  26
  -2 -14   3 3373.18 413.350  19
  -2 -14   3 2616.02 373.315  24
   2 -14  -3 3814.80 382.005  28
   2 -14  -2 94779.8 2573.76  26
   2 -14  -2 92179.5 2586.69  28
   2 -14  -2 98595.4 2819.49  21
  -2 -14   2 89821.5 2480.83  23
  -2 -14   2 97667.0 2710.74  19
  -2 -14   2 102511. 2683.98  24
  -2 -14   1 19504.2 803.994  24
  -2 -14   1 18448.2 753.744  23
   2 -14  -1 18955.3 933.300  21
   2 -14  -1 18432.4 977.289  19
  -2 -14   1 18139.7 731.360  28
   2 -14  -1 18615.6 785.280  26
   2 -14   0 4230.59 391.038  26
   2 -14   0 3724.94 328.293  30
  -2 -14   0 4182.19 366.407  23
   2 -14   0 4560.50 504.543  21
   2 -14   0 4255.56 385.963  24
   2 -14   0 4044.40 530.329  19
   2 -14   0 4042.65 364.708  28
   2 -14   1 14146.7 708.729  26
   2 -14   1 15170.0 694.532  30
   2 -14   1 14365.8 712.680  24
   2 -14   1 15006.1 932.228  19
  -2 -14  -1 15466.9 727.020  23
   2 -14   1 13205.0 675.202  28
  -2 -14  -2 4430.30 460.776  18
   2 -14   2 2892.45 318.074  38
   2 -14   2 3257.66 381.979  30
   2 -14   2 3402.89 397.657  24
   2 -14   2 3527.17 575.895  19
   2 -14   3 4198.86 445.233  24
   2 -14   3 5698.69 472.410  30
  -2 -14  -3 5010.00 448.247  23
  -2 -14  -3 6236.17 552.880  18
  -2 -14  -3 5349.32 469.544  33
   2 -14   3 5494.47 437.630  38
   2 -14   3 4820.41 654.415  19
   2 -14   3 5562.58 474.100  26
   2 -14   4 14891.5 735.111  38
   2 -14   4 17370.3 1082.93  19
  -2 -14  -4 17045.9 756.834  23
   2 -14   4 16720.9 820.716  36
   2 -14   4 17256.1 805.601  30
  -2 -14  -4 17119.7 777.033  33
   2 -14   4 17550.2 801.543  26
   2 -14   5 8051.01 536.081  36
   2 -14   5 8526.94 725.712  19
  -2 -14  -5 8908.37 451.549  23
   2 -14   5 7880.32 471.622  38
   2 -14   5 8540.39 504.887  31
   2 -14   6 10777.5 458.558  38
   2 -14   6 10267.2 439.400  31
   2 -14   6 11656.6 480.162  30
   2 -14   6 9814.45 592.756  19
  -2 -13   8 12126.0 621.110  19
   2 -13  -8 11218.7 445.990  28
  -2 -13   8 12878.4 526.893  25
  -2 -13   7 3159.96 339.077  25
  -2 -13   7 3255.43 283.911  38
  -2 -13   7 2867.22 462.386  19
  -2 -13   7 3503.72 441.746  31
  -2 -13   7 4119.47 385.411  30
   2 -13  -7 3701.60 347.408  28
   2 -13  -6 16578.9 916.242  18
  -2 -13   6 15539.9 742.454  30
  -2 -13   6 13594.7 888.402  19
  -2 -13   6 13270.5 740.984  36
  -2 -13   6 13218.4 593.695  38
  -2 -13   6 14603.6 722.305  25
  -2 -13   6 14867.3 809.198  31
   2 -13  -6 14894.4 961.168  21
   2 -13  -6 15564.7 741.331  28
   2 -13  -5 24438.9 1018.85  28
  -2 -13   5 24725.3 1032.59  36
   2 -13  -5 24283.8 919.808  26
  -2 -13   5 25093.0 980.649  25
  -2 -13   5 26627.4 1000.30  30
  -2 -13   5 25801.6 1076.51  31
   2 -13  -5 25351.4 1255.59  21
  -2 -13   5 25011.7 1206.17  19
  -2 -13   4 20096.5 942.054  24
   2 -13  -4 21498.2 832.478  23
   2 -13  -4 21274.4 1070.55  21
   2 -13  -4 21120.9 900.818  28
  -2 -13   4 20967.0 1023.99  19
  -2 -13   4 18889.4 796.122  25
  -2 -13   4 20798.5 826.512  30
   2 -13  -4 21004.1 824.923  26
  -2 -13   4 20029.0 870.433  36
   2 -13  -3 4424.29 366.844  23
   2 -13  -3 5560.33 607.008  18
  -2 -13   3 3911.06 349.134  36
  -2 -13   3 4877.37 460.960  19
  -2 -13   3 4013.99 401.233  24
  -2 -13   3 3794.96 300.239  30
   2 -13  -3 5508.99 518.851  21
   2 -13  -3 4316.68 354.967  26
   2 -13  -3 4667.29 391.697  28
  -2 -13   3 3567.78 341.421  26
  -2 -13   2 13934.7 591.402  23
  -2 -13   2 14612.5 689.966  24
   2 -13  -2 13640.5 639.923  26
   2 -13  -1 10164.0 524.557  26
  -2 -13   1 8476.18 474.140  23
  -2 -13   1 9235.10 508.814  24
   2 -13  -1 10356.8 650.448  21
   2 -13  -1 9740.17 675.484  19
  -2 -13   1 8794.74 462.513  28
   2 -13  -1 8944.78 504.001  28
  -2 -13   0 19986.9 793.803  23
   2 -13   0 19334.1 793.674  24
   2 -13   0 19230.5 745.163  30
   2 -13   0 18169.1 763.366  28
   2 -13   0 18123.0 919.608  21
   2 -13   0 20616.2 1002.88  19
   2 -13   0 19156.9 783.932  26
   2 -13   1 709.551 232.722  24
  -2 -13  -1 1076.70 249.962  23
   2 -13   1 551.117 199.651  28
   2 -13   1 240.790 338.231  19
   2 -13   1 445.174 207.819  30
  -2 -13  -1 1058.27 281.671  18
   2 -13   2 3483.91 344.722  38
  -2 -13  -2 3914.70 430.297  18
   2 -13   2 3528.62 370.100  26
  -2 -13  -2 3774.15 387.612  33
   2 -13   2 3875.94 393.445  24
   2 -13   2 3665.19 382.386  30
   2 -13   2 4064.39 577.560  19
  -2 -13  -3 16328.7 870.369  18
  -2 -13  -3 16467.6 762.886  33
   2 -13   3 13773.0 760.404  24
  -2 -13  -3 15956.7 764.322  23
   2 -13   3 16104.5 1032.56  19
   2 -13   3 16175.5 767.871  26
   2 -13   3 15272.2 732.205  38
   2 -13   3 15535.9 765.448  30
  -2 -13  -4 14976.2 730.426  33
   2 -13   4 14472.8 726.471  26
  -2 -13  -4 14364.2 695.638  23
   2 -13   4 13884.6 992.599  19
   2 -13   4 14025.1 708.807  38
   2 -13   4 14869.9 772.055  36
  -2 -13  -5 2516.96 276.011  23
   2 -13   5 2119.22 351.647  36
   2 -13   5 2717.71 354.650  30
   2 -13   5 2181.54 316.293  31
   2 -13   5 1694.47 491.379  19
   2 -13   5 2155.62 320.804  38
  -2 -13  -5 2718.14 344.994  33
   2 -13   6 1414.57 341.125  19
   2 -13   6 1674.14 220.142  31
   2 -13   6 1490.29 238.375  38
   2 -13   6 1702.95 244.746  30
  -2 -12   8 4651.10 291.240  38
  -2 -12   8 3635.83 412.535  19
  -2 -12   8 4424.15 354.640  25
   2 -12  -8 3943.76 280.262  28
  -2 -12   7 3807.25 402.521  25
  -2 -12   7 4390.91 433.075  30
   2 -12  -7 3542.07 541.565  21
  -2 -12   7 3626.31 517.218  19
  -2 -12   7 3360.12 461.243  31
   2 -12  -7 4120.14 373.864  28
  -2 -12   7 3721.59 326.681  38
  -2 -12   6 2616.76 292.115  38
  -2 -12   6 2841.69 385.176  30
  -2 -12   6 2810.45 441.041  31
   2 -12  -6 2963.41 532.173  21
  -2 -12   6 2293.58 407.484  36
   2 -12  -6 2869.54 446.526  18
   2 -12  -6 2561.25 273.608  26
   2 -12  -6 2710.46 369.537  28
  -2 -12   6 2699.71 507.021  19
  -2 -12   5 32255.9 1211.91  36
   2 -12  -5 35193.3 1437.72  18
  -2 -12   5 33713.2 1245.05  31
   2 -12  -5 32084.2 1426.69  21
  -2 -12   5 33497.6 1164.90  30
   2 -12  -5 31368.8 1201.30  28
  -2 -12   4 2844.71 385.313  24
   2 -12  -4 3188.77 293.310  23
   2 -12  -4 3576.69 365.176  28
   2 -12  -4 3088.98 441.913  21
  -2 -12   4 2789.75 423.746  19
  -2 -12   4 3212.73 347.550  36
  -2 -12   4 2958.10 317.661  30
   2 -12  -3 37347.2 1210.16  23
  -2 -12   3 35660.6 1201.77  26
   2 -12  -3 40723.1 1280.48  28
   2 -12  -3 41194.0 1447.14  21
  -2 -12   3 36652.3 1147.80  25
   2 -12  -3 43664.1 1625.05  18
  -2 -12   3 39702.0 1391.69  19
  -2 -12   3 37131.2 1201.29  36
  -2 -12   3 34438.2 1127.20  30
   2 -12  -3 38316.9 1211.00  26
  -2 -12   3 33989.0 1255.33  24
   2 -12  -2 13414.8 583.963  26
  -2 -12   2 11532.9 583.329  24
   2 -12  -2 15021.4 752.276  21
  -2 -12   2 10254.5 494.373  23
   2 -12  -2 11464.3 567.769  23
  -2 -12   1 30674.5 1008.18  23
   2 -12  -1 30011.1 1180.91  21
   2 -12  -1 29468.9 1192.64  19
   2 -12  -1 30066.1 1025.05  26
   2 -12  -1 29279.4 1019.87  28
   2 -12   0 9452.24 499.603  24
   2 -12   0 9547.13 488.406  28
   2 -12   0 9098.39 636.316  19
  -2 -12   0 9005.90 494.061  23
   2 -12   0 9216.23 490.562  26
   2 -12   0 9346.88 472.207  30
   2 -12   1 31434.7 1145.77  24
   2 -12   1 35004.2 1407.99  19
   2 -12   1 35668.9 1163.09  30
  -2 -12  -1 42516.6 1382.31  18
  -2 -12  -1 40711.1 1232.60  23
   2 -12   1 31572.6 1125.13  28
   2 -12   2 7486.44 482.569  30
   2 -12   2 7642.42 497.985  24
  -2 -12  -2 6795.64 478.400  23
  -2 -12  -2 7838.87 565.537  18
   2 -12   2 7851.07 496.324  26
   2 -12   2 7194.76 673.650  19
  -2 -12  -3 13683.0 783.478  18
   2 -12   3 10822.4 661.478  24
   2 -12   3 12769.9 660.382  38
   2 -12   3 12341.6 669.310  30
  -2 -12  -3 13596.4 676.109  33
  -2 -12  -3 13002.2 679.835  23
   2 -12   3 13066.2 928.305  19
   2 -12   3 13319.3 679.346  26
  -2 -12  -4 5214.62 427.990  23
  -2 -12  -4 4565.28 441.643  33
   2 -12   4 5591.61 493.081  36
   2 -12   4 4998.54 455.643  38
   2 -12   4 4923.05 675.995  19
   2 -12   4 5699.56 458.561  26
  -2 -12  -5 10270.8 525.470  23
   2 -12   5 9979.08 594.109  38
   2 -12   5 9610.44 576.481  30
  -2 -12  -5 10255.5 576.247  33
   2 -12   5 9539.25 813.678  19
   2 -12   5 9823.46 565.087  31
   2 -12   5 9187.71 594.736  36
   2 -12   6 3235.73 478.404  19
  -2 -12  -6 3494.51 315.949  33
   2 -12   6 3422.47 311.741  30
   2 -12   6 3091.97 275.935  31
   2 -12   6 3561.49 330.033  38
   2 -12   7 1770.84 144.003  30
   2 -12   7 2103.14 230.238  19
  -2 -11   9 67.5155 124.525  19
  -2 -11   9 173.885 119.944  25
  -2 -11   8 10236.4 537.734  25
  -2 -11   8 10479.5 486.659  38
   2 -11  -8 8924.06 459.848  28
  -2 -11   8 9779.55 659.143  19
   2 -11  -7 1381.49 467.264  21
  -2 -11   7 1831.85 280.924  38
   2 -11  -7 1718.21 300.640  28
  -2 -11   7 1897.90 362.650  30
   2 -11  -6 11618.9 657.191  28
  -2 -11   6 10983.2 682.600  36
   2 -11  -6 12104.8 772.371  18
   2 -11  -6 11296.7 853.847  21
  -2 -11   6 10993.1 571.612  38
  -2 -11   6 11214.2 712.557  31
  -2 -11   6 11095.4 650.572  30
  -2 -11   5 7783.38 447.193  38
   2 -11  -5 8585.99 709.612  21
  -2 -11   5 8002.35 559.658  36
   2 -11  -5 8684.08 675.914  18
   2 -11  -5 8897.91 561.147  28
  -2 -11   5 8486.60 584.767  31
  -2 -11   5 8990.69 540.111  30
  -2 -11   4 931.122 275.782  24
   2 -11  -4 681.284 168.007  23
   2 -11  -4 766.731 309.667  21
  -2 -11   4 580.749 298.044  19
  -2 -11   4 958.509 228.893  30
  -2 -11   4 556.256 230.743  36
   2 -11  -4 1111.80 353.360  18
   2 -11  -4 978.779 240.759  28
   2 -11  -3 8876.32 595.931  21
  -2 -11   3 7133.61 476.727  24
   2 -11  -3 8192.88 444.164  23
  -2 -11   3 7957.44 452.712  36
  -2 -11   3 7668.08 410.192  30
  -2 -11   3 8412.00 558.621  19
  -2 -11   3 8351.23 430.882  25
   2 -11  -3 9094.14 500.033  28
   2 -11  -3 9871.79 697.061  18
  -2 -11   3 7529.43 444.808  26
   2 -11  -2 5705.30 359.302  26
   2 -11  -2 5913.49 468.863  21
  -2 -11   2 4710.83 353.361  24
   2 -11  -2 5499.68 363.214  23
   2 -11  -1 100053. 2559.02  21
   2 -11  -1 96295.5 2556.80  19
  -2 -11   1 83735.2 2272.96  23
   2 -11  -1 90263.5 2320.09  28
   2 -11  -1 91519.7 2320.53  26
   2 -11   0 87951.5 2586.36  19
   2 -11   0 96150.8 2379.14  26
  -2 -11   0 100942. 2405.07  23
   2 -11   0 88244.5 2338.53  28
   2 -11   0 97701.1 2350.03  30
   2 -11   1 1286.18 227.426  26
   2 -11   1 1346.54 202.524  28
   2 -11   1 1227.87 334.210  19
   2 -11   1 1566.54 233.789  30
   2 -11   1 1406.83 221.068  24
   2 -11   2 956.114 206.037  28
  -2 -11  -2 1438.06 280.103  18
   2 -11   2 1058.18 240.919  30
   2 -11   2 895.286 232.615  24
   2 -11   2 1208.23 241.203  26
   2 -11   2 497.431 329.990  19
   2 -11   3 5152.79 449.909  30
   2 -11   3 5298.40 441.968  38
   2 -11   3 4899.69 625.577  19
  -2 -11  -3 7052.20 552.029  18
  -2 -11  -3 6821.18 477.855  33
   2 -11   3 5418.70 427.276  26
   2 -11   4 35576.5 1266.85  36
   2 -11   4 31516.1 1512.27  19
  -2 -11  -4 34901.3 1210.01  23
   2 -11   4 33015.3 1223.90  38
   2 -11   4 32402.9 1212.71  30
   2 -11   4 32465.5 1194.68  26
   2 -11   5 18559.5 873.473  36
   2 -11   5 20848.4 899.820  38
  -2 -11  -5 20322.6 801.676  23
  -2 -11  -5 20959.1 868.740  33
   2 -11   5 21707.8 866.630  31
   2 -11   5 20882.1 863.733  30
   2 -11   5 18707.2 1134.08  19
   2 -11   6 2672.41 333.431  38
   2 -11   6 2084.74 248.196  31
   2 -11   6 2774.72 297.683  30
   2 -11   6 2278.47 451.523  19
   2 -11   7 639.423 217.772  19
   2 -11   7 903.673 167.388  38
   2 -11   7 798.766 125.610  30
  -2 -10   9 6652.06 338.650  25
  -2 -10   9 4189.05 347.108  19
  -2 -10   8 1082.27 336.454  31
  -2 -10   8 734.856 223.641  38
  -2 -10   8 655.437 268.439  25
   2 -10  -8 608.570 213.635  28
   2 -10  -7 40689.7 1377.25  28
   2 -10  -7 38233.3 1655.24  21
  -2 -10   7 41137.7 1322.95  38
  -2 -10   6 14346.9 786.354  36
  -2 -10   6 14708.3 687.590  38
  -2 -10   6 15226.8 830.443  31
   2 -10  -6 17895.8 924.089  18
   2 -10  -6 13782.7 972.265  21
  -2 -10   6 15346.4 1047.51  14
   2 -10  -6 15239.5 772.633  28
  -2 -10   6 14941.2 746.393  30
  -2 -10   5 39722.7 1361.94  31
   2 -10  -5 38862.9 1544.33  21
  -2 -10   5 36037.5 1308.83  36
  -2 -10   5 36135.3 1192.85  38
   2 -10  -5 43964.6 1564.02  18
  -2 -10   5 31150.2 1504.76  14
  -2 -10   5 38865.2 1279.29  30
   2 -10  -5 41719.6 1367.72  28
  -2 -10   4 14790.0 685.571  36
  -2 -10   4 13760.8 724.750  24
   2 -10  -4 16633.5 725.543  28
   2 -10  -4 15184.5 827.147  21
  -2 -10   4 15352.5 659.457  30
   2 -10  -3 37992.2 1182.55  23
   2 -10  -3 44643.9 1554.48  18
   2 -10  -3 47456.1 1459.98  21
  -2 -10   3 35241.8 1148.97  30
  -2 -10   3 42280.6 1298.92  24
  -2 -10   3 38038.8 1341.20  19
   2 -10  -3 42893.1 1278.06  28
  -2 -10   3 36966.3 1202.65  26
   2 -10  -2 61951.6 1985.65   6
   2 -10  -2 67274.0 1828.15  26
   2 -10  -1 220610. 4913.33  21
   2 -10  -1 196054. 4863.98  19
   2 -10   0 5299.13 407.361   6
   2 -10   0 2303.54 342.388  19
   2 -10   1 15588.5 638.565  26
   2 -10   1 16830.0 657.633  30
   2 -10   1 14695.4 808.788  19
  -2 -10  -1 19286.9 790.099  18
  -2 -10  -1 14846.2 567.018  34
   2 -10   1 14317.6 604.025  28
  -2 -10  -1 18998.6 711.651  23
   2 -10   1 15239.2 633.380  24
  -2 -10  -1 17008.5 658.925  33
   2 -10   2 10592.7 523.784  26
  -2 -10  -2 11201.3 634.034  18
   2 -10   2 10535.1 538.954  30
   2 -10   2 8828.51 513.065  24
   2 -10   2 9178.12 692.578  19
  -2 -10  -2 11982.6 582.367  23
   2 -10   2 9669.74 493.755  28
  -2 -10  -3 57090.0 1679.07  23
   2 -10   3 52302.7 1645.99  38
  -2 -10  -3 47766.1 1604.52  33
   2 -10   3 54828.7 1630.91  26
   2 -10   3 49266.6 1914.67  19
  -2 -10  -4 5650.74 469.981  33
   2 -10   4 6053.70 473.593  30
   2 -10   4 6272.16 492.404  36
   2 -10   4 6348.70 457.352  26
   2 -10   4 5659.33 477.978  38
  -2 -10  -5 5725.88 399.243  23
   2 -10   5 5522.90 485.976  36
   2 -10   5 6083.86 468.159  30
   2 -10   5 6026.69 497.881  38
  -2 -10  -5 5429.13 472.384  33
   2 -10   5 5456.16 688.070  19
   2 -10   5 6599.48 464.927  31
   2 -10   6 3275.16 378.264  38
   2 -10   6 2312.53 484.722  19
   2 -10   6 2645.47 288.546  30
   2 -10   6 2631.12 272.830  31
  -2 -10  -6 2722.48 324.633  33
   2 -10   7 1564.92 217.624  38
   2 -10   7 1366.82 154.816  30
   2 -10   7 1149.20 270.905  19
  -2  -9   9 4329.57 400.322  19
  -2  -9   9 5860.36 317.970  38
  -2  -9   8 11190.1 564.660  38
   2  -9  -8 9955.64 536.765  28
   2  -9  -8 9390.02 447.737   3
  -2  -9   8 9891.46 454.108   5
  -2  -9   8 11048.9 643.374  31
  -2  -9   7 509.782 190.531   5
   2  -9  -7 390.840 177.052   3
  -2  -9   7 107.612 515.440  14
  -2  -9   7 367.930 245.322  38
   2  -9  -7 308.375 453.938  21
   2  -9  -7-46.9441 241.619  28
  -2  -9   6 1435.80 532.053  14
   2  -9  -6 2115.53 255.566   3
   2  -9  -6 2100.98 484.753  21
   2  -9  -6 2610.04 404.721  18
  -2  -9   6 1808.64 385.814  31
  -2  -9   6 1794.60 371.944  36
   2  -9  -6 2044.57 339.000  28
  -2  -9   6 1614.58 233.582   5
  -2  -9   6 2601.29 349.535  30
  -2  -9   6 1556.14 282.604  38
  -2  -9   5 7767.54 688.312  14
  -2  -9   5 7490.93 445.448  38
   2  -9  -5 8291.64 669.373  21
   2  -9  -5 9711.30 648.379  18
  -2  -9   5 8672.61 567.616  31
  -2  -9   5 8092.22 493.023  30
  -2  -9   5 8093.38 538.644  36
   2  -9  -5 8161.10 527.929  28
  -2  -9   4 19461.6 979.085  14
   2  -9  -4 17529.3 888.376  21
   2  -9  -4 21238.4 1000.59  18
  -2  -9   4 19370.6 782.135  36
  -2  -9   4 19091.8 739.739  30
  -2  -9   4 20194.5 811.091  31
   2  -9  -4 19403.8 796.003  28
   2  -9  -3 96016.3 2640.96  21
   2  -9  -3 94404.2 2743.10  18
   2  -9  -3 93932.1 2487.44  28
   2  -9  -2 59407.3 1513.36   2
   2  -9  -2 59886.4 1511.88   1
   2  -9  -1 116609. 3001.30   6
   2  -9  -1 138642. 3070.97  21
   2  -9  -1 127389. 3033.23  19
   2  -9  -1 114083. 2637.44   1
   2  -9  -1 101737. 2655.76   2
   2  -9   0 53097.2 1456.16   2
   2  -9   0 57862.8 1422.61   1
   2  -9   1 11735.6 700.711  19
  -2  -9  -1 14786.5 577.899  33
  -2  -9  -1 15925.3 618.296  23
   2  -9   1 11858.3 550.800  30
   2  -9   2 1210.82 204.992  26
  -2  -9  -2 1167.61 221.051  23
  -2  -9  -2 1182.14 247.942  18
   2  -9   2 1114.16 337.877  19
   2  -9   2 1426.35 235.287  30
   2  -9   2 1247.41 213.856  24
   2  -9   3 15084.3 698.405  38
   2  -9   3 14892.9 685.242  30
  -2  -9  -3 15112.1 698.756  23
   2  -9   3 14385.7 653.598  26
  -2  -9  -4 12383.9 577.883   3
  -2  -9  -4 13637.2 694.668  33
  -2  -9  -4 12644.7 652.251  23
   2  -9   4 13704.4 676.218  30
   2  -9   4 13539.8 700.198  38
   2  -9   4 13183.1 683.105  36
   2  -9   4 14287.5 660.288  26
  -2  -9  -5 20845.0 828.045  23
   2  -9   5 20746.8 909.606  36
  -2  -9  -5 20897.0 809.149   3
   2  -9   5 21264.3 812.320   5
  -2  -9  -5 23496.5 941.837  33
   2  -9   5 22607.2 942.467  38
   2  -9   5 20116.9 850.258  31
   2  -9   5 21834.9 878.047  30
   2  -9   6 2312.14 502.203  19
  -2  -9  -6 2985.72 270.544   3
   2  -9   6 3328.02 396.955  38
  -2  -9  -6 2958.63 353.838  33
   2  -9   6 2461.80 260.001  31
   2  -9   6 3080.09 314.008  30
   2  -9   6 2475.23 257.134   5
   2  -9   7 10605.5 625.952  19
   2  -9   7 11666.3 443.084  30
  -2  -8   9 1391.65 231.150  25
  -2  -8   9 1716.14 220.801  38
   2  -8  -8 6194.18 381.527   3
  -2  -8   8 5386.57 368.446   5
  -2  -8   8 6147.90 511.531  31
  -2  -8   8 5631.92 667.148  14
   2  -8  -8 6866.24 468.479  28
  -2  -8   8 6595.16 456.751  38
   2  -8  -7 15776.8 710.160   3
  -2  -8   7 16134.4 1095.39  14
   2  -8  -7 17316.5 829.284  28
  -2  -8   7 17558.3 790.178  38
  -2  -8   7 16564.3 713.879   5
  -2  -8   7 17454.2 822.259  30
  -2  -8   6 35964.5 1334.62  36
   2  -8  -6 34989.9 1196.62   3
   2  -8  -6 34308.8 1535.40  21
  -2  -8   6 38048.8 1256.22  38
  -2  -8   6 34969.1 1167.19   5
  -2  -8   6 38368.0 1371.07  31
   2  -8  -6 36652.1 1319.49  28
  -2  -8   6 36687.6 1616.80  14
  -2  -8   5 7309.76 505.831  36
   2  -8  -5 7428.56 631.774  21
   2  -8  -5 9117.16 605.371  18
  -2  -8   5 7495.12 441.060  38
  -2  -8   5 6795.50 648.956  14
  -2  -8   5 7706.18 477.705  30
  -2  -8   5 8042.02 529.976  31
   2  -8  -5 8337.19 521.283  28
   2  -8  -4 395.259 232.097  18
  -2  -8   4 549.896 282.506  14
  -2  -8   4 574.041 214.289  22
   2  -8  -4 375.257 240.430  21
  -2  -8   4 650.673 155.361  38
  -2  -8   4 803.076 209.129  36
  -2  -8   4 842.651 227.343  31
  -2  -8   4 857.008 187.009  30
   2  -8  -4 454.789 183.562  28
  -2  -8   3 14686.5 653.141   7
   2  -8  -3 14887.7 714.544   6
   2  -8  -3 13425.9 536.939   8
  -2  -8   3 13193.2 694.611  14
   2  -8  -3 16295.0 717.254  21
   2  -8  -3 13540.9 492.753   1
   2  -8  -3 17109.6 795.001  18
   2  -8  -2 15982.3 496.971   2
   2  -8  -2 15978.5 494.263   1
   2  -8  -1 193436. 4220.47   1
   2  -8  -1 171475. 4215.44   2
   2  -8   0 133461. 3003.72   1
   2  -8   0 118087. 2989.61   2
   2  -8   1 35183.3 1065.63   2
   2  -8   1 30376.7 1177.80  19
   2  -8   2 5608.34 347.710  26
  -2  -8  -2 6922.62 419.326  23
  -2  -8  -2 6531.65 454.612  18
  -2  -8  -3 6814.43 380.727   3
  -2  -8  -3 7390.37 460.656  23
   2  -8   3 7409.54 472.915  38
   2  -8   3 6099.60 419.016  30
   2  -8   3 6051.77 394.311  26
   2  -8   3 6660.80 439.308  36
   2  -8   4 74782.7 2147.95  38
   2  -8   4 71147.0 2041.56  26
   2  -8   4 73218.1 2019.77   5
  -2  -8  -4 77349.9 2152.25  33
  -2  -8  -4 71135.2 2011.37   3
   2  -8   4 71085.4 2105.19  36
   2  -8   4 70287.3 2070.05  30
  -2  -8  -4 78313.5 2115.80  23
   2  -8   5 11746.8 664.545  38
   2  -8   5 10822.1 626.312  36
   2  -8   5 11268.0 575.406   5
   2  -8   5 11026.2 601.141  30
   2  -8   5 10706.3 572.272  31
  -2  -8  -5 11565.2 671.127  33
  -2  -8  -5 11133.6 571.651   3
  -2  -8  -6 3754.66 394.458  33
   2  -8   6 2918.17 302.274   5
  -2  -8  -6 3473.12 314.760   3
   2  -8   6 2588.20 303.399  30
  -2  -8  -7 2599.85 268.690  33
  -2  -8  -7 2285.53 206.352   3
   2  -8   7 2009.69 184.029  30
   2  -7  -9 877.720 170.530  28
   2  -7  -9 901.109 162.772   3
  -2  -7   9 1071.33 169.854   5
  -2  -7   9 1168.92 226.653  38
  -2  -7   9 1074.48 226.920  25
  -2  -7   8 21278.3 852.316  38
  -2  -7   8 19587.0 1154.94  14
  -2  -7   8 18454.6 884.761  31
   2  -7  -8 19320.1 834.514  28
  -2  -7   8 19662.9 773.755   5
   2  -7  -8 19767.9 769.005   3
  -2  -7   7 863.284 527.996  14
  -2  -7   7 1071.14 255.903   5
  -2  -7   7 764.342 279.204  38
  -2  -7   7 646.198 346.264  31
   2  -7  -7 752.523 239.262   3
  -2  -7   7 982.515 294.841  30
   2  -7  -7 980.622 302.511  28
   2  -7  -6 5190.54 482.496  18
  -2  -7   6 5516.67 654.122  14
   2  -7  -6 4358.59 366.795   3
  -2  -7   6 5039.75 415.337  38
  -2  -7   6 4568.80 360.656   5
  -2  -7   6 4665.12 454.050  36
   2  -7  -5 18812.9 843.057  18
  -2  -7   5 15867.4 731.375  36
  -2  -7   5 13900.2 604.291   5
  -2  -7   5 16367.4 785.525  22
  -2  -7   5 15636.1 661.557  38
  -2  -7   5 16994.1 762.500  31
  -2  -7   5 15993.3 686.510  30
  -2  -7   5 14954.7 878.286  14
  -2  -7   4 62082.6 1903.84  14
   2  -7  -4 65047.2 1848.03   6
   2  -7  -4 45589.0 1592.82   8
  -2  -7   4 61944.9 1746.23  22
   2  -7  -4 56931.2 1793.20   2
   2  -7  -4 63703.6 1594.99   1
  -2  -7   4 60120.3 1682.47  36
   2  -7  -4 72836.6 1953.02  18
  -2  -7   4 56078.9 1652.24   1
  -2  -7   4 65594.5 1728.31  31
  -2  -7   4 50710.7 1616.95  20
  -2  -7   4 61504.5 1649.36  30
   2  -7  -3 11348.3 459.182   8
  -2  -7   3 11439.4 546.396   7
  -2  -7   3 11350.1 473.776   1
   2  -7  -3 12110.4 608.548   6
   2  -7  -3 11359.3 432.086   1
   2  -7  -2 54595.3 1375.65   1
   2  -7  -1 130472. 3043.42   2
   2  -7  -1 128707. 3046.44   1
   2  -7   0 188923. 4410.94   2
   2  -7   0 187715. 4409.53   1
   2  -7   1 12445.6 535.286   2
  -2  -7  -1 13286.2 459.062   2
  -2  -7  -1 14225.4 654.088   8
  -2  -7  -2 31702.6 1012.11  23
   2  -7   2 26984.0 940.165  30
   2  -7   2 26855.3 894.027   1
  -2  -7  -2 33405.5 1098.52  18
   2  -7   2 27575.6 1065.17   2
  -2  -7  -2 30723.5 977.684  33
  -2  -7  -2 34602.4 1196.29   8
  -2  -7  -2 30505.4 934.250   2
   2  -7   3 9440.30 504.379  30
   2  -7   3 9842.69 513.473  36
  -2  -7  -3 10206.0 473.139   3
  -2  -7  -3 11374.8 559.568  23
   2  -7   3 9655.07 531.569  38
   2  -7   3 9708.84 479.734  26
  -2  -7  -4 8061.86 490.844  23
   2  -7   4 8263.99 526.633  38
   2  -7   4 6990.16 479.246  36
  -2  -7  -4 7067.32 440.156   3
  -2  -7  -4 8719.82 549.089  33
   2  -7   4 7564.77 471.671  30
   2  -7   4 7400.09 440.993  26
  -2  -7  -5 44488.0 1428.50  23
  -2  -7  -5 50304.5 1503.48   3
   2  -7   5 48561.5 1489.22  30
  -2  -7  -5 50558.6 1592.53  33
   2  -7   5 46125.7 1531.01  36
   2  -7   5 48696.5 1491.58   5
   2  -7   5 44783.0 1444.00  31
  -2  -7  -6 6641.46 433.008   3
  -2  -7  -6 6780.96 504.158  33
   2  -7   6 5440.37 408.831   5
   2  -7   6 5603.08 386.877  30
  -2  -7  -7 12310.4 519.148  13
   2  -7   7 9661.55 661.016  19
   2  -7   7 13981.1 534.486   5
   2  -7   7 10511.0 429.084  30
  -2  -7  -7 13596.1 569.368  33
  -2  -7  -7 13404.0 534.557   3
   2  -7   7 12662.9 562.663  38
  -2  -6   9 1755.75 420.296  14
  -2  -6   9 2257.26 271.589  25
  -2  -6   9 2744.72 252.511   5
  -2  -6   9 2907.40 298.963  38
   2  -6  -9 2433.80 235.145   3
   2  -6  -9 1912.08 226.350  28
  -2  -6   8 277.206 500.086  14
  -2  -6   8 697.447 249.455   5
  -2  -6   8 537.827 274.941  38
   2  -6  -8 808.028 231.353   3
  -2  -6   8 516.031 319.113  31
   2  -6  -8 522.436 257.157  28
  -2  -6   7 3918.15 629.555  14
   2  -6  -7 4779.18 410.057   3
  -2  -6   7 4780.69 413.172   5
  -2  -6   7 4753.33 438.618  38
  -2  -6   7 5033.48 525.406  31
  -2  -6   7 4522.83 431.167  30
  -2  -6   6 1738.33 469.113  14
  -2  -6   6 1575.80 253.897   5
  -2  -6   6 1737.09 286.366  38
   2  -6  -6 1763.38 277.101   3
  -2  -6   6 1707.93 288.780  30
  -2  -6   6 1072.54 399.816  15
  -2  -6   5 45080.7 1623.98  14
  -2  -6   5 45815.5 1487.61  22
  -2  -6   5 44613.6 1427.37  36
  -2  -6   5 45232.5 1353.94  38
   2  -6  -5 48279.7 1536.63  18
  -2  -6   5 46143.5 1453.13  31
   2  -6  -4 16267.0 727.921   8
  -2  -6   4 22852.1 886.159   7
  -2  -6   4 24150.5 963.024  14
   2  -6  -4 27937.0 961.490   6
   2  -6  -4 22916.9 931.499   2
  -2  -6   4 22510.6 781.192  30
   2  -6  -4 30063.0 1016.34  18
  -2  -6   4 23923.2 824.059   1
  -2  -6   4 25176.3 885.261  22
  -2  -6   4 19894.6 788.428  20
  -2  -6   4 22344.7 980.980  15
   2  -6  -4 23380.1 758.089   1
   2  -6  -3 21714.2 669.256   1
   2  -6  -3 22917.3 849.304   6
  -2  -6   3 23708.1 822.096   7
  -2  -6   3 21718.3 720.785   1
   2  -6  -2 113783. 2511.25   7
   2  -6  -2 113047. 2606.60   1
   2  -6  -1 95570.3 2298.51   2
   2  -6  -1 97475.6 2317.08   1
   2  -6   0 10147.1 383.411  39
   2  -6   0 10754.8 403.011   2
  -2  -6  -1 12982.9 596.234   8
   2  -6   1 10250.1 394.294  39
   2  -6   1 11256.6 487.817   2
  -2  -6  -1 12070.0 437.934   2
  -2  -6  -2 20814.9 860.506   8
   2  -6   2 18314.5 662.454   1
  -2  -6  -2 20317.5 801.159  18
   2  -6   2 20060.0 828.753   2
  -2  -6  -2 19933.0 691.026   2
  -2  -6  -3 40446.4 1171.28   3
   2  -6   3 35466.4 1134.59  26
   2  -6   3 35603.2 1206.24  38
   2  -6   3 38984.9 1196.94  36
  -2  -6  -3 43967.4 1272.51  23
  -2  -6  -3 39400.6 1120.74   4
  -2  -6  -3 41444.4 1195.76  37
   2  -6   3 37375.6 1176.08  30
   2  -6   4 3858.85 480.472  14
  -2  -6  -4 4891.95 381.566  23
  -2  -6  -4 5030.96 385.982  37
   2  -6   4 4816.85 373.787  30
  -2  -6  -4 4670.33 360.861   3
   2  -6   4 4526.51 379.843  36
   2  -6   4 4362.76 331.172  26
  -2  -6  -5 11673.0 666.848  33
   2  -6   5 8558.91 556.011  36
  -2  -6  -5 11218.3 585.346   3
   2  -6   5 10584.6 581.681   5
   2  -6   5 11035.4 640.985  38
  -2  -6  -5 9640.24 518.969  23
   2  -6   5 11182.6 564.623  30
   2  -6   5 9120.12 504.756  31
   2  -6   5 7241.48 671.121  14
  -2  -6  -6 14990.1 686.949   3
   2  -6   6 14363.2 711.898  38
   2  -6   6 13377.4 607.302  30
  -2  -6  -6 13959.4 737.507  33
   2  -6   6 14110.7 670.093   5
  -2  -6  -7 6267.30 401.611  13
  -2  -6  -7 6236.63 412.093  33
   2  -6   7 6706.24 422.256  38
  -2  -6  -7 7054.79 405.079   3
   2  -6   7 7137.57 413.147   5
   2  -6   8 14.2279 57.1165   5
   2  -6   8 54.2026 89.7200  38
  -2  -6  -8 61.7412 85.1178  33
  -2  -5   9 1476.29 419.095  14
   2  -5  -9 2148.61 240.041   3
  -2  -5   9 2249.97 259.669   5
  -2  -5   9 1852.53 260.638  25
  -2  -5   9 2011.87 283.614  38
   2  -5  -9 1434.98 221.128  28
  -2  -5   8 719.673 540.031  14
  -2  -5   8 1364.50 293.612   5
  -2  -5   8 1367.41 322.647  38
   2  -5  -8 1292.65 278.949   3
  -2  -5   8 1053.24 347.874  31
  -2  -5   7 2503.55 551.814  14
   2  -5  -7 2955.79 347.296   3
  -2  -5   7 2608.76 364.648  38
  -2  -5   7 2429.04 332.260   5
  -2  -5   7 2805.91 362.481  30
  -2  -5   7 2677.88 419.321  31
  -2  -5   6 17235.2 983.330  14
  -2  -5   6 15143.8 946.904  15
   2  -5  -6 16411.8 967.810  21
  -2  -5   6 16148.9 726.776  38
  -2  -5   6 16122.3 710.173   5
  -2  -5   6 15279.1 708.218  30
  -2  -5   5 7417.30 584.962  14
  -2  -5   5 7908.99 495.182  36
   2  -5  -5 9004.32 630.625  21
  -2  -5   5 7237.43 413.041   5
   2  -5  -5 9938.35 555.565  18
  -2  -5   5 7903.33 446.858  38
  -2  -5   5 7942.93 495.592  31
  -2  -5   5 8510.97 531.879  22
   2  -5  -4 40710.8 1289.05   6
  -2  -5   4 41992.8 1266.08  22
   2  -5  -4 41339.0 1355.55  21
   2  -5  -4 38957.6 1148.47   1
  -2  -5   4 39732.5 1218.92   1
  -2  -5   4 37750.9 1354.91  15
  -2  -5   4 38271.2 1321.43  14
   2  -5  -3 16583.6 562.023   8
  -2  -5   3 17216.2 672.728   7
   2  -5  -3 17226.8 559.588   1
   2  -5  -3 17788.7 722.763   6
  -2  -5   3 16647.5 609.605   1
   2  -5  -2 125893. 2853.34   1
   2  -5  -2 132708. 2790.37   7
   2  -5  -1 46717.7 1199.07   2
   2  -5  -1 48737.4 1234.03   1
   2  -5   0 87134.7 2142.40  39
   2  -5   0 89181.3 2158.52   2
  -2  -5  -1 84765.5 2062.59   2
   2  -5   1 80814.3 2118.84   2
   2  -5   1 79457.3 2029.36  39
   2  -5   2 27979.5 1031.34   2
  -2  -5  -2 30432.8 1053.21   8
   2  -5   2 26818.1 824.237  39
  -2  -5  -2 28814.6 898.995   2
   2  -5   3 9033.95 599.108  14
  -2  -5  -3 12402.1 576.265  23
   2  -5   3 11753.2 531.091  30
  -2  -5  -3 13303.4 558.098  35
  -2  -5  -3 12962.2 562.501  37
  -2  -5  -3 11992.5 531.659   3
   2  -5   3 11876.8 540.121  36
  -2  -5  -3 15067.8 535.850   4
  -2  -5  -4 60546.7 1715.89  23
  -2  -5  -4 58502.2 1688.17   3
   2  -5   4 56137.8 1683.96  36
   2  -5   4 57618.9 1658.38  30
   2  -5   4 59809.8 1746.39  38
  -2  -5  -4 62175.1 1688.60  37
   2  -5   5 5465.42 459.128  38
   2  -5   5 4441.07 535.041  14
  -2  -5  -5 4883.25 371.211  23
  -2  -5  -5 5381.83 426.569   3
   2  -5   5 5108.44 435.846   5
   2  -5   5 4862.38 417.707  36
   2  -5   5 4700.72 369.222  30
  -2  -5  -5 5715.96 507.968  33
   2  -5   6 24232.0 859.445  30
   2  -5   6 25902.3 996.142  38
  -2  -5  -6 27999.3 1000.66   3
   2  -5   6 27695.9 996.285   5
  -2  -5  -6 27435.8 1056.61  33
  -2  -5  -7 1470.26 233.180   3
   2  -5   7 1333.34 251.348   5
  -2  -5  -7 1248.86 275.337  33
  -2  -5  -7 1487.03 255.639  13
   2  -5   7 1244.76 245.572  38
   2  -5   8 686.302 115.262  38
  -2  -5  -8 819.470 121.043   3
  -2  -5  -8 760.488 131.745  33
   2  -5   8 769.127 121.619   5
   2  -4 -10 4025.64 230.171  13
  -2  -4  10 3770.39 190.985   5
  -2  -4   9 4871.98 569.084  14
   2  -4  -9 5739.06 368.759   3
   2  -4  -9 4569.75 347.044  28
  -2  -4   9 5329.78 373.886   5
   2  -4  -9 5580.70 325.043  17
  -2  -4   9 4894.56 359.102  25
  -2  -4   8 1797.30 571.642  14
  -2  -4   8 2110.09 341.638   5
   2  -4  -8 2152.92 326.159   3
  -2  -4   8 2172.84 385.305  31
  -2  -4   7 28315.8 1337.98  14
  -2  -4   7 26113.5 1009.68   5
  -2  -4   7 27441.3 1048.95  38
  -2  -4   7 23506.3 955.304  30
  -2  -4   7 25061.3 1074.47  31
   2  -4  -7 26132.3 1012.00   3
  -2  -4   7 20852.7 1225.87  15
  -2  -4   6 7289.06 482.606  38
  -2  -4   6 7845.82 537.030  31
  -2  -4   6 7860.64 478.999   5
  -2  -4   6 7812.13 478.514  30
   2  -4  -6 7420.88 670.296  21
  -2  -4   6 8796.37 699.164  14
  -2  -4   6 7033.84 649.715  15
  -2  -4   5 98110.0 2723.81  14
   2  -4  -5 104470. 2633.32  18
   2  -4  -5 93397.6 2744.47  21
  -2  -4   5 94033.6 2549.17  36
  -2  -4   5 88697.2 2441.66   5
  -2  -4   5 95362.4 2483.79  38
  -2  -4   5 97114.0 2610.31  22
  -2  -4   5 92354.5 2470.11  30
   2  -4  -4 33787.9 1035.42   1
   2  -4  -4 34940.3 1135.54   6
  -2  -4   4 36040.9 1154.85   7
  -2  -4   4 36814.1 1140.68  22
  -2  -4   4 34143.7 1223.48  15
   2  -4  -4 33384.9 1198.62  21
  -2  -4   4 37886.7 1125.68   1
  -2  -4   4 34768.3 996.093  39
  -2  -4   3 75044.6 1832.36  39
  -2  -4   3 73351.4 1894.80   1
   2  -4  -3 77195.5 1844.37   1
   2  -4  -2 47555.3 1158.09   7
   2  -4  -2 50332.9 1216.21   1
   2  -4  -1 358034. 8145.92   2
   2  -4  -1 355201. 8176.85   1
   2  -4  -1 360819. 8186.73  39
   2  -4   0 187040. 4339.06  39
   2  -4   0 184845. 4339.19   2
  -2  -4  -1 120545. 2899.15   2
   2  -4   1 116368. 2883.73  39
   2  -4   1 115463. 2938.96   2
   2  -4   2 19245.4 794.676   2
   2  -4   2 18572.5 649.642  39
  -2  -4  -2 18940.3 679.713   2
  -2  -4  -2 20264.0 791.101   8
   2  -4   3 7444.19 506.344  14
  -2  -4  -3 10049.6 501.803  23
  -2  -4  -3 9135.16 456.773   3
  -2  -4  -3 9876.95 471.037  37
   2  -4   3 8951.75 477.734  38
  -2  -4  -3 11076.4 455.090   4
   2  -4   3 8543.04 430.967  30
  -2  -4  -3 9042.72 504.042  33
  -2  -4  -3 10795.1 502.778  27
  -2  -4  -4 23890.8 885.054  23
   2  -4   4 22249.3 820.859  30
   2  -4   4 24239.1 909.923  38
  -2  -4  -4 24038.2 881.022   3
   2  -4   4 22484.5 856.315  36
  -2  -4  -4 25031.9 873.536  37
  -2  -4  -5 5195.08 423.383   3
   2  -4   5 3789.62 495.927  14
  -2  -4  -5 4121.84 340.071  23
   2  -4   5 4234.63 340.892  30
   2  -4   5 5036.81 433.607  38
   2  -4   5 5304.75 437.474   5
  -2  -4  -5 4787.21 418.339  37
  -2  -4  -6 9741.68 605.565  13
  -2  -4  -6 10020.0 628.554  33
   2  -4   6 9201.88 565.319   5
   2  -4   6 8711.14 551.476  38
   2  -4   6 7883.16 427.361  30
  -2  -4  -6 10163.3 580.963   3
  -2  -4  -7 466.849 214.078   3
   2  -4   7 538.887 216.670  38
   2  -4   7 737.399 248.285   5
  -2  -4  -7 557.834 245.910  13
  -2  -4  -7 477.935 261.892  33
  -2  -4  -8 230.730 112.233   3
  -2  -4  -8 33.2034 88.0878  13
   2  -4   8 266.580 99.6646  38
   2  -4   8 157.158 115.022   5
  -2  -4  -8 256.351 131.023  33
   2  -3 -10 277.839 86.6468   3
   2  -3 -10 433.403 121.468  13
  -2  -3  10 415.262 105.217   5
  -2  -3   9 1329.62 236.410  25
  -2  -3   9 1579.13 459.904  14
   2  -3  -9 1887.91 236.646  17
  -2  -3   9 2104.80 289.843  38
   2  -3  -9 1530.55 248.512  28
   2  -3  -9 1847.14 253.603   3
  -2  -3   9 1927.16 273.415   5
  -2  -3   8 37019.0 1288.63   5
  -2  -3   8 36615.9 1614.30  14
   2  -3  -8 37320.3 1278.76   3
  -2  -3   7 4468.43 592.844  14
  -2  -3   7 4646.51 501.606  22
   2  -3  -7 4753.93 432.389   3
  -2  -3   7 4037.89 408.806   5
  -2  -3   7 4802.47 483.245  31
  -2  -3   7 3523.37 563.891  15
  -2  -3   6 6643.34 599.453  14
  -2  -3   6 7494.10 469.814  38
  -2  -3   6 7252.70 540.877  22
  -2  -3   6 6591.88 444.743   5
   2  -3  -6 6212.20 601.148  21
  -2  -3   6 6801.94 616.198  15
  -2  -3   6 6956.73 441.996  30
  -2  -3   6 6657.42 500.178  31
  -2  -3   5 44649.9 1320.36  38
   2  -3  -5 43783.8 1305.53   6
   2  -3  -5 44718.9 1549.44  21
  -2  -3   5 43109.5 1298.41   5
  -2  -3   5 40977.9 1373.97  20
  -2  -3   5 43926.8 1305.80  30
  -2  -3   5 41783.1 1505.15  15
   2  -3  -4 15565.4 581.048   1
  -2  -3   4 15032.5 642.584   7
  -2  -3   4 15524.7 548.818  39
   2  -3  -4 15768.3 627.188   6
  -2  -3   4 14986.2 632.143  22
  -2  -3   4 15916.9 623.578   1
  -2  -3   4 14212.3 685.533  15
  -2  -3   3 202327. 4554.14  39
   2  -3  -3 195565. 4550.37   1
   2  -3  -2 3708.04 226.074   1
   2  -3  -2 3639.22 199.421   7
  -2  -3   2 4235.75 255.614   1
  -2  -3   2 3854.83 248.679  39
   2  -3  -1 124762. 2879.97   2
   2  -3  -1 123774. 2912.37  39
   2  -3  -1 118454. 2908.40   1
  -2  -3   0 35004.8 909.788   2
   2  -3   0 32938.8 927.082  39
  -2  -3   0 33485.7 993.003   8
   2  -3   0 33900.0 930.839   2
  -2  -3  -1 50001.3 1371.82   8
   2  -3   1 45441.2 1308.54   2
   2  -3   1 48042.2 1287.34  39
  -2  -3  -1 46796.8 1354.26   9
  -2  -3  -1 48001.9 1269.59   2
  -2  -3  -2 99859.5 2469.21   8
   2  -3   2 102199. 2531.61   2
  -2  -3  -2 102412. 2374.61   2
  -2  -3  -2 107911. 2485.12   9
  -2  -3  -3 28918.4 1082.46   8
  -2  -3  -3 31516.4 965.646  37
   2  -3   3 28162.7 1179.97   2
  -2  -3  -3 29103.2 959.487   3
   2  -3   3 28979.2 978.202  38
  -2  -3  -3 27633.7 903.485   4
   2  -3   3 30303.2 981.204   1
  -2  -3  -3 29664.5 1016.72  33
   2  -3   4 665.730 277.874  14
  -2  -3  -4 700.882 202.914   3
  -2  -3  -4 581.489 186.790  23
   2  -3   4 766.329 218.537  38
   2  -3   4 698.411 193.903  36
  -2  -3  -4 640.107 246.362  35
   2  -3   4 556.832 163.501  30
  -2  -3  -4 748.838 228.070  37
  -2  -3  -5 779.997 258.148   3
   2  -3   5 554.262 309.577  14
   2  -3   5 628.028 263.659  38
  -2  -3  -5 606.406 266.196  37
   2  -3   5 464.178 169.842  30
   2  -3   6 1841.58 317.155  38
  -2  -3  -6 2081.25 368.199  13
   2  -3   6 1332.75 366.331  14
   2  -3   6 2172.94 353.404   5
  -2  -3  -6 1825.94 397.760  33
  -2  -3  -6 2034.80 336.191   3
  -2  -3  -7 24943.4 928.435  33
  -2  -3  -7 25252.1 933.001  13
   2  -3   7 21692.5 833.966  38
  -2  -3  -7 23558.2 891.764   3
   2  -3   7 24782.0 903.866   5
  -2  -3  -8 4668.85 271.280  33
  -2  -3  -8 5373.44 282.526   3
   2  -3   8 5466.98 283.174   5
  -2  -3  -8 4711.54 259.902  13
   2  -2 -10 1441.64 160.699  13
   2  -2 -10 1528.44 147.114   3
  -2  -2  10 1723.68 158.532   5
   2  -2  -9 1457.44 246.228   3
  -2  -2   9 1063.66 218.346  25
  -2  -2   9 1126.14 409.800  14
  -2  -2   9 1515.78 268.186  38
  -2  -2   9 1349.75 274.060   5
   2  -2  -9 1544.14 243.277  17
  -2  -2   8 2335.98 571.869  14
  -2  -2   8 1990.15 474.585  15
   2  -2  -8 3426.55 393.078   3
  -2  -2   8 2365.38 366.199   5
  -2  -2   8 2920.57 377.063  38
   2  -2  -7 39662.2 1348.04   3
  -2  -2   7 40951.9 1624.87  14
  -2  -2   7 38428.6 1396.67  31
  -2  -2   7 36689.7 1411.68  22
  -2  -2   7 37064.5 1588.58  15
  -2  -2   7 39121.5 1336.15   5
  -2  -2   6 56573.0 1922.98  15
  -2  -2   6 57609.0 1905.44  14
  -2  -2   6 56270.3 1774.95  22
  -2  -2   6 55281.1 1660.04   5
  -2  -2   6 55067.0 1728.44  31
  -2  -2   6 54020.2 1626.44  30
  -2  -2   5 74060.6 2008.46  30
   2  -2  -5 73372.9 2258.90  21
  -2  -2   5 71106.6 2092.42  20
  -2  -2   5 77609.9 2039.43  38
  -2  -2   5 71984.4 2011.17   5
  -2  -2   5 81895.8 2135.10  31
  -2  -2   5 66874.5 2200.99  11
  -2  -2   5 83042.8 2272.29  15
  -2  -2   5 82018.6 2242.31  14
  -2  -2   4 69383.6 1924.42   7
   2  -2  -4 69539.9 1876.51   6
  -2  -2   4 70677.6 1822.27  39
   2  -2  -4 72174.1 1858.23   1
  -2  -2   4 71747.2 1920.36   1
  -2  -2   3 17990.5 632.527   1
   2  -2  -3 18539.2 588.996   1
  -2  -2   3 18461.9 596.727  39
   2  -2  -2 191217. 4404.38   7
  -2  -2   2 182212. 4457.02   1
  -2  -2   2 197870. 4458.82  39
   2  -2  -2 190145. 4430.05   1
   2  -2  -1 37704.8 811.134   2
   2  -2  -1 36616.7 843.281  39
  -2  -2   0 35338.9 1046.64   8
   2  -2   0 40450.6 1046.04  39
   2  -2   0 38704.0 1021.70   2
  -2  -2   0 37981.7 999.894   2
  -2  -2   0 37260.8 1071.72   9
  -2  -2  -1 75499.3 1874.40   8
   2  -2   1 68757.5 1828.92  39
   2  -2   1 70195.1 1846.24   2
  -2  -2  -1 74244.1 1810.28   2
  -2  -2  -1 68076.5 1867.34   9
  -2  -2  -2 39989.0 1173.50   8
  -2  -2  -2 41366.5 1129.10   2
   2  -2   2 39052.3 1219.18   2
   2  -2   2 37307.1 1111.71  39
  -2  -2  -2 37575.3 1156.38   9
   2  -2   3 97606.3 2347.85   1
  -2  -2  -3 88189.5 2360.84  33
   2  -2   3 72774.4 2220.83   6
   2  -2   3 99664.5 2663.29   2
  -2  -2  -3 95059.7 2309.73  37
   2  -2   3 89595.6 2368.25  39
  -2  -2  -3 89490.8 2309.70   3
  -2  -2  -3 91422.2 2450.92   8
  -2  -2  -3 81681.0 2237.43   4
  -2  -2  -3 106080. 2439.94   2
  -2  -2  -3 80437.7 2370.21   9
   2  -2   4 15225.7 773.334  14
  -2  -2  -4 18313.0 708.878  35
   2  -2   4 15451.3 655.353  36
   2  -2   4 16736.3 704.907  38
  -2  -2  -4 16770.3 712.406   3
  -2  -2  -4 17896.2 706.917  37
  -2  -2  -4 17643.0 705.632  23
  -2  -2  -4 16408.7 648.011  17
   2  -2   4 15129.7 613.121  30
   2  -2   5 6457.35 566.989  14
  -2  -2  -5 8584.68 517.389  35
   2  -2   5 8341.29 516.839  38
  -2  -2  -5 7369.27 479.883  37
  -2  -2  -5 7687.40 518.047   3
  -2  -2  -5 7482.45 448.800  17
  -2  -2  -6 5852.82 418.051  37
   2  -2   6 5714.19 482.550   5
   2  -2   6 5487.73 437.330  38
  -2  -2  -6 5778.19 387.841  17
  -2  -2  -6 5994.74 531.024  13
  -2  -2  -6 6583.76 498.832   3
  -2  -2  -7 1355.74 317.484  33
  -2  -2  -7 1754.08 312.806  13
  -2  -2  -7 1898.22 291.980   3
   2  -2   7 1987.24 257.584  38
   2  -2   7 2180.82 316.669   5
  -2  -2  -8 2554.48 222.410  13
  -2  -2  -8 3004.49 227.023   3
  -2  -2  -8 2629.83 221.208  33
   2  -2   8 2829.81 225.798   5
  -2  -1  10 1774.76 165.265   5
   2  -1 -10 2021.49 166.317   3
  -2  -1   9 1275.49 206.653  25
  -2  -1   9 1344.26 420.182  14
   2  -1  -9 1452.11 249.034  17
   2  -1  -9 1530.36 267.332   3
  -2  -1   9 1347.28 278.658   5
  -2  -1   8 3667.04 667.015  14
   2  -1  -8 4276.73 439.068   3
  -2  -1   8 4340.09 440.728   5
  -2  -1   8 4558.68 433.744  38
  -2  -1   8 3775.89 546.344  15
  -2  -1   7 3402.06 543.112  14
  -2  -1   7 3412.53 431.342  22
   2  -1  -7 3474.59 394.063   3
  -2  -1   7 3502.50 392.060   5
  -2  -1   7 3208.42 408.098  31
  -2  -1   7 4195.36 406.209  38
  -2  -1   7 2998.49 491.314  15
  -2  -1   6 10600.3 706.331  14
  -2  -1   6 10452.9 615.419  22
  -2  -1   6 10118.3 684.323  15
  -2  -1   6 10295.6 606.216  31
  -2  -1   6 10404.0 560.515   5
  -2  -1   5 4231.03 297.479  39
  -2  -1   5 3649.35 321.546   7
  -2  -1   5 3556.46 407.102  11
  -2  -1   5 4286.80 301.789  30
   2  -1  -5 3388.06 392.371  21
  -2  -1   5 3517.31 374.420  10
  -2  -1   5 4278.16 314.521   5
  -2  -1   5 4794.51 416.214  14
  -2  -1   5 3155.44 357.677  20
  -2  -1   5 4169.03 353.320  31
  -2  -1   5 3969.78 353.673  22
  -2  -1   5 4548.00 423.722  15
  -2  -1   4 182683. 4154.29   7
  -2  -1   4 170340. 4046.17  39
  -2  -1   4 178355. 4131.89   1
   2  -1  -4 170956. 4057.49   1
  -2  -1   3 237578. 5485.26   7
   2  -1  -3 234314. 5416.89   1
  -2  -1   3 242972. 5425.95  39
   2  -1  -2 173771. 4092.02   7
  -2  -1   2 169234. 4136.51   1
   2  -1  -2 174786. 4106.90   1
  -2  -1   1 92411.4 2044.47   9
   2  -1  -1 91747.8 2001.29   2
   2  -1  -1 88174.3 2040.19   1
   2  -1  -1 85307.0 2025.84  39
  -2  -1   0 3558.92 233.263   8
  -2  -1   0 3639.99 263.483   9
  -2  -1   0 3950.99 211.445   2
   2  -1   0 3274.73 249.430  39
   2  -1   0 3212.81 214.066   2
  -2  -1  -1 29071.3 857.237   8
   2  -1   1 27205.7 858.717   2
   2  -1   1 27115.7 860.994  39
  -2  -1  -1 28524.8 826.670   2
   2  -1   2 308686. 7110.17   2
  -2  -1  -2 324527. 6987.24   2
  -2  -1  -2 311399. 7024.03   9
  -2  -1  -3 584.509 169.702   3
  -2  -1  -3 942.497 182.852   4
  -2  -1  -3 669.660 167.738   2
   2  -1   3 536.816 149.202   6
  -2  -1  -3 584.032 194.033  27
  -2  -1  -3 469.992 160.453   8
  -2  -1  -3 566.862 155.841  17
  -2  -1  -3 640.152 186.018   9
  -2  -1  -3 770.032 196.916  37
   2  -1   3 640.774 254.047   2
   2  -1   3 461.886 159.839   1
  -2  -1  -3 442.649 197.214  33
  -2  -1  -4 9841.19 511.220  23
  -2  -1  -4 10371.4 546.739   3
   2  -1   4 10255.6 523.707  38
  -2  -1  -4 10574.7 508.204  17
  -2  -1  -4 11380.5 602.718  33
  -2  -1  -4 10566.6 536.396  35
  -2  -1  -4 10616.1 534.582  37
   2  -1   4 8584.49 562.892  14
  -2  -1  -4 11179.6 553.785  27
  -2  -1  -5 17058.3 736.217  35
   2  -1   5 14904.5 701.330  38
  -2  -1  -5 17154.8 714.035  17
  -2  -1  -5 17768.0 736.385  37
  -2  -1  -5 17533.8 783.971   3
   2  -1   6 2393.21 405.204  14
  -2  -1  -6 3595.21 454.284  13
  -2  -1  -6 3438.51 398.999   3
  -2  -1  -6 2967.23 330.003  37
   2  -1   6 3076.91 337.990  38
   2  -1   6 3262.34 399.764   5
  -2  -1  -6 3330.65 329.159  17
  -2  -1  -7 7252.09 511.510  13
   2  -1   7 6780.20 464.731   5
   2  -1   7 6118.42 379.983  38
  -2  -1  -7 6851.88 467.904   3
  -2  -1  -7 6836.99 500.351  33
  -2  -1  -8 1189.17 172.232   3
  -2  -1  -8 1098.97 191.950  13
   2  -1   8 1238.81 182.941   5
  -2  -1  -8 1126.58 185.278  33
   2   0 -10 78.7922 99.7055  13
   2   0 -10 244.322 91.5898  17
  -2   0   9 1277.30 187.582  25
  -2   0   9 2197.50 476.370  14
   2   0  -9 2143.77 329.095  13
   2   0  -9 2442.15 296.470  17
  -2   0   8 11593.2 863.872  14
  -2   0   8 11053.5 613.703  38
  -2   0   7 1006.76 444.264  14
  -2   0   7 1130.16 321.016  22
  -2   0   7 1211.35 290.663  38
  -2   0   7 896.138 367.998  15
  -2   0   6 19861.6 787.692  38
  -2   0   6 18105.1 827.530  22
  -2   0   6 19108.3 835.769  31
  -2   0   6 16471.5 941.862  11
  -2   0   6 17508.5 906.534  14
  -2   0   6 20448.2 954.637  15
  -2   0   5 110800. 2859.19  15
  -2   0   5 104047. 2748.72  22
  -2   0   5 97622.5 2726.20   7
   2   0  -5 103704. 2906.54  21
  -2   0   5 101628. 2874.57  11
  -2   0   5 101642. 2732.01  12
  -2   0   5 107054. 2691.74  39
  -2   0   5 102903. 2661.34  38
  -2   0   5 104495. 2744.37  31
  -2   0   5 114717. 2870.04  14
  -2   0   5 97167.9 2784.43  10
  -2   0   4 1730.58 225.593   7
   2   0  -4 1711.80 178.939   6
  -2   0   4 2126.24 217.831  39
  -2   0   4 2137.75 237.997   1
  -2   0   3 70230.8 1996.20   1
  -2   0   3 85205.6 2035.73   7
   2   0  -3 91138.8 1988.02   7
  -2   0   3 85604.8 2004.32  39
   2   0  -3 67364.9 1945.63   1
   2   0  -2 21678.7 694.769   1
  -2   0   2 26114.1 738.291  39
  -2   0   2 20308.8 719.326   1
   2   0  -2 24065.8 695.908  39
   2   0  -2 25926.3 724.754   7
   2   0  -2 26928.3 639.736   9
   2   0  -1 146556. 2996.27   9
   2   0  -1 110841. 2948.59   8
   2   0  -1 119090. 2964.65   2
   2   0  -1 123207. 3010.80   1
  -2   0   1 141509. 3017.75   9
  -2   0   1 132570. 3046.67  39
  -2   0   0 89802.4 2114.88   2
  -2   0   0 98197.0 2189.65   9
   2   0   0 95106.3 2191.07  39
  -2   0   0 81978.6 2094.90   8
   2   0   0 79382.7 2110.19   2
  -2   0  -1 374780. 8958.09   8
   2   0   1 365934. 8997.58   2
  -2   0  -1 388910. 8968.82   2
  -2   0  -2 27447.7 877.063   8
  -2   0  -2 25924.6 860.570   2
   2   0   2 28232.9 844.952   6
  -2   0  -2 27645.0 906.640   9
   2   0   3 185810. 4396.15   6
  -2   0  -3 176833. 4304.79  17
   2   0   3 199916. 4388.43   1
  -2   0  -3 183417. 4410.23  33
  -2   0  -3 208078. 4495.43   2
  -2   0  -3 178054. 4433.87   9
  -2   0  -4 11147.7 544.444  23
  -2   0  -4 12529.1 573.067  35
   2   0   4 11109.8 540.958  38
  -2   0  -4 12648.6 644.951  33
   2   0   4 10439.9 602.701  14
  -2   0  -4 11554.2 556.095  37
  -2   0  -4 11972.3 555.967  17
  -2   0  -4 10191.8 540.244  27
   2   0   5 1635.07 264.658  38
  -2   0  -5 1510.16 344.879  13
  -2   0  -5 1346.01 275.257  37
  -2   0  -5 1483.33 309.415  35
   2   0   5 990.179 316.887  14
  -2   0  -5 1453.52 270.560  17
  -2   0  -6 1939.92 404.778  13
  -2   0  -6 2435.02 307.785  17
   2   0   6 2148.61 289.892  38
   2   0   6 1440.38 344.743  14
  -2   0  -6 2372.45 311.862  37
  -2   0  -7 604.654 322.920  33
   2   0   7 584.827 172.997  38
  -2   0  -7 909.959 205.847  17
  -2   0  -7 550.763 293.618  13
  -2   0  -8 5845.23 337.416  13
  -2   0  -8 5136.49 309.491  33
   2   1 -10 1588.73 142.036  17
   2   1 -10 1826.43 154.439   3
   2   1  -9 1399.08 263.128  17
   2   1  -9 1591.68 296.402  13
  -2   1   9 1433.01 428.395  14
  -2   1   8 4363.39 405.030  38
  -2   1   8 3599.78 635.667  14
  -2   1   8 4169.99 545.575  15
  -2   1   7 3443.58 525.645  14
  -2   1   7 3247.76 360.125  38
  -2   1   7 2681.47 387.021  22
  -2   1   7 3313.15 490.206  15
  -2   1   6 10881.0 558.007  38
  -2   1   6 9979.76 596.996  22
  -2   1   6 9903.04 726.729  11
  -2   1   6 11221.0 710.358  14
  -2   1   6 11622.5 693.220  15
  -2   1   6 10451.7 596.254  31
  -2   1   5 3836.45 383.743  14
  -2   1   5 3041.43 286.530   7
  -2   1   5 3541.53 325.794  22
  -2   1   5 3454.81 325.308  31
  -2   1   5 3351.88 378.697  11
  -2   1   5 3391.88 334.310  12
  -2   1   5 3735.26 292.946  38
  -2   1   5 3656.71 296.344  39
  -2   1   5 3638.64 359.937  10
  -2   1   5 3424.74 292.128   5
  -2   1   5 3589.71 366.894  15
   2   1  -4 139901. 3559.54   6
   2   1  -4 142670. 3655.14   1
  -2   1   3 234138. 5448.47   7
  -2   1   3 230812. 5445.47  39
   2   1  -3 227183. 5287.46   9
   2   1  -2 161676. 4012.91  39
  -2   1   2 166373. 4057.21  39
   2   1  -2 175217. 4058.23   7
   2   1  -1 77391.8 2065.50   8
  -2   1   1 84891.6 2066.64   9
  -2   1   0 2715.46 219.338   9
   2   1   0 3001.88 184.946   8
  -2   1   0 2562.40 162.849   8
  -2   1  -1 27818.4 812.490   8
   2   1   1 28988.7 826.866   6
   2   1   2 311091. 6618.25   6
  -2   1  -2 294879. 6646.17   9
  -2   1  -3 456.956 162.397   9
  -2   1  -3 422.776 150.459   8
  -2   1  -3 662.019 176.344   3
  -2   1  -3 698.797 164.521   4
   2   1   3 557.939 245.323   2
  -2   1  -3 502.385 165.234   2
  -2   1  -3 519.272 172.234  17
  -2   1  -3 571.410 205.636  33
   2   1   3 630.105 178.134   6
  -2   1  -3 388.944 191.535  35
  -2   1  -4 9801.03 512.893  35
   2   1   4 10397.0 578.373  14
   2   1   4 9545.78 485.795  38
  -2   1  -4 10449.6 598.516  33
  -2   1  -4 10689.2 530.884  37
  -2   1  -4 10734.1 534.951  17
  -2   1  -4 9048.40 504.104  27
   2   1   5 13676.9 765.318  14
  -2   1  -5 15040.8 690.419  37
  -2   1  -5 15809.2 709.225  35
   2   1   5 14930.3 666.573  38
  -2   1  -5 17226.3 836.595  13
  -2   1  -5 16570.3 734.895  17
   2   1   6 2634.78 390.481  14
  -2   1  -6 3304.06 463.290  13
  -2   1  -6 3100.87 351.990  17
  -2   1  -6 3392.60 343.006  37
   2   1   6 2786.09 294.537  38
  -2   1  -6 3448.23 375.932  35
  -2   1  -7 6730.25 404.045  17
  -2   1  -7 7438.13 519.447  13
  -2   1  -8 1117.18 206.150  13
  -2   1  -8 1110.19 196.482  33
  -2   2  10 1545.64 149.981   5
   2   2 -10 1545.34 142.118   3
   2   2 -10 1566.84 142.976  17
   2   2  -9 1441.27 250.351   3
   2   2  -9 1057.60 261.053  17
  -2   2   9 1313.93 272.428   5
   2   2  -9 1071.24 273.949  13
  -2   2   9 977.938 283.223  15
  -2   2   8 2275.53 261.081  25
  -2   2   8 3032.55 560.106  14
  -2   2   8 2165.86 444.495  15
  -2   2   8 3084.66 417.874   5
   2   2  -8 2831.54 373.116   3
  -2   2   8 3043.75 345.996  38
   2   2  -7 37142.9 1313.79   3
  -2   2   7 34067.7 1313.42  22
  -2   2   7 38418.1 1317.39   5
  -2   2   7 40620.0 1301.57  38
  -2   2   7 30344.2 1525.27  11
  -2   2   7 37821.9 1508.06  15
  -2   2   7 45154.3 1608.46  14
  -2   2   6 54275.0 1585.39  38
  -2   2   6 50714.2 1843.32  11
  -2   2   6 52604.6 1652.39  22
  -2   2   6 58132.4 1824.65  14
  -2   2   6 56505.5 1797.74  15
  -2   2   6 53955.7 1607.00   5
  -2   2   5 78717.2 2164.13  14
  -2   2   5 68461.9 2010.74   7
  -2   2   5 75445.3 2074.76  31
  -2   2   5 71929.0 2063.88  20
  -2   2   5 75389.6 1995.56  38
  -2   2   5 76934.9 2078.57  22
  -2   2   5 78797.9 2218.15  11
  -2   2   5 81201.7 2156.82  15
  -2   2   5 73877.6 2003.23   5
  -2   2   5 73008.9 2049.16  39
  -2   2   5 68861.7 2086.50  10
  -2   2   4 71189.4 1622.41   7
  -2   2   4 67930.9 1631.61  39
   2   2  -4 53430.8 1370.30   9
   2   2  -4 73144.2 1609.79   1
  -2   2   4 74724.9 1696.19   1
   2   2  -3 17027.4 556.657   1
  -2   2   3 18700.9 611.271  39
   2   2  -2 188341. 4201.99   1
   2   2  -2 188944. 4227.90   7
   2   2  -2 176716. 4172.29  39
  -2   2   2 188655. 4241.83   1
  -2   2   2 186557. 4234.69  39
  -2   2   2 169615. 4105.75   9
   2   2  -2 177091. 4177.87   9
   2   2  -1 37509.4 945.404   2
  -2   2   1 33958.6 945.949   9
   2   2  -1 37183.8 993.018  39
   2   2  -1 36096.3 979.126   1
   2   2  -1 33086.8 985.349   8
   2   2  -1 41154.6 1007.67   9
  -2   2   0 36399.3 968.982   9
  -2   2   0 37367.5 924.158   2
   2   2   0 34273.9 934.311   8
   2   2   0 36312.9 937.502   2
  -2   2  -1 63431.2 1682.41   8
   2   2   1 74342.7 1765.68   6
   2   2   1 70000.7 1785.15   2
   2   2   1 65744.0 1764.05   9
  -2   2  -1 70557.6 1740.52   2
  -2   2  -2 37185.9 1169.69   9
   2   2   2 41035.8 1182.09   6
   2   2   2 40874.9 1286.05   2
  -2   2  -2 39499.6 1164.75   2
  -2   2  -3 87904.1 2393.11  13
   2   2   3 95976.3 2481.12   6
   2   2   3 84758.1 2337.49   1
   2   2   3 94693.4 2669.61   2
  -2   2  -3 93763.8 2336.57  35
  -2   2  -3 94709.3 2361.73  17
  -2   2  -3 91696.1 2413.95  33
  -2   2  -3 88583.9 2346.01   3
  -2   2  -3 83571.8 2390.33   9
  -2   2  -3 101098. 2458.60   2
  -2   2  -3 91395.4 2340.57  37
  -2   2  -3 82629.9 2272.41   4
   2   2   4 16279.8 745.934  14
  -2   2  -4 17400.2 797.684  33
  -2   2  -4 19089.2 821.217  13
   2   2   4 16162.7 656.344  38
  -2   2  -4 17627.9 710.265  35
  -2   2  -4 17661.3 738.706   3
  -2   2  -4 18281.4 724.801  37
  -2   2  -4 16740.7 695.378  27
  -2   2  -4 17809.2 733.431  17
   2   2   5 7157.91 432.284  38
  -2   2  -5 8797.35 536.396  17
  -2   2  -5 8742.97 541.711   3
  -2   2  -5 8226.24 614.361  33
  -2   2  -5 7795.93 501.161  37
   2   2   5 6452.50 522.861  14
  -2   2  -5 8188.73 516.700  35
  -2   2  -5 8049.97 598.280  13
   2   2   6 3885.33 442.959  14
  -2   2  -6 5716.17 541.334  13
  -2   2  -6 4902.26 420.794  35
  -2   2  -6 6556.31 476.391  17
   2   2   6 5631.95 473.960   5
  -2   2  -6 5314.81 404.281  37
   2   2   6 4973.13 353.943  38
  -2   2  -6 5877.19 473.547   3
  -2   2  -7 2173.93 359.508  13
   2   2   7 1537.22 286.125   5
  -2   2  -7 2070.30 305.457   3
  -2   2  -7 1860.87 266.027  17
  -2   2  -8 2525.88 237.393  33
  -2   2  -8 2819.36 261.331  13
  -2   2  -8 2834.88 224.849   3
   2   2   8 2894.86 228.177   5
   2   3 -10 113.166 63.4538  28
   2   3 -10 299.542 85.6537   3
  -2   3  10 349.028 99.2574   5
   2   3 -10 246.100 94.8802  17
   2   3  -9 1743.30 277.976  13
  -2   3   9 1833.70 280.247   5
   2   3  -9 1796.45 284.851  17
   2   3  -9 1926.98 266.061   3
  -2   3   9 1124.47 286.893  15
   2   3  -8 34966.4 1240.93   3
  -2   3   8 36947.8 1266.51   5
  -2   3   8 39002.0 1541.48  14
  -2   3   8 32343.7 1411.64  15
   2   3  -7 4545.71 425.653   3
  -2   3   7 5069.03 574.668  14
   2   3  -7 3559.68 355.737  33
  -2   3   7 4499.19 424.526  22
  -2   3   7 3791.01 588.138  11
  -2   3   7 4228.45 385.562  38
  -2   3   7 5182.01 443.282   5
  -2   3   7 5007.00 541.547  15
  -2   3   6 8392.77 611.733  14
  -2   3   6 7343.63 447.175  38
   2   3  -6 6234.61 427.859  33
  -2   3   6 5957.92 490.046  10
  -2   3   6 6975.98 484.355  22
  -2   3   6 7433.61 631.738  11
  -2   3   6 6941.25 455.822   5
  -2   3   6 7383.79 552.109  15
  -2   3   5 47805.6 1467.63  14
  -2   3   5 43429.0 1358.93  22
  -2   3   5 42618.0 1371.92  20
  -2   3   5 45602.7 1309.03  38
  -2   3   5 45814.1 1481.56  11
  -2   3   5 44148.1 1397.20  10
  -2   3   5 42529.8 1366.97  12
  -2   3   5 40852.7 1290.10   5
  -2   3   5 44980.1 1430.41  15
   2   3  -4 14106.7 540.440   1
  -2   3   4 13963.5 533.472   7
  -2   3   4 14415.6 594.168   1
  -2   3   4 14384.2 584.975  39
  -2   3   3 195363. 4648.79   1
  -2   3   3 200498. 4653.42  39
   2   3  -3 192739. 4587.25   1
  -2   3   2 2829.86 159.468   9
   2   3  -2 4115.38 211.249   1
   2   3  -2 3548.97 191.341  39
  -2   3   2 3306.18 237.172   1
   2   3  -2 3647.17 230.529   9
   2   3  -1 125628. 3103.46   8
   2   3  -1 131956. 3026.27   2
   2   3  -1 135418. 3031.46   6
   2   3  -1 125251. 3057.16   1
   2   3  -1 130622. 3091.67   9
   2   3  -1 126460. 3074.87  39
  -2   3   1 125055. 3079.26  39
  -2   3   0 35934.0 790.965   2
   2   3   0 36774.8 812.768   2
   2   3   0 35896.7 852.935   8
   2   3   1 43455.5 1277.13   9
   2   3   1 47422.8 1282.19   6
   2   3   1 46367.5 1287.33   2
  -2   3  -1 48343.9 1250.14   2
   2   3   2 98434.5 2424.85   6
   2   3   2 99862.5 2535.82   2
  -2   3  -2 99299.7 2379.72   2
  -2   3  -3 28787.8 921.890  35
  -2   3  -3 29576.8 1003.88  13
   2   3   3 33827.9 1105.67   6
   2   3   3 28320.0 1156.20   2
  -2   3  -3 25160.6 854.164   4
  -2   3  -3 22894.4 928.764   9
  -2   3  -3 29109.5 938.488  37
  -2   3  -3 29933.0 996.277   2
  -2   3  -3 26734.6 912.423   3
  -2   3  -3 28470.6 943.310  17
  -2   3  -3 29488.3 994.060  33
  -2   3  -4 532.326 252.827  33
  -2   3  -4 614.520 206.160   3
  -2   3  -4 679.802 276.652  13
  -2   3  -4 453.613 219.159  37
  -2   3  -4 678.244 226.688  17
   2   3   4 498.416 219.474  14
  -2   3  -4 506.938 239.999  35
  -2   3  -4 760.881 220.501  27
   2   3   5 336.505 240.262  14
  -2   3  -5 838.956 258.886   3
  -2   3  -5 613.795 337.297  13
  -2   3  -5 491.409 323.836  33
  -2   3  -5 786.506 276.098  17
  -2   3  -5 476.058 257.962  37
  -2   3  -5 614.044 263.987  35
   2   3   6 1252.45 298.687  14
  -2   3  -6 1817.62 334.536  17
  -2   3  -6 2272.04 433.156  13
  -2   3  -6 1804.48 320.171  35
  -2   3  -6 1795.75 291.068  37
  -2   3  -6 2062.68 328.545   3
   2   3   6 2209.68 350.322   5
  -2   3  -7 26241.9 992.256  13
  -2   3  -7 24807.9 896.135   3
   2   3   7 23861.6 877.367   5
  -2   3  -7 24844.9 871.257  17
  -2   3  -8 5193.95 323.722  13
  -2   3  -8 4707.41 297.595  33
  -2   3  -8 4960.46 278.857   3
   2   3   8 5250.14 276.990   5
   2   4 -10 4197.97 216.491  17
  -2   4  10 4045.28 194.426   5
   2   4  -9 5992.49 392.129  13
   2   4  -9 5243.93 354.988   3
   2   4  -9 5760.01 408.675  17
  -2   4   9 5853.46 385.089   5
  -2   4   8 1985.17 324.983   5
  -2   4   8 1219.39 501.009  14
   2   4  -8 2294.20 332.793   3
   2   4  -8 1539.98 263.449  33
   2   4  -8 2331.22 352.403  13
  -2   4   8 1804.61 415.394  15
  -2   4   7 27283.3 1209.14  14
  -2   4   7 21752.7 949.827  22
   2   4  -7 25065.7 982.423   3
  -2   4   7 25551.2 986.765   5
  -2   4   7 23629.3 1127.12  15
   2   4  -7 22343.2 916.569  33
  -2   4   7 25650.5 946.842  38
  -2   4   6 8558.69 608.655  14
  -2   4   6 7769.48 498.986  22
  -2   4   6 8008.03 484.167   5
  -2   4   6 6643.29 431.814  38
  -2   4   6 7661.65 639.375  11
   2   4  -6 7535.64 477.589  33
  -2   4   6 6682.76 501.413  10
  -2   4   6 7838.66 572.460  15
  -2   4   5 93031.7 2551.90  11
  -2   4   5 91832.3 2418.50  22
  -2   4   5 82018.7 2314.02  38
  -2   4   5 96370.2 2514.28  15
  -2   4   5 85737.0 2416.10  12
  -2   4   5 97658.1 2545.85  14
  -2   4   5 87026.6 2345.10   5
  -2   4   5 93161.2 2459.07  10
  -2   4   4 36052.3 1142.27  14
  -2   4   4 36195.3 1146.51  11
  -2   4   4 36175.4 1092.98  12
   2   4  -4 35996.6 1053.53   1
  -2   4   4 38280.5 1140.01   1
  -2   4   4 35706.1 1120.59  39
   2   4  -3 71008.9 1508.52   1
  -2   4   3 76009.6 1602.69   1
  -2   4   3 73055.6 1607.81  39
  -2   4   2 47108.2 1299.47   1
   2   4  -2 49577.8 1219.59   6
   2   4  -2 49270.7 1248.47  39
   2   4  -2 50626.6 1270.68   1
   2   4  -1 362298. 8390.59   8
   2   4  -1 357633. 8265.36   2
   2   4  -1 377300. 8360.55   7
   2   4  -1 361064. 8363.39   9
   2   4  -1 368022. 8293.46   6
  -2   4   1 348441. 8326.13  39
   2   4  -1 383958. 8349.70  39
   2   4  -1 355176. 8301.90   1
   2   4   0 196821. 4421.13   8
   2   4   0 203235. 4396.09   6
   2   4   0 190002. 4341.44   2
   2   4   1 121544. 3007.39   9
  -2   4  -1 119119. 2935.19   2
   2   4   1 128712. 3037.82   6
   2   4   1 120124. 2984.92   2
  -2   4  -2 21191.5 713.790   2
   2   4   2 22139.4 811.353   6
   2   4   2 19708.1 809.741   2
  -2   4  -3 8594.40 442.564   3
  -2   4  -3 8057.57 398.572   4
  -2   4  -3 10297.5 527.015  33
  -2   4  -3 8756.72 511.955  13
  -2   4  -3 9696.88 483.594  37
  -2   4  -3 9315.09 471.734  35
  -2   4  -3 9207.46 478.436  17
   2   4   4 23055.2 905.123  14
  -2   4  -4 25334.7 1001.54  13
  -2   4  -4 23353.5 880.697  37
  -2   4  -4 20581.0 811.151  27
  -2   4  -4 22895.5 869.641   3
  -2   4  -4 22690.9 859.577  35
  -2   4  -4 23961.7 913.119  17
  -2   4  -4 24986.7 983.712  33
  -2   4  -5 4404.91 508.838  13
  -2   4  -5 5343.01 428.767   3
   2   4   5 4754.10 421.492   5
  -2   4  -5 4588.54 418.332  35
  -2   4  -5 4942.17 442.645  17
  -2   4  -5 4379.28 487.342  33
  -2   4  -5 4865.46 405.332  37
   2   4   5 3966.67 414.577  14
  -2   4  -6 8733.92 521.830  35
  -2   4  -6 10983.1 706.058  13
  -2   4  -6 9991.14 583.747   3
   2   4   6 9459.53 571.417   5
  -2   4  -6 8700.38 501.651  37
  -2   4  -6 9004.44 582.657  17
  -2   4  -6 9628.47 658.052  33
   2   4   6 7582.86 557.556  14
  -2   4  -7 451.446 222.964   3
  -2   4  -7 444.997 296.599  13
  -2   4  -7 390.264 227.552  17
  -2   4  -7 350.096 166.322  37
   2   4   8 106.475 112.192   5
  -2   4  -8 281.005 111.120   3
  -2   4  -8 214.428 161.083  13
  -2   4  -8 331.932 161.444  33
  -2   4  -8 376.866 112.628  17
  -2   5   9 1220.91 267.114  15
   2   5  -9 2241.14 264.220  13
   2   5  -9 2021.64 296.505  17
  -2   5   9 2028.71 250.517   5
   2   5  -9 1898.65 230.703   3
   2   5  -8 1432.30 276.490   3
  -2   5   8 1432.42 463.763  14
   2   5  -8 1291.33 297.287  13
  -2   5   8 1603.05 295.710   5
   2   5  -8 1021.64 249.242  33
  -2   5   8 1116.47 345.425  15
  -2   5   7 3034.24 491.943  14
  -2   5   7 2849.61 353.365   5
  -2   5   7 2272.13 316.336  22
   2   5  -7 2761.44 342.522   3
   2   5  -7 2569.49 332.444  33
  -2   5   7 2730.70 445.144  15
  -2   5   6 14995.4 705.032  22
  -2   5   6 15749.1 696.261   5
  -2   5   6 16115.6 676.198  38
  -2   5   6 14418.4 734.859  10
  -2   5   6 15016.9 792.443  15
  -2   5   6 17338.7 874.256  14
   2   5  -6 14712.9 701.667  33
  -2   5   5 8659.46 483.342  22
  -2   5   5 8396.45 441.423   5
  -2   5   5 8906.81 548.997  14
  -2   5   5 9038.58 511.370  10
  -2   5   5 8899.84 569.803  11
  -2   5   5 9118.10 528.467  15
  -2   5   5 8445.33 434.699  38
  -2   5   4 38631.6 1182.92  12
  -2   5   4 42185.4 1257.43  11
  -2   5   4 40756.1 1206.59  10
  -2   5   4 41874.8 1240.27   1
  -2   5   4 40900.1 1248.20  39
  -2   5   4 41774.1 1262.91  14
   2   5  -3 16116.7 452.003   1
  -2   5   3 17933.7 545.734   1
   2   5  -2 125935. 2892.40   7
   2   5  -2 115307. 2796.19  39
   2   5  -2 111600. 2780.96   6
   2   5  -2 121902. 2824.00   1
  -2   5   2 125717. 2911.94  39
   2   5  -1 46081.9 1159.85   2
   2   5  -1 44149.8 1293.48   8
   2   5  -1 45685.2 1237.91   7
   2   5  -1 45546.9 1278.92   9
   2   5  -1 47309.2 1240.92  39
   2   5  -1 45153.8 1200.90   6
  -2   5   1 47488.9 1239.51  39
   2   5  -1 45397.8 1190.31   1
   2   5   0 102526. 2364.28   8
   2   5   0 96435.6 2323.65   6
   2   5   0 94084.1 2354.24   9
   2   5   0 95745.8 2249.35   2
  -2   5  -1 86304.4 2092.20   2
   2   5   1 82308.8 2150.84   2
   2   5   1 82788.5 2191.29   9
   2   5   2 25732.9 889.996   9
  -2   5  -2 25148.5 891.391  13
   2   5   2 31531.7 1035.98   6
   2   5   2 27445.4 1001.43   2
  -2   5  -2 23472.2 847.034  17
  -2   5  -2 28769.1 874.077   2
  -2   5  -3 11116.6 507.510   3
  -2   5  -3 12328.3 563.297  17
  -2   5  -3 12570.7 608.146  13
  -2   5  -3 9718.43 444.688   4
  -2   5  -3 11695.8 550.718  37
  -2   5  -3 10907.0 529.712  35
  -2   5  -3 12434.2 589.783  33
  -2   5  -3 10535.5 487.401  27
   2   5   4 53844.6 1684.31  14
  -2   5  -4 60491.5 1809.69  13
  -2   5  -4 56199.5 1668.31  37
  -2   5  -4 57005.5 1665.27   3
  -2   5  -4 56398.5 1653.10  35
  -2   5  -4 60359.4 1785.81  33
  -2   5  -4 59836.8 1732.31  17
  -2   5  -4 51178.2 1578.46  27
   2   5   5 4541.42 421.412  14
  -2   5  -5 5228.68 533.648  33
  -2   5  -5 5626.61 550.186  13
  -2   5  -5 4575.40 414.283  37
  -2   5  -5 5931.17 441.723   3
  -2   5  -5 5844.64 492.445  17
  -2   5  -5 4527.52 413.419  35
   2   5   5 5489.20 435.041   5
   2   5   6 26650.5 1011.46   5
  -2   5  -6 28953.3 1083.45  17
  -2   5  -6 30443.4 1192.24  13
  -2   5  -6 24441.5 928.733  37
  -2   5  -6 26231.9 954.818  35
  -2   5  -6 27686.3 1135.57  33
  -2   5  -6 28216.8 1042.72   3
  -2   5  -7 915.976 166.418  37
  -2   5  -7 1054.11 225.189   3
   2   5   7 1488.56 250.082   5
  -2   5  -7 1228.36 331.788  13
  -2   5  -7 1218.43 250.490  17
  -2   5  -8 819.302 114.168   3
   2   5   8 786.483 115.298   5
  -2   5  -8 936.969 177.496  13
  -2   5  -8 799.141 124.236  17
  -2   5  -8 497.600 109.673  16
   2   6  -9 2097.99 233.412  13
  -2   6   9 2171.08 231.414   5
   2   6  -9 2186.02 220.534   3
  -2   6   9 1543.97 265.161  15
  -2   6   8 629.321 434.249  14
   2   6  -8 458.998 220.668  33
   2   6  -8 539.239 217.387   3
  -2   6   8 826.772 326.250  15
  -2   6   8 786.788 245.025   5
   2   6  -8 959.822 259.607  13
  -2   6   7 5430.99 591.793  14
   2   6  -7 4725.44 421.242  33
   2   6  -7 4163.68 417.670  13
  -2   6   7 3780.95 364.191  22
   2   6  -7 4658.07 399.073   3
  -2   6   7 3972.83 380.909   5
  -2   6   7 4437.20 518.972  15
  -2   6   6 1646.01 376.714  14
   2   6  -6 1510.97 262.302   3
  -2   6   6 1508.51 263.011  22
  -2   6   6 1479.66 256.482   5
  -2   6   6 1277.37 267.578  10
  -2   6   6 1832.00 332.661  15
  -2   6   5 42452.0 1324.15  22
  -2   6   5 43358.9 1355.11  10
  -2   6   5 41265.0 1266.73   5
  -2   6   5 45059.0 1415.96  15
  -2   6   5 46526.7 1470.35  14
   2   6  -4 20580.7 908.977   2
  -2   6   4 25474.2 871.554   1
  -2   6   4 24120.6 829.298  12
  -2   6   4 22846.6 807.029  20
  -2   6   4 26668.8 914.547  39
   2   6  -4 22598.5 768.919   1
  -2   6   4 26460.7 859.052  10
  -2   6   3 18809.0 717.865  39
   2   6  -3 20050.1 638.911   1
   2   6  -2 117603. 2652.29   7
   2   6  -2 100331. 2549.85   6
   2   6  -2 107081. 2550.60   1
  -2   6   2 115082. 2672.51  39
   2   6  -2 102404. 2533.14  39
   2   6  -1 105561. 2410.38   7
   2   6  -1 98014.9 2387.26  39
   2   6  -1 99235.8 2388.10   6
  -2   6   1 89789.9 2366.10  39
   2   6  -1 96788.4 2324.07   1
   2   6  -1 96149.1 2461.93   9
   2   6  -1 93343.8 2295.53   2
   2   6   0 11195.0 499.289   9
   2   6   0 11384.8 459.348   7
   2   6   0 12073.5 496.961   6
   2   6   0 11485.7 412.316   2
  -2   6  -1 12082.6 451.487   2
   2   6   1 12271.8 512.375   2
   2   6   1 12683.3 554.848   9
   2   6   2 17269.8 709.479   9
  -2   6  -2 18782.0 741.510  13
   2   6   2 19520.4 813.501   2
   2   6   2 17721.6 637.852   1
  -2   6  -2 20948.3 696.136   2
  -2   6  -3 39470.3 1171.35   3
  -2   6  -3 41431.8 1308.49  13
  -2   6  -3 40712.6 1228.03  37
  -2   6  -3 37029.7 1187.90  35
  -2   6  -3 42013.7 1294.51  33
   2   6   4 5199.80 409.505  14
  -2   6  -4 5327.39 438.323  17
  -2   6  -4 4912.34 481.052  13
  -2   6  -4 4827.54 366.443   3
  -2   6  -4 4538.30 402.168  37
  -2   6  -4 4672.45 401.793  35
  -2   6  -4 5207.37 470.256  33
  -2   6  -4 4237.27 339.296  27
   2   6   5 9480.17 593.998  14
  -2   6  -5 12064.7 747.327  13
  -2   6  -5 10709.1 583.547  37
  -2   6  -5 11843.5 609.821   3
  -2   6  -5 9778.99 572.292  35
   2   6   5 10765.7 587.130   5
  -2   6  -5 10583.3 701.781  33
  -2   6  -5 11891.7 681.298  17
   2   6   6 13867.9 657.472   5
  -2   6  -6 12515.7 607.649  37
  -2   6  -6 13010.0 622.713  35
  -2   6  -6 14874.7 686.524   3
  -2   6  -6 14037.2 731.133  17
  -2   6  -6 13916.5 833.930  13
  -2   6  -6 14038.6 789.544  33
  -2   6  -7 7408.39 415.698   3
  -2   6  -7 7260.99 522.583  13
   2   6   7 6628.83 393.639   5
  -2   6  -7 7406.67 452.921  17
  -2   6  -8 70.1456 126.936  13
   2   6   8 33.3641 58.8193   5
  -2   6  -8 60.6656 92.2549  17
  -2   6  -8 19.3635 83.7453  16
   2   7  -9 818.397 151.798   3
  -2   7   9 709.243 154.814   5
   2   7  -9 1051.61 231.296  17
  -2   7   9 779.719 219.473  15
  -2   7   8 21626.0 1035.89  14
   2   7  -8 18798.0 774.370  13
   2   7  -8 18126.3 740.317   3
  -2   7   8 20118.3 765.856   5
  -2   7   8 18899.0 914.836  15
   2   7  -8 21053.5 865.242  17
   2   7  -7 685.053 222.787   3
  -2   7   7 907.865 381.146  14
   2   7  -7 821.601 256.356  13
  -2   7   7 1083.89 259.785   5
  -2   7   7 660.724 408.578  11
   2   7  -7 840.850 288.789  33
  -2   7   7 924.270 350.560  15
  -2   7   6 4426.05 508.139  14
   2   7  -6 4677.48 388.728  13
  -2   7   6 4423.45 359.460   5
  -2   7   6 4335.59 371.849  22
   2   7  -6 4663.92 378.912   3
  -2   7   6 4738.54 546.566  11
  -2   7   6 4297.81 401.702  10
  -2   7   6 4725.06 467.322  15
  -2   7   5 14669.4 653.733  22
  -2   7   5 15989.9 737.324  15
  -2   7   5 14746.0 614.378   5
  -2   7   5 16983.2 793.737  14
  -2   7   5 14417.5 797.176  16
  -2   7   5 15539.5 693.489  10
  -2   7   4 53568.7 1598.35  20
   2   7  -4 57940.5 1778.33   2
  -2   7   4 60097.7 1648.45  12
  -2   7   4 59527.8 1677.14   1
   2   7  -4 56049.3 1557.42   1
  -2   7   4 62231.3 1805.96  16
  -2   7   4 63395.5 1681.60  10
   2   7  -3 10904.1 428.820   1
  -2   7   3 11895.1 499.381   1
  -2   7   3 12491.5 545.048  39
  -2   7   3 12336.1 562.724  16
  -2   7   3 12487.0 537.733  15
  -2   7   2 54890.8 1473.26  39
   2   7  -2 50010.5 1379.71   6
   2   7  -2 50741.1 1327.70  39
   2   7  -2 53171.5 1344.89   1
   2   7  -1 138817. 3284.55   7
   2   7  -1 136871. 3277.75  39
   2   7  -1 142339. 3331.30   6
   2   7  -1 129068. 3173.48   2
  -2   7   1 135375. 3272.97  39
   2   7  -1 137989. 3196.00   1
   2   7   0 209385. 4642.88   7
   2   7   0 225544. 4783.18   6
   2   7   0 214780. 4764.30   9
  -2   7  -1 13830.2 492.531   2
   2   7   1 15004.7 592.375   2
   2   7   1 13460.3 603.121   9
  -2   7  -2 30895.1 918.705   2
   2   7   2 30290.4 1009.34   9
   2   7   2 31250.3 1091.97   2
   2   7   2 29286.9 888.679   1
  -2   7  -2 26876.3 928.458  35
  -2   7  -2 27261.4 947.527  17
  -2   7  -2 25511.9 931.406  37
  -2   7  -3 8666.44 491.868  35
  -2   7  -3 9560.42 459.530   3
  -2   7  -3 9623.11 520.795  37
  -2   7  -4 6862.35 474.928  35
  -2   7  -4 7702.58 453.118   3
   2   7   4 7175.30 481.216  14
  -2   7  -4 6931.07 482.752  37
  -2   7  -4 8566.85 579.213  33
   2   7   5 46862.1 1460.73   5
  -2   7  -5 53250.7 1633.21  17
  -2   7  -5 46663.7 1462.01  35
  -2   7  -5 47290.1 1479.05  37
  -2   7  -5 48716.6 1488.74   3
  -2   7  -5 46629.0 1638.19  33
   2   7   5 41390.3 1504.25  14
  -2   7  -6 5378.03 410.457  35
   2   7   6 5737.09 409.036   5
  -2   7  -6 6515.31 513.385  17
  -2   7  -6 5360.42 398.624  37
  -2   7  -6 6348.17 560.738  33
  -2   7  -6 6016.80 417.014   3
  -2   7  -7 13855.9 558.174   3
  -2   7  -7 13706.7 622.409  17
  -2   7  -7 14776.3 677.688  33
   2   7   7 13738.7 545.089   5
  -2   8   9 1326.32 140.648   5
  -2   8   9 1160.83 204.484  15
   2   8  -8 5163.09 375.892  13
   2   8  -8 5454.45 358.964   3
   2   8  -8 5056.31 397.578  33
  -2   8   8 6503.74 390.147   5
   2   8  -8 6865.91 479.506  17
  -2   8   8 5509.65 502.620  15
   2   8  -7 15724.3 716.095  13
   2   8  -7 15921.1 684.661   3
  -2   8   7 14498.0 663.946   5
  -2   8   7 13996.3 949.046  11
   2   8  -7 14542.3 744.469  33
  -2   8   7 15881.2 856.492  15
  -2   8   7 15921.0 897.649  14
  -2   8   6 39559.7 1405.32  14
   2   8  -6 32744.9 1131.72  13
  -2   8   6 32250.5 1126.17  22
   2   8  -6 32679.3 1114.66   3
  -2   8   6 32820.6 1102.83   5
  -2   8   6 35754.1 1414.51  11
  -2   8   6 35772.3 1310.12  15
  -2   8   6 30199.6 1177.26  10
  -2   8   5 6926.77 395.012   5
  -2   8   5 7279.47 442.556  22
  -2   8   5 7834.75 559.613  11
  -2   8   5 7020.44 568.750  16
  -2   8   5 7922.54 508.988  15
  -2   8   5 7775.11 479.327  10
  -2   8   5 8478.75 573.522  14
   2   8  -4 795.155 198.932   2
  -2   8   4 300.814 136.444   1
  -2   8   4 726.195 246.142  16
  -2   8   4 328.456 158.154  12
  -2   8   4 458.659 183.471  10
  -2   8   3 14485.0 607.873  39
  -2   8   3 14816.6 643.020  16
  -2   8   3 15483.8 594.362  10
   2   8  -2 14045.5 674.571   8
   2   8  -2 16480.5 478.237   2
   2   8  -2 14444.5 516.013   6
  -2   8   2 17803.3 618.666  39
   2   8  -2 13466.3 452.942   1
   2   8  -2 13824.7 449.649  39
   2   8  -1 243750. 5364.60   8
   2   8  -1 224468. 5228.39   6
   2   8  -1 235176. 5147.11   7
   2   8  -1 215500. 5022.75   2
   2   8  -1 210032. 5016.50   1
  -2   8   1 198154. 5113.46  39
   2   8  -1 227677. 5148.41  39
   2   8   0 119406. 3096.04   2
   2   8   0 138522. 3189.63   7
   2   8   0 141605. 3125.86   1
   2   8   0 157146. 3415.69   6
  -2   8   0 108335. 3113.61  39
   2   8   0 139211. 3333.90   8
   2   8   0 140650. 3348.08   9
   2   8   1 37526.1 1128.24   2
   2   8   1 35020.5 1055.04   7
  -2   8  -1 32640.8 1061.32  17
   2   8   1 39410.6 1297.74   6
   2   8   1 39326.0 1214.49   9
   2   8   2 6750.44 415.891   9
  -2   8  -2 6644.46 334.385   2
  -2   8  -2 5725.04 381.165  17
   2   8   2 5985.14 319.668   1
  -2   8  -2 5106.10 380.234  37
  -2   8  -2 5146.32 370.220  35
  -2   8  -3 6280.73 363.961   3
  -2   8  -3 6595.29 449.964  37
  -2   8  -3 6095.54 431.497  35
  -2   8  -3 6078.75 443.023  17
   2   8   3 7159.65 433.382  14
  -2   8  -4 70559.9 1972.05   3
  -2   8  -4 66928.5 2015.11  37
   2   8   4 72434.9 1969.81   5
  -2   8  -4 71859.3 2017.34  35
  -2   8  -4 75571.9 2182.55  33
   2   8   4 69328.9 2050.96  14
   2   8   5 9568.23 590.969  14
  -2   8  -5 11032.5 594.053  35
   2   8   5 10447.2 547.257   5
  -2   8  -5 12084.6 586.441   3
  -2   8  -5 9440.71 695.272  33
  -2   8  -5 11193.9 605.342  37
  -2   8  -6 3033.20 454.238  33
  -2   8  -6 2779.62 308.477  37
  -2   8  -6 2751.38 321.532  35
   2   8   6 2960.99 296.442   5
  -2   8  -6 3377.41 412.627  17
  -2   8  -6 3313.91 307.570   3
  -2   8  -7 2066.12 324.418  33
  -2   8  -7 2031.71 195.210   3
  -2   8  -7 2798.66 299.013  17
   2   8   7 2354.64 204.011   5
  -2   9   9 1798.30 202.505  15
   2   9  -9 5475.86 305.698  17
  -2   9   8 9122.31 594.010  15
  -2   9   8 9081.95 429.138   5
   2   9  -8 8218.91 412.329   3
   2   9  -8 9435.67 511.132  33
   2   9  -7 273.745 171.289   3
  -2   9   7 365.610 399.036  11
  -2   9   7 225.210 173.600   5
   2   9  -7 220.045 259.440  17
   2   9  -7 209.070 266.581  33
  -2   9   7 297.602 307.928  15
  -2   9   7 203.916 388.446  14
   2   9  -6 1553.14 229.768   3
  -2   9   6 2276.57 430.070  11
  -2   9   6 1925.16 243.842   5
  -2   9   6 2284.47 380.062  15
  -2   9   6 1634.94 280.720  10
  -2   9   6 1316.44 371.854  14
  -2   9   5 7412.25 441.404  22
  -2   9   5 7578.40 558.424  11
  -2   9   5 6968.76 588.625  16
  -2   9   5 8450.66 504.035  10
  -2   9   5 8086.07 529.072  15
  -2   9   5 8524.39 577.901  14
  -2   9   4 17879.1 724.737  10
  -2   9   4 17809.7 828.504  16
  -2   9   4 16319.9 676.791  12
  -2   9   3 91656.2 2470.72  11
  -2   9   3 89042.8 2471.60  39
  -2   9   3 95459.8 2446.86  10
  -2   9   3 98125.7 2545.12  16
   2   9  -2 72119.4 1954.42   8
   2   9  -2 54211.4 1521.25  39
   2   9  -2 62316.3 1648.04   6
   2   9  -2 64344.4 1550.29   2
  -2   9   2 76607.7 1790.75  39
   2   9  -2 59208.6 1539.91   1
  -2   9   2 72806.8 1775.51  10
  -2   9   2 79629.4 1850.83  16
   2   9  -1 158081. 3406.53   8
  -2   9   1 128949. 3121.80  39
   2   9  -1 140365. 3225.55   6
  -2   9   1 138369. 3226.07  16
  -2   9   1 121945. 3232.98  13
   2   9  -1 112116. 2944.39   1
   2   9  -1 153985. 3156.58  39
   2   9  -1 113185. 2964.38   2
   2   9  -1 147912. 3139.92   7
   2   9   0 70575.5 1697.59   7
  -2   9   0 57240.8 1781.80  13
   2   9   0 62260.3 1633.23   2
   2   9   0 67801.8 1610.18   1
  -2   9   0 51300.9 1627.31  39
   2   9   0 74460.8 1927.22   6
   2   9   0 73785.1 1904.07   9
   2   9   0 73816.7 1906.94   8
   2   9   1 15116.8 541.576   7
   2   9   1 15964.5 748.792   6
   2   9   1 15118.3 593.494   2
   2   9   1 13967.2 470.027   1
   2   9   1 15604.0 682.875   9
  -2   9  -2 1190.95 224.545  17
  -2   9  -2 1513.95 264.422  37
  -2   9  -2 1534.71 263.134  35
  -2   9  -3 13308.6 654.709  35
   2   9   3 14483.4 659.669  14
  -2   9  -3 14922.5 695.371  37
  -2   9  -3 14820.5 695.366  17
   2   9   4 12730.4 662.430  14
  -2   9  -4 13760.5 767.145  33
  -2   9  -4 12596.1 649.923  35
  -2   9  -4 12457.3 665.810  37
   2   9   4 12550.7 568.300   5
  -2   9  -4 14277.6 726.146  17
  -2   9  -4 12757.1 578.224   3
  -2   9  -5 19754.5 971.672  33
  -2   9  -5 19908.1 835.631  37
   2   9   5 21488.6 792.552   5
   2   9   5 20635.7 881.455  14
  -2   9  -5 20359.6 789.498   3
  -2   9  -5 20276.8 830.040  35
   2   9   6 2901.93 263.300   5
  -2   9  -6 2925.31 308.587  35
  -2   9  -6 2699.72 261.512   3
  -2   9  -6 2858.58 304.131  37
  -2   9  -6 3862.31 465.440  33
  -2   9  -7 14091.5 624.249  33
  -2   9  -7 14763.7 609.374  17
   2  10  -9 5932.67 298.762  17
   2  10  -8 583.167 228.196  33
   2  10  -8 595.255 218.274  17
  -2  10   8 308.659 251.756  15
  -2  10   7 44270.4 1575.04  14
   2  10  -7 41220.1 1389.79  33
   2  10  -7 40154.2 1334.89  17
  -2  10   7 38879.3 1461.16  15
  -2  10   6 12925.6 682.744  10
  -2  10   6 14282.9 857.989  11
  -2  10   6 13942.8 783.557  15
  -2  10   6 15816.5 876.411  14
  -2  10   5 38337.7 1403.89  14
  -2  10   5 39441.8 1402.56  11
  -2  10   5 36113.4 1245.41  10
  -2  10   5 34060.8 1408.48  16
  -2  10   5 38092.0 1338.64  15
  -2  10   4 15023.3 774.450  16
  -2  10   4 17090.2 760.027  11
  -2  10   4 15151.4 680.996  10
  -2  10   3 45711.9 1396.79  11
  -2  10   3 43020.5 1338.45  10
  -2  10   3 45132.3 1432.49  16
   2  10  -2 67906.7 1995.98   8
  -2  10   2 68139.8 1834.53  10
  -2  10   2 64138.3 1849.47  11
  -2  10   2 65092.5 1814.43  39
  -2  10   2 69861.2 1889.89  16
   2  10  -1 245407. 5228.11   8
   2  10  -1 232061. 4935.53   7
   2  10  -1 203572. 5022.12   6
  -2  10   1 175675. 5016.35  13
  -2  10   1 188210. 4895.24  39
  -2  10   1 203236. 5018.63  16
   2  10  -1 212049. 4908.46  39
  -2  10   0 2118.45 220.733  17
   2  10   0 2788.70 200.829   7
  -2  10   0 2422.98 273.506  16
  -2  10   0 1883.38 179.087  39
   2  10   0 2624.98 281.657   8
  -2  10   0 2106.69 300.817  13
   2  10   0 2318.72 276.023   6
   2  10   0 2437.14 290.292   9
  -2  10  -1 15586.1 629.475  17
  -2  10  -1 15324.7 713.621  13
  -2  10  -2 10272.8 599.668  13
  -2  10  -2 10234.2 560.975  37
  -2  10  -2 9943.98 537.673  35
  -2  10  -2 9604.12 515.394  17
  -2  10  -3 51807.2 1590.69  17
  -2  10  -3 48664.8 1563.18  37
  -2  10  -3 45955.4 1519.45  35
  -2  10  -3 51670.3 1677.89  13
   2  10   3 54661.3 1583.40  14
  -2  10  -4 5535.61 458.613  35
   2  10   4 5429.27 428.733  14
  -2  10  -4 5424.86 511.542  33
  -2  10  -4 5958.71 574.996  13
  -2  10  -4 5373.69 459.502  37
  -2  10  -4 5579.19 474.841  17
   2  10   5 5242.61 432.249  14
  -2  10  -5 6859.21 609.434  13
  -2  10  -5 4837.86 425.901  35
  -2  10  -5 6538.33 528.580  17
  -2  10  -5 6068.92 562.156  33
  -2  10  -5 5811.04 455.424  37
  -2  10  -6 2592.45 277.063  37
  -2  10  -6 2945.75 428.022  13
  -2  10  -6 2690.10 296.655  35
  -2  10  -6 2773.45 423.178  33
  -2  10  -7 1397.73 244.735  33
  -2  10  -7 1817.55 276.445  13
  -2  10  -7 1497.31 240.094  16
   2  11  -9 132.885 83.7114  17
  -2  11   8 9263.60 555.344  15
   2  11  -8 10807.3 503.601  17
   2  11  -8 9452.43 493.896  33
  -2  11   7 1344.51 416.248  11
  -2  11   7 1633.49 436.340  14
   2  11  -7 1599.55 283.022  17
   2  11  -7 1604.96 336.428  33
  -2  11   7 1911.89 358.711  15
  -2  11   6 10107.4 660.913  15
  -2  11   6 10054.9 728.189  11
  -2  11   6 8583.10 529.710  10
   2  11  -6 10810.6 582.383  17
  -2  11   6 10395.4 752.674  14
  -2  11   5 8732.48 610.208  11
  -2  11   5 7827.39 553.102  15
  -2  11   5 7686.19 503.168  10
  -2  11   5 8308.65 639.150  16
  -2  11   5 8321.32 623.879  14
  -2  11   4 818.716 239.249  11
  -2  11   4 764.566 269.069  16
  -2  11   4 885.405 213.419  10
  -2  11   3 8892.27 517.824  11
  -2  11   3 8594.60 485.719  10
  -2  11   3 8872.62 540.470  16
  -2  11   2 4753.45 446.338  13
  -2  11   2 5276.87 353.729  39
  -2  11   2 5406.77 382.609  10
  -2  11   2 5590.45 402.147  11
  -2  11   2 6183.36 416.087  16
  -2  11   1 84728.4 2389.20  13
  -2  11   1 77890.2 2179.23  39
   2  11   0 106529. 2722.62   6
  -2  11   0 92830.8 2593.65  13
  -2  11   0 87007.9 2414.20  17
  -2  11   0 102741. 2603.27  16
  -2  11  -1 1386.64 225.630  17
  -2  11  -1 1295.59 290.559  13
  -2  11  -1 1375.72 267.839  16
  -2  11  -1 1126.79 266.165  35
  -2  11  -2 1126.84 289.960  37
  -2  11  -2 1460.95 319.823  13
  -2  11  -2 1061.98 278.274  35
  -2  11  -2 1019.47 236.129  17
  -2  11  -3 5610.90 511.690  13
  -2  11  -3 4976.53 460.202  37
  -2  11  -3 5420.07 442.313  17
  -2  11  -3 5293.42 443.698  35
   2  11   3 5457.43 422.428  14
  -2  11  -4 35107.9 1360.11  13
   2  11   4 30604.9 1159.54  14
  -2  11  -4 31095.6 1145.19  35
  -2  11  -4 33757.2 1294.11  33
  -2  11  -4 35410.7 1255.16  17
  -2  11  -4 33525.3 1185.04  37
   2  11   5 16882.7 783.729  14
  -2  11  -5 21561.4 1006.32  13
  -2  11  -5 17681.9 787.099  37
  -2  11  -5 22529.6 929.262  17
  -2  11  -5 20386.6 933.827  33
  -2  11  -5 18472.4 773.176  35
  -2  11  -6 2527.70 399.014  13
  -2  11  -6 2854.10 342.000  17
  -2  11  -6 3258.88 410.539  33
  -2  11  -6 1798.37 241.917  37
  -2  11  -6 2321.51 258.152  35
  -2  11  -7 1120.22 195.625  16
  -2  11  -7 1148.10 228.482  13
  -2  11  -7 806.151 198.183  33
   2  12  -8 4273.03 328.092  33
   2  12  -8 4723.45 305.516  17
  -2  12   7 4087.07 501.391  14
   2  12  -7 4372.13 359.960  17
  -2  12   7 3059.28 462.090  11
   2  12  -7 2919.23 379.415  33
  -2  12   7 3782.78 414.595  15
  -2  12   6 2915.41 466.472  11
   2  12  -6 2723.23 311.869  17
  -2  12   6 2882.15 408.939  15
  -2  12   6 3245.50 471.996  14
  -2  12   5 31893.6 1237.51  11
   2  12  -5 29364.3 1010.08  17
  -2  12   5 27508.5 1064.35  10
  -2  12   5 29036.9 1265.88  16
  -2  12   5 29466.6 1170.30  15
  -2  12   4 3671.49 388.992  11
  -2  12   4 2887.15 314.058  10
  -2  12   4 3415.57 411.237  16
  -2  12   3 37031.4 1262.95  10
  -2  12   3 39492.6 1360.34  16
  -2  12   2 11867.5 714.648  13
  -2  12   2 13651.2 651.682  11
  -2  12   2 12900.8 621.390  10
  -2  12   2 13289.1 654.865  16
  -2  12   1 31411.7 1086.13  16
  -2  12   1 27735.1 1133.72  13
  -2  12   0 9178.80 581.410  13
  -2  12   0 10538.9 566.608  16
  -2  12  -1 35384.8 1249.82  13
  -2  12  -1 32301.8 1121.04  35
  -2  12  -1 35163.7 1239.23  16
  -2  12  -1 31822.0 1078.98  17
  -2  12  -2 7561.05 578.929  13
  -2  12  -2 8273.58 579.616  16
  -2  12  -2 7248.12 508.913  35
  -2  12  -2 7778.13 480.168  17
  -2  12  -2 7462.02 532.662  37
  -2  12  -3 13589.8 781.848  13
  -2  12  -3 12444.2 660.498  17
  -2  12  -3 11577.6 676.455  37
  -2  12  -3 11723.9 653.258  35
   2  12   3 12627.7 647.511  14
  -2  12  -4 5517.79 547.765  13
  -2  12  -4 4415.76 505.764  33
  -2  12  -4 4583.67 442.501  37
   2  12   4 4499.39 399.425  14
  -2  12  -4 4798.73 440.036  35
  -2  12  -4 5283.08 464.228  17
  -2  12  -5 11525.9 711.713  13
  -2  12  -5 8340.86 523.257  37
  -2  12  -5 10672.0 614.452  17
  -2  12  -5 8103.82 494.886  35
  -2  12  -5 9911.62 653.146  33
  -2  12  -6 3538.78 406.195  13
  -2  12  -6 2901.43 258.218  37
  -2  12  -6 4022.66 355.444  17
  -2  12  -6 3752.34 392.944  16
  -2  12  -6 2700.39 234.664  35
  -2  12  -6 3611.40 390.779  33
  -2  12  -7 3050.51 249.850  13
  -2  12  -7 2417.00 220.953  16
  -2  12  -7 2695.11 231.057  33
   2  13  -8 11222.9 432.665  17
   2  13  -8 12419.0 496.924  33
  -2  13   8 11702.7 546.629  15
  -2  13   7 3654.87 465.094  14
   2  13  -7 2648.98 367.586  33
  -2  13   7 2389.49 430.123  11
   2  13  -7 3082.22 287.192  17
  -2  13   7 3138.40 382.221  15
   2  13  -6 13067.5 612.591  17
  -2  13   6 13064.5 804.163  11
  -2  13   6 14570.3 777.389  15
  -2  13   5 26265.1 1112.25  11
  -2  13   5 23653.2 948.769  10
  -2  13   5 25662.4 1068.99  15
  -2  13   5 22324.0 1101.78  16
  -2  13   4 21808.4 946.667  11
  -2  13   4 19293.3 844.070  10
  -2  13   4 22721.7 1012.29  16
  -2  13   3 4169.56 394.995  11
  -2  13   3 4917.66 450.978  16
  -2  13   3 4295.78 377.156  10
  -2  13   2 15063.1 716.862  11
  -2  13   2 14470.8 689.771  10
  -2  13   2 14436.5 715.460  16
  -2  13   1 8831.00 612.627  13
  -2  13   1 9979.87 575.653  16
  -2  13   0 18292.5 865.308  13
  -2  13   0 17629.2 810.609  16
  -2  13   0 17533.0 681.537  17
  -2  13  -1 511.140 293.019  13
  -2  13  -1 518.714 188.413  17
  -2  13  -1 627.511 281.901  35
  -2  13  -1 539.852 251.455  16
  -2  13  -2 3480.26 425.491  16
  -2  13  -2 3849.83 358.029  17
  -2  13  -2 3495.22 414.913  37
  -2  13  -2 3767.33 406.593  35
  -2  13  -2 3889.62 467.676  13
  -2  13  -3 14982.9 850.679  13
  -2  13  -3 15050.4 766.321  37
  -2  13  -3 13323.9 710.859  35
  -2  13  -3 15586.5 737.153  17
  -2  13  -3 15180.8 844.108  16
   2  13   3 16961.8 754.771  14
   2  13   4 13633.9 681.450  14
  -2  13  -4 15402.3 858.401  13
  -2  13  -4 13921.5 711.004  37
  -2  13  -4 12098.1 658.753  35
  -2  13  -4 14223.1 776.383  33
  -2  13  -4 15611.7 746.539  17
  -2  13  -5 2620.68 444.706  13
  -2  13  -5 2125.46 311.026  37
  -2  13  -5 2211.92 297.002  35
  -2  13  -5 2635.59 423.895  33
  -2  13  -5 2283.40 331.208  17
  -2  13  -6 1055.05 163.389  37
  -2  13  -6 1621.19 293.489  33
  -2  13  -6 2103.95 325.945  13
  -2  13  -6 951.326 143.000  35
  -2  13  -6 1747.32 252.972  17
   2  14  -8 174.098 124.619  33
  -2  14   8 326.135 140.100  15
  -2  14   7 1765.56 366.815  14
  -2  14   7 1682.39 301.928  15
  -2  14   7 1501.77 342.643  11
   2  14  -7 1586.73 315.860  33
  -2  14   6 1051.15 416.635  14
  -2  14   6 1219.33 355.478  11
  -2  14   6 1670.20 334.134  15
  -2  14   5 1054.84 355.701  16
  -2  14   5 754.165 221.118  10
  -2  14   5 701.883 324.795  11
  -2  14   5 840.659 315.067  15
  -2  14   4 1297.38 314.212  11
  -2  14   4 907.931 318.888  16
  -2  14   4 968.303 263.104  10
  -2  14   3 4308.27 417.449  11
  -2  14   3 3541.93 365.678  10
  -2  14   3 3409.10 405.988  16
  -2  14   2 100143. 2740.15  11
  -2  14   2 96590.8 2691.29  10
  -2  14   2 99281.5 2760.98  16
  -2  14   1 16857.5 907.895  13
  -2  14   1 19007.6 843.691  11
  -2  14   1 18547.7 842.373  16
  -2  14   0 3427.70 449.771  13
  -2  14   0 3680.48 392.577  16
  -2  14  -1 14999.5 775.290  16
  -2  14  -1 14752.1 815.746  13
  -2  14  -1 13927.9 711.885  35
  -2  14  -1 12902.9 610.608  17
  -2  14  -2 3436.46 481.908  13
  -2  14  -2 3458.48 433.322  37
  -2  14  -2 3536.89 349.454  17
  -2  14  -2 3422.34 414.662  35
  -2  14  -2 3264.69 427.774  16
  -2  14  -3 5369.34 532.977  16
  -2  14  -3 5304.53 439.422  17
  -2  14  -3 4896.96 456.244  35
  -2  14  -3 4782.72 487.346  37
   2  14   3 4730.58 414.111  14
  -2  14  -3 4585.48 548.149  13
  -2  14  -4 16786.0 897.671  13
  -2  14  -4 16297.9 896.265  16
  -2  14  -4 14830.4 712.585  35
  -2  14  -4 16528.0 759.541  17
  -2  14  -4 16103.4 754.762  37
  -2  14  -4 16974.3 830.616  33
   2  14   4 14538.4 707.166  14
  -2  14  -5 7141.32 430.497  35
  -2  14  -5 10363.2 635.954  13
  -2  14  -5 9249.94 523.612  17
  -2  14  -5 7999.35 473.465  37
  -2  14  -5 9081.28 573.203  33
  -2  14  -6 13494.7 606.668  13
  -2  14  -6 12705.8 529.807  17
  -2  14  -6 11931.9 554.782  33
   2  15  -8 168.879 83.5703  33
  -2  15   7 2710.44 373.583  14
  -2  15   7 1887.70 322.272  11
   2  15  -7 2161.08 321.325  33
  -2  15   7 2453.65 307.156  15
  -2  15   6 248.504 259.668  15
  -2  15   6 523.994 299.040  11
  -2  15   6 712.620 357.341  14
  -2  15   5 15234.9 814.583  11
  -2  15   5 14353.6 676.194  10
  -2  15   5 12530.3 794.278  16
  -2  15   5 15099.5 792.317  15
  -2  15   5 15040.9 882.420  14
  -2  15   4 26813.3 1107.85  11
  -2  15   4 25668.2 1014.98  10
  -2  15   4 26781.2 1152.56  16
  -2  15   3 64869.0 1940.11  11
  -2  15   3 61209.9 1947.08  16
  -2  15   2 5541.00 472.472  11
  -2  15   2 5226.40 444.649  10
  -2  15   2 5209.80 471.435  16
  -2  15   1 11434.9 754.317  13
  -2  15   1 11037.8 645.288  10
  -2  15   1 11966.9 672.682  16
  -2  15   1 11708.4 675.415  11
  -2  15   0 15327.1 867.022  13
  -2  15   0 15653.0 798.355  16
  -2  15  -1 524.022 356.370  13
  -2  15  -1 968.480 212.891  17
  -2  15  -1 985.429 334.464  35
  -2  15  -1 1130.91 322.534  16
  -2  15  -2 11772.6 761.830  13
  -2  15  -2 10612.9 573.159  17
  -2  15  -2 11246.0 689.745  37
  -2  15  -2 11339.8 666.632  35
  -2  15  -2 12767.6 748.332  16
  -2  15  -3 3928.88 465.469  37
  -2  15  -3 3913.87 518.863  13
  -2  15  -3 3830.19 429.191  35
  -2  15  -3 3616.79 367.235  17
  -2  15  -3 3862.20 472.564  16
   2  15   3 3985.78 380.917  14
  -2  15  -4 18991.0 795.412  35
   2  15   4 17358.3 773.120  14
  -2  15  -4 19494.7 817.201  17
  -2  15  -4 19062.5 827.419  37
  -2  15  -4 19488.2 891.551  33
  -2  15  -4 21368.0 963.263  16
  -2  15  -5 2331.85 368.738  13
  -2  15  -5 1875.64 270.056  37
  -2  15  -5 1876.81 245.926  35
  -2  15  -5 2334.30 278.997  17
  -2  15  -5 2206.29 347.470  33
  -2  15  -5 2481.10 347.988  16
  -2  15  -6 855.266 203.056  13
  -2  15  -6 891.154 151.080  17
  -2  15  -6 826.198 202.192  33
  -2  15  -6 748.479 189.498  16
  -2  16   7 11640.5 536.980  15
   2  16  -7 11551.6 529.539  33
  -2  16   6 1495.25 297.038  15
  -2  16   6 1553.15 343.607  11
  -2  16   6 2261.88 383.975  14
  -2  16   5 7832.90 584.806  11
  -2  16   5 7201.96 452.775  10
  -2  16   5 8573.26 597.069  15
  -2  16   5 8513.00 649.966  14
  -2  16   4 3398.46 419.560  11
  -2  16   4 2961.99 339.185  10
  -2  16   4 2866.86 421.417  16
  -2  16   3 106812. 2994.34  10
  -2  16   3 116182. 3095.15  11
  -2  16   3 110535. 3121.65  16
  -2  16   2 15513.5 798.351  16
  -2  16   2 14588.4 748.277  10
  -2  16   2 15735.3 794.471  11
  -2  16   1 845.483 284.673  10
  -2  16   1 540.985 368.667  13
  -2  16   1 522.761 271.456  16
  -2  16   1 784.359 300.501  11
  -2  16   0 2057.20 444.119  13
  -2  16   0 2377.97 369.702  16
  -2  16  -1 2011.36 362.578  16
  -2  16  -1 1994.76 434.084  13
  -2  16  -1 2031.87 400.075  35
  -2  16  -2 30031.3 1191.67  16
  -2  16  -2 28335.6 1218.87  13
  -2  16  -2 29089.7 1117.73  37
  -2  16  -2 25995.5 1040.20  35
  -2  16  -3 46416.0 1644.16  13
  -2  16  -3 48434.1 1520.19  37
  -2  16  -3 43394.3 1432.86  35
  -2  16  -3 46874.8 1603.11  16
   2  16   3 45186.9 1451.13  14
  -2  16  -4 6256.36 535.130  13
  -2  16  -4 5567.66 497.395  16
  -2  16  -4 4966.03 425.169  37
  -2  16  -4 5287.23 413.960  35
  -2  16  -4 5176.91 472.379  33
  -2  16  -4 5296.64 393.132  17
  -2  16  -5 5279.82 425.534  13
  -2  16  -5 3439.85 242.822  35
  -2  16  -5 4740.87 314.883  17
  -2  16  -5 4189.12 304.716  37
  -2  16  -5 4300.12 373.693  33
  -2  16  -5 4812.73 394.819  16
  -2  16  -6 3551.65 240.259  16
  -2  16  -6 2952.24 210.280  33
   2  17  -7 523.067 182.408  33
  -2  17   7 388.391 150.324  15
  -2  17   6 1537.25 288.328  11
  -2  17   6 1720.47 337.108  14
  -2  17   6 1871.11 295.514  15
  -2  17   5 2261.21 264.087  10
  -2  17   5 2435.04 370.334  15
  -2  17   5 2268.51 361.498  11
  -2  17   5 3053.73 443.315  14
  -2  17   4 715.627 290.607  11
  -2  17   4 558.930 216.484  10
  -2  17   4 506.842 295.983  16
  -2  17   3 19896.7 904.845  11
  -2  17   3 18141.6 903.260  16
  -2  17   3 17742.4 912.663  15
  -2  17   3 19178.2 843.554  10
  -2  17   2 18039.9 855.247  10
  -2  17   2 19414.5 915.072  16
  -2  17   2 19826.9 907.181  11
  -2  17   1 28762.7 1148.51  16
  -2  17   1 27403.6 1112.08  10
  -2  17   1 26525.6 1120.67  11
  -2  17   0 20513.4 1036.16  13
  -2  17   0 20181.3 969.520  11
  -2  17   0 20126.6 954.259  16
  -2  17  -1 3620.65 503.742  13
  -2  17  -1 4078.87 468.185  35
  -2  17  -1 3753.14 442.217  16
  -2  17  -2 62947.9 2020.60  13
   2  17   2 61191.8 1740.52  15
  -2  17  -2 58400.5 1877.92  37
  -2  17  -2 56938.4 1807.30  35
  -2  17  -2 59179.7 1933.60  16
  -2  17  -3 4232.24 491.415  13
  -2  17  -3 3579.67 407.642  35
  -2  17  -3 4059.15 448.593  16
  -2  17  -3 4007.75 449.581  37
  -2  17  -3 3071.36 295.991  17
   2  17   3 3581.49 341.188  14
  -2  17  -4 10365.0 491.980  17
  -2  17  -4 11559.4 573.104  37
  -2  17  -4 11101.9 517.747  35
  -2  17  -4 12681.2 684.959  13
  -2  17  -4 10744.5 592.490  33
  -2  17  -4 10618.2 614.991  16
  -2  17  -5 1577.15 232.758  16
  -2  17  -5 1926.18 275.515  13
  -2  17  -5 1324.81 153.927  17
  -2  17  -5 1453.12 243.546  33
  -2  17  -5 1338.88 173.827  37
   2  18  -7 115.605 106.417  33
  -2  18   6 3626.31 320.590  15
  -2  18   6 3083.85 310.062  11
  -2  18   6 3772.88 372.772  14
  -2  18   5 11497.0 676.004  14
  -2  18   5 9586.59 588.204  11
  -2  18   5 10037.1 587.756  15
  -2  18   4 7480.46 528.754  11
  -2  18   4 6811.47 448.877  10
  -2  18   4 6007.18 498.380  16
  -2  18   3 3303.99 405.541  11
  -2  18   3 3404.58 367.714  10
  -2  18   3 3065.85 395.402  16
  -2  18   3 3096.44 435.198  15
  -2  18   2 23914.4 1013.21  10
  -2  18   2 26256.8 1053.11  11
  -2  18   2 24118.1 1049.69  16
  -2  18   1 14396.6 766.039  10
  -2  18   1 13711.1 754.579  16
  -2  18   1 14873.6 783.834  11
  -2  18   0 760.625 382.697  13
  -2  18   0 647.029 288.641  11
  -2  18   0 729.598 285.921  16
  -2  18  -1 9170.20 621.515  35
  -2  18  -1 8582.77 662.775  13
  -2  18  -1 8159.36 585.956  16
  -2  18  -2 4140.80 437.812  16
   2  18   2 4770.21 346.600  15
  -2  18  -2 4290.61 499.562  13
  -2  18  -2 4577.67 494.373  37
  -2  18  -2 4320.66 459.068  35
  -2  18  -3 12633.8 645.553  37
  -2  18  -3 12529.7 719.309  13
  -2  18  -3 11481.7 587.211  35
  -2  18  -3 11041.6 642.977  16
   2  18   3 11404.1 555.237  14
  -2  18  -4 2073.97 326.571  13
  -2  18  -4 1645.99 224.951  35
  -2  18  -4 1805.46 272.301  37
  -2  18  -4 2105.23 283.556  16
  -2  18  -4 1947.29 239.213  10
  -2  18  -4 1356.89 269.976  33
  -2  18  -5 1348.63 181.707  16
  -2  18  -5 794.734 159.194  33
  -2  19   6 1557.42 249.581  14
   2  19  -6 1533.18 252.628  33
  -2  19   6 1805.70 220.498  15
  -2  19   5 2702.72 324.915  15
  -2  19   5 2385.17 299.384  11
  -2  19   5 2811.30 376.127  14
  -2  19   4 7686.94 446.500  10
  -2  19   4 6777.70 487.596  16
  -2  19   3 15665.6 793.400  15
  -2  19   3 14243.5 721.163  11
  -2  19   3 14276.7 679.118  10
  -2  19   2 4937.88 433.837  10
  -2  19   2 4533.10 431.882  16
  -2  19   2 5094.30 459.773  11
  -2  19   1 1218.20 312.517  11
  -2  19   1 1198.90 295.231  16
  -2  19   1 1439.73 310.956  10
  -2  19   0 2267.87 362.578  11
  -2  19   0 1836.66 423.307  35
  -2  19   0 2247.60 343.298  16
  -2  19  -1 4160.81 418.560  16
  -2  19  -1 3688.36 488.172  13
  -2  19  -1 5205.25 486.026  35
  -2  19  -1 4402.34 460.560  11
  -2  19  -1 4682.77 453.097  10
  -2  19  -2 3743.41 454.427  13
  -2  19  -2 3981.50 446.173  37
  -2  19  -2 4064.84 413.045  35
  -2  19  -2 3556.48 385.863  10
  -2  19  -2 3894.11 397.169  16
   2  19   2 3486.28 287.812  15
  -2  19  -3 13646.7 698.770  13
  -2  19  -3 15906.2 668.051  37
  -2  19  -3 14414.2 652.978  10
  -2  19  -3 10226.1 564.562  33
  -2  19  -3 12301.6 633.510  16
  -2  19  -3 13437.3 588.097  35
  -2  19  -4 3426.21 292.430  16
  -2  19  -4 3076.61 298.181  13
  -2  19  -4 2135.42 181.775  35
  -2  19  -4 4361.59 295.402  37
  -2  19  -4 2330.50 262.412  33
  -2  19  -4 3738.64 262.515  10
   2  20  -6 1389.31 180.031  33
  -2  20   6 1424.94 163.334  15
  -2  20   5 1061.52 192.370  11
  -2  20   5 1328.70 264.920  14
  -2  20   5 1392.55 234.921  15
  -2  20   4 512.452 168.483  10
  -2  20   4 736.500 227.934  11
  -2  20   3 6933.65 514.751  15
  -2  20   3 6376.14 455.259  11
  -2  20   3 6308.15 423.262  10
  -2  20   3 5630.49 433.726  16
  -2  20   2 20541.1 850.131  10
  -2  20   2 21275.2 869.776  11
  -2  20   1 268.771 226.236  16
  -2  20   1 122.354 214.138  11
  -2  20   1 67.4856 234.474  10
  -2  20   0 3078.37 443.050  35
  -2  20   0 2365.94 326.907  16
  -2  20   0 2336.10 349.284  11
  -2  20  -1 943.085 256.771  16
  -2  20  -1 1376.38 355.908  35
  -2  20  -1 915.258 278.475  11
  -2  20  -1 1224.38 292.503  10
  -2  20  -2 2099.48 345.017  13
  -2  20  -2 2356.33 302.084  16
  -2  20  -2 2765.99 344.147  11
  -2  20  -2 3006.40 355.175  35
  -2  20  -2 2933.89 344.583  10
  -2  20  -2 3326.98 395.706  37
  -2  20  -3 10872.1 471.726  35
  -2  20  -3 8724.14 510.315  13
  -2  20  -3 9103.72 497.499  16
  -2  20  -3 10913.2 537.323  11
  -2  20  -3 12215.1 540.355  10
  -2  20  -3 13205.8 558.721  37
  -2  20  -4 2720.22 188.163  37
  -2  20  -4 3381.09 207.528  10
  -2  20  -4 3189.62 237.762  11
  -2  21   5 156.126 156.513  14
  -2  21   5 47.7943 144.176  15
  -2  21   4 8229.73 433.666  11
  -2  21   4 10706.7 562.344  14
  -2  21   3 1326.54 230.831  11
  -2  21   3 1011.04 209.937  10
  -2  21   3 1008.92 276.386  15
  -2  21   2 2565.13 303.925  11
  -2  21   2 2006.37 321.473  15
  -2  21   2 1994.73 266.752  16
  -2  21   2 2439.37 296.504  10
  -2  21   1 230.555 202.317  11
  -2  21   1 235.936 189.657  16
  -2  21   1 148.670 220.840  10
  -2  21   0 6299.29 443.693  11
  -2  21   0 7274.70 542.598  37
  -2  21   0 7483.20 522.407  35
  -2  21   0 6589.24 468.947  10
  -2  21  -1 1861.64 280.988  11
  -2  21  -1 1669.30 253.195  16
  -2  21  -1 2324.28 350.237  35
   2  21   1 1919.01 230.286  15
  -2  21  -1 1837.16 300.394  10
  -2  21  -2 2365.05 260.246  16
  -2  21  -2 3416.75 327.900  35
  -2  21  -2 3538.10 326.463  10
  -2  21  -2 2800.21 289.555  11
  -2  21  -2 3294.69 358.513  37
  -2  21  -3 1581.56 199.101  10
  -2  21  -3 999.714 140.902  35
  -2  21  -3 1542.20 231.581  37
  -2  21  -3 1170.28 177.821  11
  -2  21  -3 842.830 152.340  16
  -2  22   4 1053.26 215.408  14
  -2  22   3 969.389 173.237  11
  -2  22   3 1061.86 170.479  10
  -2  22   3 1324.59 240.016  15
   2  22  -2 393.100 143.336  10
  -2  22   2 578.815 179.520  11
  -2  22   2 554.081 183.143  10
  -2  22   2 655.369 231.110  15
  -2  22   1 3139.26 294.047  11
  -2  22   1 4019.81 393.317  35
  -2  22   1 2969.79 336.929  15
  -2  22   1 3403.93 317.985  10
  -2  22   0 1278.69 339.115  37
  -2  22   0 1078.63 238.960  10
  -2  22   0 824.062 205.345  11
  -2  22   0 1183.59 295.091  35
  -2  22   0 403.725 162.423  16
   2  22   1 2239.88 194.741  15
  -2  22  -1 2215.21 244.903  11
  -2  22  -2 4222.82 275.072  35
  -2  22  -2 5108.69 339.914  37
  -2  22  -2 4637.09 315.683  10
  -2  22  -3 5381.42 265.834  10
  -2  22  -3 5637.76 253.810  37
  -2  23   4 3138.21 221.439  14
  -2  23   4 3428.54 226.248  35
  -2  23   4 2903.52 205.277  15
  -2  23   3 2069.50 207.919  37
  -2  23   3 2391.73 253.573  35
  -2  23   3 2341.62 230.260  15
  -2  23   2 4762.21 346.836  37
  -2  23   2 4559.02 335.612  15
  -2  23   2 4161.75 275.158  10
  -2  23   1 6955.76 421.598  37
  -2  23   1 6757.19 370.264  10
  -2  23   1 7325.42 413.902  35
  -2  23   1 6518.88 388.758  15
  -2  23   0 2654.00 255.644  10
  -2  23   0 1686.62 185.380  11
  -2  23   0 2908.32 297.340  35
   2  23   0 2308.84 198.632  15
  -2  23   0 2199.58 242.686  15
  -2  23  -1 1309.33 167.177  15
  -2  23  -1 1133.89 147.770  11
  -2  23  -1 1524.17 207.539  35
  -2  23  -2 173.103 132.053  37
  -2  23  -2 125.282 105.742  10
  -2  24   2 1276.96 166.018  15
  -2  24   2 1121.81 173.825  37
  -2  24   1 10660.5 443.804  15
  -2  24   1 13179.0 479.685  37
  -2  24   1 12853.2 469.139  35
  -2  24   1 10392.3 418.491  10
  -2  24   0 6392.74 305.562  10
  -2  24   0 6381.38 297.317  35
   3 -23  -3 1131.59 153.600  28
   3 -23  -3 1258.01 151.615  24
   3 -23  -3 1003.31 178.934  18
   3 -23  -2 398.348 108.587  26
   3 -23  -2 453.029 137.827  24
   3 -23  -1 9765.65 415.217  24
   3 -23  -1 10743.9 417.146  26
   3 -23   0 809.655 226.147  18
   3 -23   0 1263.29 182.250  36
   3 -23   0 1398.22 171.342  26
   3 -22  -4 3714.00 251.631  24
   3 -22  -4 3447.03 289.314  18
   3 -22  -4 4028.13 252.431  28
   3 -22  -3 11180.3 479.819  24
   3 -22  -3 10229.8 578.684  18
   3 -22  -3 11815.4 484.676  28
   3 -22  -2 4983.75 343.846  24
   3 -22  -2 4343.02 294.557  26
   3 -22  -1 5231.30 352.501  24
   3 -22  -1 5681.38 347.246  26
   3 -22   0 2526.53 246.709  24
   3 -22   0 1783.87 242.469  21
   3 -22   0 1756.39 351.996  18
  -3 -22  -1 2385.31 213.172  23
   3 -22   1 2819.68 242.652  26
   3 -22   2 3664.17 298.850  18
   3 -21  -5 3371.60 237.253  24
   3 -21  -5 3209.65 260.332  18
   3 -21  -5 2982.80 213.073  28
   3 -21  -4 628.524 228.625  21
   3 -21  -4 889.159 199.926  24
   3 -21  -4 575.679 242.394  18
   3 -21  -4 691.203 191.120  28
   3 -21  -3 1278.48 247.854  24
   3 -21  -3 1176.07 295.272  21
   3 -21  -3 1492.25 335.966  18
   3 -21  -3 1394.02 255.510  28
   3 -21  -3 1252.86 206.419  26
   3 -21  -2 2920.13 320.797  24
   3 -21  -2 2676.08 358.390  21
   3 -21  -2 3183.96 310.065  26
   3 -21  -1 1249.24 259.682  26
   3 -21  -1 1265.38 255.912  24
   3 -21  -1 1297.09 258.034  28
   3 -21  -1 822.610 268.934  21
   3 -21   0 101.217 364.118  18
   3 -21   0 609.004 243.021  26
   3 -21   0 486.523 209.909  24
  -3 -21   0 645.725 210.381  23
   3 -21   0 624.893 254.291  21
   3 -21   1 93.3515 204.885  26
  -3 -21  -1 192.010 181.876  23
   3 -21   1 173.957 204.438  21
  -3 -21  -2 2648.05 228.039  23
   3 -21   2 940.987 179.463  21
   3 -20  -6 3744.18 232.899  24
   3 -20  -6 3546.64 203.393  28
   3 -20  -5 1991.27 246.958  24
   3 -20  -5 2101.29 277.279  18
   3 -20  -5 1607.92 282.778  21
   3 -20  -5 2123.26 234.465  28
   3 -20  -4 1168.39 189.960  26
   3 -20  -4 1458.26 260.221  24
   3 -20  -4 1088.62 298.727  21
   3 -20  -4 1329.90 321.190  18
   3 -20  -4 1379.49 259.228  28
   3 -20  -3 6752.25 420.364  26
   3 -20  -3 6409.23 452.928  24
   3 -20  -3 6629.35 552.610  21
   3 -20  -3 7875.49 673.036  18
   3 -20  -2 2381.24 320.451  26
   3 -20  -2 2456.22 322.657  24
   3 -20  -2 1767.41 363.693  21
   3 -20  -2 2312.35 530.297  18
   3 -20  -1 9969.97 559.889  26
   3 -20  -1 9470.69 553.994  24
  -3 -20   1 8665.82 483.481  23
   3 -20  -1 8727.61 630.569  21
   3 -20  -1 10112.4 555.763  28
   3 -20   0 7182.35 468.779  24
  -3 -20   0 6706.96 434.287  23
   3 -20   0 5851.33 519.184  21
   3 -20   0 7352.75 489.364  26
   3 -20   1 3506.81 338.649  24
  -3 -20  -1 5122.49 375.210  23
   3 -20   1 3332.41 393.839  21
   3 -20   1 3357.07 269.682  30
   3 -20   1 4630.40 398.066  26
   3 -20   2 4460.06 367.050  36
  -3 -20  -2 5538.95 362.191  23
   3 -20   2 4699.16 289.752  30
   3 -20   3 3951.29 268.247  36
   3 -20   3 3665.54 218.397  30
   3 -19  -6 867.280 226.855  21
   3 -19  -6 1361.20 179.957  28
   3 -19  -5 977.996 291.938  21
   3 -19  -5 995.784 277.334  18
   3 -19  -5 1313.62 245.375  28
   3 -19  -4 3963.47 473.799  21
   3 -19  -4 3892.51 383.609  28
   3 -19  -4 3847.89 483.729  18
   3 -19  -4 3394.40 309.763  26
   3 -19  -3 8733.31 521.415  26
   3 -19  -3 10288.1 590.491  24
   3 -19  -3 8950.13 679.555  21
   3 -19  -3 10704.7 830.756  18
   3 -19  -2 820.732 475.759  18
   3 -19  -2 1292.84 304.015  26
  -3 -19   2 1012.10 259.742  24
   3 -19  -2 1205.75 289.817  24
  -3 -19   2 1060.86 211.418  23
   3 -19  -2 1307.71 383.441  21
   3 -19  -1 8089.66 543.529  26
   3 -19  -1 8411.19 538.028  24
   3 -19  -1 7735.18 642.168  21
  -3 -19   1 6997.61 463.350  23
   3 -19  -1 7595.29 520.274  28
   3 -19   0 25225.5 964.555  26
  -3 -19   0 23181.5 887.047  23
   3 -19   0 20817.0 1031.64  21
   3 -19   0 22190.5 906.134  24
   3 -19   0 23393.4 901.936  28
   3 -19   0 18550.2 749.500  30
   3 -19   1 3294.72 349.566  24
  -3 -19  -1 4057.09 380.162  23
   3 -19   1 2500.24 420.805  21
   3 -19   1 3067.67 493.734  19
   3 -19   1 3128.50 304.986  30
   3 -19   2 2458.82 338.622  36
  -3 -19  -2 2145.35 302.217  23
   3 -19   2 2035.25 398.550  19
   3 -19   2 1636.69 341.487  21
   3 -19   2 2312.84 269.574  30
   3 -19   2 2269.99 327.212  26
  -3 -19  -3 2988.81 265.985  23
   3 -19   3 2575.15 340.263  19
   3 -19   3 3074.64 296.413  36
   3 -19   3 2958.76 255.342  30
   3 -19   3 2909.47 277.016  26
  -3 -19  -4 486.687 92.2002  23
   3 -19   4 422.170 115.113  36
   3 -19   4 555.095 105.518  31
   3 -19   4 497.548 108.149  30
   3 -18  -7 1415.38 133.555  28
   3 -18  -6 6004.82 414.922  18
   3 -18  -6 4282.91 427.785  21
   3 -18  -6 5671.45 351.903  28
  -3 -18   6 4767.17 321.779  31
   3 -18  -5 7925.20 634.000  21
   3 -18  -5 9561.77 626.586  18
   3 -18  -5 8366.35 491.598  28
   3 -18  -4 1042.09 243.266  26
   3 -18  -4 1191.20 392.424  21
   3 -18  -4 1404.96 441.108  18
   3 -18  -4 1166.87 303.939  28
   3 -18  -3 8128.72 516.419  26
  -3 -18   3 6407.04 498.056  24
   3 -18  -3 8012.86 673.536  21
   3 -18  -3 9095.08 820.388  18
   3 -18  -2 6376.58 502.712  26
  -3 -18   2 6715.44 481.882  24
   3 -18  -2 6642.54 492.008  24
  -3 -18   2 6300.56 411.390  23
   3 -18  -2 6522.89 632.365  21
   3 -18  -2 6747.93 773.667  18
   3 -18  -2 5593.02 486.847  28
   3 -18  -1 2580.17 383.199  26
   3 -18  -1 2062.11 330.232  28
   3 -18  -1 2289.97 339.793  24
  -3 -18   1 2432.00 328.675  23
   3 -18  -1 2129.41 457.044  21
   3 -18   0 4723.39 462.939  26
   3 -18   0 4196.81 407.142  24
  -3 -18   0 4150.51 412.668  23
   3 -18   0 3877.87 519.612  21
   3 -18   0 4205.31 578.345  19
   3 -18   0 3569.30 335.673  30
   3 -18   0 4219.45 404.795  28
   3 -18   1 7247.52 510.904  24
   3 -18   1 7419.57 646.397  21
   3 -18   1 7754.03 693.901  19
   3 -18   1 8320.58 494.432  30
  -3 -18  -1 8118.30 535.182  23
   3 -18   2 4603.87 519.600  21
   3 -18   2 4764.75 538.978  19
   3 -18   2 5937.95 475.787  36
   3 -18   2 5300.72 401.363  30
   3 -18   2 6334.64 471.269  26
  -3 -18  -3 3673.43 322.216  23
   3 -18   3 2866.67 387.046  21
   3 -18   3 3701.24 353.830  36
   3 -18   3 4185.75 328.355  30
   3 -18   3 3622.73 430.444  19
   3 -18   3 3779.68 344.254  26
  -3 -18  -4 4785.67 260.423  23
   3 -18   4 3954.71 324.627  19
   3 -18   4 3645.95 269.329  36
   3 -18   4 4464.45 270.299  31
   3 -18   4 4186.11 267.605  30
  -3 -17   7 1869.92 216.717  31
   3 -17  -7 2072.94 199.345  28
   3 -17  -6 2694.01 336.786  18
   3 -17  -6 1988.10 384.947  21
   3 -17  -6 2453.53 291.919  28
   3 -17  -5 16516.7 689.173  26
   3 -17  -5 17007.6 950.760  21
  -3 -17   5 16197.8 719.271  31
   3 -17  -5 18212.3 788.578  28
   3 -17  -4 1947.20 307.256  26
   3 -17  -4 2588.60 484.857  21
   3 -17  -4 1959.19 457.785  18
   3 -17  -4 2525.03 382.273  28
  -3 -17   3 5963.31 491.492  24
   3 -17  -3 6789.71 653.868  21
   3 -17  -3 6512.89 493.765  26
   3 -17  -3 7631.89 788.649  18
   3 -17  -2 3713.91 409.821  26
  -3 -17   2 4215.39 400.022  24
   3 -17  -2 4407.81 426.828  24
  -3 -17   2 4105.02 342.886  23
   3 -17  -2 4152.39 558.136  21
   3 -17  -2 4412.12 440.364  28
   3 -17  -1 6150.79 505.791  26
   3 -17  -1 5914.46 482.287  24
  -3 -17   1 6060.11 452.633  23
   3 -17  -1 6466.45 634.704  21
   3 -17  -1 6334.96 490.289  28
   3 -17  -1 5491.06 392.408  30
   3 -17   0 9324.00 597.606  26
   3 -17   0 7575.80 489.685  30
   3 -17   0 8766.90 566.338  24
  -3 -17   0 8514.45 564.483  23
   3 -17   0 8286.56 724.709  21
   3 -17   0 8525.22 547.349  28
   3 -17   0 8701.40 755.127  19
   3 -17   1 3338.57 374.507  24
  -3 -17  -1 3244.61 389.239  23
   3 -17   1 2937.71 516.174  21
   3 -17   1 3282.50 552.882  19
   3 -17   1 3331.94 373.762  30
   3 -17   2 15076.4 900.995  21
   3 -17   2 17842.5 991.651  19
   3 -17   2 14167.4 637.863  38
   3 -17   2 17791.6 756.962  30
   3 -17   2 18992.7 812.921  26
   3 -17   3 2105.56 242.298  38
  -3 -17  -3 3252.58 342.720  23
   3 -17   3 1854.46 385.620  21
   3 -17   3 2536.12 429.673  19
   3 -17   3 2670.27 346.735  36
   3 -17   3 2860.06 326.114  30
   3 -17   3 2991.35 342.104  26
   3 -17   4 1502.45 305.914  19
  -3 -17  -4 1376.06 196.482  23
   3 -17   4 662.176 233.974  21
   3 -17   4 1346.05 223.800  30
   3 -17   4 1318.63 240.301  36
   3 -17   4 1390.61 216.778  31
  -3 -16   7 1398.17 178.048  25
   3 -16  -7 1578.45 319.361  21
  -3 -16   7 1636.22 247.732  31
   3 -16  -7 1952.51 233.066  28
  -3 -16   6 5930.10 376.956  25
   3 -16  -6 7412.70 637.943  21
  -3 -16   6 6902.63 470.559  31
   3 -16  -6 6484.15 367.837  26
   3 -16  -6 8072.79 556.526  18
   3 -16  -6 7610.58 480.708  28
   3 -16  -5 3961.06 354.161  26
   3 -16  -5 4282.70 516.487  18
   3 -16  -5 3583.27 545.341  21
  -3 -16   5 3029.27 294.443  25
  -3 -16   5 3167.52 361.951  31
   3 -16  -5 3916.93 401.921  28
   3 -16  -4 20734.0 1102.28  21
   3 -16  -4 19716.9 836.309  26
   3 -16  -4 24226.1 1235.40  18
  -3 -16   4 16182.8 761.201  31
   3 -16  -4 20563.9 899.142  28
   3 -16  -3 65259.3 1898.88  26
   3 -16  -3 68452.4 2218.60  21
   3 -16  -3 67675.5 2399.51  18
   3 -16  -2 7889.89 547.214  26
  -3 -16   2 6895.13 506.036  24
  -3 -16   2 7849.46 465.046  23
   3 -16  -2 8682.56 712.891  21
   3 -16  -2 7912.08 543.673  28
   3 -16  -1 10346.8 627.043  26
   3 -16  -1 9875.15 591.369  24
   3 -16  -1 11215.1 803.552  21
   3 -16  -1 9712.68 585.831  28
  -3 -16   1 9267.05 556.729  23
   3 -16  -1 8952.39 514.624  30
  -3 -16   0 13475.9 686.203  23
   3 -16   0 12915.3 879.145  21
   3 -16   0 13301.7 893.053  19
   3 -16   0 11166.6 616.713  30
   3 -16   0 12328.1 659.373  28
   3 -16   0 13017.8 680.990  24
   3 -16   1 14032.5 726.749  24
  -3 -16  -1 16112.3 777.510  23
   3 -16   1 15778.7 984.545  21
   3 -16   1 14312.9 939.640  19
   3 -16   1 15584.5 736.084  30
   3 -16   1 15296.9 733.238  28
   3 -16   1 13310.3 644.326  38
   3 -16   2 5312.66 621.844  21
   3 -16   2 4731.61 386.867  38
   3 -16   2 5579.91 468.809  30
   3 -16   2 4633.27 598.287  19
   3 -16   2 5578.48 468.943  26
  -3 -16  -3 12699.9 622.262  23
   3 -16   3 9563.00 744.985  21
   3 -16   3 11230.3 766.383  19
   3 -16   3 11667.1 607.028  30
   3 -16   3 10143.3 533.053  38
   3 -16   3 11006.3 614.705  36
   3 -16   3 11460.5 600.006  26
  -3 -16  -4 6301.62 378.427  23
   3 -16   4 5627.84 351.427  38
   3 -16   4 5855.94 399.420  36
   3 -16   4 5995.03 396.747  30
   3 -16   4 5864.82 503.513  19
  -3 -16  -5 1766.43 123.495  23
   3 -16   5 1338.95 191.532  19
   3 -16   5 1683.52 145.778  38
  -3 -15   8 1498.42 148.734  25
  -3 -15   8 1948.35 208.460  31
   3 -15  -8 1797.41 157.682  28
  -3 -15   7 2537.86 267.807  25
   3 -15  -7 2281.52 394.022  21
  -3 -15   7 2277.71 312.030  31
   3 -15  -7 2606.93 282.442  28
   3 -15  -6 10341.8 514.275  26
   3 -15  -6 10919.1 806.888  21
   3 -15  -6 11436.8 627.964  28
   3 -15  -6 12526.3 720.444  18
  -3 -15   6 9229.67 523.993  25
  -3 -15   6 11256.6 625.678  31
  -3 -15   5 16965.0 761.449  25
   3 -15  -5 21309.2 1135.09  21
   3 -15  -5 24413.5 1122.35  18
   3 -15  -5 20170.2 828.540  26
  -3 -15   5 19555.0 863.596  31
   3 -15  -5 21170.7 911.538  28
   3 -15  -4 28431.6 1315.86  21
   3 -15  -4 27102.7 1032.65  26
   3 -15  -4 29316.5 1391.86  18
   3 -15  -3 52896.4 1644.39  26
  -3 -15   3 47735.6 1649.05  24
   3 -15  -3 53067.5 2087.77  18
   3 -15  -3 55025.0 1933.21  21
   3 -15  -2 43566.8 1411.89  26
  -3 -15   2 40224.5 1374.21  24
  -3 -15   2 39414.4 1288.79  23
   3 -15  -2 45192.8 1670.75  21
   3 -15  -2 40025.6 1375.25  28
   3 -15  -1 15675.3 741.731  24
  -3 -15   1 14393.1 691.749  23
   3 -15  -1 15433.5 941.972  21
   3 -15  -1 16851.3 970.346  19
   3 -15  -1 14762.1 677.823  30
   3 -15  -1 15620.5 737.589  28
   3 -15  -1 15451.5 756.359  26
   3 -15   0 7017.96 492.979  24
  -3 -15   0 9050.76 557.545  23
   3 -15   0 7906.70 700.047  21
   3 -15   0 6757.49 671.275  19
   3 -15   0 7305.58 495.723  30
   3 -15   0 7667.85 499.722  28
   3 -15   1 242.113 261.932  26
   3 -15   1 102.151 210.553  24
  -3 -15  -1-46.2807 263.984  23
   3 -15   1 211.007 429.223  21
   3 -15   1 248.346 409.178  19
   3 -15   1-76.1265 253.846  30
   3 -15   1 358.649 220.023  28
   3 -15   2 36575.6 1245.94  38
   3 -15   2 36500.6 1549.36  19
   3 -15   2 39046.2 1307.37  30
   3 -15   2 40387.6 1320.80  26
  -3 -15  -3 3431.23 387.901  23
   3 -15   3 3387.65 396.376  36
   3 -15   3 3898.80 535.474  19
   3 -15   3 3753.26 409.446  30
   3 -15   3 2923.09 344.905  38
   3 -15   3 3772.05 393.514  26
   3 -15   4 934.744 233.632  38
  -3 -15  -4 1093.06 233.592  23
   3 -15   4 685.199 346.960  19
   3 -15   4 1096.94 266.712  36
  -3 -15  -5 11947.6 416.387  23
   3 -15   5 11967.3 459.970  38
   3 -15   5 10048.3 526.633  19
   3 -15   5 11107.7 405.836  31
   3 -15   5 13528.9 495.794  30
  -3 -14   8 1067.37 182.320  25
  -3 -14   8 1061.60 218.893  31
   3 -14  -8 1044.17 166.829  28
   3 -14  -7 2764.81 451.721  21
  -3 -14   7 2392.96 293.971  25
  -3 -14   7 3209.76 380.216  31
   3 -14  -7 3580.23 349.323  28
   3 -14  -6 2425.73 384.718  18
   3 -14  -6 2286.43 286.034  26
  -3 -14   6 2629.83 331.661  25
   3 -14  -6 2207.57 512.075  21
  -3 -14   6 1984.05 373.093  31
   3 -14  -6 2100.79 350.801  28
   3 -14  -5 3361.58 368.834  26
   3 -14  -5 4389.65 603.533  21
  -3 -14   5 2872.13 329.032  36
   3 -14  -5 4230.56 536.555  18
  -3 -14   5 3303.77 355.688  25
   3 -14  -5 3729.22 437.173  28
  -3 -14   5 3785.77 409.606  31
  -3 -14   5 3698.09 353.199  30
   3 -14  -4 10353.9 597.240  26
  -3 -14   4 9703.78 531.004  25
   3 -14  -4 9908.80 783.062  21
  -3 -14   4 9861.11 575.282  31
   3 -14  -3 56861.5 1727.03  26
  -3 -14   3 51165.5 1720.76  24
   3 -14  -3 53839.8 1722.36  28
   3 -14  -3 60954.3 2017.86  21
   3 -14  -3 58955.8 2166.49  18
   3 -14  -2 2843.39 358.249  26
  -3 -14   2 3075.75 327.585  24
   3 -14  -2 2337.58 442.875  21
  -3 -14   2 2676.97 279.552  23
   3 -14  -2 2912.54 334.466  28
   3 -14  -1 4780.83 392.338  24
  -3 -14   1 4958.96 395.105  23
   3 -14  -1 4756.28 375.485  30
   3 -14  -1 5408.18 570.790  21
   3 -14  -1 4663.14 419.132  26
   3 -14  -1 4719.87 549.172  19
   3 -14  -1 4801.31 396.482  28
   3 -14   0 29064.2 1063.88  24
  -3 -14   0 29944.9 1098.93  23
   3 -14   0 28148.6 1312.15  21
   3 -14   0 30122.7 1323.46  19
   3 -14   0 28544.5 1058.02  30
   3 -14   0 28168.1 1043.93  28
   3 -14   1 4198.60 413.215  26
   3 -14   1 3432.13 368.289  24
  -3 -14  -1 4675.78 429.971  23
   3 -14   1 4544.19 575.923  19
   3 -14   1 4118.14 364.606  28
   3 -14   1 3768.25 405.280  30
   3 -14   2 4559.69 416.848  24
   3 -14   2 5646.10 476.336  30
   3 -14   2 4632.51 418.134  38
   3 -14   2 4734.12 608.481  19
   3 -14   2 5083.67 456.743  26
  -3 -14  -3 9630.18 595.284  23
   3 -14   3 8649.22 547.934  38
   3 -14   3 8341.07 738.058  19
   3 -14   3 9338.88 590.740  36
   3 -14   3 9879.06 597.587  30
   3 -14   3 8429.64 542.049  26
  -3 -14  -4 11148.8 563.265  23
   3 -14   4 10396.4 566.281  38
   3 -14   4 9796.40 722.266  19
   3 -14   4 10208.7 573.694  36
  -3 -14  -5 2702.81 217.886  23
   3 -14   5 2166.54 325.129  19
   3 -14   5 2276.58 257.257  38
   3 -14   5 2411.21 250.001  36
   3 -14   5 2176.15 208.473  31
   3 -14   5 2507.95 263.238  30
  -3 -13   8 3658.71 346.962  31
   3 -13  -8 3338.52 279.857  28
  -3 -13   8 3242.00 289.761  25
   3 -13  -7 107.404 159.841  26
  -3 -13   7-9.32840 220.808  25
   3 -13  -7 310.845 375.186  21
   3 -13  -7 360.718 248.269  28
  -3 -13   7 11.0336 278.093  31
   3 -13  -6 7943.03 489.883  26
  -3 -13   6 7554.09 515.310  25
   3 -13  -6 7962.75 756.344  21
  -3 -13   6 7173.45 569.129  31
   3 -13  -6 9323.76 653.686  18
   3 -13  -6 8605.34 587.088  28
   3 -13  -5 10663.9 759.150  18
   3 -13  -5 9327.73 782.239  21
  -3 -13   5 8604.07 584.874  31
   3 -13  -5 9280.91 556.863  26
  -3 -13   5 7540.01 513.124  36
  -3 -13   5 9611.00 559.593  25
  -3 -13   5 9025.61 534.637  30
   3 -13  -5 9808.04 621.015  28
   3 -13  -4 3931.54 389.394  26
  -3 -13   4 3516.53 336.775  25
   3 -13  -4 4164.90 547.733  21
  -3 -13   4 3285.98 363.880  31
  -3 -13   4 3401.05 319.483  30
   3 -13  -3 75270.9 2084.73  26
  -3 -13   3 66883.7 2072.92  24
   3 -13  -3 80016.8 2388.08  21
   3 -13  -3 76122.7 2492.11  18
  -3 -13   3 65490.7 1938.04  25
   3 -13  -3 72338.5 2079.87  28
  -3 -13   2 5539.21 377.870  23
   3 -13  -2 6979.82 599.774  21
   3 -13  -2 6726.03 465.453  26
   3 -13  -2 6018.43 431.766  28
   3 -13  -1 18920.4 829.678  26
  -3 -13   1 21056.8 821.249  23
   3 -13  -1 22573.8 1069.00  21
   3 -13  -1 21562.7 1037.33  19
   3 -13  -1 19285.0 817.363  28
   3 -13   0 15272.5 691.001  24
   3 -13   0 16137.4 912.459  19
  -3 -13   0 15943.8 731.379  23
   3 -13   0 15313.0 726.182  26
   3 -13   0 16270.9 934.381  21
   3 -13   0 15199.5 697.749  30
   3 -13   0 14607.4 677.228  28
   3 -13   1 3567.95 374.405  26
   3 -13   1 2562.85 307.146  24
  -3 -13  -1 3582.01 395.218  23
   3 -13   1 2861.55 488.170  19
   3 -13   1 3144.04 365.572  30
   3 -13   1 2887.21 302.799  28
   3 -13   2 827.713 276.421  26
   3 -13   2 610.569 231.312  24
  -3 -13  -2 682.580 298.473  33
   3 -13   2 663.283 282.477  38
   3 -13   2 921.884 302.848  30
   3 -13   2 1055.16 420.039  19
  -3 -13  -3 9885.48 604.753  23
   3 -13   3 8851.91 573.141  38
   3 -13   3 8878.48 748.499  19
   3 -13   3 8748.07 580.177  36
   3 -13   3 8732.34 560.646  26
  -3 -13  -4 1546.90 283.294  23
   3 -13   4 1039.77 293.362  38
   3 -13   4 1549.49 332.434  30
   3 -13   4 1501.88 433.013  19
   3 -13   4 1395.84 297.581  36
  -3 -13  -5 97.7728 143.982  23
   3 -13   5 236.151 278.939  19
   3 -13   5 156.583 196.875  38
   3 -13   5 95.0458 188.385  36
   3 -13   5 186.391 143.618  31
   3 -13   5 223.483 194.897  30
   3 -13   6 31.8268 85.7546  30
   3 -13   6 182.364 112.344  38
   3 -12  -9 1425.20 113.562  28
  -3 -12   9 2452.45 178.261  25
  -3 -12   8 2628.63 301.969  25
   3 -12  -8 2509.27 281.324  28
  -3 -12   8 2497.91 350.069  31
   3 -12  -7 231.707 168.212  26
   3 -12  -7 686.381 445.090  21
   3 -12  -7 182.130 251.586  28
  -3 -12   7 116.045 155.433  38
  -3 -12   7 13.5888 260.027  19
  -3 -12   7-215.745 303.661  31
  -3 -12   7 72.2149 265.381  25
  -3 -12   6 1337.41 313.701  25
   3 -12  -6 1980.60 353.103  28
   3 -12  -6 1646.83 500.982  21
  -3 -12   6 1184.00 348.749  19
   3 -12  -6 1999.08 379.137  18
  -3 -12   6 1368.00 354.345  31
  -3 -12   6 1468.34 310.148  30
  -3 -12   5 14243.6 718.050  25
   3 -12  -5 16967.0 1000.81  21
  -3 -12   5 13257.4 698.697  36
   3 -12  -5 18130.1 975.992  18
  -3 -12   5 15742.6 723.059  30
  -3 -12   5 15342.2 777.428  31
   3 -12  -5 17400.5 822.363  28
  -3 -12   4 10449.1 557.430  25
   3 -12  -4 11095.1 767.601  21
   3 -12  -4 11193.1 798.904  18
  -3 -12   4 10196.6 581.897  31
  -3 -12   4 9594.55 516.208  30
   3 -12  -3 5741.62 420.946  26
  -3 -12   3 5151.62 363.373  25
  -3 -12   3 5059.95 415.211  24
   3 -12  -3 6185.58 557.787  21
   3 -12  -3 5862.43 599.856  18
   3 -12  -3 5261.42 420.535  28
   3 -12  -2 1233.03 250.903  26
   3 -12  -2 1499.84 343.148  21
  -3 -12   2 1225.85 194.807  23
   3 -12  -2 1293.43 237.464  28
  -3 -12   1 12627.6 602.622  23
   3 -12  -1 13271.7 772.312  19
   3 -12  -1 13644.7 799.008  21
   3 -12  -1 12977.6 609.054  28
  -3 -12   1 14718.8 572.940  34
   3 -12   0 8019.90 487.920  26
   3 -12   0 6568.62 431.087  24
   3 -12   0 7731.44 482.207  30
   3 -12   0 7298.42 599.482  19
   3 -12   0 6968.23 435.164  28
   3 -12   1 1953.93 298.809  26
  -3 -12  -1 2259.79 325.663  33
   3 -12   1 1708.03 257.897  24
   3 -12   1 1789.35 418.944  19
   3 -12   1 2113.43 308.218  30
   3 -12   1 1835.82 249.428  28
   3 -12   2 2470.76 327.072  26
   3 -12   2 1798.38 281.190  24
   3 -12   2 2035.61 467.339  19
  -3 -12  -2 1964.72 339.637  33
   3 -12   2 2202.66 348.718  30
   3 -12   3 10827.6 628.583  36
   3 -12   3 9803.08 617.521  38
   3 -12   3 10100.7 577.518  26
   3 -12   3 9056.01 764.584  19
  -3 -12  -3 11684.9 649.974  23
  -3 -12  -4 48965.1 1510.52  23
   3 -12   4 44332.1 1727.29  19
   3 -12   4 47707.7 1532.40  38
   3 -12   4 45324.8 1478.84  36
   3 -12   4 48894.6 1504.08  30
   3 -12   4 44295.3 1425.32  26
  -3 -12  -5 6514.09 376.835  23
   3 -12   5 7293.40 459.827  38
   3 -12   5 5221.23 521.706  19
   3 -12   5 7330.04 432.797  30
   3 -12   5 6308.13 359.748  31
   3 -12   5 6148.00 399.594  36
  -3 -12  -5 7709.30 465.794  33
   3 -12   6 542.554 128.485  30
   3 -12   6 550.217 161.643  38
   3 -12   6 162.848 135.556  19
  -3 -11   9 1023.28 173.241  25
   3 -11  -9 803.579 127.615  28
  -3 -11   8 2188.56 358.475  31
  -3 -11   8 1851.39 321.414  19
  -3 -11   8 2162.77 312.117  25
   3 -11  -8 1989.77 276.644  28
  -3 -11   7 4481.84 447.649  25
  -3 -11   7 4773.12 359.608  38
  -3 -11   7 4186.34 488.258  19
  -3 -11   7 4735.14 517.471  31
   3 -11  -7 5470.60 475.533  28
  -3 -11   6 43019.5 1460.11  25
  -3 -11   6 42910.5 1315.77  38
   3 -11  -6 48480.0 1644.00  18
  -3 -11   6 43772.4 1520.67  31
  -3 -11   6 45745.7 1459.58  30
   3 -11  -6 47144.9 1532.87  28
  -3 -11   5 37447.8 1300.56  25
  -3 -11   5 34180.5 1253.54  36
  -3 -11   5 38209.8 1272.69  30
   3 -11  -5 38433.3 1363.14  28
  -3 -11   5 37881.9 1345.32  31
  -3 -11   4 16247.1 710.096  25
   3 -11  -4 17491.4 973.490  18
  -3 -11   4 15577.1 720.862  31
  -3 -11   4 15120.5 663.988  30
   3 -11  -3 12671.7 611.816  28
   3 -11  -3 13628.0 770.707  21
  -3 -11   3 11554.6 547.424  25
  -3 -11   3 10604.2 575.404  24
   3 -11  -2 22548.2 964.009  21
   3 -11  -2 21454.3 781.907  26
   3 -11  -2 19891.2 747.463  28
  -3 -11   1 15430.0 644.179  23
   3 -11  -1 17809.2 869.164  21
   3 -11  -1 16908.4 827.260  19
  -3 -11   1 16284.6 610.217  32
   3 -11  -1 14901.9 628.328  28
   3 -11   0 4001.17 345.283  26
  -3 -11   0 4553.99 315.248  32
   3 -11   0 3532.57 300.576  24
   3 -11   0 3541.26 434.913  19
   3 -11   0 3488.01 295.808  28
  -3 -11   0 5085.90 389.019  23
   3 -11   1 6834.08 442.035  26
   3 -11   1 5819.11 397.507  24
  -3 -11  -1 7266.61 494.683  23
   3 -11   1 6445.21 456.382  30
   3 -11   1 6201.62 572.644  19
  -3 -11  -1 8767.25 424.764  34
   3 -11   1 5322.21 374.628  28
  -3 -11  -1 7613.11 481.204  33
   3 -11   2 4512.24 381.303  24
  -3 -11  -2 6390.06 472.499  33
   3 -11   2 4877.49 563.378  19
   3 -11   2 4172.02 422.866  30
   3 -11   2 5833.61 423.612  26
  -3 -11  -3 18778.4 827.819  23
   3 -11   3 13061.6 904.992  19
   3 -11   3 14781.6 756.000  38
   3 -11   3 15690.0 749.421  36
  -3 -11  -3 17028.5 793.342  33
   3 -11   3 14833.7 746.033  30
   3 -11   3 14619.3 698.592  26
  -3 -11  -4 1813.68 306.959  23
   3 -11   4 1526.88 455.429  19
   3 -11   4 1959.96 319.255  36
   3 -11   4 1775.00 332.488  30
   3 -11   4 1900.36 361.884  38
   3 -11   4 1930.96 271.916  26
  -3 -11  -5 3413.85 289.311  23
   3 -11   5 3739.56 336.402  30
   3 -11   5 2379.27 428.668  19
   3 -11   5 3208.05 317.156  36
   3 -11   5 3125.88 266.559  31
   3 -11   5 3102.18 363.183  38
   3 -11   6 2151.94 241.363  38
   3 -11   6 1510.05 239.494  19
   3 -11   6 2173.98 193.085  30
  -3 -10   9 8716.00 429.720  25
   3 -10  -9 8917.79 388.502  28
  -3 -10   8 1083.30 290.241  25
  -3 -10   8 1093.01 332.147  19
  -3 -10   8 1122.51 230.159  38
  -3 -10   8 944.305 337.848  31
   3 -10  -8 1137.36 262.412  28
  -3 -10   7 2575.51 392.457  25
  -3 -10   7 2667.35 427.299  31
  -3 -10   7 2153.00 285.681  38
   3 -10  -7 2239.79 375.057  28
  -3 -10   6 3506.71 404.433  25
  -3 -10   6 3588.85 329.935  38
   3 -10  -6 4125.47 440.115  18
  -3 -10   6 3367.16 455.974  31
  -3 -10   6 3218.15 397.784  30
   3 -10  -6 3819.91 434.020  28
  -3 -10   5 20000.4 876.966  25
  -3 -10   5 19878.7 861.566  36
  -3 -10   5 21669.9 934.802  31
  -3 -10   5 22021.4 877.510  30
   3 -10  -4 902.332 250.154  28
  -3 -10   4 615.342 213.329  25
  -3 -10   4 357.487 210.328  31
  -3 -10   4 473.159 184.577  30
   3 -10  -4 994.576 321.394  18
  -3 -10   3 86674.7 1986.09  25
   3 -10  -3 89015.7 2063.22  28
   3 -10  -2 25831.4 882.703  26
  -3 -10   2 24840.8 816.590  25
   3 -10  -2 25464.9 867.711  28
   3 -10  -1 28872.8 975.746  26
  -3 -10   1 31618.0 989.172  23
   3 -10  -1 30811.0 1142.48  19
  -3 -10   1 26392.0 914.031  34
  -3 -10   1 31275.1 948.119  32
   3 -10  -1 27168.3 934.403  28
   3 -10   0 32011.6 1048.97  26
  -3 -10   0 33013.6 1099.43  23
  -3 -10   0 32117.9 1014.32  32
  -3 -10   0 33166.8 1060.69  33
   3 -10   0 28978.5 986.526  28
   3 -10   0 33391.4 1246.45  19
  -3 -10  -1 30971.6 1047.24  23
   3 -10   1 26098.5 961.405  30
  -3 -10  -1 27893.2 901.926  32
   3 -10   1 26435.4 1144.80  19
  -3 -10  -1 24091.6 869.806  34
   3 -10   1 25227.7 887.476  28
  -3 -10  -1 28057.3 972.510  33
   3 -10   1 27046.0 944.619  26
   3 -10   2 13715.7 668.053  26
   3 -10   2 13393.3 866.142  19
  -3 -10  -2 14933.4 716.578  33
  -3 -10  -3 40508.2 1329.38  23
   3 -10   3 31856.3 1461.44  19
   3 -10   3 36541.5 1295.84  38
   3 -10   3 35589.7 1242.47  36
  -3 -10  -3 38543.6 1297.79  33
   3 -10   3 35187.4 1248.71  30
   3 -10   3 33857.6 1183.60  26
   3 -10   4 4747.29 467.389  38
   3 -10   4 4260.07 562.965  19
   3 -10   4 4491.15 412.267  36
   3 -10   4 4468.35 423.384  30
  -3 -10  -5 184.387 177.533  23
   3 -10   5 218.361 291.495  38
   3 -10   5 280.676 323.395  19
   3 -10   5 49.7156 189.876  36
   3 -10   5 216.561 219.574  30
  -3 -10  -6 5192.09 343.634  33
   3 -10   6 4101.45 258.588  30
   3  -9  -9 999.634 185.002  28
  -3  -9   8 2072.59 367.037  25
   3  -9  -8 2487.92 344.478  28
  -3  -9   8 1510.16 204.049   5
   3  -9  -8 1777.55 216.511   3
  -3  -9   8 2283.74 299.359  38
  -3  -9   8 1954.49 395.769  31
  -3  -9   7 1554.35 521.418  14
   3  -9  -7 1582.79 246.177   3
  -3  -9   7 1531.87 226.897   5
  -3  -9   7 1663.25 284.011  38
   3  -9  -7 1732.22 354.222  28
  -3  -9   7 1703.66 411.502  31
  -3  -9   7 2018.72 367.574  25
   3  -9  -6 4362.51 440.173  18
  -3  -9   6 3737.38 575.542  14
  -3  -9   6 3956.14 428.672  25
  -3  -9   6 3839.08 346.448  38
  -3  -9   6 3667.62 306.730   5
  -3  -9   6 3873.13 465.513  31
  -3  -9   6 4009.56 411.294  30
   3  -9  -6 4560.97 460.618  28
  -3  -9   5 1790.19 297.322  25
  -3  -9   5 1467.65 393.965  14
  -3  -9   5 1640.14 222.342  38
   3  -9  -5 2145.89 340.267  18
  -3  -9   5 1307.66 269.856  36
  -3  -9   5 1787.24 276.267  30
  -3  -9   5 1884.92 337.598  31
  -3  -9   4 22206.6 834.586  25
  -3  -9   4 22476.4 876.897  22
   3  -9  -4 23379.8 1061.90  18
  -3  -9   4 21526.8 852.906  31
  -3  -9   4 20042.9 785.110  30
   3  -9  -4 21728.5 872.786  28
  -3  -9   3 24411.3 794.974  25
   3  -9  -3 22577.7 949.749  21
  -3  -9   3 22146.1 727.751  30
   3  -9  -3 23493.7 826.696  28
   3  -9  -2 43819.8 1413.36  21
   3  -9  -2 42903.7 1216.78  28
   3  -9  -1 2968.38 262.226  26
  -3  -9   1 3258.16 285.334  34
   3  -9  -1 2853.75 335.874  19
   3  -9   0 4090.58 302.099  26
  -3  -9   0 3696.31 295.969  32
  -3  -9   0 3950.91 327.694  23
   3  -9   0 4282.86 417.762  19
  -3  -9   0 3803.04 305.040  33
   3  -9   0 3406.42 257.235  28
   3  -9   1 24307.5 861.940  26
   3  -9   1 26096.5 1080.45  19
  -3  -9  -1 27860.1 983.938  23
   3  -9   1 25498.7 899.813  30
   3  -9   1 24699.1 823.316  28
  -3  -9  -1 22980.6 827.039  32
  -3  -9  -1 25047.3 887.995  33
  -3  -9  -1 22966.2 818.641  34
   3  -9   2 50255.7 1468.74  26
  -3  -9  -2 55894.1 1627.49  23
  -3  -9  -2 52831.7 1538.69  33
   3  -9   2 47510.3 1728.03  19
   3  -9   2 52258.3 1531.28  30
   3  -9   3 58274.5 1741.31  30
  -3  -9  -3 61483.1 1809.75  23
   3  -9   3 59974.4 1787.47  38
   3  -9   3 55350.9 1700.90  36
  -3  -9  -3 54053.7 1629.79   3
  -3  -9  -3 60697.5 1784.99  33
   3  -9   3 55809.9 1659.86  26
  -3  -9  -4 21409.7 884.777  23
   3  -9   4 20006.2 789.887   5
   3  -9   4 19346.6 1079.26  19
   3  -9   4 19389.7 832.674  36
   3  -9   4 20969.6 929.495  38
   3  -9   4 20567.9 858.852  30
  -3  -9  -4 19867.8 796.433   3
  -3  -9  -5 2492.67 286.485  23
   3  -9   5 2384.76 289.248  36
   3  -9   5 1973.12 247.607   5
  -3  -9  -5 2525.48 271.725   3
   3  -9   5 2689.26 315.593  30
   3  -9   5 1992.45 422.657  19
   3  -9   6 1458.96 293.025  19
   3  -9   6 2270.05 211.702  30
  -3  -8   9 1298.45 236.551  25
  -3  -8   9 1098.97 278.018  19
   3  -8  -9 1248.33 154.177   3
   3  -8  -9 1454.47 219.554  28
   3  -8  -8 1013.50 212.870   3
  -3  -8   8 998.480 464.514  14
  -3  -8   8 1082.78 262.738  38
  -3  -8   8 1148.97 227.729   5
   3  -8  -8 1336.62 310.998  28
  -3  -8   7 6644.97 729.684  14
  -3  -8   7 6698.00 543.793  25
   3  -8  -7 6705.25 458.773   3
   3  -8  -7 7138.69 737.572  21
  -3  -8   7 6322.20 421.633   5
  -3  -8   7 6907.84 479.339  38
  -3  -8   7 6044.80 572.064  31
   3  -8  -7 7779.84 580.214  28
  -3  -8   6 4284.49 580.179  14
   3  -8  -6 4005.84 566.414  21
  -3  -8   6 3905.43 326.555   5
   3  -8  -6 5024.62 450.779  18
  -3  -8   6 4423.86 474.403  31
  -3  -8   6 4113.49 409.165  30
  -3  -8   6 3940.14 360.585  38
   3  -8  -6 4135.71 430.703  28
  -3  -8   5 6822.80 600.415  14
  -3  -8   5 8485.16 520.788  25
  -3  -8   5 8951.73 578.887  22
   3  -8  -5 8174.82 643.597  21
  -3  -8   5 7916.10 438.490  38
  -3  -8   5 7570.77 411.416   5
  -3  -8   5 8082.75 489.500  30
  -3  -8   5 7800.37 497.582  36
   3  -8  -5 9614.74 604.494  18
  -3  -8   5 8400.12 540.098  31
  -3  -8   4 22786.0 835.741  25
  -3  -8   4 21426.4 848.534  22
   3  -8  -4 22139.9 981.109  21
   3  -8  -4 25018.3 1046.87  18
  -3  -8   4 17871.6 904.039  14
  -3  -8   4 22359.3 847.591  31
  -3  -8   4 20224.9 777.602  30
   3  -8  -4 22593.6 868.336  28
  -3  -8   3 25304.5 856.074  25
   3  -8  -3 24376.7 991.030  21
   3  -8  -3 24797.1 880.395  28
   3  -8  -2 48394.1 1330.54   1
   3  -8  -2 47436.2 1328.35   2
   3  -8  -1 4138.87 255.731   1
   3  -8  -1 3615.51 244.774   2
   3  -8   0 13933.9 557.370  26
  -3  -8   0 15755.0 635.811  23
   3  -8   0 13917.5 566.151   1
   3  -8   0 12882.9 662.127  19
   3  -8   0 11515.9 530.052   2
  -3  -8   0 14387.3 576.500  34
  -3  -8   0 13587.8 558.658  33
  -3  -8   0 14391.0 572.487  32
   3  -8   1 15188.3 611.617  26
  -3  -8  -1 15607.8 647.548  33
  -3  -8  -1 14570.6 604.053  32
   3  -8   1 15385.7 776.948  19
  -3  -8  -1 15295.1 617.538  34
   3  -8   2 22505.9 808.498  26
  -3  -8  -2 25878.6 947.499  23
   3  -8   2 22608.4 852.995  30
  -3  -8  -2 23978.2 877.427  33
   3  -8   2 20601.4 1005.73  19
  -3  -8  -2 19574.8 733.669  34
  -3  -8  -2 22818.8 806.111   3
  -3  -8  -3 41614.0 1400.96  23
   3  -8   3 42154.9 1381.46  38
   3  -8   3 38658.9 1249.93  26
   3  -8   3 40471.9 1304.95  36
   3  -8   3 40615.2 1328.88  30
  -3  -8  -3 39736.7 1277.33   3
  -3  -8  -3 43531.0 1387.66  33
  -3  -8  -4 76751.2 2124.87  23
   3  -8   4 63336.9 2302.83  19
   3  -8   4 65487.7 2024.15  36
  -3  -8  -4 75630.5 2146.35  33
  -3  -8  -4 71703.9 2029.57   3
   3  -8   4 72600.7 2053.19  30
  -3  -8  -5 692.086 218.965   3
   3  -8   5 672.382 350.662  19
   3  -8   5 618.449 224.240   5
   3  -8   5 531.623 231.159  30
   3  -8   6 6452.14 418.782  38
   3  -8   6 6349.93 346.655   5
   3  -8   6 5637.16 309.980  30
  -3  -8  -6 6550.36 360.608   3
  -3  -8  -7 412.026 125.886  33
   3  -8   7 289.354 112.679  38
  -3  -7   9 4703.83 358.603  25
   3  -7  -9 4897.97 296.700   3
   3  -7  -9 4353.42 341.449  28
  -3  -7   9 4573.42 291.565   5
   3  -7  -8 273.156 201.423   3
  -3  -7   8 406.014 299.730  25
  -3  -7   8 603.610 435.866  14
  -3  -7   8 337.855 252.957  38
  -3  -7   8 406.025 208.118   5
   3  -7  -8 514.263 298.942  28
  -3  -7   7 3000.47 581.821  14
   3  -7  -7 4367.80 393.433   3
   3  -7  -7 3987.30 599.615  21
  -3  -7   7 4088.91 365.206   5
  -3  -7   7 3828.54 488.753  31
  -3  -7   7 4503.89 407.828  38
   3  -7  -7 4483.26 472.176  28
  -3  -7   6 5822.31 625.789  14
  -3  -7   6 6619.55 553.056  22
   3  -7  -6 7131.79 678.382  21
  -3  -7   6 7314.28 472.542  38
  -3  -7   6 6941.59 434.685   5
  -3  -7   6 7509.64 564.247  31
  -3  -7   6 7131.71 503.884  30
   3  -7  -6 7779.02 548.464  18
  -3  -7   5 24117.6 1092.90  14
  -3  -7   5 23892.1 892.371  30
  -3  -7   5 25250.7 994.172  22
   3  -7  -5 23421.4 1088.01  21
  -3  -7   5 21541.6 800.618   5
  -3  -7   5 19238.4 912.494  20
   3  -7  -5 27117.7 1026.60  18
  -3  -7   5 25242.9 969.590  31
  -3  -7   5 22933.7 832.989  38
  -3  -7   4 29559.6 1148.38  14
  -3  -7   4 30604.8 1020.33  25
  -3  -7   4 31860.8 1065.34  22
   3  -7  -4 30668.3 1173.55  21
  -3  -7   4 30756.5 1011.93  20
   3  -7  -4 34433.7 1209.01  18
  -3  -7   4 29957.8 1028.81  31
  -3  -7   4 30323.1 986.003  30
   3  -7  -4 31812.1 1063.82  28
   3  -7  -3 73138.0 1985.85  21
   3  -7  -3 62556.0 1706.83   1
   3  -7  -2 23621.8 707.120   7
   3  -7  -2 25934.6 944.439  21
   3  -7  -2 24418.8 759.624   1
   3  -7  -2 24356.0 751.511   2
   3  -7  -1 113989. 2731.33   1
   3  -7  -1 105168. 2691.84   2
   3  -7   0 10805.8 456.146  39
   3  -7   0 10680.3 491.183   1
   3  -7   0 10903.5 489.487   2
  -3  -7  -1 8164.49 466.292  23
   3  -7   1 7557.42 462.978   2
  -3  -7  -1 7280.70 386.170  34
   3  -7   1 7280.26 505.328  19
  -3  -7  -1 7304.26 407.595  33
  -3  -7  -1 6945.30 393.618  32
  -3  -7  -1 6673.65 364.419   3
  -3  -7  -2 60745.6 1676.37  23
   3  -7   2 50717.7 1476.43  26
   3  -7   2 50086.3 1722.83  19
  -3  -7  -2 59192.1 1564.23  37
   3  -7   2 54717.9 1549.47  30
  -3  -7  -2 44678.4 1423.46  34
  -3  -7  -2 56233.8 1587.89  33
  -3  -7  -2 52956.1 1511.16   3
  -3  -7  -2 49309.1 1443.67   4
  -3  -7  -3 16221.9 781.467  23
  -3  -7  -3 16537.6 718.523   3
   3  -7   3 15852.6 722.775  30
  -3  -7  -3 16623.4 778.945  33
   3  -7   3 16919.5 717.730  36
   3  -7   3 15671.9 666.175  26
  -3  -7  -4 30516.4 1087.98  23
   3  -7   4 27481.3 1012.74  30
  -3  -7  -4 30295.8 1122.37  33
   3  -7   4 24693.2 976.118  36
  -3  -7  -4 26999.0 1018.73   3
  -3  -7  -5 4003.24 344.848  23
   3  -7   5 4610.23 445.077  38
   3  -7   5 4207.50 369.299   5
  -3  -7  -5 4270.28 373.164   3
   3  -7   5 4238.65 348.503  30
   3  -7   5 3222.60 485.960  19
  -3  -7  -6 1181.12 211.655   3
   3  -7   6 1132.83 253.777  38
   3  -7   6 954.398 209.769   5
   3  -7   6 942.535 165.456  30
   3  -7   6 630.937 274.687  19
   3  -7   7 2192.28 183.922  38
  -3  -7  -7 2474.09 204.678  33
   3  -6 -10 189.529 93.9629  13
  -3  -6  10 19.0476 70.1186  25
   3  -6 -10 17.1444 56.7102  28
  -3  -6   9 9266.74 698.441  14
  -3  -6   9 10335.3 526.493  25
  -3  -6   9 10956.3 493.739   5
   3  -6  -9 11159.0 492.932   3
   3  -6  -9 11268.4 550.544  28
  -3  -6   8 3465.05 579.313  14
  -3  -6   8 2764.65 382.692  25
   3  -6  -8 2611.05 318.308   3
  -3  -6   8 2854.38 327.333   5
  -3  -6   8 3042.45 376.687  38
   3  -6  -8 3150.36 401.309  28
  -3  -6   7 3413.52 591.933  14
  -3  -6   7 4441.53 407.020  38
   3  -6  -7 3484.13 375.798   3
   3  -6  -7 3872.09 568.614  21
  -3  -6   7 4343.64 388.542   5
  -3  -6   7 4258.55 516.568  31
  -3  -6   6 5694.15 580.250  14
  -3  -6   6 5511.95 512.282  22
  -3  -6   6 5657.95 417.989  38
   3  -6  -6 4599.33 561.263  21
  -3  -6   6 4665.44 598.211  15
  -3  -6   6 5144.23 388.823   5
  -3  -6   6 6182.31 516.560  31
  -3  -6   5 43842.5 1564.24  14
  -3  -6   5 47837.1 1493.24  22
  -3  -6   5 40868.8 1619.31  15
   3  -6  -5 43002.1 1588.12  21
  -3  -6   5 42048.9 1295.32   5
  -3  -6   5 40864.8 1398.52  20
  -3  -6   5 44168.7 1324.97  38
  -3  -6   5 44773.6 1437.29  31
  -3  -6   5 45143.3 1374.74  30
   3  -6  -5 46042.1 1460.73  18
  -3  -6   4 24440.5 986.705  14
  -3  -6   4 26742.5 904.043  25
  -3  -6   4 23735.1 847.565  30
  -3  -6   4 27233.9 947.522  22
   3  -6  -4 26993.5 1043.04  21
   3  -6  -4 24327.2 838.304   1
  -3  -6   4 23658.4 881.420  20
  -3  -6   4 25108.8 903.749  31
  -3  -6   4 24853.3 1065.71  15
   3  -6  -3 39268.9 1018.57  21
   3  -6  -3 32748.8 739.519   1
   3  -6  -2 18242.6 598.649   2
   3  -6  -2 17475.4 578.066   7
   3  -6  -2 17162.2 601.275   1
   3  -6  -1 9025.31 412.324  39
   3  -6  -1 8789.59 411.137   1
   3  -6  -1 8544.22 380.275   2
   3  -6   0 103048. 2667.85  39
   3  -6   0 112251. 2722.46   2
  -3  -6  -1 33759.5 990.725  37
  -3  -6  -1 28758.6 968.675  32
  -3  -6  -1 29927.3 966.826   3
   3  -6   1 31897.1 1090.51   2
   3  -6   1 31463.1 970.622  39
  -3  -6  -2 19920.6 795.639  23
  -3  -6  -2 15347.6 615.947  34
  -3  -6  -2 18193.3 739.358  33
  -3  -6  -2 18739.2 716.877  37
  -3  -6  -2 17131.9 684.268   3
  -3  -6  -2 15748.0 626.627   4
   3  -6   2 18162.8 698.582  30
  -3  -6  -2 19748.8 725.777  27
   3  -6   2 17471.6 644.057  26
  -3  -6  -3 1893.67 267.953   3
  -3  -6  -3 2076.33 315.977  23
   3  -6   3 2106.02 283.057  30
   3  -6   3 2207.07 332.362  38
   3  -6   3 1973.95 258.735  36
  -3  -6  -3 1938.34 329.886  33
  -3  -6  -4 488.957 229.388   3
  -3  -6  -4 411.140 230.286  23
   3  -6   4 486.171 278.634  38
   3  -6   4 433.140 193.080  36
  -3  -6  -4 477.134 315.546  33
   3  -6   4 475.949 216.450  30
  -3  -6  -5 8808.25 503.261  23
   3  -6   5 7952.36 459.296  30
   3  -6   5 8351.01 568.091  38
   3  -6   5 8604.54 534.026   5
  -3  -6  -5 9555.41 551.944   3
   3  -6   6 2864.99 305.413   5
   3  -6   6 3039.44 333.349  38
  -3  -6  -6 3310.93 306.161   3
   3  -6   7 1867.65 181.044  38
   3  -6   7 2181.56 174.198   5
  -3  -6  -7 2057.81 209.846  33
  -3  -6  -7 1948.24 172.167   3
  -3  -5  10 388.056 87.3034  25
   3  -5 -10 610.741 124.694  13
   3  -5 -10 619.614 94.7418   3
  -3  -5  10 599.041 95.6582   5
  -3  -5   9 2388.93 453.106  14
  -3  -5   9 2449.00 294.005  25
   3  -5  -9 2941.06 329.272  28
  -3  -5   9 3303.90 307.044   5
   3  -5  -9 2689.34 272.797   3
  -3  -5   8 6910.29 735.689  14
  -3  -5   8 8117.26 552.660  25
   3  -5  -8 8436.91 527.342   3
  -3  -5   8 9429.34 543.911   5
  -3  -5   8 7679.24 538.431  38
  -3  -5   8 8116.54 627.728  31
  -3  -5   7 5053.43 429.062   5
  -3  -5   7 4551.44 626.036  14
  -3  -5   7 5370.02 552.261  22
   3  -5  -7 5309.17 640.952  21
  -3  -5   7 5798.79 470.763  38
  -3  -5   6 28347.7 1259.62  14
  -3  -5   6 29126.1 1169.99  22
   3  -5  -6 27673.9 1270.52  21
  -3  -5   6 29322.2 1039.26  38
  -3  -5   6 27654.6 1004.72   5
  -3  -5   6 29790.2 1148.66  31
  -3  -5   6 25804.9 1264.56  15
  -3  -5   5 3548.76 418.374  14
  -3  -5   5 3904.74 390.587  22
   3  -5  -5 3303.67 426.071  21
  -3  -5   5 3127.98 321.728  12
  -3  -5   5 3476.75 458.771  15
  -3  -5   5 3618.26 308.109  38
  -3  -5   5 3387.48 290.256   5
  -3  -5   5 3880.26 369.801  31
  -3  -5   5 3755.59 324.952  30
  -3  -5   5 3920.05 470.892  20
  -3  -5   4 11297.3 586.938  14
  -3  -5   4 12145.1 526.919  25
   3  -5  -4 10280.5 571.760   6
   3  -5  -4 10478.8 456.794   1
  -3  -5   4 11980.1 560.059  22
  -3  -5   4 11101.3 541.583   1
   3  -5  -4 11814.3 620.500  21
  -3  -5   4 11410.2 495.775  12
  -3  -5   4 11567.8 532.583  20
  -3  -5   4 10668.8 481.580  30
  -3  -5   4 10992.1 637.330  15
   3  -5  -3 33810.1 716.698   7
   3  -5  -3 29195.7 773.121   1
   3  -5  -2 43759.4 1168.73   7
   3  -5  -2 45123.1 1180.81   2
   3  -5  -1 179235. 4195.70  39
   3  -5  -1 179586. 4160.18   2
   3  -5   0 5045.15 310.118  39
   3  -5   0 5415.49 328.903   2
  -3  -5  -1 29460.6 1067.03   8
  -3  -5  -1 29704.7 911.727   2
   3  -5   1 27355.8 895.507  39
   3  -5   1 29454.5 996.377   2
  -3  -5  -2 11326.4 525.120  32
  -3  -5  -2 14636.7 663.874  23
  -3  -5  -2 14437.3 607.775  37
  -3  -5  -2 14038.9 626.188  33
  -3  -5  -2 15858.4 602.439  35
  -3  -5  -2 12160.5 517.482  34
  -3  -5  -2 13868.9 589.442   3
  -3  -5  -2 15239.1 616.368  27
  -3  -5  -2 13073.8 545.063   4
   3  -5   2 13325.2 570.882  30
  -3  -5  -3 7930.70 519.869  23
  -3  -5  -3 6930.12 456.327   3
   3  -5   3 7856.60 499.654  38
  -3  -5  -3 7432.12 508.553  33
   3  -5   3 7553.98 451.646  30
  -3  -5  -4 8762.60 551.380  23
  -3  -5  -4 9168.95 603.630  33
   3  -5   4 8982.59 568.009  38
  -3  -5  -4 9075.79 551.107  37
  -3  -5  -4 8885.09 545.186   3
   3  -5   4 9300.67 503.098  30
  -3  -5  -5 8633.88 520.015  13
  -3  -5  -5 7366.03 476.311  23
   3  -5   5 10174.3 577.719   5
  -3  -5  -5 9333.69 565.211   3
   3  -5   5 10177.9 596.504  38
   3  -5   5 8427.72 459.442  30
  -3  -5  -5 9745.93 639.919  33
  -3  -5  -6 1443.44 267.576   3
   3  -5   6 897.428 243.506  38
   3  -5   6 1004.06 249.770   5
   3  -5   6 686.819 290.571  19
   3  -5   7 1040.60 154.199  38
   3  -5   7 1189.11 170.292   5
  -3  -5  -7 1348.75 174.543   3
   3  -4 -10 773.903 115.471   3
  -3  -4  10 358.852 83.8132  25
   3  -4 -10 753.155 134.081  13
  -3  -4  10 652.928 121.968   5
   3  -4 -10 407.935 105.991  28
  -3  -4   9 3346.00 503.508  14
  -3  -4   9 3523.80 329.006  25
   3  -4  -9 3780.24 331.201   3
  -3  -4   9 3385.86 324.836   5
   3  -4  -9 4068.39 373.614  28
  -3  -4   8 2482.43 354.182  25
  -3  -4   8 2678.57 375.271  38
  -3  -4   8 1626.80 501.999  14
   3  -4  -8 2329.24 344.711   3
  -3  -4   8 2766.57 357.506   5
  -3  -4   7 9378.43 771.017  14
  -3  -4   7 8116.16 548.186  38
  -3  -4   7 8297.45 536.366   5
  -3  -4   6 6222.57 587.298  14
  -3  -4   6 6754.62 535.015  22
   3  -4  -6 6749.87 613.349  21
  -3  -4   6 6746.79 456.843  38
  -3  -4   6 6235.10 633.560  15
  -3  -4   6 7739.08 555.362  31
  -3  -4   6 6963.21 453.188   5
  -3  -4   5 41048.5 1252.74  38
  -3  -4   5 37279.4 1390.55  14
  -3  -4   5 43269.9 1381.80  22
  -3  -4   5 38660.6 1226.24   5
   3  -4  -5 43246.9 1495.44  21
  -3  -4   5 38532.7 1277.50  12
  -3  -4   5 38544.9 1308.53  20
  -3  -4   5 44690.1 1372.92  31
  -3  -4   5 45215.1 1547.26  15
   3  -4  -4 38406.6 1161.62   1
   3  -4  -4 35021.0 1261.81   6
  -3  -4   4 43144.1 1274.73  22
  -3  -4   4 39983.3 1268.72   1
   3  -4  -4 43512.4 1360.20  21
  -3  -4   4 40998.4 1199.04  12
  -3  -4   4 42276.3 1215.15  20
  -3  -4   4 35264.8 1162.90  39
  -3  -4   4 43481.3 1408.64  15
   3  -4  -3 18529.1 581.579   7
   3  -4  -3 17706.6 627.454   1
   3  -4  -2 43119.1 1192.99   7
   3  -4  -2 46350.1 1197.37   2
   3  -4  -2 43910.7 1216.92   1
   3  -4  -1 25534.0 828.138   1
   3  -4  -1 25053.2 809.294  39
   3  -4  -1 25905.6 784.795   2
   3  -4   0 24632.8 809.489  39
   3  -4   0 24971.4 814.827   2
  -3  -4  -1 13466.7 649.507   8
   3  -4   1 13177.1 551.845  39
   3  -4   1 13172.0 593.230   2
  -3  -4  -1 12736.0 528.793   3
   3  -4   2 70941.7 1849.91  30
  -3  -4  -2 77839.5 2007.13  23
  -3  -4  -2 79499.9 1877.84  35
   3  -4   2 53107.0 1765.81   6
  -3  -4  -2 74399.2 1889.49  37
  -3  -4  -2 71836.9 1887.31   3
  -3  -4  -2 57525.3 1783.89  32
  -3  -4  -2 67055.5 1825.63   4
  -3  -4  -2 70705.4 1913.75  33
  -3  -4  -2 77046.7 1909.29  27
  -3  -4  -3 10091.5 582.415  23
  -3  -4  -3 9950.20 536.602   3
   3  -4   3 9391.49 540.255  38
  -3  -4  -3 10927.7 545.170  35
  -3  -4  -3 10258.7 592.044  33
   3  -4   3 8739.94 473.938  30
  -3  -4  -3 11382.6 577.740  27
  -3  -4  -4 774.460 260.027   3
  -3  -4  -4 803.640 249.290  23
  -3  -4  -4 698.968 225.624  13
  -3  -4  -4 946.211 316.968  33
   3  -4   4 808.432 273.157  38
   3  -4   4 458.826 185.478  30
  -3  -4  -4 773.760 292.362  37
  -3  -4  -5 2123.68 311.448  13
  -3  -4  -5 1857.88 272.758  23
   3  -4   5 2466.90 356.066   5
   3  -4   5 2328.46 333.848  38
  -3  -4  -5 2491.75 356.339  37
  -3  -4  -5 2524.72 417.341  33
  -3  -4  -5 2315.88 344.064   3
   3  -4   5 2216.50 245.696  30
  -3  -4  -6 6900.74 432.526  13
   3  -4   6 6542.05 452.450   5
   3  -4   6 6438.03 427.271  38
  -3  -4  -6 6700.05 456.906   3
   3  -4   7 884.584 149.745  38
   3  -4   7 1326.18 189.413   5
  -3  -4  -7 1219.58 187.901   3
  -3  -3  10 952.584 238.633  14
   3  -3 -10 841.478 149.590  13
  -3  -3  10 1239.30 152.292   5
   3  -3 -10 1134.78 141.715   3
   3  -3 -10 590.589 127.945  28
  -3  -3   9 949.211 252.529   5
   3  -3  -9 981.719 241.361   3
  -3  -3   9 899.554 225.131  25
  -3  -3   9 665.412 403.184  14
  -3  -3   8 2356.65 346.723  25
  -3  -3   8 2041.50 530.387  14
   3  -3  -8 2668.65 374.228   3
  -3  -3   8 2814.43 367.082   5
  -3  -3   8 2770.38 381.615  38
  -3  -3   8 1924.15 526.689  15
  -3  -3   7 18969.2 1079.01  14
  -3  -3   7 19610.1 855.638   5
  -3  -3   7 20633.2 881.044  38
  -3  -3   6 9019.07 647.898  14
  -3  -3   6 9902.81 630.617  22
   3  -3  -6 8660.90 680.082  21
  -3  -3   6 9850.59 537.801  38
  -3  -3   6 8891.85 514.610   5
  -3  -3   6 8515.08 586.628  31
  -3  -3   6 10051.4 735.354  15
  -3  -3   5 8509.62 568.435  14
  -3  -3   5 9095.60 467.563  38
  -3  -3   5 9266.39 548.809  22
  -3  -3   5 8717.61 607.519  15
   3  -3  -5 9480.94 614.397  21
  -3  -3   5 8913.83 461.133   5
  -3  -3   5 8729.57 502.325  12
  -3  -3   5 9680.28 563.251  20
  -3  -3   5 9401.51 541.150  31
  -3  -3   4 23509.3 843.838  22
   3  -3  -4 23098.3 896.423  21
  -3  -3   4 21813.1 840.588   1
  -3  -3   4 22657.6 911.377  15
  -3  -3   4 22344.2 779.932  12
  -3  -3   4 22382.5 788.343  20
  -3  -3   4 24117.7 817.988  39
  -3  -3   4 22257.5 905.821  10
   3  -3  -4 21897.6 760.128   1
   3  -3  -3 98197.9 2490.12   1
  -3  -3   3 94540.0 2523.68  39
   3  -3  -2 13490.5 414.341   2
   3  -3  -2 12777.7 443.290  39
   3  -3  -2 13582.9 461.996   1
   3  -3  -1 9149.10 419.450  39
   3  -3  -1 8779.62 431.449   1
   3  -3  -1 9536.89 392.315   2
   3  -3   0 68190.6 1776.22   2
   3  -3   0 64765.1 1760.05  39
  -3  -3  -1 73000.3 2009.40   8
  -3  -3  -1 76067.6 1913.39   2
   3  -3   1 70837.5 1922.50  39
   3  -3   1 73715.4 1971.92   2
  -3  -3  -1 65570.9 1850.47   3
  -3  -3  -1 68877.1 2007.88   9
  -3  -3  -2 6340.71 448.404   8
  -3  -3  -2 6525.25 394.041  37
  -3  -3  -2 6647.94 427.019  23
  -3  -3  -2 6111.91 385.669  27
   3  -3   2 5343.12 327.797   6
   3  -3   2 5878.89 389.003  39
  -3  -3  -2 7000.81 387.664  35
  -3  -3  -2 6723.97 419.470  33
  -3  -3  -2 5049.15 326.530  32
  -3  -3  -2 6325.37 382.203   3
  -3  -3  -2 6033.77 351.901   4
  -3  -3  -3 549.102 210.946   3
  -3  -3  -3 537.309 224.397  23
   3  -3   3 502.633 201.260  38
  -3  -3  -3 975.367 254.209  35
  -3  -3  -3 756.772 247.714  33
   3  -3   3 589.653 166.545  30
  -3  -3  -3 584.617 247.163  27
  -3  -3  -4 3369.58 358.518  13
  -3  -3  -4 3199.05 353.265  23
   3  -3   4 3248.01 358.659  38
  -3  -3  -4 3726.89 380.407  37
  -3  -3  -4 3168.69 361.644   3
  -3  -3  -4 2748.54 409.830  33
   3  -3   4 2853.84 278.297  30
  -3  -3  -5 3728.33 391.172  13
  -3  -3  -5 2812.55 308.944  23
   3  -3   5 4190.90 393.335  38
  -3  -3  -5 3534.71 449.887  33
  -3  -3  -5 3681.81 410.101   3
  -3  -3  -5 3824.98 393.700  37
  -3  -3  -6 322.597 240.060   3
  -3  -3  -6 560.033 234.496  13
   3  -3   6 451.964 211.245  38
   3  -3   6 326.152 253.681   5
   3  -3   7 11188.4 453.407   5
  -3  -3  -7 10289.1 456.502   3
  -3  -2  10 694.829 241.406  14
   3  -2 -10 973.082 148.322   3
   3  -2 -10 672.164 133.476  13
  -3  -2  10 1013.25 158.367   5
   3  -2 -10 1045.01 129.412  17
   3  -2 -10 512.977 135.249  28
  -3  -2   9 2301.42 267.963  25
  -3  -2   9 2144.02 459.203  14
   3  -2  -9 2693.63 305.673   3
  -3  -2   9 2963.65 328.474   5
   3  -2  -8 428.230 292.218   3
  -3  -2   8 241.925 231.243  25
  -3  -2   8 111.831 391.497  14
  -3  -2   8 476.648 353.982  22
  -3  -2   8 98.4485 264.016   5
  -3  -2   8 256.085 434.941  15
  -3  -2   7 16834.1 985.440  14
  -3  -2   7 15699.1 848.763  31
  -3  -2   7 16630.0 880.604  22
  -3  -2   7 16004.7 768.234   5
  -3  -2   7 18047.7 804.477  38
  -3  -2   6 27081.1 1135.15  14
  -3  -2   6 24120.6 1031.87  20
   3  -2  -6 26116.4 1162.27  21
  -3  -2   6 23585.3 924.956   5
  -3  -2   6 26050.1 953.199  38
  -3  -2   6 25039.1 1164.67  15
  -3  -2   5 2885.30 349.869  14
  -3  -2   5 2732.14 323.199  22
   3  -2  -5 2362.00 335.429  21
  -3  -2   5 2868.70 306.940  12
  -3  -2   5 2718.07 272.794   5
  -3  -2   5 3116.59 287.447  38
  -3  -2   5 2782.25 361.793  11
  -3  -2   5 3053.53 329.571  31
  -3  -2   5 3435.60 385.334  20
  -3  -2   5 2890.34 365.994  15
  -3  -2   4 101248. 2563.67  22
  -3  -2   4 95752.4 2489.15  12
  -3  -2   4 95848.0 2582.39   1
  -3  -2   4 95826.7 2489.18  20
  -3  -2   4 93485.5 2614.02  10
   3  -2  -4 99827.3 2489.94   1
  -3  -2   4 102683. 2546.80  39
  -3  -2   4 93988.2 2623.14  15
   3  -2  -3 3458.80 231.504   7
   3  -2  -3 3351.54 245.492   1
  -3  -2   3 3295.22 285.457  39
   3  -2  -2 46769.8 1125.54   7
   3  -2  -2 48092.7 1090.39   2
   3  -2  -2 45853.9 1130.76   1
   3  -2  -1 10693.1 459.941  39
   3  -2  -1 10203.9 470.345   1
   3  -2  -1 10674.2 419.582   2
   3  -2   0 46068.4 1347.70  39
   3  -2   0 48649.6 1341.42   2
  -3  -2   0 48704.3 1415.73   9
  -3  -2  -1 41432.3 1258.56   8
  -3  -2  -1 44224.6 1206.32   2
   3  -2   1 36894.4 1220.12   2
   3  -2   1 37678.5 1219.53  39
  -3  -2  -2 2905.74 304.924   8
   3  -2   2 2673.58 240.913   6
  -3  -2  -2 2335.61 220.664  32
   3  -2   2 3575.76 318.775  39
  -3  -2  -2 3568.88 300.710  37
  -3  -2  -2 3640.38 294.368  35
  -3  -2  -2 3146.76 306.035  33
  -3  -2  -2 3236.26 262.487   4
  -3  -2  -2 3242.72 281.471   3
  -3  -2  -2 3135.18 297.229  27
  -3  -2  -3 12157.3 597.501  13
  -3  -2  -3 12925.3 654.572  23
   3  -2   3 12563.9 600.056  38
  -3  -2  -3 13945.6 618.130  35
  -3  -2  -3 13512.3 588.480   4
  -3  -2  -3 13292.5 627.213   3
  -3  -2  -3 12990.0 655.685  33
  -3  -2  -4 22984.3 931.616  13
  -3  -2  -4 22137.1 926.812  23
   3  -2   4 21864.4 892.732  38
  -3  -2  -4 23967.6 921.464  37
  -3  -2  -4 22641.3 927.854   3
  -3  -2  -4 23101.0 987.666  33
  -3  -2  -5 12562.0 678.682  13
   3  -2   5 14092.0 661.902  38
  -3  -2  -5 13889.7 672.817  37
  -3  -2  -5 13821.3 719.365   3
  -3  -2  -5 14212.9 770.056  33
  -3  -2  -6 10458.9 581.772  13
   3  -2   6 9687.65 510.493  38
   3  -2   6 11722.6 605.365   5
  -3  -2  -6 11049.6 600.077   3
  -3  -2  -6 11591.0 651.699  33
  -3  -2  -7 4950.23 299.306  13
   3  -2   7 4344.78 240.789  38
   3  -2   7 6757.93 359.217   5
  -3  -2  -7 6028.90 351.999   3
   3  -1 -10 221.255 121.158   3
  -3  -1  10 245.197 218.418  14
   3  -1 -10 160.081 107.530  13
   3  -1 -10 57.3195 117.472  28
  -3  -1  10 120.627 132.040   5
   3  -1 -10 175.839 113.829  17
  -3  -1   9 5809.93 598.345  14
  -3  -1   9 4916.35 340.918  25
   3  -1  -9 6002.04 423.695   3
   3  -1  -8 1477.91 335.602   3
  -3  -1   8 1267.06 279.048  25
  -3  -1   8 1192.53 468.720  14
  -3  -1   8 1101.64 343.832  22
  -3  -1   8 1185.51 320.999   5
  -3  -1   8 564.037 446.393  15
  -3  -1   7 21368.3 1099.12  14
  -3  -1   7 19495.2 956.987  22
  -3  -1   7 19875.7 870.117   5
  -3  -1   6 41068.8 1469.71  14
   3  -1  -6 39838.5 1512.19  21
  -3  -1   6 38079.5 1382.67  20
  -3  -1   6 42606.5 1317.73  38
  -3  -1   6 38681.4 1283.91   5
  -3  -1   6 35733.1 1465.19  11
  -3  -1   6 40180.0 1533.92  15
  -3  -1   5 22728.3 905.216  14
  -3  -1   5 22975.0 889.629  22
  -3  -1   5 22916.0 865.259  20
   3  -1  -5 22406.3 950.314  21
  -3  -1   5 21352.3 834.380  12
  -3  -1   5 22831.9 807.685  38
  -3  -1   5 18745.1 794.783  39
  -3  -1   5 22344.1 801.492   5
  -3  -1   5 20702.4 934.254  10
  -3  -1   5 22894.0 883.108  31
  -3  -1   5 23770.2 973.831  15
  -3  -1   5 20410.5 922.760  11
  -3  -1   4 116399. 2952.37  22
  -3  -1   4 115241. 2890.58  12
  -3  -1   4 118714. 2995.11   1
  -3  -1   4 112269. 2883.15  20
  -3  -1   4 113732. 2927.79  39
   3  -1  -4 115434. 2881.27   1
  -3  -1   4 114790. 3017.13  10
  -3  -1   4 115472. 3009.95  15
   3  -1  -3 65454.7 1661.93   7
  -3  -1   3 61071.5 1721.13  39
   3  -1  -3 63394.9 1676.97   1
   3  -1  -2 32102.9 884.276   7
   3  -1  -2 31062.5 874.100   1
  -3  -1   2 29932.5 908.410  39
   3  -1  -1 104870. 2635.16   1
   3  -1  -1 106118. 2615.36  39
   3  -1  -1 110295. 2573.54   2
   3  -1   0 96951.6 2474.85   2
  -3  -1   0 94661.4 2528.39   9
  -3  -1  -1 66968.5 1833.33   8
  -3  -1  -1 69930.8 1802.51   2
   3  -1   1 65665.6 1849.06   2
   3  -1   1 63802.9 1857.63  39
  -3  -1  -2 15139.6 697.304   8
   3  -1   2 16035.6 726.701  39
   3  -1   2 14215.5 622.149   6
  -3  -1  -2 18262.7 680.273   3
  -3  -1  -2 18844.7 680.019  37
  -3  -1  -2 17888.2 656.708  35
  -3  -1  -2 17391.1 623.951  17
  -3  -1  -2 15569.6 663.460  33
  -3  -1  -2 16887.8 638.989   4
  -3  -1  -2 18082.3 679.645  27
  -3  -1  -3 5085.02 394.696  13
  -3  -1  -3 5291.91 426.643  33
  -3  -1  -3 6034.37 407.587  35
  -3  -1  -3 5464.91 360.786  17
  -3  -1  -3 5716.94 406.015   3
  -3  -1  -3 6691.30 402.786   4
   3  -1   3 4595.57 355.238  38
  -3  -1  -4 1092.53 284.002   3
  -3  -1  -4 918.678 250.743  23
  -3  -1  -4 919.945 281.884  13
   3  -1   4 850.691 230.596  38
  -3  -1  -4 829.775 283.151  37
  -3  -1  -4 760.236 213.226  17
  -3  -1  -4 776.708 327.988  33
  -3  -1  -4 714.179 282.464  27
   3  -1   5 13168.4 629.945  38
  -3  -1  -5 14211.9 724.918  13
  -3  -1  -5 13369.8 671.352  37
  -3  -1  -5 13554.7 687.344  35
  -3  -1  -5 12371.3 589.548  17
  -3  -1  -5 14766.0 730.403   3
  -3  -1  -5 12893.8 736.436  33
  -3  -1  -6 9562.96 571.083  13
   3  -1   6 8320.97 458.834  38
   3  -1   6 9589.62 579.696   5
  -3  -1  -6 10888.3 631.662  33
  -3  -1  -6 10406.9 588.371   3
  -3  -1  -6 10594.3 528.730  37
  -3  -1  -7 1178.55 219.362  13
  -3  -1  -7 1118.01 207.940   3
   3  -1   7 1134.09 213.912   5
  -3   0  10-105.199 215.900  14
   3   0 -10 32.6521 84.8511  13
   3   0 -10-118.697 122.665  17
   3   0 -10 4.89910 123.258  28
  -3   0   9 1248.00 413.538  14
  -3   0   9 837.933 178.387  25
  -3   0   9 747.609 366.072  15
  -3   0   8 3665.78 579.767  14
  -3   0   8 3690.02 358.134  25
  -3   0   8 4021.89 470.257  22
  -3   0   8 4556.08 440.348  38
  -3   0   8 3810.00 586.501  15
  -3   0   7 422.419 363.849  14
  -3   0   7 754.531 235.140  25
  -3   0   7 303.125 308.546  22
  -3   0   6 56495.4 1802.42  14
  -3   0   6 56788.3 1733.25  22
  -3   0   6 53118.2 1682.92  12
  -3   0   6 50034.4 1815.02  11
  -3   0   6 46486.1 1732.14  10
  -3   0   6 53769.8 1822.13  15
  -3   0   5 30.3449 198.737  14
   3   0  -5 192.052 212.439  21
  -3   0   5 82.9907 139.010  39
  -3   0   5 148.803 201.822  12
  -3   0   5 121.819 154.233  38
  -3   0   5 141.337 204.753  11
  -3   0   5 153.879 209.445  31
  -3   0   5 135.609 220.121  10
  -3   0   5 169.886 212.773  15
  -3   0   4 34986.5 1126.88  22
  -3   0   4 35839.6 1086.76  12
  -3   0   4 33827.4 1146.21   1
  -3   0   4 36428.8 1131.20  39
  -3   0   4 35332.4 1172.12  10
  -3   0   4 35990.1 1161.35  15
   3   0  -3 4927.56 300.418   1
  -3   0   3 6132.96 368.660  39
   3   0  -3 6277.70 323.740   7
   3   0  -3 5365.31 302.812  39
   3   0  -2 557.114 128.833   8
   3   0  -2 873.427 184.109   7
   3   0  -2 876.266 178.333   1
  -3   0   2 796.275 209.772  39
   3   0  -2 682.934 159.104  39
   3   0  -1 77728.9 1936.52   8
   3   0  -1 75706.1 2059.08   1
   3   0  -1 79141.4 2003.32   2
   3   0   0 14125.8 583.274  39
  -3   0   0 14344.4 589.831   9
  -3   0  -1 260052. 6388.34   8
  -3   0  -1 277439. 6398.71   2
   3   0   1 281844. 6383.39   6
   3   0   1 265344. 6486.40  39
  -3   0  -2 24691.0 843.020  13
   3   0   2 23995.8 855.172   6
   3   0   2 26387.9 975.923  39
  -3   0  -2 26774.9 863.897  37
  -3   0  -2 26892.9 844.507  35
  -3   0  -2 25882.5 827.608  17
  -3   0  -3 3279.43 357.896  33
  -3   0  -3 3590.78 349.615  13
   3   0   3 3248.55 292.248  38
  -3   0  -3 4402.76 362.738  35
  -3   0  -3 3542.60 304.000  17
  -3   0  -3 3751.72 347.732  27
  -3   0  -4 223.966 280.145  33
  -3   0  -4 184.199 192.907  23
  -3   0  -4 282.008 251.900  13
  -3   0  -4 113.500 262.465  37
   3   0   4 247.422 187.969  38
  -3   0  -4 266.708 202.653  17
  -3   0  -4 363.351 267.781  27
  -3   0  -5 5668.16 509.538  13
  -3   0  -5 3902.12 344.281  23
   3   0   5 5479.17 394.450  38
  -3   0  -5 5623.91 464.692  37
  -3   0  -5 6087.55 483.578  35
  -3   0  -5 5493.83 533.743  33
  -3   0  -5 6054.89 421.532  17
  -3   0  -6 2530.16 353.273  13
   3   0   6 2459.45 246.856  38
  -3   0  -6 2215.02 258.748  17
  -3   0  -6 2804.81 416.276  33
  -3   0  -6 2653.66 320.669  37
  -3   0  -7 4932.92 334.818  13
  -3   0  -7 4988.73 357.629  33
  -3   1  10 52.3064 201.406  14
   3   1 -10 14.7585 120.275  28
   3   1 -10 9.16781 119.864   3
   3   1 -10 123.120 124.323  17
  -3   1   9 6098.14 600.052  14
   3   1  -9 6509.62 431.678  13
  -3   1   9 4751.81 556.191  15
  -3   1   8 825.544 417.834  14
  -3   1   8 828.468 218.382  25
  -3   1   8 969.609 319.762  22
  -3   1   8 1022.40 450.682  15
  -3   1   7 22200.9 1083.21  14
  -3   1   7 18254.6 780.074  25
  -3   1   7 20009.5 940.091  22
  -3   1   7 21124.1 874.666  38
  -3   1   7 16788.6 1034.43  11
  -3   1   6 45999.7 1528.70  14
  -3   1   6 36667.0 1432.19  10
  -3   1   6 40387.4 1274.50  25
  -3   1   6 41203.4 1411.99  22
  -3   1   6 41624.9 1402.17  12
  -3   1   6 42041.4 1328.35  38
  -3   1   6 37573.6 1496.37  11
  -3   1   5 24028.3 919.608  14
  -3   1   5 21803.1 780.917  25
  -3   1   5 21563.5 871.590  22
   3   1  -5 19573.8 894.872  21
  -3   1   5 23351.7 867.206  12
  -3   1   5 21663.5 914.479  11
  -3   1   5 22317.6 929.066  10
  -3   1   5 23364.2 935.734  15
  -3   1   4 108368. 2770.05  22
  -3   1   4 111778. 2725.78  12
  -3   1   4 98326.0 2773.56   1
  -3   1   4 113008. 2786.30  39
   3   1  -4 100766. 2682.40   1
  -3   1   4 111745. 2801.35  15
   3   1  -3 65369.8 1646.28   7
  -3   1   3 62771.1 1699.20  39
   3   1  -2 32099.7 862.612   9
   3   1  -2 26844.6 864.836   8
   3   1  -2 32569.0 943.661   7
   3   1  -2 29940.5 897.984  39
  -3   1   2 31558.8 964.305  39
  -3   1   2 26539.8 839.638   9
   3   1  -1 90821.3 2367.41   8
  -3   1   1 109516. 2479.40   9
   3   1   0 95265.3 2467.48  39
  -3   1   0 93498.0 2429.35   9
   3   1   1 62087.6 1738.78  39
  -3   1  -1 53449.8 1566.32   8
   3   1   1 67284.0 1646.10   6
   3   1   1 55635.6 1664.09   2
  -3   1  -2 16805.2 635.283  35
  -3   1  -2 15641.2 641.644  13
   3   1   2 15869.8 653.518   6
  -3   1  -2 17248.5 635.487  17
   3   1   2 15890.9 733.019  39
  -3   1  -2 16374.1 645.332  37
  -3   1  -2 15054.2 628.048   3
  -3   1  -2 15168.9 605.342   4
  -3   1  -2 16374.5 637.068  27
  -3   1  -3 5331.93 402.415  35
  -3   1  -3 5209.13 414.573  13
  -3   1  -3 4692.74 382.619  27
   3   1   3 4832.04 335.131  38
  -3   1  -3 4890.16 416.335  33
  -3   1  -3 5187.14 372.655  17
  -3   1  -4 792.116 294.673  13
   3   1   4 662.107 194.830  38
  -3   1  -4 894.148 298.907  37
  -3   1  -4 971.586 323.076  33
  -3   1  -4 924.464 248.905  17
  -3   1  -4 916.595 283.266  27
  -3   1  -5 13973.7 744.883  13
   3   1   5 11569.6 559.530  38
  -3   1  -5 13403.4 669.581  37
  -3   1  -5 14249.3 689.361  35
  -3   1  -5 13645.8 653.956  17
  -3   1  -5 12583.5 735.970  33
  -3   1  -6 9193.66 579.497  13
  -3   1  -6 9783.52 522.008  37
  -3   1  -6 8937.79 483.476  17
  -3   1  -6 9660.42 624.321  33
  -3   1  -7 1115.61 218.446  13
  -3   1  -7 1086.97 234.298  33
  -3   2  10 740.318 229.449  14
   3   2 -10 924.070 157.327  17
  -3   2  10 1222.88 166.756   5
   3   2 -10 1035.08 145.635   3
  -3   2   9 2682.25 469.127  14
   3   2  -9 2751.66 306.457  13
   3   2  -9 2334.36 297.168   3
  -3   2   9 2680.58 320.042   5
  -3   2   9 1808.16 401.131  15
   3   2  -8 506.668 297.727   3
  -3   2   8 359.589 410.134  14
  -3   2   8 468.998 287.474  22
  -3   2   8 361.549 281.010   5
  -3   2   8 108.329 388.656  15
  -3   2   7 15771.0 911.755  14
  -3   2   7 14318.0 651.954  25
  -3   2   7 15180.3 796.555  22
  -3   2   7 15852.8 758.935   5
  -3   2   7 14018.8 945.188  11
  -3   2   7 16217.5 750.025  38
  -3   2   6 27681.2 1116.26  14
  -3   2   6 25175.5 903.716  25
  -3   2   6 25814.6 1032.05  22
  -3   2   6 25892.8 1045.92  20
  -3   2   6 26819.2 967.229  38
  -3   2   6 25839.4 964.299   5
  -3   2   6 26876.5 1163.01  11
  -3   2   6 23866.5 1074.42  10
  -3   2   5 3104.61 339.222  14
  -3   2   5 2742.38 317.922  22
  -3   2   5 2823.09 272.018  38
  -3   2   5 2835.86 274.154   5
  -3   2   5 2569.91 325.310  20
  -3   2   5 2854.04 345.798  11
  -3   2   5 3018.61 352.612  10
  -3   2   5 2805.19 336.037  15
  -3   2   4 96927.3 2621.27   1
  -3   2   4 96064.9 2515.04  20
  -3   2   4 89115.8 2555.66  39
  -3   2   4 93577.3 2567.37  11
   3   2  -4 98129.7 2515.21   1
  -3   2   4 87616.7 2611.79  16
  -3   2   4 97019.4 2580.49  15
   3   2  -3 3092.46 204.134   9
   3   2  -3 3123.79 248.807   7
   3   2  -3 3379.04 251.755   1
   3   2  -3 3378.91 226.624  39
  -3   2   3 3654.51 297.187  39
   3   2  -2 45456.4 1290.59   8
   3   2  -2 50296.0 1334.96   7
   3   2  -2 48190.8 1257.84   2
   3   2  -2 47545.4 1294.45   1
   3   2  -2 47145.6 1285.15  39
   3   2  -2 50623.1 1274.74   9
   3   2  -1 9516.68 404.027   8
   3   2  -1 10801.4 476.020  39
   3   2  -1 9673.63 447.517   1
   3   2  -1 10614.2 412.334   2
  -3   2   1 9987.59 472.691  39
   3   2  -1 10082.9 434.646   9
  -3   2   1 10039.0 435.986   9
   3   2   0 48786.3 1332.18   2
  -3   2   0 45514.1 1344.12   9
   3   2   1 42555.8 1145.62   6
   3   2   1 34886.0 1180.58  39
   3   2   1 41059.1 1182.75   2
  -3   2  -1 40912.1 1118.58   2
  -3   2  -1 34702.2 1137.11   9
  -3   2  -2 3015.74 297.103  13
   3   2   2 3194.21 295.681   6
  -3   2  -2 3362.11 301.838  37
  -3   2  -2 2860.65 273.555  17
  -3   2  -2 3033.87 283.732  35
  -3   2  -2 3070.26 273.627   3
  -3   2  -2 2591.03 241.372   4
  -3   2  -2 2915.89 276.886  27
  -3   2  -3 12373.2 638.723  13
  -3   2  -3 12714.9 602.823  17
  -3   2  -3 13083.0 615.505   3
  -3   2  -3 12139.8 593.381  27
  -3   2  -3 12997.8 655.961  33
  -3   2  -3 11499.3 554.939   4
  -3   2  -4 23188.4 966.732  13
  -3   2  -4 19347.3 840.152  27
   3   2   4 19264.1 762.918  38
  -3   2  -4 22997.3 891.388  37
  -3   2  -4 21845.4 955.563  33
  -3   2  -4 22874.3 917.897   3
  -3   2  -4 21930.0 881.812  17
  -3   2  -5 13373.0 759.867  13
  -3   2  -5 13840.6 684.139  37
  -3   2  -5 13477.0 675.171  17
  -3   2  -5 15051.8 799.960  33
  -3   2  -5 15098.9 743.655   3
  -3   2  -5 15409.8 710.675  35
  -3   2  -6 11641.8 659.744  13
  -3   2  -6 10704.6 539.455  37
  -3   2  -6 10733.1 553.405  17
  -3   2  -6 10494.3 650.003  33
  -3   2  -6 11149.8 620.045   3
   3   2   6 11931.8 615.344   5
  -3   2  -7 5938.80 375.891  13
   3   2   7 5975.38 352.368   5
  -3   2  -7 5797.31 374.478  33
  -3   2  -7 6192.19 362.029   3
  -3   3  10 936.566 226.928  14
  -3   3  10 1237.33 156.003   5
   3   3 -10 972.097 134.596   3
   3   3 -10 1385.76 168.302  17
   3   3  -9 916.038 231.053   3
  -3   3   9 750.726 373.307  14
   3   3  -9 904.877 217.283  13
  -3   3   9 1061.71 261.484   5
  -3   3   9 752.406 343.122  15
  -3   3   8 2677.59 523.545  14
  -3   3   8 2639.12 374.261  22
   3   3  -8 2712.06 374.317   3
  -3   3   8 2498.78 354.830   5
  -3   3   8 2475.35 499.351  15
  -3   3   7 18745.2 888.826  22
  -3   3   7 20956.0 1033.19  14
  -3   3   7 20194.1 847.797   5
  -3   3   7 19917.6 1056.35  15
  -3   3   7 17021.4 1038.45  11
  -3   3   6 9564.13 586.326  22
  -3   3   6 8998.06 594.442  12
  -3   3   6 8856.79 596.114  20
  -3   3   6 9697.70 535.154   5
  -3   3   6 10058.8 686.863  11
  -3   3   6 8420.60 597.406  10
  -3   3   5 9528.57 545.984  14
  -3   3   5 9202.66 533.414  22
  -3   3   5 9889.44 531.907  12
  -3   3   5 8581.19 504.596  20
  -3   3   5 9058.00 468.338   5
  -3   3   5 9500.10 570.715  11
  -3   3   5 7362.89 565.014  16
  -3   3   5 9663.07 562.086  10
  -3   3   5 9507.57 556.253  15
  -3   3   4 21411.4 847.525   1
  -3   3   4 23562.9 806.560  12
  -3   3   4 22609.6 791.913  20
  -3   3   4 21937.4 840.483  39
  -3   3   4 23591.0 843.013  11
  -3   3   4 23435.7 903.643  16
  -3   3   4 23384.1 847.197  15
   3   3  -4 21559.2 762.008   1
   3   3  -4 24444.6 680.236   9
   3   3  -3 99483.1 2465.32   1
  -3   3   3 99039.3 2542.51  39
   3   3  -3 103467. 2434.89   9
   3   3  -2 13187.2 545.931   8
   3   3  -2 13844.1 554.330   7
   3   3  -2 14291.1 494.936   2
   3   3  -2 14023.6 520.444  39
  -3   3   2 12264.7 468.727   9
   3   3  -2 14545.5 532.874   1
   3   3  -2 14609.0 531.441   9
   3   3  -1 10956.4 461.218   9
  -3   3   1 9069.89 418.881   9
   3   3  -1 9761.18 425.585   8
   3   3  -1 10251.1 403.566   2
   3   3  -1 10682.3 410.095   6
   3   3  -1 9723.47 439.112   1
   3   3  -1 10042.5 462.422  39
  -3   3   0 64225.6 1770.70   9
   3   3   0 67291.9 1755.26   2
  -3   3  -1 64737.2 1846.57   9
  -3   3  -1 74395.6 1809.64   2
   3   3   1 79966.9 1886.27   6
   3   3   1 70434.1 1942.27  39
   3   3   1 74145.5 1883.10   2
  -3   3  -1 67150.9 1773.16  17
  -3   3  -2 6539.78 392.963  35
  -3   3  -2 5731.49 405.737  13
  -3   3  -2 5987.76 378.652  17
  -3   3  -2 5875.65 395.588  37
  -3   3  -2 6244.92 378.118   3
  -3   3  -2 5291.30 373.786  33
  -3   3  -2 5135.74 330.100   4
  -3   3  -2 6071.95 375.659  27
  -3   3  -3 1040.70 225.438   4
  -3   3  -3 349.144 186.415   3
  -3   3  -3 366.476 237.614  13
  -3   3  -3 397.920 209.162  17
  -3   3  -3 444.354 230.662  33
  -3   3  -3 403.807 220.599  27
  -3   3  -4 3140.64 416.112  13
  -3   3  -4 2819.53 350.491  17
  -3   3  -4 3332.03 388.103  35
  -3   3  -4 2980.65 352.577   3
  -3   3  -4 2770.82 400.613  33
  -3   3  -4 3009.86 348.960  27
  -3   3  -4 3255.57 385.166  37
  -3   3  -5 4186.62 484.106  13
  -3   3  -5 4002.84 478.701  33
  -3   3  -5 4011.35 418.472  37
  -3   3  -5 4024.74 405.856  17
  -3   3  -5 4060.99 430.193  35
  -3   3  -5 3704.57 406.179   3
  -3   3  -6 111.994 287.304  13
  -3   3  -6 815.275 282.676   3
  -3   3  -6 556.545 244.612  37
   3   3   6 197.322 237.758   5
  -3   3  -6 777.767 282.779  35
  -3   3  -6 528.395 234.917  17
  -3   3  -6 240.846 327.112  33
  -3   3  -7 9736.30 481.415  13
  -3   3  -7 10147.3 480.692  33
  -3   3  -7 10397.1 460.810   3
   3   3   7 9878.30 437.437   5
   3   4 -10 601.103 104.958   3
  -3   4  10 507.452 195.095  14
  -3   4  10 724.926 121.052   5
   3   4 -10 872.400 144.652  17
   3   4  -9 2854.05 268.566  13
   3   4  -9 3325.85 313.756   3
  -3   4   9 3974.18 335.069   5
  -3   4   9 3486.72 461.221  14
  -3   4   9 2765.44 432.075  15
  -3   4   8 2464.92 499.288  14
   3   4  -8 2501.89 315.104  13
  -3   4   8 2301.46 348.288  22
   3   4  -8 2453.74 348.596   3
  -3   4   8 2825.11 360.683   5
  -3   4   8 2015.09 477.575  15
  -3   4   7 7876.32 679.016  14
  -3   4   7 7140.43 533.938  22
  -3   4   7 7545.53 506.848   5
  -3   4   7 7168.02 701.479  11
  -3   4   7 5555.93 546.009  10
  -3   4   7 7777.08 696.407  15
  -3   4   6 7877.84 582.109  14
  -3   4   6 6430.13 493.145  22
  -3   4   6 7251.83 463.862   5
  -3   4   6 6636.01 530.989  10
  -3   4   6 6617.15 585.721  11
  -3   4   5 44007.5 1409.59  14
  -3   4   5 43634.6 1372.51  22
  -3   4   5 41149.3 1271.16   5
  -3   4   5 42638.0 1344.41  12
  -3   4   5 39449.6 1310.10  20
  -3   4   5 45426.7 1448.46  11
  -3   4   5 39867.0 1463.47  16
  -3   4   5 40569.2 1380.14  10
  -3   4   5 43799.5 1413.76  15
   3   4  -4 40887.8 1214.99   1
  -3   4   4 42742.0 1328.79   1
  -3   4   4 42164.9 1253.15  12
  -3   4   4 39689.1 1222.73  20
  -3   4   4 39876.7 1305.69  39
  -3   4   4 44242.0 1313.93  11
  -3   4   4 42672.2 1370.35  16
  -3   4   4 42451.2 1305.96  10
  -3   4   4 42324.8 1296.67  15
   3   4  -4 43048.8 1167.42   9
  -3   4   4 41059.8 1288.31  14
   3   4  -3 17791.1 598.402   7
   3   4  -3 14823.7 446.388   6
   3   4  -3 16793.6 545.615   1
   3   4  -3 15137.7 497.722  39
   3   4  -3 16480.5 557.133   9
  -3   4   2 41669.5 1171.43   9
   3   4  -2 43051.5 1299.13   8
   3   4  -2 45696.6 1204.78   2
   3   4  -2 46303.1 1198.66   6
   3   4  -2 41560.9 1216.90  39
  -3   4   2 42142.6 1286.10  39
   3   4  -2 44895.6 1235.96   1
   3   4  -2 49057.1 1296.06   9
  -3   4   1 23341.1 815.136   9
   3   4  -1 29784.2 900.579   8
   3   4  -1 29216.8 914.370   7
  -3   4   1 21772.1 850.186  39
   3   4  -1 28907.0 845.568   6
   3   4  -1 27479.4 816.494   2
   3   4  -1 28553.2 877.752   1
   3   4  -1 29288.5 915.936  39
   3   4  -1 29595.1 913.537   9
  -3   4   0 22215.3 806.761   9
   3   4   0 26998.6 840.578   8
   3   4   0 24536.4 820.062   6
   3   4   0 25460.6 897.729  39
   3   4   0 24314.3 801.111   2
  -3   4  -1 10543.8 539.575   9
   3   4   1 11970.3 580.539   9
  -3   4  -1 14745.6 553.019   2
  -3   4  -1 12495.3 554.183  13
   3   4   1 14407.4 602.870   6
  -3   4  -1 12025.5 529.377  17
  -3   4  -1 11489.6 500.606   3
   3   4   1 14906.2 607.443   2
  -3   4  -2 70585.9 1910.99  35
  -3   4  -2 69637.0 1972.22  13
  -3   4  -2 76436.2 1957.34  37
  -3   4  -2 74273.9 1955.77  17
  -3   4  -2 72024.1 1919.79   3
  -3   4  -2 69001.9 1940.12  33
  -3   4  -2 64152.4 1847.14   4
  -3   4  -2 67570.3 1886.19  27
  -3   4  -3 8930.02 558.660  13
  -3   4  -3 9312.75 528.815  17
  -3   4  -3 10078.8 529.493   3
  -3   4  -3 9168.25 555.612  33
  -3   4  -3 7973.71 438.968   4
  -3   4  -3 7238.86 469.190  27
  -3   4  -4 677.053 282.623  17
  -3   4  -4 801.390 265.262   3
  -3   4  -4 824.872 305.697  35
  -3   4  -4 812.464 325.996  13
  -3   4  -4 743.202 308.071  37
  -3   4  -4 425.602 299.373  33
  -3   4  -4 805.177 263.219  27
  -3   4  -5 2424.26 438.832  13
  -3   4  -5 2556.69 368.564  17
  -3   4  -5 2498.48 377.506  37
  -3   4  -5 2580.52 386.262  35
   3   4   5 2197.72 345.460   5
  -3   4  -5 2711.04 435.465  33
  -3   4  -5 2443.78 356.328   3
  -3   4  -6 6925.46 544.761  13
  -3   4  -6 6803.89 458.023  17
  -3   4  -6 6932.74 444.554  35
   3   4   6 6968.46 451.137   5
  -3   4  -6 6953.49 523.392  33
  -3   4  -6 6801.48 432.423  37
  -3   4  -6 6650.11 460.128   3
  -3   4  -7 1316.51 233.242  13
   3   4   7 1327.29 189.318   5
  -3   4  -7 1046.02 168.023  17
  -3   4  -7 1266.98 229.505  33
  -3   4  -7 1154.41 179.812   3
  -3   5  10 382.216 166.286  14
  -3   5  10 673.893 96.5252   5
  -3   5   9 3260.00 456.162  14
  -3   5   9 3015.86 294.671   5
   3   5  -9 2840.24 275.645   3
  -3   5   9 2546.13 392.304  15
  -3   5   8 9390.81 731.771  14
   3   5  -8 8379.16 480.675  13
  -3   5   8 7026.97 500.454  22
   3   5  -8 7887.86 511.214   3
  -3   5   8 8422.93 522.133   5
  -3   5   8 7063.89 739.976  11
  -3   5   8 7341.55 690.388  15
  -3   5   7 5449.35 586.259  14
  -3   5   7 4270.93 476.500  10
  -3   5   7 4801.29 449.812  22
  -3   5   7 5679.44 441.730   5
  -3   5   7 4762.90 606.847  11
  -3   5   7 5463.78 595.629  15
  -3   5   6 29026.7 1230.68  11
  -3   5   6 29171.2 1148.10  10
  -3   5   6 30831.4 1190.71  14
  -3   5   6 26951.9 1070.56  22
  -3   5   6 26667.0 995.190   5
  -3   5   5 3727.78 358.109  22
  -3   5   5 3324.05 339.431  12
  -3   5   5 3235.84 284.452   5
  -3   5   5 3366.15 338.148  20
  -3   5   5 3077.58 365.069  11
  -3   5   5 3265.63 344.040  10
  -3   5   5 3263.61 411.138  16
  -3   5   5 3471.11 363.501  15
  -3   5   5 3984.71 382.052  14
   3   5  -4 9926.42 466.124   1
  -3   5   4 11119.2 567.604   1
  -3   5   4 12406.3 539.094  12
  -3   5   4 12054.6 525.567  20
  -3   5   4 13627.1 595.347  11
  -3   5   4 12632.7 579.686  10
  -3   5   4 12480.5 632.343  16
  -3   5   4 11689.3 554.204  15
   3   5  -4 10386.3 470.051   9
  -3   5   4 11515.2 559.821  14
   3   5  -3 25718.8 751.945  39
   3   5  -3 25877.5 711.241   6
  -3   5   3 33108.7 906.727  10
   3   5  -3 31812.4 827.721   1
  -3   5   3 30286.0 919.059  16
   3   5  -3 31203.4 879.233   9
  -3   5   2 41406.3 1165.91   9
   3   5  -2 41675.9 1317.80   8
   3   5  -2 46784.7 1202.65   2
   3   5  -2 47356.4 1289.00   7
   3   5  -2 40575.9 1176.89   6
  -3   5   2 43205.4 1293.66  39
   3   5  -2 43885.1 1215.92   1
   3   5  -2 43339.0 1217.06  39
   3   5  -2 45918.6 1302.74   9
  -3   5   1 160392. 4354.63   9
   3   5  -1 193016. 4488.35   8
   3   5  -1 200823. 4494.43   7
   3   5  -1 187964. 4415.70   6
  -3   5   1 166528. 4425.40  39
   3   5  -1 188011. 4468.50  39
   3   5  -1 188733. 4422.00   1
   3   5  -1 188089. 4358.53   2
   3   5  -1 198513. 4504.34   9
   3   5   0 6523.81 361.963   8
   3   5   0 6242.73 361.705   6
   3   5   0 6133.49 399.567  39
   3   5   0 6012.90 331.594   2
   3   5   1 24408.9 900.998   9
  -3   5  -1 27295.0 910.845  13
  -3   5  -1 27227.5 856.457   2
  -3   5  -1 24777.4 824.308   3
  -3   5  -1 26399.5 879.314  17
  -3   5  -2 13151.5 632.517  13
  -3   5  -2 12776.6 586.184  35
  -3   5  -2 12733.0 603.396  37
  -3   5  -2 11718.9 571.583  33
  -3   5  -2 12752.5 558.909   3
  -3   5  -2 11652.9 515.866   4
  -3   5  -2 13153.4 601.808  17
  -3   5  -2 12369.3 556.365  27
  -3   5  -3 6972.18 516.169  13
  -3   5  -3 7130.83 478.564  17
  -3   5  -3 7044.56 450.333   3
  -3   5  -3 7348.23 506.164  33
  -3   5  -3 6376.77 392.606   4
  -3   5  -3 7519.98 457.475  27
  -3   5  -4 8811.99 570.982  37
  -3   5  -4 9227.07 653.652  13
  -3   5  -4 8885.93 543.721   3
  -3   5  -4 8865.31 556.821  35
  -3   5  -4 9028.49 589.264  17
  -3   5  -4 8605.79 605.215  33
  -3   5  -4 7647.02 506.430  27
  -3   5  -5 10042.8 689.977  13
  -3   5  -5 9364.89 582.294  37
  -3   5  -5 10271.1 591.912  35
   3   5   5 9360.57 565.393   5
  -3   5  -5 9403.06 642.684  33
  -3   5  -5 9460.50 578.109   3
  -3   5  -5 9992.96 621.220  17
  -3   5  -6 1280.45 256.994   3
  -3   5  -6 1313.25 335.897  13
   3   5   6 1259.74 256.354   5
  -3   5  -6 1214.57 266.052  37
  -3   5  -6 1563.91 289.656  35
  -3   5  -6 907.942 324.889  33
  -3   5  -6 1397.53 283.834  17
  -3   5  -7 1465.38 236.828  13
  -3   5  -7 1221.94 219.082  33
   3   5   7 1066.75 159.677   5
  -3   5  -7 1170.87 171.467  17
  -3   5  -7 1290.54 171.870   3
  -3   6  10 153.909 125.913  14
   3   6 -10 143.809 87.2521  17
  -3   6   9 11352.2 673.969  14
   3   6  -9 9633.55 456.623   3
  -3   6   9 11082.0 487.433   5
  -3   6   9 8832.64 612.665  15
   3   6  -9 10208.7 524.350  17
  -3   6   8 2218.80 458.077  14
  -3   6   8 2456.17 316.101  22
   3   6  -8 2631.15 317.496   3
  -3   6   8 2636.56 329.130   5
  -3   6   8 2350.58 511.240  11
  -3   6   8 2015.25 447.217  15
  -3   6   7 4533.28 546.174  14
  -3   6   7 4146.31 414.133  22
   3   6  -7 3595.18 371.237   3
  -3   6   7 4026.67 379.327   5
  -3   6   7 4324.30 608.479  11
  -3   6   7 3298.91 436.530  10
  -3   6   7 4275.52 528.955  15
  -3   6   6 5169.14 510.832  14
  -3   6   6 4647.69 422.721  22
  -3   6   6 5160.25 389.364   5
  -3   6   6 4861.83 525.759  11
  -3   6   6 4660.07 458.313  10
  -3   6   5 42106.1 1387.62  22
  -3   6   5 43280.0 1379.92  12
  -3   6   5 41899.5 1289.96   5
  -3   6   5 39880.8 1341.76  20
  -3   6   5 47391.3 1496.40  11
  -3   6   5 42470.0 1542.21  16
  -3   6   5 42730.4 1422.28  10
  -3   6   5 45093.7 1447.62  15
  -3   6   5 46231.9 1463.63  14
  -3   6   4 26575.1 891.516  12
  -3   6   4 24502.8 852.433  20
  -3   6   4 26879.1 947.636  11
  -3   6   4 27834.8 944.503  10
  -3   6   4 26344.4 1010.85  16
  -3   6   4 25857.6 931.446  15
   3   6  -3 38662.5 1078.27   7
   3   6  -3 26021.3 860.492   6
  -3   6   3 31299.3 1051.59  39
   3   6  -3 27589.7 892.064  39
  -3   6   3 36541.3 1064.57  11
  -3   6   3 34914.9 1049.82  10
  -3   6   3 35442.4 1102.25  16
   3   6  -3 31402.2 947.309   1
  -3   6   3 35896.3 1050.98  15
   3   6  -3 34647.4 1063.92   9
  -3   6   2 16000.8 565.374   9
   3   6  -2 18088.6 726.194   8
   3   6  -2 16564.3 566.345   2
   3   6  -2 19189.2 674.288   7
   3   6  -2 15390.7 572.571   6
   3   6  -2 18053.1 612.566  39
  -3   6   2 16692.5 667.098  39
   3   6  -2 16544.6 587.728   1
   3   6  -2 18155.5 693.622   9
   3   6  -1 12632.1 556.630   8
   3   6  -1 13377.6 543.810   7
   3   6  -1 10390.1 473.824   6
   3   6  -1 12640.2 538.132  39
   3   6  -1 10974.4 465.776   1
   3   6  -1 11565.9 442.609   2
   3   6  -1 12717.9 560.663   9
   3   6   0 127891. 2978.87   8
  -3   6   0 104499. 2897.97  13
  -3   6   0 109301. 2905.41  16
  -3   6   0 101892. 2849.94  17
   3   6   0 118364. 2960.87   6
   3   6   0 125328. 2901.03   2
   3   6   0 123863. 3023.15  39
   3   6   1 30628.7 1090.69   9
  -3   6  -1 33841.8 1099.29  13
   3   6   1 33338.2 1107.44   2
  -3   6  -1 31989.9 1044.67  37
  -3   6  -1 31833.5 989.312   3
  -3   6  -1 33027.6 1031.39  35
  -3   6  -2 19933.6 814.323  13
  -3   6  -2 17674.7 690.135   3
  -3   6  -2 16372.8 637.978   4
  -3   6  -2 20380.6 776.355  17
  -3   6  -2 18813.4 748.040  33
  -3   6  -2 15198.4 660.218  27
  -3   6  -3 1870.57 352.205  13
  -3   6  -3 1720.94 226.720   4
  -3   6  -3 1952.02 332.201  33
  -3   6  -3 1891.37 261.620   3
  -3   6  -3 2090.71 322.172  17
  -3   6  -3 1698.39 282.233  27
  -3   6  -4 680.778 238.841   3
  -3   6  -4 757.080 373.297  13
  -3   6  -4 710.664 309.646  37
  -3   6  -4 392.975 310.841  35
  -3   6  -4 721.941 310.767  17
  -3   6  -4 431.044 300.850  33
  -3   6  -4 633.765 243.386  27
  -3   6  -5 10095.0 714.743  13
  -3   6  -5 9224.84 634.956  33
  -3   6  -5 9788.34 566.585   3
  -3   6  -5 8979.20 562.538  37
  -3   6  -5 10187.9 629.479  17
  -3   6  -5 8973.64 565.868  35
   3   6   5 9537.45 543.816   5
  -3   6  -6 3067.54 340.802  17
  -3   6  -6 3515.23 421.837  13
  -3   6  -6 3112.57 389.637  33
   3   6   6 3267.09 306.227   5
  -3   6  -6 2989.98 308.457  37
  -3   6  -6 2990.99 329.433  35
  -3   6  -6 3246.87 309.875   3
  -3   6  -7 2304.15 206.508  17
  -3   6  -7 2266.93 258.366  13
   3   6   7 2000.04 164.985   5
  -3   6  -7 1969.55 172.060   3
  -3   6  -7 2270.18 232.322  33
  -3   7   9 4756.46 477.254  14
  -3   7   9 4558.96 288.413   5
   3   7  -9 4095.94 269.407   3
   3   7  -9 5167.68 358.668  17
  -3   7   9 3902.92 407.990  15
   3   7  -8 390.603 207.395   3
  -3   7   8 30.0054 343.837  14
  -3   7   8 310.858 198.044  22
  -3   7   8 490.390 211.040   5
  -3   7   8 736.961 464.421  11
  -3   7   8 545.437 359.414  15
  -3   7   7 3975.49 529.567  14
  -3   7   7 3720.83 386.391  22
   3   7  -7 3347.87 357.971   3
  -3   7   7 4021.89 360.953   5
  -3   7   7 4471.42 537.323  15
  -3   7   7 4077.51 568.578  11
  -3   7   7 3397.11 418.215  10
  -3   7   6 6366.70 484.173  22
  -3   7   6 6400.64 425.086   5
  -3   7   6 7136.57 610.454  11
  -3   7   6 6112.97 507.032  10
  -3   7   5 23007.2 920.130  22
  -3   7   5 22813.4 905.104  12
  -3   7   5 22864.1 822.390   5
  -3   7   5 21875.4 880.605  20
  -3   7   5 25067.0 1012.30  11
  -3   7   5 23801.9 1060.41  16
  -3   7   5 24551.1 952.912  10
  -3   7   5 23216.7 946.097  15
  -3   7   5 24814.0 999.485  14
  -3   7   4 28675.6 941.036  20
  -3   7   4 29760.2 978.903  12
  -3   7   4 32059.9 1066.08  11
  -3   7   4 30918.6 1038.87  10
  -3   7   4 30517.3 1117.95  16
  -3   7   4 30115.5 1041.72  15
   3   7  -3 78713.1 1886.52   7
  -3   7   3 70362.2 1760.74  12
  -3   7   3 64998.9 1850.34  39
  -3   7   3 77165.9 1876.00  11
   3   7  -3 63837.3 1702.37   1
  -3   7   3 70723.1 1843.36  15
  -3   7   3 75992.4 1926.39  16
   3   7  -3 64803.1 1843.45   9
   3   7  -2 26562.5 782.733   2
   3   7  -2 27122.5 974.843   8
   3   7  -2 23910.3 779.904   1
  -3   7   2 26370.1 912.030  16
   3   7  -2 29442.3 901.922   7
  -3   7   2 22741.6 916.595  13
   3   7  -2 23432.2 804.751   6
   3   7  -2 25342.4 807.902  39
  -3   7   2 23631.9 874.737  39
  -3   7   2 28048.1 897.924  11
  -3   7   2 22582.9 829.990  17
  -3   7   2 28803.3 890.835  10
   3   7  -2 27824.3 943.932   9
   3   7  -1 122450. 2968.65   8
   3   7  -1 122787. 2886.29   7
  -3   7   1 102873. 2875.90  13
   3   7  -1 113513. 2865.17   6
  -3   7   1 111514. 2817.92  10
  -3   7   1 115290. 2882.91  16
   3   7  -1 119447. 2900.42  39
  -3   7   1 98872.7 2825.98  39
   3   7  -1 117944. 2798.27   1
   3   7  -1 106692. 2751.08   2
  -3   7   1 99646.6 2791.11  17
   3   7  -1 130522. 2999.81   9
   3   7   0 12663.8 567.561   8
   3   7   0 11106.8 532.003   7
   3   7   0 11290.2 563.115  39
  -3   7   0 10651.1 551.553  13
   3   7   0 11828.5 581.033   6
   3   7   0 11350.8 500.571   1
   3   7   0 10569.7 480.154   2
  -3   7   0 10316.6 502.277  17
  -3   7   0 11044.3 537.259  16
  -3   7  -1 7289.58 466.830  13
   3   7   1 7793.01 459.926   2
  -3   7  -1 7599.91 446.149  37
  -3   7  -1 6799.89 418.692  35
  -3   7  -1 6722.82 361.696   3
  -3   7  -2 52507.7 1618.95  13
  -3   7  -2 52862.4 1479.51   3
  -3   7  -2 51648.6 1534.50  33
  -3   7  -2 53822.8 1486.18  27
  -3   7  -3 16889.2 839.863  13
  -3   7  -3 15243.6 678.670   3
  -3   7  -3 16321.6 753.788  37
  -3   7  -3 15759.1 766.602  33
  -3   7  -3 17357.0 782.778  17
  -3   7  -3 13979.4 655.381  27
  -3   7  -4 28973.7 1052.11  35
  -3   7  -4 30591.8 1227.36  13
  -3   7  -4 27829.0 1064.55  37
  -3   7  -4 29904.4 1129.37  17
  -3   7  -4 26710.8 1121.68  33
  -3   7  -4 28309.8 1029.49   3
  -3   7  -5 4766.38 544.374  13
  -3   7  -5 4641.21 437.102  35
   3   7   5 4421.36 375.256   5
  -3   7  -5 4225.27 425.471  37
  -3   7  -5 4771.73 396.939   3
  -3   7  -5 4921.30 472.173  17
  -3   7  -5 4349.85 472.832  33
  -3   7  -6 1084.59 214.658   3
  -3   7  -6 1238.66 282.255  17
  -3   7  -6 1056.71 339.006  13
  -3   7  -6 1069.05 254.706  35
  -3   7  -6 1041.85 244.847  37
   3   7   6 1046.51 201.886   5
  -3   7  -6 1177.91 315.480  33
  -3   7  -7 2673.21 251.533  13
   3   7   7 1546.82 118.039   5
  -3   7  -7 2467.68 202.310  17
  -3   7  -7 2425.78 226.683  33
  -3   7  -7 1054.71 136.984  16
  -3   8   9 1264.72 314.445  14
   3   8  -9 916.917 133.749   3
  -3   8   9 1223.22 155.519   5
   3   8  -9 1488.92 222.375  17
  -3   8   9 1119.88 273.361  15
   3   8  -8 944.429 206.550   3
  -3   8   8 1209.01 389.611  14
  -3   8   8 979.539 207.845   5
  -3   8   8 1353.36 379.984  15
  -3   8   7 7765.87 648.067  14
  -3   8   7 6081.36 452.898  22
   3   8  -7 5778.16 422.179   3
  -3   8   7 6945.56 440.024   5
   3   8  -7 5949.69 429.552  33
  -3   8   7 5358.10 496.127  10
  -3   8   7 6855.30 701.702  11
  -3   8   7 7294.71 635.168  15
  -3   8   6 4408.93 498.020  14
  -3   8   6 4957.73 544.509  11
  -3   8   6 4225.36 397.810  22
  -3   8   6 4433.97 349.213   5
  -3   8   6 3974.78 428.303  10
  -3   8   5 7811.84 505.511  22
  -3   8   5 7954.99 426.538   5
  -3   8   5 8140.63 510.207  12
  -3   8   5 7289.46 467.771  20
  -3   8   5 7934.72 563.497  11
  -3   8   5 8428.06 536.738  10
  -3   8   5 8443.77 541.256  15
  -3   8   5 8813.10 579.386  14
  -3   8   4 21419.6 790.169  12
  -3   8   4 22141.8 873.492  11
  -3   8   4 23355.1 877.267  15
  -3   8   4 21682.6 846.996  10
  -3   8   4 20400.2 906.325  16
   3   8  -3 23731.1 756.586   2
  -3   8   3 23365.6 793.297  12
  -3   8   3 27138.5 916.136  11
  -3   8   3 27217.2 956.102  16
   3   8  -3 22188.6 745.406   1
  -3   8   3 23061.0 863.587  15
   3   8  -3 22801.5 897.878   9
   3   8  -2 59986.3 1741.08   8
   3   8  -2 62002.6 1596.77   7
   3   8  -2 52720.5 1441.80   1
  -3   8   2 50228.7 1568.61  39
  -3   8   2 54323.3 1670.23  13
   3   8  -2 53797.3 1538.69   6
   3   8  -2 48843.8 1461.67  39
  -3   8   2 59824.2 1596.07  10
  -3   8   2 58744.4 1610.93  11
  -3   8   2 48945.9 1519.17  17
  -3   8   2 56934.5 1626.97  16
   3   8  -2 53619.3 1437.33   2
   3   8  -2 63793.9 1712.85   9
   3   8  -1 4614.30 356.033   8
   3   8  -1 4147.46 298.559   7
  -3   8   1 4286.28 381.965  13
   3   8  -1 4413.31 330.814   6
  -3   8   1 4477.54 329.845  39
   3   8  -1 4038.77 249.837   2
  -3   8   1 4658.24 321.893  17
   3   8  -1 3854.37 249.209   1
  -3   8   1 5255.74 343.417  10
  -3   8   1 4877.53 357.290  16
   3   8  -1 4420.10 320.227  39
   3   8  -1 4577.43 353.491   9
   3   8   0 16190.7 652.446   7
  -3   8   0 13580.7 656.460  13
   3   8   0 14977.9 710.138   6
   3   8   0 15165.4 587.937   1
   3   8   0 14816.9 673.548  39
   3   8   0 14540.4 573.737   2
  -3   8   0 13781.6 599.818  37
  -3   8   0 13971.4 604.372  35
  -3   8   0 13824.5 601.733  17
  -3   8   0 15294.7 667.183  16
  -3   8   0 13209.3 575.178  29
   3   8   1 14958.7 668.104   7
  -3   8  -1 15438.4 723.389  13
  -3   8  -1 16344.9 687.755  37
  -3   8  -1 15454.0 668.517  35
  -3   8  -1 14919.1 664.436  17
  -3   8  -1 17131.6 740.914  16
  -3   8  -2 23443.3 951.224  13
  -3   8  -2 22706.3 855.382  33
  -3   8  -2 20698.9 754.197   3
  -3   8  -2 20489.6 770.413  27
  -3   8  -3 40784.2 1436.15  13
  -3   8  -3 42316.5 1332.75  35
  -3   8  -3 39126.5 1331.12  37
  -3   8  -3 38691.1 1346.69  33
  -3   8  -3 38284.7 1239.88   3
  -3   8  -4 81262.6 2307.99  13
  -3   8  -4 74053.7 2098.99  37
  -3   8  -4 73642.0 2068.53  35
  -3   8  -4 77997.8 2189.77  17
  -3   8  -4 72557.3 2167.84  33
  -3   8  -4 73641.2 2037.82   3
  -3   8  -5 425.008 284.302  37
  -3   8  -5 699.843 213.279   3
  -3   8  -5 795.495 384.394  13
  -3   8  -5 659.289 300.834  35
  -3   8  -5 597.113 320.280  17
   3   8   5 651.520 201.126   5
  -3   8  -5 792.859 335.636  33
  -3   8  -6 7710.66 533.152  13
  -3   8  -6 6849.95 400.263  37
   3   8   6 6856.48 354.722   5
  -3   8  -6 7018.09 395.133  35
  -3   8  -6 7256.43 456.810  17
  -3   8  -6 6480.43 460.056  33
  -3   8  -6 6539.08 454.264  16
  -3   8  -6 6452.54 363.888   3
  -3   8  -7 534.826 165.550  13
  -3   8  -7 437.659 121.832  17
  -3   8  -7 350.684 124.766  33
  -3   9   9 1204.37 273.458  14
   3   9  -9 739.632 171.786  17
  -3   9   9 883.263 245.094  15
  -3   9   8 1843.51 389.530  14
  -3   9   8 1648.72 211.889   5
   3   9  -8 1400.41 196.129   3
   3   9  -8 2315.53 308.942  17
  -3   9   8 1609.85 369.786  15
  -3   9   7 1462.93 431.462  14
  -3   9   7 1548.18 396.139  15
  -3   9   7 1094.07 246.971  22
   3   9  -7 1609.42 236.407   3
  -3   9   7 1409.28 229.719   5
   3   9  -7 1574.88 273.608  33
  -3   9   7 1368.94 309.235  10
  -3   9   6 4029.65 379.064  22
  -3   9   6 3592.01 309.603   5
  -3   9   6 3365.98 407.155  10
  -3   9   6 4540.12 492.133  14
  -3   9   5 1362.46 320.578  14
  -3   9   5 1587.04 279.279  22
  -3   9   5 1834.68 347.940  11
  -3   9   5 1617.13 282.319  12
  -3   9   5 1768.13 307.000  10
  -3   9   5 1238.49 292.227  15
  -3   9   4 21079.9 799.652  12
  -3   9   4 20774.6 859.548  10
  -3   9   4 23413.3 920.319  11
  -3   9   4 21143.4 887.166  15
  -3   9   3 22532.3 799.790  12
  -3   9   3 25427.8 922.214  15
  -3   9   3 23652.6 949.042  16
   3   9  -2 48816.9 1343.98   7
   3   9  -2 39136.8 1283.18   6
  -3   9   2 44204.1 1451.97  13
  -3   9   2 45945.3 1346.35  10
  -3   9   2 38654.2 1312.77  39
  -3   9   2 48862.1 1394.06  11
  -3   9   2 37495.5 1263.40  17
  -3   9   2 47191.5 1397.69  16
   3   9  -1 3290.57 265.435   7
  -3   9   1 2999.79 364.120  13
   3   9  -1 3379.95 304.513   6
  -3   9   1 2404.09 253.766  39
   3   9  -1 3283.39 278.649  39
  -3   9   1 2625.64 265.329  17
  -3   9   1 2949.70 293.818  10
  -3   9   1 2762.60 297.360  16
  -3   9   1 2805.44 254.279  29
   3   9   0 4028.48 305.933   7
  -3   9   0 3413.95 374.507  13
  -3   9   0 4255.23 337.232  17
  -3   9   0 4772.55 385.548  16
  -3   9   0 4131.35 310.259  29
  -3   9   0 3644.38 328.263  35
  -3   9  -1 26085.0 1020.79  13
  -3   9  -1 25795.5 946.012  17
  -3   9  -1 23247.3 930.079  37
  -3   9  -1 25865.3 940.675  35
  -3   9  -2 53870.5 1685.55  13
  -3   9  -2 49213.6 1543.71  33
  -3   9  -2 54043.5 1595.61  17
  -3   9  -3 57978.9 1683.80  35
  -3   9  -3 61757.2 1881.36  13
  -3   9  -3 56189.8 1700.04  37
  -3   9  -3 54601.9 1708.95  33
  -3   9  -3 51158.2 1548.46   3
  -3   9  -3 45936.5 1516.38  27
  -3   9  -4 22557.3 1047.81  13
  -3   9  -4 21452.4 910.143  37
  -3   9  -4 23761.3 912.586  35
   3   9   4 20609.9 776.758   5
  -3   9  -4 20654.4 933.529  33
  -3   9  -4 19872.3 790.319   3
  -3   9  -5 2931.44 368.218  37
  -3   9  -5 2547.76 367.172  35
  -3   9  -5 2593.20 268.970   3
  -3   9  -5 2778.68 405.955  33
   3   9   5 2452.66 254.236   5
  -3   9  -5 2957.95 407.706  17
  -3   9  -5 2991.13 455.588  13
  -3   9  -6 2530.94 367.626  13
   3   9   6 2370.15 188.852   5
  -3   9  -6 2382.27 254.954  37
  -3   9  -6 2401.16 278.324  35
  -3   9  -6 2878.33 318.304  17
  -3   9  -6 2634.89 321.524  33
  -3   9  -6 2463.71 306.523  16
   3  10  -9 8729.05 374.270  17
  -3  10   9 7955.25 455.970  15
  -3  10   8 1209.76 352.766  14
   3  10  -8 1219.24 246.539  17
  -3  10   8 1078.94 331.731  15
  -3  10   7 2230.30 441.315  14
   3  10  -7 1796.04 293.123  33
  -3  10   7 2108.19 425.639  15
  -3  10   7 1551.91 298.608  10
  -3  10   6 3374.38 345.251  22
  -3  10   6 3075.41 390.209  10
  -3  10   5 19635.7 855.554  22
  -3  10   5 21894.0 927.740  10
  -3  10   5 22044.1 1071.20  16
  -3  10   5 21403.4 949.487  15
  -3  10   5 22878.2 1000.09  14
  -3  10   4 630.891 192.534  12
  -3  10   4 887.259 272.882  11
  -3  10   4 699.827 235.089  10
  -3  10   4 500.474 228.740  15
  -3  10   3 95933.3 2545.43  11
  -3  10   3 87993.5 2488.99  15
  -3  10   2 22730.3 876.259  17
  -3  10   2 24927.4 1052.40  13
  -3  10   2 27824.3 996.364  11
  -3  10   2 29023.6 984.798  10
  -3  10   2 26832.8 892.227  29
   3  10  -1 31526.1 997.760   7
   3  10  -1 28471.6 1080.51   6
  -3  10   1 27860.2 1115.21  13
  -3  10   1 27820.6 981.723  17
  -3  10   1 27331.4 952.077  29
  -3  10   1 31765.3 1049.98  10
  -3  10   1 33604.3 1114.83  16
  -3  10   0 32200.7 1181.71  13
  -3  10   0 31487.8 1064.66  35
  -3  10   0 29962.6 1050.96  17
  -3  10   0 29437.5 1025.08  29
  -3  10  -1 28429.5 1107.18  13
  -3  10  -1 25835.1 991.408  37
  -3  10  -1 26049.7 983.676  35
  -3  10  -1 28905.9 1097.38  16
  -3  10  -1 26370.3 991.653  17
  -3  10  -2 13966.9 770.197  13
  -3  10  -2 14137.7 698.823  17
  -3  10  -2 12545.3 662.590  33
  -3  10  -2 15325.8 805.321  16
  -3  10  -2 12421.6 583.521  27
  -3  10  -3 38418.3 1408.33  13
  -3  10  -3 36194.0 1280.89  17
  -3  10  -3 37493.7 1268.26  37
  -3  10  -3 34926.6 1246.18  33
  -3  10  -4 5202.26 583.432  13
  -3  10  -4 5243.19 489.416  37
  -3  10  -4 4634.56 453.125  35
  -3  10  -4 4204.78 468.898  33
  -3  10  -5 377.984 362.668  13
  -3  10  -5-10.5256 302.729  33
  -3  10  -5 158.225 269.568  37
  -3  10  -5 438.277 278.007  35
  -3  10  -5-25.3636 271.651  16
  -3  10  -6 5459.26 427.255  13
  -3  10  -6 3953.39 281.288  37
  -3  10  -6 4538.99 292.894  35
  -3  10  -6 5068.58 363.175  17
  -3  10  -6 4515.81 359.626  33
  -3  10  -6 4119.37 350.652  16
  -3  11   9 1023.03 217.696  14
  -3  11   9 706.746 173.016  15
  -3  11   8 2316.17 371.048  14
  -3  11   8 1855.32 417.681  11
   3  11  -8 2056.45 244.285  17
  -3  11   8 1739.92 337.010  15
  -3  11   7 5145.27 537.514  14
   3  11  -7 4688.92 375.310  17
   3  11  -7 4358.74 389.944  33
  -3  11   7 3624.35 383.510  10
  -3  11   7 4653.97 518.481  15
  -3  11   6 34442.0 1234.89  22
  -3  11   6 39154.6 1407.80  10
  -3  11   5 36125.6 1267.71  22
  -3  11   5 36875.2 1341.48  10
  -3  11   5 38872.2 1526.15  16
  -3  11   5 37722.0 1378.58  15
  -3  11   5 41362.7 1455.19  14
  -3  11   4 15738.4 756.873  10
  -3  11   4 17471.1 881.265  16
  -3  11   4 16167.3 787.540  15
  -3  11   3 13491.3 686.275  11
  -3  11   3 13818.7 674.658  10
  -3  11   3 13442.8 675.862  15
  -3  11   2 22085.4 882.722  11
  -3  11   2 23021.6 871.264  10
  -3  11   2 20926.7 772.703  29
  -3  11   1 17047.9 733.726  10
  -3  11   1 16026.9 657.804  29
  -3  11   1 14621.0 655.618  17
  -3  11   0 3304.94 362.144  35
  -3  11   0 3391.03 327.790  17
  -3  11   0 3962.09 401.489  16
  -3  11   0 3139.76 295.729  29
  -3  11  -1 6249.69 509.682  16
  -3  11  -1 6353.32 479.172  37
  -3  11  -1 5664.42 436.905  17
  -3  11  -2 6377.04 547.421  16
  -3  11  -2 5879.48 473.054  17
  -3  11  -3 14780.5 835.085  16
  -3  11  -3 15347.0 778.749  37
  -3  11  -3 14158.0 735.565  35
  -3  11  -3 15050.1 775.988  17
  -3  11  -3 13454.1 757.759  33
  -3  11  -4 1481.68 351.989  37
  -3  11  -4 1662.49 361.571  35
  -3  11  -4 2069.82 375.224  17
  -3  11  -4 1732.91 364.012  33
  -3  11  -4 1893.87 404.525  16
  -3  11  -5 3674.92 408.753  16
  -3  11  -5 3399.87 352.889  35
  -3  11  -5 3216.24 394.187  33
  -3  11  -5 2945.00 342.993  37
  -3  11  -6 2053.09 199.634  35
  -3  11  -6 2317.30 265.729  33
  -3  11  -6 2699.12 274.930  16
  -3  12   9 2535.39 240.205  14
  -3  12   8 2539.58 362.550  14
  -3  12   8 2057.19 376.314  11
   3  12  -8 2244.97 218.057  17
  -3  12   8 2566.03 350.211  15
  -3  12   7 369.110 317.164  14
   3  12  -7 171.346 232.400  33
  -3  12   7 149.573 195.390  10
  -3  12   7-15.8114 344.334  11
   3  12  -7 207.729 171.806  17
  -3  12   7 372.443 327.614  15
  -3  12   6 1779.47 421.703  14
  -3  12   6 1542.09 446.890  11
   3  12  -6 1124.58 213.261  17
  -3  12   6 1373.08 297.637  10
  -3  12   5 13150.4 670.166  22
  -3  12   5 14824.4 766.868  10
  -3  12   5 15579.1 921.500  16
  -3  12   5 16071.8 825.736  15
  -3  12   5 18125.4 904.912  14
  -3  12   4 10325.9 616.002  10
  -3  12   4 10987.7 711.044  16
  -3  12   4 11497.4 668.630  15
  -3  12   3 5671.93 447.343  10
  -3  12   3 5725.15 493.957  16
  -3  12   3 5305.48 447.872  15
  -3  12   2 1489.83 295.000  11
  -3  12   2 1096.24 278.570  16
  -3  12   2 1134.80 211.779  29
  -3  12   2 1109.10 269.620  10
  -3  12   1 12886.7 585.063  29
  -3  12   1 11574.0 583.562  17
  -3  12   1 13402.9 666.220  10
  -3  12   0 7863.23 511.864  35
  -3  12   0 6155.65 421.935  29
  -3  12   0 7293.84 463.472  17
  -3  12  -1 2124.54 361.770  37
  -3  12  -1 1828.79 303.202  17
  -3  12  -1 1981.39 373.661  16
  -3  12  -2 2323.57 357.600  17
  -3  12  -2 1952.88 388.786  16
  -3  12  -3 10288.5 647.265  35
  -3  12  -3 9740.23 645.955  37
  -3  12  -3 9984.93 632.113  17
  -3  12  -3 8189.03 591.214  33
  -3  12  -3 11159.9 735.400  16
  -3  12  -4 46236.1 1476.61  37
  -3  12  -4 43696.3 1436.73  35
  -3  12  -4 49431.4 1551.69  17
  -3  12  -4 42612.6 1484.81  33
  -3  12  -4 47473.7 1644.47  16
  -3  12  -5 7020.98 439.696  37
  -3  12  -5 6355.75 417.416  35
  -3  12  -5 7870.08 500.149  17
  -3  12  -5 6389.95 470.252  33
  -3  12  -5 7330.22 523.111  16
  -3  12  -6 367.554 98.6767  35
  -3  12  -6 510.903 173.888  17
  -3  12  -6 237.765 98.5850  37
  -3  12  -6 569.167 174.893  33
  -3  12  -6 655.009 179.577  16
  -3  13   8 3355.20 353.725  14
  -3  13   8 3360.38 390.836  11
  -3  13   8 3085.48 336.697  15
  -3  13   7 76.5232 289.745  14
   3  13  -7 101.799 227.480  33
  -3  13   7 111.445 179.158  10
  -3  13   7 255.723 354.636  11
  -3  13   7-49.5230 284.852  15
  -3  13   6 8402.71 678.526  11
  -3  13   6 6944.58 513.529  10
  -3  13   6 9155.67 647.771  14
  -3  13   5 7671.88 485.969  22
  -3  13   5 9776.34 699.118  11
  -3  13   5 8644.27 584.374  10
  -3  13   5 8726.93 700.729  16
  -3  13   5 9587.56 644.683  15
  -3  13   5 10495.2 691.442  14
  -3  13   4 3755.13 408.393  10
  -3  13   4 3991.33 487.458  16
  -3  13   4 4161.56 452.915  15
  -3  13   3 76858.2 2206.02  10
  -3  13   3 73937.4 2274.62  16
  -3  13   3 75896.3 2223.03  15
  -3  13   3 73434.1 2079.72  29
  -3  13   2 6399.52 512.524  16
  -3  13   2 6263.98 408.035  29
  -3  13   1 17435.4 752.670  17
  -3  13   1 18911.4 895.712  16
  -3  13   1 18098.0 748.021  29
  -3  13   0 14754.1 743.985  35
  -3  13   0 16060.0 758.271  10
  -3  13   0 14272.6 678.592  17
  -3  13  -1 3388.59 432.124  37
  -3  13  -1 3174.10 363.975  17
  -3  13  -2 638.712 283.728  17
  -3  13  -2 720.520 360.979  35
  -3  13  -2 512.907 335.593  16
  -3  13  -3 9863.48 702.576  16
  -3  13  -3 10461.7 650.983  37
  -3  13  -3 9604.93 615.834  35
  -3  13  -3 8856.67 596.521  17
  -3  13  -3 7699.47 558.992  33
  -3  13  -4 1402.39 349.010  37
  -3  13  -4 1234.14 325.079  35
  -3  13  -4 1347.57 326.532  17
  -3  13  -4 1193.31 298.879  33
  -3  13  -4 1493.91 371.976  16
  -3  13  -5 208.417 227.308  17
  -3  13  -5 100.981 222.029  37
  -3  13  -5 149.608 216.045  35
  -3  13  -5 30.8939 227.703  33
  -3  13  -5 335.893 252.515  16
  -3  13  -6 250.985 165.668  13
  -3  13  -6 46.3935 118.565  17
  -3  13  -6 113.954 116.251  16
  -3  13  -6 107.001 114.575  33
  -3  14   8 966.256 228.907  14
  -3  14   8 831.660 241.915  11
  -3  14   8 1060.64 126.627  29
  -3  14   8 1087.31 230.361  15
  -3  14   7 3348.05 412.960  14
  -3  14   7 2939.52 438.981  11
  -3  14   7 2826.26 372.475  15
   3  14  -7 2965.66 323.244  33
  -3  14   6 2244.43 420.743  14
  -3  14   6 2463.41 440.060  11
  -3  14   6 1891.38 298.475  10
  -3  14   5 3393.18 459.552  11
  -3  14   5 3301.82 385.122  10
  -3  14   5 3117.51 494.393  16
  -3  14   5 3833.07 467.620  15
  -3  14   5 3298.05 479.601  14
  -3  14   4 11282.3 701.272  11
  -3  14   4 9890.53 631.332  10
  -3  14   4 10550.3 724.212  16
  -3  14   4 10975.0 683.066  15
  -3  14   4 10879.6 562.692  29
  -3  14   3 55041.0 1641.23  29
  -3  14   3 57791.3 1781.03  10
  -3  14   3 53981.8 1843.78  16
  -3  14   3 55423.2 1801.35  15
  -3  14   2 2162.78 479.908  13
  -3  14   2 2437.93 376.305  16
  -3  14   2 2730.56 291.624  29
  -3  14   1 5233.29 493.910  16
  -3  14   1 5156.52 583.852  13
  -3  14   1 3943.76 342.620  29
  -3  14   1 4755.40 438.627  10
  -3  14   1 4077.56 349.275  17
  -3  14   0 29171.9 1280.06  13
  -3  14   0 27800.8 1092.57  35
  -3  14   0 30242.2 1132.56  10
  -3  14   0 25320.9 996.480  17
  -3  14   0 29669.4 1198.96  16
  -3  14  -1 3575.48 520.519  13
  -3  14  -1 4313.05 467.822  37
  -3  14  -1 3850.39 381.400  17
  -3  14  -2 5592.96 617.810  13
  -3  14  -2 4903.51 498.877  35
  -3  14  -2 5300.60 454.136  17
  -3  14  -2 3807.34 396.376  33
  -3  14  -3 9365.45 736.651  13
  -3  14  -3 9386.49 631.800  37
  -3  14  -3 8868.03 582.887  35
  -3  14  -3 9384.31 591.262  17
  -3  14  -3 9059.45 519.204  10
  -3  14  -3 8263.73 558.694  33
  -3  14  -4 10322.4 577.872  37
  -3  14  -4 10432.5 672.306  16
  -3  14  -4 10867.1 597.467  17
  -3  14  -4 9226.32 553.278  33
  -3  14  -4 9660.95 551.551  35
  -3  14  -5 3038.84 373.092  13
  -3  14  -5 2334.81 264.374  37
  -3  14  -5 2229.35 244.295  35
  -3  14  -5 2511.14 276.723  17
  -3  14  -5 1781.99 251.610  33
  -3  14  -5 2578.64 310.977  16
  -3  15   8 2279.71 243.624  14
  -3  15   8 1338.23 196.607  15
  -3  15   7 2997.40 357.345  14
  -3  15   7 2340.84 378.828  11
   3  15  -7 2461.09 284.870  33
  -3  15   7 2891.49 223.355  29
  -3  15   7 2667.99 341.587  15
  -3  15   6 11398.9 722.466  11
  -3  15   6 9611.97 552.223  10
  -3  15   6 10917.9 516.925  29
  -3  15   6 12061.1 709.853  14
  -3  15   5 22775.3 1018.39  11
  -3  15   5 17674.6 860.933  10
  -3  15   5 19367.8 1028.56  16
  -3  15   5 20074.1 945.016  15
  -3  15   5 20070.6 788.499  29
  -3  15   5 21926.4 1004.37  14
  -3  15   4 25792.1 1104.38  15
  -3  15   4 27903.9 1143.30  11
  -3  15   4 25193.9 1045.67  10
  -3  15   4 25715.3 939.263  29
  -3  15   3 55214.4 1761.19  11
  -3  15   3 52578.5 1690.71  10
  -3  15   3 51878.6 1788.78  16
  -3  15   3 49508.8 1702.31  15
  -3  15   3 50030.4 1537.06  29
  -3  15   2 36534.1 1236.30  29
  -3  15   2 46151.1 1534.10  16
  -3  15   1 14519.2 909.787  13
  -3  15   1 14833.2 770.795  10
  -3  15   1 16110.4 839.460  16
  -3  15   0 7327.75 660.114  13
  -3  15   0 6413.78 454.598  17
  -3  15   0 8025.60 570.651  10
  -3  15   0 8073.04 621.506  16
  -3  15  -1 115.282 219.035  17
  -3  15  -1 150.372 418.173  13
  -3  15  -1 255.671 329.036  16
  -3  15  -1 35.9752 359.299  37
  -3  15  -1 224.657 243.116  10
  -3  15  -2 41503.3 1543.24  13
  -3  15  -2 37498.9 1320.34  35
  -3  15  -2 38789.6 1305.33  10
  -3  15  -2 31586.6 1201.32  33
  -3  15  -2 35073.4 1251.08  17
  -3  15  -3 3770.16 529.670  13
  -3  15  -3 3476.30 423.193  35
  -3  15  -3 3757.67 449.501  37
  -3  15  -3 3725.16 391.761  17
  -3  15  -3 3160.18 320.570  10
  -3  15  -3 2995.64 366.765  33
  -3  15  -4 914.261 354.344  13
  -3  15  -4 999.961 299.871  37
  -3  15  -4 771.019 274.799  35
  -3  15  -4 894.367 260.940  33
  -3  15  -4 756.124 242.222  17
  -3  15  -5 14436.9 617.909  13
  -3  15  -5 10868.8 437.428  37
  -3  15  -5 9639.61 397.682  35
  -3  15  -5 13595.5 503.154  17
  -3  15  -5 8634.08 423.443  33
  -3  15  -5 12343.5 547.984  16
  -3  16   7 1811.91 291.325  14
  -3  16   7 1533.01 286.657  11
   3  16  -7 1526.11 222.395  33
  -3  16   7 1951.35 284.154  15
  -3  16   6 7005.79 552.042  11
  -3  16   6 5755.43 402.146  10
  -3  16   6 7238.79 365.677  29
  -3  16   6 7250.16 533.663  14
  -3  16   5 3888.45 463.898  11
  -3  16   5 3339.79 437.814  15
  -3  16   5 3549.27 365.981  10
  -3  16   5 3013.45 449.078  16
  -3  16   5 3577.53 294.214  29
  -3  16   5 4152.08 479.190  14
  -3  16   4 21248.1 965.145  11
  -3  16   4 19635.3 882.055  10
  -3  16   4 19654.7 1007.33  16
  -3  16   4 20104.1 944.899  15
  -3  16   4 18849.7 751.631  29
  -3  16   3 61790.6 1947.37  10
  -3  16   3 66309.7 2045.06  11
  -3  16   3 63668.1 1992.68  15
  -3  16   3 60805.5 1771.26  29
  -3  16   2 8539.53 631.616  16
  -3  16   2 8235.83 626.627  11
  -3  16   1 9724.06 790.262  13
  -3  16   1 10953.1 675.255  10
  -3  16   1 12181.7 744.093  16
  -3  16   0 13010.8 780.586  16
  -3  16   0 12892.0 865.778  13
  -3  16   0 12304.9 725.434  37
  -3  16   0 13569.4 740.076  10
  -3  16  -1 16589.1 975.571  13
  -3  16  -1 15696.5 834.735  37
  -3  16  -1 15497.6 798.313  10
  -3  16  -1 18059.3 899.999  16
  -3  16  -2 5149.52 602.805  13
  -3  16  -2 5423.98 543.891  16
  -3  16  -2 5540.24 453.061  10
  -3  16  -2 3462.53 361.496  33
  -3  16  -2 5348.12 508.005  35
  -3  16  -2 3918.81 377.973  17
  -3  16  -3 12333.8 764.071  13
  -3  16  -3 11136.8 569.400  17
  -3  16  -3 11032.8 626.482  37
  -3  16  -3 10788.5 603.470  35
  -3  16  -3 10884.2 543.852  10
  -3  16  -4 6261.92 507.227  13
  -3  16  -4 5698.32 399.023  37
  -3  16  -4 5231.18 362.771  35
  -3  16  -4 6117.19 381.133  17
  -3  16  -5 2267.23 249.226  13
  -3  16  -5 1003.63 133.530  37
  -3  16  -5 916.939 109.866  35
  -3  16  -5 1963.88 167.269  17
  -3  17   7 2122.26 261.633  14
   3  17  -7 1368.64 169.100  33
  -3  17   7 1640.45 238.825  11
  -3  17   7 1903.36 246.938  15
  -3  17   6 2398.56 343.438  14
  -3  17   6 2080.60 348.462  11
  -3  17   6 2132.56 238.123  10
  -3  17   5 19176.3 880.938  11
  -3  17   5 16359.0 738.401  10
  -3  17   5 14533.7 827.948  16
  -3  17   5 16877.7 809.836  15
  -3  17   5 18504.9 869.251  14
  -3  17   4 2156.62 386.045  11
  -3  17   4 2067.20 332.668  10
  -3  17   4 2133.11 410.881  16
  -3  17   4 2586.62 404.209  15
  -3  17   3 7099.75 573.378  11
  -3  17   3 6527.59 519.505  10
  -3  17   3 6580.46 579.263  16
  -3  17   3 6294.23 544.452  15
  -3  17   2 4242.34 479.900  11
  -3  17   2 4133.02 454.649  10
  -3  17   2 4020.60 479.609  16
  -3  17   1 5665.42 663.294  13
  -3  17   1 5753.85 557.051  11
  -3  17   1 5915.96 507.027  10
  -3  17   1 6073.40 557.291  16
  -3  17   0 8576.66 740.549  13
  -3  17   0 8715.51 639.309  37
  -3  17   0 9740.05 635.551  10
  -3  17   0 8385.00 634.628  16
  -3  17  -1 3374.65 538.037  13
  -3  17  -1 3246.94 492.024  37
  -3  17  -1 2527.43 290.641  17
  -3  17  -1 3204.29 398.338  10
  -3  17  -1 3788.03 471.405  16
  -3  17  -2 18298.5 941.007  13
  -3  17  -2 16072.2 780.092  35
  -3  17  -2 16877.5 762.207  10
  -3  17  -2 18647.1 892.257  16
  -3  17  -3 3090.14 454.727  13
  -3  17  -3 2206.80 354.522  37
  -3  17  -3 2131.53 328.843  35
  -3  17  -3 2382.02 268.079  17
  -3  17  -3 2613.67 375.345  16
  -3  17  -3 2357.43 265.769  10
  -3  17  -4 1482.39 297.279  13
  -3  17  -4 1233.52 256.399  16
  -3  17  -4 1285.83 245.284  37
  -3  17  -4 1320.22 216.203  35
  -3  17  -4 983.176 171.212  17
  -3  18   7 1154.71 177.758  14
  -3  18   7 1137.35 176.042  15
  -3  18   6 5896.51 423.817  14
  -3  18   6 5138.17 413.297  11
  -3  18   5 8388.89 559.490  11
  -3  18   5 7274.17 455.468  10
  -3  18   5 8165.18 535.753  15
  -3  18   5 8757.89 559.542  14
  -3  18   4 1067.03 310.185  11
  -3  18   4 940.277 313.970  15
  -3  18   4 837.085 305.784  16
  -3  18   4 1024.49 271.114  10
  -3  18   3 7900.81 575.183  11
  -3  18   3 6261.15 492.659  10
  -3  18   3 7643.60 603.086  16
  -3  18   3 7706.07 566.738  15
  -3  18   2 6928.33 569.343  11
  -3  18   2 6098.98 509.426  10
  -3  18   2 6679.00 561.803  16
  -3  18   2 5955.20 520.169  15
  -3  18   1 2247.60 444.743  35
  -3  18   1 2199.31 401.924  11
  -3  18   1 2312.42 395.537  16
  -3  18   0 4691.05 582.985  13
  -3  18   0 5068.16 518.049  11
  -3  18   0 4647.36 527.028  37
  -3  18   0 4077.31 441.137  10
  -3  18   0 4871.24 495.237  16
  -3  18  -1 7446.42 653.299  13
  -3  18  -1 7314.81 586.789  11
  -3  18  -1 8489.87 617.680  37
  -3  18  -1 8038.48 594.117  35
  -3  18  -1 7803.51 546.363  10
  -3  18  -1 8941.48 619.268  16
  -3  18  -2 4666.98 518.632  13
  -3  18  -2 5279.44 415.534  10
  -3  18  -2 5511.14 485.080  16
  -3  18  -2 4855.70 445.936  35
  -3  18  -3 3520.62 342.629  35
  -3  18  -3 3717.85 420.370  13
  -3  18  -3 4314.55 383.053  37
  -3  18  -3 3572.08 285.666  10
  -3  18  -3 3385.53 364.325  16
  -3  18  -4 3806.27 325.938  13
  -3  18  -4 4000.33 265.768  37
  -3  18  -4 3848.51 287.871  16
  -3  19   6 1516.34 232.351  14
  -3  19   6 1327.55 213.519  11
  -3  19   5 1102.24 274.188  14
  -3  19   5 878.705 191.418  10
  -3  19   5 841.750 246.133  15
  -3  19   5 875.341 262.973  11
  -3  19   4 3714.43 391.946  11
  -3  19   4 3907.18 346.022  10
  -3  19   4 3819.83 417.335  16
  -3  19   4 3640.71 390.967  15
  -3  19   3 9641.82 602.312  11
  -3  19   3 8476.56 546.419  10
  -3  19   3 9429.75 619.797  16
  -3  19   3 9228.99 588.872  15
  -3  19   2 1149.13 326.496  11
  -3  19   2 1502.27 339.013  16
  -3  19   2 1156.33 312.758  10
  -3  19   2 1266.19 306.028  15
  -3  19   1 8178.91 585.351  11
  -3  19   1 7716.81 588.456  37
  -3  19   1 7400.19 601.441  35
  -3  19   1 7725.75 578.249  16
  -3  19   0 22443.0 989.143  11
  -3  19   0 22951.3 965.553  37
  -3  19   0 21401.1 944.905  10
  -3  19   0 22374.5 988.452  16
  -3  19  -1 3209.95 465.144  13
  -3  19  -1 3605.64 433.918  35
  -3  19  -1 3370.42 405.484  11
  -3  19  -1 3540.45 463.511  37
  -3  19  -1 3083.93 355.022  10
  -3  19  -1 3123.18 392.251  16
  -3  19  -2 2456.44 408.767  13
  -3  19  -2 2129.16 337.783  11
  -3  19  -2 2176.88 336.027  35
  -3  19  -2 1944.99 270.776  10
  -3  19  -2 1930.29 311.569  16
  -3  19  -3 2488.32 213.869  10
  -3  19  -3 2445.37 328.747  13
  -3  19  -3 2517.69 285.682  37
  -3  19  -3 2652.07 268.482  35
  -3  19  -3 2057.82 258.034  16
  -3  19  -4 339.396 101.294  37
  -3  19  -4 391.354 112.646  16
  -3  20   6 3021.99 227.772  14
   3  20  -6 1914.96 153.778  33
  -3  20   5 1741.30 250.597  11
  -3  20   5 2025.45 252.750  15
  -3  20   5 1826.95 261.000  14
  -3  20   4 1294.61 293.068  14
  -3  20   4 1219.95 264.380  11
  -3  20   4 1164.53 263.947  15
  -3  20   4 1068.52 254.069  16
  -3  20   4 1075.31 219.955  10
  -3  20   3 6920.88 487.649  11
  -3  20   3 6424.98 444.309  10
  -3  20   3 6491.30 488.831  16
  -3  20   3 6391.97 471.557  15
  -3  20   2 1870.03 310.999  10
  -3  20   2 1985.79 326.468  11
  -3  20   2 2446.82 431.745  35
  -3  20   2 1959.37 319.820  16
  -3  20   2 2126.18 310.653  15
  -3  20   1 8602.87 559.215  11
  -3  20   1 8421.11 566.384  37
  -3  20   1 7903.55 544.252  16
  -3  20   1 7101.90 491.081  15
  -3  20   0 5720.95 466.319  11
  -3  20   0 6942.94 525.083  37
  -3  20   0 6216.52 467.145  10
  -3  20   0 5902.86 478.331  16
  -3  20  -1 3829.21 381.624  11
  -3  20  -1 3945.11 403.258  35
  -3  20  -1 3477.36 352.380  10
  -3  20  -1 3683.45 371.762  16
  -3  20  -2 4034.13 401.808  13
  -3  20  -2 4467.21 362.422  11
  -3  20  -2 4859.83 358.645  35
  -3  20  -2 4063.02 348.090  16
  -3  20  -2 4564.12 325.485  10
  -3  20  -3 2898.09 242.775  11
  -3  20  -3 3554.31 256.517  37
  -3  20  -3 2950.39 206.053  35
  -3  20  -3 2860.83 235.771  16
  -3  21   5 2750.02 237.374  14
  -3  21   5 2749.25 208.720  35
  -3  21   5 2460.70 231.812  15
  -3  21   4 922.125 228.046  14
  -3  21   4 562.688 189.551  11
  -3  21   4 652.797 162.627  10
  -3  21   4 616.587 200.675  15
  -3  21   3 858.301 235.206  15
  -3  21   3 994.428 249.559  37
  -3  21   3 1211.06 315.251  35
  -3  21   3 1041.97 233.807  11
  -3  21   3 1165.53 236.432  16
  -3  21   3 995.123 217.227  10
  -3  21   2 2831.74 326.177  11
  -3  21   2 2754.25 348.384  37
  -3  21   2 3036.86 403.433  35
  -3  21   2 2763.89 310.274  10
  -3  21   2 2190.57 295.780  16
  -3  21   2 2524.66 303.412  15
  -3  21   1 1313.54 330.085  37
  -3  21   1 1003.52 259.523  11
  -3  21   1 684.879 230.130  16
  -3  21   1 902.670 223.009  15
  -3  21   0 475.089 208.364  16
  -3  21   0 860.196 307.977  37
  -3  21   0 782.595 238.168  11
  -3  21   0 647.100 223.769  10
  -3  21   0 343.589 168.451  15
  -3  21  -1 56.7053 187.923  11
  -3  21  -1 292.537 248.777  35
  -3  21  -1-16.1414 176.157  16
  -3  21  -1-14.9756 164.189  10
  -3  21  -2 2168.14 240.488  35
  -3  21  -2 2197.33 211.076  10
  -3  21  -2 1713.52 208.192  16
  -3  21  -2 2120.42 226.600  11
  -3  22   4 2438.84 207.953  11
  -3  22   4 3070.89 248.837  15
  -3  22   4 2939.76 245.813  14
  -3  22   3 7472.20 364.470  37
  -3  22   3 9038.10 434.836  11
  -3  22   3 10363.8 474.260  35
  -3  22   3 9396.43 421.385  10
  -3  22   3 6390.79 359.063  16
  -3  22   3 9762.05 453.921  15
  -3  22   2 4163.61 320.303  11
  -3  22   2 4224.61 339.849  37
  -3  22   2 4544.31 369.690  35
  -3  22   2 3373.93 290.351  16
  -3  22   2 3889.13 309.068  10
  -3  22   2 4174.51 316.133  15
  -3  22   1 4221.61 324.729  11
  -3  22   1 4588.73 343.110  10
  -3  22   1 3942.73 312.557  16
  -3  22   1 4072.89 302.661  15
  -3  22   0 2765.52 269.078  10
  -3  22   0 2367.74 254.462  11
  -3  22   0 3016.11 315.779  37
  -3  22   0 3013.92 314.363  35
  -3  22  -1 2508.80 231.137  10
  -3  22  -1 1727.98 205.151  11
  -3  22  -1 2250.79 245.217  35
  -3  22  -1 1351.61 179.017  16
  -3  22  -2 4533.07 238.603  11
  -3  22  -2 3852.61 203.482  35
  -3  23   3 587.275 132.718  14
  -3  23   3 982.035 172.354  35
  -3  23   3 787.272 137.324  15
  -3  23   2 448.899 155.714  37
  -3  23   2 379.582 185.233  35
  -3  23   2 328.881 116.753  11
  -3  23   2 313.003 134.835  10
  -3  23   2 348.865 127.147  15
  -3  23   1 9030.78 401.083  37
  -3  23   1 6942.84 345.701  11
  -3  23   1 8929.82 396.436  10
  -3  23   1 6626.73 316.764  15
  -3  23   0 1326.57 199.828  37
  -3  23   0 1108.65 197.929  35
  -3  23   0 732.189 128.091  11
  -3  23   0 1046.45 160.799  10
   4 -22  -3 3912.55 294.796  21
   4 -22  -3 4145.72 297.512  18
   4 -22  -2 1349.99 226.664  18
   4 -22  -2 1574.83 181.463  26
   4 -22  -1 141.654 136.555  26
   4 -22  -1 79.6772 135.602  21
   4 -22  -1 288.697 190.667  18
   4 -22   0 1633.59 169.164  36
   4 -22   0 1079.89 206.903  18
   4 -22   0 1563.95 169.483  26
   4 -21  -4 7644.58 328.046  26
   4 -21  -4 6712.57 295.197  24
   4 -21  -4 6890.77 432.027  21
   4 -21  -4 6844.69 385.953  18
   4 -21  -3 22.4198 153.262  26
   4 -21  -3 48.7617 109.965  24
   4 -21  -3-77.5373 206.090  21
   4 -21  -3 40.6720 198.043  18
   4 -21  -3 100.051 155.865  28
   4 -21  -2 5028.32 278.979  24
   4 -21  -2 5198.74 428.955  21
   4 -21  -2 5404.58 478.128  18
   4 -21  -2 6338.05 355.339  28
   4 -21  -2 5927.13 365.739  26
   4 -21  -1 2367.02 315.540  21
   4 -21  -1 2953.23 388.858  18
   4 -21  -1 3611.74 301.332  26
  -4 -21   0 2734.78 216.228  23
   4 -21   0 2001.69 267.016  21
   4 -21   0 2149.92 338.940  18
   4 -21   1 89.7986 122.235  26
  -4 -21  -1 35.3854 104.134  23
   4 -21   1 87.1212 125.368  21
   4 -21   1 114.807 123.738  36
   4 -21   1-56.0777 176.125  18
   4 -20  -5 412.545 110.079  26
   4 -20  -5 466.007 117.004  24
   4 -20  -5 359.831 129.988  18
   4 -20  -5 247.892 199.165  21
   4 -20  -4 1039.85 198.791  26
   4 -20  -4 1173.26 179.473  24
   4 -20  -4 1045.33 284.705  21
   4 -20  -4 756.032 235.184  18
   4 -20  -4 1024.02 214.594  28
   4 -20  -3 9738.48 491.359  26
   4 -20  -3 9205.44 449.684  24
   4 -20  -3 9729.06 623.111  21
   4 -20  -3 8445.00 599.550  18
   4 -20  -3 10462.1 505.725  28
   4 -20  -2 4093.40 354.901  26
   4 -20  -2 3203.16 274.136  24
   4 -20  -2 2818.57 393.168  21
   4 -20  -2 3529.73 470.817  18
   4 -20  -2 3589.48 318.854  28
   4 -20  -1 6903.05 370.593  24
  -4 -20   1 7234.12 381.994  23
   4 -20  -1 6824.27 618.683  18
   4 -20  -1 7057.20 531.302  21
  -4 -20   0 312.351 174.590  23
   4 -20   0 201.573 241.082  21
   4 -20   1 151.251 169.800  26
  -4 -20  -1 143.787 152.589  23
   4 -20   1 9.20103 195.676  21
   4 -20   1 150.916 175.025  36
   4 -20   1 230.254 128.737  30
   4 -20   2 3036.13 201.588  36
   4 -20   2 2552.31 166.599  30
   4 -19  -6 2417.13 178.470  24
   4 -19  -6 2281.66 269.218  21
   4 -19  -6 2805.80 217.804  28
   4 -19  -5 4561.48 292.614  26
   4 -19  -5 4966.32 310.118  24
   4 -19  -5 4725.32 445.560  21
   4 -19  -5 4179.04 341.882  18
   4 -19  -4 1150.35 237.517  26
   4 -19  -4 1053.23 213.424  24
   4 -19  -4 799.593 329.068  21
   4 -19  -4 983.612 279.363  18
   4 -19  -4 1046.25 244.331  28
   4 -19  -3 4993.95 408.318  26
   4 -19  -3 4543.75 351.128  24
   4 -19  -3 4655.75 518.406  21
   4 -19  -3 5269.92 556.207  18
   4 -19  -3 4976.57 392.971  28
   4 -19  -2 1386.73 310.831  26
   4 -19  -2 1064.07 216.113  24
   4 -19  -2 980.825 364.907  21
   4 -19  -2 1335.50 416.749  18
   4 -19  -1 3648.01 382.655  26
   4 -19  -1 3598.92 300.456  24
  -4 -19   1 3540.96 299.909  23
   4 -19  -1 3308.11 453.502  21
   4 -19  -1 2485.07 238.721  30
   4 -19  -1 3481.38 319.043  28
  -4 -19   0 5324.68 371.800  23
   4 -19   0 4625.40 495.561  21
   4 -19   0 4324.72 319.363  30
  -4 -19  -1 2208.18 266.878  23
   4 -19   1 1682.25 338.319  21
   4 -19   1 1898.72 281.742  36
   4 -19   1 1981.19 236.180  30
   4 -19   1 2397.54 293.578  26
   4 -19   2 671.003 168.004  26
  -4 -19  -2 946.691 183.126  23
   4 -19   2 592.107 217.081  21
   4 -19   2 695.328 161.129  30
   4 -19   2 694.583 180.599  36
   4 -18  -6 2311.48 190.857  26
   4 -18  -6 2839.40 258.644  28
   4 -18  -6 2665.04 349.152  21
   4 -18  -5 1180.73 229.180  26
   4 -18  -5 1035.19 345.545  21
   4 -18  -5 1292.30 259.571  18
   4 -18  -4 5182.38 396.387  26
   4 -18  -4 4532.07 363.190  24
   4 -18  -4 5251.86 557.399  21
   4 -18  -4 4772.82 487.041  18
   4 -18  -4 4794.66 408.372  28
   4 -18  -3 3144.70 365.776  26
   4 -18  -3 3390.72 331.709  24
   4 -18  -3 3789.47 516.815  21
   4 -18  -3 3334.77 520.706  18
   4 -18  -3 3578.87 369.037  28
   4 -18  -2 5479.38 461.709  26
   4 -18  -2 5143.43 384.215  24
  -4 -18   2 5025.29 341.235  23
   4 -18  -2 5270.34 574.702  21
   4 -18  -2 4981.76 621.115  18
   4 -18  -2 5115.00 418.995  28
   4 -18  -1 15491.7 667.138  24
  -4 -18   1 15990.4 671.454  23
   4 -18  -1 15698.5 918.255  21
   4 -18  -1 16555.5 704.968  28
   4 -18  -1 13767.7 628.599  30
   4 -18   0 907.906 306.352  26
  -4 -18   0 967.362 243.813  23
   4 -18   0 803.351 378.344  21
   4 -18   0 598.289 214.175  30
  -4 -18  -1 5801.27 400.297  23
   4 -18   1 5246.11 377.417  30
   4 -18   1 6089.92 439.308  26
   4 -18   2 178.552 180.839  26
  -4 -18  -2 116.221 192.117  23
   4 -18   2 218.635 262.540  21
   4 -18   2 80.5927 186.878  36
   4 -18   2 6.44560 176.521  30
  -4 -18  -3 943.645 154.568  23
   4 -18   3 321.612 166.694  21
   4 -18   3 621.452 125.035  36
   4 -18   3 804.480 132.245  31
   4 -18   3 725.576 153.123  30
   4 -17  -7 1514.61 255.709  21
   4 -17  -7 1777.17 185.392  28
   4 -17  -6 420.873 171.739  18
   4 -17  -6 273.001 156.879  26
   4 -17  -6 198.253 275.596  21
   4 -17  -6 378.696 210.521  28
   4 -17  -5 878.230 241.017  26
   4 -17  -5 1407.20 411.505  21
   4 -17  -5 1591.67 311.678  18
   4 -17  -4 19371.4 822.767  26
   4 -17  -4 19457.5 1041.00  21
   4 -17  -4 19168.2 1012.65  18
   4 -17  -4 19223.6 835.424  28
   4 -17  -3 7254.36 523.352  26
   4 -17  -3 6844.60 459.816  24
   4 -17  -3 7310.42 688.925  21
   4 -17  -3 6842.30 695.929  18
   4 -17  -3 7033.32 495.403  28
   4 -17  -2 45226.1 1412.06  26
   4 -17  -2 41144.5 1302.24  24
  -4 -17   2 37060.5 1213.41  23
   4 -17  -2 36976.0 1674.30  18
   4 -17  -2 42606.2 1640.55  21
   4 -17  -2 34287.6 1184.40  30
   4 -17  -2 43430.0 1351.72  28
   4 -17  -1 12305.2 601.597  24
  -4 -17   1 12473.8 613.896  23
   4 -17  -1 12560.2 877.286  21
   4 -17  -1 11450.7 592.152  30
   4 -17  -1 13122.5 646.313  28
   4 -17   0 3826.57 415.238  26
  -4 -17   0 3534.50 368.505  23
   4 -17   0 3149.82 528.475  21
   4 -17   0 2829.99 286.015  38
   4 -17   0 3026.72 341.083  30
  -4 -17  -1 2510.00 329.642  23
   4 -17   1 2184.32 403.101  19
   4 -17   1 1830.86 435.497  21
   4 -17   1 1588.08 248.571  38
   4 -17   1 2126.59 318.808  30
   4 -17   1 2278.75 327.488  26
  -4 -17  -2 4352.60 366.019  23
   4 -17   2 3454.03 459.115  21
   4 -17   2 3586.02 402.484  19
   4 -17   2 3537.82 291.395  38
   4 -17   2 3971.98 347.872  36
   4 -17   2 4034.09 355.364  30
   4 -17   2 4032.29 342.422  26
   4 -17   3 2031.84 219.510  36
  -4 -17  -3 2657.20 252.800  23
   4 -17   3 1969.57 191.688  38
   4 -17   3 2424.06 246.334  30
   4 -16  -7 289.246 249.628  21
   4 -16  -7 454.290 176.071  28
   4 -16  -6 11154.3 515.894  26
   4 -16  -6 10701.1 730.393  21
   4 -16  -6 10980.2 567.106  18
   4 -16  -5 2271.25 322.155  26
  -4 -16   5 1897.18 232.508  25
   4 -16  -5 1979.70 481.952  21
   4 -16  -5 2246.66 370.837  18
   4 -16  -4 3305.62 394.782  26
   4 -16  -4 3091.93 542.974  21
   4 -16  -4 3815.90 527.725  18
   4 -16  -4 3359.73 395.740  28
   4 -16  -3 2503.46 371.154  26
   4 -16  -3 2723.78 533.152  21
   4 -16  -3 2267.30 504.879  18
   4 -16  -3 2729.99 349.569  28
   4 -16  -2 16236.7 803.270  26
   4 -16  -2 16466.4 724.061  24
  -4 -16   2 15723.9 674.191  23
   4 -16  -2 16926.7 1008.07  21
   4 -16  -2 14676.7 681.127  30
   4 -16  -2 16436.9 751.045  28
   4 -16  -1 1241.97 239.172  24
  -4 -16   1 1260.04 271.117  23
   4 -16  -1 1035.62 449.158  21
   4 -16  -1 1260.27 277.831  30
   4 -16  -1 1296.96 260.252  28
   4 -16   0 3968.34 425.149  26
  -4 -16   0 4712.83 416.071  23
   4 -16   0 3660.86 584.228  21
   4 -16   0 3757.48 507.889  19
   4 -16   0 3397.82 384.612  30
   4 -16   0 4443.49 366.842  28
  -4 -16  -1 2567.33 356.265  23
   4 -16   1 2543.18 517.889  21
   4 -16   1 2196.30 311.525  38
   4 -16   1 2927.78 440.990  19
   4 -16   1 2481.58 348.981  30
   4 -16   1 2564.29 356.239  26
  -4 -16  -2 12576.5 626.537  23
   4 -16   2 10962.4 771.508  21
   4 -16   2 11375.8 569.241  38
   4 -16   2 12726.4 613.916  36
   4 -16   2 10574.4 680.322  19
   4 -16   2 12763.1 636.284  30
   4 -16   2 13161.7 610.603  26
   4 -16   3 3956.46 435.905  21
   4 -16   3 3816.71 354.932  19
   4 -16   3 4358.21 316.320  38
   4 -16   3 4574.58 326.633  36
   4 -16   3 4791.24 355.203  30
  -4 -16  -4 5890.87 261.057  23
   4 -16   4 4868.31 236.110  38
  -4 -15   8 1253.92 126.819  25
   4 -15  -8 2167.01 174.708  28
   4 -15  -7 576.380 157.367  26
  -4 -15   7 661.539 183.811  25
   4 -15  -7 842.976 335.683  21
  -4 -15   7 508.196 195.589  31
   4 -15  -7 665.894 217.431  28
   4 -15  -6 2657.94 305.628  26
  -4 -15   6 2371.51 284.825  25
   4 -15  -6 2534.81 492.285  21
   4 -15  -6 2727.43 327.803  18
  -4 -15   6 2139.04 282.030  31
   4 -15  -5 20072.9 849.863  26
   4 -15  -5 21840.6 1136.48  21
   4 -15  -5 21495.2 999.665  18
   4 -15  -5 19845.2 867.653  28
   4 -15  -4 28184.2 1052.64  26
   4 -15  -4 26419.9 1289.66  21
   4 -15  -4 28822.8 1323.45  18
   4 -15  -4 26147.8 1034.10  28
   4 -15  -3 1069.12 323.876  26
   4 -15  -3 869.193 409.977  21
   4 -15  -3 575.344 400.239  18
   4 -15  -3 759.069 206.985  30
   4 -15  -3 935.178 274.326  28
   4 -15  -2 2021.48 279.494  24
  -4 -15   2 2386.12 277.175  23
   4 -15  -2 2158.23 490.136  21
   4 -15  -2 2304.44 317.889  30
   4 -15  -2 1835.84 304.380  28
   4 -15  -1 6234.99 510.033  26
   4 -15  -1 6258.74 427.619  24
  -4 -15   1 6294.57 456.336  23
   4 -15  -1 7186.07 720.537  21
   4 -15  -1 7052.49 486.320  30
   4 -15  -1 6910.21 464.594  28
   4 -15   0 21956.6 921.689  26
  -4 -15   0 22687.4 923.509  23
   4 -15   0 21535.9 1154.51  21
   4 -15   0 21424.3 1073.59  19
   4 -15   0 21484.6 902.577  30
   4 -15   0 19892.6 829.721  28
   4 -15   1 1477.26 324.575  26
  -4 -15  -1 1176.96 314.122  23
   4 -15   1 1479.09 472.014  21
   4 -15   1 1142.73 280.305  38
   4 -15   1 1119.34 371.184  19
   4 -15   1 1055.77 312.246  30
   4 -15   2 6485.58 657.823  21
   4 -15   2 8129.57 508.671  38
   4 -15   2 7235.51 587.960  19
   4 -15   2 9043.51 531.945  36
   4 -15   2 9365.29 567.086  30
   4 -15   2 8738.52 513.996  26
  -4 -15  -3 8623.57 486.014  23
   4 -15   3 6906.41 598.812  21
   4 -15   3 6402.37 479.997  19
   4 -15   3 8314.83 466.567  38
   4 -15   3 7877.87 438.103  36
   4 -15   3 7831.63 420.385  26
   4 -15   4 7518.55 361.145  38
   4 -15   4 8015.26 376.004  30
  -4 -14   8 6133.58 325.786  25
   4 -14  -8 7630.98 364.255  28
   4 -14  -7 3998.78 306.326  26
  -4 -14   7 3823.43 332.575  25
   4 -14  -7 4882.50 382.558  28
  -4 -14   7 3800.06 354.138  31
   4 -14  -6 13320.9 647.769  26
  -4 -14   6 12226.5 623.531  25
   4 -14  -6 14365.0 713.822  18
  -4 -14   6 12014.4 627.168  31
   4 -14  -5 2855.68 371.010  26
  -4 -14   5 2325.62 313.093  25
   4 -14  -5 2915.94 419.284  18
  -4 -14   5 1914.10 284.516  31
   4 -14  -5 2740.86 376.670  28
   4 -14  -4 287.744 280.389  26
  -4 -14   4 138.439 190.968  25
   4 -14  -4 205.254 359.411  18
   4 -14  -4 302.646 266.172  28
   4 -14  -3 15054.3 752.779  26
   4 -14  -3 13566.0 940.713  18
   4 -14  -3 13434.7 694.570  28
   4 -14  -2 1033.43 225.103  24
   4 -14  -2 631.174 233.886  28
  -4 -14   2 961.965 212.452  23
   4 -14  -1 11017.4 635.773  26
  -4 -14   1 11329.9 596.332  23
   4 -14  -1 10671.6 602.282  30
   4 -14  -1 10653.1 570.732  28
   4 -14   0 6809.36 508.382  26
  -4 -14   0 6642.56 498.641  23
   4 -14   0 5637.40 574.648  19
   4 -14   0 6599.05 504.026  30
   4 -14   0 5860.05 410.652  28
   4 -14   1 13829.7 692.448  26
  -4 -14  -1 13721.9 723.543  23
   4 -14   1 12473.3 808.364  19
   4 -14   1 12552.1 702.051  30
   4 -14   2 9842.30 585.120  38
   4 -14   2 10339.7 578.928  36
   4 -14   2 10141.8 622.117  30
   4 -14   2 8682.19 657.451  19
   4 -14   2 10164.5 558.404  26
  -4 -14  -3 5787.74 424.199  23
   4 -14   3 4555.41 447.711  19
   4 -14   3 4930.85 374.362  36
   4 -14   3 5492.93 429.893  38
   4 -14   3 4893.59 348.495  26
   4 -14   4-51.3369 171.277  38
  -4 -14  -4 100.590 160.116  23
   4 -14   4 103.877 268.844  21
   4 -14   4 26.6629 120.793  36
   4 -14   4 43.1476 169.290  30
  -4 -13   8 5812.29 357.772  25
   4 -13  -8 6661.50 374.380  28
   4 -13  -7 1717.90 261.490  26
  -4 -13   7 1667.27 286.196  25
  -4 -13   7 1877.97 315.910  31
   4 -13  -7 2002.35 333.413  28
   4 -13  -6 4116.99 402.210  26
  -4 -13   6 4073.79 394.761  25
   4 -13  -6 4458.93 426.407  18
   4 -13  -5 48981.7 1536.12  26
   4 -13  -5 50400.3 1721.67  18
   4 -13  -5 46982.6 1546.76  28
   4 -13  -4 36134.8 1257.19  26
   4 -13  -4 38521.1 1553.44  18
   4 -13  -4 34206.6 1237.09  28
   4 -13  -3 15817.6 761.015  26
  -4 -13   3 14299.7 648.590  25
   4 -13  -3 15292.2 970.714  18
   4 -13  -3 14625.9 712.804  28
   4 -13  -2 3857.77 335.143  24
  -4 -13   2 3823.54 332.649  23
   4 -13  -2 3897.83 363.502  28
   4 -13  -1 10024.7 605.063  26
  -4 -13   1 10055.1 582.215  23
   4 -13  -1 10026.0 723.034  19
  -4 -13   1 12055.1 554.762  32
   4 -13  -1 9383.77 545.471  28
   4 -13   0 10633.2 606.052  26
   4 -13   0 10449.3 619.855  30
  -4 -13   0 10593.9 615.793  23
   4 -13   0 10459.9 724.174  19
   4 -13   0 9106.27 513.175  28
   4 -13   1 10009.4 585.487  26
  -4 -13  -1 10710.7 643.325  23
   4 -13   1 9538.13 609.217  30
   4 -13   1 10311.1 724.753  19
   4 -13   2 1526.02 336.791  38
   4 -13   2 1529.62 387.842  19
   4 -13   2 1480.82 293.684  36
   4 -13   2 1735.66 291.224  26
  -4 -13  -3 3940.83 394.354  23
   4 -13   3 4289.69 417.882  38
   4 -13   3 3221.77 422.012  19
   4 -13   3 3656.65 339.759  36
   4 -13   3 4171.56 402.545  30
   4 -13   3 4076.40 327.041  26
  -4 -13  -4 2552.18 267.995  23
   4 -13   4 2471.19 297.003  38
   4 -13   4 1707.64 269.850  19
   4 -13   4 1918.74 211.523  36
   4 -13   4 2685.87 280.979  30
  -4 -13  -5 316.204 69.6157  23
   4 -13   5 497.815 136.684  38
   4 -13   5 548.462 111.644  30
  -4 -12   9 836.764 124.231  25
   4 -12  -9 791.328 111.422  28
   4 -12  -8 987.668 173.721  26
  -4 -12   8 986.170 240.310  25
   4 -12  -8 1096.30 238.688  28
   4 -12  -7 2362.86 296.853  26
   4 -12  -7 2643.68 493.835  21
  -4 -12   7 2345.91 351.782  31
  -4 -12   7 2488.20 339.152  25
   4 -12  -6 26442.9 1058.76  18
  -4 -12   6 24114.9 984.344  25
   4 -12  -6 24708.2 1273.81  21
  -4 -12   6 22999.6 991.723  31
  -4 -12   5 3972.87 395.504  25
   4 -12  -5 3726.04 567.100  21
   4 -12  -5 4645.64 492.834  18
  -4 -12   5 3226.48 366.220  31
   4 -12  -5 4439.87 444.303  28
   4 -12  -4 34055.4 1198.30  26
  -4 -12   4 30606.6 1121.61  25
   4 -12  -4 33336.1 1432.53  21
   4 -12  -4 32182.8 1419.25  18
   4 -12  -4 31306.4 1173.17  28
  -4 -12   3 11398.2 571.664  25
   4 -12  -3 11384.4 793.008  21
   4 -12  -3 11645.5 615.928  28
   4 -12  -2 7435.00 498.525  26
  -4 -12   2 6707.24 410.289  25
  -4 -12   2 6607.73 418.504  23
   4 -12  -2 8041.76 665.853  21
  -4 -12   2 6557.34 402.830  32
  -4 -12   2 6143.94 426.396  34
   4 -12  -2 7449.20 463.695  28
   4 -12  -1 22230.7 881.373  26
  -4 -12   1 23184.3 878.242  23
   4 -12  -1 22164.2 1021.06  19
  -4 -12   1 20379.2 779.078  32
   4 -12  -1 20840.1 811.628  28
   4 -12   0 3385.94 370.216  26
   4 -12   0 3370.16 459.285  19
   4 -12   0 3440.30 386.740  30
   4 -12   0 3625.76 316.282  28
   4 -12   1 14199.6 686.016  26
  -4 -12  -1 13791.5 743.127  23
   4 -12   1 14005.4 833.430  19
   4 -12   1 15222.8 752.022  30
   4 -12   2 3698.36 424.010  38
   4 -12   2 3506.66 365.184  36
  -4 -12  -2 3951.84 416.806  33
   4 -12   2 2741.15 440.599  19
   4 -12   2 3350.03 349.213  26
  -4 -12  -3 7519.12 526.253  23
   4 -12   3 6462.98 434.682  36
   4 -12   3 6434.66 556.798  19
  -4 -12  -3 8337.36 535.435  33
   4 -12   3 6831.43 526.239  38
   4 -12   3 7570.35 513.189  30
   4 -12   3 7136.43 423.778  26
  -4 -12  -4 3697.20 325.143  23
   4 -12   4 3800.51 370.792  38
   4 -12   4 2400.96 322.684  19
   4 -12   4 2806.95 249.518  36
  -4 -12  -4 3845.02 355.966  33
   4 -12   4 3541.53 329.014  30
  -4 -12  -5 1220.49 137.300  23
   4 -12   5 1234.85 194.606  38
   4 -12   5 1258.97 157.378  30
  -4 -11   9 415.554 144.178  25
   4 -11  -9 277.935 122.082  28
   4 -11  -8 31.9032 161.927  26
  -4 -11   8 33.6103 227.375  25
   4 -11  -8 93.0599 213.219  28
  -4 -11   7 2854.60 383.953  25
   4 -11  -7 2337.31 499.579  21
  -4 -11   7 2706.95 396.412  31
   4 -11  -6 2326.02 325.116  18
  -4 -11   6 1610.53 332.424  25
   4 -11  -6 2595.64 530.407  21
  -4 -11   6 1514.80 339.699  31
  -4 -11   5 16142.1 762.931  25
   4 -11  -5 16148.7 984.633  21
   4 -11  -5 17350.6 885.479  18
  -4 -11   5 13998.1 726.603  31
   4 -11  -5 16090.5 792.249  28
   4 -11  -4 35118.6 1230.76  28
  -4 -11   4 33269.4 1192.97  25
   4 -11  -4 34590.3 1432.58  21
   4 -11  -4 36324.0 1471.88  18
  -4 -11   3 11918.7 576.453  25
   4 -11  -3 13964.2 814.893  21
   4 -11  -3 12776.0 612.646  28
   4 -11  -2 13827.2 666.013  26
  -4 -11   2 12987.2 589.601  25
  -4 -11   2 13501.2 598.926  32
  -4 -11   2 12343.1 577.048  23
   4 -11  -2 15787.8 866.728  21
  -4 -11   2 11138.0 563.088  34
   4 -11  -2 14074.8 624.149  28
   4 -11  -1 425.160 216.457  26
  -4 -11   1 609.444 213.325  23
   4 -11  -1 252.173 324.735  21
   4 -11  -1 734.347 291.914  19
  -4 -11   1 620.853 254.345  34
  -4 -11   1 225.812 196.661  32
   4 -11  -1 476.927 167.532  28
   4 -11   0 20295.6 820.146  26
  -4 -11   0 21649.5 879.214  23
   4 -11   0 19022.8 932.091  19
  -4 -11   0 17452.6 753.108  34
  -4 -11   0 20401.8 784.365  32
   4 -11   0 18479.5 728.892  28
   4 -11   1 38684.5 1251.83  26
  -4 -11  -1 40992.0 1379.36  23
   4 -11   1 35500.5 1416.45  19
  -4 -11  -1 33241.1 1141.23  34
  -4 -11  -1 40423.1 1306.86  33
   4 -11   2 5794.86 436.879  36
  -4 -11  -2 7019.15 519.465  33
   4 -11   2 5176.89 539.076  19
   4 -11   2 6685.44 507.677  30
   4 -11   2 5989.37 422.408  26
  -4 -11  -3 2185.17 360.046  23
   4 -11   3 1926.88 373.622  38
   4 -11   3 1754.88 374.075  19
   4 -11   3 1973.47 274.454  36
   4 -11   3 2194.87 339.804  30
  -4 -11  -3 2405.80 376.824  33
   4 -11   3 1594.73 239.612  26
  -4 -11  -4 2069.82 282.224  23
   4 -11   4 1559.13 299.802  19
   4 -11   4 1952.61 339.760  38
  -4 -11  -4 2149.33 332.922  33
   4 -11   4 2390.81 292.444  30
  -4 -11  -5 81.5525 112.603  23
  -4 -11  -5 220.730 191.932  33
   4 -11   5-27.0757 124.486  30
   4 -10  -9 356.811 150.631  28
  -4 -10   8 203.180 255.550  25
  -4 -10   8 214.175 275.199  31
   4 -10  -8 310.605 257.043  28
  -4 -10   7 5986.87 511.038  25
   4 -10  -7 6349.39 686.026  21
  -4 -10   7 6413.58 534.007  31
   4 -10  -6 7722.86 735.580  21
   4 -10  -6 9118.90 572.248  18
  -4 -10   6 8481.76 585.096  25
  -4 -10   6 7397.33 569.254  31
   4 -10  -6 9646.41 617.870  28
  -4 -10   5 14004.5 718.212  25
   4 -10  -5 15176.0 930.404  21
  -4 -10   5 12916.6 693.761  31
   4 -10  -5 14027.3 738.438  28
  -4 -10   4 14896.1 709.978  25
   4 -10  -4 15260.6 877.944  21
   4 -10  -4 16244.1 896.082  18
   4 -10  -4 15924.6 731.294  28
  -4 -10   3 5768.72 401.209  25
   4 -10  -3 5725.44 400.530  28
   4 -10  -2 2955.16 315.464  26
  -4 -10   2 2989.97 287.331  25
   4 -10  -2 3019.00 421.791  21
  -4 -10   2 2925.57 330.635  34
   4 -10  -2 3122.07 286.470  28
  -4 -10   2 3746.86 318.105  32
   4 -10  -1 22207.7 838.501  26
  -4 -10   1 19713.9 761.425  25
  -4 -10   1 22443.2 857.031  23
   4 -10  -1 21567.1 1035.03  21
   4 -10  -1 21363.7 933.506  19
  -4 -10   1 19284.0 794.201  34
   4 -10  -1 20341.9 758.195  28
  -4 -10   1 22481.9 823.007  32
   4 -10   0 6220.54 416.378  26
  -4 -10   0 5938.38 453.671  23
  -4 -10   0 5256.93 404.477  33
   4 -10   0 5549.12 494.093  19
  -4 -10   0 5597.68 409.007  34
  -4 -10   0 5882.74 407.324  32
   4 -10   1 19150.0 783.536  26
  -4 -10  -1 18885.5 883.580  23
  -4 -10  -1 19833.4 837.810  33
  -4 -10  -1 16101.9 715.744  34
   4 -10   1 16879.1 901.646  19
   4 -10   2 130108. 3864.28  19
   4 -10   2 153926. 3693.17  36
  -4 -10  -2 122584. 3478.48  34
  -4 -10  -2 165324. 3798.39  33
   4 -10   2 160764. 3786.63  30
   4 -10   2 151206. 3662.62  26
  -4 -10  -3 3564.03 414.060  23
   4 -10   3 3074.78 406.766  38
   4 -10   3 2464.00 396.116  19
   4 -10   3 2878.78 304.941  36
  -4 -10  -3 3483.60 410.324  33
   4 -10   3 3098.89 368.033  30
   4 -10   3 2442.35 266.854  26
  -4 -10  -4 4390.09 408.136  33
   4 -10   4 3932.58 352.097  30
  -4 -10  -5 411.330 141.921  23
  -4 -10  -5 475.030 211.759  33
   4 -10   5 515.755 150.718  30
   4  -9  -9 679.782 184.753  28
   4  -9  -8 654.941 169.206   3
  -4  -9   8 637.181 166.427   5
  -4  -9   8 618.485 313.684  31
   4  -9  -8 611.621 271.606  28
  -4  -9   7 3072.08 401.996  25
   4  -9  -7 2258.71 279.189   3
  -4  -9   7 2585.02 271.810   5
   4  -9  -7 2763.72 519.400  21
  -4  -9   7 2688.89 429.481  31
  -4  -9   6 10591.0 644.064  25
   4  -9  -6 11876.0 849.808  21
  -4  -9   6 8963.97 482.514   5
  -4  -9   6 9527.44 645.584  31
   4  -9  -6 12132.0 691.618  28
  -4  -9   5 13841.3 701.167  25
  -4  -9   5 12535.5 688.212  22
   4  -9  -5 14791.9 894.602  21
   4  -9  -5 15521.8 780.512  18
  -4  -9   5 12731.9 688.066  31
   4  -9  -5 15323.7 749.130  28
  -4  -9   4 57653.7 1724.84  25
   4  -9  -4 56821.9 1941.96  21
   4  -9  -4 61882.1 1974.06  18
   4  -9  -4 55289.4 1721.14  28
  -4  -9   3 31418.3 1053.32  25
  -4  -9   3 31007.7 1010.65  32
   4  -9  -3 31015.4 1037.97  28
   4  -9  -2 42177.7 1283.44  26
  -4  -9   2 39456.0 1238.55  25
  -4  -9   2 41716.6 1259.93  32
   4  -9  -2 40322.7 1223.08  28
   4  -9  -1 3493.32 309.888  26
  -4  -9   1 3398.84 287.879  25
  -4  -9   1 3657.25 334.592  23
   4  -9  -1 3780.69 448.489  21
   4  -9  -1 3685.73 378.783  19
  -4  -9   1 3378.14 334.543  34
  -4  -9   1 3445.86 324.078  32
   4  -9  -1 3157.22 256.186  28
   4  -9   0 6897.22 420.750  26
  -4  -9   0 6650.38 398.847  25
  -4  -9   0 7524.42 492.781  23
   4  -9   0 6187.55 485.884  19
  -4  -9   0 6880.75 430.316  33
  -4  -9   0 7424.68 454.545  32
  -4  -9   0 6852.59 451.231  34
   4  -9   1 4239.50 344.048  26
  -4  -9  -1 4404.39 419.306  23
   4  -9   1 3846.71 437.279  19
  -4  -9  -1 4023.05 355.782  34
  -4  -9  -1 4383.63 383.045  33
  -4  -9  -1 4847.60 382.002  32
   4  -9   1 4906.53 403.362  30
  -4  -9  -2 123072. 3147.58  20
   4  -9   2 108555. 3357.06  19
   4  -9   2 132464. 3200.34  36
  -4  -9  -2 104222. 3023.36  34
  -4  -9  -2 138440. 3302.84  33
  -4  -9  -2 125433. 3075.10   4
   4  -9   2 140174. 3302.67  30
  -4  -9  -2 119533. 3170.94   3
   4  -9   2 129385. 3165.53  26
  -4  -9  -3 625.244 284.919  23
  -4  -9  -3 506.979 199.022   3
  -4  -9  -3 309.993 281.114  33
   4  -9   3 406.898 287.741  19
   4  -9   3 862.834 271.442  30
  -4  -9  -4 1762.76 297.002  23
  -4  -9  -4 1634.82 237.061  20
   4  -9   4 1835.62 248.032   5
  -4  -9  -4 2080.82 354.108  33
   4  -9   4 2077.49 290.761  30
  -4  -9  -4 1716.44 245.838   3
  -4  -9  -5 799.745 171.526  23
   4  -9   5 970.306 232.292  38
  -4  -9  -5 1181.91 252.552  33
   4  -9   5 791.635 163.181  30
   4  -9   6 283.224 107.307  38
  -4  -9  -6 500.680 124.677  33
   4  -8  -9 768.535 124.346   3
  -4  -8   9 1449.09 239.836  25
   4  -8  -9 1221.12 227.071  28
   4  -8  -8 6277.37 393.822   3
  -4  -8   8 6008.47 376.455   5
   4  -8  -8 6934.15 526.279  28
  -4  -8   7 2717.80 422.933  25
   4  -8  -7 3518.49 539.831  21
  -4  -8   7 2621.93 295.880   5
  -4  -8   7 2633.93 441.078  31
  -4  -8   6 5844.58 490.055  25
  -4  -8   6 5939.68 530.561  22
   4  -8  -6 6293.50 647.651  21
  -4  -8   6 5149.28 378.004   5
  -4  -8   6 5528.57 513.125  31
   4  -8  -6 5751.34 498.688  28
  -4  -8   5 33314.9 1162.00  25
  -4  -8   5 31398.5 1169.99  22
   4  -8  -5 32957.1 1361.68  21
  -4  -8   5 30470.5 1013.08   5
  -4  -8   5 30585.8 1182.55  20
   4  -8  -5 32627.8 1171.82  28
  -4  -8   4 86267.1 2311.79  25
  -4  -8   4 81583.4 2274.85  22
   4  -8  -4 85282.7 2515.84  21
   4  -8  -4 88107.7 2326.43  28
  -4  -8   3 1698.09 246.406  25
   4  -8  -3 1688.36 319.989  21
  -4  -8   3 1465.50 238.352  34
  -4  -8   3 1916.46 247.046  32
   4  -8  -3 1656.55 226.599  28
   4  -8  -2 11824.0 557.912  26
  -4  -8   2 12311.7 551.123  25
   4  -8  -2 13563.4 719.504  21
  -4  -8   2 11072.6 551.854  34
  -4  -8   2 12846.4 572.558  32
   4  -8  -2 11275.6 509.376  28
   4  -8  -1 15664.1 657.184  26
  -4  -8   1 16023.3 660.168  25
  -4  -8   1 17925.8 722.773  23
   4  -8  -1 17686.9 867.143  21
  -4  -8   1 16950.8 692.618  34
  -4  -8   1 18965.1 725.777  32
   4  -8   0 7137.35 409.618  26
  -4  -8   0 7074.92 412.361  25
  -4  -8   0 8580.10 517.912  23
  -4  -8   0 7120.49 397.291  20
  -4  -8   0 7456.91 452.814  34
  -4  -8   0 7475.48 430.556  33
  -4  -8   0 8361.95 470.369  32
   4  -8   1 75336.1 2018.32  26
  -4  -8  -1 86452.7 2246.44  23
  -4  -8  -1 69605.9 2007.40  20
  -4  -8  -1 72193.7 2024.15  34
  -4  -8  -1 77026.3 2088.64  33
  -4  -8  -1 74218.0 1987.48   4
   4  -8   1 81062.0 2128.36  30
  -4  -8  -1 68995.7 2034.61   3
  -4  -8  -1 69988.8 2031.07  32
  -4  -8  -2 49477.0 1465.19  33
   4  -8   2 38732.8 1494.03  19
  -4  -8  -2 35561.0 1239.49  34
  -4  -8  -2 47622.8 1320.77   4
   4  -8   2 47800.0 1443.65  30
  -4  -8  -2 42693.9 1380.63   3
   4  -8   2 45606.4 1328.16  26
  -4  -8  -3 11567.9 646.851  33
   4  -8   3 11103.2 598.042  30
  -4  -8  -3 10182.2 566.864   3
  -4  -8  -4 8031.90 531.692  23
   4  -8   4 8119.78 549.217  38
   4  -8   4 6738.71 450.376   5
  -4  -8  -4 8634.43 553.939  33
   4  -8   4 7697.99 460.338  30
  -4  -8  -4 7805.99 479.425   3
  -4  -8  -5-24.7785 143.112  23
  -4  -8  -5-6.67132 150.582   3
  -4  -8  -5 18.0788 145.689  20
   4  -8   5 5.79743 145.094   5
  -4  -8  -5 38.4634 233.851  33
   4  -8   5-7.89592 208.450  38
   4  -8   5 5.12792 123.737  30
   4  -8   6 1195.25 150.718  38
  -4  -8  -6 1543.94 179.523  33
  -4  -7   9 1871.24 261.989  25
  -4  -7   9 1734.73 198.885   5
   4  -7  -9 1871.20 205.079   3
   4  -7  -9 1905.17 278.561  28
  -4  -7   8 1909.80 352.408  25
  -4  -7   8 1213.19 423.747  14
   4  -7  -8 1915.53 275.401   3
  -4  -7   8 2191.32 279.373   5
  -4  -7   7 5520.51 610.427  14
  -4  -7   7 6397.68 581.116  22
   4  -7  -7 6120.42 648.227  21
  -4  -7   7 6487.58 437.839   5
  -4  -7   7 5733.99 548.753  31
  -4  -7   6 8737.66 675.792  14
  -4  -7   6 10456.9 629.166  25
  -4  -7   6 9928.08 651.534  22
   4  -7  -6 11266.1 810.147  21
  -4  -7   6 9973.06 523.345   5
  -4  -7   6 10927.4 669.453  31
   4  -7  -6 11830.7 674.912  28
  -4  -7   5 44958.2 1437.33  25
  -4  -7   5 45007.6 1475.64  22
   4  -7  -5 43354.6 1618.46  21
  -4  -7   5 41909.2 1306.03   5
  -4  -7   5 43582.8 1448.79  20
  -4  -7   5 42056.4 1432.46  31
   4  -7  -5 44465.2 1450.73  28
  -4  -7   4 8963.28 508.775  25
  -4  -7   4 8848.54 448.643   4
  -4  -7   4 8378.77 491.802  22
   4  -7  -4 8731.54 595.383  21
  -4  -7   4 8469.57 426.591   5
  -4  -7   4 8163.58 472.572  20
  -4  -7   4 9537.65 485.950  32
  -4  -7   4 8559.93 487.785  31
   4  -7  -4 9333.47 510.921  28
  -4  -7   3 11502.9 549.405  25
  -4  -7   3 11163.8 489.782   4
   4  -7  -3 12354.2 672.944  21
  -4  -7   3 10208.3 496.271  34
  -4  -7   3 12054.5 543.022  32
   4  -7  -3 10734.2 516.166  28
  -4  -7   2 23543.2 776.888   4
  -4  -7   2 24279.0 829.210  25
   4  -7  -2 24518.9 992.572  21
  -4  -7   2 25591.0 853.930  32
  -4  -7   2 23085.8 775.273  20
  -4  -7   2 24276.4 833.343  34
   4  -7  -2 21452.4 801.216   1
   4  -7  -1 41879.0 1246.23  26
  -4  -7   1 42015.6 1264.14  25
  -4  -7   1 46947.6 1343.79  23
  -4  -7   1 43168.4 1226.20  33
  -4  -7   1 41043.5 1220.40  20
  -4  -7   1 44001.6 1305.95  34
  -4  -7   1 48529.6 1339.65  32
  -4  -7   1 43306.6 1238.48   4
   4  -7   0 6940.10 387.736  26
  -4  -7   0 6920.79 403.001  25
  -4  -7   0 8585.83 506.563  23
  -4  -7   0 6920.07 402.908  20
  -4  -7   0 8574.53 469.486  34
  -4  -7   0 6927.66 405.056  33
  -4  -7   0 7963.89 455.610  32
  -4  -7   0 7898.89 409.642   4
  -4  -7   0 6524.59 406.343   3
   4  -7   1 53332.1 1537.03  26
  -4  -7  -1 61129.8 1778.94  23
  -4  -7  -1 54902.9 1607.71  33
  -4  -7  -1 54453.4 1578.88  34
  -4  -7  -1 53849.4 1551.39   4
  -4  -7  -1 50800.1 1596.55   3
  -4  -7  -1 58291.0 1607.57  27
  -4  -7  -2 68727.6 1897.89  33
  -4  -7  -2 63597.0 1764.93   4
   4  -7   2 70607.2 1887.78  30
  -4  -7  -2 63049.1 1851.66   3
  -4  -7  -3 38299.9 1385.78  23
   4  -7   3 35683.9 1312.34  38
  -4  -7  -3 37248.5 1305.57  33
   4  -7   3 37697.2 1247.41  30
  -4  -7  -3 37153.1 1272.33   3
  -4  -7  -4 2612.25 352.808  23
  -4  -7  -4 2578.65 377.209  33
   4  -7   4 2470.03 372.595  38
   4  -7   4 2659.44 297.362  30
  -4  -7  -4 2570.83 323.528   3
  -4  -7  -5 480.751 183.724   3
   4  -7   5 278.481 220.126  38
  -4  -7  -5 541.931 270.616  33
   4  -7   5 348.407 187.267   5
   4  -7   5 340.982 138.382  30
  -4  -7  -6 230.007 92.2603   3
   4  -7   6 372.500 132.938  38
  -4  -7  -6 436.314 167.105  33
  -4  -6  10 691.304 95.4335  25
   4  -6 -10 586.964 102.702  28
  -4  -6   9 4939.45 324.868   5
   4  -6  -9 4656.36 317.324   3
  -4  -6   9 4074.12 346.602  25
   4  -6  -9 5269.58 404.736  28
  -4  -6   8 7234.06 665.442  14
  -4  -6   8 8742.50 565.040  25
   4  -6  -8 7672.06 496.720   3
  -4  -6   8 8471.61 502.833   5
  -4  -6   7 5232.90 605.790  14
  -4  -6   7 6537.01 528.011  25
  -4  -6   7 6563.58 574.603  22
   4  -6  -7 6340.73 668.438  21
  -4  -6   7 6616.64 463.583   5
  -4  -6   7 6305.94 565.116  31
   4  -6  -7 5647.10 520.758  28
  -4  -6   6 4555.45 511.338  14
  -4  -6   6 6689.27 543.144  22
   4  -6  -6 5613.63 605.411  21
  -4  -6   6 5612.89 406.069   5
  -4  -6   6 5349.34 492.936  31
  -4  -6   6 5037.29 630.863  15
  -4  -6   5 20274.6 848.129  25
  -4  -6   5 21075.1 900.338  22
   4  -6  -5 20378.1 994.521  21
  -4  -6   5 20500.1 775.162   5
  -4  -6   5 17495.7 788.556  12
  -4  -6   5 23352.2 956.709  20
  -4  -6   5 19253.8 857.353  31
  -4  -6   5 21663.1 791.399  32
   4  -6  -5 21426.7 872.589  28
  -4  -6   5 17797.3 1002.60  15
  -4  -6   4 31112.2 1057.64  25
  -4  -6   4 31263.7 1065.53  22
   4  -6  -4 32197.8 1195.18  21
  -4  -6   4 29009.8 954.381   5
  -4  -6   4 28949.1 984.100  12
  -4  -6   4 29398.6 1009.13  20
  -4  -6   4 32274.8 1020.07  32
  -4  -6   4 27311.7 1007.45  31
   4  -6  -4 31044.5 1047.32  28
  -4  -6   3 13114.3 581.660  25
  -4  -6   3 13578.1 579.356  32
  -4  -6   3 13200.8 537.275   4
   4  -6  -3 13821.3 686.517  21
  -4  -6   3 12885.2 514.438   5
  -4  -6   3 12646.9 551.918  20
  -4  -6   3 11430.8 528.551  34
   4  -6  -3 11935.5 539.378  28
  -4  -6   2 3034.42 270.893  25
   4  -6  -2 3252.23 352.127  21
  -4  -6   2 3641.22 273.259  20
  -4  -6   2 3000.75 295.140  34
  -4  -6   2 3295.04 289.808  32
   4  -6  -2 3239.86 275.376   1
   4  -6  -2 3201.49 256.593   2
   4  -6  -1 31138.5 978.524  26
  -4  -6   1 31530.1 1012.86  25
  -4  -6   1 34843.9 1078.95  23
  -4  -6   1 31373.4 987.586  20
   4  -6  -1 26854.4 1004.91  39
  -4  -6   1 35218.4 1057.80  34
   4  -6  -1 30436.3 1075.65   1
   4  -6  -1 29619.9 1029.68   2
  -4  -6   1 34929.3 1066.91  32
  -4  -6   1 33494.8 1002.16   4
   4  -6   0 8989.01 419.376  26
  -4  -6   0 8158.21 444.988  25
  -4  -6   0 9663.54 540.498  23
  -4  -6   0 7866.98 424.795  12
  -4  -6   0 8806.35 450.606  20
  -4  -6   0 8331.35 427.811  37
  -4  -6   0 9663.21 488.226  34
  -4  -6   0 8362.97 428.309  33
  -4  -6   0 9143.38 477.258  32
  -4  -6   0 9554.67 453.329   4
  -4  -6   0 8591.38 462.038   3
  -4  -6  -1 3303.84 298.748  25
  -4  -6  -1 3985.34 386.806  23
  -4  -6  -1 3200.45 321.090  37
  -4  -6  -1 3412.40 319.125  34
  -4  -6  -1 3106.85 306.717  33
  -4  -6  -1 3197.40 280.324   4
  -4  -6  -1 3476.25 327.046   3
  -4  -6  -1 4007.98 333.355  27
  -4  -6  -2 61422.7 1886.57  23
  -4  -6  -2 66697.1 1792.82  37
  -4  -6  -2 51308.5 1629.66  34
  -4  -6  -2 60890.1 1782.06  33
  -4  -6  -2 55373.3 1682.06  32
  -4  -6  -2 58490.1 1692.71   4
  -4  -6  -2 61776.9 1792.17   3
   4  -6   2 61353.5 1750.70  30
  -4  -6  -2 67944.5 1811.41  27
  -4  -6  -3 3391.88 411.356  23
  -4  -6  -3 3520.83 410.460  33
   4  -6   3 2862.33 381.270  38
  -4  -6  -3 3641.48 407.538  37
  -4  -6  -3 2898.10 358.261   3
   4  -6   3 3169.49 338.276  30
  -4  -6  -4 2263.18 338.581  23
   4  -6   4 2369.16 361.425  38
  -4  -6  -4 2346.78 376.536  33
  -4  -6  -4 2171.12 331.218   3
   4  -6   4 2115.78 266.978  30
   4  -6   5 4650.40 375.930  38
   4  -6   5 4811.98 368.367   5
  -4  -6  -5 4866.07 376.100   3
  -4  -6  -5 4964.67 413.922  33
  -4  -6  -6 1835.47 182.194  20
   4  -6   6 1684.61 185.282  38
   4  -6   6 1790.03 182.920   5
  -4  -6  -6 1983.66 219.338  33
  -4  -6  -6 1436.34 176.974   3
  -4  -5  10 1061.96 111.307  25
  -4  -5  10 1147.97 121.992   4
  -4  -5  10 1327.33 123.263   5
   4  -5 -10 1176.02 146.331  28
   4  -5  -9 190.111 175.944   3
  -4  -5   9 62.6341 190.731  25
  -4  -5   9 244.154 290.070  14
  -4  -5   9 188.465 195.070   5
   4  -5  -9 116.780 231.863  28
   4  -5  -8 317.316 243.422   3
  -4  -5   8 362.469 266.136  25
  -4  -5   8 410.277 356.400  14
  -4  -5   8 230.271 235.105   5
  -4  -5   7 5934.77 620.981  14
  -4  -5   7 7563.34 537.138  25
  -4  -5   7 6650.03 573.212  22
   4  -5  -7 6787.69 662.413  21
  -4  -5   7 7043.30 481.732   5
  -4  -5   7 6441.59 575.715  31
  -4  -5   7 6623.02 714.489  15
  -4  -5   6 5283.77 532.128  14
  -4  -5   6 5697.62 464.299  25
  -4  -5   6 5992.63 518.492  22
   4  -5  -6 5561.27 585.952  21
  -4  -5   6 5397.14 411.799   5
  -4  -5   6 5128.58 463.105  12
  -4  -5   6 6207.68 431.116  38
  -4  -5   6 5704.47 498.390  31
  -4  -5   6 5118.87 616.941  15
  -4  -5   5 39427.2 1272.64  32
  -4  -5   5 42435.6 1413.68  22
   4  -5  -5 43626.0 1535.44  21
  -4  -5   5 42290.8 1281.75   5
  -4  -5   5 39339.6 1317.58  12
  -4  -5   5 45204.5 1405.03  20
  -4  -5   5 39510.1 1369.89  31
  -4  -5   5 38772.6 1537.74  15
  -4  -5   4 36443.7 1146.57  25
  -4  -5   4 34902.0 1157.09  22
   4  -5  -4 36847.1 1277.29  21
  -4  -5   4 34185.2 1062.60   5
  -4  -5   4 34181.1 1090.68  12
  -4  -5   4 33420.6 1104.41  20
  -4  -5   4 36335.0 1117.41  32
  -4  -5   4 31555.7 1105.25  31
   4  -5  -4 34626.3 1129.80  28
  -4  -5   4 30025.9 1235.15  15
   4  -5  -3 7903.46 418.268   2
  -4  -5   3 9030.80 462.407  25
  -4  -5   3 8493.49 415.269   4
   4  -5  -3 7958.72 427.625   1
   4  -5  -3 8809.08 523.485  21
  -4  -5   3 8577.06 403.206   5
  -4  -5   3 8167.25 410.627  12
  -4  -5   3 8278.17 429.689  20
  -4  -5   3 9361.65 461.505  32
  -4  -5   3 8006.77 422.884  34
  -4  -5   2 28515.9 927.769  25
   4  -5  -2 26203.9 921.341   7
   4  -5  -2 29661.7 1047.83  21
  -4  -5   2 28302.7 878.015  12
   4  -5  -2 27690.2 946.167   1
  -4  -5   2 27168.9 887.466  20
   4  -5  -2 24331.3 922.107  39
  -4  -5   2 30455.6 936.619  34
  -4  -5   2 30241.3 948.187  32
   4  -5  -2 26755.5 905.817   2
  -4  -5   1 36576.5 1119.53  25
  -4  -5   1 37046.9 1089.53  12
  -4  -5   1 37581.1 1109.62  20
   4  -5  -1 32631.2 1128.31  39
   4  -5  -1 36145.0 1191.76   1
   4  -5  -1 35512.2 1147.82   2
  -4  -5   1 40808.5 1170.29  32
  -4  -5   0 17610.5 687.147  25
  -4  -5   0 21162.8 798.323  23
  -4  -5   0 17321.7 688.213  20
  -4  -5   0 16875.1 643.493  37
  -4  -5   0 19536.6 719.088  34
  -4  -5   0 16508.4 635.867  33
  -4  -5   0 18365.8 683.416   4
  -4  -5   0 16620.8 693.695   3
  -4  -5   0 19801.1 686.446  27
  -4  -5  -1 1345.80 221.004  25
  -4  -5  -1 1070.40 202.363   4
  -4  -5  -1 1011.58 217.511   3
  -4  -5  -1 1360.29 277.979  23
  -4  -5  -1 1111.72 222.560  33
  -4  -5  -1 1258.57 229.776  35
  -4  -5  -1 1261.44 239.518  34
  -4  -5  -1 1402.69 252.520  37
  -4  -5  -1 1000.84 227.884  32
  -4  -5  -1 1353.56 238.229  27
  -4  -5  -2 63729.7 1877.24  23
  -4  -5  -2 53759.0 1642.22  32
  -4  -5  -2 61109.9 1737.02  37
  -4  -5  -2 51848.9 1597.42  34
  -4  -5  -2 59082.6 1747.78  33
  -4  -5  -2 59358.0 1677.92   4
  -4  -5  -2 59045.7 1758.58   3
   4  -5   2 58621.7 1684.99  30
  -4  -5  -2 65133.8 1766.03  27
  -4  -5  -3 10967.8 665.799  23
  -4  -5  -3 9582.91 619.482  33
   4  -5   3 10636.4 625.352  38
  -4  -5  -3 11543.4 636.635  37
  -4  -5  -3 10382.3 609.714   3
   4  -5   3 9616.33 536.401  30
  -4  -5  -4 2428.12 347.113  23
   4  -5   4 2254.50 347.202  38
  -4  -5  -4 2593.48 379.629  33
  -4  -5  -4 2106.12 337.660   3
   4  -5   4 2468.12 261.979  30
   4  -5   5 8602.60 493.041   5
   4  -5   5 8356.29 485.210  38
  -4  -5  -5 9346.40 538.404  33
  -4  -5  -5 8711.17 510.717   3
  -4  -5  -6 1212.66 215.139  33
   4  -5   6 1104.05 165.179  38
   4  -5   6 1063.43 179.903   5
  -4  -5  -6 1081.24 185.051   3
   4  -4 -10 211.172 96.1173   3
  -4  -4  10 80.4094 71.1352  25
  -4  -4  10 98.3209 102.922   5
  -4  -4  10 134.664 107.838   4
   4  -4 -10 115.138 85.0545  17
   4  -4 -10 9.12262 112.767  28
  -4  -4   9 3184.40 438.761  14
  -4  -4   9 3134.78 314.883  25
   4  -4  -9 3614.04 330.195   3
  -4  -4   9 3564.60 322.432   5
   4  -4  -9 4140.42 398.072  28
   4  -4  -8 1205.54 308.060   3
  -4  -4   8 1363.00 306.898  25
  -4  -4   8 779.010 388.932  14
  -4  -4   8 1203.57 376.927  22
  -4  -4   8 805.393 270.591   5
  -4  -4   7 6847.16 645.545  14
  -4  -4   7 6124.31 499.388  25
  -4  -4   7 6352.28 556.457  22
   4  -4  -7 5767.15 622.779  21
  -4  -4   7 6713.99 485.809   5
  -4  -4   7 6243.92 577.047  31
  -4  -4   7 5533.27 705.927  15
  -4  -4   6 14382.7 839.537  14
  -4  -4   6 18149.9 805.416  25
  -4  -4   6 16561.0 853.128  22
   4  -4  -6 17596.7 947.246  21
  -4  -4   6 17072.8 743.962   5
  -4  -4   6 16404.5 800.328  12
  -4  -4   6 15824.8 918.592  20
  -4  -4   6 18654.2 869.023  31
  -4  -4   6 18054.7 1031.64  15
  -4  -4   5 2738.00 305.595  25
  -4  -4   5 2481.01 343.476  22
   4  -4  -5 2385.01 372.906  21
  -4  -4   5 2560.23 278.041   5
  -4  -4   5 2407.98 308.020  12
  -4  -4   5 2709.78 344.865  31
  -4  -4   5 2863.31 428.445  15
  -4  -4   4 11168.1 562.588  22
   4  -4  -4 10791.5 597.038  21
  -4  -4   4 9941.35 499.725  12
  -4  -4   4 10211.6 478.553   5
  -4  -4   4 9760.75 509.850  20
  -4  -4   4 11286.9 525.604  32
  -4  -4   4 9973.54 517.806  31
  -4  -4   4 9858.54 612.228  15
  -4  -4   3 2838.78 267.467  25
   4  -4  -3 2568.16 233.168   2
   4  -4  -3 2327.90 233.502   1
  -4  -4   3 2714.26 240.924   4
   4  -4  -3 2614.93 232.865   7
  -4  -4   3 2753.08 260.335  22
   4  -4  -3 2676.14 291.172  21
  -4  -4   3 2841.13 233.902   5
  -4  -4   3 2827.07 251.899  12
  -4  -4   3 2414.77 251.897  20
  -4  -4   3 2790.46 258.912  32
   4  -4  -2 12258.7 545.558   7
  -4  -4   2 11367.1 482.408  12
  -4  -4   2 11655.6 496.830  20
   4  -4  -2 10541.1 519.809  39
   4  -4  -2 11644.9 533.254   1
   4  -4  -2 11365.8 500.840   2
  -4  -4   1 31699.3 1011.74  25
  -4  -4   1 32059.1 989.325  12
  -4  -4   1 31652.8 1000.89  20
   4  -4  -1 30810.2 1050.67  39
   4  -4  -1 32888.7 1107.49   1
  -4  -4   1 34792.6 1042.34  32
   4  -4  -1 32111.6 1048.51   2
  -4  -4   0 30270.4 1001.74  25
  -4  -4   0 33558.4 1108.29  23
  -4  -4   0 30585.9 1010.58  20
   4  -4   0 28583.6 1042.39  39
  -4  -4   0 33352.9 1025.76  34
  -4  -4   0 31580.7 1032.93   3
  -4  -4   0 32492.6 1011.55   4
  -4  -4  -1 8300.78 455.283  25
  -4  -4  -1 8262.15 522.953  23
  -4  -4  -1 8122.62 459.028  37
  -4  -4  -1 7749.44 420.175  35
  -4  -4  -1 7699.45 433.940  34
  -4  -4  -1 7199.00 423.719  33
  -4  -4  -1 6957.45 431.678  32
  -4  -4  -1 7555.98 454.816   3
  -4  -4  -1 7873.90 432.966   4
  -4  -4  -1 8525.61 467.813  27
  -4  -4  -2 358.234 185.649  34
  -4  -4  -2 451.003 186.676   4
  -4  -4  -2 304.028 199.863   3
  -4  -4  -2 103.374 230.925  23
  -4  -4  -2 426.494 249.135  37
  -4  -4  -2 283.987 222.459  35
  -4  -4  -2 436.398 229.956  33
  -4  -4  -2 640.366 214.813  32
   4  -4   2 490.678 181.158  30
  -4  -4  -2 436.684 255.702  27
  -4  -4  -3 1050.21 287.330   3
  -4  -4  -3 1174.79 318.052  23
   4  -4   3 1907.42 321.350  38
  -4  -4  -3 1511.99 332.584  37
  -4  -4  -3 1730.05 331.251  35
  -4  -4  -3 1239.11 320.749  33
   4  -4   3 1748.36 249.097  30
  -4  -4  -3 1738.91 347.748  27
  -4  -4  -4 729.636 283.634   3
  -4  -4  -4 857.200 279.389  23
   4  -4   4 644.594 255.657  38
  -4  -4  -4 780.217 323.445  33
  -4  -4  -5 39.3965 221.829   3
  -4  -4  -5 105.920 163.598  23
   4  -4   5-8.26431 188.147  38
  -4  -4  -5 9.39378 280.753  33
   4  -4   5-61.8386 247.191   5
  -4  -4  -6 266.846 160.489   3
  -4  -4  -6 327.833 187.017  33
   4  -4   6 204.523 130.837  38
   4  -4   6 171.956 166.069   5
  -4  -3  10 2419.97 195.171   5
   4  -3 -10 2499.70 190.343   3
   4  -3  -9 862.708 237.043   3
  -4  -3   9 932.445 216.626  25
  -4  -3   9 826.601 353.779  14
   4  -3  -9 848.942 286.189  28
  -4  -3   9 1035.22 249.973   5
  -4  -3   8 7426.52 672.952  14
  -4  -3   8 8106.45 537.736  25
  -4  -3   8 8522.18 541.773   5
  -4  -3   8 7279.87 779.784  15
  -4  -3   7 23963.7 1145.59  14
  -4  -3   7 25067.3 994.556  25
  -4  -3   7 22762.1 1074.88  22
  -4  -3   7 22933.6 946.353   5
  -4  -3   7 24100.6 1258.80  15
  -4  -3   6 2984.22 400.865  14
  -4  -3   6 2885.80 344.276  25
  -4  -3   6 3350.83 415.276  22
   4  -3  -6 3319.83 431.842  21
  -4  -3   6 3283.88 343.057   5
  -4  -3   6 2986.26 399.504  12
  -4  -3   6 3473.85 417.083  31
  -4  -3   6 2988.60 491.959  15
  -4  -3   5 67155.1 1859.65  25
  -4  -3   5 66009.8 1927.86  22
   4  -3  -5 62355.9 1982.94  21
  -4  -3   5 61017.1 1830.20  12
  -4  -3   5 63699.6 1794.10   5
  -4  -3   5 62997.2 1863.58  20
  -4  -3   5 60203.8 1874.78  31
  -4  -3   5 64676.2 2052.40  15
  -4  -3   4 6054.09 391.158  25
  -4  -3   4 6831.89 440.362  22
   4  -3  -4 6898.10 460.675  21
  -4  -3   4 6435.50 401.740  12
  -4  -3   4 6329.83 367.414   5
  -4  -3   4 6154.41 403.857  20
  -4  -3   4 6214.17 402.862  31
  -4  -3   4 5957.22 480.809  10
  -4  -3   4 6197.05 474.156  15
   4  -3  -3 38181.1 1235.36   1
   4  -3  -3 39932.8 1224.85   2
   4  -3  -3 43811.4 1245.11   7
  -4  -3   3 45515.4 1273.69  22
  -4  -3   3 42297.1 1222.05  12
  -4  -3   3 41204.1 1222.49  20
  -4  -3   3 39513.0 1308.59  10
   4  -3  -2 48969.3 1485.03   7
  -4  -3   2 54096.1 1435.82  12
  -4  -3   2 54615.3 1447.10  20
   4  -3  -2 46243.6 1463.31  39
   4  -3  -2 51613.4 1510.93   1
   4  -3  -2 51775.7 1451.62   2
  -4  -3   1 8042.23 406.753  12
  -4  -3   1 7907.96 409.014  20
   4  -3  -1 7546.10 436.451  39
   4  -3  -1 8214.34 469.642   1
   4  -3  -1 8501.39 436.623   2
  -4  -3   0 59096.2 1687.74  25
  -4  -3   0 59871.2 1695.63  32
   4  -3   0 56597.2 1743.13  39
  -4  -3   0 60295.7 1720.48   3
  -4  -3   0 61664.5 1689.47   4
  -4  -3  -1 12724.3 588.774  25
  -4  -3  -1 13486.5 563.693  35
  -4  -3  -1 13830.1 582.100  34
  -4  -3  -1 12792.9 579.824  33
  -4  -3  -1 11849.1 570.859  32
  -4  -3  -1 12604.8 604.897   3
  -4  -3  -1 13603.4 589.505   4
  -4  -3  -1 14226.7 599.323  37
  -4  -3  -1 14759.2 618.170  27
  -4  -3  -2 9875.46 502.199  32
  -4  -3  -2 12637.9 666.116  23
  -4  -3  -2 11966.7 605.466  37
  -4  -3  -2 12748.8 588.669  35
  -4  -3  -2 10786.3 511.272  34
  -4  -3  -2 11358.3 594.583  33
  -4  -3  -2 11725.4 611.860   3
  -4  -3  -2 12247.6 574.463   4
   4  -3   2 11320.6 528.953  30
  -4  -3  -2 13007.5 623.681  27
  -4  -3  -3 5110.29 446.020   3
  -4  -3  -3 5018.58 466.353  23
   4  -3   3 3705.84 379.596  38
  -4  -3  -3 4933.42 433.794  35
  -4  -3  -3 4732.31 447.123  37
  -4  -3  -3 4108.49 430.321  33
  -4  -3  -3 5170.60 461.413  27
   4  -3   3 4416.57 342.054  30
  -4  -3  -4 2404.68 349.498  23
   4  -3   4 2244.59 320.300  38
  -4  -3  -4 2752.48 380.276   3
  -4  -3  -4 1937.42 378.538  33
   4  -3   5 22515.4 855.291   5
  -4  -3  -5 22749.2 876.571  33
  -4  -3  -5 22029.1 870.700   3
  -4  -3  -6 714.127 194.725   3
   4  -3   6 501.236 128.990  38
   4  -3   6 568.687 186.509   5
  -4  -3  -6 662.036 209.049  33
   4  -2 -10 503.647 131.282   3
  -4  -2  10 114.955 166.179  14
  -4  -2  10 375.456 139.699   5
   4  -2 -10 353.343 147.162  28
  -4  -2   9 8513.94 456.851  25
   4  -2  -9 9344.66 511.014   3
  -4  -2   9 9969.15 524.340   5
  -4  -2   8 16337.8 982.732  14
  -4  -2   8 18854.5 813.307  25
  -4  -2   8 20092.3 850.610   5
  -4  -2   8 17124.9 1141.70  15
  -4  -2   7 2789.24 355.172  25
  -4  -2   7 2275.89 444.819  14
  -4  -2   7 2643.16 451.572  22
  -4  -2   7 2975.24 368.421   5
  -4  -2   7 2793.45 568.616  15
  -4  -2   6 7886.36 596.522  14
  -4  -2   6 8865.39 533.643  25
  -4  -2   6 9366.64 628.926  22
   4  -2  -6 7633.38 617.089  21
  -4  -2   6 7916.32 570.875  12
  -4  -2   6 8341.67 510.568   5
  -4  -2   6 9751.47 661.785  20
  -4  -2   6 9863.61 744.567  15
  -4  -2   5 20956.0 821.654  25
  -4  -2   5 20805.1 881.140  22
   4  -2  -5 20144.7 922.467  21
  -4  -2   5 21337.3 851.523  12
  -4  -2   5 21546.3 804.365   5
  -4  -2   5 19719.9 854.239  31
  -4  -2   5 22310.4 877.025  20
  -4  -2   5 18608.6 945.833  10
  -4  -2   5 21914.4 995.912  15
  -4  -2   4 38480.8 1175.84  25
   4  -2  -4 37905.4 1141.59   7
  -4  -2   4 40574.8 1244.99  22
   4  -2  -4 36027.5 1227.02  21
  -4  -2   4 38625.5 1176.28  12
  -4  -2   4 37691.7 1137.48   5
  -4  -2   4 39038.8 1182.23  20
  -4  -2   4 35529.6 1274.01  10
  -4  -2   4 38296.2 1289.91  15
   4  -2  -3 1010.24 173.043   1
   4  -2  -3 1282.43 190.167   7
   4  -2  -3 1081.49 166.186   2
  -4  -2   3 1164.15 206.755  22
  -4  -2   3 1246.59 208.295  20
  -4  -2   3 1008.13 186.822  12
   4  -2  -3 1093.45 190.454  39
  -4  -2   3 1068.18 229.164  10
   4  -2  -2 2928.44 278.948   7
  -4  -2   2 2909.67 246.601  12
  -4  -2   2 2739.42 242.856  20
   4  -2  -2 2790.26 264.646  39
   4  -2  -2 3012.15 276.687   1
   4  -2  -2 2763.59 236.239   2
  -4  -2   1 52793.1 1490.68  12
   4  -2  -1 55729.9 1619.70   1
  -4  -2   1 53227.8 1496.35  20
   4  -2  -1 52081.5 1568.01  39
  -4  -2   1 51321.4 1510.88   3
  -4  -2   0 1640.81 212.630  25
   4  -2   0 1910.14 243.664  39
  -4  -2   0 1535.22 219.268  34
  -4  -2   0 1483.02 216.315  32
  -4  -2   0 1657.55 227.694   3
  -4  -2   0 1693.34 211.067   4
  -4  -2  -1 3794.58 317.441  37
  -4  -2  -1 4304.05 321.195  35
  -4  -2  -1 3439.38 294.082  34
  -4  -2  -1 3476.84 295.295  33
  -4  -2  -1 3712.78 314.535  32
  -4  -2  -1 4055.84 339.150   3
  -4  -2  -1 3745.66 308.292   4
  -4  -2  -1 4313.58 346.574  27
  -4  -2  -2 5139.86 360.572  32
  -4  -2  -2 7776.25 484.237  37
  -4  -2  -2 7738.79 463.381  35
  -4  -2  -2 6156.24 376.968  34
  -4  -2  -2 7303.51 472.208  33
  -4  -2  -2 7542.66 479.896   3
  -4  -2  -2 7599.86 453.268   4
   4  -2   2 6300.54 377.831  30
  -4  -2  -2 7952.24 488.879  27
  -4  -2  -3 15725.7 810.252  23
   4  -2   3 15240.4 716.773  38
  -4  -2  -3 16276.7 763.494  37
  -4  -2  -3 16844.2 741.906  35
  -4  -2  -3 13994.0 750.028  33
  -4  -2  -3 15396.9 772.792   3
  -4  -2  -3 15920.5 759.841  27
  -4  -2  -4 12965.2 712.351  23
   4  -2   4 14317.1 673.605  38
  -4  -2  -4 15791.5 741.453  35
  -4  -2  -4 13813.3 746.389  33
  -4  -2  -4 14273.2 748.947   3
   4  -2   5 1834.01 250.145  38
  -4  -2  -5 1492.56 311.675   3
  -4  -2  -5 938.336 213.946  23
  -4  -2  -5 1622.01 332.489  37
   4  -2   5 1837.27 331.262   5
  -4  -2  -5 1953.98 349.586  33
   4  -2   6 2430.02 260.628   5
  -4  -2  -6 2206.11 272.756  33
  -4  -2  -6 2561.94 271.522   3
   4  -1 -10 884.878 151.512   3
  -4  -1  10 575.833 199.380  14
  -4  -1  10 962.918 160.118   5
   4  -1 -10 510.706 157.974  28
  -4  -1   9 3249.31 469.063  14
  -4  -1   9 2859.01 270.108  25
   4  -1  -9 3630.93 358.305   3
  -4  -1   9 3818.41 361.896   5
  -4  -1   8 4559.20 558.528  14
  -4  -1   8 5613.91 429.863  25
  -4  -1   8 5891.05 570.503  22
  -4  -1   8 6457.70 492.505   5
  -4  -1   8 5134.52 694.950  15
  -4  -1   7 13145.6 831.989  14
  -4  -1   7 13823.0 690.833  25
  -4  -1   7 13451.0 700.668   5
  -4  -1   7 14087.7 948.430  15
  -4  -1   6 5543.23 507.848  14
  -4  -1   6 6216.39 438.910  25
  -4  -1   6 5356.86 481.094  22
   4  -1  -6 5639.48 521.089  21
  -4  -1   6 5188.93 467.629  12
  -4  -1   6 6234.11 443.051   5
  -4  -1   6 6428.31 538.284  20
  -4  -1   6 5056.33 505.547  11
  -4  -1   6 5457.69 578.898  15
  -4  -1   5 6043.28 404.774  25
  -4  -1   5 6383.72 474.358  22
   4  -1  -5 5453.11 451.870  21
  -4  -1   5 6077.84 440.705  12
  -4  -1   5 5741.89 390.142   5
  -4  -1   5 7358.44 499.024  20
  -4  -1   5 5226.31 485.262  10
  -4  -1   5 6088.89 506.461  15
  -4  -1   4 2296.55 247.248  25
   4  -1  -4 3008.45 255.870   7
  -4  -1   4 2802.32 305.104  22
  -4  -1   4 2517.69 271.529  12
  -4  -1   4 2531.38 248.866   5
  -4  -1   4 2499.87 279.151  20
  -4  -1   4 2401.84 285.744  39
  -4  -1   4 2620.83 324.560  10
  -4  -1   4 2814.37 315.348  15
   4  -1  -3 5523.72 349.374   7
   4  -1  -3 4899.29 309.349   2
  -4  -1   3 5172.28 328.459  12
  -4  -1   3 5279.32 327.219  20
   4  -1  -3 4330.26 309.360  39
  -4  -1   3 4981.60 359.580  10
   4  -1  -3 4368.91 316.160   1
   4  -1  -2 38379.7 1045.88   2
   4  -1  -2 36878.8 1106.01   7
  -4  -1   2 34799.3 1008.27  12
  -4  -1   2 32941.5 991.563  20
   4  -1  -2 37308.7 1104.91   1
  -4  -1   1 70312.6 1899.63  12
   4  -1  -1 70174.8 2005.93   1
  -4  -1   1 71040.7 1904.36  20
   4  -1  -1 73036.3 1991.65  39
   4  -1  -1 77146.1 1962.06   2
  -4  -1   1 73953.4 2041.32   9
  -4  -1   1 68106.3 1916.90   3
  -4  -1   0 71450.4 1921.90  25
   4  -1   0 76241.2 2031.66   2
  -4  -1   0 72858.4 1897.09  17
   4  -1   0 72254.6 2032.66  39
  -4  -1   0 71290.0 1944.84   3
  -4  -1   0 73225.7 1921.98   4
  -4  -1  -1 45018.4 1306.39  37
  -4  -1  -1 48373.9 1297.92  35
  -4  -1  -1 45272.7 1281.55  34
  -4  -1  -1 44527.1 1283.18  17
  -4  -1  -1 45664.1 1362.65   3
  -4  -1  -1 43808.9 1305.48   4
  -4  -1  -1 46837.0 1337.24  27
  -4  -1  -2 15698.2 641.355  34
  -4  -1  -2 21069.0 790.837  37
  -4  -1  -2 20203.1 763.198  35
  -4  -1  -2 18035.8 708.772  17
  -4  -1  -2 18661.1 766.313  33
  -4  -1  -2 13772.0 627.003  32
  -4  -1  -2 19077.5 799.242   3
  -4  -1  -2 18541.6 743.091   4
  -4  -1  -2 19470.6 780.247  27
  -4  -1  -3 11592.8 678.868  23
   4  -1   3 9763.98 549.165  38
  -4  -1  -3 11443.8 620.145  35
  -4  -1  -3 10505.8 545.721  17
  -4  -1  -3 10663.5 635.826  33
  -4  -1  -3 11215.0 652.436   3
  -4  -1  -3 11842.1 642.677  37
  -4  -1  -4 10517.3 592.644  13
  -4  -1  -4 10329.2 627.856  23
   4  -1   4 10360.1 553.101  38
  -4  -1  -4 12430.8 655.821  35
  -4  -1  -4 11233.2 670.655  33
  -4  -1  -4 11585.2 676.273   3
  -4  -1  -5 15666.0 684.840  13
   4  -1   5 15600.1 625.363  38
  -4  -1  -5 18125.9 755.059  37
  -4  -1  -5 18438.7 787.619  33
  -4  -1  -5 18715.2 806.084   3
  -4  -1  -6 389.605 195.746   3
  -4  -1  -6 268.038 207.922  33
   4  -1   6 367.741 193.449   5
  -4   0  10 113.654 186.957  14
   4   0 -10 109.791 143.329  28
  -4   0   9 1878.51 213.300  25
  -4   0   9 2082.53 410.994  14
  -4   0   8 6675.56 646.130  14
  -4   0   8 6511.55 437.210  25
  -4   0   8 5787.40 547.455  22
  -4   0   7 6697.74 597.558  14
  -4   0   7 6675.94 470.236  25
  -4   0   7 5427.44 590.707  11
  -4   0   7 7452.80 718.599  15
  -4   0   6 4107.60 436.459  14
  -4   0   6 4042.34 357.670  25
  -4   0   6 4998.83 478.329  22
  -4   0   6 4751.16 448.737  12
  -4   0   6 3531.60 468.561  20
  -4   0   6 3895.58 455.716  11
  -4   0   6 4633.61 500.000  15
  -4   0   5 2025.19 258.217  25
  -4   0   5 1944.90 303.468  22
  -4   0   5 2562.22 320.865  12
  -4   0   5 2768.98 375.824  20
  -4   0   5 1977.59 300.025  11
  -4   0   5 2128.50 353.541  10
  -4   0   5 2280.50 352.906  15
  -4   0   4 4111.03 304.010  25
   4   0  -4 4065.29 300.071   7
  -4   0   4 4319.92 363.849  22
  -4   0   4 3850.66 324.711  12
  -4   0   4 3549.33 286.800   5
  -4   0   4 3753.77 333.206  20
  -4   0   4 4564.20 391.738  10
  -4   0   4 4125.95 358.675  15
   4   0  -3 26139.4 958.783   8
   4   0  -3 40870.3 1139.92   7
  -4   0   3 37231.2 1066.21  12
   4   0  -3 31555.0 1046.51  39
  -4   0   3 32593.1 1135.87  39
  -4   0   3 39470.0 1141.18  10
   4   0  -3 33728.2 1076.08   1
   4   0  -2 1866.68 162.737   8
   4   0  -2 2545.70 270.927   7
   4   0  -2 1991.87 234.904  39
  -4   0   2 2157.08 230.568  12
  -4   0   2 2243.87 230.211  20
   4   0  -2 2439.08 259.301   1
  -4   0   1 216667. 5023.59  12
   4   0  -1 234040. 5177.67   1
  -4   0   1 198654. 4991.37  20
   4   0  -1 226765. 5131.46  39
  -4   0   1 182985. 5071.60   9
   4   0   0 28168.4 1026.02  39
  -4   0   0 29764.0 932.821  17
  -4   0  -1 24469.6 862.868  37
  -4   0  -1 26402.9 856.499  35
  -4   0  -1 24042.6 825.453  34
  -4   0  -1 25566.2 861.959  17
  -4   0  -1 25694.4 884.435  27
  -4   0  -2 43487.6 1284.71  37
  -4   0  -2 43864.9 1269.79  35
  -4   0  -2 40170.2 1271.86  33
  -4   0  -2 40538.6 1238.43  17
  -4   0  -2 42762.1 1305.00  27
  -4   0  -3 3880.12 373.006  13
   4   0   3 3452.59 324.484  38
  -4   0  -3 4277.32 419.187  37
  -4   0  -3 4806.58 431.873  35
  -4   0  -3 3768.50 405.997  33
  -4   0  -3 3441.18 337.099  17
  -4   0  -4 21405.7 909.107  13
  -4   0  -4 23283.7 951.982  23
   4   0   4 19717.0 809.238  38
  -4   0  -4 24364.3 943.113  35
  -4   0  -4 21606.8 853.256  17
  -4   0  -4 21231.7 968.384  33
  -4   0  -4 24734.5 961.888  27
  -4   0  -5 4653.92 393.184  13
  -4   0  -5 3163.95 298.295  23
   4   0   5 4138.44 294.597  38
  -4   0  -5 5721.14 446.898  37
  -4   0  -5 5545.49 469.543  33
  -4   0  -6 132.571 198.374  33
   4   1 -10 865.829 149.038   3
  -4   1  10 607.384 210.885  14
   4   1 -10 969.875 163.494  17
   4   1 -10 676.761 168.841  28
  -4   1   9 3064.05 446.525  14
  -4   1   8 4713.54 563.024  14
  -4   1   8 4367.29 349.612  25
  -4   1   8 4791.95 506.502  22
  -4   1   7 12433.9 774.441  14
  -4   1   7 12235.2 607.547  25
  -4   1   7 12573.6 756.692  22
  -4   1   7 13903.6 910.447  15
  -4   1   6 5240.89 483.473  14
  -4   1   6 5929.23 406.981  25
  -4   1   6 6244.64 513.355  12
  -4   1   6 5272.14 519.997  11
  -4   1   6 6811.55 593.276  15
  -4   1   5 6413.44 398.507  25
  -4   1   5 6047.24 465.691  22
  -4   1   5 6508.81 458.442  12
  -4   1   5 6188.56 464.266  11
  -4   1   5 6196.93 500.314  10
  -4   1   5 6252.14 492.658  15
  -4   1   4 2657.70 247.533  25
  -4   1   4 3108.93 300.194  12
  -4   1   4 2642.71 301.013  16
  -4   1   4 2826.22 316.942  10
  -4   1   4 2534.74 287.764  15
   4   1  -3 3770.71 284.219   8
   4   1  -3 5755.43 361.632   7
  -4   1   3 4308.92 364.403  39
   4   1  -3 5233.67 320.456   2
  -4   1   3 4832.78 322.191  12
   4   1  -3 4698.14 318.584  39
  -4   1   3 5315.29 361.732  10
   4   1  -3 5044.40 337.943   1
   4   1  -2 32582.1 982.030   8
   4   1  -2 37291.7 1151.07   7
  -4   1   2 36420.1 1051.35  12
   4   1  -2 35646.9 1102.94  39
  -4   1   2 33516.4 1058.36  17
   4   1  -2 34436.1 1041.44   2
  -4   1   1 68686.7 1802.99  12
  -4   1   1 70583.1 1823.29  17
   4   1  -1 70379.1 1832.99   2
  -4   1   1 61251.0 1858.84   9
  -4   1   1 61178.9 1788.03   3
  -4   1   0 69963.3 1867.04  25
   4   1   0 65013.6 1874.65   6
   4   1   0 70010.6 1948.85   2
  -4   1   0 73548.2 1888.06  17
   4   1   0 71629.4 2017.56  39
  -4   1   0 68877.0 1857.64   4
  -4   1  -1 44270.7 1244.53  34
  -4   1  -1 45066.6 1298.21  17
  -4   1  -1 45669.9 1298.66  37
  -4   1  -1 45884.8 1277.22  35
  -4   1  -1 45654.1 1314.41  27
  -4   1  -2 17744.3 752.112  13
  -4   1  -2 20984.3 796.260  37
  -4   1  -2 20848.1 775.000  35
  -4   1  -2 19647.0 763.828  17
  -4   1  -2 18363.9 759.783  33
  -4   1  -3 9911.97 584.962  13
   4   1   3 9109.77 498.362  38
  -4   1  -3 10821.0 622.176  37
  -4   1  -3 12336.2 625.579  35
  -4   1  -3 11345.5 588.863  17
  -4   1  -3 9660.99 608.387  33
  -4   1  -3 11151.4 620.727  27
  -4   1  -4 10179.0 615.638  13
  -4   1  -4 10695.3 623.498  23
   4   1   4 9494.58 494.357  38
  -4   1  -4 12481.5 656.598  35
  -4   1  -4 10930.3 581.883  17
  -4   1  -4 10250.8 640.624  33
  -4   1  -4 10357.7 618.036  27
  -4   1  -5 17075.9 734.226  13
  -4   1  -5 16980.8 716.488  37
  -4   1  -5 15281.3 640.699  17
  -4   1  -5 18239.5 777.666  33
  -4   1  -6 298.923 167.814  13
  -4   1  -6 53.1127 197.981  33
   4   2 -10 270.822 119.975   3
  -4   2  10 132.071 180.832  14
  -4   2  10 382.445 134.318   5
   4   2 -10 397.429 144.840  17
  -4   2   9 8101.86 619.332  14
  -4   2   9 7320.39 502.633  22
   4   2  -9 8774.45 497.063   3
  -4   2   9 9545.49 518.207   5
  -4   2   8 18348.6 976.861  14
  -4   2   8 20064.5 847.419   5
  -4   2   7 3020.34 452.027  14
  -4   2   7 2414.52 282.313  25
  -4   2   7 2566.39 405.631  22
  -4   2   7 2635.66 358.308   5
  -4   2   7 2350.97 475.207  11
  -4   2   7 2173.65 447.044  10
  -4   2   7 2463.62 524.669  15
  -4   2   6 8327.54 575.898  14
  -4   2   6 7644.42 452.670  25
  -4   2   6 8626.08 515.219   5
  -4   2   6 7591.89 570.301  20
  -4   2   6 7928.57 609.695  11
  -4   2   6 7483.95 613.296  10
  -4   2   6 8495.48 659.251  15
  -4   2   5 20583.1 762.369  25
  -4   2   5 20612.9 886.420  22
  -4   2   5 19789.0 777.646   5
  -4   2   5 22026.5 859.741  20
  -4   2   5 20575.4 875.942  11
  -4   2   5 18390.1 905.225  16
  -4   2   5 21076.0 930.161  10
  -4   2   5 21212.8 913.157  15
  -4   2   4 36121.5 1147.39   5
  -4   2   4 38838.4 1191.13  20
  -4   2   4 38642.6 1217.56  11
  -4   2   4 35280.1 1270.01  16
  -4   2   4 41167.2 1298.54  10
  -4   2   4 39455.0 1256.72  15
   4   2  -3 1170.06 183.723   1
   4   2  -3 886.477 171.425   8
   4   2  -3 1210.02 202.313   7
   4   2  -3 1355.47 171.573   2
   4   2  -3 1220.88 177.481  39
  -4   2   3 1338.24 242.573  39
  -4   2   3 1125.57 200.262  20
  -4   2   3 1170.26 220.318  10
   4   2  -2 2086.64 207.192   8
   4   2  -2 3152.40 299.914   7
  -4   2   2 2402.83 231.624  20
   4   2  -2 2764.55 254.028  39
   4   2  -2 2766.38 268.972   1
  -4   2   2 2890.67 275.026  17
  -4   2   2 2455.19 245.840   9
   4   2  -2 2711.83 226.041   2
  -4   2   1 52713.7 1543.56   3
   4   2  -1 55687.3 1508.40   8
   4   2  -1 56339.7 1639.58  39
   4   2  -1 60372.6 1670.98   1
  -4   2   1 54782.6 1529.81  20
  -4   2   1 55812.2 1565.35  17
   4   2  -1 61423.5 1603.62   2
  -4   2   1 47019.6 1573.39   9
  -4   2   0 2008.36 227.726  25
  -4   2   0 2141.69 251.114  17
  -4   2   0 1919.57 220.264  29
  -4   2   0 1852.70 239.449   3
  -4   2   0 1914.94 223.823   4
  -4   2   0 1850.88 259.330   9
  -4   2  -1 4365.80 342.820  13
  -4   2  -1 4949.97 361.650  17
  -4   2  -1 4623.20 368.583  37
  -4   2  -1 4610.11 352.382  35
  -4   2  -1 3512.71 272.310  32
  -4   2  -1 4591.77 323.155  34
  -4   2  -1 4449.82 351.501   3
  -4   2  -1 4554.28 336.963   4
  -4   2  -2 6988.57 472.574  13
  -4   2  -2 8196.54 494.311  35
  -4   2  -2 7714.49 482.316  17
  -4   2  -2 7465.38 486.418  37
  -4   2  -2 6583.91 451.661  33
  -4   2  -2 7699.65 490.996   3
  -4   2  -2 7779.88 460.267   4
  -4   2  -3 14510.4 742.426  13
  -4   2  -3 16582.4 748.256  35
  -4   2  -3 15387.9 723.213  17
  -4   2  -3 14347.6 734.130  33
  -4   2  -3 15030.9 752.957   3
  -4   2  -3 14764.4 697.843   4
  -4   2  -3 15905.7 749.798  27
  -4   2  -3 15407.5 740.618  37
  -4   2  -4 12974.3 721.962  13
  -4   2  -4 12550.7 689.541  23
  -4   2  -4 14619.4 701.429  17
  -4   2  -4 14234.3 745.714  33
  -4   2  -4 14958.3 764.160   3
  -4   2  -4 14707.2 712.130  27
  -4   2  -5 1938.45 315.888  13
  -4   2  -5 972.179 206.527  23
   4   2   5 1607.33 316.077   5
  -4   2  -5 2024.84 348.425  37
  -4   2  -5 1652.57 260.846  17
  -4   2  -5 2162.98 350.020  33
  -4   2  -5 2089.35 338.407   3
  -4   2  -6 2195.19 260.881  13
  -4   2  -6 2822.22 266.642  37
   4   2   6 2558.61 266.392   5
  -4   2  -6 2336.83 275.360  33
  -4   2  -6 2728.98 277.732   3
  -4   3  10 1509.22 227.016  14
   4   3 -10 2077.58 175.677   3
   4   3  -9 675.408 229.912   3
  -4   3   9 846.900 335.723  14
  -4   3   9 928.034 257.451  22
  -4   3   9 986.911 255.214   5
  -4   3   9 1186.97 413.286  15
  -4   3   8 8199.35 661.083  14
  -4   3   8 8112.54 590.755  22
  -4   3   8 8599.01 552.304   5
  -4   3   7 23901.6 1088.09  14
  -4   3   7 22142.3 1026.65  22
  -4   3   7 23252.9 945.036   5
  -4   3   7 21417.7 1130.95  11
  -4   3   7 19497.2 1073.50  10
  -4   3   7 26032.5 1206.63  15
  -4   3   6 3560.61 405.295  14
  -4   3   6 2686.92 387.456  22
  -4   3   6 3661.73 355.489   5
  -4   3   6 2961.09 401.866  20
  -4   3   6 3768.74 455.820  11
  -4   3   6 2648.48 421.390  10
  -4   3   6 3267.85 448.624  15
  -4   3   5 56882.5 1651.57  25
  -4   3   5 63210.9 1728.09   5
  -4   3   5 59486.3 1759.99  20
  -4   3   5 61764.8 1844.04  11
  -4   3   5 53813.8 1881.31  16
  -4   3   5 63892.5 1888.89  15
  -4   3   4 6417.59 418.263  12
  -4   3   4 6304.13 373.128   5
  -4   3   4 6603.81 413.077  20
  -4   3   4 7004.29 421.644  11
  -4   3   4 6618.26 462.632  16
  -4   3   4 7533.75 471.580  10
  -4   3   4 6251.03 420.013  15
   4   3  -3 41834.1 1169.50   9
   4   3  -3 31950.2 1198.65   8
   4   3  -3 40547.5 1225.22   1
   4   3  -3 40048.1 1193.16   2
   4   3  -3 43367.2 1282.35   7
  -4   3   3 39522.0 1201.19  12
  -4   3   3 37362.4 1307.04  39
  -4   3   3 40685.2 1190.29  20
   4   3  -3 36299.4 1182.91  39
  -4   3   3 43095.7 1266.01  16
  -4   3   3 44744.5 1271.38  10
   4   3  -2 57206.5 1504.35   9
   4   3  -2 49976.5 1460.17   8
   4   3  -2 61489.9 1611.53   7
  -4   3   2 52571.9 1453.53  12
  -4   3   2 50466.1 1424.92  20
  -4   3   2 46804.1 1533.58  39
   4   3  -2 53033.6 1510.65  39
   4   3  -2 58446.8 1548.20   1
  -4   3   2 48262.6 1476.56  17
  -4   3   2 39261.4 1395.33   9
   4   3  -2 55114.0 1463.23   2
   4   3  -1 7970.74 400.524   8
  -4   3   1 7587.54 409.435  12
   4   3  -1 7365.64 407.678   6
  -4   3   1 7266.80 396.271  20
   4   3  -1 9108.09 484.918   1
   4   3  -1 8582.79 483.083  39
  -4   3   1 8198.45 442.465  17
   4   3  -1 8386.75 426.198   2
  -4   3   1 7379.07 451.633   9
  -4   3   0 59965.4 1641.76  25
  -4   3   0 55819.7 1636.07  13
  -4   3   0 62667.1 1684.26  17
  -4   3   0 59674.2 1643.39  29
  -4   3   0 58164.3 1659.32   3
  -4   3   0 55501.5 1613.33   4
  -4   3  -1 12577.7 606.058  13
  -4   3  -1 12996.1 610.638  37
  -4   3  -1 14097.0 603.625  35
  -4   3  -1 13599.5 561.322  34
  -4   3  -1 14327.9 639.248  17
  -4   3  -1 13113.9 614.021   3
  -4   3  -1 12374.4 571.415   4
  -4   3  -2 11799.8 627.450  13
  -4   3  -2 12263.6 624.473  17
  -4   3  -2 11639.7 613.329  37
  -4   3  -2 11819.1 601.743  35
  -4   3  -2 10722.0 574.705  33
  -4   3  -2 11696.0 611.658   3
  -4   3  -2 10726.1 550.572   4
  -4   3  -2 11916.8 606.922  27
  -4   3  -3 4162.40 434.852  13
  -4   3  -3 4627.75 436.460  33
  -4   3  -3 5206.66 447.175  35
  -4   3  -3 4301.96 414.034  17
  -4   3  -3 4804.09 398.115   4
  -4   3  -3 4086.82 413.848   3
  -4   3  -3 5003.75 449.485  27
  -4   3  -4 2536.52 391.425  13
  -4   3  -4 2967.12 374.592  17
  -4   3  -4 2378.19 378.880  33
  -4   3  -4 3123.56 389.256   3
  -4   3  -4 2489.45 366.852  27
  -4   3  -5 21533.1 872.674  13
  -4   3  -5 23541.5 849.682  37
   4   3   5 21899.0 844.772   5
  -4   3  -5 20383.0 796.837  17
  -4   3  -5 21909.7 869.514  33
  -4   3  -5 22467.9 880.189   3
  -4   3  -6 673.176 191.163   3
  -4   3  -6 390.606 194.723  13
  -4   3  -6 677.432 197.137  37
   4   3   6 691.246 189.925   5
  -4   3  -6 416.804 208.106  33
  -4   3  -6 302.994 131.296  17
   4   4 -10 106.306 86.1899   3
  -4   4  10 64.3746 148.745  14
  -4   4  10 154.008 101.792   5
  -4   4   9 3861.06 451.188  14
  -4   4   9 3018.94 321.451  22
   4   4  -9 3653.99 317.428   3
  -4   4   9 4015.52 342.193   5
  -4   4   9 2753.59 449.188  15
   4   4  -8 875.222 279.500   3
  -4   4   8 902.973 373.879  14
  -4   4   8 609.364 285.453  22
  -4   4   8 600.539 400.398  11
  -4   4   8 870.088 289.930   5
  -4   4   7 6242.63 564.922  14
  -4   4   7 6229.22 530.981  22
  -4   4   7 5693.43 462.165   5
  -4   4   7 6088.75 621.685  11
  -4   4   7 5832.47 579.580  10
  -4   4   7 6949.25 662.470  15
  -4   4   6 18283.6 864.440  14
  -4   4   6 17439.6 853.051  22
  -4   4   6 17732.8 765.349   5
  -4   4   6 18112.9 852.898  12
  -4   4   6 17031.9 833.504  20
  -4   4   6 18897.5 940.885  11
  -4   4   6 17173.5 892.716  10
  -4   4   6 17791.5 915.550  15
  -4   4   5 2740.85 320.196  14
  -4   4   5 2473.72 357.673  22
  -4   4   5 2740.07 333.643  12
  -4   4   5 2884.61 295.656   5
  -4   4   5 3095.20 356.785  20
  -4   4   5 3249.28 366.108  11
  -4   4   5 2369.02 375.225  16
  -4   4   5 2575.98 348.053  15
  -4   4   4 11072.9 548.629  12
  -4   4   4 10239.0 488.074   5
  -4   4   4 10381.1 522.013  20
  -4   4   4 11423.9 556.044  11
  -4   4   4 10990.4 607.861  16
  -4   4   4 11410.0 591.359  10
  -4   4   4 10514.8 554.201  15
   4   4  -3 2708.45 243.024   9
   4   4  -3 2131.00 246.537   8
   4   4  -3 2604.19 238.434   1
   4   4  -3 2825.88 234.489   2
  -4   4   3 2529.48 235.129   4
   4   4  -3 2260.71 198.276   6
  -4   4   3 2620.71 230.999   5
  -4   4   3 2749.38 265.170  12
  -4   4   3 2573.76 257.499  20
   4   4  -3 2117.92 215.471  39
  -4   4   3 2791.63 256.058  11
  -4   4   3 3025.31 289.696  16
  -4   4   3 2689.09 282.649  10
   4   4  -2 11888.2 534.190   9
   4   4  -2 11981.2 553.140   8
   4   4  -2 11471.3 501.790   6
  -4   4   2 12134.3 521.209  12
  -4   4   2 11891.1 501.315  20
  -4   4   2 10621.1 572.889  39
   4   4  -2 11928.8 544.904  39
  -4   4   2 11566.2 551.223  17
   4   4  -2 11765.1 538.675   1
  -4   4   2 13184.5 552.716  16
  -4   4   2 14072.0 555.705  10
   4   4  -2 11688.8 502.669   2
  -4   4   2 9165.30 482.820   9
   4   4  -1 32203.4 1073.47   9
   4   4  -1 34796.8 1059.56   8
   4   4  -1 35892.8 1171.14   7
  -4   4   1 30915.7 1052.74  13
   4   4  -1 32701.1 1060.62   6
  -4   4   1 30155.6 1004.69  12
  -4   4   1 31032.6 993.493  20
   4   4  -1 33963.7 1109.16   1
   4   4  -1 34046.3 1130.36  39
  -4   4   1 32878.1 1061.45  17
  -4   4   1 33154.2 1033.83  16
   4   4  -1 34748.5 1063.99   2
  -4   4   1 30971.7 1001.34  29
  -4   4   1 26778.6 1029.06   9
  -4   4   0 31479.1 1050.39  13
  -4   4   0 30472.3 1009.66  20
  -4   4   0 32329.8 1056.38  17
  -4   4   0 31583.1 1002.64  37
  -4   4   0 32474.7 1004.03  35
  -4   4   0 33137.3 1036.19  16
  -4   4   0 30601.4 1018.78  29
  -4   4   0 30833.8 1021.85   3
  -4   4   0 28290.0 975.303   4
  -4   4  -1 7261.43 478.034  13
  -4   4  -1 7174.77 462.979  37
  -4   4  -1 6877.62 437.926  35
  -4   4  -1 8037.59 477.780  17
  -4   4  -1 7625.78 449.175  16
  -4   4  -1 7481.93 454.911   3
  -4   4  -1 7135.44 413.954   4
  -4   4  -2 293.419 189.388   4
  -4   4  -2 355.792 215.766   3
  -4   4  -2 296.623 245.398  13
  -4   4  -2 238.526 265.956  37
  -4   4  -2 287.052 272.153  35
  -4   4  -2 510.474 247.667  17
  -4   4  -2 495.813 236.311  33
  -4   4  -2 313.826 243.413  27
  -4   4  -3 1872.57 284.322   4
  -4   4  -3 1555.06 352.206  13
  -4   4  -3 2182.37 375.651  35
  -4   4  -3 1592.88 325.146  17
  -4   4  -3 1542.27 315.048  33
  -4   4  -3 2091.83 332.816   3
  -4   4  -3 1383.63 331.573  27
  -4   4  -4 419.875 265.778   3
  -4   4  -4 383.565 320.758  13
  -4   4  -4 645.353 283.097  17
  -4   4  -4 572.618 303.038  33
  -4   4  -4 558.765 285.517  27
  -4   4  -5 19.8179 219.754   3
  -4   4  -5-21.0899 150.571  23
  -4   4  -5-75.6310 271.830  13
  -4   4  -5 16.4007 278.241  37
  -4   4  -5 92.2911 218.009  17
  -4   4  -5 194.530 290.337  33
   4   4   5 52.2143 226.076   5
  -4   4  -5-42.7126 158.961  16
  -4   4  -6 190.176 153.071   3
  -4   4  -6 273.126 204.750  13
  -4   4  -6 251.612 174.652  37
   4   4   6 299.618 163.113   5
  -4   4  -6 334.841 196.646  33
  -4   4  -6 228.970 144.488  17
  -4   5  10 1087.51 169.868  14
  -4   5  10 1216.41 126.090   4
  -4   5  10 1378.42 121.811   5
   4   5  -9 215.813 167.429   3
  -4   5   9 233.389 278.953  14
  -4   5   9 187.660 186.953  22
  -4   5   9 320.181 197.826   5
  -4   5   9 190.033 310.377  15
   4   5  -8 407.030 245.421   3
  -4   5   8 162.488 322.443  14
  -4   5   8 82.9304 259.815  22
  -4   5   8 259.475 412.895  11
  -4   5   8 115.748 232.794   5
  -4   5   7 7228.65 597.113  14
  -4   5   7 6732.58 542.026  22
  -4   5   7 6495.66 472.195   5
  -4   5   7 7025.93 654.912  11
  -4   5   7 5213.39 564.248  10
  -4   5   7 6657.26 630.149  15
  -4   5   6 5996.47 506.584  14
  -4   5   6 5797.10 502.493  22
  -4   5   6 5779.82 423.291   5
  -4   5   6 5549.89 496.090  12
  -4   5   6 5295.96 476.463  20
  -4   5   6 6036.88 542.562  11
  -4   5   6 5139.21 519.302  10
  -4   5   6 6015.22 539.707  15
  -4   5   5 46190.8 1449.53  14
  -4   5   5 43433.5 1476.56  22
  -4   5   5 44908.7 1356.22   5
  -4   5   5 45414.8 1440.34  12
  -4   5   5 41957.9 1388.92  20
  -4   5   5 45242.4 1493.90  11
  -4   5   5 43740.5 1577.22  16
  -4   5   5 43358.1 1479.46  15
  -4   5   4 32397.8 1066.11   5
  -4   5   4 35293.5 1148.20  12
  -4   5   4 34628.3 1121.44  20
  -4   5   4 36873.9 1191.88  11
  -4   5   4 35952.7 1256.44  16
  -4   5   4 38097.3 1231.86  10
  -4   5   4 33578.3 1156.29  15
   4   5  -3 7369.60 470.513   8
   4   5  -3 8435.04 415.962   2
  -4   5   3 8844.84 424.288   4
   4   5  -3 7826.18 420.812   1
   4   5  -3 6445.58 359.070   6
  -4   5   3 8257.88 398.799   5
  -4   5   3 8406.85 443.198  12
  -4   5   3 8300.91 425.826  20
   4   5  -3 6404.39 380.048  39
  -4   5   3 9751.75 477.379  11
  -4   5   3 9135.95 497.625  16
  -4   5   3 9409.01 487.146  10
  -4   5   3 8559.97 435.676  15
   4   5  -3 8320.35 437.662   9
   4   5  -2 30174.1 993.542   9
   4   5  -2 27280.5 976.696   8
  -4   5   2 27072.0 995.482  13
   4   5  -2 25429.3 898.590   6
  -4   5   2 29933.3 930.071  12
  -4   5   2 29134.6 899.696  20
  -4   5   2 23188.5 976.306  39
   4   5  -2 26797.7 942.798  39
  -4   5   2 31145.2 954.893  11
  -4   5   2 32799.3 1000.88  16
  -4   5   2 31253.8 958.994  10
  -4   5   2 30090.0 926.296  29
   4   5  -2 26941.9 900.274   2
  -4   5   2 19910.9 846.975   9
   4   5  -2 28895.2 957.666   1
   4   5  -1 40878.0 1233.13   8
  -4   5   1 37655.1 1236.29  13
   4   5  -1 36583.6 1209.52   6
  -4   5   1 38916.5 1172.91  12
  -4   5   1 36050.8 1127.74  20
   4   5  -1 38780.1 1280.38  39
   4   5  -1 40349.8 1260.71   1
  -4   5   1 38573.8 1210.26  17
   4   5  -1 39485.8 1198.17   2
  -4   5   1 42446.6 1226.87  16
  -4   5   1 43591.1 1178.87  10
  -4   5   1 37217.0 1157.37  29
  -4   5   0 19109.0 781.762  13
  -4   5   0 17369.8 700.796  20
  -4   5   0 19549.4 733.654  37
  -4   5   0 20590.7 736.974  35
  -4   5   0 19833.8 775.285  17
  -4   5   0 20450.6 767.700  16
  -4   5   0 17208.6 713.885  29
  -4   5   0 18249.2 700.149   4
  -4   5   0 18879.2 730.278   3
  -4   5  -1 1015.24 202.401   4
  -4   5  -1 1186.35 222.401   3
  -4   5  -1 908.973 265.182  13
  -4   5  -1 1029.00 248.976  37
  -4   5  -1 1159.01 261.372  35
  -4   5  -1 1238.38 255.337  17
  -4   5  -1 1021.75 224.245  16
  -4   5  -2 59691.7 1804.10  13
  -4   5  -2 57576.2 1727.35  37
  -4   5  -2 60534.4 1771.32  17
  -4   5  -2 54626.4 1621.53   4
  -4   5  -2 57813.3 1715.53   3
  -4   5  -2 56172.4 1695.74  35
  -4   5  -2 58627.0 1699.83  27
  -4   5  -3 9242.00 644.965  13
  -4   5  -3 10992.3 622.776  35
  -4   5  -3 10050.0 619.487  17
  -4   5  -3 9890.00 593.593  33
  -4   5  -3 8778.52 497.861   4
  -4   5  -3 9927.63 591.488   3
  -4   5  -3 9347.25 571.312  27
  -4   5  -4 2367.75 413.411  13
  -4   5  -4 2039.12 356.953  17
  -4   5  -4 1931.56 355.299  33
  -4   5  -4 1919.97 320.245   3
  -4   5  -4 2281.62 335.101  27
  -4   5  -5 10147.2 593.404  13
  -4   5  -5 5272.68 357.418  23
  -4   5  -5 9739.28 521.620  37
  -4   5  -5 8410.45 514.197  35
   4   5   5 8898.98 493.222   5
  -4   5  -5 8531.11 508.326  17
  -4   5  -5 8187.46 510.406  33
  -4   5  -5 5790.35 410.316  16
  -4   5  -5 8766.61 509.597   3
  -4   5  -6 1066.14 182.352   3
  -4   5  -6 1081.33 222.260  13
   4   5   6 1052.84 172.453   5
  -4   5  -6 1103.78 208.923  33
  -4   5  -6 1038.25 178.218  17
  -4   5  -6 1032.07 203.838  37
   4   6 -10 830.349 111.093  17
  -4   6   9 4139.97 426.467  14
  -4   6   9 4710.73 318.654   5
   4   6  -9 4211.15 298.683   3
  -4   6   9 3547.37 454.544  15
  -4   6   8 8664.05 641.023  14
  -4   6   8 7404.84 521.417  22
   4   6  -8 7444.06 478.388   3
  -4   6   8 8188.90 488.441   5
  -4   6   8 7457.54 697.294  11
  -4   6   7 7233.20 598.524  14
  -4   6   7 6115.32 518.577  22
  -4   6   7 6134.61 449.034   5
  -4   6   7 5118.20 552.562  10
  -4   6   7 6279.15 640.014  11
  -4   6   7 6674.12 617.268  15
  -4   6   6 6276.40 514.295  14
  -4   6   6 5869.07 503.765  22
  -4   6   6 5872.23 423.967   5
  -4   6   6 5419.83 489.203  12
  -4   6   6 5433.55 480.006  20
  -4   6   6 6311.23 567.269  11
  -4   6   6 5989.49 538.759  10
  -4   6   6 6650.75 567.724  15
  -4   6   5 19397.2 844.885  14
  -4   6   5 19027.0 756.429   5
  -4   6   5 19981.5 843.537  12
  -4   6   5 18663.8 797.797  20
  -4   6   5 21580.3 914.127  11
  -4   6   5 20094.6 973.306  16
  -4   6   5 20179.2 886.215  15
  -4   6   4 28206.7 965.990   5
  -4   6   4 32073.4 1064.37  12
  -4   6   4 30595.2 1018.41  20
  -4   6   4 32268.9 1107.96  11
  -4   6   4 30943.7 1165.72  16
  -4   6   4 30672.0 1116.74  10
  -4   6   4 30927.2 1072.89  15
  -4   6   3 11604.9 513.048   4
  -4   6   3 11868.6 502.267   5
  -4   6   3 13126.0 567.158  12
  -4   6   3 12925.7 545.885  20
  -4   6   3 13845.7 606.872  11
  -4   6   3 13700.1 640.314  16
  -4   6   3 14721.1 633.902  10
  -4   6   3 12652.5 558.509  15
   4   6  -3 12875.7 589.215   9
   4   6  -2 2627.75 271.372   8
  -4   6   2 3147.26 364.246  13
   4   6  -2 2425.71 231.534   6
  -4   6   2 3538.92 284.679  12
  -4   6   2 2973.13 255.910  20
   4   6  -2 2754.66 249.617  39
  -4   6   2 3095.00 284.909  11
  -4   6   2 3023.43 317.868  17
  -4   6   2 3355.30 299.014  10
  -4   6   2 3987.56 329.047  16
   4   6  -2 2774.70 245.071   1
  -4   6   2 2791.14 266.403  29
   4   6  -2 2601.21 219.564   2
   4   6  -2 3213.42 291.825   9
   4   6  -1 33044.3 1106.35   8
  -4   6   1 33350.3 1137.17  13
  -4   6   1 30668.4 1015.06  12
  -4   6   1 31634.9 994.759  20
   4   6  -1 34141.6 1105.72   1
  -4   6   1 32555.1 1012.18  35
   4   6  -1 32458.5 1049.42   2
  -4   6   1 36997.9 1060.79  10
  -4   6   1 37062.1 1121.38  16
  -4   6   1 31417.5 1030.46  29
  -4   6   0 8590.16 533.564  13
  -4   6   0 8367.28 465.579  12
  -4   6   0 9081.33 488.803  29
  -4   6   0 8328.41 452.290  20
  -4   6   0 8794.98 483.786  37
  -4   6   0 9893.78 503.304  35
  -4   6   0 10017.9 533.696  17
  -4   6   0 9841.88 521.404  16
  -4   6   0 8331.86 433.179   4
  -4   6   0 9316.99 476.354   3
  -4   6  -1 3503.67 385.000  13
  -4   6  -1 3392.71 357.463  37
  -4   6  -1 3343.18 353.933  35
  -4   6  -1 3758.00 370.663  17
  -4   6  -1 3346.71 338.800  16
  -4   6  -1 3401.44 294.774   4
  -4   6  -1 3353.29 317.584   3
  -4   6  -2 60534.5 1847.96  13
  -4   6  -2 63462.1 1780.07  37
  -4   6  -2 60143.2 1738.09  35
  -4   6  -2 64591.8 1832.28  17
  -4   6  -2 49299.4 1661.75  33
  -4   6  -2 56838.4 1788.15  16
  -4   6  -2 53264.1 1628.55   4
  -4   6  -2 58354.7 1733.54   3
  -4   6  -2 56527.5 1706.45  27
  -4   6  -3 2414.78 418.910  13
  -4   6  -3 2381.09 281.004   4
  -4   6  -3 3209.55 412.596  35
  -4   6  -3 2567.66 392.509  17
  -4   6  -3 2750.34 368.834  33
  -4   6  -3 3245.69 353.762   3
  -4   6  -3 1951.09 337.471  27
  -4   6  -4 2923.32 438.283  13
  -4   6  -4 2568.69 385.326  17
  -4   6  -4 1864.05 349.624  33
  -4   6  -4 2143.86 335.925  16
  -4   6  -4 2767.88 348.253   3
  -4   6  -4 2288.50 323.995  27
  -4   6  -5 4929.53 453.715  13
  -4   6  -5 4683.78 373.140   3
   4   6   5 4597.87 351.127   5
  -4   6  -5 4844.19 405.819  35
  -4   6  -5 5076.87 415.873  37
  -4   6  -5 4868.64 407.145  17
  -4   6  -5 4847.61 413.985  33
  -4   6  -5 3743.99 343.381  16
  -4   6  -6 1703.38 235.630  13
  -4   6  -6 1806.74 189.696  20
  -4   6  -6 1666.88 204.974  37
   4   6   6 1855.51 176.415   5
  -4   6  -6 1754.67 204.599  17
  -4   6  -6 1484.48 206.261  33
  -4   6  -6 1790.86 184.373   3
  -4   7   9 1724.10 315.021  14
  -4   7   9 1842.68 200.422   5
   4   7  -9 1395.06 180.904   3
   4   7  -9 2117.56 255.046  17
  -4   7   9 1762.92 360.851  15
  -4   7   8 1377.40 369.106  14
  -4   7   8 1603.61 291.438  22
   4   7  -8 1705.98 256.883   3
  -4   7   8 1993.40 280.764   5
  -4   7   8 2017.85 475.671  11
  -4   7   7 6928.19 589.191  14
  -4   7   7 6336.89 511.544  22
  -4   7   7 6784.70 457.798   5
  -4   7   7 7124.53 677.633  11
  -4   7   7 5571.29 551.116  10
  -4   7   7 7001.53 622.216  15
  -4   7   6 11891.7 697.181  14
  -4   7   6 10268.5 648.531  22
  -4   7   6 10822.4 563.417   5
  -4   7   6 10225.7 646.979  12
  -4   7   6 10608.0 636.987  20
  -4   7   6 12791.1 785.218  11
  -4   7   6 9445.33 751.198  16
  -4   7   6 10942.9 706.683  10
  -4   7   6 12215.5 745.570  15
  -4   7   5 40815.3 1278.25   5
  -4   7   5 42188.4 1381.65  12
  -4   7   5 39932.6 1330.51  20
  -4   7   5 45234.6 1492.80  11
  -4   7   5 39009.7 1524.44  16
  -4   7   5 40740.4 1449.05  10
  -4   7   5 42480.8 1450.53  15
  -4   7   5 43071.8 1416.27  14
  -4   7   4 8072.36 426.945   5
  -4   7   4 8672.54 498.353  12
  -4   7   4 8016.95 460.036  20
  -4   7   4 9962.52 560.549  11
  -4   7   4 8934.57 551.038  10
  -4   7   4 9739.43 603.572  16
  -4   7   4 8806.24 514.443  15
  -4   7   3 9988.82 472.486   4
  -4   7   3 11547.5 536.815  12
  -4   7   3 11106.5 508.499  20
  -4   7   3 11499.8 576.736  11
  -4   7   3 12545.1 602.099  10
  -4   7   3 11630.3 612.222  16
  -4   7   3 10714.4 538.143  15
  -4   7   2 27581.6 907.270  10
  -4   7   2 24401.7 980.768  13
   4   7  -2 18699.7 802.491   6
  -4   7   2 24795.7 837.151  12
  -4   7   2 24299.7 799.269  20
   4   7  -2 20669.8 823.055  39
  -4   7   2 26913.6 916.812  11
  -4   7   2 23665.1 891.078  17
  -4   7   2 29278.0 970.642  16
   4   7  -2 21547.4 793.464   2
   4   7  -2 21776.4 812.057   1
  -4   7   1 39161.5 1365.97  13
  -4   7   1 38721.3 1228.90  12
  -4   7   1 40535.3 1204.82  20
  -4   7   1 39652.1 1234.49  37
  -4   7   1 41846.2 1246.77  35
   4   7  -1 41011.5 1263.91   2
  -4   7   1 40777.6 1315.99  17
  -4   7   1 48643.9 1310.77  10
  -4   7   1 46194.4 1364.10  16
  -4   7   1 37406.3 1183.21   4
  -4   7   0 7511.21 519.700  13
  -4   7   0 7023.38 422.622  12
  -4   7   0 6713.56 395.036  20
  -4   7   0 6982.31 464.148  37
  -4   7   0 7201.55 453.512  35
  -4   7   0 7842.22 421.007  10
  -4   7   0 8470.17 505.337  16
  -4   7   0 6724.61 382.029   4
  -4   7   0 6649.37 404.584   3
  -4   7  -1 57802.3 1775.83  13
  -4   7  -1 55719.2 1668.79  37
  -4   7  -1 58069.5 1670.14  35
  -4   7  -1 59678.2 1742.42  17
  -4   7  -1 59285.5 1754.46  16
  -4   7  -1 53359.3 1616.40   3
  -4   7  -2 74031.9 2121.27  13
  -4   7  -2 70776.5 1998.92  37
  -4   7  -2 69294.0 1966.88  35
  -4   7  -2 56028.9 1866.59  33
  -4   7  -2 70641.1 2062.10  16
  -4   7  -2 60270.5 1810.97   4
  -4   7  -2 66781.9 1927.87   3
  -4   7  -2 72275.1 2045.09  17
  -4   7  -2 68085.8 1931.28  27
  -4   7  -3 37167.2 1381.48  13
  -4   7  -3 37672.9 1322.01  17
  -4   7  -3 32496.3 1217.70  33
  -4   7  -3 34635.0 1302.99  16
  -4   7  -3 34107.8 1208.80   3
  -4   7  -3 33578.8 1189.69  27
  -4   7  -4 2963.40 459.118  13
  -4   7  -4 2926.45 433.116  37
  -4   7  -4 2699.49 402.988  17
  -4   7  -4 2942.07 385.491  33
  -4   7  -4 2492.35 350.278  16
  -4   7  -4 2805.99 329.414   3
  -4   7  -4 2137.70 306.149  27
  -4   7  -5 425.447 186.547   3
  -4   7  -5 385.357 296.710  13
  -4   7  -5 348.568 264.279  37
  -4   7  -5 672.709 286.527  35
  -4   7  -5 508.225 260.189  17
  -4   7  -5 435.421 251.366  33
   4   7   5 498.347 183.803   5
  -4   7  -5 269.285 185.919  16
  -4   7  -6 240.648 89.3415   3
  -4   7  -6 361.857 186.148  13
  -4   7  -6 459.759 119.847  12
  -4   7  -6 352.654 106.306  20
  -4   7  -6 400.909 141.544  37
   4   7   6 302.075 91.6860   5
  -4   7  -6 303.178 156.021  33
  -4   7  -6 336.700 146.311  17
   4   8  -9 545.130 114.275   3
  -4   8   9 1080.39 274.026  14
  -4   8   9 845.288 142.881   4
  -4   8   9 728.948 129.334   5
   4   8  -9 980.955 191.949  17
  -4   8   9 1043.77 285.652  15
  -4   8   8 6130.18 517.961  14
  -4   8   8 4858.80 393.622  22
   4   8  -8 4981.32 346.127   3
  -4   8   8 5775.05 368.836   5
  -4   8   8 5488.39 620.433  11
  -4   8   8 4302.55 433.343  10
  -4   8   7 3390.23 448.807  14
  -4   8   7 2651.36 368.612  22
  -4   8   7 2572.37 292.604   5
  -4   8   7 3090.44 520.234  11
  -4   8   7 2710.37 414.459  10
  -4   8   7 2816.73 471.263  15
  -4   8   6 5780.18 520.173  14
  -4   8   6 5133.97 482.140  22
  -4   8   6 5239.14 385.579   5
  -4   8   6 5350.65 481.838  12
  -4   8   6 5857.44 567.724  11
  -4   8   6 5709.44 632.921  16
  -4   8   6 6064.90 536.904  10
  -4   8   6 6139.59 571.796  15
  -4   8   5 28457.6 996.628   5
  -4   8   5 31041.2 1115.60  12
  -4   8   5 28001.6 1052.96  20
  -4   8   5 34866.4 1246.95  11
  -4   8   5 30968.4 1303.48  16
  -4   8   5 31322.7 1198.39  10
  -4   8   5 32056.4 1197.06  15
  -4   8   5 30654.8 1155.27  14
  -4   8   4 78729.3 2170.37   4
  -4   8   4 75656.8 2141.34   5
  -4   8   4 84012.4 2277.70  12
  -4   8   4 81539.6 2210.28  20
  -4   8   4 96419.2 2421.78  11
  -4   8   4 83914.5 2358.92  10
  -4   8   4 93351.4 2501.38  16
  -4   8   4 80108.7 2313.37  15
  -4   8   3 1807.69 243.486  12
  -4   8   3 1195.04 200.691  20
  -4   8   3 1786.53 270.093  11
  -4   8   3 1766.14 276.804  10
  -4   8   3 1387.67 283.882  16
  -4   8   3 1280.48 223.550  15
  -4   8   2 12445.0 707.451  13
  -4   8   2 11772.7 539.328  12
  -4   8   2 11425.6 503.813  20
  -4   8   2 13235.6 630.311  11
  -4   8   2 11807.6 608.907  17
  -4   8   2 13333.9 616.295  10
  -4   8   2 14286.0 672.835  16
  -4   8   2 12308.9 573.147  29
  -4   8   1 15850.9 784.831  13
  -4   8   1 15866.9 641.464  12
  -4   8   1 14917.7 594.597  20
  -4   8   1 15640.3 668.258  37
  -4   8   1 15579.8 668.040  35
  -4   8   1 15220.6 705.663  17
  -4   8   1 16753.7 688.614  10
  -4   8   1 18122.4 763.937  16
  -4   8   1 15131.4 662.475  29
  -4   8   0 7242.74 545.187  13
  -4   8   0 6712.74 418.709  12
  -4   8   0 7122.37 400.332  20
  -4   8   0 7753.70 482.856  37
  -4   8   0 7726.56 482.177  35
  -4   8   0 7654.34 500.054  17
  -4   8   0 7671.80 438.572  10
  -4   8   0 8268.42 516.147  16
  -4   8   0 7271.35 461.371  29
  -4   8   0 6397.11 370.592   4
  -4   8  -1 80556.6 2262.59  13
  -4   8  -1 68925.5 1999.00  20
  -4   8  -1 76831.4 2122.17  37
  -4   8  -1 72234.7 2088.52  35
  -4   8  -1 83528.9 2237.08  16
  -4   8  -1 67508.8 1940.20   4
  -4   8  -1 72285.1 2022.57   3
  -4   8  -2 47860.5 1606.44  13
  -4   8  -2 46728.4 1482.81  37
  -4   8  -2 47115.6 1469.92  35
  -4   8  -2 48361.6 1552.69  17
  -4   8  -2 47720.4 1568.51  16
  -4   8  -2 37984.1 1264.30   4
  -4   8  -2 44237.1 1395.17   3
  -4   8  -2 40027.3 1373.49  27
  -4   8  -3 11497.2 762.207  13
  -4   8  -3 11822.4 700.773  17
  -4   8  -3 9603.63 590.510  33
  -4   8  -3 10906.5 682.869  16
  -4   8  -3 11387.4 593.718   3
  -4   8  -3 9936.20 576.027  27
  -4   8  -4 8712.32 652.794  13
  -4   8  -4 8669.95 580.878  37
   4   8   4 8171.51 463.560   5
  -4   8  -4 9391.86 610.951  17
  -4   8  -4 7633.10 522.963  33
  -4   8  -4 7858.56 558.684  16
  -4   8  -4 8480.95 493.715   3
  -4   8  -4 6842.72 448.127  27
  -4   8  -5-6.63839 142.190   3
  -4   8  -5 52.3023 253.844  13
  -4   8  -5-23.0937 220.795  33
  -4   8  -5 118.569 239.586  37
  -4   8  -5 132.011 162.242  20
  -4   8  -5 107.431 248.294  35
   4   8   5 28.0096 140.207   5
  -4   8  -5 302.572 236.421  17
  -4   8  -5-8.78340 181.689  16
  -4   8  -6 1415.75 210.225  13
  -4   8  -6 883.375 130.614  37
  -4   8  -6 962.134 136.783  33
  -4   8  -6 1471.79 176.279  17
  -4   9   9 692.112 237.086  14
   4   9  -9 748.289 153.569  17
  -4   9   9 509.460 243.164  15
   4   9  -8 456.837 152.165   3
  -4   9   8 369.259 301.125  14
  -4   9   8 523.159 192.315  22
  -4   9   8 592.326 158.486   5
  -4   9   8 484.087 376.023  11
  -4   9   8 429.278 236.123  10
  -4   9   7 2375.27 413.679  14
  -4   9   7 2207.41 337.323  22
   4   9  -7 2412.58 270.670   3
  -4   9   7 2112.54 259.307   5
  -4   9   7 2256.08 399.364  10
  -4   9   7 2886.45 484.885  15
  -4   9   7 2624.02 493.449  11
  -4   9   6 12391.0 718.132  14
  -4   9   6 10777.9 650.184  22
  -4   9   6 9657.20 513.114   5
  -4   9   6 11597.8 765.722  11
  -4   9   6 10781.5 807.426  16
  -4   9   6 10376.1 686.835  10
  -4   9   6 11709.7 747.793  15
  -4   9   5 12947.8 592.921   4
  -4   9   5 13124.3 578.172   5
  -4   9   5 14783.7 705.683  12
  -4   9   5 12731.3 637.169  20
  -4   9   5 15768.9 808.270  11
  -4   9   5 13191.0 818.906  16
  -4   9   5 14924.0 776.976  10
  -4   9   5 13827.1 748.614  15
  -4   9   5 15119.7 759.683  14
  -4   9   4 57865.9 1713.83  12
  -4   9   4 60539.6 1839.54  11
  -4   9   4 57679.3 1903.60  16
  -4   9   4 57617.6 1780.30  15
  -4   9   3 32521.4 1081.63  12
  -4   9   3 34983.7 1193.58  10
  -4   9   3 34041.2 1202.85  11
  -4   9   3 35697.3 1268.97  16
  -4   9   3 32121.3 1129.25  15
  -4   9   3 31325.7 1110.99  29
  -4   9   2 41485.2 1486.99  13
  -4   9   2 37031.4 1222.26  12
  -4   9   2 42782.0 1381.23  11
  -4   9   2 38352.0 1326.03  17
  -4   9   2 45061.4 1374.55  10
  -4   9   2 45700.4 1443.49  16
  -4   9   2 42472.8 1312.25  29
  -4   9   1 3687.08 449.589  13
  -4   9   1 3584.02 295.228  12
  -4   9   1 3128.83 329.223  37
  -4   9   1 3586.51 366.319  35
  -4   9   1 3230.19 348.958  17
  -4   9   1 3179.22 325.050  10
  -4   9   1 3377.83 370.343  16
  -4   9   1 3127.28 316.526  29
  -4   9   0 7351.47 577.592  13
  -4   9   0 6375.97 409.867  12
  -4   9   0 6473.17 472.867  37
  -4   9   0 7934.13 510.426  35
  -4   9   0 7039.20 492.631  17
  -4   9   0 7492.81 458.855  10
  -4   9   0 7831.71 532.246  16
  -4   9   0 6067.57 441.442  29
  -4   9  -1 4084.72 485.475  13
  -4   9  -1 4230.68 348.199  12
  -4   9  -1 4113.03 323.215  20
  -4   9  -1 4428.12 441.843  37
  -4   9  -1 3992.71 428.983  35
  -4   9  -1 4005.66 433.096  17
  -4   9  -1 4488.69 442.641  16
  -4   9  -1 4349.27 333.434   3
  -4   9  -2 135257. 3446.97  13
  -4   9  -2 114043. 3068.82  20
  -4   9  -2 138765. 3283.57  37
  -4   9  -2 137103. 3406.06  16
  -4   9  -2 101095. 2939.10   4
  -4   9  -2 129829. 3230.17  35
  -4   9  -2 120931. 3133.33  27
  -4   9  -2 117554. 3102.07   3
  -4   9  -3 429.580 192.958   3
  -4   9  -3 479.559 385.628  13
  -4   9  -3 486.014 338.344  17
  -4   9  -3 389.859 257.338  33
  -4   9  -3 280.718 297.176  16
  -4   9  -3 760.262 263.536  27
  -4   9  -4 2063.15 443.281  13
  -4   9  -4 1682.32 250.087  20
  -4   9  -4 1902.42 383.085  37
  -4   9  -4 2007.56 375.560  35
   4   9   4 2207.03 240.128   5
  -4   9  -4 2031.54 325.293  33
  -4   9  -4 2058.79 382.060  17
  -4   9  -4 2424.25 367.293  16
  -4   9  -4 2030.69 252.548   3
  -4   9  -4 1822.38 252.414  27
  -4   9  -5 872.620 303.556  13
  -4   9  -5 673.965 170.321  12
  -4   9  -5 700.666 156.662  20
  -4   9  -5 1097.34 253.831  37
   4   9   5 622.634 132.269   5
  -4   9  -5 942.844 256.297  17
  -4   9  -5 1001.17 241.945  33
  -4   9  -5 623.039 208.042  16
  -4   9  -5 966.605 257.061  35
  -4   9  -6 277.172 144.934  13
  -4   9  -6 174.364 85.8115  37
  -4   9  -6 209.484 72.0171  33
  -4   9  -6 458.058 121.620  17
  -4  10   9 230.453 195.494  14
   4  10  -9 134.078 89.2603  17
  -4  10   9 236.146 208.864  15
  -4  10   8 413.005 280.595  14
  -4  10   8 326.234 361.286  11
   4  10  -8 360.087 179.813  17
  -4  10   7 6813.94 561.771  14
  -4  10   7 5460.21 440.729  22
  -4  10   7 6303.78 628.435  11
  -4  10   7 5142.10 497.855  10
  -4  10   7 6839.56 611.729  15
  -4  10   6 8571.36 624.577  14
  -4  10   6 8111.41 561.921  22
  -4  10   6 9531.51 714.330  11
  -4  10   6 8141.52 746.542  16
  -4  10   6 7974.04 648.241  15
  -4  10   5 13292.8 682.531  12
  -4  10   5 16371.1 844.622  11
  -4  10   5 15916.6 911.154  16
  -4  10   5 14304.8 775.748  10
  -4  10   5 13353.7 765.063  15
  -4  10   5 15258.1 774.057  14
  -4  10   4 14344.3 665.821  12
  -4  10   4 16648.3 804.335  11
  -4  10   4 16856.7 870.596  16
  -4  10   4 14464.8 739.790  15
  -4  10   3 6147.30 401.126  12
  -4  10   3 6947.96 501.451  11
  -4  10   3 6419.16 478.085  10
  -4  10   3 6428.66 523.857  16
  -4  10   3 6300.67 446.503  15
  -4  10   3 6120.95 429.332  29
  -4  10   2 2472.75 424.830  13
  -4  10   2 2679.58 261.521  12
  -4  10   2 2769.71 338.879  11
  -4  10   2 2684.36 302.742  37
  -4  10   2 2408.81 321.514  17
  -4  10   2 3374.34 348.302  10
  -4  10   2 3643.72 397.048  16
  -4  10   2 2611.58 279.382  15
  -4  10   2 2720.51 300.281  29
  -4  10   1 20427.2 985.767  13
  -4  10   1 20075.1 758.192  12
  -4  10   1 19556.6 830.607  37
  -4  10   1 20662.7 846.434  35
  -4  10   1 20457.2 868.667  17
  -4  10   1 22631.6 886.009  10
  -4  10   1 23345.5 962.953  16
  -4  10   1 21521.1 845.627  29
  -4  10   0 5823.00 537.258  13
  -4  10   0 5741.97 377.118  12
  -4  10   0 5626.92 466.903  17
  -4  10   0 5973.28 467.057  37
  -4  10   0 6057.11 480.270  35
  -4  10   0 5963.53 430.155  10
  -4  10   0 6185.61 507.304  16
  -4  10   0 5248.56 422.202  29
  -4  10  -1 20059.0 980.684  13
  -4  10  -1 19640.3 865.150  37
  -4  10  -1 19356.6 862.275  35
  -4  10  -1 19859.0 890.201  17
  -4  10  -1 18959.2 769.542  10
  -4  10  -1 20528.2 943.785  16
  -4  10  -2 164985. 4130.13  13
  -4  10  -2 139583. 3749.30  12
  -4  10  -2 150407. 3898.58  37
  -4  10  -2 159054. 3899.46  35
  -4  10  -2 142406. 3925.51  17
  -4  10  -2 161759. 4065.33  16
  -4  10  -2 141939. 3766.83  27
  -4  10  -3 3037.91 519.252  13
  -4  10  -3 2984.91 310.518  12
  -4  10  -3 2743.71 346.044  33
  -4  10  -3 2918.39 412.486  16
  -4  10  -3 2613.89 310.005  27
  -4  10  -4 4316.78 509.394  13
  -4  10  -4 3461.59 296.549  12
  -4  10  -4 4052.07 422.120  37
  -4  10  -4 3926.46 413.705  35
  -4  10  -4 4000.90 448.899  17
  -4  10  -4 3456.94 361.158  33
  -4  10  -4 3794.62 409.786  16
  -4  10  -4 2816.95 261.238  27
  -4  10  -5 434.803 266.728  13
  -4  10  -5 796.292 238.562  37
  -4  10  -5 766.949 232.931  35
  -4  10  -5 704.308 237.529  17
  -4  10  -5 591.772 200.397  33
  -4  10  -5 559.644 200.886  16
  -4  11   9 381.227 152.757  14
  -4  11   9 181.672 175.474  15
  -4  11   8 73.3156 240.974  14
  -4  11   8-163.700 313.859  11
   4  11  -8 129.819 135.133  17
  -4  11   7 2763.72 403.715  14
  -4  11   7 2273.03 292.590  22
  -4  11   7 2961.56 475.408  11
   4  11  -7 2579.40 264.963  17
  -4  11   7 2189.73 354.350  10
  -4  11   7 3446.90 466.505  15
  -4  11   6 2158.97 394.409  14
  -4  11   6 2644.21 475.385  11
  -4  11   6 1791.36 310.200  22
  -4  11   6 1612.64 350.780  10
  -4  11   6 2122.71 410.457  15
  -4  11   5 13313.1 672.883  12
  -4  11   5 16844.7 872.724  11
  -4  11   5 16451.5 950.778  16
  -4  11   5 17044.1 847.222  10
  -4  11   5 14326.5 799.906  15
  -4  11   5 16626.4 821.342  14
  -4  11   4 31891.7 1130.25  12
  -4  11   4 39701.9 1360.36  11
  -4  11   4 37001.9 1407.67  16
  -4  11   4 34081.0 1269.63  15
  -4  11   3 15029.9 754.742  11
  -4  11   3 13901.5 717.452  10
  -4  11   3 14471.4 785.407  16
  -4  11   3 12544.9 665.740  15
  -4  11   3 12948.8 649.662  29
  -4  11   2 13514.0 836.850  13
  -4  11   2 14697.1 757.838  11
  -4  11   2 12252.8 640.929  37
  -4  11   2 12926.2 674.111  17
  -4  11   2 15782.2 734.097  10
  -4  11   2 14727.2 768.482  16
  -4  11   2 12413.9 623.261  15
  -4  11   2 13726.5 657.869  29
  -4  11   1 442.014 348.573  13
  -4  11   1 173.792 248.083  37
  -4  11   1 586.948 280.875  35
  -4  11   1 166.709 227.066  17
  -4  11   1 253.197 256.654  16
  -4  11   1 363.463 203.007  29
  -4  11   1 750.824 243.085  10
  -4  11   0 20441.4 1015.17  13
  -4  11   0 18780.5 855.129  37
  -4  11   0 17945.5 842.191  35
  -4  11   0 20564.4 891.752  17
  -4  11   0 20472.1 849.043  10
  -4  11   0 21276.7 963.353  16
  -4  11  -1 43773.5 1577.02  13
  -4  11  -1 41709.6 1399.67  37
  -4  11  -1 39629.3 1376.06  35
  -4  11  -1 38096.6 1396.13  17
  -4  11  -1 37807.5 1295.74  10
  -4  11  -1 40526.8 1493.99  16
  -4  11  -2 6333.28 641.679  13
  -4  11  -2 6414.48 571.325  16
  -4  11  -2 4632.17 357.600  12
  -4  11  -2 5853.50 535.884  37
  -4  11  -2 6041.08 529.067  17
  -4  11  -2 4717.95 403.447  27
  -4  11  -3 2146.65 475.167  13
  -4  11  -3 1907.20 243.304  12
  -4  11  -3 2556.88 430.823  17
  -4  11  -3 1765.60 294.707  33
  -4  11  -3 1986.76 372.477  16
  -4  11  -3 1799.84 265.639  27
  -4  11  -4 2637.28 451.784  13
  -4  11  -4 2373.37 357.941  37
  -4  11  -4 2331.28 365.380  35
  -4  11  -4 1815.04 279.319  33
  -4  11  -4 1804.30 322.065  16
  -4  11  -5 199.773 249.136  13
  -4  11  -5 218.756 196.309  37
  -4  11  -5 29.4971 193.180  35
  -4  11  -5 28.3584 196.142  17
  -4  11  -5 86.3026 163.399  16
  -4  12   9 889.404 102.837  29
  -4  12   9 397.744 143.624  15
  -4  12   8 1182.40 275.721  14
  -4  12   7 2659.49 387.435  14
  -4  12   7 1972.33 249.893  22
  -4  12   7 2655.94 461.616  11
  -4  12   7 1972.01 324.527  10
  -4  12   7 2264.34 404.172  15
  -4  12   6 24445.7 1045.80  14
  -4  12   6 26054.6 1158.35  11
  -4  12   6 22736.1 1014.84  10
  -4  12   6 24547.0 1083.23  15
  -4  12   5 5117.71 530.050  11
  -4  12   5 4453.74 453.779  10
  -4  12   5 3730.12 455.698  15
  -4  12   5 3978.58 440.639  14
  -4  12   4 35044.4 1295.50  11
  -4  12   4 30578.3 1323.16  16
  -4  12   4 30919.2 1212.47  15
  -4  12   4 31466.5 1144.84  29
  -4  12   3 12050.1 696.689  11
  -4  12   3 11937.6 677.609  10
  -4  12   3 12181.4 742.374  16
  -4  12   3 10868.1 629.692  15
  -4  12   3 10455.4 587.265  29
  -4  12   2 7328.39 682.102  13
  -4  12   2 8202.53 580.050  11
  -4  12   2 6301.46 479.320  17
  -4  12   2 7385.72 532.447  10
  -4  12   2 8317.73 607.312  16
  -4  12   2 7372.08 493.143  15
  -4  12   2 7377.23 487.615  29
  -4  12   1 23940.4 1134.15  13
  -4  12   1 24728.2 1057.04  16
  -4  12   1 23474.3 1002.04  11
  -4  12   1 21819.5 921.223  37
  -4  12   1 22624.4 928.692  35
  -4  12   1 20642.9 911.490  17
  -4  12   1 24526.5 970.328  10
  -4  12   1 19892.7 871.435  29
  -4  12   0 3418.44 535.880  13
  -4  12   0 3481.53 437.823  37
  -4  12   0 3765.63 447.881  35
  -4  12   0 3544.04 372.004  10
  -4  12   0 3761.34 454.123  16
  -4  12   0 3013.15 394.761  17
  -4  12  -1 14272.5 905.861  13
  -4  12  -1 13591.1 751.699  37
  -4  12  -1 15463.2 794.944  17
  -4  12  -1 14490.9 768.208  35
  -4  12  -1 13876.1 680.216  10
  -4  12  -1 16057.0 857.572  16
  -4  12  -2 3215.07 550.272  13
  -4  12  -2 2719.49 446.569  37
  -4  12  -2 3462.53 443.283  17
  -4  12  -2 3277.37 457.906  16
  -4  12  -2 2798.84 317.864  27
  -4  12  -3 7933.83 676.493  13
  -4  12  -3 7532.51 563.820  17
  -4  12  -3 7173.41 561.341  16
  -4  12  -4 3541.27 450.788  13
  -4  12  -4 3659.23 370.175  37
  -4  12  -4 3500.84 364.131  35
  -4  12  -4 3868.81 394.916  17
  -4  12  -4 2390.18 287.865  33
  -4  12  -4 3059.53 367.934  16
  -4  12  -5 1459.24 272.374  13
  -4  12  -5 1318.57 208.687  37
  -4  12  -5 1333.43 204.198  35
  -4  12  -5 1021.91 182.815  16
  -4  13   8 6637.24 426.306  14
  -4  13   8 6323.80 340.733  29
  -4  13   7 2208.86 350.187  14
  -4  13   7 1499.77 291.673  10
  -4  13   7 2078.32 372.716  15
  -4  13   6 4463.96 456.671  14
  -4  13   6 2983.00 324.687  22
  -4  13   6 3496.94 500.127  11
  -4  13   6 3194.18 546.809  16
  -4  13   6 3349.37 407.951  10
  -4  13   6 3288.14 451.222  15
  -4  13   5 50342.5 1714.53  11
  -4  13   5 44051.1 1601.08  10
  -4  13   5 48050.7 1642.55  15
  -4  13   5 47478.3 1525.82  29
  -4  13   5 46900.8 1613.52  14
  -4  13   4 36799.2 1356.36  11
  -4  13   4 34183.4 1275.29  15
  -4  13   4 33739.8 1193.63  29
  -4  13   3 15898.2 824.367  11
  -4  13   3 16921.2 822.062  10
  -4  13   3 13727.6 748.756  15
  -4  13   3 14513.3 703.934  29
  -4  13   2 3256.59 540.482  13
  -4  13   2 3424.31 451.116  11
  -4  13   2 3413.08 391.865  37
  -4  13   2 4306.74 440.707  10
  -4  13   2 4081.16 483.375  16
  -4  13   2 3737.67 372.971  15
  -4  13   2 3613.88 361.875  29
  -4  13   1 9936.24 781.002  13
  -4  13   1 9650.99 648.356  11
  -4  13   1 9256.14 588.547  37
  -4  13   1 9318.06 614.766  35
  -4  13   1 8144.93 557.722  17
  -4  13   1 9892.35 616.262  10
  -4  13   1 10710.4 702.221  16
  -4  13   1 8486.76 538.134  29
  -4  13   0 10920.1 731.358  16
  -4  13   0 9610.23 783.942  13
  -4  13   0 10133.9 645.641  37
  -4  13   0 9434.09 647.336  35
  -4  13   0 10329.6 628.570  17
  -4  13   0 10020.4 615.946  10
  -4  13  -1 9380.59 620.172  17
  -4  13  -1 9495.23 775.454  13
  -4  13  -1 8964.13 626.703  37
  -4  13  -1 10108.9 570.435  10
  -4  13  -1 9882.97 692.692  16
  -4  13  -1 9252.79 632.009  35
  -4  13  -2 1769.05 421.161  37
  -4  13  -2 1443.69 487.033  13
  -4  13  -2 1567.52 355.943  17
  -4  13  -2 1640.17 400.498  16
  -4  13  -2 1170.54 235.273  27
  -4  13  -3 4379.75 560.575  13
  -4  13  -3 4229.62 436.562  17
  -4  13  -3 4176.24 463.139  16
  -4  13  -4 2749.34 412.092  13
  -4  13  -4 2560.24 326.148  37
  -4  13  -4 2660.26 325.739  35
  -4  13  -4 2261.07 313.805  17
  -4  13  -4 2400.37 322.015  16
  -4  13  -5 835.784 208.524  13
  -4  13  -5 644.671 149.113  37
  -4  13  -5 479.564 130.518  35
  -4  13  -5 816.342 161.880  17
  -4  13  -5 554.742 133.775  16
  -4  14   8 5942.93 370.523  14
  -4  14   8 6906.65 303.942  29
  -4  14   7 4327.50 420.452  14
  -4  14   7 3843.37 354.874  10
  -4  14   7 4361.50 324.210  29
  -4  14   7 4281.82 422.290  15
  -4  14   6 13855.0 732.419  14
  -4  14   6 12306.3 817.198  16
  -4  14   6 11829.7 670.349  10
  -4  14   6 13571.7 628.066  29
  -4  14   6 13269.2 738.543  15
  -4  14   5 1812.25 301.175  22
  -4  14   5 2849.71 461.303  11
  -4  14   5 2830.13 394.074  10
  -4  14   5 2757.00 513.907  16
  -4  14   5 2943.50 331.696  29
  -4  14   5 2961.08 419.667  15
  -4  14   5 2923.44 401.490  14
  -4  14   4-42.9997 324.249  11
  -4  14   4 341.468 223.258  29
  -4  14   4 106.475 257.746  10
  -4  14   4 219.073 268.646  15
  -4  14   3 13096.1 751.749  10
  -4  14   3 13662.5 722.105  15
  -4  14   3 12622.0 658.342  29
  -4  14   2 799.793 501.724  13
  -4  14   2 590.508 297.676  37
  -4  14   2 1207.69 349.429  11
  -4  14   2 663.159 232.030  29
  -4  14   2 871.420 296.011  10
  -4  14   2 845.313 250.056  15
  -4  14   1 11139.7 847.884  13
  -4  14   1 11427.1 717.470  11
  -4  14   1 10141.0 642.616  37
  -4  14   1 10762.0 666.903  35
  -4  14   1 9703.96 597.776  17
  -4  14   1 11557.7 674.483  10
  -4  14   1 12267.2 756.181  16
  -4  14   1 9376.73 570.697  29
  -4  14   0 6423.93 703.988  13
  -4  14   0 5511.75 483.015  17
  -4  14   0 6303.85 544.860  37
  -4  14   0 6781.68 569.759  35
  -4  14   0 6702.66 511.652  10
  -4  14   0 7888.24 634.191  16
  -4  14  -1 13666.9 905.145  13
  -4  14  -1 12306.3 726.253  37
  -4  14  -1 12421.0 740.425  35
  -4  14  -1 13151.0 719.899  17
  -4  14  -1 13578.7 674.383  10
  -4  14  -1 15361.0 841.337  16
  -4  14  -1 10139.3 561.691  27
  -4  14  -2 11737.4 828.429  13
  -4  14  -2 10516.7 665.735  37
  -4  14  -2 10416.1 631.000  17
  -4  14  -2 9372.38 508.552  10
  -4  14  -2 9894.39 687.695  16
  -4  14  -3 6410.91 596.264  13
  -4  14  -3 5846.05 464.909  35
  -4  14  -3 5156.17 438.148  17
  -4  14  -3 5701.48 485.976  16
  -4  14  -4 176.909 224.501  37
  -4  14  -4-5.62265 221.571  35
  -4  14  -4 141.195 189.249  17
  -4  14  -4 138.454 200.345  16
  -4  15   8 1575.02 169.615  14
  -4  15   8 1656.47 222.201  11
  -4  15   7 784.590 246.081  14
  -4  15   7 581.094 158.154  29
  -4  15   7 609.590 188.500  10
  -4  15   7 919.598 283.235  15
  -4  15   6 2354.54 349.761  14
  -4  15   6 2419.13 329.735  10
  -4  15   6 2629.54 282.336  29
  -4  15   6 2654.34 392.952  15
  -4  15   5 19203.5 1024.03  16
  -4  15   5 19545.3 898.145  10
  -4  15   5 21585.4 821.379  29
  -4  15   5 20832.0 924.018  15
  -4  15   5 20963.5 913.195  14
  -4  15   4 28322.1 1173.75  11
  -4  15   4 26046.8 1100.75  10
  -4  15   4 28479.8 1254.00  16
  -4  15   4 26198.6 1092.78  15
  -4  15   4 26087.5 989.429  29
  -4  15   3 706.225 336.125  11
  -4  15   3 775.845 237.783  29
  -4  15   3 977.532 287.513  15
  -4  15   2 2154.39 412.425  11
  -4  15   2 1773.42 355.439  37
  -4  15   2 2145.61 408.130  35
  -4  15   2 2331.32 370.898  10
  -4  15   2 1673.73 291.525  29
  -4  15   2 1546.93 291.495  15
  -4  15   1 6489.57 526.399  10
  -4  15   1 6249.62 569.881  11
  -4  15   1 6246.07 529.294  37
  -4  15   1 6007.78 535.701  35
  -4  15   1 5360.51 440.743  17
  -4  15   1 5061.01 410.272  15
  -4  15   0 21315.0 1017.35  11
  -4  15   0 21550.7 945.509  37
  -4  15   0 20793.3 941.252  35
  -4  15   0 18641.0 863.522  17
  -4  15   0 22075.2 1061.89  16
  -4  15   0 21417.6 929.326  10
  -4  15  -1 1231.59 412.676  37
  -4  15  -1 861.397 277.001  17
  -4  15  -1 889.558 381.402  16
  -4  15  -1 939.985 258.257  10
  -4  15  -1 1700.03 428.484  35
  -4  15  -1 966.517 223.557  27
  -4  15  -2 9663.72 614.438  37
  -4  15  -2 7775.85 526.274  17
  -4  15  -2 7907.36 452.172  10
  -4  15  -2 8134.20 602.248  16
  -4  15  -3 8352.07 498.368  35
  -4  15  -3 8214.13 498.015  17
  -4  15  -3 8266.43 542.323  16
  -4  15  -4 7484.80 390.143  37
  -4  15  -4 7655.52 379.252  35
  -4  15  -4 7914.11 397.155  17
  -4  16   7 406.292 202.234  14
  -4  16   7 552.314 238.865  11
  -4  16   7 424.415 107.850  29
  -4  16   7 691.361 231.832  15
  -4  16   6 10516.9 587.503  14
  -4  16   6 10085.1 555.530  10
  -4  16   6 11617.2 492.704  29
  -4  16   6 10333.7 601.758  15
  -4  16   5 1846.31 246.439  22
  -4  16   5 2345.95 339.084  10
  -4  16   5 2213.70 425.357  16
  -4  16   5 2086.66 263.678  29
  -4  16   5 2337.76 359.366  15
  -4  16   5 2383.09 355.187  14
  -4  16   4 2837.23 380.195  10
  -4  16   4 2956.39 467.363  16
  -4  16   4 3401.29 332.611  29
  -4  16   4 2621.15 372.287  15
  -4  16   3 2261.53 333.675  37
  -4  16   3 2546.92 431.606  11
  -4  16   3 2551.64 458.812  16
  -4  16   3 2199.14 347.006  15
  -4  16   3 2116.95 281.278  29
  -4  16   2 18066.3 899.421  11
  -4  16   2 14592.7 746.975  37
  -4  16   2 15390.5 784.544  35
  -4  16   2 16442.8 818.595  10
  -4  16   2 13780.2 730.347  15
  -4  16   2 13108.8 658.177  29
  -4  16   1 1750.15 392.516  37
  -4  16   1 1055.14 405.986  35
  -4  16   1 1131.49 347.902  11
  -4  16   1 1168.20 321.497  10
  -4  16   1 812.970 230.358  15
  -4  16   0 4066.63 495.779  11
  -4  16   0 3540.29 461.017  37
  -4  16   0 3724.01 486.024  35
  -4  16   0 3431.88 367.179  17
  -4  16   0 4121.86 410.914  10
  -4  16  -1 3456.11 466.326  37
  -4  16  -1 2585.73 333.127  17
  -4  16  -1 2559.92 327.828  10
  -4  16  -1 2760.48 451.171  16
  -4  16  -2 12660.1 674.369  37
  -4  16  -2 11876.5 605.045  17
  -4  16  -2 11674.5 540.467  10
  -4  16  -2 12477.1 702.632  16
  -4  16  -3 4749.68 380.109  35
  -4  16  -3 5197.10 360.125  17
  -4  16  -3 5074.54 422.432  16
  -4  16  -4 3628.43 255.100  11
  -4  16  -4 5349.51 280.684  37
  -4  16  -4 4456.32 256.218  35
  -4  16  -4 4350.14 250.239  17
  -4  16  -4 4588.31 294.657  16
  -4  17   7 1463.24 179.924  14
  -4  17   7 1559.48 232.797  11
  -4  17   7 1419.89 221.523  15
  -4  17   6 300.834 211.495  14
  -4  17   6 312.398 258.089  11
  -4  17   6 426.777 197.086  10
  -4  17   6 393.904 226.976  15
  -4  17   5 1384.07 288.005  14
  -4  17   5 841.169 330.023  16
  -4  17   5 1124.01 195.280  29
  -4  17   5 1326.35 279.918  10
  -4  17   5 1291.11 296.269  15
  -4  17   4 18582.7 853.142  10
  -4  17   4 20666.0 993.820  16
  -4  17   4 17869.3 709.344  29
  -4  17   4 18848.5 844.413  15
  -4  17   3 5540.83 437.169  37
  -4  17   3 7095.61 607.472  16
  -4  17   3 5868.96 396.336  29
  -4  17   3 6247.11 491.786  15
  -4  17   2 42939.7 1513.51  11
  -4  17   2 38904.0 1347.37  37
  -4  17   2 41801.2 1409.56  35
  -4  17   2 42332.0 1451.92  10
  -4  17   2 41351.8 1531.74  16
  -4  17   2 39244.6 1349.84  15
  -4  17   1 13022.2 754.148  11
  -4  17   1 11994.6 685.180  37
  -4  17   1 12894.8 722.582  35
  -4  17   1 13893.0 712.623  10
  -4  17   0 3663.31 453.264  11
  -4  17   0 3520.17 459.961  37
  -4  17   0 2527.55 296.599  17
  -4  17   0 3138.69 370.614  10
  -4  17   0 3436.26 469.039  35
  -4  17  -1 2387.98 390.558  11
  -4  17  -1 1988.34 395.230  37
  -4  17  -1 1804.85 273.616  17
  -4  17  -1 2299.02 301.439  10
  -4  17  -2 4307.48 497.774  13
  -4  17  -2 3843.74 387.458  11
  -4  17  -2 4637.16 427.826  37
  -4  17  -2 3822.65 321.650  17
  -4  17  -2 4280.65 304.382  10
  -4  17  -3 2118.39 329.729  13
  -4  17  -3 2062.58 257.302  11
  -4  17  -3 2387.81 270.321  35
  -4  17  -3 2165.57 212.942  17
  -4  17  -3 2231.46 277.073  16
  -4  18   6 2481.13 259.601  14
  -4  18   6 2478.37 306.047  11
  -4  18   6 2331.36 231.239  10
  -4  18   6 2279.98 272.082  15
  -4  18   5 1028.22 257.320  14
  -4  18   5 922.665 237.117  35
  -4  18   5 1188.09 306.956  11
  -4  18   5 984.412 298.310  16
  -4  18   5 1138.45 243.648  10
  -4  18   5 1184.34 272.787  15
  -4  18   4 4078.84 399.833  35
  -4  18   4 4276.05 396.877  10
  -4  18   4 5196.46 509.808  16
  -4  18   4 4090.14 395.103  15
  -4  18   4 4491.72 407.493  14
  -4  18   3 3155.81 344.751  37
  -4  18   3 3485.39 430.907  35
  -4  18   3 3608.65 451.780  16
  -4  18   3 3523.19 366.945  15
  -4  18   2 5026.14 447.189  37
  -4  18   2 5685.12 518.355  35
  -4  18   2 5665.06 476.035  10
  -4  18   2 6243.35 547.829  16
  -4  18   2 5060.59 415.327  15
  -4  18   1 16028.0 765.360  37
  -4  18   1 16631.8 785.757  35
  -4  18   1 16135.5 762.895  10
  -4  18   1 16238.2 837.847  16
  -4  18   0 611.852 416.676  13
  -4  18   0 629.885 350.486  37
  -4  18   0 678.674 362.239  35
  -4  18   0 854.724 314.126  11
  -4  18   0 386.532 318.824  16
  -4  18   0 803.808 262.405  10
  -4  18  -1 5737.52 571.266  13
  -4  18  -1 5671.54 470.232  11
  -4  18  -1 6030.81 473.698  37
  -4  18  -1 5722.43 397.870  10
  -4  18  -2 264.528 295.559  13
  -4  18  -2 117.480 248.649  35
  -4  18  -2 254.387 213.282  11
  -4  18  -2 51.7259 130.845  17
  -4  18  -2 121.101 115.220  10
  -4  18  -3 696.817 223.578  13
  -4  18  -3 843.397 173.913  35
  -4  18  -3 742.885 165.640  11
  -4  19   6 1750.05 168.317  14
  -4  19   6 2523.16 252.847  11
  -4  19   6 2497.41 237.499  15
  -4  19   5 4911.51 395.298  11
  -4  19   5 4686.27 339.697  10
  -4  19   5 4898.90 361.953  15
  -4  19   5 4275.20 332.124  14
  -4  19   4 743.415 236.706  14
  -4  19   4 795.974 287.552  35
  -4  19   4 796.119 257.866  11
  -4  19   4 886.043 292.847  16
  -4  19   4 717.278 221.063  10
  -4  19   4 923.300 232.431  15
  -4  19   3 3931.50 356.191  37
  -4  19   3 4773.83 433.810  35
  -4  19   3 4619.70 405.218  10
  -4  19   3 4150.91 443.523  16
  -4  19   3 3916.03 348.543  15
  -4  19   2 1437.08 326.715  37
  -4  19   2 1232.70 345.560  35
  -4  19   2 1287.25 323.320  16
  -4  19   2 1532.26 292.207  10
  -4  19   2 1126.71 234.521  15
  -4  19   1 3996.78 409.848  37
  -4  19   1 3833.38 435.123  35
  -4  19   1 4108.45 382.539  10
  -4  19   1 3899.74 431.965  16
  -4  19   0 4862.58 432.015  37
  -4  19   0 5242.58 453.183  35
  -4  19   0 5008.22 389.409  10
  -4  19   0 5164.87 462.225  16
  -4  19  -1 1894.81 373.360  13
  -4  19  -1 2049.02 297.529  11
  -4  19  -1 1468.76 316.711  37
  -4  19  -1 2108.11 246.000  10
  -4  19  -1 2104.36 315.230  16
  -4  19  -2 634.104 273.445  13
  -4  19  -2 589.768 213.909  35
  -4  19  -2 617.284 189.867  11
  -4  20   5 239.002 108.108  14
  -4  20   5 277.647 168.615  11
  -4  20   5 269.239 135.963  10
  -4  20   5 386.503 165.376  15
  -4  20   4 989.624 200.009  14
  -4  20   4 1270.98 249.320  35
  -4  20   4 928.040 241.348  11
  -4  20   4 689.384 236.687  16
  -4  20   4 1233.07 215.947  10
  -4  20   4 959.572 208.355  15
  -4  20   3 9477.28 536.439  11
  -4  20   3 8610.62 496.800  35
  -4  20   3 9010.22 506.284  10
  -4  20   3 8076.98 530.869  16
  -4  20   3 8292.94 451.648  15
  -4  20   2 3739.28 380.684  11
  -4  20   2 3446.68 338.605  37
  -4  20   2 3772.36 388.826  35
  -4  20   2 3178.49 364.189  16
  -4  20   2 2824.18 271.548  15
  -4  20   1 7942.05 480.460  37
  -4  20   1 8153.10 498.959  35
  -4  20   1 7515.57 464.021  10
  -4  20   1 7266.86 495.365  16
  -4  20   0 440.242 259.815  37
  -4  20   0 491.766 281.265  35
  -4  20   0 376.096 229.203  16
  -4  20   0 381.479 195.485  10
  -4  20  -1 253.575 227.947  37
  -4  20  -1 243.288 183.640  16
  -4  20  -1 285.012 148.584  10
  -4  20  -2 2711.43 221.482  11
  -4  20  -2 3189.33 227.136  35
  -4  20  -2 2448.24 216.409  16
  -4  21   4 7966.51 412.598  11
  -4  21   4 7420.82 345.993  35
  -4  21   4 8109.36 387.614  10
  -4  21   4 7752.07 376.265  15
  -4  21   3 83.7183 217.274  35
  -4  21   3 181.055 176.105  11
  -4  21   3 236.896 186.394  16
  -4  21   3 48.8725 161.661  10
  -4  21   3 147.501 132.983  15
  -4  21   2 4543.04 316.422  37
  -4  21   2 5789.64 382.202  11
  -4  21   2 6368.07 404.282  35
  -4  21   2 5231.60 392.332  16
  -4  21   1 3270.20 303.475  11
  -4  21   1 3080.06 305.572  37
  -4  21   1 3244.98 319.802  35
  -4  21   1 3305.99 289.333  10
  -4  21   1 2744.08 296.908  16
  -4  21   0 2701.84 276.028  37
  -4  21   0 2581.58 241.105  10
  -4  21   0 2289.56 253.959  16
  -4  21  -1-29.9634 154.933  37
  -4  21  -1-33.9770 122.451  16
  -4  21  -1 91.9054 95.8412  10
  -4  22   3 5539.45 310.987  11
  -4  22   3 5573.53 286.060  35
  -4  22   3 5410.78 296.925  10
  -4  22   2 1303.38 181.827  11
  -4  22   2 1423.63 213.268  35
  -4  22   2 992.356 169.071  16
  -4  22   1 139.424 130.045  37
  -4  22   1 86.6178 163.493  35
  -4  22   1-5.60420 123.195  11
  -4  22   1 143.954 120.965  16
  -4  22   1 252.052 136.817  10
  -4  22   0 1251.41 163.211  37
  -4  22   0 1502.00 163.119  11
  -4  22   0 1356.43 151.093  10
  -4  22   0 1160.19 149.672  16
   5 -21  -3 856.751 166.893  21
   5 -21  -3 1325.30 145.637  26
   5 -21  -2 1341.46 193.257  21
   5 -21  -2 2152.06 185.016  26
   5 -20  -4 1383.86 171.152  26
   5 -20  -4 909.786 216.560  21
   5 -20  -4 1072.93 140.109  28
   5 -20  -3 109.182 155.740  26
   5 -20  -3 74.4536 198.377  21
   5 -20  -3 19.7098 120.297  18
   5 -20  -3 38.3712 108.571  28
   5 -20  -2 938.435 252.762  21
   5 -20  -2 821.461 200.293  18
   5 -20  -1 2811.55 301.883  21
   5 -20  -1 3723.33 263.506  26
  -5 -20   0 598.958 94.0864  23
   5 -20   0 558.146 169.841  21
   5 -20   0 673.323 112.597  36
   5 -20   0 290.851 141.852  18
   5 -20   0 830.865 136.207  26
   5 -19  -5 3380.84 235.582  26
   5 -19  -5 2639.27 299.093  21
   5 -19  -5 2995.78 219.410  28
   5 -19  -4 4119.97 300.634  26
   5 -19  -4 3956.43 392.626  21
   5 -19  -4 3966.83 268.274  28
   5 -19  -3 1953.85 261.337  26
   5 -19  -3 2053.95 356.851  21
   5 -19  -3 1634.28 260.786  18
   5 -19  -3 2081.27 217.969  28
   5 -19  -2 719.188 292.220  21
   5 -19  -2 413.066 245.740  18
   5 -19  -2 597.966 151.995  28
   5 -19  -1 525.506 199.876  26
   5 -19  -1 619.990 273.891  21
   5 -19  -1 534.948 263.766  18
   5 -19  -1 476.734 144.872  30
   5 -19   0 225.248 160.141  26
  -5 -19   0 217.291 125.839  23
   5 -19   0 95.3765 208.212  21
   5 -19   0 208.191 142.992  36
   5 -19   0-21.4322 203.223  18
   5 -19   0 209.073 132.022  30
   5 -19   1 543.750 108.940  26
  -5 -19  -1 863.371 128.423  23
   5 -19   1 660.352 173.813  21
   5 -19   1 278.963 150.611  18
   5 -19   1 549.186 115.439  30
   5 -18  -6 2506.92 187.284  26
   5 -18  -6 2830.05 206.878  28
   5 -18  -5 3055.89 272.856  26
   5 -18  -5 3288.66 265.439  28
   5 -18  -4 52.6049 211.470  26
   5 -18  -4 196.264 180.978  18
   5 -18  -4 20.1147 160.879  28
   5 -18  -3 1114.92 269.508  26
   5 -18  -3 888.725 279.548  18
   5 -18  -3 1164.73 216.765  28
   5 -18  -2 4584.31 501.525  21
   5 -18  -2 5021.18 493.773  18
   5 -18  -2 4664.96 311.879  30
   5 -18  -2 5897.64 352.619  28
  -5 -18   1 8924.57 420.975  23
   5 -18  -1 8481.31 617.795  21
   5 -18  -1 7229.08 589.561  18
   5 -18  -1 8205.94 429.831  30
  -5 -18   0 1835.35 230.364  23
   5 -18   0 1505.30 336.276  21
   5 -18   0 1788.29 230.830  30
   5 -18   0 1747.98 246.560  26
  -5 -18  -1 2308.58 222.582  23
   5 -18   1 1883.88 291.828  21
   5 -18   1 1622.91 173.019  36
   5 -18   1 2025.40 221.324  30
   5 -18   1 2212.96 206.545  26
  -5 -18  -2 89.3669 95.9195  23
   5 -18   2 71.6634 120.641  21
   5 -18   2 56.6211 90.6823  30
   5 -17  -6 8043.47 387.237  26
   5 -17  -6 7870.30 392.151  28
   5 -17  -5 734.786 226.192  26
   5 -17  -5 699.097 209.025  28
   5 -17  -4 655.247 258.904  26
   5 -17  -4 700.092 246.077  18
   5 -17  -4 562.398 209.279  28
   5 -17  -3 922.161 314.511  18
   5 -17  -3 1010.62 190.035  30
   5 -17  -3 888.291 212.177  28
   5 -17  -2 2718.65 357.499  26
   5 -17  -2 2139.52 266.398  30
   5 -17  -2 2256.28 260.576  28
   5 -17  -1 2234.21 325.936  26
  -5 -17   1 2105.67 251.510  23
   5 -17  -1 1831.94 273.302  30
   5 -17   0 365.175 218.381  26
  -5 -17   0 311.454 197.532  23
   5 -17   0 190.900 204.187  30
   5 -17   0 103.906 170.430  38
   5 -17   1 533.437 180.426  26
  -5 -17  -1 427.693 188.086  23
   5 -17   1 402.327 161.560  38
   5 -17   1 440.749 173.198  36
   5 -17   1 302.307 189.236  30
  -5 -17  -2 1080.43 166.120  23
   5 -17   2 609.886 122.550  38
   5 -17   2 714.384 158.109  30
   5 -16  -7 1622.38 159.068  26
   5 -16  -7 1516.95 258.872  21
   5 -16  -7 1664.38 183.152  28
   5 -16  -6 4018.68 317.188  26
   5 -16  -6 3405.56 434.212  21
   5 -16  -6 3286.56 294.922  28
   5 -16  -5 1856.15 310.444  26
   5 -16  -5 1669.87 262.076  28
   5 -16  -4 12398.4 650.831  26
   5 -16  -4 11826.2 576.095  28
   5 -16  -3 1529.86 371.726  18
   5 -16  -3 996.758 226.364  30
   5 -16  -3 1200.70 245.125  28
  -5 -16   2 12444.7 544.519  23
   5 -16  -2 11190.3 805.168  18
   5 -16  -2 12411.1 611.467  30
   5 -16  -2 13192.4 601.504  28
   5 -16  -1 2879.86 361.414  26
  -5 -16   1 2362.62 285.565  23
   5 -16  -1 2293.93 314.040  30
   5 -16  -1 2056.92 237.793  28
   5 -16   0 1586.52 272.785  26
  -5 -16   0 1464.99 258.767  23
   5 -16   0 1407.50 255.372  38
   5 -16   0 1543.04 292.551  30
   5 -16   1 233.507 183.949  26
  -5 -16  -1 238.033 199.872  23
   5 -16   1 373.082 201.954  38
   5 -16   1 231.914 179.573  36
   5 -16   1 86.2217 219.392  30
  -5 -16  -2 4211.26 304.589  23
   5 -16   2 3465.55 270.855  38
   5 -16   2 4082.03 304.777  30
   5 -16   3 2159.85 148.044  38
   5 -16   3 2346.13 174.796  30
   5 -15  -7 817.491 174.780  26
  -5 -15   7 633.590 151.211  25
   5 -15  -7 705.124 260.735  21
   5 -15  -7 645.783 180.914  28
   5 -15  -6 300.679 223.373  26
  -5 -15   6 373.824 174.907  25
   5 -15  -6 248.170 317.222  21
   5 -15  -6 240.823 201.727  28
   5 -15  -5 2456.07 339.817  26
  -5 -15   5 1965.14 251.920  25
   5 -15  -5 2330.37 456.739  21
   5 -15  -5 2783.93 329.210  28
   5 -15  -4 6020.81 504.788  26
  -5 -15   4 5282.13 355.457  25
   5 -15  -4 6079.44 627.869  21
   5 -15  -4 5544.50 500.638  18
   5 -15  -4 6141.90 435.920  28
   5 -15  -3 4194.74 559.706  21
   5 -15  -3 3475.91 478.025  18
   5 -15  -3 4054.27 356.869  30
   5 -15  -3 4007.82 351.207  28
   5 -15  -2 4794.97 447.839  26
  -5 -15   2 3701.65 316.060  23
   5 -15  -2 4737.82 591.520  21
   5 -15  -2 4320.18 399.384  30
   5 -15  -2 4159.62 344.365  28
   5 -15  -1 1012.90 293.597  26
  -5 -15   1 651.797 233.764  23
   5 -15  -1 573.807 421.430  21
   5 -15  -1 1021.85 282.062  30
   5 -15  -1 739.774 185.877  28
   5 -15   0 194.098 243.633  26
  -5 -15   0 28.0961 244.106  23
   5 -15   0 17.1098 373.454  21
   5 -15   0 186.475 259.930  30
   5 -15   1 530.939 206.652  26
  -5 -15  -1 351.523 236.159  23
   5 -15   1 277.820 373.235  21
   5 -15   1 250.588 238.508  38
   5 -15   1 381.903 191.318  36
   5 -15   1 373.915 253.774  30
  -5 -15  -2 4921.79 350.617  23
   5 -15   2 4264.86 454.775  21
   5 -15   2 4515.95 341.881  38
   5 -15   2 4553.51 276.594  26
  -5 -15  -3 555.726 150.985  23
   5 -15   3 210.937 176.105  21
   5 -15   3 484.781 146.667  38
   5 -15   3 407.184 143.012  30
   5 -14  -8 1426.84 127.066  26
  -5 -14   8 2136.50 165.765  25
   5 -14  -7 526.573 186.926  26
  -5 -14   7 191.020 170.972  25
   5 -14  -7 365.388 277.053  21
   5 -14  -7 587.162 207.937  28
   5 -14  -6 5367.81 416.896  26
  -5 -14   6 4925.51 379.462  25
   5 -14  -6 4648.52 553.142  21
   5 -14  -6 5271.11 404.585  28
   5 -14  -5 596.791 316.437  26
  -5 -14   5 87.5813 193.021  25
   5 -14  -5 320.548 393.212  21
   5 -14  -5 378.548 238.172  28
  -5 -14   4 9773.05 532.245  25
   5 -14  -4 10833.2 803.161  21
   5 -14  -4 10622.7 703.670  18
   5 -14  -4 10018.3 563.072  28
   5 -14  -3 6696.18 522.505  26
  -5 -14   3 6211.44 401.812  25
   5 -14  -3 7606.88 692.301  21
   5 -14  -3 6640.96 622.251  18
   5 -14  -3 6849.27 449.759  28
   5 -14  -2 6730.44 509.840  26
  -5 -14   2 5079.39 379.367  23
   5 -14  -2 6505.50 672.688  21
   5 -14  -2 6747.12 493.173  30
   5 -14  -2 5737.58 411.361  28
   5 -14  -1 25481.1 965.108  26
  -5 -14   1 24242.0 910.859  23
   5 -14  -1 24389.6 1206.62  21
   5 -14  -1 23523.4 957.450  30
   5 -14   0 3126.58 346.123  26
  -5 -14   0 3361.06 375.936  23
   5 -14   0 2828.32 509.971  21
   5 -14   0 3032.39 400.182  30
  -5 -14  -1 3224.04 367.381  23
   5 -14   1 3610.95 522.460  21
   5 -14   1 4033.53 397.702  38
   5 -14   1 3713.35 331.395  36
   5 -14   1 3315.25 392.577  30
   5 -14   1 3200.79 311.440  26
  -5 -14  -2 2689.11 333.247  23
   5 -14   2 2174.22 406.579  21
   5 -14   2 2312.11 307.710  38
   5 -14   2 2498.09 225.222  26
  -5 -14  -3 1278.25 205.372  23
   5 -14   3 824.678 258.561  21
   5 -14   3 1622.67 223.540  38
   5 -14   3 1440.99 202.881  30
  -5 -13   8 5409.18 306.196  25
   5 -13  -8 5543.96 317.765  28
   5 -13  -7 7434.72 432.250  26
  -5 -13   7 6779.53 423.174  25
   5 -13  -7 7171.08 585.775  21
   5 -13  -7 6738.95 433.305  28
   5 -13  -6 8308.14 530.264  26
  -5 -13   6 7320.30 481.973  25
   5 -13  -6 8899.37 717.027  21
   5 -13  -6 8040.88 512.625  28
   5 -13  -5 3000.40 401.122  26
  -5 -13   5 2863.43 335.695  25
   5 -13  -5 2978.91 510.321  21
   5 -13  -5 3324.42 361.711  28
  -5 -13   4 1304.12 270.602  25
   5 -13  -4 986.050 447.245  21
   5 -13  -4 1154.12 325.078  18
   5 -13  -4 1353.11 273.248  28
   5 -13  -3 639.992 288.348  26
  -5 -13   3 696.051 216.058  25
   5 -13  -3 576.293 405.041  21
   5 -13  -3 545.990 315.387  18
   5 -13  -3 535.981 209.823  28
   5 -13  -2 7771.38 533.591  26
  -5 -13   2 6446.99 417.037  25
  -5 -13   2 6602.26 431.469  23
   5 -13  -2 7914.93 702.308  21
  -5 -13   2 6417.81 415.617  32
   5 -13  -2 6924.51 443.072  28
   5 -13  -1 1477.73 304.915  26
  -5 -13   1 1607.25 290.877  23
   5 -13  -1 1859.79 481.079  21
   5 -13  -1 1686.94 340.693  30
   5 -13  -1 1491.58 225.789  28
   5 -13   0 7843.54 493.095  26
  -5 -13   0 7664.27 524.336  23
   5 -13   0 7951.23 718.790  21
   5 -13   0 7377.73 546.443  30
  -5 -13  -1 2786.19 370.987  23
   5 -13   1 2938.13 504.758  21
   5 -13   1 2764.88 294.199  36
   5 -13   1 2589.66 290.127  26
  -5 -13  -2 1987.74 329.688  23
   5 -13   2 1601.62 410.297  21
   5 -13   2 1470.78 303.119  38
   5 -13   2 1673.42 310.817  30
   5 -13   2 1789.44 213.483  26
  -5 -13  -3 267.320 189.161  23
   5 -13   3 241.548 257.981  21
   5 -13   3 250.170 196.419  38
   5 -13   3 156.389 175.110  30
  -5 -13  -4 994.762 116.983  23
   5 -13   4 178.094 128.395  21
   5 -13   4 866.103 133.625  38
   5 -13   4 463.450 91.0189  30
   5 -12  -8 310.467 157.597  26
  -5 -12   8 310.061 175.665  25
   5 -12  -8 203.722 167.649  28
   5 -12  -7 7590.72 472.726  26
  -5 -12   7 8546.18 507.781  25
   5 -12  -7 7097.60 617.792  21
   5 -12  -7 7285.02 474.112  28
   5 -12  -6 6760.29 518.966  26
  -5 -12   6 6735.68 486.797  25
   5 -12  -6 6471.09 649.308  21
   5 -12  -6 6310.37 475.781  28
   5 -12  -5 767.647 311.422  26
  -5 -12   5 864.041 268.437  25
   5 -12  -5 825.892 419.401  21
   5 -12  -5 614.313 255.034  28
  -5 -12   4 1703.36 303.032  25
   5 -12  -4 1226.87 412.663  21
   5 -12  -4 1485.79 337.795  18
   5 -12  -4 1415.91 269.404  28
   5 -12  -3 9998.92 597.073  26
  -5 -12   3 8888.33 525.379  25
   5 -12  -3 10386.0 763.368  21
   5 -12  -3 7711.66 653.651  18
  -5 -12   3 8790.16 467.609  34
  -5 -12   3 7821.94 465.757  32
   5 -12  -3 8389.92 495.404  28
   5 -12  -2 1305.45 293.473  26
  -5 -12   2 1026.04 221.290  25
  -5 -12   2 685.343 211.342  23
   5 -12  -2 1111.35 397.368  21
  -5 -12   2 857.761 273.033  34
  -5 -12   2 1139.21 246.246  32
   5 -12  -2 1164.20 220.684  28
   5 -12  -1 13969.4 686.772  26
  -5 -12   1 13690.4 611.350  25
  -5 -12   1 15017.1 699.388  23
   5 -12  -1 14228.4 909.436  21
  -5 -12   1 12321.1 626.113  34
  -5 -12   1 14277.9 650.332  32
   5 -12   0 8074.04 508.052  26
   5 -12   0 7411.59 704.674  21
   5 -12   0 8897.42 588.373  30
   5 -12   1 3148.90 532.011  21
   5 -12   1 3156.68 307.953  36
   5 -12   1 3423.21 325.174  26
   5 -12   2 10524.1 765.721  21
   5 -12   2 13040.6 674.507  38
   5 -12   2 13153.0 641.547  30
   5 -12   2 11276.4 503.130  26
  -5 -12  -3 2455.06 300.852  23
   5 -12   3 1910.10 358.383  21
   5 -12   3 1917.52 295.256  38
   5 -12   3 2416.59 274.969  30
  -5 -12  -4 1307.80 156.712  23
   5 -12   4 1370.26 182.433  38
   5 -12   4 1112.63 137.765  30
  -5 -11   9 425.995 115.377  25
   5 -11  -8 148.130 174.867  26
  -5 -11   8 221.469 199.520  25
   5 -11  -8 293.998 196.233  28
   5 -11  -7 2195.82 330.984  26
  -5 -11   7 2204.51 334.025  25
   5 -11  -7 2252.31 435.285  21
   5 -11  -7 1978.35 316.489  28
  -5 -11   6 6838.18 513.068  25
   5 -11  -6 6982.26 664.993  21
   5 -11  -6 6449.28 489.724  28
  -5 -11   5 39279.7 1347.45  25
   5 -11  -5 39400.0 1603.64  21
   5 -11  -5 37292.2 1309.36  28
   5 -11  -4 2598.92 388.086  26
  -5 -11   4 2513.68 328.557  25
   5 -11  -4 2581.11 469.236  21
   5 -11  -4 2207.43 301.017  28
   5 -11  -3 7431.73 513.206  26
  -5 -11   3 6768.47 464.511  25
   5 -11  -3 7175.25 646.879  21
  -5 -11   3 5211.07 406.046  34
  -5 -11   3 7118.80 460.129  32
   5 -11  -3 6404.36 572.948  18
   5 -11  -3 6522.91 426.377  28
   5 -11  -2 22710.3 903.333  26
  -5 -11   2 21406.3 844.359  25
  -5 -11   2 20749.0 812.260  23
  -5 -11   2 19601.7 830.909  34
  -5 -11   2 21293.8 849.995  32
   5 -11  -2 21133.6 797.529  28
   5 -11  -1 23546.1 917.834  26
  -5 -11   1 22630.2 860.698  25
  -5 -11   1 22849.4 922.959  23
   5 -11  -1 23612.7 1157.77  21
  -5 -11   1 23663.5 904.413  32
   5 -11   0 3428.87 339.536  26
  -5 -11   0 3317.80 401.998  23
   5 -11   0 3669.69 531.228  21
  -5 -11   0 2736.61 357.323  34
  -5 -11  -1 7335.67 556.874  23
   5 -11   1 7609.19 708.413  21
   5 -11   1 7099.43 436.504  36
   5 -11   1 7653.69 553.463  30
   5 -11   1 7039.02 446.130  26
   5 -11   2 4411.90 447.685  38
   5 -11   2 3908.53 406.473  30
  -5 -11  -3 5495.74 409.609  23
   5 -11   3 5209.50 416.986  38
   5 -11   3 4700.80 359.499  30
  -5 -11  -4 10203.8 407.342  23
   5 -11   4 8170.62 341.380  30
   5 -10  -9 704.739 115.143  26
  -5 -10   8 1284.87 267.008  25
   5 -10  -8 1498.65 260.157  28
  -5 -10   7 630.199 302.171  25
   5 -10  -7 463.566 361.795  21
   5 -10  -7 806.868 284.186  28
  -5 -10   6 9897.89 624.299  25
   5 -10  -6 10260.6 778.085  21
   5 -10  -6 9998.68 612.106  28
  -5 -10   5 11487.4 653.517  25
   5 -10  -5 11463.9 814.861  21
   5 -10  -5 10404.1 600.427  28
   5 -10  -4 9453.85 575.347  26
  -5 -10   4 9374.17 553.467  25
   5 -10  -4 8285.69 666.828  21
  -5 -10   4 8010.39 471.504  32
   5 -10  -4 8045.31 495.163  28
   5 -10  -3 606.610 259.383  26
  -5 -10   3 293.803 218.748  25
   5 -10  -3 647.509 336.797  21
  -5 -10   3 193.584 264.764  34
  -5 -10   3 395.810 227.590  32
   5 -10  -3 448.254 182.042  28
   5 -10  -2 1217.03 268.861  26
  -5 -10   2 963.198 240.432  25
  -5 -10   2 749.352 206.001  23
   5 -10  -2 1255.45 369.831  21
  -5 -10   2 560.308 303.303  34
  -5 -10   2 912.581 274.028  32
   5 -10  -2 1018.62 186.342  28
   5 -10  -1 19165.0 795.209  26
  -5 -10   1 18797.1 775.744  25
  -5 -10   1 19351.8 831.256  23
   5 -10  -1 19707.7 1039.69  21
  -5 -10   1 19805.2 822.228  32
   5 -10   0 37716.0 1224.68  26
  -5 -10   0 36578.0 1197.42  25
  -5 -10   0 40297.9 1362.00  23
   5 -10   0 38098.9 1545.06  21
  -5 -10   0 35901.6 1218.15  34
  -5 -10   0 36475.1 1232.82  32
  -5 -10  -1 16249.4 809.088  23
  -5 -10  -1 15215.6 708.590  33
   5 -10   1 17552.8 772.348  30
   5 -10   1 15413.0 646.470  26
   5 -10   2-101.327 294.398  38
  -5 -10  -2 178.473 249.949  33
   5 -10   2 219.381 250.022  30
  -5 -10  -3 14410.5 680.950  23
  -5 -10  -3 14648.8 648.083  33
   5 -10   3 12827.1 598.958  30
  -5 -10  -4 4738.05 307.184  23
   5 -10   4 4706.73 332.924  38
   5 -10   4 4379.24 261.275  30
   5  -9  -9 272.111 132.439  26
   5  -9  -8 511.113 149.250   3
   5  -9  -8 668.186 247.208  28
  -5  -9   7 10081.9 629.748  25
  -5  -9   7 9477.42 482.102   4
  -5  -9   7 8717.25 449.638   5
   5  -9  -7 9691.24 747.344  21
   5  -9  -7 10922.3 616.880  28
  -5  -9   6 30888.2 1126.27  25
   5  -9  -6 33464.8 1373.93  21
   5  -9  -6 31139.5 1112.59  28
  -5  -9   5 1950.59 257.593   4
  -5  -9   5 2199.59 357.650  25
   5  -9  -5 1733.77 415.550  21
   5  -9  -5 1466.06 289.030  28
  -5  -9   4 9542.23 558.577  25
   5  -9  -4 8918.25 678.723  21
  -5  -9   4 6715.07 550.427  20
  -5  -9   4 5770.80 400.475  34
  -5  -9   4 8915.55 502.255  32
   5  -9  -4 8102.59 484.407  28
   5  -9  -3 3323.11 357.744  26
  -5  -9   3 3393.78 347.033  25
   5  -9  -3 3979.57 471.655  21
  -5  -9   3 3025.45 351.174  34
  -5  -9   3 4087.16 373.793  32
   5  -9  -3 2766.40 274.067  28
   5  -9  -2 9512.05 544.791  26
  -5  -9   2 9819.09 551.829  25
  -5  -9   2 9289.68 519.566  23
   5  -9  -2 10533.6 716.237  21
  -5  -9   2 10395.7 590.381  34
  -5  -9   2 10989.5 586.058  32
   5  -9  -1 12159.9 608.632  26
  -5  -9   1 12508.0 620.641  25
  -5  -9   1 13462.6 672.725  23
   5  -9  -1 13682.4 832.833  21
  -5  -9   1 14673.6 689.717  32
   5  -9   0 8066.30 465.656  26
  -5  -9   0 8151.98 479.446  25
  -5  -9   0 8675.62 577.008  23
   5  -9   0 9018.66 714.164  21
  -5  -9   0 7468.16 446.404  20
  -5  -9   0 9106.24 549.806  34
  -5  -9   0 8165.91 523.912  32
  -5  -9   0 8207.00 444.126   4
  -5  -9  -1 9487.15 640.190  23
  -5  -9  -1 8041.56 482.917  20
  -5  -9  -1 7638.22 494.412  34
  -5  -9  -1 8685.37 529.903  33
  -5  -9  -1 9860.55 486.269   4
   5  -9   1 8272.40 549.435  30
   5  -9   1 7795.71 449.472  26
  -5  -9  -2 5913.25 414.367  20
  -5  -9  -2 7158.08 492.312  33
   5  -9   2 6900.69 490.151  30
  -5  -9  -3 13740.8 678.630  23
  -5  -9  -3 11945.2 530.869  20
   5  -9   3 11303.2 655.588  38
  -5  -9  -3 14297.4 640.088  33
   5  -9   3 12561.0 591.053  30
  -5  -9  -4 4239.18 312.747  23
   5  -9   4 4407.66 346.549  38
  -5  -9  -4 4688.30 331.326  33
   5  -9   4 3929.00 254.092  30
   5  -9   5 381.648 98.9045  38
  -5  -8   9 1431.58 218.910  25
   5  -8  -9 1444.96 221.042  28
   5  -8  -8 282.043 177.727   3
  -5  -8   8 462.638 169.612   5
   5  -8  -8 330.028 241.785  28
  -5  -8   7 818.944 218.867   4
   5  -8  -7 1139.77 393.650  21
  -5  -8   7 939.997 214.459   5
   5  -8  -7 647.197 290.966  28
  -5  -8   6 10388.2 651.210  25
  -5  -8   6 10103.9 541.029   4
  -5  -8   6 10947.2 651.017  22
  -5  -8   6 9819.20 517.237   5
   5  -8  -6 11984.7 806.419  21
   5  -8  -6 11169.1 639.301  28
  -5  -8   5 27693.8 1073.36  25
  -5  -8   5 25986.4 941.912   4
  -5  -8   5 23334.6 970.847  22
   5  -8  -5 26945.4 1214.19  21
  -5  -8   5 26969.7 1118.47  20
  -5  -8   5 24105.4 928.347  32
   5  -8  -5 26063.3 1004.30  28
  -5  -8   4 20500.6 785.446   4
  -5  -8   4 23396.4 900.654  25
   5  -8  -4 22224.1 1033.25  21
  -5  -8   4 20511.5 826.540  20
  -5  -8   4 23080.9 854.444  32
   5  -8  -4 21240.7 820.337  28
  -5  -8   3 3676.99 314.386   4
   5  -8  -3 3540.43 348.749  26
  -5  -8   3 4092.23 375.748  25
   5  -8  -3 3701.97 444.943  21
  -5  -8   3 3304.03 328.238  20
  -5  -8   3 3669.70 363.990  34
  -5  -8   3 3782.49 360.491  32
   5  -8  -3 2818.89 268.186  28
   5  -8  -2 329.675 182.026  26
  -5  -8   2 373.006 200.470  25
  -5  -8   2 251.989 174.636   4
  -5  -8   2 164.402 165.683  23
   5  -8  -2 379.449 272.434  21
  -5  -8   2 284.587 191.034  20
  -5  -8   2 225.497 252.404  34
  -5  -8   2 355.363 232.339  32
   5  -8  -1 15276.1 666.235  26
  -5  -8   1 16612.5 713.609  25
  -5  -8   1 15576.6 740.512  23
   5  -8  -1 16997.9 894.704  21
  -5  -8   1 15036.5 664.588  20
  -5  -8   1 17634.5 769.619  32
  -5  -8   1 15409.9 659.722   4
   5  -8   0 11284.6 548.860  26
  -5  -8   0 12528.3 611.135  25
  -5  -8   0 12841.1 703.918  23
  -5  -8   0 12091.6 591.959  20
  -5  -8   0 13400.4 662.589  34
  -5  -8   0 12764.2 598.479  33
  -5  -8   0 13426.0 661.263  32
  -5  -8   0 12216.6 570.915   4
  -5  -8  -1 74286.1 2151.81  23
  -5  -8  -1 67564.9 1958.96  20
  -5  -8  -1 65653.6 1929.65  34
  -5  -8  -1 72820.8 1992.60  33
  -5  -8  -1 65088.1 1893.36   4
   5  -8   1 73687.4 2039.43  30
  -5  -8  -2 3523.53 323.958  12
  -5  -8  -2 3523.43 344.896  20
  -5  -8  -2 2638.16 273.171  34
  -5  -8  -2 3826.65 386.080  33
   5  -8   2 3474.65 369.874  30
  -5  -8  -2 3374.13 359.275   3
  -5  -8  -3 17683.5 825.810  23
  -5  -8  -3 15230.9 644.532  12
  -5  -8  -3 17247.2 695.092  20
   5  -8   3 18435.0 812.806  38
  -5  -8  -3 18988.0 758.867  33
   5  -8   3 17331.9 700.760  30
  -5  -8  -3 15533.8 706.411   3
  -5  -8  -4 1393.55 244.383  23
  -5  -8  -4 1547.72 194.221  20
   5  -8   4 2127.34 274.499  38
   5  -8   4 1407.12 194.927   5
  -5  -8  -4 1708.57 260.534  33
   5  -8   4 1422.57 174.383  30
   5  -8   5 2550.99 178.562  38
  -5  -8  -5 2815.48 197.585  33
   5  -7  -9 637.942 141.412   3
  -5  -7   9 580.203 187.211  25
  -5  -7   9 452.101 139.572   4
  -5  -7   9 527.956 137.367   5
   5  -7  -9 563.669 197.276  28
  -5  -7   8 4688.07 428.243  25
  -5  -7   8 4530.94 351.119   4
   5  -7  -8 3946.05 340.249   3
  -5  -7   8 4555.90 340.245   5
   5  -7  -8 5078.20 436.225  28
  -5  -7   7 1759.60 276.905   4
  -5  -7   7 1450.13 349.699  22
  -5  -7   7 1857.71 276.084   5
   5  -7  -7 994.320 365.222  21
   5  -7  -7 1613.80 345.649  28
  -5  -7   6 23993.6 917.420   4
  -5  -7   6 21930.2 993.261  22
   5  -7  -6 23470.5 1162.86  21
  -5  -7   6 24458.0 904.477   5
  -5  -7   6 24767.0 1186.67  20
   5  -7  -6 23758.5 987.772  28
  -5  -7   5 14640.4 724.820  25
  -5  -7   5 13297.3 633.599   4
  -5  -7   5 13235.8 692.954  22
   5  -7  -5 13899.4 827.524  21
  -5  -7   5 14366.5 628.700   5
  -5  -7   5 12102.5 629.134  12
  -5  -7   5 13763.2 856.054  20
  -5  -7   5 13348.9 645.896  32
   5  -7  -5 12754.0 660.518  28
  -5  -7   4 11666.1 556.015   4
  -5  -7   4 10487.2 594.611  25
   5  -7  -4 11374.5 702.369  21
  -5  -7   4 11165.4 583.617  20
  -5  -7   4 11600.6 588.752  32
   5  -7  -4 10321.6 536.295  28
  -5  -7   3 2992.26 295.472   4
  -5  -7   3 3247.11 337.112  25
   5  -7  -3 2428.72 368.431  21
  -5  -7   3 2931.01 312.275  20
  -5  -7   3 2726.91 333.541  34
  -5  -7   3 3079.16 343.191  32
   5  -7  -2 83.1021 161.893  26
  -5  -7   2 85.0380 187.769  25
  -5  -7   2 198.801 173.132   4
  -5  -7   2 196.799 159.763  23
   5  -7  -2 212.329 251.410  21
  -5  -7   2 190.599 189.092  20
  -5  -7   2 232.687 266.979  34
  -5  -7   2 59.0160 220.593  32
   5  -7  -1 2939.27 278.012  26
  -5  -7   1 2974.57 317.011  25
  -5  -7   1 3616.02 367.891  23
   5  -7  -1 3287.51 423.075  21
  -5  -7   1 3291.95 317.925  20
  -5  -7   1 3637.79 373.410  32
  -5  -7   1 3476.27 310.275   4
  -5  -7   0 81506.6 2204.49  25
  -5  -7   0 83155.2 2353.63  23
  -5  -7   0 70574.4 2112.29  12
  -5  -7   0 78317.2 2182.84  20
  -5  -7   0 86120.3 2227.38  34
  -5  -7   0 75117.1 2114.64  33
  -5  -7   0 81984.0 2229.70  32
  -5  -7   0 78192.9 2149.38   4
  -5  -7  -1 357.143 194.073   4
  -5  -7  -1 165.059 280.999  23
  -5  -7  -1 241.771 230.291   3
  -5  -7  -1 243.561 189.532  12
  -5  -7  -1 264.094 232.931  20
  -5  -7  -1 35.1784 255.994  34
  -5  -7  -1 208.383 210.243  33
   5  -7   1 270.465 231.963  30
  -5  -7  -2 2027.16 289.471  12
  -5  -7  -2 1584.30 295.378  20
  -5  -7  -2 1689.04 246.815  34
  -5  -7  -2 1904.50 318.528  33
   5  -7   2 2016.36 304.298  30
  -5  -7  -2 1753.41 311.411   3
  -5  -7  -3 3923.60 419.635  23
  -5  -7  -3 3261.66 319.316  12
  -5  -7  -3 3726.14 349.229  20
   5  -7   3 4480.70 427.381  38
  -5  -7  -3 4080.67 381.382  33
   5  -7   3 3717.53 331.914  30
  -5  -7  -3 3553.77 361.382   3
  -5  -7  -4 4620.62 356.823  23
  -5  -7  -4 3419.50 273.554  12
  -5  -7  -4 4424.35 317.795  20
   5  -7   4 4937.05 370.374  38
  -5  -7  -4 4561.66 346.897  33
   5  -7   4 3886.93 247.729  30
  -5  -7  -4 4297.02 331.852   3
  -5  -7  -5 333.269 83.9496  23
   5  -7   5 691.273 130.585  38
  -5  -7  -5 796.134 161.545  33
  -5  -6   9 1178.60 228.610  25
  -5  -6   9 1629.80 207.335   4
  -5  -6   9 1280.19 192.320   5
   5  -6  -9 1207.40 189.677   3
   5  -6  -9 1578.24 249.568  28
  -5  -6   8 6093.31 471.242  25
  -5  -6   8 5187.09 382.744   5
   5  -6  -8 4810.81 441.086  28
  -5  -6   7 396.854 304.834  25
  -5  -6   7 317.251 312.182  22
   5  -6  -7 192.988 333.824  21
  -5  -6   7 863.934 248.770   5
   5  -6  -7 296.448 275.349  28
  -5  -6   6 21156.0 862.582   4
  -5  -6   6 21251.8 969.934  22
   5  -6  -6 21489.2 1080.23  21
  -5  -6   6 20583.3 837.751   5
  -5  -6   6 18895.0 866.245  12
  -5  -6   6 19070.7 813.446  32
   5  -6  -6 20915.5 911.792  28
  -5  -6   5 9601.76 603.765  25
  -5  -6   5 11077.9 566.293   4
  -5  -6   5 9830.12 598.952  22
   5  -6  -5 10839.4 714.769  21
  -5  -6   5 10895.8 547.628   5
  -5  -6   5 9073.01 550.385  12
  -5  -6   5 8464.23 712.398  20
  -5  -6   5 9932.04 557.599  32
   5  -6  -5 10035.1 563.643  28
  -5  -6   4 3153.72 341.381  25
  -5  -6   4 2962.78 300.439   4
   5  -6  -4 3132.55 393.398  21
  -5  -6   4 2973.48 310.353  12
  -5  -6   4 3048.04 339.912  20
  -5  -6   4 2275.98 288.748  34
  -5  -6   4 3174.20 340.655  32
   5  -6  -4 2767.09 276.566  28
  -5  -6   3 22373.2 816.354   4
  -5  -6   3 21465.8 853.900  25
   5  -6  -3 21947.8 954.059  21
  -5  -6   3 19668.9 774.849  12
  -5  -6   3 20862.0 817.104  20
  -5  -6   3 18360.1 790.180  34
  -5  -6   3 24029.8 883.036  32
   5  -6  -2 14254.5 612.978  26
  -5  -6   2 15174.9 675.607  25
  -5  -6   2 12992.2 620.386  23
   5  -6  -2 15190.8 769.986  21
  -5  -6   2 13190.5 597.653  12
  -5  -6   2 14423.4 640.819  20
  -5  -6   2 15302.1 681.716  34
  -5  -6   2 15883.5 705.501  32
  -5  -6   2 15551.5 647.633   4
   5  -6  -1 9705.72 473.621  26
  -5  -6   1 10282.1 550.897  25
  -5  -6   1 9868.64 573.894  23
   5  -6  -1 11511.2 676.618  21
  -5  -6   1 9398.31 498.623  12
  -5  -6   1 9961.99 533.155  20
  -5  -6   1 12011.8 611.586  32
  -5  -6   1 10450.3 530.264   4
  -5  -6   0 48242.9 1498.24  25
  -5  -6   0 52111.6 1612.85  23
  -5  -6   0 46625.4 1460.26  12
  -5  -6   0 49030.1 1499.28  20
  -5  -6   0 49470.5 1499.04  34
  -5  -6   0 45284.7 1398.92  33
  -5  -6   0 47612.2 1466.67   4
  -5  -6   0 49364.8 1451.98  27
  -5  -6  -1 61199.3 1892.06  23
  -5  -6  -1 56070.9 1710.97  12
  -5  -6  -1 57040.9 1741.31  20
  -5  -6  -1 56626.9 1682.41  34
  -5  -6  -1 55645.6 1670.87  33
  -5  -6  -1 53812.0 1687.32  32
  -5  -6  -1 57100.2 1682.66   4
   5  -6   1 59699.7 1734.44  30
  -5  -6  -1 53535.3 1761.06   3
  -5  -6  -2 13759.2 670.965  33
  -5  -6  -2 14486.7 706.936  20
   5  -6   2 13460.7 651.823  30
  -5  -6  -2 14096.1 728.153   3
  -5  -6  -3 3401.20 414.384  23
  -5  -6  -3 3548.32 368.733  20
   5  -6   3 3896.24 408.410  38
  -5  -6  -3 3275.60 363.918  33
   5  -6   3 3216.92 303.728  30
  -5  -6  -3 3483.73 378.237   3
  -5  -6  -4 9524.88 511.030  23
  -5  -6  -4 9117.48 473.474  12
  -5  -6  -4 9884.00 503.615  20
   5  -6   4 9535.73 503.699  38
  -5  -6  -4 9957.19 511.247  33
  -5  -6  -4 9669.76 519.597   3
  -5  -6  -5 3042.37 206.713  20
   5  -6   5 2452.30 194.977  38
   5  -6   5 2509.89 193.559   5
  -5  -6  -5 3250.24 236.868  33
  -5  -5   9 3527.84 309.304  25
  -5  -5   9 4151.19 311.544   4
   5  -5  -9 3482.72 288.446   3
  -5  -5   9 3903.86 294.307   5
   5  -5  -9 3272.35 332.067  28
  -5  -5   8 4333.03 417.839  25
  -5  -5   8 4019.29 457.791  22
  -5  -5   8 5137.09 401.866   5
   5  -5  -8 4495.66 436.026  28
  -5  -5   7 1764.81 344.478  25
  -5  -5   7 2098.32 403.958  22
   5  -5  -7 1488.32 384.555  21
  -5  -5   7 1406.58 284.364   5
  -5  -5   7 1655.48 269.113  32
   5  -5  -7 1703.98 331.458  28
  -5  -5   6 7298.72 541.431  25
  -5  -5   6 7770.76 582.988  22
   5  -5  -6 7219.50 615.947  21
  -5  -5   6 7150.41 482.815   5
  -5  -5   6 6252.91 508.527  12
  -5  -5   6 7143.84 478.943  32
   5  -5  -6 6192.67 492.198  28
  -5  -5   5 2914.43 325.173   4
  -5  -5   5 3218.72 376.263  22
   5  -5  -5 2645.65 379.313  21
  -5  -5   5 2867.52 315.554   5
  -5  -5   5 2193.48 319.370  12
  -5  -5   5 2427.27 459.652  20
  -5  -5   5 2930.55 339.646  32
   5  -5  -5 2671.29 313.518  28
  -5  -5   4 21196.6 882.438  25
  -5  -5   4 23139.9 856.274   4
  -5  -5   4 22649.1 880.301  22
   5  -5  -4 20722.9 942.985  21
  -5  -5   4 23742.3 838.489   5
  -5  -5   4 21616.9 850.055  12
  -5  -5   4 22905.3 888.322  20
  -5  -5   4 19506.0 785.665  34
  -5  -5   4 24610.9 903.170  32
   5  -5  -4 20315.8 795.771  28
  -5  -5   3 43430.3 1315.17   4
  -5  -5   3 44344.1 1364.55  25
   5  -5  -3 41319.5 1426.03  21
  -5  -5   3 40718.7 1288.40  12
  -5  -5   3 41925.9 1320.58  20
  -5  -5   3 37544.8 1284.50  34
  -5  -5   3 46231.3 1385.35  32
  -5  -5   2 41877.2 1273.80   4
   5  -5  -2 39451.4 1216.37  26
  -5  -5   2 40558.8 1295.03  25
  -5  -5   2 37311.6 1260.77  23
   5  -5  -2 41357.5 1399.39  21
  -5  -5   2 39898.5 1250.55  12
  -5  -5   2 39739.9 1265.91  20
  -5  -5   2 41907.7 1304.29  34
  -5  -5   2 42968.4 1331.19  32
  -5  -5   1 2290.72 284.878  25
  -5  -5   1 1810.15 288.389  23
   5  -5  -1 2240.76 329.846  21
  -5  -5   1 1929.09 262.365  12
  -5  -5   1 1899.41 273.304  20
  -5  -5   1 2380.93 322.541  32
  -5  -5   1 2251.72 271.194   4
  -5  -5   0 7604.85 481.350  25
  -5  -5   0 7867.81 545.884  23
  -5  -5   0 7524.99 475.009  12
  -5  -5   0 8224.61 502.848  20
  -5  -5   0 7099.60 423.937  37
  -5  -5   0 8300.83 505.928  34
  -5  -5   0 8495.07 486.244   4
  -5  -5   0 8292.53 474.880  27
  -5  -5   0 7062.78 498.037   3
  -5  -5  -1 15663.3 804.885  23
  -5  -5  -1 14533.9 709.748  20
  -5  -5  -1 14755.8 673.186  37
  -5  -5  -1 13903.0 656.248  34
  -5  -5  -1 14082.7 640.974  33
  -5  -5  -1 13306.5 664.744  32
  -5  -5  -1 14917.6 671.108   4
   5  -5   1 14105.2 653.653  30
  -5  -5  -1 13552.0 715.456   3
  -5  -5  -1 16038.3 709.833  27
  -5  -5  -2 1050.74 299.800   3
  -5  -5  -2 1044.76 299.899  20
  -5  -5  -2 956.664 298.045  37
  -5  -5  -2 655.534 216.994  34
  -5  -5  -2 788.841 249.849  33
   5  -5   2 776.802 224.539  30
  -5  -5  -2 968.272 303.885  27
  -5  -5  -3 3633.25 431.371  23
   5  -5   3 3269.94 372.312  38
  -5  -5  -3 3563.80 368.107  33
   5  -5   3 3282.84 292.697  30
  -5  -5  -3 3306.49 393.843   3
  -5  -5  -4 1361.87 269.042  23
  -5  -5  -4 1644.77 275.336  20
   5  -5   4 1847.61 267.274  38
  -5  -5  -4 1566.09 269.595  33
  -5  -5  -4 1568.77 280.403   3
  -5  -5  -5 2811.55 215.599  12
  -5  -5  -5 3205.32 235.530  20
   5  -5   5 2614.78 198.375  38
   5  -5   5 2704.84 223.504   5
  -5  -5  -5 2985.70 240.256  33
  -5  -5  -5 3144.37 245.515   3
   5  -4 -10 1948.57 142.478   3
   5  -4 -10 1740.92 162.861  28
  -5  -4   9 1350.57 230.143  25
   5  -4  -9 1455.39 237.934   3
  -5  -4   9 1546.31 238.334   5
   5  -4  -9 1736.09 279.641  28
  -5  -4   8 1958.69 326.611  25
  -5  -4   8 2064.33 404.056  22
  -5  -4   8 2278.10 327.794   5
   5  -4  -8 2101.41 358.872  28
  -5  -4   7 2897.19 390.300  25
  -5  -4   7 2739.57 434.682  22
   5  -4  -7 2632.80 419.866  21
  -5  -4   7 2977.06 357.812   5
  -5  -4   7 2619.34 324.033  32
  -5  -4   7 2221.46 529.611  15
  -5  -4   6 20300.4 908.319  25
  -5  -4   6 21946.0 985.883  22
   5  -4  -6 17976.5 978.688  21
  -5  -4   6 21264.2 872.896   5
  -5  -4   6 20202.5 915.566  12
  -5  -4   6 23424.9 900.825  32
  -5  -4   6 17570.1 1049.84  15
  -5  -4   5 4134.26 398.570  25
  -5  -4   5 3723.47 356.206   4
  -5  -4   5 4333.01 387.957  32
  -5  -4   5 4663.92 436.203  22
   5  -4  -5 3443.11 409.303  21
  -5  -4   5 4330.58 366.879   5
  -5  -4   5 3986.70 393.408  12
  -5  -4   5 5158.71 475.384  20
   5  -4  -5 3156.31 327.976  28
  -5  -4   5 2976.47 424.813  15
  -5  -4   4 39396.0 1213.49   4
  -5  -4   4 37069.6 1239.39  22
   5  -4  -4 37738.1 1312.76  21
  -5  -4   4 39839.2 1193.47   5
  -5  -4   4 37387.7 1214.87  12
  -5  -4   4 37769.0 1235.61  20
  -5  -4   4 32306.5 1120.54  34
  -5  -4   4 41875.1 1266.68  32
   5  -4  -4 29605.4 1106.42  28
  -5  -4   3 26071.3 908.906   4
  -5  -4   3 24754.5 928.299  25
   5  -4  -3 23848.1 957.863  21
  -5  -4   3 25258.2 905.935  12
  -5  -4   3 25066.1 913.527  20
  -5  -4   3 24134.7 897.484  34
  -5  -4   3 25021.0 940.638  32
  -5  -4   2 16097.5 672.302   4
   5  -4  -2 14480.4 597.256  26
  -5  -4   2 16505.7 696.696  25
  -5  -4   2 14993.6 663.802  23
   5  -4  -2 15346.9 724.306  21
  -5  -4   2 15461.7 659.290  12
  -5  -4   2 16432.4 688.669  20
  -5  -4   2 17036.5 706.849  34
  -5  -4   2 16974.1 720.710  32
  -5  -4   1 19421.1 773.883  25
  -5  -4   1 19051.0 818.066  23
   5  -4  -1 17740.1 813.944  21
  -5  -4   1 17548.3 740.024  12
  -5  -4   1 18990.7 772.455  20
  -5  -4   1 18568.9 746.175   4
  -5  -4   0 2502.42 302.725  25
  -5  -4   0 2608.07 351.935  23
  -5  -4   0 2367.28 305.029  12
  -5  -4   0 2532.87 319.234  20
  -5  -4   0 2631.23 279.929  37
  -5  -4   0 3135.07 355.618  34
  -5  -4   0 2694.22 335.723  32
  -5  -4   0 2926.19 318.030   4
  -5  -4   0 2851.90 312.787  27
  -5  -4   0 2401.13 317.762   3
  -5  -4  -1 62258.4 1896.67  23
  -5  -4  -1 60843.2 1773.90  20
  -5  -4  -1 58950.8 1703.95  37
  -5  -4  -1 57760.8 1637.10  35
  -5  -4  -1 53564.6 1659.59  34
  -5  -4  -1 54706.4 1644.10  33
  -5  -4  -1 51123.4 1654.08  32
  -5  -4  -1 58924.4 1711.32   4
   5  -4   1 57024.1 1670.49  30
  -5  -4  -1 56769.5 1792.21   3
  -5  -4  -1 64461.3 1770.40  27
  -5  -4  -2 1030.77 304.707   3
  -5  -4  -2 686.509 292.918  37
  -5  -4  -2 905.589 229.028  34
  -5  -4  -2 621.208 242.069  33
   5  -4   2 1190.05 233.439  30
  -5  -4  -2 874.911 316.271  27
  -5  -4  -3 14248.3 780.770  23
   5  -4   3 14100.6 702.072  38
  -5  -4  -3 15436.2 741.968  37
  -5  -4  -3 11764.7 657.282  33
  -5  -4  -3 12112.0 719.048   3
  -5  -4  -4 3103.45 336.534  23
  -5  -4  -4 3131.83 347.984  20
   5  -4   4 3113.78 301.576  38
  -5  -4  -4 3134.23 330.084  33
  -5  -4  -4 3184.69 354.575   3
  -5  -4  -5 2233.84 223.985  12
  -5  -4  -5 2429.47 237.891  20
   5  -4   5 1655.59 165.666  38
   5  -4   5 2199.37 225.182   5
  -5  -4  -5 1979.59 223.419  33
  -5  -4  -5 2140.56 235.700   3
  -5  -3  10 2527.90 187.795   4
  -5  -3  10 3025.21 190.053   5
   5  -3 -10 2825.81 182.209   3
   5  -3  -9 976.194 231.347   3
  -5  -3   9 846.609 204.713  25
  -5  -3   9 1043.95 229.231   5
   5  -3  -9 1094.88 259.658  28
  -5  -3   8 8916.05 556.349  25
  -5  -3   8 9326.27 653.595  22
  -5  -3   8 10714.6 588.977   5
  -5  -3   8 9255.04 496.109  32
  -5  -3   8 7955.96 748.118  15
  -5  -3   7 4005.32 424.219  25
  -5  -3   7 4361.12 500.320  22
  -5  -3   7 3596.31 400.995   5
  -5  -3   7 4040.38 387.188  32
  -5  -3   7 3683.80 594.277  15
  -5  -3   6 2987.54 377.647  25
  -5  -3   6 2914.91 418.879  22
   5  -3  -6 2794.75 396.388  21
  -5  -3   6 3176.60 359.765   5
  -5  -3   6 2640.13 390.016  12
  -5  -3   6 3286.65 375.307  32
  -5  -3   6 2322.31 472.769  15
  -5  -3   5 14862.1 708.389  25
  -5  -3   5 13553.8 723.783  22
   5  -3  -5 13186.7 735.002  21
  -5  -3   5 14464.9 660.997   5
  -5  -3   5 14123.1 698.260  12
  -5  -3   5 14738.6 722.472  20
  -5  -3   5 14649.5 693.735  32
  -5  -3   4 2593.02 308.905  25
  -5  -3   4 2617.31 291.805   4
  -5  -3   4 2219.98 301.063  22
  -5  -3   4 2366.76 276.246   5
  -5  -3   4 2696.84 324.919  12
  -5  -3   4 2355.78 317.926  20
  -5  -3   4 1705.22 259.191  34
  -5  -3   4 2340.69 310.653  32
  -5  -3   4 1740.11 321.360  10
  -5  -3   3 6285.93 405.424   4
  -5  -3   3 6249.21 412.074  12
  -5  -3   3 6092.45 418.711  20
  -5  -3   3 6320.80 426.473  34
  -5  -3   3 6163.42 429.016  32
  -5  -3   2 1949.04 253.667   4
  -5  -3   2 1772.28 257.586  25
  -5  -3   2 1632.82 238.409  23
  -5  -3   2 1638.25 257.302  12
  -5  -3   2 1737.35 263.133  20
  -5  -3   2 1817.51 290.313  34
  -5  -3   1 8599.92 489.948  25
  -5  -3   1 8135.99 509.860  23
  -5  -3   1 8220.90 480.280  12
  -5  -3   1 7821.43 482.603  20
  -5  -3   1 7602.56 484.563  32
  -5  -3   1 9256.86 469.239  27
  -5  -3   1 8709.49 484.279   4
  -5  -3   0 46686.4 1464.22  25
  -5  -3   0 51023.2 1592.41  23
  -5  -3   0 45052.6 1455.66  12
  -5  -3   0 46872.2 1482.66  20
  -5  -3   0 40658.5 1335.55  37
  -5  -3   0 50089.0 1460.42  34
  -5  -3   0 45216.7 1438.59  32
  -5  -3   0 48616.1 1460.32   4
  -5  -3   0 52498.0 1472.80  27
  -5  -3   0 44392.5 1494.88   3
  -5  -3  -1 4740.79 478.736  23
  -5  -3  -1 4544.23 431.003  20
  -5  -3  -1 4438.17 399.263  37
  -5  -3  -1 5052.83 380.896  35
  -5  -3  -1 5136.94 400.277  34
  -5  -3  -1 3904.72 334.387  33
  -5  -3  -1 4646.73 389.199  32
  -5  -3  -1 4881.10 402.998   4
  -5  -3  -1 4809.95 449.388   3
  -5  -3  -1 5487.19 447.897  27
  -5  -3  -2 18743.2 802.918  37
  -5  -3  -2 18419.7 765.563  35
  -5  -3  -2 13841.0 647.985  34
  -5  -3  -2 15066.6 719.512  33
  -5  -3  -2 17501.7 768.611   4
   5  -3   2 15228.4 671.214  30
  -5  -3  -2 17442.8 850.610   3
  -5  -3  -2 18974.9 828.017  27
  -5  -3  -3 1627.32 356.777  23
  -5  -3  -3 1626.30 349.073   3
   5  -3   3 1552.86 284.249  38
  -5  -3  -3 1405.67 352.755  37
  -5  -3  -3 1363.23 297.965  33
  -5  -3  -4 45.2441 203.825  23
  -5  -3  -4 41.2838 239.443   3
   5  -3   4 250.520 183.455  38
  -5  -3  -4 140.538 230.360  33
  -5  -3  -5 929.976 144.481  23
  -5  -3  -5 1594.69 217.256  12
  -5  -3  -5 1452.52 218.865  20
   5  -3   5 940.728 126.206  38
   5  -3   5 1597.81 218.344   5
  -5  -3  -5 1611.68 218.173  33
  -5  -3  -5 1366.60 220.967   3
  -5  -2  10 1020.36 150.945   4
  -5  -2  10 1117.74 148.544   5
   5  -2 -10 1041.67 134.312   3
   5  -2 -10 733.609 139.860  28
  -5  -2   9 3497.53 286.375  25
   5  -2  -9 3819.22 341.686   3
   5  -2  -9 3016.69 338.121  28
  -5  -2   8 3789.46 373.736  25
  -5  -2   8 3409.58 466.852  22
  -5  -2   8 3902.82 400.846   5
  -5  -2   8 3785.92 353.447  32
  -5  -2   8 2887.35 549.559  15
  -5  -2   7 2230.18 340.120  25
  -5  -2   7 2833.80 451.284  22
  -5  -2   7 2076.43 335.059   5
  -5  -2   7 2003.33 415.025  12
  -5  -2   7 1897.88 334.440  32
  -5  -2   7 2183.44 508.475  15
  -5  -2   6 14678.7 734.068  25
  -5  -2   6 14401.1 806.513  22
  -5  -2   6 14294.4 705.461   5
  -5  -2   6 14555.0 774.536  12
  -5  -2   6 14852.2 727.393  32
  -5  -2   6 14033.6 893.227  15
  -5  -2   5 1110.00 256.577  25
  -5  -2   5 809.351 284.875  22
  -5  -2   5 857.564 271.542  12
  -5  -2   5 1412.32 328.043  20
  -5  -2   5 1278.67 255.131   5
  -5  -2   5 1318.67 279.357  32
  -5  -2   5 857.725 319.280  10
  -5  -2   5 785.248 300.950  15
  -5  -2   4 27375.4 979.187  25
  -5  -2   4 28350.0 969.943   4
  -5  -2   4 26670.1 1005.19  22
  -5  -2   4 26849.4 935.061   5
  -5  -2   4 27197.9 980.335  12
  -5  -2   4 26203.9 972.519  20
  -5  -2   4 22428.0 871.270  34
  -5  -2   4 27284.8 989.237  32
  -5  -2   4 24075.4 1038.48  10
  -5  -2   3 35424.5 1173.95  25
  -5  -2   3 38253.8 1178.36   4
  -5  -2   3 37446.9 1197.85  22
  -5  -2   3 35834.6 1171.15  12
  -5  -2   3 37333.7 1184.74  20
  -5  -2   3 35480.8 1151.56  34
  -5  -2   3 37089.8 1200.64  32
  -5  -2   2 5000.80 362.704   4
  -5  -2   2 5336.70 380.868  12
  -5  -2   2 4853.31 371.732  20
  -5  -2   2 5412.38 403.034  34
  -5  -2   1 6023.67 410.116  25
  -5  -2   1 5883.40 412.759  12
  -5  -2   1 5783.09 416.667  20
  -5  -2   1 5562.80 384.411  17
  -5  -2   1 5403.46 407.954  32
  -5  -2   1 7175.63 416.045  27
  -5  -2   1 5979.10 404.485   4
  -5  -2   0 3676.80 347.593  25
  -5  -2   0 3210.54 343.259  12
  -5  -2   0 3322.83 361.595  20
  -5  -2   0 3543.16 312.038  37
  -5  -2   0 3547.11 360.769  34
  -5  -2   0 3210.56 328.730  32
  -5  -2   0 4244.53 354.987   4
  -5  -2   0 3642.79 377.293   3
  -5  -2   0 3772.56 352.546  27
  -5  -2  -1 41607.1 1304.19  37
  -5  -2  -1 40661.5 1265.96  35
  -5  -2  -1 40765.1 1285.38  34
  -5  -2  -1 40964.1 1321.18   4
  -5  -2  -1 40535.1 1407.76   3
  -5  -2  -2 28066.0 1189.80  23
  -5  -2  -2 33135.6 1134.76  37
  -5  -2  -2 34150.3 1100.62  35
  -5  -2  -2 25317.3 967.375  34
  -5  -2  -2 26940.3 1045.61  33
  -5  -2  -2 34575.9 1041.90  32
  -5  -2  -2 30509.8 1085.50   4
  -5  -2  -2 32304.6 1205.83   3
  -5  -2  -2 33370.6 1160.23  27
  -5  -2  -3 12559.8 728.845  23
   5  -2   3 11596.6 619.943  38
  -5  -2  -3 14207.3 712.013  37
  -5  -2  -3 14090.4 690.316  35
  -5  -2  -3 11686.1 639.738  33
  -5  -2  -3 13032.2 747.500   3
  -5  -2  -3 14144.4 731.306  27
  -5  -2  -4 2403.47 315.604  23
   5  -2   4 2460.32 256.491  38
  -5  -2  -4 2987.66 378.486  37
  -5  -2  -4 2654.92 324.914  33
  -5  -2  -4 2495.97 347.776   3
  -5  -2  -5 619.534 133.298  23
  -5  -2  -5 973.182 218.769   3
  -5  -2  -5 908.452 209.701  20
  -5  -2  -5 681.827 192.466  33
   5  -2   5 925.942 207.014   5
  -5  -1  10 2792.55 215.963   4
  -5  -1  10 2918.58 201.483   5
   5  -1  -9 5799.74 400.103   3
  -5  -1   9 6274.85 415.601   5
  -5  -1   8 3933.90 376.089  25
  -5  -1   8 3672.87 473.575  22
  -5  -1   8 4542.22 425.636   5
  -5  -1   8 4304.88 385.980  32
  -5  -1   8 3836.82 598.274  15
  -5  -1   7 4988.05 428.706  25
  -5  -1   7 4652.98 515.534  22
  -5  -1   7 5506.26 462.831   5
  -5  -1   7 5355.03 526.047  12
  -5  -1   7 4334.82 612.552  15
  -5  -1   6 41551.2 1388.70  25
  -5  -1   6 42141.2 1514.75  22
  -5  -1   6 43246.4 1390.52   5
  -5  -1   6 42911.3 1465.48  12
  -5  -1   6 40305.9 1596.56  15
  -5  -1   5 26416.5 986.567  25
  -5  -1   5 25440.1 1050.98  22
  -5  -1   5 26332.1 966.035   5
  -5  -1   5 27328.6 1025.72  12
  -5  -1   5 25230.4 1003.14  20
  -5  -1   5 23189.6 1102.78  10
  -5  -1   5 26455.8 1119.03  15
  -5  -1   4 27006.8 975.914  25
  -5  -1   4 28892.7 984.380   4
  -5  -1   4 29010.7 1048.88  22
  -5  -1   4 28019.7 955.123   5
  -5  -1   4 26670.0 982.372  12
  -5  -1   4 29309.5 1020.43  20
  -5  -1   4 29791.9 1018.68  32
  -5  -1   3 28684.4 1001.18  25
  -5  -1   3 30382.3 1006.15   4
  -5  -1   3 29654.4 1014.80  12
  -5  -1   3 29457.5 1009.38  20
  -5  -1   3 28798.6 992.584  34
  -5  -1   3 26165.9 1026.35  10
  -5  -1   2 12313.1 571.835   4
  -5  -1   2 12108.3 575.829  25
  -5  -1   2 11620.8 570.779  12
  -5  -1   2 12350.6 582.095  20
  -5  -1   2 12125.4 590.041  34
  -5  -1   2 11340.7 587.056  32
  -5  -1   1 24756.0 918.606  12
  -5  -1   1 24861.1 918.114  20
  -5  -1   1 22059.7 873.430  17
  -5  -1   1 22989.5 881.523  32
  -5  -1   1 24342.1 896.176   4
  -5  -1   0 2867.98 323.428  25
  -5  -1   0 3059.18 345.284  12
  -5  -1   0 3213.02 348.808  20
  -5  -1   0 2713.17 294.826  37
  -5  -1   0 3055.79 337.315  34
  -5  -1   0 2726.20 296.667  17
  -5  -1   0 2636.29 302.948  32
  -5  -1   0 3462.80 333.043   4
  -5  -1   0 2829.29 347.025   3
  -5  -1   0 2959.54 330.475  27
  -5  -1  -1 15937.0 710.843  37
  -5  -1  -1 16763.9 690.196  35
  -5  -1  -1 14819.7 672.332  34
  -5  -1  -1 15316.4 681.584  17
  -5  -1  -1 14084.2 659.699  32
  -5  -1  -1 15807.5 711.003   4
  -5  -1  -1 16954.0 796.175   3
  -5  -1  -1 16231.7 747.960  27
  -5  -1  -2 1864.13 364.471   3
  -5  -1  -2 1471.79 376.147  23
  -5  -1  -2 1894.12 345.183  37
  -5  -1  -2 2134.58 326.329  35
  -5  -1  -2 1724.70 261.871  34
  -5  -1  -2 2050.39 306.793  33
  -5  -1  -2 2094.33 317.414   4
  -5  -1  -2 2013.41 384.184  27
  -5  -1  -3 8639.39 617.345  23
   5  -1   3 6884.96 461.912  38
  -5  -1  -3 9920.39 607.146  37
  -5  -1  -3 11316.7 605.287  35
  -5  -1  -3 8324.87 535.744  33
  -5  -1  -3 9092.76 624.446   3
  -5  -1  -3 9924.82 624.509  27
  -5  -1  -4 5318.48 423.037  23
   5  -1   4 4743.19 318.575  38
  -5  -1  -4 5501.86 415.039  33
  -5  -1  -4 5811.02 475.252   3
  -5  -1  -5 6443.90 376.750  20
   5  -1   5 6903.31 381.150   5
  -5  -1  -5 5742.45 338.675  33
  -5  -1  -5 6609.27 401.211   3
  -5   0  10 122.266 131.271   4
   5   0 -10-18.8830 117.317  28
  -5   0   9 1305.80 303.327  22
  -5   0   9 1130.48 216.489  32
  -5   0   9 720.641 368.254  15
  -5   0   8 3599.90 338.291  25
  -5   0   8 3573.01 564.667  15
  -5   0   7 72.8367 225.550  25
  -5   0   7 323.867 326.493  22
  -5   0   7 173.984 349.396  12
  -5   0   7-232.862 463.000  20
  -5   0   7 452.015 398.528  15
  -5   0   6 19746.3 847.745  25
  -5   0   6 21235.5 982.445  22
  -5   0   6 19267.4 862.203   5
  -5   0   6 21661.0 959.453  12
  -5   0   6 18254.0 1029.64  10
  -5   0   6 21209.4 1058.63  15
  -5   0   5 8159.79 495.044  25
  -5   0   5 9262.51 606.974  22
  -5   0   5 7737.59 494.834   5
  -5   0   5 9362.04 577.439  12
  -5   0   5 8781.83 575.229  20
  -5   0   5 8282.35 618.994  10
  -5   0   5 8379.14 598.862  15
  -5   0   4 427.862 197.459  25
  -5   0   4 589.801 247.771  22
  -5   0   4 302.282 227.265  12
  -5   0   4 587.495 258.146  20
  -5   0   4 428.904 205.813   5
  -5   0   4 437.707 211.413  34
  -5   0   4 381.168 242.005  32
  -5   0   4 217.531 231.424  10
  -5   0   3 15921.3 671.251  25
  -5   0   3 16191.6 690.495  12
  -5   0   3 15663.2 685.324  20
  -5   0   3 16266.6 674.845  34
  -5   0   3 15665.8 705.859  10
  -5   0   3 14939.3 608.435  29
  -5   0   2 34594.9 1126.08  25
  -5   0   2 35836.5 1150.50  12
  -5   0   2 32595.9 1114.98  20
  -5   0   2 33481.5 1126.48  34
  -5   0   2 34383.3 1133.57  32
  -5   0   2 33666.2 1059.73  29
  -5   0   1 6560.54 427.060  25
  -5   0   1 6755.65 447.837  12
  -5   0   1 7653.24 463.274  20
  -5   0   1 7819.52 464.652  34
  -5   0   1 7007.22 444.624  17
  -5   0   1 5679.07 402.664  32
  -5   0   1 6549.06 392.150  29
  -5   0   0 3333.46 357.469  12
  -5   0   0 3599.13 364.896  20
  -5   0   0 3205.43 309.711  37
  -5   0   0 3539.23 339.368  17
  -5   0   0 2989.22 304.731  32
  -5   0   0 3897.16 361.995  34
  -5   0   0 3869.68 370.180  27
  -5   0  -1 2350.01 338.602  37
  -5   0  -1 2673.99 320.208  35
  -5   0  -1 2609.52 312.352  34
  -5   0  -1 2684.84 314.877  17
  -5   0  -1 2086.34 277.973  32
  -5   0  -1 2890.74 376.155  27
   5   0   2 4888.86 371.886  38
  -5   0  -2 5701.15 472.424  37
  -5   0  -2 5949.05 457.311  35
  -5   0  -2 4236.20 343.595  34
  -5   0  -2 5680.32 424.592  17
  -5   0  -2 4599.46 386.911  33
  -5   0  -2 5766.81 497.339  27
  -5   0  -3 14746.9 776.705  23
   5   0   3 13123.2 601.434  38
  -5   0  -3 16059.3 756.313  37
  -5   0  -3 17175.8 741.180  35
  -5   0  -3 13145.8 629.891  17
  -5   0  -3 12525.4 654.052  33
  -5   0  -4 1697.34 301.853  23
  -5   0  -4 2065.75 361.271  37
  -5   0  -4 2401.78 355.351  35
  -5   0  -4 1509.62 278.503  33
  -5   0  -5 1411.89 165.180  23
  -5   0  -5 2335.63 240.029  33
   5   1 -10 2481.99 186.404   3
   5   1 -10 1271.54 169.772  28
  -5   1   9 4797.61 422.489  22
  -5   1   9 4078.09 521.722  15
  -5   1   8 3630.40 422.270  14
  -5   1   8 3753.03 314.002  25
  -5   1   8 3209.08 564.761  15
  -5   1   7 4848.05 393.645  25
  -5   1   7 5446.75 539.537  22
  -5   1   7 4933.08 533.113  12
  -5   1   7 3190.66 463.732  11
  -5   1   7 4242.38 596.088  15
  -5   1   6 41194.9 1321.41  25
  -5   1   6 42519.6 1498.76  22
  -5   1   6 44624.8 1463.47  12
  -5   1   6 36511.6 1428.03  11
  -5   1   6 36791.1 1519.94  10
  -5   1   6 36839.0 1505.64  15
  -5   1   5 25729.4 946.706  25
  -5   1   5 26608.4 1076.37  22
  -5   1   5 27318.9 1027.64  12
  -5   1   5 25126.9 1113.00  10
  -5   1   5 23421.6 1047.44  15
  -5   1   4 26676.7 950.173  25
  -5   1   4 27919.6 1003.17  12
  -5   1   4 25581.1 914.250  34
  -5   1   4 26571.9 1056.38  10
  -5   1   3 28673.2 1004.98  25
  -5   1   3 30979.1 1052.27  12
  -5   1   3 30975.3 1024.47  34
  -5   1   3 28564.2 1032.06  32
  -5   1   3 31978.6 1096.02  10
  -5   1   3 29703.7 978.939  29
  -5   1   2 10683.9 533.854  25
  -5   1   2 11114.2 560.942  12
  -5   1   2 10845.6 552.524  34
  -5   1   2 10903.8 578.194  17
  -5   1   2 10792.5 550.313  32
  -5   1   2 11054.1 511.233  29
  -5   1   1 24411.7 898.111  25
  -5   1   1 25528.4 929.414  12
  -5   1   1 26581.9 908.633  34
  -5   1   1 24285.8 923.763  17
  -5   1   1 22088.1 853.925  32
  -5   1   1 23117.8 856.334  29
  -5   1   0 3290.78 336.102  25
  -5   1   0 3566.76 354.317  34
  -5   1   0 3062.51 352.313  12
  -5   1   0 3153.09 316.460  37
  -5   1   0 3581.94 311.960  35
  -5   1   0 3442.60 349.756  17
  -5   1   0 2724.76 292.334  32
  -5   1   0 3680.25 365.467  27
  -5   1  -1 14948.9 683.149  37
  -5   1  -1 15242.5 666.454  35
  -5   1  -1 14583.6 658.022  34
  -5   1  -1 15644.4 709.984  17
  -5   1  -1 16977.8 745.809  27
   5   1   2 1956.93 245.027  38
  -5   1  -2 1896.28 360.828  37
  -5   1  -2 2071.61 337.035  35
  -5   1  -2 1478.35 240.950  34
  -5   1  -2 1962.54 305.196  17
  -5   1  -2 1520.98 270.187  33
  -5   1  -2 2137.57 375.798  27
  -5   1  -3 8385.86 609.194  23
  -5   1  -3 9263.11 587.048  37
  -5   1  -3 7729.54 498.309  17
  -5   1  -3 7129.13 493.852  33
  -5   1  -4 4347.40 400.236  23
  -5   1  -4 4877.60 392.404  33
  -5   1  -5 3039.66 216.970  23
  -5   1  -5 5129.23 311.903  33
  -5   2  10 981.566 151.770   4
  -5   2  10 1123.06 143.071   5
   5   2 -10 799.380 125.770   3
   5   2 -10 627.499 134.736  28
  -5   2   9 2438.19 327.431  14
  -5   2   9 3533.03 375.781  22
   5   2  -9 3666.03 338.510   3
  -5   2   9 3773.09 338.244   5
  -5   2   9 4418.35 343.851  32
  -5   2   9 3139.81 470.437  15
  -5   2   8 3066.50 403.277  14
  -5   2   8 3310.26 461.488  22
  -5   2   8 3887.11 395.957   5
  -5   2   8 3090.46 545.826  15
  -5   2   7 1665.83 256.228  25
  -5   2   7 2110.77 342.689   5
  -5   2   7 1850.03 427.312  12
  -5   2   7 1350.92 409.200  20
  -5   2   7 1764.57 390.611  11
  -5   2   7 2231.85 473.850  15
  -5   2   6 12627.3 613.286  25
  -5   2   6 13593.1 787.197  22
  -5   2   6 13023.4 665.851   5
  -5   2   6 13644.4 763.027  12
  -5   2   6 15223.2 793.130  20
  -5   2   6 12234.7 730.719  11
  -5   2   6 12687.4 828.189  10
  -5   2   6 12627.6 794.907  15
  -5   2   5 1035.24 215.945  25
  -5   2   5 964.740 303.053  22
  -5   2   5 1162.43 316.761  12
  -5   2   5 1361.31 321.927  20
  -5   2   5 1100.30 252.411   5
  -5   2   5 878.317 308.754  10
  -5   2   5 1303.87 293.910  15
  -5   2   4 25635.1 921.488  25
  -5   2   4 27264.5 963.688   4
  -5   2   4 27155.4 944.082   5
  -5   2   4 25300.1 977.949  12
  -5   2   4 26848.5 986.893  20
  -5   2   4 25735.2 913.936  34
  -5   2   4 26463.5 1045.19  10
  -5   2   3 34702.9 1150.07  25
  -5   2   3 38080.3 1194.68   4
  -5   2   3 36707.3 1192.49  20
  -5   2   3 35135.9 1194.01  32
  -5   2   3 38080.2 1236.60  10
  -5   2   3 36830.0 1153.12  29
  -5   2   2 4909.20 365.506   4
  -5   2   2 5322.39 368.766  25
  -5   2   2 5235.32 382.135  20
  -5   2   2 5638.94 422.769  17
  -5   2   2 5548.93 390.038  32
  -5   2   2 5129.60 350.836  29
  -5   2   1 5530.01 388.203  25
  -5   2   1 6008.20 420.578  20
  -5   2   1 5929.96 413.741  34
  -5   2   1 5786.34 426.475  17
  -5   2   1 4813.23 366.768  32
  -5   2   1 5962.14 390.819  29
  -5   2   1 5383.98 390.583   4
  -5   2   0 3709.97 378.200  20
  -5   2   0 3714.62 340.725  37
  -5   2   0 4115.93 329.672  35
  -5   2   0 4092.91 367.217  34
  -5   2   0 4247.53 384.525  17
  -5   2   0 3234.81 300.915  32
  -5   2   0 3803.18 353.572   4
  -5   2   0 3503.90 363.248   3
  -5   2   0 4516.15 395.401  27
  -5   2  -1 41348.9 1314.48  37
  -5   2  -1 45291.8 1315.41  35
  -5   2  -1 41392.7 1276.86  34
  -5   2  -1 43906.0 1372.95  17
  -5   2  -1 40835.0 1311.15   4
  -5   2  -1 42247.1 1414.20   3
  -5   2  -1 43906.7 1378.46  27
  -5   2  -2 31441.7 1129.82  37
  -5   2  -2 31474.8 1105.28  35
  -5   2  -2 29608.8 1119.43  17
  -5   2  -2 29528.3 1078.65   4
  -5   2  -2 30947.4 1185.85   3
  -5   2  -3 10695.9 613.469  13
  -5   2  -3 12524.3 727.484  23
  -5   2  -3 14067.7 709.033  37
  -5   2  -3 13536.2 682.578  35
  -5   2  -3 11835.3 636.256  17
  -5   2  -3 11059.4 605.269  33
  -5   2  -3 14891.0 658.135   4
  -5   2  -3 12610.6 721.009   3
  -5   2  -3 12040.5 687.688  27
  -5   2  -4 2077.30 311.344  23
  -5   2  -4 3413.04 387.074  35
  -5   2  -4 2715.39 296.895  17
  -5   2  -4 2004.05 295.208  33
  -5   2  -4 3034.72 377.572   3
  -5   2  -5 390.686 112.792  23
  -5   2  -5 852.079 213.331   3
  -5   2  -5 904.949 209.636  20
  -5   2  -5 837.649 185.408  33
   5   2   5 742.494 204.720   5
  -5   3  10 2503.22 187.167   4
  -5   3  10 3252.72 191.686   5
   5   3 -10 2154.89 160.600   3
   5   3 -10 3213.80 206.730  17
   5   3 -10 1633.24 170.699  28
   5   3  -9 759.849 218.330   3
  -5   3   9 716.199 232.850  14
  -5   3   9 801.954 259.033  22
  -5   3   9 1205.54 244.327   5
  -5   3   9 702.143 353.460  15
  -5   3   8 7881.02 580.213  14
  -5   3   8 9158.96 628.084  22
  -5   3   8 9051.03 555.819   5
  -5   3   8 9139.66 739.395  15
  -5   3   7 4033.42 418.035   5
  -5   3   7 3045.97 486.518  20
  -5   3   7 3424.31 473.549  11
  -5   3   7 3782.85 540.945  15
  -5   3   6 3080.28 298.040  25
  -5   3   6 3379.27 453.919  22
  -5   3   6 3180.65 360.399   5
  -5   3   6 3636.63 457.372  20
  -5   3   6 3002.93 416.281  11
  -5   3   6 3142.90 469.585  10
  -5   3   6 3062.21 446.477  15
  -5   3   5 13157.3 601.270  25
  -5   3   5 13950.2 755.234  22
  -5   3   5 14474.7 662.441   5
  -5   3   5 15742.0 729.957  20
  -5   3   5 12960.3 690.046  11
  -5   3   5 10794.1 724.430  16
  -5   3   5 14108.5 776.064  10
  -5   3   5 12911.8 718.834  15
  -5   3   4 2469.18 264.497  25
  -5   3   4 2850.45 305.309   4
  -5   3   4 2941.42 298.054   5
  -5   3   4 2805.78 328.715  20
  -5   3   4 2288.24 315.080  16
  -5   3   4 2896.31 360.805  10
  -5   3   3 5872.06 381.703  25
  -5   3   3 6888.94 426.463   4
  -5   3   3 6879.11 439.480  20
  -5   3   3 6252.24 429.742  32
  -5   3   3 6964.10 461.219  10
  -5   3   3 7260.92 421.797  29
  -5   3   2 1858.92 253.681   4
  -5   3   2 1666.76 233.343  25
  -5   3   2 1853.32 264.726  20
  -5   3   2 1855.53 301.653  17
  -5   3   2 1707.57 246.342  32
  -5   3   2 1619.06 234.742  29
  -5   3   1 8109.01 468.513  25
  -5   3   1 7810.95 480.981  20
  -5   3   1 8295.62 512.258  17
  -5   3   1 6919.13 425.152  32
  -5   3   1 7761.27 455.892  29
  -5   3   1 7764.30 463.508   4
  -5   3   0 46884.6 1443.11  20
  -5   3   0 43318.8 1361.08  37
  -5   3   0 47729.2 1353.75  35
  -5   3   0 46590.1 1381.04  34
  -5   3   0 48104.9 1472.73  17
  -5   3   0 47931.8 1419.80   4
  -5   3   0 45612.6 1457.53   3
  -5   3  -1 5393.53 451.281  20
  -5   3  -1 4629.96 417.429  37
  -5   3  -1 4973.80 422.434  35
  -5   3  -1 4436.83 380.208  34
  -5   3  -1 5142.24 438.559  17
  -5   3  -1 4719.36 394.642   4
  -5   3  -1 4809.45 435.468   3
  -5   3  -2 16892.5 806.507  13
  -5   3  -2 19219.9 840.142  37
  -5   3  -2 18812.6 814.961  35
  -5   3  -2 19302.7 857.816  17
  -5   3  -2 17553.7 778.085   4
  -5   3  -2 17356.3 856.220   3
  -5   3  -3 1401.91 301.480  13
  -5   3  -3 1808.34 387.917  37
  -5   3  -3 1903.76 376.187  35
  -5   3  -3 2024.86 328.550  17
  -5   3  -3 1238.86 264.660  33
  -5   3  -3 2181.33 319.456   4
  -5   3  -3 2074.80 364.522   3
  -5   3  -3 1493.09 353.222  27
  -5   3  -4 207.898 221.854  23
  -5   3  -4 134.920 255.179   3
  -5   3  -4 294.723 225.532  13
  -5   3  -4 78.5956 287.141  35
  -5   3  -4 173.701 216.901  33
  -5   3  -4 351.575 212.769  17
  -5   3  -5 1649.67 242.639  12
  -5   3  -5 2011.24 241.358  20
   5   3   5 1575.87 214.644   5
  -5   3  -5 1510.30 200.017  33
  -5   3  -5 1560.09 228.373   3
  -5   4  10 1766.66 143.823   4
   5   4 -10 1768.47 153.599  17
   5   4  -9 1244.63 222.448   3
  -5   4   9 1217.39 252.647  22
  -5   4   9 2036.96 249.555   5
  -5   4   9 1307.17 378.301  15
  -5   4   8 1903.96 340.358  14
  -5   4   8 1963.07 366.402  22
  -5   4   8 1855.40 309.336   5
  -5   4   8 1915.11 400.550  11
  -5   4   8 2030.47 460.561  15
  -5   4   7 3015.64 442.561  22
  -5   4   7 2946.29 356.868   5
  -5   4   7 2304.81 442.822  12
  -5   4   7 1702.96 409.706  20
  -5   4   7 2820.23 455.287  11
  -5   4   7 3262.52 501.846  15
  -5   4   7 2571.34 488.507  10
  -5   4   6 22027.2 892.813   5
  -5   4   6 22629.4 986.666  12
  -5   4   6 21599.5 950.410  20
  -5   4   6 20875.1 997.454  11
  -5   4   6 21002.0 1046.78  10
  -5   4   6 20579.8 1006.87  15
  -5   4   5 3868.29 371.554   4
  -5   4   5 3454.50 416.894  22
  -5   4   5 3700.37 351.972   5
  -5   4   5 4158.40 421.492  12
  -5   4   5 4248.27 426.093  20
  -5   4   5 4144.57 404.739  11
  -5   4   5 2834.17 421.050  16
  -5   4   5 3937.46 449.476  10
  -5   4   5 3736.77 407.497  15
  -5   4   4 34280.7 1160.75  25
  -5   4   4 37188.9 1229.18   4
  -5   4   4 37380.8 1209.05   5
  -5   4   4 39576.1 1296.74  12
  -5   4   4 39134.6 1272.05  20
  -5   4   4 42109.0 1286.00  11
  -5   4   4 37566.7 1354.36  16
  -5   4   4 40798.4 1367.68  10
  -5   4   3 23718.1 855.347  25
  -5   4   3 23039.9 872.600   4
  -5   4   3 24489.1 925.977  12
  -5   4   3 24598.7 898.868  20
  -5   4   3 23236.1 891.569  32
  -5   4   3 25251.3 945.544  16
  -5   4   3 26240.7 958.291  10
  -5   4   3 24170.7 885.322  29
  -5   4   2 14899.0 652.617   4
  -5   4   2 15669.9 648.778  25
  -5   4   2 16391.0 703.297  12
  -5   4   2 15214.1 663.578  20
  -5   4   2 15737.0 738.740  17
  -5   4   2 13273.1 620.011  32
  -5   4   2 16912.5 679.503  10
  -5   4   2 14346.2 645.752  29
  -5   4   1 18141.3 736.623  25
  -5   4   1 19126.8 789.193  12
  -5   4   1 18768.0 761.905  20
  -5   4   1 19797.2 826.901  17
  -5   4   1 16139.8 681.587  32
  -5   4   1 16903.4 734.892  29
  -5   4   1 17736.1 734.895   4
  -5   4   0 2341.99 328.467  13
  -5   4   0 2412.20 329.267  12
  -5   4   0 2487.06 325.189  20
  -5   4   0 2370.75 308.192  37
  -5   4   0 2524.14 313.408  35
  -5   4   0 2749.28 323.720  34
  -5   4   0 2125.90 330.831  17
  -5   4   0 2320.35 298.940   4
  -5   4   0 2398.51 316.829   3
  -5   4  -1 54663.6 1742.81  13
  -5   4  -1 57531.8 1751.76  20
  -5   4  -1 58382.2 1726.96  37
  -5   4  -1 59666.8 1706.08  35
  -5   4  -1 51610.9 1630.46  34
  -5   4  -1 61767.2 1804.82  17
  -5   4  -1 54233.2 1670.40   4
  -5   4  -1 56713.6 1777.12   3
  -5   4  -2 1079.35 264.029   4
  -5   4  -2 1159.51 317.772   3
  -5   4  -2 1163.97 307.636  13
  -5   4  -2 1225.62 337.137  37
  -5   4  -2 1179.86 339.314  35
  -5   4  -2 1172.60 326.119  17
  -5   4  -2 922.933 354.059  27
  -5   4  -3 12158.1 688.733  13
  -5   4  -3 15509.1 736.199  37
  -5   4  -3 16061.5 730.559  35
  -5   4  -3 13612.5 707.201  17
  -5   4  -3 10747.7 590.431  33
  -5   4  -3 12278.2 603.067   4
  -5   4  -3 12822.7 711.336   3
  -5   4  -3 13521.0 692.456  27
  -5   4  -4 3088.26 352.420  13
  -5   4  -4 3133.45 333.103  23
  -5   4  -4 3037.09 346.348  20
  -5   4  -4 4105.86 391.929  35
  -5   4  -4 3217.20 333.031  17
  -5   4  -4 2865.88 306.421  33
  -5   4  -4 3135.97 351.634   3
  -5   4  -4 2842.86 346.382  27
  -5   4  -5 2099.96 242.987  12
  -5   4  -5 2448.30 242.137  20
  -5   4  -5 2186.38 254.760  37
   5   4   5 2100.49 216.785   5
  -5   4  -5 2310.29 240.804   3
  -5   5   9 3490.17 300.406   4
  -5   5   9 3075.57 311.320  22
   5   5  -9 3242.15 272.624   3
  -5   5   9 3573.61 283.229   5
  -5   5   9 2805.54 411.180  15
  -5   5   8 3624.70 392.438  14
  -5   5   8 3810.85 438.300  22
  -5   5   8 4097.94 374.485   5
  -5   5   8 3679.17 498.971  11
  -5   5   8 4835.84 570.305  15
  -5   5   7 1937.10 396.955  22
  -5   5   7 1786.06 310.964   5
  -5   5   7 1522.75 396.173  12
  -5   5   7 1058.49 366.829  20
  -5   5   7 1704.10 409.592  11
  -5   5   7 941.543 380.986  10
  -5   5   7 1523.57 425.006  15
  -5   5   6 7062.24 481.010   5
  -5   5   6 7488.42 575.669  12
  -5   5   6 6467.25 523.733  20
  -5   5   6 8113.26 602.095  11
  -5   5   6 6797.64 593.817  15
  -5   5   5 3125.75 339.893   4
  -5   5   5 2982.97 324.889   5
  -5   5   5 3301.97 394.256  12
  -5   5   5 3203.44 379.347  20
  -5   5   5 3314.92 379.925  11
  -5   5   5 2213.11 399.001  16
  -5   5   5 2617.40 393.048  10
  -5   5   5 3282.33 383.341  15
  -5   5   4 22616.4 861.003   4
  -5   5   4 23158.7 847.518   5
  -5   5   4 22123.9 907.539  12
  -5   5   4 21216.1 865.859  20
  -5   5   4 24708.3 915.916  11
  -5   5   4 21483.5 961.448  16
  -5   5   4 24525.6 980.803  10
  -5   5   4 20372.4 864.591  15
  -5   5   3 39784.5 1250.27  25
  -5   5   3 40789.2 1298.92   4
  -5   5   3 39776.7 1301.35  32
  -5   5   3 43391.4 1355.31  12
  -5   5   3 40298.6 1308.27  20
  -5   5   3 44176.0 1408.32  16
  -5   5   3 45558.9 1400.94  10
  -5   5   3 42846.6 1332.09  29
  -5   5   2 39708.6 1264.71   4
  -5   5   2 38909.7 1237.28  25
  -5   5   2 37169.5 1347.78  13
  -5   5   2 41591.5 1312.94  12
  -5   5   2 43096.5 1300.60  20
  -5   5   2 41106.5 1380.75  17
  -5   5   2 33424.0 1204.10  32
  -5   5   2 46406.2 1366.60  16
  -5   5   2 44887.6 1321.68  10
  -5   5   2 42382.7 1308.25  29
  -5   5   1 1939.08 325.078  13
  -5   5   1 1849.57 296.869  12
  -5   5   1 2048.67 283.404  20
  -5   5   1 2113.63 271.436  35
  -5   5   1 2363.86 341.185  17
  -5   5   1 1665.32 234.121  32
  -5   5   1 2052.76 267.564  16
  -5   5   1 2315.65 298.316  29
  -5   5   1 2122.25 269.912   4
  -5   5   0 7656.44 505.189   3
  -5   5   0 8190.44 557.440  13
  -5   5   0 7885.28 519.087  12
  -5   5   0 8080.70 505.110  20
  -5   5   0 8203.82 501.856  37
  -5   5   0 8234.63 488.906  35
  -5   5   0 8725.61 570.452  17
  -5   5   0 7457.40 472.873  16
  -5   5   0 7871.82 477.756   4
  -5   5  -1 13878.5 741.109  13
  -5   5  -1 14222.9 717.039  12
  -5   5  -1 13063.1 679.678  20
  -5   5  -1 13118.4 676.028  37
  -5   5  -1 14728.6 694.800  35
  -5   5  -1 12431.6 617.582  34
  -5   5  -1 14665.2 748.579  17
  -5   5  -1 12554.2 643.230  16
  -5   5  -1 13076.7 633.244   4
  -5   5  -1 14118.4 712.524   3
  -5   5  -2 838.934 257.957   4
  -5   5  -2 912.661 288.116   3
  -5   5  -2 642.240 299.756  13
  -5   5  -2 930.789 298.917  20
  -5   5  -2 694.388 330.454  37
  -5   5  -2 717.912 311.360  35
  -5   5  -2 873.697 299.987  17
  -5   5  -2 694.431 314.636  27
  -5   5  -3 3304.79 414.216  13
  -5   5  -3 4475.45 463.681  37
  -5   5  -3 4386.98 449.237  35
  -5   5  -3 3634.26 418.819  17
  -5   5  -3 2654.86 312.631  33
  -5   5  -3 3158.97 392.496   3
  -5   5  -3 2931.72 393.682  27
  -5   5  -4 1340.71 250.757  23
  -5   5  -4 1592.38 301.922  13
  -5   5  -4 1728.71 285.765  20
  -5   5  -4 2084.96 333.356  35
  -5   5  -4 1236.33 233.398  33
  -5   5  -4 1579.59 284.682  17
  -5   5  -4 1718.68 288.820   3
  -5   5  -4 1778.07 290.482  27
  -5   5  -5 3128.23 261.346  12
  -5   5  -5 3162.99 246.219  20
  -5   5  -5 3420.50 272.669  37
   5   5   5 2977.96 231.144   5
  -5   5  -5 2609.08 218.456  17
  -5   5  -5 3010.39 246.769   3
   5   6  -9 1092.06 180.052   3
  -5   6   9 1144.99 196.145   4
  -5   6   9 1294.06 219.481  22
  -5   6   9 1407.99 187.683   5
  -5   6   9 1184.19 336.184  15
  -5   6   8 4927.32 449.262  14
  -5   6   8 4956.06 455.706  22
  -5   6   8 5387.90 388.026   5
  -5   6   8 4036.74 505.626  11
  -5   6   8 3488.53 445.017  10
  -5   6   8 4725.42 537.984  15
  -5   6   7 465.396 309.092  22
  -5   6   7 191.579 329.743  12
  -5   6   7 408.919 237.318   5
  -5   6   7 558.864 363.708  11
  -5   6   7 389.700 338.579  10
  -5   6   7 407.764 349.461  15
  -5   6   6 21709.9 1010.07  22
  -5   6   6 21234.0 858.942   5
  -5   6   6 21617.4 971.013  12
  -5   6   6 21034.3 932.116  20
  -5   6   6 21209.5 1016.28  11
  -5   6   6 22535.1 1048.85  15
  -5   6   5 10891.9 578.529   4
  -5   6   5 9995.43 544.520   5
  -5   6   5 10711.2 634.030  12
  -5   6   5 10713.4 611.951  20
  -5   6   5 11667.9 664.073  11
  -5   6   5 9627.85 712.542  16
  -5   6   5 11622.2 709.308  10
  -5   6   5 10617.4 642.572  15
  -5   6   4 3104.36 309.512   4
  -5   6   4 2902.41 341.483  12
  -5   6   4 2820.12 330.902  20
  -5   6   4 3081.10 335.915  11
  -5   6   4 2917.33 388.404  16
  -5   6   4 3309.30 387.855  10
  -5   6   4 3042.97 323.716  15
  -5   6   3 19159.8 782.418   4
  -5   6   3 21365.0 852.121  12
  -5   6   3 21656.1 825.727  20
  -5   6   3 21020.9 830.780  11
  -5   6   3 18754.3 788.061  32
  -5   6   3 21995.6 910.666  16
  -5   6   3 23072.1 898.931  10
  -5   6   3 20658.3 834.687  29
  -5   6   2 13866.3 612.942  25
  -5   6   2 14234.7 766.278  13
  -5   6   2 17088.9 713.714  12
  -5   6   2 15126.8 664.790  20
  -5   6   2 15821.4 678.930  11
  -5   6   2 15071.0 752.227  17
  -5   6   2 13356.0 617.616  32
  -5   6   2 16667.3 737.211  16
  -5   6   2 15925.8 695.056  10
  -5   6   2 14448.5 675.367  29
  -5   6   2 14844.7 646.097   4
  -5   6   1 10195.2 632.741  13
  -5   6   1 10447.6 571.226  12
  -5   6   1 10857.2 553.637  20
  -5   6   1 9218.20 512.795  37
  -5   6   1 10391.6 529.545  35
  -5   6   1 10740.5 627.829  17
  -5   6   1 10782.0 583.828  16
  -5   6   1 9974.36 557.873  29
  -5   6   1 10039.2 525.764   4
  -5   6   0 49586.0 1644.86  13
  -5   6   0 50713.5 1568.96  12
  -5   6   0 51094.0 1540.75  20
  -5   6   0 48551.7 1512.68  37
  -5   6   0 49573.1 1515.76  35
  -5   6   0 51188.1 1634.21  17
  -5   6   0 50013.1 1574.22  16
  -5   6   0 46206.1 1477.85   4
  -5   6  -1 58725.7 1802.87  12
  -5   6  -1 55686.7 1749.20  20
  -5   6  -1 61207.8 1783.50  37
  -5   6  -1 62415.9 1773.95  35
  -5   6  -1 56171.9 1678.88  34
  -5   6  -1 60298.4 1872.08  17
  -5   6  -1 52354.2 1745.38  16
  -5   6  -1 54951.9 1681.97   4
  -5   6  -1 59206.0 1799.03   3
  -5   6  -1 61585.0 1799.87  27
  -5   6  -2 14279.0 776.912  13
  -5   6  -2 13607.8 712.409  37
  -5   6  -2 13428.9 693.204  20
  -5   6  -2 14452.8 713.808  35
  -5   6  -2 14209.8 766.907  17
  -5   6  -2 10540.2 620.086  16
  -5   6  -2 11637.3 583.610   4
  -5   6  -2 13124.1 689.698   3
  -5   6  -2 12065.5 677.148  27
  -5   6  -3 3399.05 424.359  13
  -5   6  -3 3207.99 370.964  20
  -5   6  -3 3575.73 421.917  35
  -5   6  -3 3690.30 431.953  37
  -5   6  -3 3157.58 416.027  17
  -5   6  -3 2585.09 305.856  16
  -5   6  -3 3443.19 377.605   3
  -5   6  -3 2909.01 378.364  27
  -5   6  -4 10149.9 582.863  13
  -5   6  -4 7546.82 473.780  23
  -5   6  -4 10603.5 540.474  12
  -5   6  -4 10643.6 527.809  20
  -5   6  -4 12206.2 573.457  35
  -5   6  -4 10075.9 551.750  17
  -5   6  -4 8428.67 451.978  33
  -5   6  -4 9863.35 496.692  27
  -5   6  -4 9747.05 524.390   3
  -5   6  -5 2079.77 203.636  13
  -5   6  -5 3352.31 243.268  12
  -5   6  -5 3169.54 218.985  20
  -5   6  -5 3266.86 256.643  37
   5   6   5 2502.01 193.653   5
  -5   6  -5 2686.92 219.303  17
   5   7  -9 464.510 125.454   3
  -5   7   9 718.276 153.758   4
  -5   7   9 448.374 167.421  22
  -5   7   9 669.868 140.776   5
  -5   7   9 399.202 266.489  15
  -5   7   8 3629.16 384.934  14
  -5   7   8 3913.27 332.733   4
  -5   7   8 3665.40 383.907  22
   5   7  -8 3676.28 318.008   3
  -5   7   8 4188.56 328.781   5
  -5   7   8 4177.60 502.126  11
  -5   7   8 3810.21 436.117  10
  -5   7   8 4518.10 515.295  15
  -5   7   7 1422.03 304.930  14
  -5   7   7 1680.06 277.715   4
  -5   7   7 1402.04 343.379  22
  -5   7   7 1241.41 267.286   5
  -5   7   7 1550.51 393.213  11
  -5   7   7 1143.73 385.330  10
  -5   7   7 1376.44 397.512  15
  -5   7   6 24601.4 936.340   4
  -5   7   6 24198.4 1070.32  22
  -5   7   6 23903.5 904.130   5
  -5   7   6 23635.9 1015.61  12
  -5   7   6 22142.5 970.365  20
  -5   7   6 25534.4 1114.03  11
  -5   7   6 20946.8 1156.02  16
  -5   7   6 22946.3 1070.26  15
  -5   7   5 13196.8 633.929   4
  -5   7   5 12111.8 600.510   5
  -5   7   5 14326.7 726.854  12
  -5   7   5 13374.5 671.443  20
  -5   7   5 13897.6 738.162  11
  -5   7   5 12496.1 812.983  16
  -5   7   5 13625.6 776.939  10
  -5   7   4 10223.2 540.591   4
  -5   7   4 11670.3 623.643  12
  -5   7   4 10912.2 584.350  20
  -5   7   4 11950.3 639.196  11
  -5   7   4 10873.8 691.448  16
  -5   7   4 11454.0 669.092  10
  -5   7   4 10993.8 594.622  15
  -5   7   3 2521.21 281.698   4
  -5   7   3 2409.00 312.219  12
  -5   7   3 2656.14 301.117  20
  -5   7   3 2603.60 311.529  11
  -5   7   3 2185.96 290.718  32
  -5   7   3 2470.27 346.504  16
  -5   7   3 3056.54 346.627  10
  -5   7   3 2333.20 309.470  29
  -5   7   2 236.218 182.878   4
  -5   7   2 80.0817 291.332  13
  -5   7   2 252.670 213.071  12
  -5   7   2 57.8950 176.319  20
  -5   7   2 236.622 183.490  11
  -5   7   2 70.6984 168.278  32
  -5   7   2 186.360 209.746  16
  -5   7   2-40.1279 193.131  29
  -5   7   2 179.960 195.879  10
  -5   7   1 3643.63 449.136  13
  -5   7   1 3451.85 350.056  12
  -5   7   1 3268.20 319.043  20
  -5   7   1 3920.91 348.275  11
  -5   7   1 3333.04 345.242  37
  -5   7   1 3595.53 362.238  35
  -5   7   1 3146.20 414.070  17
  -5   7   1 3694.98 380.985  16
  -5   7   1 3319.07 312.845  10
  -5   7   1 3555.67 361.657  29
  -5   7   1 3501.07 313.870   4
  -5   7   0 83600.5 2427.70  13
  -5   7   0 80080.9 2278.75  12
  -5   7   0 77971.5 2218.69  20
  -5   7   0 77580.6 2235.47  37
  -5   7   0 84644.5 2257.08  35
  -5   7   0 85031.2 2383.16  17
  -5   7   0 82800.2 2330.96  16
  -5   7   0 75055.9 2168.61   4
  -5   7  -1 265.940 190.044   4
  -5   7  -1 616.208 243.106   3
  -5   7  -1 223.001 319.453  13
  -5   7  -1 482.122 267.542  12
  -5   7  -1 469.330 234.657  20
  -5   7  -1 326.265 293.806  37
  -5   7  -1 497.602 309.452  35
  -5   7  -1 468.370 237.113  34
  -5   7  -1 429.673 337.267  17
  -5   7  -1 378.220 237.113  16
  -5   7  -1 344.793 286.679  27
  -5   7  -2 1746.24 396.903  13
  -5   7  -2 2027.90 333.122  12
  -5   7  -2 2015.01 324.533  20
  -5   7  -2 2349.76 394.416  35
  -5   7  -2 1879.33 390.523  17
  -5   7  -2 1615.95 250.208   4
  -5   7  -2 1603.99 297.691  16
  -5   7  -2 2390.11 407.864  37
  -5   7  -2 1627.58 296.741   3
  -5   7  -2 1895.56 357.223  27
  -5   7  -3 4778.80 483.863  13
  -5   7  -3 4361.82 408.862  12
  -5   7  -3 3813.39 372.684  20
  -5   7  -3 4461.25 467.016  37
  -5   7  -3 5238.72 468.032  35
  -5   7  -3 4533.02 459.507  17
  -5   7  -3 3270.83 345.403  16
  -5   7  -3 4281.93 393.342   3
  -5   7  -3 3915.13 398.862  27
  -5   7  -4 4672.88 417.176  13
  -5   7  -4 4555.74 356.340  12
  -5   7  -4 5018.27 343.717  20
  -5   7  -4 5143.34 409.449  35
   5   7   4 4391.35 309.584   5
  -5   7  -4 4954.57 398.957  17
  -5   7  -4 3962.34 327.735   3
  -5   7  -5 413.680 137.341  13
  -5   7  -5 845.840 135.874  12
  -5   7  -5 653.896 106.357  20
  -5   7  -5 875.910 181.734  37
   5   7   5 667.054 99.3038   5
  -5   7  -5 805.903 155.205  17
  -5   8   9 905.758 125.567   4
  -5   8   9 907.445 157.108  22
   5   8  -9 1213.73 158.790  17
  -5   8   9 876.720 261.799  15
   5   8  -8 299.608 160.796   3
  -5   8   8 399.695 233.792  14
  -5   8   8 292.146 173.294   4
  -5   8   8 231.258 229.059  22
  -5   8   8 221.896 150.795   5
  -5   8   8 414.810 327.879  11
  -5   8   8 333.030 281.484  10
  -5   8   8 486.386 322.446  15
  -5   8   7 617.082 259.698  14
  -5   8   7 825.378 229.025   4
  -5   8   7 783.097 301.851  22
  -5   8   7 829.359 206.689   5
  -5   8   7 949.255 378.554  11
  -5   8   7 893.702 356.454  10
  -5   8   7 1070.67 381.216  15
  -5   8   6 11055.9 571.843   4
  -5   8   6 11204.1 709.238  22
  -5   8   6 10121.7 535.813   5
  -5   8   6 10742.0 659.322  12
  -5   8   6 9558.93 601.399  20
  -5   8   6 12465.5 753.166  11
  -5   8   6 9950.13 784.913  16
  -5   8   6 11920.9 740.839  15
  -5   8   5 25381.5 947.500   4
  -5   8   5 27336.8 1056.50  12
  -5   8   5 23884.0 964.430  20
  -5   8   5 29523.1 1150.52  11
  -5   8   5 27031.7 1227.21  16
  -5   8   5 28161.8 1153.59  10
  -5   8   5 25460.1 1077.09  15
  -5   8   4 19262.6 793.709   4
  -5   8   4 22956.0 905.509  12
  -5   8   4 20898.9 845.770  20
  -5   8   4 23954.4 956.158  11
  -5   8   4 22046.3 1022.43  16
  -5   8   4 24299.0 999.151  10
  -5   8   4 18713.2 867.217  29
  -5   8   4 22234.7 900.185  15
  -5   8   3 3063.59 297.865   4
  -5   8   3 3543.85 357.705  12
  -5   8   3 3354.13 325.747  20
  -5   8   3 4007.72 381.496  11
  -5   8   3 3149.42 333.203  32
  -5   8   3 3466.45 393.799  16
  -5   8   3 4336.65 408.946  10
  -5   8   2 355.938 173.571   4
  -5   8   2 201.420 313.378  13
  -5   8   2 178.425 206.045  12
  -5   8   2 348.867 190.651  20
  -5   8   2 283.298 210.062  35
  -5   8   2 483.263 212.909  11
  -5   8   2 270.887 282.792  17
  -5   8   2 350.262 244.461  16
  -5   8   2 388.908 213.588  10
  -5   8   1 15692.6 862.965  13
  -5   8   1 16705.1 725.679  12
  -5   8   1 15411.7 669.404  20
  -5   8   1 16227.5 736.548  11
  -5   8   1 15094.3 688.957  37
  -5   8   1 14585.2 708.276  35
  -5   8   1 16663.3 795.712  16
  -5   8   1 16738.4 713.290  10
  -5   8   1 14418.0 643.690   4
  -5   8   0 11351.9 738.404  13
  -5   8   0 12753.1 640.798  12
  -5   8   0 11367.7 575.918  20
  -5   8   0 11203.0 618.859  37
  -5   8   0 10961.3 621.742  35
  -5   8   0 11343.3 704.867  17
  -5   8   0 11717.0 667.099  16
  -5   8   0 10842.2 538.366   4
  -5   8  -1 69753.2 2172.42  13
  -5   8  -1 70503.5 2007.43  12
  -5   8  -1 67456.2 1932.65  20
  -5   8  -1 68843.5 2010.10  37
  -5   8  -1 68290.2 2000.31  35
  -5   8  -1 65786.2 1892.90  34
  -5   8  -1 74167.5 2137.32  17
  -5   8  -1 65185.9 2043.33  16
  -5   8  -1 58873.3 1830.74   4
  -5   8  -1 71639.2 2013.09  27
  -5   8  -2 3846.02 494.259  13
  -5   8  -2 3667.92 380.729  12
  -5   8  -2 3543.68 354.139  20
  -5   8  -2 4106.13 450.182  37
  -5   8  -2 4135.65 453.799  35
  -5   8  -2 3680.17 464.568  17
  -5   8  -2 3240.83 289.590   4
  -5   8  -2 2989.17 368.546  16
  -5   8  -2 3402.85 409.134  27
  -5   8  -2 3453.81 353.331   3
  -5   8  -3 18924.3 891.291  13
  -5   8  -3 18722.4 775.571  12
  -5   8  -3 17319.0 727.576  20
  -5   8  -3 21251.4 868.109  37
  -5   8  -3 21218.3 838.451  35
  -5   8  -3 18644.5 859.608  17
  -5   8  -3 13673.1 720.897  16
  -5   8  -3 17123.1 744.536  27
  -5   8  -3 17907.0 756.305   3
  -5   8  -4 1896.80 327.398  13
  -5   8  -4 1143.25 214.111  23
  -5   8  -4 1668.38 230.736  12
  -5   8  -4 1580.45 210.370  20
   5   8   4 1274.37 180.187   5
  -5   8  -4 1570.19 275.226  17
  -5   8  -5 2457.58 199.700  37
  -5   8  -5 2254.90 192.155  17
  -5   9   9 157.854 196.255  15
  -5   9   8 899.808 242.102  14
  -5   9   8 678.967 158.153   4
  -5   9   8 530.542 221.344  22
  -5   9   8 661.897 322.192  11
  -5   9   8 679.857 273.301  10
  -5   9   8 480.589 290.745  15
  -5   9   7 9626.11 579.499  14
  -5   9   7 10165.8 499.074   4
  -5   9   7 9941.39 616.473  22
  -5   9   7 8980.65 461.556   5
  -5   9   7 10381.2 745.909  11
  -5   9   7 8891.70 649.317  10
  -5   9   7 10129.9 689.296  15
  -5   9   6 28430.8 1012.28   4
  -5   9   6 31819.3 1228.92  22
  -5   9   6 28056.2 1123.27  12
  -5   9   6 27521.2 1065.98  20
  -5   9   6 34034.9 1322.89  11
  -5   9   6 30024.5 1348.99  16
  -5   9   6 33430.8 1279.40  15
  -5   9   5 1815.09 249.652   4
  -5   9   5 1639.33 325.918  12
  -5   9   5 1626.60 274.739  20
  -5   9   5 1462.77 347.996  11
  -5   9   5 1799.87 424.028  16
  -5   9   5 1739.40 361.565  10
  -5   9   5 1778.61 333.324  15
  -5   9   4 8496.29 476.186   4
  -5   9   4 9044.48 549.988  12
  -5   9   4 8219.41 491.018  20
  -5   9   4 10026.0 614.240  11
  -5   9   4 9436.01 682.196  16
  -5   9   4 10121.5 643.737  10
  -5   9   4 8388.07 536.826  15
  -5   9   3 3484.96 354.041  12
  -5   9   3 3125.13 310.132  20
  -5   9   3 4065.61 390.591  11
  -5   9   3 3012.46 309.063  32
  -5   9   3 4595.64 469.430  16
  -5   9   3 3646.63 392.730  10
  -5   9   3 2827.22 280.362   4
  -5   9   2 9801.82 716.409  13
  -5   9   2 10162.2 554.702  12
  -5   9   2 9412.07 500.857  20
  -5   9   2 11057.7 616.063  11
  -5   9   2 9893.96 562.552  35
  -5   9   2 9772.96 635.375  17
  -5   9   2 11402.5 671.225  16
  -5   9   2 10689.9 599.448  10
  -5   9   2 9113.87 482.241   4
  -5   9   1 13246.3 805.156  13
  -5   9   1 13943.0 647.873  12
  -5   9   1 11479.3 564.151  20
  -5   9   1 14206.2 695.763  11
  -5   9   1 11726.3 623.956  37
  -5   9   1 12307.1 640.498  35
  -5   9   1 14092.7 762.974  17
  -5   9   1 14123.7 750.417  16
  -5   9   1 14130.8 661.073  10
  -5   9   1 11524.7 552.951   4
  -5   9   0 7950.15 661.868  13
  -5   9   0 7679.77 502.079  12
  -5   9   0 8249.13 469.500  20
  -5   9   0 8027.24 546.906  37
  -5   9   0 8381.33 557.428  35
  -5   9   0 9202.19 603.769  16
  -5   9   0 7456.27 427.381   4
  -5   9  -1 7663.67 657.601  13
  -5   9  -1 7587.14 497.695  12
  -5   9  -1 7215.86 454.665  20
  -5   9  -1 7810.22 568.258  37
  -5   9  -1 8649.15 578.386  35
  -5   9  -1 7855.34 575.587  16
  -5   9  -1 6405.66 389.229   4
  -5   9  -1 7528.93 532.011  27
  -5   9  -2 6459.84 601.932  13
  -5   9  -2 5919.43 446.897  12
  -5   9  -2 5953.14 410.640  20
  -5   9  -2 6720.33 542.317  37
  -5   9  -2 6377.20 518.593  35
  -5   9  -2 6520.42 569.549  17
  -5   9  -2 5532.19 481.206  16
  -5   9  -2 5679.55 460.715  27
  -5   9  -3 13175.1 736.874  13
  -5   9  -3 11189.1 565.947  12
  -5   9  -3 11453.6 529.687  20
  -5   9  -3 13533.8 678.715  37
  -5   9  -3 14134.6 668.223  35
  -5   9  -3 12804.5 695.175  17
  -5   9  -3 9905.82 583.999  16
  -5   9  -3 11288.1 565.571  27
  -5   9  -4 4379.04 394.573  13
  -5   9  -4 2516.54 250.481  23
  -5   9  -4 3658.08 264.264  12
  -5   9  -4 4233.88 358.197  17
  -5   9  -4 2491.86 241.124  16
  -5   9  -5 359.317 117.462  37
  -5   9  -5 306.975 106.592  17
  -5  10   9 1542.13 178.288  29
  -5  10   9 1001.71 223.452  15
  -5  10   8 929.267 207.688  22
  -5  10   8 1144.52 342.861  11
  -5  10   8 885.110 259.975  10
  -5  10   8 1060.49 318.458  15
  -5  10   7 503.920 232.621  14
  -5  10   7 525.417 260.385  22
  -5  10   7 618.202 332.358  11
  -5  10   7 356.324 281.547  10
  -5  10   7 867.288 337.401  15
  -5  10   6 10058.1 650.034  22
  -5  10   6 9978.97 605.389  12
  -5  10   6 11785.1 745.245  11
  -5  10   6 10319.2 792.045  16
  -5  10   6 9882.01 704.806  10
  -5  10   6 10671.6 690.498  15
  -5  10   5 9695.67 588.795  12
  -5  10   5 11582.7 710.927  11
  -5  10   5 10527.5 776.348  16
  -5  10   5 11637.1 722.481  10
  -5  10   5 11368.2 647.950  29
  -5  10   5 11427.2 680.274  15
  -5  10   4 8875.52 541.824  12
  -5  10   4 9347.58 618.672  11
  -5  10   4 8939.81 680.507  16
  -5  10   4 10062.8 648.255  10
  -5  10   4 9164.63 578.733  29
  -5  10   4 8515.67 545.973  15
  -5  10   3 518.300 224.581  12
  -5  10   3 387.545 258.120  11
  -5  10   3 527.729 196.558  32
  -5  10   3 500.350 312.312  16
  -5  10   3 336.179 249.831  29
  -5  10   3 354.439 261.358  10
  -5  10   2 896.914 416.530  13
  -5  10   2 867.018 231.438  12
  -5  10   2 1198.67 298.918  35
  -5  10   2 699.219 279.524  11
  -5  10   2 671.558 330.134  17
  -5  10   2 1493.79 347.111  16
  -5  10   2 997.382 274.866  29
  -5  10   2 1089.50 281.376  10
  -5  10   1 17371.3 977.233  13
  -5  10   1 18220.4 775.123  12
  -5  10   1 21010.3 897.215  11
  -5  10   1 17809.8 803.215  37
  -5  10   1 20132.1 846.910  35
  -5  10   1 19459.9 915.167  17
  -5  10   1 20020.7 832.404  10
  -5  10   1 19694.4 938.315  16
  -5  10   1 18126.9 849.536  29
  -5  10   0 38798.5 1491.98  13
  -5  10   0 36661.9 1279.13  37
  -5  10   0 36657.5 1284.24  35
  -5  10   0 39501.1 1396.09  17
  -5  10   0 39884.2 1416.46  16
  -5  10  -1 14989.3 899.688  13
  -5  10  -1 13258.3 656.554  12
  -5  10  -1 14409.9 757.141  37
  -5  10  -1 15470.8 764.473  35
  -5  10  -1 14512.4 787.459  16
  -5  10  -1 14452.8 713.668  27
  -5  10  -2 192.509 364.709  13
  -5  10  -2 194.331 197.237  12
  -5  10  -2 124.652 324.344  37
  -5  10  -2 167.567 338.287  35
  -5  10  -2 139.715 249.552  16
  -5  10  -2 45.5339 266.078  27
  -5  10  -3 13514.8 755.422  13
  -5  10  -3 12132.1 547.969  12
  -5  10  -3 14935.2 684.890  37
  -5  10  -3 15413.4 679.741  35
  -5  10  -3 15236.9 730.257  17
  -5  10  -3 10442.7 600.627  16
  -5  10  -3 10431.3 531.195  27
  -5  10  -4 2284.75 215.768  23
  -5  10  -4 5004.78 402.601  13
  -5  10  -4 5314.75 370.334  17
  -5  10  -4 2859.29 245.429  16
  -5  11   9 555.485 114.283  29
  -5  11   9 336.443 151.283  15
  -5  11   8 159.694 138.262  22
  -5  11   8 422.417 279.416  11
  -5  11   8 217.940 178.504  29
  -5  11   8 346.185 209.759  10
  -5  11   8 399.511 251.826  15
  -5  11   7 2212.20 304.309  14
  -5  11   7 2071.05 303.654  22
  -5  11   7 2236.50 419.997  11
  -5  11   7 2265.50 388.477  15
  -5  11   7 2040.00 367.887  10
  -5  11   6 6511.99 528.838  22
  -5  11   6 6950.83 604.926  11
  -5  11   6 6699.73 653.415  16
  -5  11   6 6162.77 547.191  10
  -5  11   6 6242.32 546.663  15
  -5  11   5 33932.5 1239.08  12
  -5  11   5 43482.8 1483.43  11
  -5  11   5 38763.4 1565.56  16
  -5  11   5 40235.1 1368.46  29
  -5  11   5 35836.4 1345.62  15
  -5  11   4 2342.93 307.279  12
  -5  11   4 2717.68 403.822  11
  -5  11   4 2043.14 424.274  16
  -5  11   4 2387.04 358.015  29
  -5  11   4 2164.58 312.983  15
  -5  11   4 2185.22 379.445  10
  -5  11   3 6456.36 438.210  12
  -5  11   3 7505.50 561.392  11
  -5  11   3 6517.77 476.503  35
  -5  11   3 6928.69 594.214  16
  -5  11   3 7998.15 568.123  10
  -5  11   3 7143.29 512.504  29
  -5  11   2 21989.5 1125.52  13
  -5  11   2 18475.5 796.202  12
  -5  11   2 23536.3 986.772  11
  -5  11   2 19305.5 825.404  37
  -5  11   2 21248.0 885.046  35
  -5  11   2 21529.1 964.097  17
  -5  11   2 25089.2 980.130  10
  -5  11   2 25938.0 1084.11  16
  -5  11   2 22125.4 930.049  29
  -5  11   1 21884.5 1109.70  13
  -5  11   1 19933.8 809.525  12
  -5  11   1 22745.3 978.182  11
  -5  11   1 20647.1 882.373  37
  -5  11   1 22436.2 926.508  35
  -5  11   1 23040.8 1015.86  17
  -5  11   1 22885.0 923.774  10
  -5  11   1 23471.4 1047.59  16
  -5  11   1 20326.4 918.137  29
  -5  11   0 2738.77 504.349  13
  -5  11   0 2913.62 303.451  12
  -5  11   0 3080.62 407.484  37
  -5  11   0 2644.17 414.384  35
  -5  11   0 3265.74 457.296  17
  -5  11   0 3948.78 456.886  16
  -5  11   0 3061.07 315.093  10
  -5  11  -1 7431.33 683.364  13
  -5  11  -1 6136.90 416.357  12
  -5  11  -1 7222.30 558.138  37
  -5  11  -1 7852.95 573.310  35
  -5  11  -1 8156.50 618.710  17
  -5  11  -1 7998.09 595.485  16
  -5  11  -1 6181.19 483.235  27
  -5  11  -2 3971.77 529.373  13
  -5  11  -2 3180.76 295.051  12
  -5  11  -2 4660.35 467.671  37
  -5  11  -2 4545.25 468.828  35
  -5  11  -2 4009.79 427.133  16
  -5  11  -2 4139.45 367.024  27
  -5  11  -3 5157.75 492.902  13
  -5  11  -3 5426.89 433.436  37
  -5  11  -3 5498.36 431.309  35
  -5  11  -3 3905.70 365.233  16
  -5  11  -3 3590.18 293.579  27
  -5  11  -4 10765.7 505.736  13
  -5  11  -4 10768.6 462.809  17
  -5  11  -4 5839.43 319.863  16
  -5  12   8 393.184 248.613  11
  -5  12   8 247.074 161.966  29
  -5  12   8 323.852 189.122  10
  -5  12   8 249.121 223.157  15
  -5  12   7 6085.06 418.671  22
  -5  12   7 7299.91 579.407  11
  -5  12   7 6142.60 495.789  10
  -5  12   7 8153.37 483.227  29
  -5  12   7 7762.25 546.380  15
  -5  12   6 6224.87 487.517  22
  -5  12   6 6627.46 581.138  11
  -5  12   6 6783.84 668.357  16
  -5  12   6 6328.63 548.805  10
  -5  12   6 6599.65 492.460  29
  -5  12   6 6891.14 536.605  15
  -5  12   5 494.489 211.081  12
  -5  12   5 472.299 328.841  11
  -5  12   5 648.033 396.389  16
  -5  12   5 661.901 272.540  29
  -5  12   5 655.296 282.880  15
  -5  12   4 1319.36 335.277  11
  -5  12   4 1372.43 407.661  16
  -5  12   4 1327.62 297.480  29
  -5  12   4 1583.80 355.724  10
  -5  12   4 1362.21 287.274  15
  -5  12   3 10534.2 660.174  11
  -5  12   3 7981.68 538.325  35
  -5  12   3 9546.02 635.982  10
  -5  12   3 9349.13 692.738  16
  -5  12   3 9652.01 597.042  29
  -5  12   2 943.533 468.495  13
  -5  12   2 881.106 271.563  37
  -5  12   2 1092.13 324.362  35
  -5  12   2 1339.49 332.140  11
  -5  12   2 1635.10 399.165  16
  -5  12   2 1112.91 290.767  29
  -5  12   2 1468.63 313.162  10
  -5  12   1 14115.8 914.696  13
  -5  12   1 15678.2 802.004  11
  -5  12   1 12333.5 687.472  37
  -5  12   1 13336.5 718.830  35
  -5  12   1 13131.1 766.483  17
  -5  12   1 15166.5 728.444  10
  -5  12   1 16493.3 864.179  16
  -5  12   0 8080.13 729.044  13
  -5  12   0 7282.08 570.367  11
  -5  12   0 7608.72 557.518  37
  -5  12   0 8252.55 587.849  35
  -5  12   0 8034.66 609.569  17
  -5  12   0 8650.00 633.966  16
  -5  12   0 8336.71 504.952  10
  -5  12  -1 3837.26 564.306  13
  -5  12  -1 3118.88 435.197  37
  -5  12  -1 4112.80 467.685  35
  -5  12  -1 3507.46 455.708  17
  -5  12  -1 3292.86 431.858  16
  -5  12  -1 3241.74 360.672  27
  -5  12  -2 13621.6 800.880  13
  -5  12  -2 12924.3 670.936  37
  -5  12  -2 13115.4 668.418  35
  -5  12  -2 12510.7 697.136  17
  -5  12  -2 10769.1 653.463  16
  -5  12  -3 2597.13 401.700  13
  -5  12  -3 3109.19 360.457  37
  -5  12  -3 2013.26 283.065  16
  -5  12  -4 1511.16 244.435  13
  -5  12  -4 830.042 140.448  16
  -5  13   8 4223.80 371.515  11
  -5  13   8 4723.97 369.755  15
  -5  13   7 5665.93 360.694  22
  -5  13   7 7043.52 552.654  11
  -5  13   7 5845.34 462.409  10
  -5  13   7 7599.60 436.389  29
  -5  13   7 7434.00 514.169  15
  -5  13   6 7512.38 504.411  22
  -5  13   6 8818.78 646.255  11
  -5  13   6 8002.17 679.958  16
  -5  13   6 7667.11 585.829  10
  -5  13   6 9166.22 523.630  29
  -5  13   6 8042.18 564.510  15
  -5  13   5 3718.71 469.532  11
  -5  13   5 2638.83 490.251  16
  -5  13   5 3523.44 379.778  29
  -5  13   5 2871.24 371.883  15
  -5  13   4 971.643 350.298  11
  -5  13   4 1271.81 424.104  16
  -5  13   4 1496.05 304.697  29
  -5  13   4 1153.72 337.519  10
  -5  13   4 1189.27 273.636  15
  -5  13   3 624.727 282.088  35
  -5  13   3 574.536 316.246  11
  -5  13   3 640.904 370.348  16
  -5  13   3 562.878 266.190  29
  -5  13   3 495.519 293.889  10
  -5  13   3 401.611 199.799  15
  -5  13   2 6520.93 702.280  13
  -5  13   2 8173.67 602.216  11
  -5  13   2 5439.74 447.755  37
  -5  13   2 7286.32 531.117  35
  -5  13   2 8593.20 575.915  10
  -5  13   2 8088.08 640.086  16
  -5  13   2 7067.13 516.972  29
  -5  13   1 1397.08 512.781  13
  -5  13   1 1626.89 335.687  37
  -5  13   1 1460.64 374.502  35
  -5  13   1 1471.93 351.300  11
  -5  13   1 1238.63 355.967  17
  -5  13   1 1498.14 380.904  16
  -5  13   1 1746.87 311.572  10
  -5  13   0 7655.35 717.228  13
  -5  13   0 6771.80 541.343  11
  -5  13   0 6924.21 528.020  37
  -5  13   0 7478.25 567.174  35
  -5  13   0 6642.41 557.651  17
  -5  13   0 6607.52 458.065  10
  -5  13   0 6640.14 580.840  16
  -5  13  -1 2454.78 502.543  13
  -5  13  -1 2941.62 413.641  37
  -5  13  -1 2507.92 421.113  35
  -5  13  -1 2466.73 398.006  17
  -5  13  -1 2601.24 403.377  16
  -5  13  -1 2289.30 317.863  27
  -5  13  -2 1726.97 441.489  13
  -5  13  -2 1725.94 366.959  37
  -5  13  -2 2101.01 366.243  35
  -5  13  -2 1698.43 344.600  17
  -5  13  -2 1558.37 310.234  16
  -5  13  -2 1266.10 233.184  27
  -5  13  -3 279.725 285.432  13
  -5  13  -3 364.827 247.879  37
  -5  13  -3 238.757 157.067  11
  -5  13  -3 376.238 223.731  17
  -5  13  -3 206.312 189.965  16
  -5  13  -4 882.833 182.023  13
  -5  13  -4 891.761 150.054  35
  -5  13  -4 845.784 161.052  17
  -5  14   8 1561.94 229.462  11
  -5  14   8 1978.57 165.471  32
  -5  14   8 2157.59 161.499  29
  -5  14   8 1828.52 225.375  15
  -5  14   7 510.679 262.948  11
  -5  14   7 413.501 171.661  29
  -5  14   7 493.525 223.208  10
  -5  14   7 394.956 220.151  15
  -5  14   6 4302.78 361.710  22
  -5  14   6 5385.18 499.224  11
  -5  14   6 4447.17 532.298  16
  -5  14   6 5148.85 459.502  10
  -5  14   6 5330.91 391.573  29
  -5  14   6 5546.89 462.881  15
  -5  14   5 292.953 249.567  22
  -5  14   5 422.169 322.519  11
  -5  14   5 534.388 396.782  16
  -5  14   5 675.951 261.829  29
  -5  14   5 573.814 256.460  15
  -5  14   4 11508.9 700.067  11
  -5  14   4 9143.78 538.624  35
  -5  14   4 9879.11 654.896  10
  -5  14   4 10711.0 763.089  16
  -5  14   4 10834.6 618.694  29
  -5  14   4 9675.54 575.192  15
  -5  14   3 8162.58 601.903  11
  -5  14   3 6148.55 489.739  35
  -5  14   3 8300.67 586.294  10
  -5  14   3 7477.16 644.186  16
  -5  14   3 7830.65 518.635  29
  -5  14   3 6112.45 440.782  15
  -5  14   2 6602.89 556.916  11
  -5  14   2 4813.35 415.418  37
  -5  14   2 6589.66 517.633  35
  -5  14   2 8025.89 558.930  10
  -5  14   2 6886.15 611.012  16
  -5  14   2 6019.82 480.532  29
  -5  14   1 24515.1 1207.80  13
  -5  14   1 23980.6 1037.88  11
  -5  14   1 22760.2 939.326  37
  -5  14   1 23629.6 974.105  35
  -5  14   1 21116.8 962.872  17
  -5  14   1 24646.7 992.385  10
  -5  14   1 24928.9 1108.78  16
  -5  14   0 2972.13 563.349  13
  -5  14   0 2815.01 390.530  11
  -5  14   0 2817.81 412.940  37
  -5  14   0 3021.68 435.333  35
  -5  14   0 2779.16 392.975  17
  -5  14   0 3378.62 338.155  10
  -5  14   0 2720.80 420.874  16
  -5  14  -1 3819.60 547.114  13
  -5  14  -1 2731.96 365.997  11
  -5  14  -1 3544.56 428.091  37
  -5  14  -1 3556.38 435.548  35
  -5  14  -1 2805.23 378.331  17
  -5  14  -1 3327.12 421.109  16
  -5  14  -1 2832.92 305.899  27
  -5  14  -2 2520.36 422.721  13
  -5  14  -2 2011.32 283.001  11
  -5  14  -2 2750.32 357.682  37
  -5  14  -2 3019.69 369.531  35
  -5  14  -2 2371.39 329.544  17
  -5  14  -2 2154.19 312.270  16
  -5  14  -3 1411.84 299.082  13
  -5  14  -3 1286.06 240.004  37
  -5  14  -3 954.697 170.511  11
  -5  14  -3 1391.43 229.799  17
  -5  14  -3 1181.77 210.285  16
  -5  15   7 487.436 239.450  11
  -5  15   7 311.675 125.189  32
  -5  15   7 643.993 156.558  29
  -5  15   7 465.101 190.197  10
  -5  15   7 664.079 217.748  15
  -5  15   6 272.104 168.451  22
  -5  15   6 238.083 296.932  11
  -5  15   6 323.934 185.956  29
  -5  15   6 216.069 240.214  10
  -5  15   6 159.856 225.095  15
  -5  15   5 1910.27 300.534  22
  -5  15   5 2094.65 374.844  11
  -5  15   5 2200.30 461.740  16
  -5  15   5 2996.12 323.367  29
  -5  15   5 2168.09 322.086  15
  -5  15   4 6772.43 552.354  11
  -5  15   4 5739.06 429.319  35
  -5  15   4 6089.46 503.093  10
  -5  15   4 5563.63 579.340  16
  -5  15   4 6312.63 463.285  29
  -5  15   4 5613.30 433.075  15
  -5  15   3 3735.18 459.903  11
  -5  15   3 3784.42 413.750  35
  -5  15   3 3863.10 435.757  10
  -5  15   3 4953.62 557.701  16
  -5  15   3 3367.68 372.462  29
  -5  15   3 3380.82 321.469  15
  -5  15   2 4551.92 476.376  11
  -5  15   2 3488.39 377.579  37
  -5  15   2 4252.55 447.764  35
  -5  15   2 4697.22 440.201  10
  -5  15   2 4695.12 535.412  16
  -5  15   1 500.382 481.723  13
  -5  15   1 688.015 298.804  37
  -5  15   1 594.648 351.412  35
  -5  15   1 633.872 310.208  11
  -5  15   1 712.060 347.032  16
  -5  15   1 1024.08 277.102  10
  -5  15   0 211.431 442.101  13
  -5  15   0 86.1013 295.330  37
  -5  15   0 38.5194 350.041  35
  -5  15   0 389.424 281.759  11
  -5  15   0 274.600 267.076  17
  -5  15   0 13.6113 313.183  16
  -5  15   0 93.0618 191.050  10
  -5  15   0 341.459 234.715  27
  -5  15  -1 490.031 388.295  13
  -5  15  -1 619.660 319.140  37
  -5  15  -1 145.598 315.754  35
  -5  15  -1 222.768 237.451  11
  -5  15  -1 330.097 254.370  17
  -5  15  -1 372.471 283.900  16
  -5  15  -1 205.624 182.427  27
  -5  15  -2 4761.48 476.525  13
  -5  15  -2 3735.47 332.227  11
  -5  15  -2 4838.08 385.644  37
  -5  15  -2 5028.16 390.164  35
  -5  15  -2 4406.66 365.080  17
  -5  15  -2 4129.75 372.746  16
  -5  15  -3 446.661 221.878  13
  -5  15  -3 443.371 177.800  37
  -5  15  -3 192.192 110.074  11
  -5  15  -3 408.758 156.476  17
  -5  15  -3 302.084 140.644  16
  -5  16   7 1304.77 226.941  11
  -5  16   7 1336.73 130.190  29
  -5  16   7 1124.76 176.425  10
  -5  16   7 1304.70 207.487  15
  -5  16   6 3595.27 382.438  11
  -5  16   6 3354.27 339.073  10
  -5  16   6 3517.03 271.191  29
  -5  16   6 3504.87 334.778  15
  -5  16   5 1197.05 236.848  22
  -5  16   5 2149.99 363.514  11
  -5  16   5 1522.92 244.406  29
  -5  16   5 1878.93 283.707  15
  -5  16   5 1538.69 314.138  10
  -5  16   4 10896.3 553.942  35
  -5  16   4 11231.4 651.637  10
  -5  16   4 11616.2 572.822  29
  -5  16   4 10317.0 567.637  15
  -5  16   3 1375.82 334.512  35
  -5  16   3 1455.75 347.509  11
  -5  16   3 1303.55 393.475  16
  -5  16   3 1496.38 239.176  15
  -5  16   3 1323.71 264.040  29
  -5  16   3 1131.09 306.878  10
  -5  16   2 13541.7 754.028  11
  -5  16   2 11783.8 609.548  37
  -5  16   2 13916.0 700.753  35
  -5  16   2 13808.4 713.818  10
  -5  16   2 13707.5 801.587  16
  -5  16   1 2695.53 398.080  11
  -5  16   1 2501.11 361.623  37
  -5  16   1 2452.32 403.093  35
  -5  16   1 2598.85 335.317  10
  -5  16   1 3375.40 441.145  16
  -5  16   0 2041.12 477.482  13
  -5  16   0 1505.19 336.416  37
  -5  16   0 1339.02 344.023  35
  -5  16   0 1461.50 315.898  11
  -5  16   0 1519.15 291.477  17
  -5  16   0 1580.27 254.002  10
  -5  16   0 1406.98 334.356  16
  -5  16   0 1374.68 249.404  27
  -5  16  -1 65.1329 346.089  13
  -5  16  -1 115.486 264.000  37
  -5  16  -1 98.4518 280.074  35
  -5  16  -1 363.077 223.041  11
  -5  16  -1 118.214 143.625  34
  -5  16  -1 218.887 205.476  17
  -5  16  -1 205.033 233.374  16
  -5  16  -2 3768.04 406.226  13
  -5  16  -2 3504.35 291.572  11
  -5  16  -2 4194.63 326.455  37
  -5  16  -2 4144.06 330.920  35
  -5  16  -2 3604.82 295.130  17
  -5  16  -2 3518.45 323.064  16
  -5  16  -3 1703.83 216.791  13
  -5  16  -3 1700.16 159.507  16
  -5  17   6 7681.81 460.866  11
  -5  17   6 6963.43 408.641  10
  -5  17   6 6080.62 289.454  29
  -5  17   6 6914.98 400.586  15
  -5  17   5 359.458 157.634  22
  -5  17   5 768.724 280.851  11
  -5  17   5 534.853 166.908  29
  -5  17   5 564.472 229.849  10
  -5  17   5 500.167 196.449  15
  -5  17   4 572.004 241.199  35
  -5  17   4 511.530 265.023  11
  -5  17   4 541.208 188.381  29
  -5  17   4 526.012 204.103  15
  -5  17   3 1119.04 306.083  35
  -5  17   3 1005.43 311.237  11
  -5  17   3 1016.94 278.954  10
  -5  17   2 2332.48 370.172  11
  -5  17   2 1938.25 297.618  37
  -5  17   2 2356.20 372.538  35
  -5  17   2 2272.88 317.329  10
  -5  17   2 2493.10 399.970  16
  -5  17   1 2228.80 339.670  11
  -5  17   1 1658.63 315.288  37
  -5  17   1 1648.97 340.277  35
  -5  17   1 1745.69 343.534  16
  -5  17   1 1469.91 273.165  10
  -5  17   0 54.1656 355.235  13
  -5  17   0-38.1131 261.373  37
  -5  17   0 218.758 291.478  35
  -5  17   0 170.660 230.025  11
  -5  17   0 295.181 274.491  16
  -5  17   0 106.231 168.314  10
  -5  17   0 207.263 153.528  27
  -5  17  -1 396.295 312.165  13
  -5  17  -1 953.681 261.524  37
  -5  17  -1 483.612 253.714  35
  -5  17  -1 535.409 212.653  11
  -5  17  -1 600.523 234.389  16
  -5  17  -2 612.008 245.462  13
  -5  17  -2 778.861 203.284  37
  -5  17  -2 515.022 142.627  11
  -5  17  -2 628.123 171.465  16
  -5  18   6 2292.57 250.807  11
  -5  18   6 2032.76 207.665  10
  -5  18   6 2239.74 205.106  15
  -5  18   5 3465.59 338.231  11
  -5  18   5 2858.02 353.655  16
  -5  18   5 2965.05 293.979  10
  -5  18   5 3003.47 265.684  15
  -5  18   4-6.59924 155.270  22
  -5  18   4 78.2102 223.041  11
  -5  18   4 6.77872 146.579  15
  -5  18   3 1058.58 284.852  35
  -5  18   3 1009.49 278.778  11
  -5  18   3 920.760 248.211  10
  -5  18   2 6013.38 460.623  11
  -5  18   2 5580.21 434.642  35
  -5  18   2 5818.71 430.708  10
  -5  18   1 8617.84 523.057  11
  -5  18   1 8652.54 468.080  37
  -5  18   1 9893.67 538.496  35
  -5  18   1 9794.84 504.640  10
  -5  18   1 9439.43 580.967  16
  -5  18   0 1581.10 260.427  11
  -5  18   0 1990.82 292.434  37
  -5  18   0 1719.14 298.352  35
  -5  18   0 1655.41 288.938  16
  -5  18   0 1515.52 213.259  10
  -5  18  -1 1727.34 221.074  11
  -5  18  -1 1983.40 255.892  37
  -5  18  -1 2116.32 257.092  35
  -5  18  -1 1657.01 242.025  16
  -5  18  -2 49.9398 118.769  37
  -5  18  -2 4.85188 95.3214  16
  -5  19   5 2929.51 276.627  11
  -5  19   5 2945.91 252.217  10
  -5  19   4 3739.05 331.251  11
  -5  19   4 3722.67 363.308  16
  -5  19   3 2373.95 304.591  11
  -5  19   3 1900.85 257.193  35
  -5  19   3 2108.04 273.718  10
  -5  19   3 2189.14 329.144  16
  -5  19   2 734.614 256.493  35
  -5  19   2 539.459 238.038  11
  -5  19   2 734.626 213.983  10
  -5  19   1 650.579 208.603  37
  -5  19   1 637.597 250.574  35
  -5  19   1 596.337 216.123  11
  -5  19   1 644.497 193.199  10
  -5  19   0 401.128 191.458  37
  -5  19   0 449.369 210.588  35
  -5  19   0 187.453 164.440  11
  -5  19   0 263.813 202.969  16
  -5  19   0 215.892 127.825  10
  -5  19  -1 697.584 162.995  37
  -5  19  -1 954.803 172.068  35
  -5  19  -1 569.847 132.776  11
  -5  19  -1 383.810 144.491  16
  -5  20   4 1054.99 193.446  11
  -5  20   4 1124.35 203.358  16
  -5  20   4 1028.20 184.754  10
  -5  20   3 48.4102 137.817  35
  -5  20   3 169.071 163.439  11
  -5  20   3 130.875 185.442  16
  -5  20   3 111.649 146.323  10
  -5  20   2 866.298 202.988  35
  -5  20   2 1049.99 203.973  11
  -5  20   2 1310.91 206.982  10
  -5  20   2 897.124 217.822  16
  -5  20   1 2257.73 186.164  37
  -5  20   1 2945.37 254.746  11
  -5  20   1 3137.59 263.487  35
  -5  20   1 2667.82 229.545  10
  -5  20   0 457.807 125.388  37
  -5  20   0 724.657 155.397  35
  -5  20   0 719.183 141.337  11
  -5  21   3 951.732 154.464  16
  -5  21   3 1308.31 160.278  10
  -5  21   2 1491.14 171.251  11
  -5  21   2 1291.16 143.691  35
  -5  21   2 1553.47 186.635  16
   6 -19  -3 525.496 129.411  26
   6 -19  -3 307.347 149.385  21
   6 -19  -2 2432.42 235.994  21
   6 -19  -2 3146.64 192.555  26
   6 -18  -5 5825.32 272.943  26
   6 -18  -5 4103.97 303.627  21
   6 -18  -4 2141.29 268.081  21
   6 -18  -3 758.613 178.690  26
   6 -18  -3 691.056 221.251  21
   6 -18  -2 228.830 139.242  26
   6 -18  -2 195.774 191.547  21
   6 -18  -2 118.532 100.003  30
   6 -18  -1 770.560 130.193  26
   6 -18  -1 848.271 194.853  21
   6 -18  -1 825.773 133.304  30
   6 -17  -5 1598.52 206.971  26
   6 -17  -5 1314.97 256.051  21
   6 -17  -5 1375.34 135.036  28
   6 -17  -4 969.375 275.724  21
   6 -17  -4 933.869 126.419  28
   6 -17  -3 288.133 184.334  26
   6 -17  -3 200.097 244.922  21
   6 -17  -3 203.184 133.606  30
   6 -17  -2 1290.81 218.565  26
   6 -17  -2 1336.01 298.686  21
   6 -17  -2 1114.33 193.556  30
   6 -17  -1 4102.56 375.652  21
   6 -17  -1 4031.23 283.908  30
   6 -17  -1 4626.04 282.212  26
  -6 -17   0 2955.62 186.202  23
   6 -17   0 2548.88 272.368  21
   6 -17   0 1839.33 155.438  38
   6 -17   0 3119.21 222.488  30
   6 -17   0 1917.22 146.257  26
   6 -16  -6 2088.45 205.436  26
   6 -16  -6 1568.33 248.982  21
   6 -16  -6 1549.51 148.962  28
   6 -16  -5 1120.19 290.218  21
   6 -16  -5 829.870 147.070  28
   6 -16  -4 4780.30 359.328  26
   6 -16  -4 3714.58 421.962  21
   6 -16  -4 3829.57 251.363  28
   6 -16  -3 7177.31 428.077  26
   6 -16  -3 6979.20 539.955  21
   6 -16  -2 1176.71 234.953  26
   6 -16  -2 1020.76 310.557  21
   6 -16  -2 776.183 218.682  30
   6 -16  -1 1753.33 340.719  21
   6 -16  -1 1698.52 245.813  30
   6 -16  -1 1504.51 214.175  26
  -6 -16   0 1463.69 187.511  23
   6 -16   0 1166.69 265.101  21
   6 -16   0 1035.78 190.044  38
   6 -16   0 1222.28 214.388  30
   6 -16   0 958.605 146.329  26
  -6 -16  -1 2595.60 188.799  23
   6 -16   1 1741.39 217.513  21
   6 -16   1 1944.16 170.905  38
   6 -16   1 2724.57 208.618  30
   6 -15  -7 2497.05 232.668  21
   6 -15  -7 2603.39 164.681  28
   6 -15  -6 1742.15 234.237  26
   6 -15  -6 1585.12 295.921  21
   6 -15  -6 1384.91 176.678  28
   6 -15  -5 4738.79 463.165  21
   6 -15  -5 4325.37 289.429  28
   6 -15  -4 1035.53 267.093  26
   6 -15  -4 943.785 325.164  21
   6 -15  -4 921.170 197.476  30
   6 -15  -4 732.497 161.966  28
   6 -15  -3 1553.02 278.221  26
   6 -15  -3 1332.10 367.691  21
   6 -15  -3 1043.05 234.542  30
   6 -15  -2 9774.27 508.720  26
   6 -15  -2 8855.20 631.712  21
   6 -15  -2 8592.19 510.206  30
   6 -15  -1 3229.65 287.870  26
  -6 -15   1 2836.65 255.676  23
   6 -15  -1 2894.65 412.679  21
   6 -15  -1 3233.26 335.020  30
   6 -15   0 742.796 157.239  26
  -6 -15   0 801.388 190.649  23
   6 -15   0 700.265 277.508  21
   6 -15   0 687.949 210.043  38
   6 -15   0 769.024 225.827  30
  -6 -15  -1 11700.9 459.242  23
   6 -15   1 11178.9 465.070  38
  -6 -14   7 6898.50 321.315  25
   6 -14  -7 6360.32 415.915  21
   6 -14  -7 6334.54 308.346  28
   6 -14  -6 559.516 228.564  26
  -6 -14   6 732.214 184.463  25
   6 -14  -6 739.105 285.794  21
   6 -14  -6 507.041 158.197  28
  -6 -14   5 4970.46 343.073  25
   6 -14  -5 4330.89 485.999  21
   6 -14  -5 4334.46 311.833  28
   6 -14  -4 2063.65 321.127  26
  -6 -14   4 1713.86 234.690  25
   6 -14  -4 1847.60 403.961  21
   6 -14  -4 1354.50 196.521  28
   6 -14  -3 6724.94 457.613  26
  -6 -14   3 5489.16 350.723  25
   6 -14  -3 5691.20 556.750  21
   6 -14  -3 5836.59 434.493  30
   6 -14  -2 641.600 237.366  26
   6 -14  -2 487.942 329.147  21
   6 -14  -2 411.072 254.072  30
   6 -14  -1 4950.04 359.716  26
  -6 -14   1 4704.91 341.373  23
   6 -14  -1 5272.74 528.211  21
   6 -14  -1 4883.46 406.962  30
   6 -14   0 759.127 169.874  26
  -6 -14   0 731.581 210.041  23
   6 -14   0 724.815 298.839  21
   6 -14   0 628.107 245.326  30
  -6 -14  -1 5998.37 358.410  23
   6 -14   1 5063.22 418.480  21
   6 -14   1 5602.95 363.545  38
  -6 -14  -2 197.079 126.919  23
   6 -14   2 241.330 137.782  21
   6 -14   2 451.069 138.250  38
   6 -14   2 224.708 116.017  30
   6 -13  -7-18.5368 170.698  26
  -6 -13   7 196.446 164.390  25
   6 -13  -7-48.8792 195.328  21
   6 -13  -7 111.957 133.673  28
  -6 -13   6 5957.45 396.506  25
   6 -13  -6 6589.36 536.330  21
   6 -13  -6 6469.88 377.492  28
   6 -13  -5 7006.86 483.181  26
  -6 -13   5 6362.65 418.918  25
   6 -13  -5 5519.14 544.305  21
   6 -13  -5 5376.06 361.560  28
   6 -13  -4 2813.87 357.620  26
  -6 -13   4 3080.34 320.986  25
   6 -13  -4 2642.59 439.029  21
   6 -13  -4 2591.71 256.898  28
   6 -13  -3 8052.60 507.606  26
  -6 -13   3 6819.99 425.206  25
   6 -13  -3 8340.56 657.119  21
  -6 -13   3 5885.17 359.090  32
   6 -13  -2 15277.3 682.135  26
  -6 -13   2 14449.4 607.854  25
   6 -13  -2 15531.2 880.421  21
   6 -13  -2 15565.4 729.000  30
   6 -13  -1 8484.37 468.607  26
  -6 -13   1 8402.54 477.394  23
   6 -13  -1 7769.47 643.565  21
   6 -13  -1 9412.84 557.373  30
   6 -13   0 407.596 154.294  26
  -6 -13   0 348.135 227.504  23
   6 -13   0 566.341 315.538  21
  -6 -13  -1 1573.56 254.239  23
   6 -13   1 894.957 286.362  21
   6 -13   1 1237.77 256.751  38
   6 -13   1 1756.67 260.300  30
  -6 -13  -2 1804.39 210.110  23
   6 -13   2 1144.27 216.200  21
   6 -13   2 1740.47 219.632  38
   6 -13   2 1685.17 192.793  30
   6 -12  -8 1422.88 172.280  26
  -6 -12   8 1675.50 175.945  25
   6 -12  -8 1486.70 150.973  28
   6 -12  -7 1175.57 241.109  26
  -6 -12   7 1113.05 224.763  25
   6 -12  -7 786.166 251.420  21
   6 -12  -7 877.858 181.560  28
  -6 -12   6 3077.45 335.712  25
   6 -12  -6 3346.71 451.159  21
   6 -12  -6 2947.57 285.815  28
   6 -12  -5 291.780 267.829  26
  -6 -12   5 310.036 235.680  25
   6 -12  -5 541.358 339.479  21
   6 -12  -5 357.984 178.568  28
   6 -12  -4 4194.63 410.603  26
  -6 -12   4 3413.50 362.853  25
   6 -12  -4 4054.63 496.802  21
  -6 -12   4 2698.12 273.321  32
   6 -12  -4 3159.72 279.383  28
   6 -12  -3 10745.8 595.153  26
  -6 -12   3 10470.6 557.549  25
   6 -12  -3 10309.5 738.274  21
  -6 -12   3 12340.7 535.352  34
  -6 -12   3 8595.04 487.591  32
   6 -12  -2 8821.18 501.818  26
  -6 -12   2 7186.92 446.644  25
  -6 -12   2 6112.25 400.392  23
   6 -12  -2 8382.34 660.651  21
  -6 -12   2 7601.84 469.812  34
  -6 -12   2 7128.45 444.098  32
   6 -12  -1 2679.75 300.003  26
  -6 -12   1 3070.80 328.059  23
   6 -12  -1 2943.39 474.844  21
   6 -12  -1 3276.17 397.997  30
  -6 -12   0 3770.73 359.811  23
   6 -12   0 3508.98 447.066  21
   6 -12   0 2995.52 265.766  26
  -6 -12  -1 207.189 225.984  23
   6 -12   1 369.705 267.784  21
   6 -12   1 17.4930 245.467  38
   6 -12   1 207.767 231.380  30
  -6 -12  -2 6808.28 382.010  23
   6 -12   2 6755.80 387.960  38
   6 -12   2 5593.78 328.023  30
  -6 -12  -3 161.283 94.8630  23
   6 -11  -8 2600.68 234.030  26
  -6 -11   8 2976.40 250.363  25
   6 -11  -8 2300.58 207.328  28
   6 -11  -7 342.244 236.038  26
  -6 -11   7 741.359 240.166  25
   6 -11  -7 506.570 278.262  21
   6 -11  -7 346.529 189.621  28
  -6 -11   6 6186.92 456.059  25
   6 -11  -6 5607.15 537.937  21
   6 -11  -6 5425.65 379.145  28
   6 -11  -5 11721.4 645.848  26
  -6 -11   5 11993.3 634.965  25
   6 -11  -5 11934.0 776.124  21
   6 -11  -5 10943.4 546.666  28
   6 -11  -4 12740.8 644.035  26
  -6 -11   4 12252.1 629.155  25
   6 -11  -4 11843.4 767.064  21
  -6 -11   4 9078.70 458.005  34
  -6 -11   4 10580.4 538.369  32
   6 -11  -4 9559.78 485.588  28
   6 -11  -3 285.382 245.981  26
  -6 -11   3 218.800 226.466  25
   6 -11  -3 33.3517 306.364  21
  -6 -11   3 179.841 256.998  34
  -6 -11   3 237.671 229.228  32
   6 -11  -2 2171.48 299.065  26
  -6 -11   2 2830.39 325.791  25
  -6 -11   2 2052.11 263.019  23
   6 -11  -2 2017.61 409.235  21
  -6 -11   2 2340.92 350.260  34
  -6 -11   2 2112.36 314.732  32
   6 -11  -1 4871.26 367.198  26
  -6 -11   1 4717.93 368.263  25
   6 -11  -1 4909.55 540.937  21
  -6 -11   1 4480.74 383.058  32
  -6 -11   0 1747.64 317.161  23
   6 -11   0 1419.46 376.232  21
   6 -11   0 2022.18 348.914  30
   6 -11   0 1553.00 211.014  26
   6 -11   1 885.598 320.400  21
   6 -11   1 715.733 249.864  30
  -6 -11  -2 3821.85 326.591  23
   6 -11   2 4014.10 294.191  30
  -6 -11  -3 2838.60 204.038  23
   6 -11   3 814.601 145.140  21
   6 -11   3 2730.44 215.467  38
   6 -11   3 1533.87 123.008  30
   6 -10  -8 1401.36 221.094  26
  -6 -10   8 1670.84 230.785  25
   6 -10  -8 1349.68 189.192  28
  -6 -10   7 1596.59 296.290  25
   6 -10  -7 1909.47 355.699  21
   6 -10  -7 1367.71 228.782  28
   6 -10  -6 849.359 299.877  26
  -6 -10   6 877.933 307.040  25
   6 -10  -6 527.095 321.990  21
   6 -10  -6 842.686 219.244  28
   6 -10  -5 5001.28 459.223  26
  -6 -10   5 5873.94 477.815  25
   6 -10  -5 4996.09 548.009  21
  -6 -10   5 4147.36 342.698  32
   6 -10  -5 4092.06 341.059  28
   6 -10  -4 19213.5 824.855  26
  -6 -10   4 20293.9 842.913  25
   6 -10  -4 18833.0 962.224  21
  -6 -10   4 14336.7 655.408  34
  -6 -10   4 18517.9 761.719  32
   6 -10  -4 15586.0 658.421  28
   6 -10  -3 11175.4 592.323  26
  -6 -10   3 10855.7 597.432  25
   6 -10  -3 11190.9 745.601  21
  -6 -10   3 10598.6 590.271  32
   6 -10  -2 1726.08 266.803  26
  -6 -10   2 1435.43 280.052  25
   6 -10  -2 1788.12 398.095  21
  -6 -10   2 1744.66 375.970  34
  -6 -10   2 1429.45 319.269  32
   6 -10  -1 11968.8 566.943  26
  -6 -10   1 12627.8 612.876  25
  -6 -10   1 12311.8 635.003  23
   6 -10  -1 11930.4 779.099  21
  -6 -10   1 12413.9 642.138  32
  -6 -10   0 11211.7 652.193  23
   6 -10   0 10944.0 756.036  21
  -6 -10   0 10640.6 582.368  34
   6 -10   0 12365.8 670.284  30
  -6 -10  -1 2118.44 341.204  23
   6 -10   1 2074.59 325.335  30
   6 -10   2 1314.16 277.883  21
   6 -10   2 1917.87 244.356  30
  -6 -10  -3 3318.09 251.152  23
   6 -10   3 3475.61 252.821  38
   6  -9  -9 859.268 126.151  26
   6  -9  -9 1060.42 117.779  28
   6  -9  -8 2697.64 287.590  26
   6  -9  -8 2218.40 239.489  28
   6  -9  -7 3360.48 406.385  21
   6  -9  -7 3857.95 336.479  28
  -6  -9   6 1472.04 234.829   4
  -6  -9   6 1371.49 337.049  25
   6  -9  -6 2115.75 390.252  21
   6  -9  -6 1282.99 250.545  28
  -6  -9   5 1643.29 242.533   4
   6  -9  -5 1866.05 337.730  26
  -6  -9   5 1882.29 357.819  25
   6  -9  -5 1770.98 384.884  21
  -6  -9   5 1637.47 283.009  32
   6  -9  -5 1555.03 248.147  28
   6  -9  -4 36849.1 1210.47  26
  -6  -9   4 35284.3 1222.81  25
   6  -9  -4 35815.7 1382.80  21
  -6  -9   4 31095.2 1113.98  20
  -6  -9   4 32851.8 1147.03  32
  -6  -9   4 32926.7 1088.38   4
   6  -9  -3 15195.6 694.344  26
  -6  -9   3 15733.5 741.067  25
   6  -9  -3 14087.9 830.498  21
  -6  -9   3 13222.8 647.256  20
  -6  -9   3 13383.0 689.487  34
  -6  -9   3 15766.1 734.160  32
  -6  -9   3 14578.1 643.913   4
   6  -9  -2 32125.9 1063.41  26
  -6  -9   2 32459.5 1114.84  25
  -6  -9   2 24043.3 1000.05  23
   6  -9  -2 30586.1 1267.51  21
  -6  -9   2 27650.0 1012.09  20
  -6  -9   2 29901.3 1099.87  34
  -6  -9   2 34544.5 1152.36  32
  -6  -9   2 29239.1 1003.59   4
   6  -9  -1 2511.40 271.457  26
  -6  -9   1 3272.57 346.091  25
  -6  -9   1 3127.24 357.540  23
   6  -9  -1 2498.91 411.981  21
  -6  -9   1 3028.18 315.683  20
  -6  -9   1 3123.58 387.239  32
  -6  -9   1 2944.41 289.974   4
  -6  -9   0 13190.5 685.980  23
   6  -9   0 12112.9 766.143  21
  -6  -9   0 11012.4 555.067  20
  -6  -9   0 11166.6 598.072  34
  -6  -9   0 13290.3 632.581  32
  -6  -9   0 12111.4 534.308   4
   6  -9   0 13569.3 679.189  30
  -6  -9  -1 4784.16 456.481  23
   6  -9   1 4308.80 477.517  21
  -6  -9  -1 4018.92 325.357  20
  -6  -9  -1 4068.86 324.943  34
   6  -9   1 4696.22 412.873  30
  -6  -9  -2 1128.74 285.400  23
   6  -9   2 952.717 272.857  21
   6  -9   2 1058.09 270.939  38
   6  -9   2 1239.00 223.704  30
  -6  -9  -3 2567.85 247.546  23
   6  -9   3 2503.08 240.515  38
   6  -8  -9 1256.65 163.656  26
   6  -8  -9 1645.38 155.134  28
   6  -8  -8 3600.86 260.979   3
   6  -8  -8 4190.67 315.096  28
  -6  -8   7 3649.26 306.108   4
   6  -8  -7 3868.46 427.102  21
   6  -8  -7 3691.54 341.049  28
  -6  -8   6 1643.47 254.674   4
  -6  -8   6 1667.64 351.578  25
   6  -8  -6 1802.51 370.303  21
  -6  -8   6 1772.46 264.845  32
   6  -8  -6 1828.90 264.715  28
  -6  -8   5 30533.9 1064.11   4
  -6  -8   5 34681.1 1207.85  25
   6  -8  -5 31847.8 1302.66  21
  -6  -8   5 28991.7 1200.47  20
  -6  -8   5 31477.4 1100.26  32
   6  -8  -5 27437.6 1014.05  28
  -6  -8   4 21936.3 848.477   4
   6  -8  -4 22759.7 896.505  26
  -6  -8   4 24666.0 967.690  25
   6  -8  -4 23081.4 1046.82  21
  -6  -8   4 20357.5 871.362  20
  -6  -8   4 22996.0 913.138  32
   6  -8  -3 2446.84 310.161  26
  -6  -8   3 2268.45 347.484  25
   6  -8  -3 2565.17 393.790  21
  -6  -8   3 2330.20 322.339  20
  -6  -8   3 2490.97 374.660  34
  -6  -8   3 2314.05 359.360  32
  -6  -8   3 2396.84 296.399   4
   6  -8  -2 2926.68 300.761  26
  -6  -8   2 2853.51 359.326  25
  -6  -8   2 2366.97 298.029  23
   6  -8  -2 2553.40 389.884  21
  -6  -8   2 2134.59 305.180  20
  -6  -8   2 3307.87 408.960  34
  -6  -8   2 3249.79 387.924  32
  -6  -8   2 3130.33 319.284   4
  -6  -8   1 34887.6 1185.98  25
  -6  -8   1 32322.6 1195.97  23
   6  -8  -1 32531.7 1321.87  21
  -6  -8   1 31488.8 1126.26  20
  -6  -8   1 31443.7 1090.71   4
  -6  -8   0 4681.94 451.514  23
   6  -8   0 4575.72 497.098  21
  -6  -8   0 4635.56 386.592  20
  -6  -8   0 4681.07 430.106  34
  -6  -8   0 4637.41 438.299  32
  -6  -8   0 4563.03 350.441   4
   6  -8   0 5076.63 433.891  30
  -6  -8  -1 7798.99 554.595  23
   6  -8   1 6180.10 541.058  21
  -6  -8  -1 6784.48 436.910  20
  -6  -8  -1 6712.10 420.076  34
   6  -8   1 6567.64 460.152  30
   6  -8   2 582.904 244.808  21
  -6  -8  -2 767.224 192.235  20
   6  -8   2 1229.20 293.079  38
   6  -8   2 772.112 208.463  30
  -6  -8  -3 2792.44 284.986  23
   6  -8   3 1547.27 220.305  21
   6  -8   3 3299.09 275.638  38
   6  -8   3 2001.69 162.517  30
  -6  -7   9 2309.59 208.696  25
   6  -7  -9 1714.53 173.074  28
  -6  -7   8 403.438 236.900  25
  -6  -7   8 201.491 163.624   4
   6  -7  -8 226.616 177.110  28
  -6  -7   7 6541.92 425.250   4
   6  -7  -7 5398.26 489.860  21
   6  -7  -7 5574.54 414.322  28
  -6  -7   6 11015.6 571.618   4
  -6  -7   6 9088.21 555.047  22
   6  -7  -6 9279.27 658.244  21
  -6  -7   6 8560.15 522.654  12
  -6  -7   6 9448.42 537.984  32
   6  -7  -6 9064.96 522.816  28
  -6  -7   5 19458.5 775.393   4
  -6  -7   5 20694.7 885.097  25
   6  -7  -5 16909.4 883.254  21
  -6  -7   5 16130.5 723.939  12
  -6  -7   5 15295.2 919.985  20
  -6  -7   5 12482.5 599.492  34
  -6  -7   5 18651.0 794.408  32
   6  -7  -5 15374.1 671.856  28
  -6  -7   4 13800.6 661.088   4
   6  -7  -4 14856.9 693.042  26
  -6  -7   4 15588.1 753.204  25
   6  -7  -4 13936.4 781.901  21
  -6  -7   4 12101.4 622.255  12
  -6  -7   4 14092.8 697.387  20
  -6  -7   4 11178.4 620.737  34
  -6  -7   4 14995.0 721.068  32
   6  -7  -3 10306.8 559.042  26
  -6  -7   3 12178.8 653.996  25
   6  -7  -3 10300.8 667.006  21
  -6  -7   3 9410.39 535.254  12
  -6  -7   3 11255.7 615.446  20
  -6  -7   3 11378.5 640.944  34
  -6  -7   3 12838.4 663.945  32
  -6  -7   3 10940.3 580.633   4
   6  -7  -2 11220.5 549.459  26
  -6  -7   2 12327.3 649.037  25
  -6  -7   2 9939.05 566.940  23
   6  -7  -2 11978.0 711.600  21
  -6  -7   2 9802.54 543.769  12
  -6  -7   2 12217.6 620.414  20
  -6  -7   2 12433.7 668.184  34
  -6  -7   2 13501.3 685.598  32
  -6  -7   2 12159.6 609.110   4
  -6  -7   1 511.590 244.363  25
  -6  -7   1 422.915 213.246   4
  -6  -7   1 507.558 263.949  23
   6  -7  -1 564.919 276.790  21
  -6  -7   1 275.277 195.376  12
  -6  -7   1 414.812 244.731  20
  -6  -7   1 273.731 295.534  32
  -6  -7   0 8544.68 598.772  23
   6  -7   0 7767.60 595.037  21
  -6  -7   0 7875.58 477.324  12
  -6  -7   0 9568.60 543.701  20
  -6  -7   0 9373.88 559.680  34
  -6  -7   0 8591.71 490.683   4
   6  -7   0 8386.73 535.800  30
  -6  -7  -1 21546.6 918.464  23
   6  -7   1 15245.0 859.994  21
  -6  -7  -1 16098.6 731.523  12
  -6  -7  -1 20264.7 810.539  20
  -6  -7  -1 17414.0 743.870  34
  -6  -7  -1 17045.2 717.597  33
  -6  -7  -1 20382.3 774.418   4
   6  -7   1 18355.1 783.333  30
  -6  -7  -2 1859.06 238.622  12
   6  -7   2 1262.20 283.974  21
  -6  -7  -2 1975.26 270.968  20
   6  -7   2 1935.72 314.868  38
  -6  -7  -2 1981.08 255.611  33
   6  -7   2 1852.53 242.710  30
  -6  -7  -3 3939.34 335.698  23
  -6  -7  -3 3658.79 260.682  20
   6  -7   3 4057.26 302.522  38
  -6  -7  -4 5185.94 240.449  23
   6  -7   4 5522.63 228.218  38
   6  -6  -9 520.865 129.877   3
  -6  -6   9 489.297 154.897  25
  -6  -6   9 486.507 133.761   4
   6  -6  -9 474.711 147.992  28
  -6  -6   8 899.338 255.975  25
  -6  -6   8 683.552 216.035   4
   6  -6  -8 720.778 210.421  28
  -6  -6   7 18776.9 801.892  25
  -6  -6   7 16564.8 706.543   4
  -6  -6   7 16068.2 771.367  22
   6  -6  -7 13310.9 745.788  21
  -6  -6   7 15630.2 649.186  32
   6  -6  -7 14672.1 675.619  28
  -6  -6   6 10836.3 593.147   4
  -6  -6   6 10590.4 622.106  22
   6  -6  -6 10987.3 701.785  21
  -6  -6   6 10208.2 600.805  12
  -6  -6   6 11399.9 608.028  32
   6  -6  -6 10520.1 564.320  28
  -6  -6   5 93.6984 218.142   4
   6  -6  -5 117.249 231.404  21
  -6  -6   5 393.040 236.005  12
  -6  -6   5 147.201 549.048  20
  -6  -6   5 196.744 202.006  34
  -6  -6   5 88.2814 274.256  32
   6  -6  -5 154.789 160.066  28
  -6  -6   4 2089.63 303.867   4
  -6  -6   4 2001.22 344.606  25
   6  -6  -4 2033.28 335.268  21
  -6  -6   4 1447.98 283.527  12
  -6  -6   4 1888.98 352.536  20
  -6  -6   4 2130.69 324.771  34
  -6  -6   4 2043.23 357.454  32
   6  -6  -3 8257.22 496.034  26
  -6  -6   3 9533.74 593.589  25
   6  -6  -3 9321.93 611.044  21
  -6  -6   3 8835.19 536.153  12
  -6  -6   3 10327.7 593.488  20
  -6  -6   3 9974.89 600.329  34
  -6  -6   3 11033.3 630.891  32
  -6  -6   3 10581.6 574.597   4
   6  -6  -2 230.432 150.567  26
  -6  -6   2 177.151 236.634  25
  -6  -6   2 80.3301 213.579   4
  -6  -6   2 383.837 209.853  23
   6  -6  -2 363.687 249.909  21
  -6  -6   2 187.911 209.834  12
  -6  -6   2 347.420 253.531  20
  -6  -6   2 84.9297 315.369  34
  -6  -6   2 325.196 285.597  32
  -6  -6   1 48659.9 1512.15  25
  -6  -6   1 46180.3 1533.68  23
   6  -6  -1 43731.9 1563.71  21
  -6  -6   1 43984.8 1425.95  12
  -6  -6   1 46853.7 1484.12  20
  -6  -6   1 45700.5 1455.59   4
  -6  -6   0 5795.69 507.679  23
   6  -6   0 4480.54 459.222  21
  -6  -6   0 5864.11 434.614  12
  -6  -6   0 6615.87 477.255  20
  -6  -6   0 5602.77 459.542  34
  -6  -6   0 6286.78 436.097   4
  -6  -6   0 6355.80 424.152  27
  -6  -6  -1 5602.05 514.071  23
   6  -6   1 4085.48 434.099  21
  -6  -6  -1 4912.80 410.746  12
  -6  -6  -1 5204.33 437.547  20
  -6  -6  -1 4500.69 392.910  34
  -6  -6  -1 6521.66 433.683   4
   6  -6   1 5059.39 403.593  30
  -6  -6  -2 2637.63 297.806  12
  -6  -6  -2 3038.65 330.986  20
   6  -6   2 3346.01 351.675  38
  -6  -6  -2 2226.89 215.781  34
  -6  -6  -2 2895.15 277.863  33
   6  -6   2 2497.04 260.225  30
  -6  -6  -3 1586.09 275.097  23
  -6  -6  -3 1423.63 203.452  12
  -6  -6  -3 1820.31 237.174  20
   6  -6   3 1842.87 239.844  38
  -6  -6  -3 1618.53 206.681  33
  -6  -6  -4 2766.61 187.106  23
  -6  -6  -4 3037.34 170.816  20
   6  -6   4 2850.56 161.196  38
  -6  -5   9 1180.76 179.202   4
  -6  -5   9 1060.98 182.066  25
   6  -5  -9 983.183 172.659   3
   6  -5  -9 641.804 158.610  28
  -6  -5   8 552.601 240.250  25
  -6  -5   8 220.833 211.617   4
  -6  -5   8 314.711 254.241  22
  -6  -5   8 653.171 222.637   5
   6  -5  -8 276.569 198.948  28
  -6  -5   7 9307.42 581.877  25
  -6  -5   7 10133.6 554.857   4
  -6  -5   7 8558.51 575.603  22
  -6  -5   7 9618.99 531.974   5
  -6  -5   7 9023.47 506.951  32
  -6  -5   6 1263.48 337.646  25
  -6  -5   6 1681.73 321.627   4
  -6  -5   6 1480.21 325.046  22
  -6  -5   6 1453.18 317.163  12
  -6  -5   6 1261.65 305.757  32
   6  -5  -6 909.110 226.475  28
  -6  -5   5 3738.63 386.423   4
  -6  -5   5 3563.02 372.338  22
  -6  -5   5 3292.76 384.658  12
  -6  -5   5 4475.62 469.456  20
  -6  -5   5 2732.00 304.056  34
  -6  -5   5 3902.84 418.242  32
  -6  -5   4 4583.61 404.538   4
  -6  -5   4 3702.88 378.831  12
  -6  -5   4 4605.79 449.638  20
  -6  -5   4 4000.36 394.679  34
  -6  -5   4 4728.28 458.280  32
  -6  -5   3 5888.53 449.599   4
   6  -5  -3 4638.24 357.899  26
  -6  -5   3 5540.82 461.858  25
  -6  -5   3 4810.83 415.430  12
  -6  -5   3 4887.19 452.942  20
  -6  -5   3 4980.38 457.046  34
  -6  -5   3 5510.11 479.547  32
  -6  -5   2 9207.99 568.101  25
  -6  -5   2 7344.11 494.579  23
  -6  -5   2 8814.98 534.956  12
  -6  -5   2 9084.03 561.485  20
  -6  -5   2 10249.4 609.581  34
  -6  -5   2 9373.88 600.141  32
  -6  -5   2 9114.30 545.236   4
  -6  -5   1 38273.4 1324.46  25
  -6  -5   1 37108.6 1341.01  23
  -6  -5   1 37888.9 1285.58  12
  -6  -5   1 39384.3 1321.86  20
  -6  -5   1 39905.8 1306.10   4
  -6  -5   0 22997.6 990.717  23
   6  -5   0 17659.3 887.557  21
  -6  -5   0 20819.0 872.571  12
  -6  -5   0 23551.2 925.357  20
  -6  -5   0 22213.8 890.905  34
  -6  -5   0 18810.4 847.349  32
  -6  -5   0 22667.9 879.135   4
  -6  -5   0 22205.5 854.805  27
  -6  -5  -1 11930.8 701.394  23
   6  -5   1 6704.40 539.236  21
  -6  -5  -1 9821.87 578.580  12
  -6  -5  -1 11202.6 614.287  20
  -6  -5  -1 9498.25 527.307  34
  -6  -5  -1 13692.2 602.588  32
  -6  -5  -1 10277.3 546.075   4
   6  -5   1 9261.67 525.704  30
  -6  -5  -1 10941.3 583.263  27
  -6  -5  -2 81.8953 209.570  12
  -6  -5  -2 47.8873 234.343  20
   6  -5   2 18.4648 223.404  38
  -6  -5  -2 51.0237 152.230  34
  -6  -5  -2 240.653 179.752  33
   6  -5   2 334.232 161.388  30
  -6  -5  -3 2246.00 306.759  23
  -6  -5  -3 2622.14 267.674  12
  -6  -5  -3 2755.14 286.091  20
   6  -5   3 2627.13 264.920  38
  -6  -5  -3 2265.94 233.704  33
  -6  -5  -4 2704.70 202.474  23
  -6  -5  -4 2356.67 166.319  12
   6  -5   4 2322.99 149.931  38
   6  -5   4 2744.67 198.090   5
   6  -4  -9 477.648 166.570   3
  -6  -4   9 670.139 163.708  25
  -6  -4   9 590.259 177.868   4
   6  -4  -9 352.539 152.325  28
  -6  -4   8 617.445 247.641  25
  -6  -4   8 841.494 253.193   4
  -6  -4   8 922.605 305.645  22
  -6  -4   8 635.623 232.946   5
  -6  -4   8 579.172 200.642  32
   6  -4  -8 563.984 215.359  28
  -6  -4   7 3997.13 421.031  25
  -6  -4   7 3732.29 398.936   4
  -6  -4   7 3435.50 406.855  22
  -6  -4   7 3914.68 390.272   5
  -6  -4   7 3058.56 387.350  12
  -6  -4   7 3561.69 375.148  32
   6  -4  -7 3142.32 337.904  28
  -6  -4   6 9510.01 612.658  25
  -6  -4   6 9882.21 588.623   4
  -6  -4   6 9444.79 623.960  22
  -6  -4   6 10205.4 579.541   5
  -6  -4   6 9768.00 620.079  12
  -6  -4   6 9615.34 597.798  32
   6  -4  -6 7708.09 491.611  28
  -6  -4   5 11564.8 654.125  25
  -6  -4   5 11349.2 622.592   4
  -6  -4   5 10867.0 619.585  22
  -6  -4   5 11448.0 642.085  12
  -6  -4   5 11775.9 673.020  20
  -6  -4   5 11360.1 642.698  32
  -6  -4   4 19564.8 824.798   4
  -6  -4   4 17684.1 809.009  12
  -6  -4   4 18651.7 850.102  20
  -6  -4   4 19961.1 867.869  32
  -6  -4   3 22253.4 887.628   4
   6  -4  -3 18639.3 761.997  26
  -6  -4   3 19222.9 872.475  25
  -6  -4   3 21270.1 867.717  12
  -6  -4   3 21400.7 891.700  20
  -6  -4   3 21378.5 885.882  34
  -6  -4   3 21710.1 917.517  32
  -6  -4   2 6543.09 487.945  25
  -6  -4   2 5939.88 452.492  23
  -6  -4   2 6958.91 485.627  12
  -6  -4   2 6702.99 498.696  20
  -6  -4   2 7419.26 533.883  34
  -6  -4   2 7349.80 498.053   4
  -6  -4   1 14349.0 717.950  25
  -6  -4   1 14024.4 740.462  23
  -6  -4   1 13232.9 679.668  12
  -6  -4   1 14863.7 731.586  20
  -6  -4   1 12967.4 709.198  32
  -6  -4   1 14711.0 702.199   4
  -6  -4   1 14146.7 643.950  27
  -6  -4   0 27051.2 1150.00  23
  -6  -4   0 29476.5 1089.01  12
  -6  -4   0 30636.0 1114.24  20
  -6  -4   0 28741.0 1061.09  34
  -6  -4   0 26592.5 1038.69  32
  -6  -4   0 28262.0 1064.97   4
  -6  -4   0 29847.7 1059.75  27
  -6  -4  -1 369.942 237.452   4
  -6  -4  -1 595.304 325.936  23
  -6  -4  -1 636.138 280.040  12
  -6  -4  -1 879.417 320.486  20
  -6  -4  -1 832.338 274.905  34
  -6  -4  -1 1075.71 268.098  32
   6  -4   1 712.621 211.573  30
  -6  -4  -1 328.654 269.744  27
  -6  -4  -2 235.374 235.048  12
  -6  -4  -2 141.873 248.395  20
   6  -4   2-45.1818 208.125  38
  -6  -4  -2 16.3288 157.870  34
  -6  -4  -2 226.064 168.066  33
  -6  -4  -3 1019.98 259.782  23
  -6  -4  -3 1419.07 245.516  12
  -6  -4  -3 1200.77 250.291  20
   6  -4   3 832.222 192.608  38
  -6  -4  -4 58.3035 123.043  23
  -6  -4  -4 217.641 123.381  12
  -6  -4  -4 117.930 133.335  20
   6  -4   4 238.039 135.923   5
   6  -3  -9 378.963 176.620   3
  -6  -3   9 291.304 145.722  25
  -6  -3   9 473.707 191.682   4
   6  -3  -9 190.217 146.819  28
  -6  -3   8 8964.94 505.423  25
  -6  -3   8 9511.65 533.446   4
  -6  -3   8 7929.28 565.231  22
  -6  -3   8 9905.01 524.402   5
  -6  -3   8 7625.53 453.291  32
   6  -3  -8 7445.42 469.551  28
  -6  -3   7 5004.45 454.536  25
  -6  -3   7 5636.53 467.644   4
  -6  -3   7 5336.72 500.669  22
  -6  -3   7 5353.70 443.380   5
  -6  -3   7 4705.52 475.746  12
  -6  -3   7 5140.67 438.640  32
   6  -3  -7 3983.76 374.392  28
  -6  -3   6 57901.6 1662.49  25
  -6  -3   6 59110.1 1649.33   4
  -6  -3   6 56266.8 1723.85  22
  -6  -3   6 61936.2 1634.79   5
  -6  -3   6 55264.5 1661.21  12
  -6  -3   6 62490.7 1843.61  20
  -6  -3   5 2605.78 366.554  25
  -6  -3   5 3209.72 377.200   4
  -6  -3   5 2669.58 366.759  22
  -6  -3   5 2641.21 388.280  12
  -6  -3   5 2996.57 431.034  20
  -6  -3   5 2099.05 296.517  34
  -6  -3   5 3301.06 405.805  32
  -6  -3   4 5456.73 442.259   4
  -6  -3   4 5386.90 447.663  25
  -6  -3   4 5396.95 430.614  22
  -6  -3   4 4942.72 444.195  12
  -6  -3   4 5074.30 464.276  20
  -6  -3   4 4853.16 432.674  34
  -6  -3   4 5321.71 487.934  32
  -6  -3   3 3253.30 369.619   4
  -6  -3   3 3216.83 363.972  12
  -6  -3   3 3353.14 394.763  20
  -6  -3   3 3127.82 405.615  34
  -6  -3   3 2408.84 383.723  32
  -6  -3   2 34760.6 1265.21  25
  -6  -3   2 36972.0 1264.11  12
  -6  -3   2 39550.4 1291.69  20
  -6  -3   2 38405.9 1280.94  34
  -6  -3   2 39294.1 1280.95   4
  -6  -3   1 2796.11 355.865  25
  -6  -3   1 2311.41 367.290  23
  -6  -3   1 2121.98 346.698  12
  -6  -3   1 2348.31 370.421  20
  -6  -3   1 2640.06 398.454  34
  -6  -3   1 2406.40 366.512  32
  -6  -3   1 2593.56 350.263   4
  -6  -3   1 2663.51 325.078  27
  -6  -3   0 1907.09 376.412  23
  -6  -3   0 2289.55 346.003  12
  -6  -3   0 2463.06 382.309  20
  -6  -3   0 1837.20 274.944  37
  -6  -3   0 2318.16 362.675  34
  -6  -3   0 2238.16 333.683  32
  -6  -3   0 2286.58 332.320   4
  -6  -3   0 2735.01 350.110  27
  -6  -3  -1 8796.61 647.778  23
  -6  -3  -1 9424.63 597.409  12
  -6  -3  -1 10103.0 623.708  20
  -6  -3  -1 8753.51 520.749  37
  -6  -3  -1 8347.56 504.634  34
  -6  -3  -1 8591.32 487.699  32
  -6  -3  -1 9277.32 545.953   4
   6  -3   1 8108.18 458.426  30
  -6  -3  -1 9665.46 583.286  27
  -6  -3  -2 14887.5 725.749  12
  -6  -3  -2 15816.9 757.097  20
   6  -3   2 13782.3 655.289  38
  -6  -3  -2 16159.5 693.956  37
  -6  -3  -2 11302.1 533.967  34
  -6  -3  -2 17584.7 752.412  27
  -6  -3  -2 13920.4 765.609   3
  -6  -3  -3 3620.75 366.469  23
  -6  -3  -3 3679.90 344.400  12
  -6  -3  -3 4153.95 369.517  20
   6  -3   3 3769.82 281.308  38
  -6  -3  -4 23.7963 121.404  23
  -6  -3  -4 55.3717 132.476  12
  -6  -3  -4 52.5297 143.429  20
   6  -3   4 128.705 146.484   5
  -6  -2   9 1979.65 194.318  25
  -6  -2   9 2649.73 274.793   4
   6  -2  -9 2097.17 247.226   3
  -6  -2   9 2729.37 273.614   5
   6  -2  -9 1798.53 226.242  28
  -6  -2   8 8762.77 497.055  25
  -6  -2   8 10375.6 566.831   4
  -6  -2   8 8979.91 584.586  22
  -6  -2   8 10621.0 551.358   5
  -6  -2   8 8800.92 498.744  32
  -6  -2   7 2070.34 324.304  25
  -6  -2   7 2291.12 365.288   4
  -6  -2   7 2192.57 401.316  22
  -6  -2   7 2421.93 357.767   5
  -6  -2   7 1844.09 394.098  12
  -6  -2   7 1251.03 774.074  20
  -6  -2   7 2602.76 367.077  32
   6  -2  -7 1413.53 258.617  28
  -6  -2   7 1563.53 402.675  15
  -6  -2   6 58454.1 1721.42  25
  -6  -2   6 58081.6 1719.72   4
  -6  -2   6 53831.0 1770.87  22
  -6  -2   6 59049.5 1699.86   5
  -6  -2   6 56565.8 1758.87  12
  -6  -2   6 68699.6 1923.07  20
  -6  -2   6 60376.8 1761.31  32
   6  -2  -6 40478.8 1509.04  28
  -6  -2   6 39180.5 1698.74  15
  -6  -2   5 17034.8 785.934  25
  -6  -2   5 18650.2 815.998   4
  -6  -2   5 17347.3 832.530  22
  -6  -2   5 16508.1 806.187  12
  -6  -2   5 17538.0 829.424  20
  -6  -2   5 17125.0 815.065  32
  -6  -2   4 21044.7 885.110   4
  -6  -2   4 20626.2 874.136  25
  -6  -2   4 19480.4 868.466  22
  -6  -2   4 21592.9 905.175  12
  -6  -2   4 22404.3 923.020  20
  -6  -2   4 20553.9 898.091  32
  -6  -2   3 33817.6 1185.83   4
  -6  -2   3 30636.2 1164.42  25
  -6  -2   3 33470.0 1186.24  12
  -6  -2   3 33733.3 1197.37  20
  -6  -2   3 33175.2 1172.97  34
  -6  -2   2 809.158 270.663   4
  -6  -2   2 437.015 235.912  23
  -6  -2   2 682.343 292.824  12
  -6  -2   2 675.853 286.779  20
  -6  -2   2 1024.25 340.085  34
  -6  -2   2 966.765 306.925  32
  -6  -2   2 688.698 230.295  27
  -6  -2   1 8148.36 555.602  25
  -6  -2   1 7369.40 555.274  23
  -6  -2   1 9360.29 587.250  12
  -6  -2   1 9266.14 579.754  20
  -6  -2   1 8726.63 582.806  34
  -6  -2   1 7334.19 528.039  32
  -6  -2   1 8996.95 558.647   4
  -6  -2   1 9535.02 543.684  27
  -6  -2   0 10.5539 242.835   4
  -6  -2   0-130.427 274.630  23
  -6  -2   0 449.430 284.337  12
  -6  -2   0 531.524 292.746  20
  -6  -2   0 7.79627 217.558  37
  -6  -2   0 271.360 299.278  34
  -6  -2   0 100.192 246.769  32
  -6  -2   0 139.186 260.396  27
  -6  -2  -1 20804.1 958.641   3
  -6  -2  -1 22680.5 993.160  23
  -6  -2  -1 21660.5 912.879  12
  -6  -2  -1 22535.1 925.382  20
  -6  -2  -1 17751.1 765.197  37
  -6  -2  -1 18265.0 729.927  35
  -6  -2  -1 18715.3 770.871  34
  -6  -2  -1 15422.3 718.528  32
  -6  -2  -1 20749.4 840.835   4
   6  -2   1 16587.3 687.708  30
  -6  -2  -1 23024.1 895.448  27
  -6  -2  -2 4588.24 444.666  12
  -6  -2  -2 5237.56 474.134  20
   6  -2   2 4471.73 359.613  38
  -6  -2  -2 4763.84 409.244  37
  -6  -2  -2 3727.17 301.735  34
  -6  -2  -2 5978.73 485.056  27
  -6  -2  -2 5084.12 497.754   3
  -6  -2  -3 3721.39 371.685  23
  -6  -2  -3 3540.94 352.172  12
  -6  -2  -3 3998.66 367.866  20
   6  -2   3 3103.88 248.439  38
  -6  -2  -3 2981.83 369.140   3
  -6  -2  -4 4714.43 297.587  12
  -6  -2  -4 5228.39 312.613  20
   6  -2   4 4505.79 292.411   5
  -6  -1   9 2597.81 197.828  25
  -6  -1   9 4234.08 327.317   4
  -6  -1   9 3098.93 335.513  22
   6  -1  -9 3479.41 298.077   3
  -6  -1   9 4019.48 304.661   5
   6  -1  -9 2451.07 246.839  28
  -6  -1   8 894.408 223.194  25
  -6  -1   8 624.115 290.834   4
  -6  -1   8 762.979 323.159  22
  -6  -1   8 801.408 274.678   5
  -6  -1   8 1072.90 280.894  32
   6  -1  -8 519.982 208.621  28
  -6  -1   8 447.463 340.276  15
  -6  -1   7 13586.0 668.063  25
  -6  -1   7 14290.9 726.793   4
  -6  -1   7 14291.9 800.839  22
  -6  -1   7 14773.6 720.486   5
  -6  -1   7 14556.4 781.512  12
  -6  -1   7 13685.9 980.004  20
  -6  -1   7 16024.7 751.299  32
   6  -1  -7 10138.5 589.963  28
  -6  -1   7 11086.7 796.889  15
  -6  -1   6 3902.64 401.062  25
  -6  -1   6 3840.18 419.283   4
  -6  -1   6 3414.77 441.657  22
  -6  -1   6 3982.63 411.722   5
  -6  -1   6 3545.02 455.032  12
  -6  -1   6 3959.93 456.244  32
  -6  -1   6 3365.51 310.362  29
   6  -1  -6 2242.36 275.152  28
  -6  -1   6 2625.76 421.435  15
  -6  -1   5 21087.2 895.420  25
  -6  -1   5 22188.0 921.018   4
  -6  -1   5 21791.1 955.732  22
  -6  -1   5 22363.9 945.551  12
  -6  -1   5 22794.6 967.793  20
  -6  -1   5 16871.2 757.884  34
  -6  -1   5 21015.3 932.233  32
  -6  -1   5 18192.2 961.577  10
  -6  -1   4 1893.28 311.667  25
  -6  -1   4 1911.40 318.203  22
  -6  -1   4 1838.16 317.060   4
  -6  -1   4 1832.92 333.318  12
  -6  -1   4 1817.82 356.792  20
  -6  -1   4 1852.10 336.173  34
  -6  -1   4 2562.92 389.252  32
  -6  -1   4 1553.15 336.056  10
  -6  -1   3 10269.6 589.892   4
  -6  -1   3 9682.64 578.182  25
  -6  -1   3 9195.23 562.233  22
  -6  -1   3 9435.06 582.926  12
  -6  -1   3 10357.7 609.187  20
  -6  -1   3 9747.26 598.984  34
  -6  -1   2 324.969 226.521  25
  -6  -1   2 460.109 255.384   4
  -6  -1   2 498.856 261.818  12
  -6  -1   2 53.8197 264.258  20
  -6  -1   2 406.455 331.703  34
  -6  -1   2 330.185 277.281  32
  -6  -1   2 556.344 242.327  27
  -6  -1   1 5098.60 469.021  12
  -6  -1   1 5098.42 477.271  20
  -6  -1   1 4995.58 456.202  34
  -6  -1   1 3798.28 411.272  32
  -6  -1   1 5128.87 441.110   4
  -6  -1   1 5195.85 428.845  27
  -6  -1   0 5420.22 489.362  12
  -6  -1   0 6026.04 503.600  20
  -6  -1   0 5032.76 385.183  37
  -6  -1   0 5760.93 467.777  34
  -6  -1   0 4533.51 394.422  17
  -6  -1   0 4371.46 406.428  32
  -6  -1   0 4600.16 430.707   4
  -6  -1   0 6399.30 481.871  27
  -6  -1  -1 40806.4 1429.01   3
  -6  -1  -1 39723.8 1437.91  23
  -6  -1  -1 41799.0 1383.72  12
  -6  -1  -1 42190.1 1384.75  20
  -6  -1  -1 37782.0 1231.09  37
  -6  -1  -1 35887.4 1169.60  35
  -6  -1  -1 37226.7 1216.43  34
  -6  -1  -1 41361.3 1307.34   4
  -6  -1  -1 42287.2 1339.98  27
  -6  -1  -2 7275.70 538.911  12
  -6  -1  -2 7603.63 555.221  20
   6  -1   2 6549.80 416.332  38
  -6  -1  -2 7553.13 495.426  37
  -6  -1  -2 7557.43 469.096  35
  -6  -1  -2 7701.07 544.715  27
  -6  -1  -2 6576.24 570.567   3
  -6  -1  -3 392.815 261.903  23
  -6  -1  -3 454.610 265.630   3
  -6  -1  -3 343.524 242.990  12
  -6  -1  -3 416.027 252.202  20
  -6  -1  -3 706.336 261.734  37
  -6  -1  -4 850.169 167.101  23
  -6  -1  -4 1328.64 203.575  12
  -6  -1  -4 1295.85 206.522  20
   6  -1   4 1202.45 197.571   5
  -6   0   9 42.2645 193.746   4
  -6   0   9-87.7113 213.644  22
  -6   0   9 22.3384 169.364  32
   6   0  -9 131.788 152.861  28
  -6   0   8 2606.93 270.808  25
  -6   0   8 3431.23 401.306   4
  -6   0   8 2438.70 407.876  22
  -6   0   8 3325.59 361.656  32
   6   0  -8 2431.61 289.355  28
  -6   0   8 2357.16 436.365  15
  -6   0   7 7328.62 483.346  25
  -6   0   7 7224.37 544.032   4
  -6   0   7 7401.19 603.141  22
  -6   0   7 7152.03 588.116  12
  -6   0   7 5311.52 754.458  20
  -6   0   7 8765.82 576.249  32
  -6   0   7 6482.15 627.074  15
  -6   0   6 42.9370 209.086  25
  -6   0   6-35.0800 284.831   4
  -6   0   6 142.372 314.334  22
  -6   0   6 128.195 327.002  12
  -6   0   6 162.652 271.396   5
  -6   0   6-218.633 296.961  32
  -6   0   6 120.177 325.526  10
  -6   0   6-265.608 306.960  15
  -6   0   5 31534.9 1135.76  25
  -6   0   5 28880.8 1135.81   4
  -6   0   5 34420.1 1261.67  22
  -6   0   5 35660.6 1244.68  12
  -6   0   5 32307.6 1202.68  20
  -6   0   5 25480.9 1008.87  34
  -6   0   5 32866.5 1208.65  32
  -6   0   5 31695.3 1065.71  29
  -6   0   5 30316.0 1289.94  10
  -6   0   4 3837.00 376.092  25
  -6   0   4 3842.80 409.348  22
  -6   0   4 3568.02 418.581  12
  -6   0   4 3850.08 447.000  20
  -6   0   4 2703.85 367.032  34
  -6   0   4 4181.88 338.047  29
  -6   0   4 3007.05 399.497  10
  -6   0   3 70708.4 2078.46  25
  -6   0   3 77661.5 2150.96  12
  -6   0   3 69947.5 2089.47  20
  -6   0   3 76398.5 2097.72  34
  -6   0   3 70141.5 2106.69  32
  -6   0   3 68978.3 1983.97  29
  -6   0   2 6893.98 488.366  25
  -6   0   2 6657.46 509.513  12
  -6   0   2 6854.77 516.308  20
  -6   0   2 6718.16 519.361  34
  -6   0   2 6528.30 492.159  32
  -6   0   2 6252.91 421.046  29
  -6   0   1 2850.38 372.175  25
  -6   0   1 2689.58 385.928  12
  -6   0   1 2974.30 404.784  20
  -6   0   1 3243.25 402.098  34
  -6   0   1 2460.69 338.459  17
  -6   0   1 2521.92 342.765  32
  -6   0   1 3042.71 360.637  27
  -6   0   0 117588. 3082.94  12
  -6   0   0 116060. 3042.09  20
  -6   0   0 98678.9 2831.23  37
  -6   0   0 119667. 2974.94  34
  -6   0   0 105547. 2953.29  17
  -6   0   0 103270. 2892.12  32
  -6   0   0 125823. 3029.48  27
  -6   0  -1 13.3628 296.356  23
  -6   0  -1-72.4656 302.808  12
  -6   0  -1 202.952 323.541  20
  -6   0  -1 197.932 262.515  37
  -6   0  -1 125.867 232.199  35
  -6   0  -1-17.5573 249.763  34
  -6   0  -1 40.0217 202.114  17
  -6   0  -1 115.932 179.302  32
  -6   0  -1 170.459 315.650  27
  -6   0  -2 576.563 310.882  12
  -6   0  -2 883.091 345.798  20
  -6   0  -2 584.489 279.210  37
  -6   0  -2 708.310 267.829  35
  -6   0  -2 833.379 345.901  27
  -6   0  -3 1459.69 295.672  23
  -6   0  -3 1542.00 302.264  12
  -6   0  -3 1250.90 300.472  20
  -6   0  -3 1700.92 303.125  37
  -6   0  -4 176.452 132.799  23
  -6   0  -4 398.509 181.440  12
  -6   0  -4 279.550 180.689  20
  -6   1   9 3526.61 292.551  32
   6   1  -9 2357.34 235.986  28
  -6   1   8 736.521 179.211  25
  -6   1   8 681.243 317.986  22
  -6   1   8 833.098 299.078  32
  -6   1   8 567.529 342.829  15
  -6   1   7 12765.9 618.707  25
  -6   1   7 13177.5 791.218  22
  -6   1   7 14153.9 810.254  12
  -6   1   7 15125.4 757.993  32
  -6   1   7 11760.1 804.837  15
  -6   1   6 3277.12 348.002  25
  -6   1   6 3245.60 457.427  22
  -6   1   6 3273.49 449.653  12
  -6   1   6 4055.78 457.165  32
  -6   1   6 2655.11 415.540  15
  -6   1   6 2554.12 452.443  10
  -6   1   5 20708.9 849.954  25
  -6   1   5 21282.3 970.790  22
  -6   1   5 21558.5 942.201  12
  -6   1   5 16744.5 760.682  34
  -6   1   5 21238.3 926.650  32
  -6   1   5 18225.9 954.123  10
  -6   1   5 19389.2 805.040  29
  -6   1   4 1392.90 287.995  25
  -6   1   4 1640.92 330.274  22
  -6   1   4 1741.11 351.812  12
  -6   1   4 1370.15 323.919  34
  -6   1   4 1639.05 255.038  29
  -6   1   4 1537.42 318.316  10
  -6   1   3 8863.99 538.210  25
  -6   1   3 10104.2 610.824  12
  -6   1   3 8740.46 570.512  34
  -6   1   3 8310.12 574.235  32
  -6   1   3 9136.39 508.002  29
  -6   1   2 274.757 242.674  25
  -6   1   2 255.747 266.831  12
  -6   1   2 322.422 325.875  34
  -6   1   2 216.758 257.921  32
  -6   1   2 148.509 200.294  29
  -6   1   1 5091.67 432.963  25
  -6   1   1 5174.94 475.388  12
  -6   1   1 5212.56 473.575  34
  -6   1   1 4315.73 425.678  17
  -6   1   1 3993.57 394.131  32
  -6   1   1 5642.36 456.450  27
  -6   1   0 5981.05 505.477  12
  -6   1   0 5296.24 407.990  37
  -6   1   0 6102.27 468.797  34
  -6   1   0 5110.70 452.365  17
  -6   1   0 4364.97 381.865  32
  -6   1   0 6060.66 494.321  27
  -6   1  -1 39824.9 1346.30  12
  -6   1  -1 34501.5 1166.41  37
  -6   1  -1 37065.5 1157.82  35
  -6   1  -1 35947.1 1161.11  34
  -6   1  -1 36213.2 1228.43  17
  -6   1  -1 39686.4 1290.92  27
  -6   1  -2 7278.42 553.227  12
  -6   1  -2 7726.70 498.247  37
  -6   1  -2 8309.63 487.581  35
  -6   1  -2 8694.50 574.027  27
  -6   1  -3 581.810 263.459  23
  -6   1  -3 789.949 263.832  12
  -6   1  -3 847.530 286.727  37
  -6   1  -4 652.447 162.334  23
  -6   1  -4 991.159 196.983  12
  -6   2   9 2661.42 274.117   4
   6   2  -9 2392.48 262.647   3
  -6   2   9 2894.40 271.403   5
  -6   2   9 2185.33 255.985  32
  -6   2   9 2578.31 226.291  29
   6   2  -9 1589.83 205.140  28
  -6   2   9 1937.48 340.294  15
  -6   2   8 10344.1 575.171   4
  -6   2   8 9157.90 605.350  22
  -6   2   8 9813.43 546.116   5
  -6   2   8 10498.7 593.762  32
  -6   2   7 1772.51 250.373  25
  -6   2   7 2814.94 387.123   4
  -6   2   7 2084.87 417.676  22
  -6   2   7 2050.21 343.990   5
  -6   2   7 1907.90 423.355  12
  -6   2   7 2052.37 499.508  20
  -6   2   7 2240.78 387.881  32
  -6   2   7 1823.00 431.729  10
  -6   2   7 1605.25 399.275  15
  -6   2   6 53465.8 1651.94  25
  -6   2   6 56824.4 1763.39   4
  -6   2   6 57769.5 1878.96  22
  -6   2   6 56763.3 1727.41   5
  -6   2   6 57494.3 1832.67  12
  -6   2   6 63834.3 1881.05  20
  -6   2   6 58684.9 1809.97  32
  -6   2   6 49472.8 1889.33  10
  -6   2   6 48287.8 1817.96  15
  -6   2   5 16701.6 739.515  25
  -6   2   5 17677.6 804.263   4
  -6   2   5 16588.1 858.103  22
  -6   2   5 17622.8 840.964  12
  -6   2   5 17984.0 850.193  20
  -6   2   5 15485.2 862.801  10
  -6   2   5 16084.4 729.082  29
  -6   2   4 19280.5 855.460   4
  -6   2   4 21516.0 860.820  25
  -6   2   4 21777.2 927.636  12
  -6   2   4 21856.7 922.328  20
  -6   2   4 20474.8 855.200  34
  -6   2   4 18754.4 887.333  32
  -6   2   4 18762.4 917.507  10
  -6   2   4 21010.0 834.171  29
  -6   2   3 31193.1 1129.81   4
  -6   2   3 29831.8 1089.76  25
  -6   2   3 33172.3 1172.35  12
  -6   2   3 32809.9 1160.53  20
  -6   2   3 30548.4 1113.80  34
  -6   2   3 27998.9 1110.68  32
  -6   2   3 28711.0 1058.05  29
  -6   2   2 626.848 247.679  25
  -6   2   2 836.529 278.515   4
  -6   2   2 662.666 300.572  12
  -6   2   2 623.107 295.392  20
  -6   2   2 509.172 258.814  32
  -6   2   2 577.149 231.504  29
  -6   2   1 8500.46 599.238  12
  -6   2   1 9499.90 600.000  20
  -6   2   1 9109.66 582.166  34
  -6   2   1 7725.72 563.800  17
  -6   2   1 8504.74 515.997  32
  -6   2   1 8818.85 560.466   4
  -6   2   1 9733.14 578.729  27
  -6   2   0 212.365 255.261   4
  -6   2   0 48.5212 312.037  12
  -6   2   0-23.2356 287.171  20
  -6   2   0 25.5591 228.466  37
  -6   2   0 136.590 212.948  35
  -6   2   0 39.7572 272.990  34
  -6   2   0 276.729 271.001  17
  -6   2   0 120.039 199.331  32
  -6   2   0 384.239 305.324  27
  -6   2  -1 21430.3 910.881  20
  -6   2  -1 18596.8 786.850  37
  -6   2  -1 20544.1 767.857  35
  -6   2  -1 17474.4 742.209  34
  -6   2  -1 19811.5 850.428  17
  -6   2  -1 19286.6 816.613   4
  -6   2  -1 22995.3 914.818  27
  -6   2  -2 4797.43 458.742  20
  -6   2  -2 5123.34 437.473  37
  -6   2  -2 4790.08 410.124  35
  -6   2  -2 4330.24 393.503  17
  -6   2  -2 4529.29 473.200   3
  -6   2  -3 3420.35 375.727   3
  -6   2  -3 3492.75 385.861  23
  -6   2  -3 4811.81 392.360  20
  -6   2  -3 4110.60 374.461  37
  -6   2  -3 4257.93 354.619  35
  -6   2  -4 5024.13 310.238  20
  -6   2  -4 5070.16 306.989  37
   6   2   4 4191.21 287.492   5
   6   3  -9 386.868 170.431   3
  -6   3   9 705.115 198.325   4
  -6   3   9 397.751 213.869  22
  -6   3   9 430.412 207.913  32
  -6   3   9 557.191 164.775  29
   6   3  -9 423.936 150.715  28
  -6   3   9 280.851 251.822  15
  -6   3   8 9461.26 535.469   4
  -6   3   8 8842.39 516.298   5
  -6   3   8 9651.00 570.109  32
  -6   3   7 5486.59 468.995   4
  -6   3   7 5404.19 536.501  22
  -6   3   7 6033.87 458.918   5
  -6   3   7 4252.80 542.331  20
  -6   3   7 5322.03 510.393  32
  -6   3   7 4239.76 548.540  10
  -6   3   7 4855.77 534.475  15
  -6   3   6 52591.5 1609.03  25
  -6   3   6 56768.7 1747.68   4
  -6   3   6 58070.0 1885.60  22
  -6   3   6 58919.4 1729.84   5
  -6   3   6 61660.5 1840.94  20
  -6   3   6 51481.8 1906.63  10
  -6   3   6 47494.1 1798.02  15
  -6   3   5 2459.23 296.937  25
  -6   3   5 2709.66 364.710   4
  -6   3   5 2479.74 407.652  22
  -6   3   5 3251.46 434.793  20
  -6   3   5 2026.05 324.149  34
  -6   3   5 2560.44 324.099  29
  -6   3   5 2354.72 419.141  10
  -6   3   4 6028.76 463.849   4
  -6   3   4 5787.72 421.681  25
  -6   3   4 5469.23 487.705  20
  -6   3   4 5200.60 453.050  34
  -6   3   4 5075.46 466.887  32
  -6   3   4 5494.52 488.672  10
  -6   3   4 5278.29 426.458  29
  -6   3   3 2853.42 350.150   4
  -6   3   3 3106.24 333.622  25
  -6   3   3 3285.92 396.328  20
  -6   3   3 3348.39 408.655  34
  -6   3   3 2837.11 360.173  32
  -6   3   3 2621.23 330.363  10
  -6   3   3 3059.85 336.359  29
  -6   3   2 38456.7 1268.04  25
  -6   3   2 38255.2 1295.44  20
  -6   3   2 35252.7 1226.46  32
  -6   3   2 35407.3 1244.30  29
  -6   3   2 36453.0 1265.90   4
  -6   3   1 2823.78 384.180  20
  -6   3   1 2684.25 390.352  34
  -6   3   1 2659.71 395.261  17
  -6   3   1 1715.76 282.326  32
  -6   3   1 2295.58 338.201   4
  -6   3   0 2379.53 365.262  20
  -6   3   0 1506.10 289.626  37
  -6   3   0 2326.42 303.442  35
  -6   3   0 2063.40 339.520  34
  -6   3   0 2217.03 369.841  17
  -6   3   0 1405.99 239.621  32
  -6   3   0 2486.00 348.082   4
  -6   3   0 2495.63 389.610  27
  -6   3  -1 8901.73 595.596  20
  -6   3  -1 9277.97 551.838  37
  -6   3  -1 9274.16 529.531  35
  -6   3  -1 8915.97 509.221  34
  -6   3  -1 8825.44 588.501  17
  -6   3  -1 8970.70 548.588   4
  -6   3  -1 9674.23 625.451  27
  -6   3  -2 13428.0 747.669   3
  -6   3  -2 15950.9 754.738  20
  -6   3  -2 16438.8 723.885  37
  -6   3  -2 14764.1 675.008  35
  -6   3  -2 13335.2 689.357  17
  -6   3  -3 3720.47 371.477  23
  -6   3  -3 4118.52 367.613  20
  -6   3  -3 4427.98 382.139  37
  -6   3  -3 4495.24 368.521  35
  -6   3  -3 2977.98 290.340  17
  -6   3  -3 3536.87 377.810  27
  -6   3  -4 127.223 124.446  23
  -6   3  -4-22.9667 162.701  12
  -6   3  -4 197.594 150.498  20
  -6   3  -4 157.496 169.086  37
   6   3   4 63.4112 136.892   5
   6   4  -9 513.744 168.636   3
  -6   4   9 579.863 181.196   4
  -6   4   9 566.416 207.731  22
  -6   4   9 603.165 214.490  32
  -6   4   9 605.443 163.244  29
   6   4  -9 310.433 131.171  28
  -6   4   9 486.715 256.200  15
  -6   4   8 622.796 253.618   4
  -6   4   8 792.345 307.847  32
  -6   4   8 751.967 333.531  15
  -6   4   7 3793.15 403.478   4
  -6   4   7 3234.14 465.797  22
  -6   4   7 3674.90 375.778   5
  -6   4   7 2197.36 438.130  20
  -6   4   7 2896.03 388.932  11
  -6   4   7 3312.47 500.075  10
  -6   4   7 2969.10 439.106  15
  -6   4   6 9340.85 586.464   4
  -6   4   6 9573.20 696.428  22
  -6   4   6 9745.82 575.111   5
  -6   4   6 10895.6 691.094  20
  -6   4   6 9508.26 728.821  10
  -6   4   6 9526.42 661.453  15
  -6   4   5 10583.0 541.286  25
  -6   4   5 11108.1 625.867   4
  -6   4   5 11191.6 718.998  22
  -6   4   5 10389.7 671.322  12
  -6   4   5 11770.1 679.102  20
  -6   4   5 9780.45 550.419  34
  -6   4   5 11060.2 656.484  32
  -6   4   5 8680.24 637.892  16
  -6   4   5 9611.94 688.847  10
  -6   4   5 11234.6 614.559  29
  -6   4   4 18941.5 833.513   4
  -6   4   4 18207.1 764.098  25
  -6   4   4 21456.7 914.992  12
  -6   4   4 19790.6 874.661  20
  -6   4   4 18831.4 821.179  34
  -6   4   4 18101.5 849.415  32
  -6   4   4 18891.1 900.906  10
  -6   4   4 18773.6 820.000  29
  -6   4   3 21009.8 887.119   4
  -6   4   3 21051.5 850.605  25
  -6   4   3 22954.5 946.922  12
  -6   4   3 22376.8 920.092  20
  -6   4   3 22342.8 914.910  34
  -6   4   3 20297.2 887.572  32
  -6   4   3 21927.5 924.610  10
  -6   4   3 21288.6 884.936  29
  -6   4   2 6842.75 466.897  25
  -6   4   2 7902.92 548.041  12
  -6   4   2 7592.00 525.670  20
  -6   4   2 6718.08 559.259  17
  -6   4   2 6037.38 454.467  32
  -6   4   2 6884.81 491.981  29
  -6   4   2 7963.26 520.002   4
  -6   4   1 16085.7 773.079  12
  -6   4   1 15161.0 735.476  20
  -6   4   1 14789.3 733.731  34
  -6   4   1 14500.8 782.260  17
  -6   4   1 14885.5 713.122   4
  -6   4   0 30635.8 1150.25  12
  -6   4   0 32114.5 1148.60  20
  -6   4   0 24420.9 979.641  37
  -6   4   0 26451.3 974.546  35
  -6   4   0 30377.5 1069.44  34
  -6   4   0 30822.5 1177.21  17
  -6   4   0 27794.0 1056.95   4
  -6   4   0 29266.3 1114.18  27
  -6   4  -1 737.954 253.513   4
  -6   4  -1 755.809 326.490  12
  -6   4  -1 722.375 301.215  20
  -6   4  -1 631.324 285.863  37
  -6   4  -1 783.523 287.794  35
  -6   4  -1 866.199 261.271  34
  -6   4  -1 478.946 283.580  17
  -6   4  -2 65.7704 275.951  12
  -6   4  -2 360.585 269.987  20
  -6   4  -2 44.3155 285.212  37
  -6   4  -2 219.242 277.522  35
  -6   4  -2 96.2091 254.186  17
  -6   4  -3 1070.07 268.336  23
  -6   4  -3 1196.88 280.903  12
  -6   4  -3 1061.57 250.796  20
  -6   4  -3 1301.47 289.002  37
  -6   4  -3 1543.49 285.145  35
  -6   4  -3 1248.35 248.248  17
  -6   4  -3 1320.10 295.800  27
  -6   4  -4 95.6497 110.002  23
  -6   4  -4 326.859 156.574  12
  -6   4  -4 149.599 139.184  20
  -6   4  -4-62.0039 163.800  37
   6   4   4 167.263 131.586   5
   6   5  -9 787.331 155.322   3
  -6   5   9 862.237 172.603   4
  -6   5   9 599.410 195.577  22
  -6   5   9 1000.85 220.454  32
  -6   5   9 1117.93 182.463  29
   6   5  -9 543.561 122.671  28
  -6   5   9 945.916 258.604  15
  -6   5   8 341.544 222.149   4
  -6   5   8 274.209 259.225  22
  -6   5   8 340.239 284.669  32
  -6   5   8 591.492 314.504  15
  -6   5   7 9070.74 546.172   4
  -6   5   7 9534.56 531.149   5
  -6   5   7 8540.11 614.591  12
  -6   5   7 7459.78 596.957  20
  -6   5   7 6640.43 546.112  11
  -6   5   7 7184.06 634.368  10
  -6   5   7 8173.31 627.822  15
  -6   5   6 1213.75 299.814   4
  -6   5   6 918.917 368.278  22
  -6   5   6 1140.47 373.093  12
  -6   5   6 964.531 330.803  20
  -6   5   6 1019.32 290.862  11
  -6   5   6 541.893 352.409  10
  -6   5   6 1039.30 313.678  15
  -6   5   5 3695.74 392.721   4
  -6   5   5 3997.31 492.589  22
  -6   5   5 3332.95 439.409  12
  -6   5   5 3837.36 441.772  20
  -6   5   5 3215.10 362.194  34
  -6   5   5 3645.27 427.599  32
  -6   5   5 2932.95 422.912  16
  -6   5   5 3457.92 463.160  10
  -6   5   5 3797.27 380.646  29
  -6   5   4 4085.23 398.275   4
  -6   5   4 3758.44 325.754  25
  -6   5   4 4599.74 459.746  12
  -6   5   4 4349.15 436.282  20
  -6   5   4 3909.71 416.522  34
  -6   5   4 4575.64 434.634  32
  -6   5   4 4247.34 431.723  16
  -6   5   4 4016.22 442.290  10
  -6   5   4 4567.14 412.251  29
  -6   5   3 5261.99 427.690   4
  -6   5   3 5291.92 391.215  25
  -6   5   3 5512.58 477.186  12
  -6   5   3 5163.71 455.000  20
  -6   5   3 4222.17 405.206  32
  -6   5   3 5282.94 443.164  10
  -6   5   3 5275.87 442.218  29
  -6   5   2 9605.44 596.952  12
  -6   5   2 9762.99 580.329  20
  -6   5   2 7988.19 614.723  17
  -6   5   2 6575.81 460.509  32
  -6   5   2 7134.56 509.941  29
  -6   5   2 8647.96 533.869   4
  -6   5   1 39934.0 1331.04  12
  -6   5   1 39574.1 1288.37  20
  -6   5   1 41937.9 1303.29  34
  -6   5   1 38409.0 1380.23  17
  -6   5   1 37981.0 1254.40   4
  -6   5   0 24053.5 982.310  12
  -6   5   0 21874.0 922.316  20
  -6   5   0 19440.5 829.614  37
  -6   5   0 20214.2 828.722  35
  -6   5   0 21197.1 877.003  34
  -6   5   0 22655.7 1005.30  17
  -6   5   0 21653.3 883.639   4
  -6   5   0 24654.3 986.906  27
  -6   5  -1 9944.90 628.175  12
  -6   5  -1 10507.5 617.903  20
  -6   5  -1 9907.70 576.987  37
  -6   5  -1 9836.95 563.581  35
  -6   5  -1 9284.56 518.454  34
  -6   5  -1 10828.8 662.875  17
  -6   5  -1 9882.51 544.791   4
  -6   5  -2 506.709 237.148   4
  -6   5  -2 158.526 269.625  12
  -6   5  -2 185.738 248.985  20
  -6   5  -2 219.223 294.430  37
  -6   5  -2 248.981 270.474  35
  -6   5  -2 109.198 252.332  17
  -6   5  -2 151.881 314.009  27
  -6   5  -3 2550.99 326.432  23
  -6   5  -3 3111.18 324.324  12
  -6   5  -3 2955.70 297.614  20
  -6   5  -3 3582.60 352.730  37
  -6   5  -3 3458.25 329.826  35
  -6   5  -3 2656.58 300.774  17
  -6   5  -3 3237.05 331.884  27
  -6   5  -4 4111.76 252.988  12
  -6   5  -4 3818.50 229.507  20
  -6   5  -4 4194.49 260.855  37
   6   6  -9 262.721 112.532   3
  -6   6   9 494.366 135.746   4
  -6   6   9 421.984 169.039  22
  -6   6   9 492.191 188.936  32
  -6   6   9 615.483 161.221  29
   6   6  -9 161.790 86.7602  28
  -6   6   9 285.330 210.752  15
  -6   6   8 789.656 214.043   4
  -6   6   8 767.023 290.131  22
  -6   6   8 650.075 262.406  11
  -6   6   8 1184.83 313.249  32
  -6   6   8 488.863 306.169  15
  -6   6   7 17209.6 738.425   4
  -6   6   7 16178.5 809.093  12
  -6   6   7 15924.8 791.979  20
  -6   6   7 14537.4 797.875  11
  -6   6   7 14162.3 871.637  10
  -6   6   7 15298.1 843.287  15
  -6   6   6 11686.1 628.347   4
  -6   6   6 9456.87 706.455  22
  -6   6   6 11783.0 702.810  12
  -6   6   6 10600.4 648.767  20
  -6   6   6 11255.7 687.541  11
  -6   6   6 11487.1 752.056  10
  -6   6   6 12859.8 671.993  29
  -6   6   6 10752.4 678.239  15
  -6   6   5 85.1684 225.298   4
  -6   6   5 294.505 318.287  12
  -6   6   5 291.287 293.913  20
  -6   6   5 234.268 255.502  34
  -6   6   5 73.3781 217.225  11
  -6   6   5 281.215 293.794  32
  -6   6   5 124.549 274.574  16
  -6   6   5 181.086 234.746  29
  -6   6   5 169.454 284.852  10
  -6   6   4 1760.34 297.122   4
  -6   6   4 2033.51 370.810  12
  -6   6   4 1562.01 325.352  20
  -6   6   4 1579.38 319.602  32
  -6   6   4 1842.34 345.503  16
  -6   6   4 1949.85 322.164  29
  -6   6   4 1849.71 357.018  10
  -6   6   3 9765.57 517.280  25
  -6   6   3 11007.1 642.394  12
  -6   6   3 9729.76 578.085  20
  -6   6   3 7908.18 531.340  32
  -6   6   3 9392.52 595.481  16
  -6   6   3 9140.72 589.205  10
  -6   6   3 10212.3 599.605  29
  -6   6   3 9917.01 561.299   4
  -6   6   2 10.2305 218.101   4
  -6   6   2 272.621 272.042  12
  -6   6   2 153.873 234.564  20
  -6   6   2 399.961 350.620  17
  -6   6   2 63.2414 207.895  32
  -6   6   2 320.259 212.875  16
  -6   6   2 218.082 242.900  29
  -6   6   1 51863.0 1606.11  12
  -6   6   1 50448.4 1549.77  20
  -6   6   1 42093.8 1400.80  35
  -6   6   1 54313.1 1583.77  34
  -6   6   1 51245.2 1694.62  17
  -6   6   1 44861.4 1488.59   4
  -6   6   0 4691.87 465.721  13
  -6   6   0 6087.72 497.950  12
  -6   6   0 5571.92 460.457  20
  -6   6   0 4945.45 419.870  37
  -6   6   0 4674.69 407.382  35
  -6   6   0 5483.95 458.271  34
  -6   6   0 6406.47 576.925  17
  -6   6   0 5657.43 420.061   4
  -6   6  -1 4686.94 448.573  13
  -6   6  -1 5077.32 460.798  12
  -6   6  -1 4971.23 438.551  20
  -6   6  -1 4912.14 441.718  37
  -6   6  -1 5289.73 432.908  35
  -6   6  -1 4494.89 371.641  34
  -6   6  -1 4724.13 500.102  17
  -6   6  -1 4743.64 387.788   4
  -6   6  -2 2615.47 348.633  13
  -6   6  -2 3526.28 383.571  12
  -6   6  -2 2806.29 340.411  20
  -6   6  -2 3162.05 375.875  37
  -6   6  -2 3428.90 377.831  35
  -6   6  -2 3251.48 384.455  17
  -6   6  -2 2519.53 270.793   4
  -6   6  -2 2895.67 378.315  27
  -6   6  -3 1542.70 272.040  23
  -6   6  -3 1879.42 266.313  12
  -6   6  -3 1914.22 245.974  20
  -6   6  -3 2161.38 297.141  37
  -6   6  -3 1834.87 283.623  35
  -6   6  -3 1808.59 268.510  17
  -6   6  -3 2259.53 281.403  27
  -6   6  -4 3481.14 187.185  20
  -6   6  -4 3755.34 241.524  37
   6   6   4 3415.38 176.247   5
  -6   7   9 1504.16 137.783   4
  -6   7   9 1723.29 195.831  22
  -6   7   9 2308.98 236.665  32
  -6   7   9 2669.83 217.878  29
  -6   7   9 1659.93 250.650  15
  -6   7   8 186.641 172.670   4
  -6   7   8 144.416 232.370  22
  -6   7   8 255.599 234.616  11
  -6   7   8 256.965 209.350  29
  -6   7   8 276.509 269.635  10
  -6   7   8 237.199 257.706  15
  -6   7   7 5886.80 414.771   4
  -6   7   7 6540.05 535.692  22
  -6   7   7 6602.72 511.195  12
  -6   7   7 5452.64 509.630  11
  -6   7   7 4792.17 544.020  10
  -6   7   7 7035.35 500.978  29
  -6   7   7 5607.62 520.488  15
  -6   7   6 9749.90 553.534   4
  -6   7   6 10275.1 654.213  12
  -6   7   6 9363.55 594.950  20
  -6   7   6 9900.70 647.529  11
  -6   7   6 10502.8 736.541  10
  -6   7   6 11276.0 640.083  29
  -6   7   6 9415.25 632.084  15
  -6   7   5 18652.4 809.115   4
  -6   7   5 20482.9 916.942  12
  -6   7   5 19791.7 858.405  20
  -6   7   5 20147.2 895.025  11
  -6   7   5 17754.8 784.838  34
  -6   7   5 19623.0 869.745  32
  -6   7   5 18023.2 967.154  16
  -6   7   5 17787.2 936.740  10
  -6   7   5 20974.0 895.936  29
  -6   7   4 14215.1 689.595   4
  -6   7   4 15789.0 771.958  12
  -6   7   4 14789.2 719.505  20
  -6   7   4 14778.4 713.280  11
  -6   7   4 13520.3 700.147  32
  -6   7   4 15269.8 826.151  16
  -6   7   4 16242.2 830.647  10
  -6   7   4 14872.7 743.944  29
  -6   7   3 12488.9 671.685  12
  -6   7   3 11305.1 613.004  20
  -6   7   3 11612.8 674.172  16
  -6   7   3 11758.5 652.778  10
  -6   7   3 11037.5 633.605  29
  -6   7   3 10740.3 582.917   4
  -6   7   2 9320.89 661.223  13
  -6   7   2 12655.2 667.580  12
  -6   7   2 12104.4 620.409  20
  -6   7   2 10821.7 713.508  17
  -6   7   2 8591.83 503.793  32
  -6   7   2 11353.9 643.328  16
  -6   7   2 12345.5 621.324  10
  -6   7   2 11696.7 654.986  29
  -6   7   2 10984.3 587.938   4
  -6   7   1 210.356 213.622   4
  -6   7   1 318.733 301.874  13
  -6   7   1 586.474 288.766  12
  -6   7   1 449.486 245.677  20
  -6   7   1 8.36884 231.656  37
  -6   7   1 325.333 235.517  35
  -6   7   1 666.141 335.050  34
  -6   7   1 549.470 364.901  17
  -6   7   1 485.121 227.062  16
  -6   7   0 7079.47 580.548  13
  -6   7   0 8788.56 575.493  12
  -6   7   0 8248.22 518.987  20
  -6   7   0 7694.64 501.980  37
  -6   7   0 7761.39 500.440  35
  -6   7   0 7633.13 511.796  34
  -6   7   0 8979.13 660.656  17
  -6   7   0 7525.26 470.032   4
  -6   7  -1 15920.4 827.240  13
  -6   7  -1 19215.7 829.688  12
  -6   7  -1 17451.6 758.883  20
  -6   7  -1 17514.1 775.650  37
  -6   7  -1 18517.8 774.246  35
  -6   7  -1 16988.7 698.380  34
  -6   7  -1 19165.5 904.508  17
  -6   7  -1 15123.7 679.338   4
  -6   7  -1 17809.6 821.839  27
  -6   7  -2 1569.89 311.987  13
  -6   7  -2 2264.25 315.959  12
  -6   7  -2 1616.70 272.081  20
  -6   7  -2 1932.78 343.076  37
  -6   7  -2 2429.99 338.092  35
  -6   7  -2 2143.30 356.408  17
  -6   7  -2 2246.85 344.475  27
  -6   7  -3 2975.00 313.454  23
  -6   7  -3 3836.74 307.179  12
  -6   7  -3 4217.90 288.874  20
  -6   7  -3 4563.63 353.645  37
  -6   7  -3 4065.73 333.579  35
  -6   7  -3 4111.89 342.569  17
  -6   7  -3 4237.33 323.728  27
  -6   7  -4 6417.37 293.404  37
  -6   8   9 1264.04 153.670  22
  -6   8   9 2336.65 214.242  32
  -6   8   9 2503.55 201.135  29
  -6   8   9 1102.97 206.711  15
  -6   8   8 4146.50 275.378   4
  -6   8   8 4698.03 376.379  22
   6   8  -8 2831.92 234.532   3
  -6   8   8 3319.13 370.926  11
  -6   8   8 5404.42 372.230  29
  -6   8   8 4124.23 411.592  10
  -6   8   8 4337.16 424.705  15
  -6   8   7 3546.22 317.458   4
  -6   8   7 3864.66 426.452  22
  -6   8   7 4278.54 447.494  11
  -6   8   7 4449.35 404.713  29
  -6   8   7 4880.51 472.402  15
  -6   8   6 1864.36 270.695   4
  -6   8   6 1794.44 356.705  12
  -6   8   6 1685.11 318.846  20
  -6   8   6 1977.33 358.615  11
  -6   8   6 2028.87 346.261  29
  -6   8   6 1874.53 399.385  10
  -6   8   6 1981.37 334.652  15
  -6   8   5 28008.8 1046.79   4
  -6   8   5 33109.2 1194.85  12
  -6   8   5 30181.6 1104.89  20
  -6   8   5 32934.9 1203.12  11
  -6   8   5 28416.2 1108.15  32
  -6   8   5 28525.3 1278.74  16
  -6   8   5 30750.6 1267.57  10
  -6   8   5 33373.8 1189.61  29
  -6   8   4 21578.1 867.896   4
  -6   8   4 24449.2 985.489  12
  -6   8   4 21093.8 884.650  20
  -6   8   4 24549.2 962.496  11
  -6   8   4 20177.0 883.168  32
  -6   8   4 23490.3 1069.40  16
  -6   8   4 24421.6 1050.22  10
  -6   8   4 23596.2 977.723  29
  -6   8   3 2216.93 341.864  12
  -6   8   3 2181.51 308.427  20
  -6   8   3 2448.05 313.081  11
  -6   8   3 1729.03 273.249  32
  -6   8   3 2481.91 375.922  16
  -6   8   3 2486.15 347.626  10
  -6   8   3 1678.32 317.290  29
  -6   8   3 2042.90 285.012   4
  -6   8   2 2365.15 424.748  13
  -6   8   2 3049.75 363.982  12
  -6   8   2 3076.99 341.373  20
  -6   8   2 2721.21 358.942  16
  -6   8   2 2902.82 332.472  10
  -6   8   2 2276.67 354.964  29
  -6   8   2 2650.28 304.192   4
  -6   8   1 28675.0 1221.04  13
  -6   8   1 34030.7 1157.98  12
  -6   8   1 32325.9 1088.68  20
  -6   8   1 25704.6 991.450  37
  -6   8   1 27616.3 1021.76  35
  -6   8   1 33060.6 1286.30  17
  -6   8   1 28470.5 1118.99  16
  -6   8   1 29585.1 1025.40   4
  -6   8   0 4037.67 472.451  13
  -6   8   0 4869.58 431.892  12
  -6   8   0 4127.84 379.967  20
  -6   8   0 4083.58 397.766  37
  -6   8   0 3890.94 395.765  35
  -6   8   0 4866.09 423.719  34
  -6   8   0 4699.06 531.835  17
  -6   8   0 3801.10 382.085  16
  -6   8   0 4038.10 335.689   4
  -6   8  -1 6186.83 539.731  13
  -6   8  -1 7338.42 493.514  12
  -6   8  -1 6444.53 433.373  20
  -6   8  -1 6622.04 476.784  37
  -6   8  -1 7103.75 496.819  35
  -6   8  -1 6120.31 403.825  34
  -6   8  -1 7515.77 579.521  17
  -6   8  -1 5624.43 368.091   4
  -6   8  -1 7139.71 520.777  27
  -6   8  -2 561.485 287.659  13
  -6   8  -2 1009.74 245.846  12
  -6   8  -2 765.605 205.999  20
  -6   8  -2 1344.63 315.796  37
  -6   8  -2 611.497 279.427  35
  -6   8  -2 604.162 286.507  17
  -6   8  -2 753.672 290.147  27
  -6   8  -3 2306.39 269.723  23
  -6   8  -3 2807.29 246.479  12
  -6   8  -3 2711.33 210.111  20
  -6   8  -3 3311.26 298.808  37
  -6   8  -3 3237.43 293.869  35
   6   8   3 2612.00 198.796   5
  -6   8  -3 3142.72 305.878  17
  -6   8  -3 2540.71 257.493  27
  -6   9   9 1902.04 164.940  29
  -6   9   9 775.064 155.849  15
  -6   9   8 2345.64 284.112  22
  -6   9   8 2051.74 303.779  11
  -6   9   8 2902.35 311.007  32
  -6   9   8 3150.70 294.749  29
  -6   9   8 1935.44 322.180  10
  -6   9   8 2950.18 345.678  15
  -6   9   7 3808.17 290.662   4
  -6   9   7 4019.01 419.104  22
  -6   9   7 4028.24 439.871  11
  -6   9   7 5049.27 422.273  29
  -6   9   7 4488.60 442.430  15
  -6   9   6 1348.43 231.101   4
  -6   9   6 1379.86 362.337  22
  -6   9   6 1363.39 312.939  12
  -6   9   6 1034.43 252.711  20
  -6   9   6 1145.04 318.304  11
  -6   9   6 918.966 360.308  16
  -6   9   6 1509.03 328.494  29
  -6   9   6 1645.28 378.970  10
  -6   9   6 1449.80 311.054  15
  -6   9   5 1630.46 255.003   4
  -6   9   5 1772.04 293.895  20
  -6   9   5 1719.93 345.461  12
  -6   9   5 1762.65 334.586  11
  -6   9   5 1364.21 309.905  32
  -6   9   5 1775.42 415.910  16
  -6   9   5 1498.87 335.242  29
  -6   9   5 1528.04 379.057  10
  -6   9   4 36174.3 1253.38  12
  -6   9   4 32167.5 1150.77  20
  -6   9   4 37261.8 1287.35  11
  -6   9   4 30761.5 1156.43  32
  -6   9   4 37604.0 1408.88  16
  -6   9   4 39401.3 1378.56  10
  -6   9   4 38741.4 1301.81  29
  -6   9   4 31177.1 1113.90   4
  -6   9   3 14705.7 710.954  12
  -6   9   3 12381.4 623.622  20
  -6   9   3 14663.6 703.892  11
  -6   9   3 14760.7 802.402  16
  -6   9   3 14471.9 750.727  10
  -6   9   3 15553.1 764.785  29
  -6   9   3 13118.9 613.181   4
  -6   9   2 26122.9 1212.18  13
  -6   9   2 32324.9 1123.17  12
  -6   9   2 27154.1 1007.14  20
  -6   9   2 28609.9 1074.14  11
  -6   9   2 31710.0 1203.18  16
  -6   9   2 33028.9 1129.45  10
  -6   9   2 30328.9 1162.26  29
  -6   9   2 27188.7 984.065   4
  -6   9   1 2919.32 460.114  13
  -6   9   1 3092.66 355.910  12
  -6   9   1 2264.92 289.318  20
  -6   9   1 2283.16 309.801  37
  -6   9   1 2431.52 330.272  35
  -6   9   1 2549.28 358.899  16
  -6   9   1 2254.44 262.768   4
  -6   9   0 11871.5 750.999  13
  -6   9   0 11875.0 629.157  12
  -6   9   0 11352.4 563.055  20
  -6   9   0 11784.4 617.444  37
  -6   9   0 13450.1 642.269  35
  -6   9   0 12659.1 631.755  34
  -6   9   0 13339.9 786.133  17
  -6   9   0 10010.5 608.971  16
  -6   9   0 10370.4 508.134   4
  -6   9   0 12846.8 690.615  27
  -6   9  -1 4292.79 463.493  13
  -6   9  -1 4501.04 383.645  12
  -6   9  -1 4068.80 330.517  20
  -6   9  -1 4892.08 431.060  37
  -6   9  -1 4761.71 415.447  35
  -6   9  -1 4593.51 343.898  34
  -6   9  -1 5232.09 503.980  17
  -6   9  -1 3298.32 257.941   4
  -6   9  -1 3776.91 354.887  16
  -6   9  -1 5281.48 460.746  27
  -6   9  -2 1202.79 303.819  13
  -6   9  -2 1201.14 190.207  20
  -6   9  -2 1115.82 224.491  12
  -6   9  -2 1184.45 302.292  37
  -6   9  -2 1540.09 303.180  35
  -6   9  -2 1352.61 313.853  17
  -6   9  -2 1304.27 276.764  27
  -6   9  -3 1611.99 223.997  23
  -6   9  -3 1462.40 213.678  13
  -6   9  -3 2286.72 196.442  12
  -6   9  -3 2909.77 270.462  37
  -6   9  -3 2557.97 263.654  35
  -6   9  -3 2438.48 271.777  17
  -6   9  -3 2261.74 215.650  27
  -6  10   8 1489.48 215.875  22
  -6  10   8 1368.12 257.117  11
  -6  10   8 1555.14 240.056  32
  -6  10   8 1346.54 268.456  10
  -6  10   8 1182.82 244.080  15
  -6  10   7 1011.52 268.750  22
  -6  10   7 1454.99 313.341  11
  -6  10   7 1604.54 298.630  32
  -6  10   7 1434.69 298.370  15
  -6  10   6 602.231 299.205  22
  -6  10   6 926.712 277.946  12
  -6  10   6 796.689 295.301  11
  -6  10   6 676.552 267.476  32
  -6  10   6 471.685 361.395  16
  -6  10   6 929.404 327.796  10
  -6  10   6 904.485 271.203  15
  -6  10   5 5344.66 450.033  12
  -6  10   5 5930.21 497.192  11
  -6  10   5 4274.66 409.734  32
  -6  10   5 5211.11 551.437  16
  -6  10   5 4769.46 500.807  10
  -6  10   4 17867.8 806.103  12
  -6  10   4 20460.6 886.959  11
  -6  10   4 19457.6 979.157  16
  -6  10   4 21851.4 950.231  10
  -6  10   3 10412.2 596.174  12
  -6  10   3 10612.5 622.283  11
  -6  10   3 10988.0 712.966  16
  -6  10   3 12413.1 688.508  10
  -6  10   2 1505.81 294.506  12
  -6  10   2 1561.76 282.887  35
  -6  10   2 1397.10 275.253  11
  -6  10   2 1786.38 298.156  10
  -6  10   2 1494.16 333.094  16
  -6  10   1 10789.2 756.420  13
  -6  10   1 11902.2 604.582  12
  -6  10   1 10313.3 577.786  11
  -6  10   1 9831.51 547.973  37
  -6  10   1 10942.2 586.689  35
  -6  10   1 10966.4 657.269  16
  -6  10   0 9950.15 708.781  13
  -6  10   0 10225.9 549.585  12
  -6  10   0 7894.12 497.880  11
  -6  10   0 10510.3 585.146  37
  -6  10   0 10252.0 583.066  35
  -6  10   0 11799.2 588.090  34
  -6  10   0 9435.55 585.875  16
  -6  10   0 11691.3 647.785  27
  -6  10  -1 1700.27 389.447  13
  -6  10  -1 1802.85 261.082  12
  -6  10  -1 2325.87 345.309  37
  -6  10  -1 2011.72 345.135  35
  -6  10  -1 1761.94 246.393  34
  -6  10  -1 1741.72 388.643  17
  -6  10  -1 1526.89 264.083  16
  -6  10  -1 1833.10 323.717  27
  -6  10  -2 1684.02 329.300  13
  -6  10  -2 1443.48 204.624  12
  -6  10  -2 1862.54 298.983  37
  -6  10  -2 2000.99 297.570  35
  -6  10  -2 1641.98 309.120  17
  -6  10  -2 1688.53 266.988  27
  -6  10  -3 2238.76 217.636  23
  -6  10  -3 2012.94 222.614  13
  -6  10  -3 3372.31 262.087  37
  -6  10  -3 3712.69 270.503  35
  -6  10  -3 3441.09 280.496  17
  -6  11   8 1926.40 198.197  22
  -6  11   8 2112.55 262.859  11
  -6  11   8 2583.45 239.514  32
  -6  11   8 2038.12 261.354  15
  -6  11   7 447.901 232.596  22
  -6  11   7 501.584 256.985  11
  -6  11   7 725.834 237.993  32
  -6  11   7 308.662 230.766  15
  -6  11   6 5969.66 493.148  22
  -6  11   6 4863.58 386.993  12
  -6  11   6 6514.03 516.226  11
  -6  11   6 5648.94 422.810  32
  -6  11   6 4069.02 511.341  16
  -6  11   6 6725.89 532.822  10
  -6  11   6 5223.72 431.043  15
  -6  11   5 10192.4 565.347  12
  -6  11   5 11984.5 684.901  11
  -6  11   5 9960.16 544.534  32
  -6  11   5 11734.9 771.305  16
  -6  11   5 11595.6 731.132  10
  -6  11   4 10684.2 569.126  12
  -6  11   4 12124.0 672.706  11
  -6  11   4 11458.1 759.832  16
  -6  11   4 11937.2 715.784  10
  -6  11   3 365.997 227.388  12
  -6  11   3 47.3752 224.648  11
  -6  11   3 386.577 304.427  16
  -6  11   3 386.052 266.159  10
  -6  11   2 2330.39 300.498  12
  -6  11   2 2085.07 315.908  11
  -6  11   2 2700.47 328.295  35
  -6  11   2 2517.19 398.843  16
  -6  11   2 2572.16 338.389  10
  -6  11   1 4295.68 542.428  13
  -6  11   1 3675.60 344.849  12
  -6  11   1 4090.08 383.760  11
  -6  11   1 3667.73 353.035  37
  -6  11   1 4308.95 401.456  35
  -6  11   1 4372.08 505.934  17
  -6  11   1 4518.17 453.911  16
  -6  11   0 1488.22 406.752  13
  -6  11   0 1532.59 239.092  12
  -6  11   0 1743.48 319.649  37
  -6  11   0 1590.68 337.679  35
  -6  11   0 1115.29 241.318  11
  -6  11   0 1426.65 297.234  34
  -6  11   0 1693.78 311.512  16
  -6  11   0 1677.84 344.640  27
  -6  11  -1 652.997 340.062  13
  -6  11  -1 662.102 184.675  12
  -6  11  -1 1049.87 297.705  37
  -6  11  -1 645.775 296.699  35
  -6  11  -1 543.559 189.582  34
  -6  11  -1 283.709 196.983  16
  -6  11  -1 641.524 269.531  27
  -6  11  -2 3297.37 371.636  13
  -6  11  -2 4553.74 342.112  37
  -6  11  -2 4128.45 342.010  35
  -6  11  -2 3847.70 371.201  17
  -6  11  -2 3134.18 278.797  27
  -6  11  -3 1448.02 158.829  23
  -6  11  -3 1118.80 159.839  13
  -6  11  -3 2460.61 215.884  37
  -6  11  -3 2834.44 212.937  35
  -6  11  -3 2236.63 221.603  17
  -6  12   8 860.912 176.767  11
  -6  12   8 1267.94 169.076  32
  -6  12   8 1175.49 177.869  15
  -6  12   7 959.311 222.420  22
  -6  12   7 983.375 264.339  11
  -6  12   7 1385.58 235.089  32
  -6  12   7 1360.65 238.109  29
  -6  12   7 897.088 273.668  10
  -6  12   7 1103.66 235.793  15
  -6  12   6 3302.79 384.647  22
  -6  12   6 3212.38 394.120  11
  -6  12   6 2721.83 299.741  32
  -6  12   6 2676.17 437.407  16
  -6  12   6 3473.16 412.700  10
  -6  12   6 3281.39 354.802  29
  -6  12   6 3026.39 338.205  15
  -6  12   5 182.659 179.716  12
  -6  12   5 160.361 261.703  11
  -6  12   5 62.1284 196.133  32
  -6  12   5 495.368 347.935  16
  -6  12   5 314.944 266.007  29
  -6  12   5 530.249 297.959  10
  -6  12   4 3239.24 313.396  12
  -6  12   4 3813.34 407.906  11
  -6  12   4 3568.92 479.259  16
  -6  12   4 3685.18 429.198  10
  -6  12   4 3720.33 417.177  29
  -6  12   3 8109.34 480.359  12
  -6  12   3 10706.9 611.488  11
  -6  12   3 9817.97 675.397  16
  -6  12   3 9985.93 624.875  10
  -6  12   3 10459.9 621.286  29
  -6  12   2 5822.55 400.046  12
  -6  12   2 7904.12 525.061  11
  -6  12   2 6566.21 454.551  35
  -6  12   2 7287.95 576.297  16
  -6  12   2 8171.98 514.218  10
  -6  12   1 2861.25 480.283  13
  -6  12   1 2545.14 322.058  11
  -6  12   1 2669.18 326.286  37
  -6  12   1 3244.22 380.569  35
  -6  12   1 3121.98 430.428  17
  -6  12   1 2812.37 394.258  16
  -6  12   0 3616.01 501.863  13
  -6  12   0 3037.86 320.005  11
  -6  12   0 3377.85 370.520  37
  -6  12   0 3452.99 379.752  35
  -6  12   0 4146.40 368.605  34
  -6  12   0 4084.47 458.099  17
  -6  12   0 3658.11 393.872  16
  -6  12   0 3814.25 392.415  27
  -6  12  -1 227.097 300.223  13
  -6  12  -1 255.408 255.579  37
  -6  12  -1 92.4932 252.969  35
  -6  12  -1 262.544 140.270  11
  -6  12  -1 268.239 157.422  34
  -6  12  -1 64.9322 180.724  16
  -6  12  -1 134.505 223.561  27
  -6  12  -2 5441.20 421.315  13
  -6  12  -2 6230.06 367.414  37
  -6  12  -2 6667.12 367.073  35
  -6  12  -2 3182.12 257.770  16
  -6  12  -2 4409.44 278.092  27
  -6  12  -3-8.33719 66.1807  23
  -6  12  -3 116.844 106.647  37
  -6  12  -3 176.660 115.625  35
  -6  12  -3 139.071 113.074  17
  -6  13   7-36.2555 147.457  22
  -6  13   7 127.200 211.634  11
  -6  13   7 29.6613 142.740  32
  -6  13   7 150.578 162.460  29
  -6  13   7-53.7911 201.921  10
  -6  13   7 29.7193 168.067  15
  -6  13   6 5721.82 426.158  22
  -6  13   6 6343.72 479.879  11
  -6  13   6 5043.07 339.902  32
  -6  13   6 6031.40 413.565  15
  -6  13   5 5380.11 477.131  22
  -6  13   5 6861.54 512.101  11
  -6  13   5 5574.45 543.235  16
  -6  13   5 6859.47 535.138  10
  -6  13   5 6865.17 474.218  29
  -6  13   4 2960.81 384.969  11
  -6  13   4 2865.05 445.367  16
  -6  13   4 3003.89 397.924  10
  -6  13   4 3123.36 374.141  29
  -6  13   3 8077.77 541.774  11
  -6  13   3 7850.37 611.672  16
  -6  13   3 7684.03 534.487  10
  -6  13   3 7604.52 525.922  29
  -6  13   2 14262.6 704.551  11
  -6  13   2 14899.9 792.599  16
  -6  13   2 15497.6 710.178  10
  -6  13   1 7396.38 643.124  13
  -6  13   1 7128.44 479.708  11
  -6  13   1 6835.70 443.933  37
  -6  13   1 8065.64 496.977  35
  -6  13   1 8882.92 581.633  16
  -6  13   1 8093.32 464.348  10
  -6  13   0 578.643 372.403  13
  -6  13   0 352.360 263.422  37
  -6  13   0 635.084 284.935  35
  -6  13   0 362.033 192.086  11
  -6  13   0 483.067 246.037  34
  -6  13   0 537.225 302.151  17
  -6  13   0 197.442 234.578  16
  -6  13   0 623.093 266.257  27
  -6  13  -1 1372.11 343.587  13
  -6  13  -1 1369.16 269.216  37
  -6  13  -1 1356.04 277.662  35
  -6  13  -1 1002.88 172.215  11
  -6  13  -1 1909.37 315.845  17
  -6  13  -1 1305.77 244.481  16
  -6  13  -1 1443.63 240.642  27
  -6  13  -2 1772.53 273.393  13
  -6  13  -2 1618.44 223.228  37
  -6  13  -2 2033.39 239.035  35
  -6  13  -2 2068.11 259.125  17
  -6  13  -2 916.336 144.493  16
  -6  13  -2 648.909 105.150  27
  -6  14   7 4724.21 249.494  22
  -6  14   7 6588.91 396.359  11
  -6  14   7 8094.24 347.672  29
  -6  14   7 6860.79 400.695  10
  -6  14   7 4704.26 291.049  15
  -6  14   6 300.498 186.909  22
  -6  14   6 830.183 254.904  11
  -6  14   6 470.462 191.655  29
  -6  14   6 412.480 182.675  15
  -6  14   5 4795.13 422.270  22
  -6  14   5 5732.46 453.578  11
  -6  14   5 4562.58 487.098  16
  -6  14   5 4894.93 443.109  10
  -6  14   5 5289.28 400.712  29
  -6  14   4 2331.72 338.417  11
  -6  14   4 2268.39 407.045  16
  -6  14   4 1596.39 291.793  29
  -6  14   4 1910.53 335.460  10
  -6  14   3 6352.89 476.540  11
  -6  14   3 6755.32 573.190  16
  -6  14   3 5649.58 456.872  10
  -6  14   3 6512.13 472.313  29
  -6  14   2 161.647 240.877  35
  -6  14   2 137.291 230.581  11
  -6  14   2 443.186 298.701  16
  -6  14   2 367.122 212.601  10
  -6  14   1 4246.14 371.481  11
  -6  14   1 4026.66 338.920  37
  -6  14   1 4571.25 390.114  35
  -6  14   1 4868.03 441.442  16
  -6  14   1 4399.55 334.921  10
  -6  14   0 623.940 352.455  13
  -6  14   0 846.508 270.534  35
  -6  14   0 784.830 201.665  11
  -6  14   0 659.248 224.126  34
  -6  14   0 660.984 242.601  16
  -6  14   0 569.673 226.194  27
  -6  14  -1 4536.36 422.414  13
  -6  14  -1 5399.41 342.383  37
  -6  14  -1 5969.18 358.316  35
  -6  14  -1 5543.47 380.877  17
  -6  14  -1 4478.65 324.369  16
  -6  14  -1 4343.67 263.667  27
  -6  14  -2 228.610 173.509  13
  -6  14  -2 253.099 147.097  37
  -6  14  -2 366.348 148.233  35
  -6  14  -2 357.608 149.295  17
  -6  15   7 2465.70 227.549  11
  -6  15   7 2703.80 239.347  10
  -6  15   6 1179.66 189.928  22
  -6  15   6 1749.59 267.601  11
  -6  15   6 1581.17 207.616  29
  -6  15   5 4260.97 360.985  22
  -6  15   5 4787.43 399.061  11
  -6  15   5 4662.03 461.208  16
  -6  15   5 4608.52 406.197  10
  -6  15   5 4673.96 349.974  29
  -6  15   4 1066.19 277.564  11
  -6  15   4 1130.79 323.575  16
  -6  15   4 993.240 238.023  29
  -6  15   4 1036.53 281.719  10
  -6  15   3 1311.92 283.605  11
  -6  15   3 952.970 336.864  16
  -6  15   3 1493.27 291.605  10
  -6  15   2 8865.66 523.848  11
  -6  15   2 8263.24 460.329  35
  -6  15   2 9541.79 603.786  16
  -6  15   2 8511.87 493.366  10
  -6  15   1 2869.43 309.833  11
  -6  15   1 2806.37 336.554  35
  -6  15   1 3430.33 380.469  16
  -6  15   1 3048.44 272.829  10
  -6  15   1 2880.06 314.495  27
  -6  15   0 475.166 211.203  37
  -6  15   0 667.901 258.327  35
  -6  15   0 582.713 182.772  11
  -6  15   0 813.841 205.220  34
  -6  15   0 775.755 241.385  16
  -6  15   0 671.706 201.987  27
  -6  15  -1 10789.3 428.723  37
  -6  15  -1 10755.1 437.415  35
  -6  16   6 1850.96 233.391  11
  -6  16   6 1754.69 174.637  29
  -6  16   5 894.036 197.594  22
  -6  16   5 1328.03 251.809  11
  -6  16   5 1307.15 294.733  16
  -6  16   5 1182.09 196.782  29
  -6  16   5 902.480 238.185  10
  -6  16   4 4490.55 375.261  11
  -6  16   4 4297.05 434.914  16
  -6  16   4 4541.52 382.475  10
  -6  16   3 6497.44 439.090  11
  -6  16   3 6047.13 490.199  16
  -6  16   3 6722.32 445.947  10
  -6  16   2 1100.16 238.615  35
  -6  16   2 846.626 229.189  11
  -6  16   2 958.313 290.519  16
  -6  16   2 887.354 210.544  10
  -6  16   1 1475.20 267.581  35
  -6  16   1 973.424 209.971  11
  -6  16   1 1442.26 274.105  16
  -6  16   1 1278.99 229.777  27
  -6  16   0 1210.61 194.026  37
  -6  16   0 1126.49 178.123  11
  -6  16   0 1239.22 229.651  35
  -6  16   0 727.017 158.795  34
  -6  16   0 1044.11 214.795  16
  -6  16   0 794.672 140.620  27
  -6  16  -1 1752.15 166.803  37
  -6  16  -1 1599.78 172.541  16
  -6  17   5 1225.89 156.521  22
  -6  17   5 1749.39 225.226  11
  -6  17   5 1354.13 254.775  16
  -6  17   5 1735.86 234.279  10
  -6  17   4 1057.78 205.723  22
  -6  17   4 1134.60 219.172  11
  -6  17   4 1102.94 281.863  16
  -6  17   4 1166.66 237.049  10
  -6  17   3 596.314 203.737  11
  -6  17   3 561.523 250.711  16
  -6  17   3 249.059 190.892  10
  -6  17   2 1031.73 187.038  35
  -6  17   2 1138.47 217.725  11
  -6  17   2 1375.35 214.770  10
  -6  17   2 1592.50 276.876  16
  -6  17   1 3483.91 277.160  11
  -6  17   1 3399.40 268.657  35
  -6  17   1 3497.15 272.667  34
  -6  17   1 3637.36 327.893  16
  -6  17   1 3160.98 221.128  27
  -6  17   0 1893.06 173.392  11
  -6  17   0 2294.03 203.463  35
  -6  17   0 2132.15 222.595  16
  -6  18   5 4244.81 271.332  11
  -6  18   5 5462.92 304.587  10
  -6  18   4 1672.12 174.858  22
  -6  18   4 2505.07 237.466  11
  -6  18   4 1938.62 265.574  16
  -6  18   4 2596.88 242.917  10
  -6  18   3 784.665 180.211  11
  -6  18   3 794.129 217.321  16
  -6  18   3 724.812 177.432  10
  -6  18   2 265.531 147.062  11
  -6  18   2 54.6001 165.916  16
  -6  18   2 187.960 131.208  10
  -6  18   2 249.232 119.554  27
  -6  18   1 830.490 146.478  35
  -6  18   1 701.692 135.232  11
  -6  18   1 410.129 141.748  34
  -6  18   1 847.011 174.529  16
  -6  19   3 220.959 128.939  34
  -6  19   3 427.671 121.197  11
  -6  19   3 376.440 143.995  16
  -6  19   3 486.113 127.641  10
  -6  19   2 2205.16 177.094  11
  -6  19   2 1740.51 170.107  34
  -6  19   2 2362.37 217.981  16
   7 -16  -4 648.061 116.999  26
   7 -16  -3 524.056 105.856  26
   7 -16  -3 412.263 134.568  21
   7 -16  -3 408.723 109.817  30
   7 -16  -2 1555.35 129.373  38
   7 -16  -2 2953.55 186.204  30
   7 -15  -5 665.909 141.729  26
   7 -15  -4 79.6453 129.432  26
   7 -15  -4 209.918 152.795  21
   7 -15  -4-4.01701 114.609  30
   7 -15  -3 1524.06 168.429  26
   7 -15  -3 1081.98 202.614  21
   7 -15  -3 1055.98 177.648  30
   7 -15  -2 1373.63 202.356  21
   7 -15  -2 1450.36 191.526  30
   7 -15  -2 1263.54 121.483  26
   7 -15  -1 782.313 141.245  38
   7 -15  -1 1304.55 167.555  30
   7 -14  -6 2492.81 198.169  26
  -7 -14   6 1864.85 135.648  25
   7 -14  -5-95.8960 142.637  26
   7 -14  -5 14.8699 151.397  21
   7 -14  -5-27.2451 105.324  30
   7 -14  -4 3992.81 349.050  21
   7 -14  -4 3767.86 282.633  30
   7 -14  -3 4030.53 266.890  26
   7 -14  -3 2927.35 314.611  21
   7 -14  -3 3363.42 292.957  30
   7 -14  -2 3475.01 318.312  21
   7 -14  -2 3731.19 224.113  26
   7 -14  -1 253.864 142.617  21
   7 -14  -1 345.233 168.155  38
   7 -14  -1 509.974 172.420  30
   7 -14   0 5690.68 273.659  38
   7 -14   0 5889.03 273.993  30
   7 -13  -6 10.4937 145.986  26
  -7 -13   6-41.4830 118.365  25
   7 -13  -6-24.0202 122.929  21
  -7 -13   5 2034.91 222.887  25
   7 -13  -5 1776.58 264.353  21
   7 -13  -4 1971.01 236.599  26
  -7 -13   4 2052.55 222.504  25
   7 -13  -4 1441.51 271.999  21
   7 -13  -4 1591.09 242.481  30
   7 -13  -3 520.607 166.385  26
   7 -13  -3 613.639 233.801  21
   7 -13  -3 926.569 243.672  30
   7 -13  -2 7367.10 338.987  26
   7 -13  -2 8479.82 450.668  30
   7 -13  -1 539.897 190.145  21
  -7 -13   0 1284.97 152.186  23
   7 -13   0 1765.08 213.640  38
   7 -13   0 1773.72 197.347  30
   7 -12  -7 93.8598 124.014  26
  -7 -12   7 64.6929 122.213  25
   7 -12  -6-30.5648 164.417  26
  -7 -12   6 17.8807 155.092  25
   7 -12  -6 72.7835 150.165  21
   7 -12  -5 9429.68 467.101  26
  -7 -12   5 9540.93 466.472  25
   7 -12  -4 3710.74 311.569  26
  -7 -12   4 4143.80 325.736  25
   7 -12  -4 3255.31 359.379  21
   7 -12  -3 3357.62 277.600  26
  -7 -12   3 2964.16 281.560  25
   7 -12  -3 2871.66 346.345  21
   7 -12  -2 2653.84 222.061  26
   7 -12  -2 2106.64 302.564  21
   7 -12  -2 3036.73 336.884  30
  -7 -12   1 4733.59 289.273  23
   7 -12  -1 4505.20 359.877  21
  -7 -12   0 351.728 149.525  23
   7 -12   0 351.963 149.038  21
   7 -12   0 545.600 191.692  38
   7 -12   0 462.497 174.848  30
  -7 -12  -1 3827.40 217.270  23
   7 -12   1 3089.51 191.836  30
   7 -11  -7 5022.75 307.119  26
  -7 -11   7 5898.67 332.100  25
   7 -11  -6 2135.95 256.088  26
  -7 -11   6 1971.91 261.816  25
   7 -11  -5 917.261 230.192  26
  -7 -11   5 771.683 223.196  25
   7 -11  -5 509.975 220.274  21
   7 -11  -4 3571.23 325.507  26
  -7 -11   4 3987.73 359.564  25
   7 -11  -4 3286.13 372.999  21
  -7 -11   4 3028.16 300.798  32
   7 -11  -3 488.169 179.996  26
  -7 -11   3 339.441 202.484  25
   7 -11  -3 375.799 224.767  21
  -7 -11   3 214.080 208.914  32
  -7 -11   2 8216.56 438.372  34
  -7 -11   2 8070.22 425.723  32
  -7 -11   1 6086.90 359.462  23
   7 -11  -1 5412.98 411.346  21
  -7 -11   0 668.715 182.279  23
   7 -11   0 354.461 166.236  21
   7 -11   0 813.892 206.209  30
  -7 -11  -1 3984.47 255.842  23
   7 -11   1 3345.79 220.057  30
   7 -10  -8 250.943 109.516  26
  -7 -10   8 154.499 105.667  25
   7 -10  -7 216.921 171.719  26
  -7 -10   7 173.042 178.372  25
   7 -10  -6 8230.26 459.114  26
  -7 -10   6 9130.10 498.704  25
   7 -10  -5 8589.04 477.379  26
  -7 -10   5 9351.59 522.022  25
   7 -10  -5 7574.46 505.856  21
   7 -10  -4 5979.99 396.689  26
   7 -10  -4 5182.25 444.179  21
  -7 -10   4 4814.10 346.656  34
  -7 -10   4 6096.86 406.406  32
   7 -10  -3 2873.17 271.310  26
  -7 -10   3 3123.15 338.922  25
   7 -10  -3 2856.91 346.482  21
  -7 -10   3 2785.28 331.850  34
  -7 -10   3 3130.87 335.131  32
  -7 -10   2 1715.57 264.568  25
   7 -10  -2 1225.12 265.535  21
  -7 -10   2 1039.78 295.016  34
  -7 -10   2 871.788 261.971  32
   7 -10  -1 2500.29 321.027  21
   7 -10  -1 3467.70 350.769  30
   7 -10   0 452.917 207.359  30
  -7 -10  -1 4592.04 297.194  23
   7 -10   1 4951.11 323.565  38
   7 -10   1 4166.43 259.767  30
   7  -9  -8 1171.65 160.846  26
   7  -9  -7 2987.60 286.932  26
  -7  -9   7 4056.03 330.830  25
   7  -9  -6 2550.76 297.423  26
  -7  -9   6 2286.43 322.124  25
   7  -9  -5 302.431 211.619  26
  -7  -9   5 437.820 265.649  25
  -7  -9   5 386.982 172.334   4
  -7  -9   5 484.604 225.421  32
   7  -9  -4 8441.32 462.315  26
  -7  -9   4 9140.56 540.547  25
  -7  -9   4 9255.08 521.612  32
  -7  -9   4 7568.54 415.654   4
   7  -9  -3 825.960 188.385  26
  -7  -9   3 1177.42 278.026  25
  -7  -9   3 1086.46 205.310   4
   7  -9  -3 782.981 251.045  21
  -7  -9   3 975.074 242.200  20
  -7  -9   3 707.152 286.699  34
  -7  -9   3 1127.29 292.370  32
  -7  -9   2 12347.7 603.572  25
   7  -9  -2 8683.84 551.106  21
  -7  -9   2 10585.1 512.305  20
  -7  -9   2 11175.4 586.067  34
  -7  -9   2 11616.0 584.228  32
  -7  -9   2 9643.93 462.426   4
  -7  -9   1 701.766 165.405   4
  -7  -9   1 609.932 216.393  23
  -7  -9   1 356.074 179.689  20
   7  -9  -1 595.877 245.328  30
  -7  -9   0 280.352 200.795  23
  -7  -9   0 586.730 205.045  34
   7  -9   0 188.482 187.865  30
   7  -9   1 3574.89 299.461  38
   7  -9   1 3322.91 247.745  30
  -7  -9  -2 137.962 112.619  23
   7  -9   2 138.426 101.690  38
   7  -8  -8 695.467 169.147  26
  -7  -8   8 1227.27 199.969  25
   7  -8  -7 3187.76 302.862  26
   7  -8  -6 4676.86 371.440  26
  -7  -8   6 5193.06 433.386  25
  -7  -8   6 4439.09 344.816  32
  -7  -8   6 4733.43 331.816   4
   7  -8  -5 10599.3 537.817  26
  -7  -8   5 12234.5 629.367  25
  -7  -8   5 12818.0 743.471  20
  -7  -8   5 10578.2 554.704  32
  -7  -8   5 10281.1 508.656   4
   7  -8  -4 14133.1 639.079  26
  -7  -8   4 17558.2 785.046  25
  -7  -8   4 15828.4 697.466  20
  -7  -8   4 12652.9 633.091  34
  -7  -8   4 17095.4 740.725  32
  -7  -8   4 14586.0 645.479   4
   7  -8  -3 6057.12 374.500  26
  -7  -8   3 7673.14 511.696  25
  -7  -8   3 5857.06 427.076  20
  -7  -8   3 6365.56 494.073  34
  -7  -8   3 7139.02 509.860  32
  -7  -8   3 6654.96 421.345   4
  -7  -8   2 4094.25 386.710  25
  -7  -8   2 2708.80 282.207  23
  -7  -8   2 3508.43 346.953  20
  -7  -8   2 3223.55 424.550  34
  -7  -8   2 4028.01 410.749  32
  -7  -8   2 3542.91 316.004   4
  -7  -8   1 3005.50 326.302  23
  -7  -8   1 3592.89 331.841  20
  -7  -8   1 3770.67 404.179  34
  -7  -8   1 3720.15 367.146  32
  -7  -8   1 3490.19 291.062   4
   7  -8  -1 3840.32 369.283  30
  -7  -8   0 3840.51 375.769  23
  -7  -8   0 4505.57 324.324  20
  -7  -8   0 3713.93 330.249  34
   7  -8   0 4731.88 356.053  30
  -7  -8  -1 2231.75 277.258  23
  -7  -8  -1 1173.69 159.106  20
   7  -8   1 2035.93 260.525  38
   7  -8   1 1540.73 193.326  30
   7  -8   2 2360.96 192.930  38
   7  -7  -8 1354.62 199.677  26
  -7  -7   8 1816.60 223.515  25
  -7  -7   7 8476.39 426.807   4
   7  -7  -7 7923.73 455.774  26
   7  -7  -6 600.829 223.562  26
  -7  -7   6 732.377 224.433   4
  -7  -7   6 1044.63 257.348  32
   7  -7  -5 357.580 211.687  26
  -7  -7   5 465.443 307.566  25
  -7  -7   5 242.536 215.977   4
  -7  -7   5-139.939 197.233  34
  -7  -7   5 593.838 285.547  32
   7  -7  -4 9658.11 502.197  26
  -7  -7   4 11954.0 650.268  25
  -7  -7   4 10184.8 580.563  20
  -7  -7   4 8245.55 535.952  34
  -7  -7   4 11191.6 622.599  32
  -7  -7   4 10218.3 552.779   4
   7  -7  -3 2498.44 250.706  26
  -7  -7   3 2964.89 387.839  25
  -7  -7   3 2593.94 350.762  20
  -7  -7   3 3634.67 411.260  34
  -7  -7   3 3458.90 418.866  32
  -7  -7   3 3098.89 335.606   4
  -7  -7   2 11219.3 612.017  25
  -7  -7   2 10807.8 574.914  20
  -7  -7   2 10369.1 619.785  34
  -7  -7   2 10959.2 618.878  32
  -7  -7   2 10672.5 541.510   4
  -7  -7   1 767.838 222.947   4
  -7  -7   1 632.327 226.508  23
  -7  -7   1 586.934 204.183  12
  -7  -7   1 825.580 246.754  20
  -7  -7   1 555.150 328.298  34
  -7  -7   0 2885.83 354.427  23
  -7  -7   0 3974.56 340.891  20
  -7  -7   0 3218.18 333.078  34
   7  -7   0 2698.57 305.478  30
  -7  -7  -1 354.474 222.423  23
  -7  -7  -1 333.471 175.981  20
   7  -7   1 386.346 208.720  38
   7  -7   1 317.019 149.844  30
  -7  -7  -2 1228.69 198.287  23
   7  -7   2 1450.76 171.171  38
  -7  -6   8 7993.76 372.308   4
  -7  -6   8 8614.76 422.533  25
  -7  -6   7 5857.46 383.150   4
  -7  -6   7 4995.50 404.472  25
  -7  -6   7 4555.90 342.270  32
  -7  -6   6 5911.77 420.667   4
   7  -6  -6 5901.11 414.957  26
  -7  -6   6 4661.17 386.955  12
  -7  -6   6 5960.57 441.165  32
   7  -6  -5 3335.48 331.876  26
  -7  -6   5 3277.66 344.121  12
  -7  -6   5 2891.57 311.942  34
  -7  -6   5 4014.85 411.321  32
  -7  -6   5 3908.58 373.485   4
   7  -6  -4 8434.08 467.509  26
  -7  -6   4 9893.82 627.573  25
  -7  -6   4 8224.03 516.348  12
  -7  -6   4 9990.56 591.373  20
  -7  -6   4 8618.84 535.252  34
  -7  -6   4 10913.9 628.799  32
  -7  -6   4 10131.4 568.728   4
  -7  -6   3 4959.79 461.606  25
  -7  -6   3 3817.82 366.736  12
  -7  -6   3 4752.80 434.436  20
  -7  -6   3 4863.68 464.716  34
  -7  -6   3 5170.93 487.543  32
  -7  -6   3 4345.99 393.973   4
  -7  -6   2 2329.96 358.756  25
  -7  -6   2 1316.85 242.114  23
  -7  -6   2 1806.40 283.502  12
  -7  -6   2 2291.32 350.449  20
  -7  -6   2 2725.84 412.394  34
  -7  -6   2 2551.12 392.127  32
  -7  -6   2 2348.27 319.276   4
  -7  -6   1 9465.86 565.359  23
  -7  -6   1 10030.2 540.839  12
  -7  -6   1 11825.2 601.087  20
  -7  -6   1 11905.2 626.494  34
  -7  -6   1 11625.5 576.391   4
  -7  -6   0 1306.87 239.764   4
  -7  -6   0 522.125 252.355  23
  -7  -6   0 661.854 205.450  12
  -7  -6   0 901.572 245.711  20
  -7  -6   0 466.501 260.770  34
   7  -6   0 696.376 218.341  30
  -7  -6  -1 4307.37 384.553  23
  -7  -6  -1 3399.96 276.035  12
  -7  -6  -1 4464.76 330.573  20
   7  -6   1 4714.32 351.727  38
  -7  -6  -1 3352.67 252.139  34
   7  -6   1 3606.81 264.127  30
  -7  -6  -2 557.906 193.046  23
  -7  -6  -2 657.519 148.242  20
   7  -6   2 650.160 147.816  38
  -7  -5   9 818.224 101.445   4
   7  -5  -9 598.494 111.810  26
  -7  -5   9 805.700 100.071  25
  -7  -5   8 6167.02 353.270   4
  -7  -5   8 5533.17 352.858  25
  -7  -5   7 4630.69 371.327   4
  -7  -5   7 4508.87 398.365  25
  -7  -5   7 3768.81 326.268  22
  -7  -5   7 4238.88 348.034  32
  -7  -5   6 9652.20 552.583   4
  -7  -5   6 8808.06 577.596  25
  -7  -5   6 7594.15 514.007  12
  -7  -5   6 9130.11 552.289  32
   7  -5  -5 1135.71 241.223  26
  -7  -5   5 1553.99 301.385   4
  -7  -5   5 983.242 286.374  12
  -7  -5   5 970.518 250.520  34
  -7  -5   5 1403.56 344.418  32
   7  -5  -4 3265.33 291.760  26
  -7  -5   4 3367.19 366.174  12
  -7  -5   4 3332.00 417.181  20
  -7  -5   4 3288.29 388.061  34
  -7  -5   4 4048.01 446.200  32
  -7  -5   4 4007.87 396.977   4
  -7  -5   3 3887.97 436.140  25
  -7  -5   3 3126.45 352.807  12
  -7  -5   3 4534.17 445.197  20
  -7  -5   3 4307.70 451.145  34
  -7  -5   3 4152.09 455.056  32
  -7  -5   3 4098.93 395.762   4
  -7  -5   2 8738.69 571.981  25
  -7  -5   2 7663.80 500.711  12
  -7  -5   2 8839.02 550.834  20
  -7  -5   2 8165.28 589.620  34
  -7  -5   2 9383.10 544.189   4
  -7  -5   1 14526.2 714.768  23
  -7  -5   1 13816.8 667.838  12
  -7  -5   1 15473.8 725.364  20
  -7  -5   1 15363.6 734.162  34
  -7  -5   1 14273.5 703.316  32
  -7  -5   1 15361.7 689.710   4
  -7  -5   0 8975.92 565.702  23
  -7  -5   0 9054.79 507.340  12
  -7  -5   0 9444.72 533.618  20
  -7  -5   0 8210.52 503.041  34
  -7  -5   0 8996.77 488.370  32
  -7  -5   0 9511.00 498.789   4
   7  -5   0 8446.99 461.095  30
  -7  -5  -1 5867.95 450.080  23
  -7  -5  -1 4474.90 337.598  12
  -7  -5  -1 5937.65 394.847  20
   7  -5   1 5438.99 377.848  38
  -7  -5  -1 4544.67 306.193  34
   7  -5   1 4342.61 277.871  30
  -7  -5  -2 1721.95 186.240  12
   7  -5   2 1921.60 186.791  38
  -7  -4   9 4053.02 221.758   4
  -7  -4   9 3422.61 180.598  25
   7  -4  -9 3524.47 209.087   3
  -7  -4   8 574.368 185.699  25
  -7  -4   8 691.049 207.092   4
  -7  -4   8 482.016 192.134  22
  -7  -4   7 1621.10 303.367  25
  -7  -4   7 1346.18 276.044   4
  -7  -4   7 1162.78 252.972  22
  -7  -4   7 1251.37 285.665  12
  -7  -4   7 1494.19 284.361  32
  -7  -4   6 1896.65 339.268  25
  -7  -4   6 1604.45 309.199   4
  -7  -4   6 1559.54 277.368  22
  -7  -4   6 1444.12 317.273  12
  -7  -4   6 1374.93 330.322  32
  -7  -4   5 160.558 279.368  25
  -7  -4   5 64.8999 257.049   4
  -7  -4   5-108.893 270.147  12
  -7  -4   5 799.581 360.189  20
  -7  -4   5 352.128 240.201  34
  -7  -4   5 11.3825 304.299  32
   7  -4  -4 12311.1 572.184  26
  -7  -4   4 15050.2 731.799  12
  -7  -4   4 16889.4 796.170  20
  -7  -4   4 13966.5 705.085  34
  -7  -4   4 17325.0 808.601  32
  -7  -4   4 15758.8 744.499   4
  -7  -4   3 3654.79 390.524  12
  -7  -4   3 3449.79 424.995  20
  -7  -4   3 3598.44 457.240  34
  -7  -4   3 3825.51 453.481  32
  -7  -4   3 4283.66 419.894   4
  -7  -4   2 2481.83 384.744  25
  -7  -4   2 1774.26 290.403  23
  -7  -4   2 2173.51 332.508  12
  -7  -4   2 2537.46 373.349  20
  -7  -4   2 2596.42 348.463   4
  -7  -4   1 9642.10 592.422  23
  -7  -4   1 10684.4 593.455  12
  -7  -4   1 12075.4 640.556  20
  -7  -4   1 12383.8 659.273  34
  -7  -4   1 9907.61 591.927  32
  -7  -4   1 11870.4 608.538   4
  -7  -4   1 9821.74 514.831  27
  -7  -4   0 2924.26 387.578  23
  -7  -4   0 2926.87 326.724  12
  -7  -4   0 3185.37 364.784  20
  -7  -4   0 3108.23 355.696  34
  -7  -4   0 2692.53 311.941  32
  -7  -4   0 2631.86 315.466   4
   7  -4   0 2473.57 265.527  30
  -7  -4   0 3039.46 316.301  27
  -7  -4  -1 342.167 265.935  23
  -7  -4  -1 126.619 192.890  12
  -7  -4  -1 268.378 238.681  20
   7  -4   1 326.830 187.482  38
  -7  -4  -1 55.1473 179.213  34
  -7  -4  -2 1769.27 207.297  12
   7  -4   2 1632.79 171.303  38
  -7  -4  -3 792.310 120.327  23
   7  -4   3 615.232 96.8423   5
   7  -3  -9 505.239 126.370   3
  -7  -3   9 747.698 144.480   4
  -7  -3   8 2881.16 291.349   4
  -7  -3   8 2514.79 254.523  25
  -7  -3   8 2125.93 281.152  22
  -7  -3   8 2064.23 247.145  32
  -7  -3   7 9676.38 549.866   4
  -7  -3   7 8910.04 522.299  25
  -7  -3   7 7799.32 507.096  22
  -7  -3   7 7417.03 518.565  12
  -7  -3   7 8710.53 521.594  32
  -7  -3   6 3112.44 379.618   4
  -7  -3   6 2417.48 354.816  25
  -7  -3   6 2203.27 323.529  22
  -7  -3   6 2050.06 360.948  12
  -7  -3   6 2462.40 379.087  32
  -7  -3   5 103.151 262.614  25
  -7  -3   5 44.6820 266.489   4
  -7  -3   5 404.419 215.014  22
  -7  -3   5 11.3782 263.436  12
  -7  -3   5 500.910 357.782  20
  -7  -3   5 25.4767 235.974  34
  -7  -3   5 105.258 315.060  32
  -7  -3   4 3098.79 408.477  25
  -7  -3   4 2944.52 387.604  12
  -7  -3   4 2936.87 423.157  20
  -7  -3   4 2653.01 382.124  34
  -7  -3   4 3005.61 426.838  32
  -7  -3   4 2456.25 367.581   4
  -7  -3   3 7060.19 526.150  12
  -7  -3   3 7890.54 575.453  20
  -7  -3   3 7029.35 548.514  34
  -7  -3   3 7354.88 527.526   4
  -7  -3   2 7088.54 509.356  12
  -7  -3   2 7791.86 549.448  20
  -7  -3   2 7092.14 544.931  32
  -7  -3   2 7737.74 531.808   4
  -7  -3   1 3521.02 410.065  23
  -7  -3   1 3893.36 415.583  12
  -7  -3   1 4249.11 442.592  20
  -7  -3   1 4311.34 448.325  34
  -7  -3   1 3178.97 398.848  32
  -7  -3   1 4305.73 412.984   4
  -7  -3   1 3704.24 349.397  27
  -7  -3   0 99.1822 228.449   4
  -7  -3   0 280.879 275.707  23
  -7  -3   0 160.402 234.957  12
  -7  -3   0 340.374 282.467  20
  -7  -3   0-94.1456 274.991  34
  -7  -3   0-7.99205 225.848  32
   7  -3   0 222.612 160.327  30
  -7  -3   0 197.123 234.653  27
  -7  -3  -1 1533.33 313.327  23
  -7  -3  -1 1864.97 283.311  12
  -7  -3  -1 2113.00 308.855  20
   7  -3   1 1762.28 241.008  38
  -7  -3  -1 1606.16 237.632  34
  -7  -3  -1 2298.04 304.097  27
  -7  -3  -2 263.594 175.194  12
  -7  -3  -2 197.607 183.604  20
  -7  -3  -3 115.881 99.0547  23
  -7  -3  -3 166.287 100.852  20
   7  -3   3 174.019 100.445   5
  -7  -2   9 2391.22 206.244   4
   7  -2  -9 1924.21 189.435   3
  -7  -2   8 1391.00 212.298  25
  -7  -2   8 1679.09 271.988   4
  -7  -2   8 1069.90 255.517  22
  -7  -2   8 1194.18 234.262  32
  -7  -2   7 10773.3 588.567   4
  -7  -2   7 9165.50 526.373  25
  -7  -2   7 8939.57 565.479  22
  -7  -2   7 9179.15 585.945  12
  -7  -2   7 10035.7 575.417  32
  -7  -2   6 1974.49 327.854  25
  -7  -2   6 2039.58 360.242   4
  -7  -2   6 1857.01 321.020  22
  -7  -2   6 2101.94 370.969  12
  -7  -2   6 2987.51 752.636  20
  -7  -2   6 1850.64 373.645  32
  -7  -2   5 2944.33 387.908   4
  -7  -2   5 2407.77 370.669  25
  -7  -2   5 2183.76 318.380  22
  -7  -2   5 2849.01 440.178  20
  -7  -2   5 2219.53 365.960  12
  -7  -2   5 2065.83 311.583  34
  -7  -2   5 2404.24 412.552  32
  -7  -2   4 25542.2 1039.85  25
  -7  -2   4 26256.3 1048.33  12
  -7  -2   4 26930.5 1075.20  20
  -7  -2   4 27517.3 1054.59   4
  -7  -2   3 8945.25 590.413  25
  -7  -2   3 9377.20 606.554  12
  -7  -2   3 9500.35 638.261  20
  -7  -2   3 8504.78 598.778  34
  -7  -2   3 9283.24 595.937   4
  -7  -2   2 5055.69 460.416  12
  -7  -2   2 4533.11 464.948  20
  -7  -2   2 4751.79 461.316  32
  -7  -2   2 5349.34 464.450   4
  -7  -2   2 3865.39 353.379  27
  -7  -2   1 232.689 272.067   4
  -7  -2   1-11.6439 267.895  23
  -7  -2   1 223.824 288.351  12
  -7  -2   1-79.2263 309.023  20
  -7  -2   1 61.6677 318.720  34
  -7  -2   1-9.98055 256.731  32
  -7  -2   1 87.9630 241.236  27
  -7  -2   0 1651.30 356.907  23
  -7  -2   0 1694.95 318.490  12
  -7  -2   0 2186.32 363.508  20
  -7  -2   0 1744.25 326.698  34
  -7  -2   0 1190.93 248.467  32
  -7  -2   0 2037.31 326.154   4
   7  -2   0 1308.54 196.743  30
  -7  -2   0 1545.23 315.250  27
  -7  -2  -1 295.645 272.307  23
  -7  -2  -1 181.974 235.060  12
  -7  -2  -1 497.653 268.755  20
   7  -2   1 212.645 154.392  38
  -7  -2  -1 161.347 190.842  34
  -7  -2  -1 69.6385 239.350  27
  -7  -2  -2 278.680 185.637  12
  -7  -2  -2 125.242 187.195  20
  -7  -2  -3 1249.08 153.946  23
  -7  -2  -3 1720.48 152.165  12
  -7  -2  -3 1978.09 168.471  20
   7  -2   3 1223.59 149.711   5
   7  -1  -9 773.456 149.646   3
  -7  -1   9 927.642 169.269   4
  -7  -1   8 1529.49 203.925  25
  -7  -1   8 1805.59 284.674   4
  -7  -1   8 1835.66 289.332  22
  -7  -1   8 1642.12 268.499  32
  -7  -1   7 8608.30 505.361  25
  -7  -1   7 10088.0 577.793   4
  -7  -1   7 8951.18 578.134  22
  -7  -1   7 7787.45 559.827  12
  -7  -1   7 9884.61 578.075  32
  -7  -1   6 349.016 242.577  25
  -7  -1   6 221.713 306.309   4
  -7  -1   6 323.146 264.319  22
  -7  -1   6 107.284 321.663  12
  -7  -1   6 22.8115 306.847  32
  -7  -1   5 8187.07 566.668   4
  -7  -1   5 8063.77 542.367  25
  -7  -1   5 7686.35 539.118  22
  -7  -1   5 8184.71 585.983  12
  -7  -1   5 8772.17 628.800  20
  -7  -1   5 6690.01 473.100  34
  -7  -1   5 7708.71 582.847  32
  -7  -1   4 10738.2 651.243   4
  -7  -1   4 11836.1 653.013  25
  -7  -1   4 9148.09 568.123  22
  -7  -1   4 11631.8 673.765  12
  -7  -1   4 11468.6 704.207  20
  -7  -1   4 10074.0 615.810  34
  -7  -1   3 8290.62 563.688  25
  -7  -1   3 8302.35 582.305  12
  -7  -1   3 8249.13 600.556  20
  -7  -1   3 7673.64 586.387  34
  -7  -1   3 8460.58 585.212  32
  -7  -1   3 8113.70 561.795   4
  -7  -1   2 6452.90 508.090  25
  -7  -1   2 4730.99 426.956  23
  -7  -1   2 6144.47 516.531  12
  -7  -1   2 6698.42 545.304  20
  -7  -1   2 5778.31 492.018  32
  -7  -1   2 7291.83 530.635   4
  -7  -1   2 6149.85 432.202  27
  -7  -1   1 18759.1 898.994  23
  -7  -1   1 21731.5 934.531  12
  -7  -1   1 23917.7 980.098  20
  -7  -1   1 23383.7 928.550  34
  -7  -1   1 19254.1 844.787  32
  -7  -1   1 22554.0 921.471   4
  -7  -1   1 21098.6 854.592  27
  -7  -1   0 8642.99 595.721  23
  -7  -1   0 8558.98 567.751  12
  -7  -1   0 8680.45 573.113  20
  -7  -1   0 8210.51 515.941  34
  -7  -1   0 6846.31 445.454  32
  -7  -1   0 8949.55 539.209   4
  -7  -1   0 8882.47 537.225  27
  -7  -1  -1 688.652 297.838  23
  -7  -1  -1 588.955 270.159  12
  -7  -1  -1 565.441 279.827  20
  -7  -1  -1 218.771 194.241  34
  -7  -1  -1 688.656 279.179  27
  -7  -1  -2 880.945 217.423  12
  -7  -1  -2 990.355 230.767  20
  -7  -1  -3 1068.17 150.724  23
  -7  -1  -3 1464.83 156.407  12
  -7  -1  -3 1647.29 168.084  20
   7  -1   3 1255.10 157.830   5
  -7   0   9 1164.27 182.462   4
  -7   0   9 810.971 181.940  22
  -7   0   8 6695.26 345.497  25
  -7   0   8 8333.68 473.499   4
  -7   0   8 6835.96 463.762  22
  -7   0   8 8177.71 463.742  32
  -7   0   7 4503.46 361.028  25
  -7   0   7 5776.67 475.779   4
  -7   0   7 5079.60 465.860  22
  -7   0   7 5167.95 475.006  12
  -7   0   7 6615.12 754.266  20
  -7   0   7 5386.03 462.770  32
  -7   0   6 197.709 239.604  25
  -7   0   6 397.293 293.412  22
  -7   0   6 180.817 328.760  12
  -7   0   6 161.880 325.032  32
  -7   0   5 638.821 261.754  25
  -7   0   5 576.429 284.375  22
  -7   0   5 922.473 349.339  12
  -7   0   5 1040.31 427.726  20
  -7   0   5 664.138 275.704  34
  -7   0   4 191.035 252.001  25
  -7   0   4 147.042 220.311  22
  -7   0   4 12.2351 311.563  12
  -7   0   4-60.5429 373.331  20
  -7   0   4 52.3331 302.216  34
  -7   0   3 16240.9 783.734  25
  -7   0   3 17715.8 840.886  12
  -7   0   3 16291.1 827.491  20
  -7   0   3 16452.0 804.254  34
  -7   0   3 15818.7 789.044  32
  -7   0   3 15682.1 693.634  27
  -7   0   2 18982.1 847.406  25
  -7   0   2 19197.7 876.214  12
  -7   0   2 18726.0 870.456  20
  -7   0   2 17657.4 811.950  32
  -7   0   2 18739.3 780.408  27
  -7   0   1 16714.6 848.501  23
  -7   0   1 22289.1 930.681  12
  -7   0   1 21954.9 932.506  20
  -7   0   1 21408.9 875.929  34
  -7   0   1 15357.1 757.256  32
  -7   0   1 20056.1 832.196  27
  -7   0   0 19422.7 896.586  23
  -7   0   0 21997.0 901.744  12
  -7   0   0 21525.0 904.938  20
  -7   0   0 19086.8 787.671  34
  -7   0   0 21620.7 843.758  27
  -7   0  -1 6801.26 520.055  23
  -7   0  -1 7100.56 493.689  12
  -7   0  -1 7718.56 501.338  20
  -7   0  -1 5792.30 379.024  37
  -7   0  -1 6442.65 381.354  34
  -7   0  -1 7929.92 487.833  27
  -7   0  -2 51.6683 193.321  12
  -7   0  -2 116.166 210.747  20
  -7   0  -3 7267.64 317.825  12
  -7   0  -3 7695.00 326.082  20
  -7   1   9 828.344 177.221  22
   7   1  -9 1072.82 167.764   3
  -7   1   9 842.435 152.230  32
  -7   1   8 1609.58 288.252  22
  -7   1   8 1508.24 280.471  32
  -7   1   7 8083.47 447.772  25
  -7   1   7 9367.92 598.694  22
  -7   1   7 8271.93 582.465  12
  -7   1   7 8579.79 440.599  29
  -7   1   6 158.695 208.003  25
  -7   1   6 293.295 292.196  22
  -7   1   6 353.307 335.606  12
  -7   1   6 266.458 344.562  32
  -7   1   6 155.232 178.796  29
  -7   1   5 7520.46 504.664  25
  -7   1   5 7633.42 564.237  22
  -7   1   5 8641.65 619.004  12
  -7   1   5 7170.94 487.033  34
  -7   1   5 7833.96 467.120  29
  -7   1   4 10072.7 605.415  25
  -7   1   4 10736.1 639.339  22
  -7   1   4 10239.8 619.333  34
  -7   1   4 11500.4 670.231  32
  -7   1   4 10501.4 553.678  29
  -7   1   3 6848.91 511.966  25
  -7   1   3 6625.94 490.841  22
  -7   1   3 7988.95 592.953  12
  -7   1   3 7887.50 576.326  34
  -7   1   3 6671.02 523.182  32
  -7   1   3 7948.94 499.118  27
  -7   1   2 6620.67 502.206  25
  -7   1   2 6609.15 537.135  12
  -7   1   2 5529.62 459.715  32
  -7   1   2 6315.78 467.205  27
  -7   1   1 19627.8 914.379  23
  -7   1   1 24522.1 993.591  12
  -7   1   1 22676.0 918.639  34
  -7   1   1 17617.4 806.520  32
  -7   1   1 24094.0 916.143  27
  -7   1   0 8662.86 595.644  23
  -7   1   0 9276.49 591.353  12
  -7   1   0 7719.09 501.383  34
  -7   1   0 10057.6 574.626  27
  -7   1  -1 594.695 294.053  23
  -7   1  -1 697.342 284.990  12
  -7   1  -1 381.773 215.415  37
  -7   1  -1 557.431 203.960  34
  -7   1  -1 754.989 298.924  27
  -7   1  -2 701.129 223.944  12
  -7   1  -2 964.754 251.749  27
  -7   1  -3 867.117 144.034  23
  -7   1  -3 1475.84 165.651  12
  -7   2   9 1983.80 194.942   4
  -7   2   9 1704.18 209.920  22
   7   2  -9 1507.63 168.966   3
  -7   2   9 1843.87 193.080  32
  -7   2   8 1461.43 265.098   4
  -7   2   8 1360.20 287.344  22
  -7   2   8 1096.31 279.434  32
  -7   2   7 8319.93 430.240  25
  -7   2   7 9845.95 568.919   4
  -7   2   7 8927.19 587.927  22
  -7   2   7 9878.31 621.556  12
  -7   2   7 10598.6 689.541  20
  -7   2   7 10516.0 606.255  32
  -7   2   7 8872.92 470.133  29
  -7   2   6 1914.37 270.867  25
  -7   2   6 2002.44 366.901   4
  -7   2   6 1894.17 356.264  22
  -7   2   6 2110.26 420.836  12
  -7   2   6 1759.75 269.603  29
  -7   2   6 1351.50 368.082  10
  -7   2   5 2740.09 390.738   4
  -7   2   5 2439.31 318.589  25
  -7   2   5 2523.46 386.979  22
  -7   2   5 2362.19 433.439  20
  -7   2   5 2170.90 430.921  12
  -7   2   5 2256.69 331.642  34
  -7   2   5 2521.24 422.772  32
  -7   2   5 2328.55 297.083  29
  -7   2   5 1724.35 350.698  10
  -7   2   4 25360.2 1038.81   4
  -7   2   4 25856.8 995.589  25
  -7   2   4 25672.1 1061.42  22
  -7   2   4 28522.3 1119.84  12
  -7   2   4 28476.1 1102.19  20
  -7   2   4 25419.7 1011.51  34
  -7   2   4 23068.7 1005.51  32
  -7   2   4 24682.3 957.114  29
  -7   2   3 8683.50 555.752  25
  -7   2   3 9688.08 639.216  12
  -7   2   3 8546.03 609.759  20
  -7   2   3 9710.25 631.652  34
  -7   2   3 8219.32 559.282  32
  -7   2   3 7884.07 505.442  29
  -7   2   3 8326.73 572.255   4
  -7   2   2 5240.28 503.886  12
  -7   2   2 4780.00 478.425  20
  -7   2   2 3797.82 397.565  32
  -7   2   2 4419.36 438.598   4
  -7   2   2 4905.38 438.206  27
  -7   2   1-42.6195 264.791   4
  -7   2   1 130.712 325.888  12
  -7   2   1 68.2311 310.957  20
  -7   2   1 350.256 325.630  34
  -7   2   1 124.000 233.099  32
  -7   2   1 141.163 287.270  27
  -7   2   0 1454.54 297.831   4
  -7   2   0 1461.52 350.804  23
  -7   2   0 1603.69 371.368  12
  -7   2   0 1463.28 342.241  20
  -7   2   0 1410.57 308.809  34
  -7   2   0 1010.82 196.735  32
  -7   2   0 1605.01 347.380  27
  -7   2  -1 389.804 312.339  23
  -7   2  -1 292.344 270.983  12
  -7   2  -1 343.662 268.776  20
  -7   2  -1 247.300 211.481  37
  -7   2  -1 100.299 191.899  34
  -7   2  -1 153.008 272.750  27
  -7   2  -2 73.9681 209.317  12
  -7   2  -2 287.941 211.725  20
  -7   2  -2 138.495 179.660  37
  -7   2  -2 70.3413 222.943  27
  -7   2  -3 2032.41 180.172  12
  -7   2  -3 2093.80 173.107  20
   7   2   3 1537.57 156.795   5
   7   3  -9 515.011 121.408   3
  -7   3   9 569.778 142.447   4
  -7   3   9 436.392 155.186  22
  -7   3   9 584.583 154.789  32
  -7   3   8 2436.16 285.540   4
  -7   3   8 2429.40 319.016  22
  -7   3   8 2708.62 321.927  32
  -7   3   8 2509.17 233.059  29
  -7   3   7 9217.69 534.583   4
  -7   3   7 8982.86 592.475  22
  -7   3   7 10404.5 604.803  32
  -7   3   7 8661.00 474.639  29
  -7   3   6 2959.16 380.864   4
  -7   3   6 2323.45 263.985  25
  -7   3   6 2354.74 389.434  22
  -7   3   6 2340.59 306.346  29
  -7   3   6 1576.37 381.776  10
  -7   3   5 82.2906 188.206  25
  -7   3   5 577.144 276.189   4
  -7   3   5 146.917 285.411  22
  -7   3   5 452.104 348.065  20
  -7   3   5 345.364 270.969  34
  -7   3   5 70.5472 312.881  32
  -7   3   5 108.506 212.333  29
  -7   3   5 56.9770 269.284  10
  -7   3   4 2715.16 327.729  25
  -7   3   4 2592.90 390.060  22
  -7   3   4 2414.76 420.476  20
  -7   3   4 2634.83 406.131  34
  -7   3   4 2383.34 386.095  32
  -7   3   4 2460.01 325.340  29
  -7   3   4 2037.50 325.996  10
  -7   3   4 2888.91 381.750   4
  -7   3   3 7342.37 500.377  25
  -7   3   3 7241.24 569.437  20
  -7   3   3 6705.38 553.656  34
  -7   3   3 6759.28 503.520  32
  -7   3   3 6009.94 454.993  29
  -7   3   3 7091.53 522.379   4
  -7   3   2 6933.26 533.375  20
  -7   3   2 6526.64 474.151  32
  -7   3   2 6858.46 512.582   4
  -7   3   2 7202.34 527.691  27
  -7   3   1 4368.50 450.817  20
  -7   3   1 4279.88 455.220  34
  -7   3   1 3714.37 397.868   4
  -7   3   1 4262.83 442.960  27
  -7   3   0 336.937 237.002   4
  -7   3   0 197.845 265.645  20
  -7   3   0 70.8231 186.203  37
  -7   3   0 264.871 275.713  34
  -7   3   0 282.771 321.231  27
  -7   3  -1 1636.53 354.430  23
  -7   3  -1 2075.08 310.510  20
  -7   3  -1 1835.88 259.461  37
  -7   3  -1 1810.49 238.903  35
  -7   3  -1 1612.36 233.459  34
  -7   3  -1 2386.92 357.282  27
  -7   3  -2 86.8457 182.403  20
  -7   3  -2 43.5794 178.194  37
  -7   3  -3 125.959 97.4197  23
  -7   3  -3 194.755 101.422  20
   7   3   3 217.374 94.9295   5
  -7   4   9 4335.84 228.515   4
  -7   4   9 4689.64 258.953  32
  -7   4   8 405.827 190.228   4
  -7   4   8 430.102 241.540  22
  -7   4   8 645.256 255.256  32
  -7   4   8 300.266 159.573  29
  -7   4   7 1576.47 298.199   4
  -7   4   7 1643.27 346.526  22
  -7   4   7 1515.98 249.716  29
  -7   4   6 1496.54 310.492   4
  -7   4   6 1841.74 392.424  22
  -7   4   6 1315.68 357.767  32
  -7   4   6 1993.34 309.649  29
  -7   4   6 896.742 343.360  10
  -7   4   5 396.009 188.298  25
  -7   4   5 110.012 257.860   4
  -7   4   5 229.802 281.818  22
  -7   4   5 519.857 335.799  20
  -7   4   5 316.810 270.159  34
  -7   4   5-57.4238 306.579  32
  -7   4   5 235.147 231.823  29
  -7   4   5 56.7273 250.146  10
  -7   4   4 15372.5 683.555  25
  -7   4   4 15565.8 790.944  20
  -7   4   4 14768.7 742.987  34
  -7   4   4 15605.8 755.851  32
  -7   4   4 12568.0 715.334  10
  -7   4   4 14817.8 715.400  29
  -7   4   4 15249.3 760.539   4
  -7   4   3 4164.29 448.625  20
  -7   4   3 4218.88 477.252  34
  -7   4   3 3061.77 376.796  32
  -7   4   3 3627.31 387.522  29
  -7   4   3 3760.38 405.189   4
  -7   4   2 2272.85 380.014  20
  -7   4   2 1588.80 275.990  32
  -7   4   2 2161.97 338.078   4
  -7   4   2 2382.15 378.820  27
  -7   4   1 12276.4 649.955  20
  -7   4   1 12302.4 646.916  34
  -7   4   1 10644.6 582.533   4
  -7   4   1 12120.3 659.659  27
  -7   4   0 4078.12 443.437  12
  -7   4   0 3266.01 375.682  20
  -7   4   0 2047.14 272.091  37
  -7   4   0 3119.73 352.562  34
  -7   4   0 2542.98 369.082  17
  -7   4   0 3001.49 328.583   4
  -7   4   0 3206.38 426.528  27
  -7   4  -1 295.579 278.041  23
  -7   4  -1 64.8678 250.945  12
  -7   4  -1 468.583 231.437  20
  -7   4  -1 164.273 206.864  37
  -7   4  -1 264.730 196.970  35
  -7   4  -1 184.201 174.139  34
  -7   4  -1 174.499 217.808  17
  -7   4  -1 339.915 285.747  27
  -7   4  -2 1863.02 255.748  12
  -7   4  -2 1880.15 232.339  20
  -7   4  -2 1744.88 234.413  37
  -7   4  -3 999.775 127.010  12
   7   4   3 884.365 102.092   5
  -7   5   9 850.648 106.521   4
  -7   5   9 802.182 143.541  22
  -7   5   9 989.385 150.284  32
  -7   5   8 5380.33 340.604   4
  -7   5   8 5137.29 406.327  22
  -7   5   8 6117.62 408.129  32
  -7   5   8 6231.82 352.901  29
  -7   5   7 3704.93 345.623   4
  -7   5   7 4173.26 432.331  22
  -7   5   7 4165.00 424.230  12
  -7   5   7 4538.08 358.336  29
  -7   5   7 3633.76 444.867  10
  -7   5   6 9149.94 550.295   4
  -7   5   6 9530.51 641.544  22
  -7   5   6 9534.08 621.423  12
  -7   5   6 9894.49 631.469  20
  -7   5   6 9346.70 591.544  32
  -7   5   6 9522.89 539.778  29
  -7   5   6 7480.15 609.669  10
  -7   5   5 1237.15 298.532   4
  -7   5   5 1388.72 369.556  22
  -7   5   5 2150.86 375.249  20
  -7   5   5 1231.56 361.577  12
  -7   5   5 1293.43 312.112  34
  -7   5   5 1311.73 339.570  32
  -7   5   5 1235.08 291.004  29
  -7   5   5 866.079 296.269  10
  -7   5   4 3936.31 330.004  25
  -7   5   4 4031.87 469.273  12
  -7   5   4 3905.28 432.652  20
  -7   5   4 3362.73 431.744  34
  -7   5   4 2768.36 372.458  32
  -7   5   4 3000.07 384.842  10
  -7   5   4 3646.95 379.371  29
  -7   5   4 3569.31 392.121   4
  -7   5   3 3901.14 448.447  12
  -7   5   3 3898.00 428.778  20
  -7   5   3 3654.74 463.866  34
  -7   5   3 3024.94 360.945  32
  -7   5   3 3593.74 391.912  29
  -7   5   3 4016.18 400.932   4
  -7   5   2 9364.65 602.809  12
  -7   5   2 9261.81 567.148  20
  -7   5   1 17205.3 806.967  12
  -7   5   1 15480.8 742.429  20
  -7   5   1 16155.1 762.770  34
  -7   5   1 14114.4 692.362   4
  -7   5   1 16919.5 788.358  27
  -7   5   0 10594.5 599.299  12
  -7   5   0 9852.20 549.038  20
  -7   5   0 6172.90 394.525  37
  -7   5   0 8700.54 494.137  34
  -7   5   0 7412.79 543.330  17
  -7   5   0 8102.90 474.680   4
  -7   5   0 10590.8 602.436  27
  -7   5  -1 5767.92 421.749  12
  -7   5  -1 5977.46 402.969  20
  -7   5  -1 5042.22 343.464  37
  -7   5  -1 4429.19 322.109  35
  -7   5  -1 4033.46 286.110  34
  -7   5  -1 4825.73 395.213  17
  -7   5  -1 6950.13 385.827   4
  -7   5  -2 1684.10 266.403  23
  -7   5  -2 2268.91 249.659  12
  -7   5  -2 2642.30 243.690  20
  -7   5  -2 1973.88 224.664  37
  -7   5  -2 1765.06 198.146  35
  -7   6   8 7498.22 373.133   4
  -7   6   8 8478.98 407.578  29
  -7   6   7 4989.02 365.358   4
  -7   6   7 5458.55 451.795  22
  -7   6   7 5008.81 433.667  12
  -7   6   7 5258.08 428.539  32
  -7   6   7 5647.03 397.090  29
  -7   6   7 3942.02 457.358  10
  -7   6   6 6325.31 438.903   4
  -7   6   6 6822.19 561.004  22
  -7   6   6 6506.60 510.059  12
  -7   6   6 7453.77 535.425  20
  -7   6   6 5365.13 459.765  32
  -7   6   6 5597.27 522.918  10
  -7   6   6 6778.28 466.519  29
  -7   6   5 3262.84 356.650   4
  -7   6   5 4183.94 480.077  22
  -7   6   5 4012.99 446.383  12
  -7   6   5 4482.62 441.478  20
  -7   6   5 3422.19 380.293  34
  -7   6   5 3286.57 396.317  32
  -7   6   5 3591.01 445.290  10
  -7   6   5 3895.68 396.721  29
  -7   6   4 11943.7 680.237  12
  -7   6   4 10223.4 607.808  20
  -7   6   4 10744.2 636.452  34
  -7   6   4 8608.08 563.741  32
  -7   6   4 10374.5 631.719  10
  -7   6   4 10916.2 621.529  29
  -7   6   4 10147.9 579.073   4
  -7   6   3 4832.07 478.908  12
  -7   6   3 4436.75 437.451  20
  -7   6   3 4394.72 493.116  34
  -7   6   3 3117.78 342.308  32
  -7   6   3 4249.60 412.889  29
  -7   6   3 4542.66 406.848   4
  -7   6   2 2158.33 341.871  20
  -7   6   2 1920.31 356.639  12
  -7   6   2 1288.59 232.411  32
  -7   6   2 2229.02 322.167   4
  -7   6   1 13037.1 681.941  12
  -7   6   1 12249.3 631.843  20
  -7   6   1 11906.7 644.206  34
  -7   6   1 11292.1 589.749   4
  -7   6   1 13511.4 711.881  27
  -7   6   0 991.520 222.320   4
  -7   6   0 625.434 289.756  12
  -7   6   0 1078.16 266.907  20
  -7   6   0 532.580 211.173  37
  -7   6   0 584.135 261.221  34
  -7   6   0 574.770 319.311  17
  -7   6   0 736.485 345.409  27
  -7   6  -1 4916.22 378.556  12
  -7   6  -1 4582.39 341.820  20
  -7   6  -1 4331.20 320.667  37
  -7   6  -1 4147.79 295.813  35
  -7   6  -1 3397.81 254.319  34
  -7   6  -1 4115.33 380.296  17
  -7   6  -1 4042.48 287.004   4
  -7   6  -2 697.171 207.766  23
  -7   6  -2 671.570 171.824  12
  -7   6  -2 821.608 161.405  20
  -7   6  -2 755.829 167.904  37
  -7   6  -2 445.393 141.065  35
  -7   6  -2 884.691 212.824  27
  -7   7   8 1466.74 164.576   4
  -7   7   8 1717.43 256.334  22
  -7   7   8 1963.24 218.543  29
  -7   7   7 8881.05 447.933   4
  -7   7   7 8347.74 517.401  12
  -7   7   7 9053.19 517.119  32
  -7   7   7 9691.46 499.850  29
  -7   7   7 7680.94 573.855  10
  -7   7   6 868.331 231.272   4
  -7   7   6 735.365 316.765  22
  -7   7   6 749.300 297.034  12
  -7   7   6 609.697 298.540  20
  -7   7   6 704.678 212.933  34
  -7   7   6 932.245 291.798  32
  -7   7   6 893.329 258.916  29
  -7   7   6 505.402 308.118  10
  -7   7   5 230.391 214.314   4
  -7   7   5 226.838 308.333  22
  -7   7   5 324.785 302.207  12
  -7   7   5 567.051 274.409  20
  -7   7   5 35.4832 261.572  34
  -7   7   5 330.839 268.485  32
  -7   7   5 359.421 249.298  29
  -7   7   5 215.332 268.226  10
  -7   7   4 11291.4 648.997  12
  -7   7   4 10509.8 594.521  20
  -7   7   4 10496.3 625.913  34
  -7   7   4 8506.53 539.609  32
  -7   7   4 10236.6 621.771  10
  -7   7   4 11351.2 625.219  29
  -7   7   4 9659.89 551.366   4
  -7   7   3 2891.02 385.874  12
  -7   7   3 2944.13 359.551  20
  -7   7   3 3179.64 457.482  34
  -7   7   3 2199.28 292.161  32
  -7   7   3 2961.54 378.129  29
  -7   7   3 2810.04 330.334   4
  -7   7   2 11227.0 642.050  12
  -7   7   2 10563.5 586.639  20
  -7   7   2 10105.9 552.407   4
  -7   7   1 822.121 216.297   4
  -7   7   1 736.133 280.780  12
  -7   7   1 1011.34 262.447  20
  -7   7   1 608.298 317.802  34
  -7   7   1 1131.75 363.441  27
  -7   7   0 3196.67 356.177  12
  -7   7   0 3012.72 319.454  20
  -7   7   0 2333.33 268.875  37
  -7   7   0 2585.97 270.119  35
  -7   7   0 3407.88 332.149  34
  -7   7   0 3101.53 403.471  17
  -7   7   0 3065.15 274.803   4
  -7   7  -1 320.064 193.603  12
  -7   7  -1 518.652 188.378  20
  -7   7  -1 457.853 195.828  37
  -7   7  -1 329.410 186.542  35
  -7   7  -1 551.357 238.786  17
  -7   7  -2 1094.49 207.460  23
  -7   7  -2 1340.58 176.277  12
  -7   7  -2 1027.02 131.091  20
  -7   7  -2 1282.04 172.774  37
  -7   7  -2 1007.88 146.605  35
  -7   7  -2 1607.27 216.374  27
  -7   8   8 738.638 188.426  22
  -7   8   8 1162.36 205.581  32
  -7   8   8 1129.03 180.099  29
  -7   8   7 3065.58 331.954  32
  -7   8   7 3739.51 324.420  29
  -7   8   7 2874.85 368.614  10
  -7   8   7 3006.32 247.301   4
  -7   8   6 5092.59 481.919  22
  -7   8   6 4822.87 422.713  12
  -7   8   6 3624.17 357.006  20
  -7   8   6 5115.60 411.875  32
  -7   8   6 4666.71 464.647  10
  -7   8   6 5106.40 420.669  29
  -7   8   6 4528.82 334.805   4
  -7   8   5 12185.0 701.243  22
  -7   8   5 11359.3 625.582  12
  -7   8   5 9108.45 536.894  20
  -7   8   5 8956.37 536.344  34
  -7   8   5 10420.6 562.330  32
  -7   8   5 8572.15 590.891  16
  -7   8   5 10772.5 673.244  10
  -7   8   5 12039.5 632.601  29
  -7   8   5 9098.49 495.779   4
  -7   8   4 16724.5 770.146  12
  -7   8   4 13918.9 676.828  20
  -7   8   4 17314.2 776.767  34
  -7   8   4 13747.3 646.958  32
  -7   8   4 13771.2 734.204  16
  -7   8   4 16159.3 771.980  10
  -7   8   4 16484.4 768.125  29
  -7   8   4 14517.1 652.387   4
  -7   8   3 7118.93 499.641  12
  -7   8   3 6325.42 442.174  20
  -7   8   3 6783.13 549.602  34
  -7   8   3 7034.88 519.383  29
  -7   8   3 6022.92 405.271   4
  -7   8   2 3606.37 381.147  12
  -7   8   2 3687.94 349.462  20
  -7   8   2 3701.89 320.336   4
  -7   8   1 4339.20 388.560  12
  -7   8   1 3207.33 318.853  20
  -7   8   1 3701.63 404.421  34
  -7   8   1 3045.27 283.784   4
  -7   8   1 4223.60 463.758  27
  -7   8   0 4549.35 378.504  12
  -7   8   0 4018.40 318.107  20
  -7   8   0 3377.54 287.582  35
  -7   8   0 4308.20 346.764  34
  -7   8   0 3752.84 415.964  17
  -7   8   0 3293.22 255.142   4
  -7   8  -1 1602.39 231.685  12
  -7   8  -1 1610.94 193.548  20
  -7   8  -1 1478.73 212.919  37
  -7   8  -1 1430.59 205.430  35
  -7   8  -1 1503.32 277.940  17
  -7   8  -1 1612.90 280.665  27
  -7   8  -2 1882.74 212.695  23
  -7   8  -2 1883.30 162.319  12
  -7   8  -2 1627.97 159.008  37
  -7   8  -2 1559.38 148.650  35
  -7   8  -2 2201.61 209.419  27
  -7   9   8 1493.56 191.870  22
  -7   9   8 1182.37 191.436  32
  -7   9   8 1625.88 182.478  29
  -7   9   7 4255.50 377.177  22
  -7   9   7 3482.10 313.088  32
  -7   9   7 4195.44 333.123  29
  -7   9   7 3106.59 366.807  10
  -7   9   6 2289.40 311.600  12
  -7   9   6 2228.58 293.028  32
  -7   9   6 2663.09 380.672  10
  -7   9   6 2763.43 331.125  29
  -7   9   6 1938.11 214.118   4
  -7   9   5 389.904 174.088   4
  -7   9   5 398.214 306.550  22
  -7   9   5 355.361 243.833  12
  -7   9   5 229.073 195.224  20
  -7   9   5 505.418 279.060  34
  -7   9   5 149.139 215.359  32
  -7   9   5 267.541 251.647  16
  -7   9   5 395.827 274.316  29
  -7   9   5 222.631 265.640  10
  -7   9   4 9131.49 540.626  12
  -7   9   4 6557.99 429.713  20
  -7   9   4 9674.25 567.468  34
  -7   9   4 5952.04 401.256  32
  -7   9   4 7068.46 526.635  16
  -7   9   4 7338.44 518.740  10
  -7   9   4 9870.57 571.647  29
  -7   9   4 7465.09 419.793   4
  -7   9   3 688.175 193.890   4
  -7   9   3 799.633 274.485  12
  -7   9   3 753.047 222.677  20
  -7   9   3 877.442 379.985  34
  -7   9   3 1054.48 257.073  16
  -7   9   3 947.689 296.938  29
  -7   9   3 739.613 235.478  10
  -7   9   2 9185.97 488.792  20
  -7   9   2 9233.82 453.247   4
  -7   9   1 553.583 153.611   4
  -7   9   1 599.803 237.014  12
  -7   9   1 596.923 195.924  20
  -7   9   1 769.644 305.125  34
  -7   9   0 230.719 110.816   4
  -7   9   0 273.018 195.820  12
  -7   9   0 222.837 155.345  20
  -7   9   0 601.425 225.337  34
  -7   9   0 262.217 277.068  27
  -7   9  -1 3144.23 244.302  12
  -7   9  -1 2900.90 236.647  37
  -7   9  -1 2648.52 226.481  35
  -7   9  -2 109.586 125.417  23
  -7   9  -2 65.6446 85.2754  37
  -7   9  -2 59.7730 82.1486  35
  -7   9  -2 116.221 106.361  27
  -7  10   8 114.885 99.1767  22
  -7  10   8 185.490 108.214  32
  -7  10   8 194.495 111.017  29
  -7  10   7 178.072 192.807  22
  -7  10   7 218.170 176.673  32
  -7  10   7 290.789 173.714  29
  -7  10   7 187.989 222.966  10
  -7  10   6 7334.54 435.056  12
  -7  10   6 6940.43 412.607  32
  -7  10   6 7631.39 534.934  10
  -7  10   5 9824.73 615.075  22
  -7  10   5 7894.15 476.410  12
  -7  10   5 8402.19 486.607  34
  -7  10   5 6370.55 406.320  32
  -7  10   5 7092.30 529.218  16
  -7  10   5 8829.95 577.629  10
  -7  10   5 10095.5 556.191  29
  -7  10   4 5935.38 423.500  12
  -7  10   4 6312.30 481.655  34
  -7  10   4 5078.17 453.715  16
  -7  10   4 5262.45 447.195  10
  -7  10   3 2984.67 329.304  12
  -7  10   3 2866.44 418.658  34
  -7  10   3 2463.98 326.460  16
  -7  10   3 2533.05 302.441  10
  -7  10   2 1179.50 253.176  12
  -7  10   2 1179.13 242.735  16
  -7  10   1 2730.60 291.512  12
  -7  10   1 3006.52 349.786  34
  -7  10   0 469.100 167.309  12
  -7  10   0 654.827 214.277  34
  -7  10   0 688.983 272.559  27
  -7  10  -1 3224.24 206.110  12
  -7  10  -1 2930.52 211.408  35
  -7  11   7 4242.57 267.688  32
  -7  11   7 4274.58 368.594  10
  -7  11   6 1716.01 300.270  22
  -7  11   6 1441.44 214.150  32
  -7  11   6 1976.08 312.430  10
  -7  11   6 2327.31 286.639  29
  -7  11   5 569.663 198.347  12
  -7  11   5 702.513 258.065  34
  -7  11   5 577.150 169.285  32
  -7  11   5 440.336 250.796  16
  -7  11   5 688.295 272.705  29
  -7  11   5 1047.22 288.785  10
  -7  11   4 2880.28 292.989  12
  -7  11   4 3429.63 390.251  34
  -7  11   4 2963.64 365.545  16
  -7  11   4 3104.50 353.443  10
  -7  11   4 3375.30 386.285  29
  -7  11   3 331.300 196.776  12
  -7  11   3 836.031 332.966  34
  -7  11   3 270.459 218.717  16
  -7  11   3 460.844 216.458  10
  -7  11   2 5808.78 372.347  12
  -7  11   2 5888.35 417.392  16
  -7  11   1 8377.40 460.574  34
  -7  11   1 7916.84 480.207  27
  -7  11   0 934.861 193.306  34
  -7  11   0 1029.09 244.677  27
  -7  11  -1 1770.46 153.970  35
  -7  11  -1 3261.21 234.962  27
  -7  12   7 162.003 128.716  22
  -7  12   7-27.8027 164.524  10
  -7  12   6 214.876 197.093  22
  -7  12   6 114.282 103.760  32
  -7  12   6 273.623 215.903  10
  -7  12   5 7678.49 436.276  34
  -7  12   5 6944.80 494.190  16
  -7  12   5 8497.26 515.171  10
  -7  12   4 4059.34 385.784  34
  -7  12   4 3771.92 384.387  16
  -7  12   4 3602.35 357.153  10
  -7  12   3 3752.85 393.264  34
  -7  12   3 2821.90 326.690  16
  -7  12   3 3121.37 307.233  10
  -7  12   2 2630.27 348.503  34
  -7  12   2 2217.89 284.290  16
  -7  12   1 6245.46 397.355  34
  -7  12   1 7122.64 439.887  27
  -7  12   0 248.424 133.364  34
  -7  12   0 371.054 199.592  27
  -7  12  -1 1956.03 151.818  27
  -7  13   6 145.430 163.099  22
  -7  13   6-11.7608 156.712  29
  -7  13   6 31.1575 173.137  10
  -7  13   5 2635.74 308.987  22
  -7  13   5 1901.60 253.811  34
  -7  13   5 1685.34 287.404  16
  -7  13   5 2642.40 300.681  10
  -7  13   5 2365.20 278.895  29
  -7  13   4 1945.92 304.370  34
  -7  13   4 2081.09 276.821  10
  -7  13   4 1652.80 290.425  16
  -7  13   3 1086.55 295.469  34
  -7  13   3 441.734 213.639  16
  -7  13   3 886.612 200.600  10
  -7  13   2 8369.82 468.756  34
  -7  13   2 8849.94 478.413  27
  -7  13   1 685.002 212.110  34
  -7  13   1 403.804 219.588  27
  -7  13   0 697.616 111.439  34
  -7  13   0 1600.58 194.985  27
  -7  14   6 2017.79 195.904  22
  -7  14   6 1829.87 223.173  10
  -7  14   5 256.632 190.581  22
  -7  14   5 71.3131 163.236  34
  -7  14   5 59.2930 178.524  10
  -7  14   4 4110.07 335.768  34
  -7  14   4 4069.99 353.980  16
  -7  14   4 4348.61 336.438  10
  -7  14   3 3607.56 339.147  34
  -7  14   3 3791.17 335.697  16
  -7  14   3 3518.96 276.409  10
  -7  14   2 4511.65 338.618  34
  -7  14   2 4945.01 350.327  27
  -7  14   1 666.070 181.799  34
  -7  14   1 506.196 190.469  27
  -7  14   0 2893.79 176.184  27
  -7  15   5 391.026 142.129  22
  -7  15   5 197.216 124.138  34
  -7  15   5 607.274 165.087  10
  -7  15   4 171.669 165.386  22
  -7  15   4-122.716 188.414  34
  -7  15   4 81.8035 153.833  16
  -7  15   4 61.4138 138.626  10
  -7  15   3 1504.71 245.166  34
  -7  15   3 1315.44 215.153  16
  -7  15   2 1571.88 216.739  34
  -7  15   2 1061.27 179.679  16
  -7  15   2 1403.69 212.234  27
  -7  15   1 604.641 127.876  34
  -7  15   1 893.586 142.360  27
  -7  16   4 246.942 126.886  22
  -7  16   4 341.362 146.368  34
  -7  16   4 346.066 135.242  16
  -7  16   3 231.787 128.427  16
  -7  16   3 594.474 158.550  27
  -7  16   2 2416.11 200.159  34
  -7  16   2 2415.07 180.021  27
   8 -12  -5 374.029 103.815  30
   8 -12  -4 92.7467 121.096  30
   8 -12  -3 1967.31 189.813  30
  -8 -11   6 6137.84 242.305  25
   8 -11  -6 2097.59 152.039  30
  -8 -11   5 610.283 139.254  25
   8 -11  -5 383.527 136.994  30
  -8 -11   4 13528.0 318.778  32
   8 -11  -4 491.713 176.173  30
   8 -11  -2 2096.82 203.084  30
   8 -11  -1 49.5098 82.9801  30
   8 -10  -6 574.319 91.3820  26
  -8 -10   6 1454.47 173.164  25
  -8 -10   5 2245.41 225.909  25
  -8 -10   4 676.590 172.857  25
  -8 -10   4 201.094 149.313  32
  -8 -10   3 17499.6 473.872  34
  -8 -10   3 6625.08 368.283  32
   8 -10  -2 1519.20 202.207  30
   8 -10  -1 224.435 138.607  38
   8 -10  -1 90.2325 107.736  30
  -8  -9   7 2669.79 189.046  25
   8  -9  -6 282.807 100.541  26
  -8  -9   6 575.057 168.420  25
  -8  -9   5 505.877 189.438  25
  -8  -9   5 328.112 163.527  32
  -8  -9   4 1647.76 249.068  25
  -8  -9   4 924.788 207.073  32
  -8  -9   3 4122.35 288.340  34
  -8  -9   3 4655.40 306.673  32
   8  -9  -3 4555.31 339.031  30
  -8  -9   2 18241.6 470.056  32
   8  -9  -2 1092.05 213.068  30
   8  -9  -1 4489.54 260.315  30
   8  -9   0 2129.92 154.045  38
   8  -8  -7 177.072 74.7524  26
   8  -8  -6 1890.96 162.895  26
  -8  -8   6 3127.78 276.982  25
  -8  -8   5 495.880 204.175  25
  -8  -8   5 286.120 183.058  32
  -8  -8   4 133.129 202.536  25
  -8  -8   4 45.1937 176.637  34
  -8  -8   4-197.985 203.239  32
  -8  -8   3 3321.61 264.223  20
  -8  -8   3 2988.59 286.030  34
  -8  -8   3 3173.71 301.358  32
  -8  -8   2 4815.72 315.030  32
   8  -8  -2 3146.21 281.008  30
  -8  -8   1 4309.67 255.260  34
   8  -8  -1 1957.04 202.084  30
  -8  -8   0 81.3656 83.8001  23
   8  -8   0 58.1680 101.739  38
   8  -7  -7 2286.86 161.475  26
  -8  -7   7 4461.50 275.811  25
   8  -7  -6 2641.95 194.403  26
  -8  -7   6 3097.95 389.786  20
  -8  -7   6 3449.79 272.024  32
  -8  -7   6 3872.11 246.859   4
  -8  -7   5 3032.01 315.841  25
  -8  -7   5 2243.35 278.940  32
  -8  -7   5 2549.03 234.917   4
  -8  -7   4 1821.01 286.451  25
  -8  -7   4 1282.69 245.967  34
  -8  -7   4 1690.30 284.147  32
  -8  -7   4 1669.25 222.190   4
  -8  -7   3 408.832 214.106  25
  -8  -7   3 325.870 168.207   4
  -8  -7   3 178.467 194.040  20
  -8  -7   3 138.050 239.807  34
  -8  -7   3 200.961 230.659  32
  -8  -7   2 190.515 146.239   4
  -8  -7   2 400.531 185.864  20
  -8  -7   2 258.076 212.240  32
   8  -7  -2 372.747 184.692  30
  -8  -7   1 1773.34 201.906  20
  -8  -7   1 1399.10 214.969  34
   8  -7  -1 1458.54 187.932  30
   8  -7   0 5890.51 285.605  38
  -8  -6   7 10559.0 421.782  25
  -8  -6   7 8610.85 344.266   4
  -8  -6   6 5809.44 361.797  32
  -8  -6   6 6244.15 346.595   4
  -8  -6   5 494.360 196.712   4
  -8  -6   5 268.861 180.572  34
  -8  -6   5 636.411 250.573  32
  -8  -6   4 1314.15 281.107  25
  -8  -6   4 1482.99 246.622   4
  -8  -6   4 1615.18 285.124  20
  -8  -6   4 1104.84 268.364  34
  -8  -6   4 1250.89 283.773  32
  -8  -6   3 219.523 229.309  25
  -8  -6   3 427.771 193.237   4
  -8  -6   3 422.508 231.379  20
  -8  -6   3 482.177 278.417  34
  -8  -6   3 306.576 254.034  32
  -8  -6   2 3733.70 318.288  20
  -8  -6   2 3350.87 272.544   4
   8  -6  -2 3167.58 288.447  30
  -8  -6   1 3042.20 273.449  20
  -8  -6   1 2841.21 278.372  34
   8  -6  -1 2439.67 223.817  30
  -8  -6   0 1234.62 175.359  23
  -8  -6   0 1608.86 177.541  20
   8  -6   0 1583.04 172.986  38
  -8  -5   8 920.089 110.797  25
  -8  -5   8 769.963 95.6401   4
  -8  -5   7 1422.21 209.396  25
  -8  -5   7 1060.41 184.411  32
  -8  -5   7 1406.34 191.975   4
  -8  -5   6 2246.65 288.511  25
  -8  -5   6 1331.64 200.687  12
  -8  -5   6 2049.50 277.057  32
  -8  -5   6 2187.33 252.966   4
  -8  -5   5 431.787 215.173   4
  -8  -5   5 263.352 197.222  12
  -8  -5   5-92.7806 192.353  34
  -8  -5   5 131.627 240.683  32
  -8  -5   4 4373.02 348.028  12
  -8  -5   4 5345.14 420.815  20
  -8  -5   4 4621.88 386.035  34
  -8  -5   4 5238.84 425.166  32
  -8  -5   4 5371.95 383.560   4
  -8  -5   3 1966.70 307.342  25
  -8  -5   3 1832.82 259.418  12
  -8  -5   3 1865.94 306.049  20
  -8  -5   3 1959.05 325.265  34
  -8  -5   3 2100.02 275.744   4
  -8  -5   2 2878.51 280.677  12
  -8  -5   2 3209.58 328.170  20
  -8  -5   2 3766.70 312.921   4
  -8  -5   1 2840.02 266.169  23
  -8  -5   1 3251.41 264.804  12
  -8  -5   1 4531.68 336.232  20
  -8  -5   1 4163.09 328.351  34
  -8  -5   1 4497.13 293.078   4
   8  -5  -1 3469.01 250.956  30
  -8  -5   0 2337.67 229.048  23
  -8  -5   0 2687.98 238.169  20
   8  -5   0 2518.23 202.058  38
  -8  -5   0 2318.99 195.695  34
  -8  -5  -1 3847.15 208.336  23
  -8  -4   8 508.753 97.5241  25
  -8  -4   8 799.065 120.978   4
  -8  -4   7 2567.98 247.950  25
  -8  -4   7 2121.72 233.917  32
  -8  -4   7 2707.71 252.426   4
  -8  -4   6 5354.95 387.897  25
  -8  -4   6 4335.32 348.621  12
  -8  -4   6 5305.18 393.890  32
  -8  -4   6 5465.96 375.827   4
  -8  -4   5 724.705 250.928  25
  -8  -4   5 493.560 234.920   4
  -8  -4   5 428.834 221.113  12
  -8  -4   5 214.152 207.619  34
  -8  -4   5 297.872 264.576  32
  -8  -4   4 4633.34 380.023  12
  -8  -4   4 4539.61 411.368  20
  -8  -4   4 4484.55 389.625  34
  -8  -4   4 5515.58 448.354  32
  -8  -4   4 5377.52 405.011   4
  -8  -4   3 4168.85 358.644  12
  -8  -4   3 4204.97 399.263  20
  -8  -4   3 4036.69 402.356  34
  -8  -4   3 4485.29 378.450   4
  -8  -4   2 3836.39 332.670  12
  -8  -4   2 4304.72 382.377  20
  -8  -4   2 4027.51 355.700  32
  -8  -4   2 4864.58 359.729   4
  -8  -4   1 3016.70 279.773  23
  -8  -4   1 3759.93 303.768  12
  -8  -4   1 4833.99 358.102  20
  -8  -4   1 4253.58 345.074  34
  -8  -4   1 4759.94 311.458  32
  -8  -4   1 4419.53 310.760   4
   8  -4  -1 2898.00 228.006  30
  -8  -4   0 2295.88 238.754  23
  -8  -4   0 2813.09 229.356  12
   8  -4   0 2188.43 181.473  38
  -8  -4   0 2458.93 215.417  34
  -8  -4  -1 1193.40 145.909  23
  -8  -4  -1 1327.41 139.466  20
  -8  -3   8 2007.09 144.191  25
  -8  -3   8 1239.10 133.493  32
  -8  -3   7 1151.14 197.926  25
  -8  -3   7 1301.03 224.126   4
  -8  -3   7 1205.29 226.078  32
  -8  -3   6 1761.36 264.687  25
  -8  -3   6 1381.57 257.550  12
  -8  -3   6 1545.33 292.811  32
  -8  -3   6 2015.04 282.486   4
  -8  -3   5 3329.49 348.716  25
  -8  -3   5 2688.13 327.496  12
  -8  -3   5 3533.49 474.499  20
  -8  -3   5 2344.28 288.434  34
  -8  -3   5 3178.24 371.565  32
  -8  -3   5 3134.01 340.868   4
  -8  -3   4 8278.58 524.890  25
  -8  -3   4 7500.95 481.533  12
  -8  -3   4 7771.08 527.012  20
  -8  -3   4 6702.12 466.185  34
  -8  -3   4 7992.71 499.426   4
  -8  -3   3 776.819 260.989   4
  -8  -3   3 547.579 247.721  12
  -8  -3   3 681.019 311.804  20
  -8  -3   3 738.751 322.079  34
  -8  -3   2 1369.75 268.934  12
  -8  -3   2 1849.24 317.859  20
  -8  -3   2 1171.45 268.649  32
  -8  -3   2 1782.47 274.674   4
  -8  -3   1 795.483 211.486   4
  -8  -3   1 403.640 193.543  23
  -8  -3   1 623.769 220.004  12
  -8  -3   1 584.635 240.828  20
  -8  -3   1 650.934 253.107  34
  -8  -3   1 594.502 190.111  32
  -8  -3   0 1643.25 231.757  23
  -8  -3   0 2119.38 232.982  12
  -8  -3   0 2543.88 257.922  20
  -8  -3   0 2069.57 216.863  34
  -8  -3  -1 2813.39 211.039  23
  -8  -3  -1 3798.33 222.664  20
  -8  -2   8 3052.08 213.140  32
  -8  -2   8 4200.21 254.415   4
  -8  -2   7 2153.79 222.647  25
  -8  -2   7 1705.77 249.056  12
  -8  -2   7 2090.80 269.632  32
  -8  -2   7 2664.48 274.076   4
  -8  -2   6 593.948 221.059  25
  -8  -2   6 290.909 229.669   4
  -8  -2   6 370.524 230.382  12
  -8  -2   6 461.528 259.070  32
  -8  -2   5 1967.75 299.826  25
  -8  -2   5 1431.22 302.172  12
  -8  -2   5 1399.14 270.784  34
  -8  -2   5 2311.65 360.588  32
  -8  -2   5 2098.93 330.788   4
  -8  -2   4 1744.50 311.720  25
  -8  -2   4 2061.54 334.559  12
  -8  -2   4 1750.43 350.156  20
  -8  -2   4 1759.45 331.552  34
  -8  -2   4 2203.14 330.172   4
  -8  -2   3 420.298 259.577  25
  -8  -2   3 602.752 270.882   4
  -8  -2   3 581.892 265.345  12
  -8  -2   3 565.599 302.277  20
  -8  -2   3 556.699 330.940  34
  -8  -2   3 750.175 292.626  32
  -8  -2   2 8275.41 493.580  12
  -8  -2   2 9065.59 524.537  20
  -8  -2   2 9095.56 500.278   4
  -8  -2   1 966.159 219.290  23
  -8  -2   1 1807.69 281.545  20
  -8  -2   1 1450.77 262.061  12
  -8  -2   1 1554.68 286.815  34
  -8  -2   1 1162.10 214.255  32
  -8  -2   1 1661.34 253.378   4
  -8  -2   0 1678.53 236.307  23
  -8  -2   0 1901.33 234.367  12
  -8  -2   0 2474.17 268.856  20
  -8  -2   0 1607.57 217.026  34
  -8  -2  -1 94.4645 123.915  23
  -8  -2  -1 19.4719 101.679  12
  -8  -2  -1 135.603 119.797  20
  -8  -1   8 218.360 140.511   4
  -8  -1   8 59.4911 135.384  32
  -8  -1   7 3875.92 269.028  25
  -8  -1   7 3225.26 267.112  22
  -8  -1   7 3480.59 325.988  12
  -8  -1   7 2942.43 497.275  20
  -8  -1   7 3855.28 334.107  32
  -8  -1   6 1654.22 251.830  25
  -8  -1   6 1730.68 293.875   4
  -8  -1   6 1571.59 299.349  12
  -8  -1   6 1596.80 304.271  32
  -8  -1   5 866.824 253.817  25
  -8  -1   5 1204.66 296.036   4
  -8  -1   5 798.025 287.604  12
  -8  -1   5 576.316 254.818  34
  -8  -1   4 6019.99 444.506  25
  -8  -1   4 5593.51 457.898  12
  -8  -1   4 6147.97 493.454  20
  -8  -1   4 5112.25 439.035  34
  -8  -1   4 5430.48 456.165  32
  -8  -1   4 5835.45 461.256   4
  -8  -1   3 12854.1 653.676  12
  -8  -1   3 12801.9 665.684  20
  -8  -1   3 12475.9 653.597  34
  -8  -1   3 11767.1 616.187  32
  -8  -1   3 14055.5 668.912   4
  -8  -1   2 1736.78 243.814  23
  -8  -1   2 2966.77 352.288  12
  -8  -1   2 3257.03 371.212  20
  -8  -1   2 2151.90 294.673  32
  -8  -1   2 3075.99 336.704   4
  -8  -1   1 633.378 226.355   4
  -8  -1   1 312.509 200.968  23
  -8  -1   1 489.298 237.550  12
  -8  -1   1 556.458 251.665  20
  -8  -1   1 642.550 261.872  34
  -8  -1   1 600.633 192.568  32
  -8  -1   1 690.470 213.009  27
  -8  -1   0 2062.31 256.548  23
  -8  -1   0 2517.49 270.523  12
  -8  -1   0 2329.56 234.812  34
  -8  -1   0 2286.09 238.038  27
  -8  -1  -1 145.708 132.357  23
  -8  -1  -1 270.082 127.697  12
  -8  -1  -1 262.890 130.957  20
  -8   0   8 1017.18 183.526   4
  -8   0   8 750.837 142.089  22
  -8   0   8 1213.87 181.443  32
  -8   0   7 441.409 138.621  25
  -8   0   7 135.270 207.101   4
  -8   0   7 489.902 180.983  22
  -8   0   7 382.753 225.408  12
  -8   0   7-268.563 449.225  20
  -8   0   7 613.615 243.407  32
  -8   0   6 396.058 188.912  25
  -8   0   6 422.284 197.255  22
  -8   0   6 557.930 267.375  12
  -8   0   6 339.304 260.978  32
  -8   0   5 1021.44 248.501  25
  -8   0   5 975.002 307.289  12
  -8   0   5 896.828 268.803  34
  -8   0   4 1276.84 271.207  25
  -8   0   4 937.813 297.784  12
  -8   0   4 1007.23 341.889  20
  -8   0   4 893.949 322.135  34
  -8   0   4 1319.67 329.626  32
  -8   0   3 773.042 304.734  12
  -8   0   3 750.020 314.645  20
  -8   0   3 760.047 338.136  34
  -8   0   3 443.233 273.733  32
  -8   0   2 373.593 198.219  23
  -8   0   2 767.518 283.411  12
  -8   0   2 499.178 309.287  20
  -8   0   2 494.764 234.170  32
  -8   0   2 587.226 224.846  27
  -8   0   1 5289.56 387.483  23
  -8   0   1 7373.46 458.397  12
  -8   0   1 7336.84 463.784  20
  -8   0   1 6680.69 425.336  34
  -8   0   1 4946.57 325.141  32
  -8   0   0 2034.44 264.426  23
  -8   0   0 2089.12 260.459  12
  -8   0   0 2961.90 294.434  20
  -8   0   0 2234.67 227.675  34
  -8   0   0 2510.89 263.937  27
  -8   0  -1 491.282 149.533  23
  -8   0  -1 518.668 147.388  12
  -8   0  -1 676.570 161.268  20
  -8   1   8 236.323 125.431  22
  -8   1   8 93.9756 141.350  32
  -8   1   7 2931.50 201.999  25
  -8   1   7 3438.84 299.708  22
  -8   1   7 3696.13 340.921  12
  -8   1   7 4108.01 344.967  32
  -8   1   6 1696.93 223.068  25
  -8   1   6 1934.00 265.261  22
  -8   1   6 1897.92 329.577  12
  -8   1   5 623.588 213.900  25
  -8   1   5 537.644 207.909  22
  -8   1   5 1131.26 321.058  12
  -8   1   5 657.026 263.087  34
  -8   1   5 623.118 305.622  32
  -8   1   4 5332.10 409.519  25
  -8   1   4 5180.07 465.806  12
  -8   1   4 5011.71 444.156  34
  -8   1   4 5390.76 443.974  32
  -8   1   3 12810.8 663.949  12
  -8   1   3 12081.1 640.256  34
  -8   1   3 11279.3 581.836  32
  -8   1   3 10467.4 509.698  27
  -8   1   2 3334.60 380.612  12
  -8   1   2 2466.33 290.179  32
  -8   1   2 2746.77 304.701  27
  -8   1   1 430.743 210.036  23
  -8   1   1 789.211 250.129  12
  -8   1   1 644.357 262.626  34
  -8   1   1 545.753 164.655  32
  -8   1   1 838.272 239.507  27
  -8   1   0 2483.83 275.564  23
  -8   1   0 2670.41 284.410  12
  -8   1   0 2583.18 236.676  34
  -8   1   0 2429.62 266.516  27
  -8   1  -1 406.867 142.687  23
  -8   1  -1 374.079 137.360  12
  -8   2   8 3282.18 239.933  22
  -8   2   8 3584.20 258.730  32
  -8   2   7 1812.50 249.149  22
  -8   2   7 1607.38 273.586  12
  -8   2   7 1983.35 280.366  32
  -8   2   7 2170.93 264.098   4
  -8   2   6 408.309 154.545  25
  -8   2   6 310.168 232.325   4
  -8   2   6 498.809 216.443  22
  -8   2   6 368.025 279.577  12
  -8   2   5 1660.93 246.913  25
  -8   2   5 1659.49 268.010  22
  -8   2   5 2038.55 361.234  12
  -8   2   5 1311.79 285.776  34
  -8   2   5 1908.07 324.858  32
  -8   2   5 2182.29 330.991   4
  -8   2   4 1922.66 361.539  12
  -8   2   4 2240.30 375.544  20
  -8   2   4 1376.71 345.335  34
  -8   2   4 1838.17 324.300  32
  -8   2   4 2356.34 341.484   4
  -8   2   3 543.350 263.364   4
  -8   2   3 226.807 294.759  12
  -8   2   3 557.503 310.723  20
  -8   2   3 569.009 340.347  34
  -8   2   3 781.305 254.156  32
  -8   2   3 544.802 224.224  27
  -8   2   2 9287.70 548.610  12
  -8   2   2 9465.06 540.517  20
  -8   2   2 9049.21 502.527   4
  -8   2   2 7956.63 460.490  27
  -8   2   1 937.695 241.249  23
  -8   2   1 1794.50 289.189  20
  -8   2   1 1418.91 285.873  12
  -8   2   1 1344.69 280.952  34
  -8   2   1 1012.31 155.982  32
  -8   2   1 1608.94 253.172   4
  -8   2   1 1613.21 273.141  27
  -8   2   0 1684.59 256.708  23
  -8   2   0 1846.18 257.421  12
  -8   2   0 2160.91 255.786  20
  -8   2   0 1660.27 205.504  34
  -8   2   0 2120.64 260.062  27
  -8   2  -1 75.9020 124.657  23
  -8   2  -1 117.398 130.111  12
  -8   2  -1 75.1610 122.327  20
  -8   3   8 2319.25 207.003  22
  -8   3   8 2743.92 226.445  32
  -8   3   8 3092.02 213.997   4
  -8   3   7 1290.53 226.699   4
  -8   3   7 1048.74 220.004  22
  -8   3   7 1137.27 254.883  12
  -8   3   6 1813.26 283.620  22
  -8   3   6 1903.01 328.662  12
  -8   3   6 1419.88 299.384  32
  -8   3   6 1903.30 285.035   4
  -8   3   5 2758.45 317.818  22
  -8   3   5 3579.75 416.395  12
  -8   3   5 2376.91 317.147  34
  -8   3   5 2603.05 354.157  32
  -8   3   5 3335.19 347.084   4
  -8   3   4 6849.85 440.816  22
  -8   3   4 7022.05 527.505  12
  -8   3   4 8314.07 530.302  20
  -8   3   4 7140.81 502.748  34
  -8   3   4 7105.02 467.296  32
  -8   3   4 7772.81 493.034   4
  -8   3   4 6782.99 407.665  27
  -8   3   3 795.301 278.116   4
  -8   3   3 616.960 289.894  20
  -8   3   3 892.954 338.928  34
  -8   3   3 513.926 236.458  32
  -8   3   3 582.573 242.117  27
  -8   3   2 2079.82 329.475  20
  -8   3   2 1156.30 216.915  32
  -8   3   2 1778.89 274.351   4
  -8   3   2 1760.83 299.225  27
  -8   3   1 594.311 208.401   4
  -8   3   1 505.834 220.929  23
  -8   3   1 845.631 248.306  20
  -8   3   1 442.639 246.215  34
  -8   3   1 600.808 254.062  27
  -8   3   0 1857.83 252.585  23
  -8   3   0 2575.72 260.661  20
  -8   3   0 1980.88 209.775  34
  -8   3   0 2233.11 271.758  27
  -8   3  -1 2646.68 218.383  23
  -8   3  -1 3761.51 226.262  20
  -8   4   8 746.230 122.849   4
  -8   4   8 735.434 143.619  22
  -8   4   7 2000.82 256.957  22
  -8   4   7 2352.47 241.717   4
  -8   4   6 5574.78 411.473  22
  -8   4   6 5133.38 404.678  32
  -8   4   6 4933.60 326.624  29
  -8   4   6 5456.06 384.200   4
  -8   4   5 688.814 246.080   4
  -8   4   5 347.076 223.569  22
  -8   4   5 925.746 376.098  20
  -8   4   5 301.561 247.774  34
  -8   4   5 632.534 269.123  32
  -8   4   5 319.723 183.746  29
  -8   4   4 5064.55 391.803  22
  -8   4   4 5095.22 438.017  20
  -8   4   4 4719.04 431.591  34
  -8   4   4 3687.84 355.401  32
  -8   4   4 4853.19 362.420  27
  -8   4   3 4289.11 405.641  20
  -8   4   3 4661.24 439.878  34
  -8   4   3 3507.94 317.879  32
  -8   4   3 4625.26 376.737  27
  -8   4   2 2811.97 297.944  23
  -8   4   2 4528.86 391.798  20
  -8   4   2 2789.22 249.737  32
  -8   4   2 4353.97 343.876   4
  -8   4   2 4847.22 389.393  27
  -8   4   1 3592.27 331.183  23
  -8   4   1 4665.89 357.785  20
  -8   4   1 4604.53 362.681  34
  -8   4   1 4405.40 320.547   4
  -8   4   1 4847.31 375.617  27
  -8   4   0 2809.41 280.271  23
  -8   4   0 3110.62 268.893  20
  -8   4   0 2465.68 210.589  34
  -8   4  -1 1281.59 162.619  23
  -8   4  -1 1511.07 160.385  12
  -8   4  -1 1482.51 145.337  20
  -8   5   8 575.428 91.2507   4
  -8   5   8 684.425 132.440  22
  -8   5   7 1191.53 223.130  22
  -8   5   7 1069.34 231.562  12
  -8   5   7 1049.00 221.234  32
  -8   5   7 1286.48 166.883  29
  -8   5   7 1299.13 191.339   4
  -8   5   6 2132.84 290.330  22
  -8   5   6 2314.44 322.925  12
  -8   5   6 3241.16 374.984  20
  -8   5   6 1952.67 285.484  32
  -8   5   6 2318.15 246.723  29
  -8   5   6 2421.94 266.441   4
  -8   5   5 471.713 209.826   4
  -8   5   5 442.215 229.036  22
  -8   5   5 462.157 291.695  12
  -8   5   5 641.451 252.835  34
  -8   5   5 102.139 220.144  32
  -8   5   5 365.828 188.511  29
  -8   5   5 629.632 206.195  27
  -8   5   4 5167.00 403.016  22
  -8   5   4 5390.32 449.862  12
  -8   5   4 4856.21 407.695  20
  -8   5   4 4630.11 420.488  34
  -8   5   4 3814.06 343.256  32
  -8   5   4 5021.50 378.011   4
  -8   5   4 4986.00 377.422  27
  -8   5   3 1588.93 248.721  22
  -8   5   3 2063.05 332.426  12
  -8   5   3 1615.10 296.641  20
  -8   5   3 2122.30 358.847  34
  -8   5   3 1369.79 219.283  32
  -8   5   3 1776.95 268.232   4
  -8   5   3 1986.11 311.072  27
  -8   5   2 3832.45 375.901  12
  -8   5   2 3419.31 339.198  20
  -8   5   2 3697.50 382.151  34
  -8   5   2 3577.96 303.025   4
  -8   5   2 4468.03 370.635  27
  -8   5   1 3389.58 315.415  23
  -8   5   1 3998.86 350.861  12
  -8   5   1 4175.44 330.173  20
  -8   5   1 4427.00 341.487  34
  -8   5   1 4478.38 299.080   4
  -8   5   1 4257.87 358.060  27
  -8   5   0 2175.58 247.889  23
  -8   5   0 2620.60 255.467  12
  -8   5   0 2593.75 237.398  20
  -8   5   0 1861.67 177.036  34
  -8   5   0 3223.71 283.487  27
  -8   5  -1 3885.57 235.600  23
  -8   5  -1 5282.75 246.742  12
  -8   6   7 9796.66 466.715  22
  -8   6   7 8590.35 440.566  12
  -8   6   7 8378.95 419.384  32
  -8   6   7 10038.8 400.481  29
  -8   6   7 8722.31 372.698   4
  -8   6   6 6495.54 429.702  22
  -8   6   6 6037.38 421.030  12
  -8   6   6 5762.00 410.771  20
  -8   6   6 5811.14 379.469  32
  -8   6   6 6342.18 367.387  29
  -8   6   6 6401.62 360.342   4
  -8   6   5 301.647 192.756   4
  -8   6   5 537.417 244.135  22
  -8   6   5 681.346 266.682  12
  -8   6   5 387.739 236.503  34
  -8   6   5 385.461 220.152  32
  -8   6   5 464.911 209.573  29
  -8   6   4 1071.18 228.775   4
  -8   6   4 1322.97 268.674  22
  -8   6   4 1360.76 296.889  12
  -8   6   4 1450.27 273.875  20
  -8   6   4 1032.53 306.236  34
  -8   6   4 976.157 225.786  32
  -8   6   4 1213.40 271.408  27
  -8   6   3 274.405 188.825   4
  -8   6   3 560.875 202.170  22
  -8   6   3 62.9387 246.338  12
  -8   6   3 348.300 232.884  20
  -8   6   3 801.041 320.343  34
  -8   6   3 275.970 152.037  32
  -8   6   3 374.816 255.445  27
  -8   6   2 2598.03 277.753  23
  -8   6   2 3952.76 363.162  12
  -8   6   2 3512.36 320.940  20
  -8   6   2 4026.68 380.440  34
  -8   6   2 3631.01 283.096   4
  -8   6   2 3965.57 361.694  27
  -8   6   1 2148.06 268.673  23
  -8   6   1 3180.77 306.996  12
  -8   6   1 2505.18 259.333  20
  -8   6   1 3077.77 287.178  34
  -8   6   1 2922.58 241.451   4
  -8   6   1 3501.91 320.885  27
  -8   6   0 1365.75 219.037  23
  -8   6   0 1748.95 212.927  12
  -8   6   0 1789.38 181.797  20
  -8   6   0 1874.98 232.992  27
  -8   7   7 4391.74 299.996  22
  -8   7   7 4123.06 244.335  29
  -8   7   6 4389.00 351.698  22
  -8   7   6 4078.13 337.026  12
  -8   7   6 3470.97 282.863  32
  -8   7   6 4362.41 306.723  29
  -8   7   6 3836.19 255.910   4
  -8   7   5 2521.32 314.294  22
  -8   7   5 2361.35 304.349  12
  -8   7   5 2131.61 286.348  34
  -8   7   5 2038.21 254.913  32
  -8   7   5 2557.89 279.561  29
  -8   7   5 2754.21 249.746   4
  -8   7   4 1521.29 272.545  22
  -8   7   4 1600.45 290.799  12
  -8   7   4 1686.97 274.902  20
  -8   7   4 1476.71 301.012  34
  -8   7   4 1294.08 205.105  32
  -8   7   4 1583.17 217.134   4
  -8   7   4 2027.95 294.620  27
  -8   7   3 126.766 160.191   4
  -8   7   3 205.592 196.989  22
  -8   7   3 149.678 220.619  12
  -8   7   3 202.130 202.635  20
  -8   7   3 550.061 292.246  34
  -8   7   3 342.738 249.369  27
  -8   7   2 360.375 148.792   4
  -8   7   2 352.822 177.297  23
  -8   7   2 351.112 217.000  12
  -8   7   2 339.890 184.051  20
  -8   7   2 245.656 256.925  34
  -8   7   2 386.210 255.983  27
  -8   7   1 1668.24 235.911  23
  -8   7   1 1476.89 227.294  12
  -8   7   1 1435.66 195.969  20
  -8   7   1 1961.94 251.648  34
  -8   7   1 1438.71 164.983   4
  -8   7   1 2071.79 273.077  27
  -8   7   0 5361.76 308.592  23
  -8   7   0 5591.52 289.569  12
  -8   8   7 395.622 151.533  22
  -8   8   7 78.9894 116.467  32
  -8   8   7 232.525 116.313  29
  -8   8   6 2890.21 291.729  22
  -8   8   6 2157.09 248.557  12
  -8   8   6 1877.25 216.371  32
  -8   8   6 2831.75 257.393  29
  -8   8   6 1751.08 153.112   4
  -8   8   5 349.775 128.579   4
  -8   8   5 340.856 211.304  22
  -8   8   5 561.603 217.196  12
  -8   8   5 446.752 219.291  34
  -8   8   5 470.203 165.634  32
  -8   8   4-95.6427 129.708   4
  -8   8   4-8.71999 198.103  22
  -8   8   4 76.1241 202.554  12
  -8   8   4 758.960 232.813  20
  -8   8   4-49.2914 246.145  34
  -8   8   4 201.384 233.163  27
  -8   8   3 3212.15 312.726  22
  -8   8   3 3013.17 308.639  12
  -8   8   3 2619.92 252.770  20
  -8   8   3 3959.32 366.578  34
  -8   8   3 3051.78 229.315   4
  -8   8   3 3889.50 358.661  27
  -8   8   2 1853.90 230.109  23
  -8   8   2 3235.31 288.464  12
  -8   8   2 2527.62 225.322  20
  -8   8   2 3372.80 328.551  34
  -8   8   2 2677.26 198.049   4
  -8   8   2 3618.84 324.631  27
  -8   8   1 1828.51 231.865  23
  -8   8   1 1969.39 221.435  12
  -8   8   1 2400.72 235.161  34
  -8   8   1 2046.96 143.050   4
  -8   8   1 2651.05 276.464  27
  -8   8   0 69.9294 125.772  23
  -8   8   0 3.46253 87.8717  12
  -8   9   7 1962.82 187.223  22
  -8   9   7 2161.56 164.375  29
  -8   9   6 366.868 183.085  22
  -8   9   6 170.052 138.666  12
  -8   9   6 143.163 104.294  32
  -8   9   6 461.192 159.244  29
  -8   9   5 435.244 221.544  22
  -8   9   5 246.552 176.457  12
  -8   9   5 308.119 202.961  34
  -8   9   4 1388.54 253.763  22
  -8   9   4 1248.78 215.000  12
  -8   9   4 1460.40 272.710  34
  -8   9   4 1556.95 263.513  27
  -8   9   3 4393.28 346.630  22
  -8   9   3 4173.76 310.610  12
  -8   9   3 4870.18 376.148  34
  -8   9   2 1203.56 197.812  12
  -8   9   2 1461.63 251.391  34
  -8   9   2 1842.05 264.426  27
  -8   9   1 3642.20 262.774  23
  -8   9   1 3440.37 228.172  12
  -8   9   0 1661.02 158.869  23
  -8  10   6 1261.22 193.117  22
  -8  10   5 1386.64 175.470  12
  -8  10   5 1629.60 216.039  34
  -8  10   4 739.532 214.747  22
  -8  10   4 363.217 152.277  12
  -8  10   4 481.170 221.851  34
  -8  10   4 814.589 228.782  27
  -8  10   3 781.300 204.736  22
  -8  10   3 660.444 155.359  12
  -8  10   3 941.832 233.822  27
  -8  10   2 931.628 145.968  12
  -8  10   2 1714.57 234.540  34
  -8  10   2 1664.88 242.979  27
  -8  10   1 154.117 120.281  23
  -8  10   1 171.138 115.099  34
  -8  11   6 5968.27 294.907  22
  -8  11   6 3905.12 199.935  27
  -8  11   5 622.243 179.030  22
  -8  11   5 391.863 139.083  34
  -8  11   4 986.348 205.074  22
  -8  11   4 768.941 207.255  34
  -8  11   4 1092.84 209.749  27
  -8  11   3 213.695 167.380  22
  -8  11   3 442.973 190.359  27
  -8  11   2 1786.39 218.390  34
  -8  11   1 33.2451 82.6189  23
  -8  12   5 808.117 154.171  22
  -8  12   5 445.670 111.489  34
  -8  12   5 973.249 148.315  27
  -8  12   4 164.626 139.332  22
  -8  12   4 95.4325 156.164  34
  -8  12   4 162.407 160.369  27
  -8  12   3 1918.02 205.317  22
  -8  12   3 2719.30 233.926  27
  -8  12   2 406.326 128.605  34
  -9  -6   5 1312.79 135.926  32
  -9  -6   4 539.542 117.380  32
   9  -6  -4 403.873 104.228  30
  -9  -6   3 1415.91 135.813  34
  -9  -5   5 303.618 89.8198   4
  -9  -5   5 205.741 117.935  32
  -9  -5   4 2370.87 177.721  34
  -9  -5   4 2958.73 210.561  32
  -9  -5   4 2747.55 173.210   4
  -9  -5   3 344.708 92.3001   4
  -9  -5   3 96.2620 117.253  34
  -9  -4   5 730.206 156.735  32
  -9  -4   5 1198.64 149.812   4
  -9  -4   4 321.579 277.935  20
  -9  -4   4 540.585 152.758  34
  -9  -4   4 976.947 142.572   4
   9  -4  -4 527.541 112.852  30
  -9  -4   3 723.548 126.310   4
  -9  -4   3 633.360 153.997  34
  -9  -4   3 1050.36 147.934  32
  -9  -4   2 3630.35 184.483   4
  -9  -3   6 486.551 113.556   4
  -9  -3   6 599.446 235.788  20
  -9  -3   6 251.453 117.863  32
  -9  -3   5 1330.59 193.075  32
  -9  -3   5 1627.46 181.179   4
  -9  -3   4 2420.77 194.866  12
  -9  -3   4 2459.40 223.143  34
  -9  -3   3 406.104 134.494   4
  -9  -3   3 265.107 107.697  12
  -9  -3   3 665.121 170.176  20
  -9  -3   3 276.255 162.995  34
  -9  -3   3 174.664 125.043  32
  -9  -3   2 683.252 135.709  20
  -9  -3   2 549.063 136.158  34
  -9  -2   6 534.157 132.384   4
  -9  -2   6 399.177 144.277  32
  -9  -2   5 1636.39 185.480  12
  -9  -2   5 1977.81 200.007   4
  -9  -2   4 1855.08 201.201  12
  -9  -2   4 2129.14 222.123  34
  -9  -2   4 2025.42 216.441  32
  -9  -2   4 2557.78 221.059   4
  -9  -2   3 785.337 156.279   4
  -9  -2   3 870.843 154.334  12
  -9  -2   3 993.918 194.304  20
  -9  -2   3 530.296 180.404  34
  -9  -2   3 605.451 153.632  32
  -9  -2   2 400.819 107.336  12
  -9  -2   2 618.485 143.121  20
  -9  -2   2 345.120 139.413  34
  -9  -1   6 239.334 125.506   4
  -9  -1   6 295.157 122.079  12
  -9  -1   5 1006.81 179.710   4
  -9  -1   5 1061.64 180.470  12
  -9  -1   4 1450.32 201.241  12
  -9  -1   4 1200.49 203.178  34
  -9  -1   4 1022.65 187.954  32
  -9  -1   4 1521.36 201.320   4
  -9  -1   3 704.640 157.995   4
  -9  -1   3 530.495 161.236  12
  -9  -1   3 782.335 192.405  20
  -9  -1   3 574.450 183.331  34
  -9  -1   3 450.744 139.330  32
  -9  -1   2 4406.55 265.033  20
  -9  -1   2 4143.35 247.573  34
  -9   0   6 1692.24 295.582  20
  -9   0   6 148.492 131.967  12
  -9   0   5 2970.26 260.711  12
  -9   0   5 3333.19 253.338  32
  -9   0   4 6900.69 371.573  12
  -9   0   4 6287.46 337.451  34
  -9   0   4 5921.37 328.002  32
  -9   0   3 1714.73 214.128  12
  -9   0   3 1583.22 229.131  20
  -9   0   3 1487.53 218.386  34
  -9   0   3 1255.84 168.008  32
  -9   0   2 1476.86 172.975  12
  -9   0   2 1334.89 178.911  34
  -9   1   6 296.454 136.183  12
  -9   1   6 361.520 146.592  32
  -9   1   5 957.622 199.342  12
  -9   1   5 542.525 148.871  34
  -9   1   5 743.918 180.274  32
  -9   1   4 1396.79 214.953  12
  -9   1   4 1179.18 213.397  34
  -9   1   4 733.275 175.345  32
  -9   1   3 501.855 186.560  34
  -9   1   3 313.903 115.896  32
  -9   1   2 4322.94 262.799  12
  -9   1   2 4742.52 258.025  34
  -9   2   6 533.669 129.851   4
  -9   2   6 400.373 144.462  12
  -9   2   6 220.576 182.807  20
  -9   2   6 522.530 133.588  32
  -9   2   5 1641.47 219.456  12
  -9   2   5 1524.99 188.865  32
  -9   2   5 1986.87 205.882   4
  -9   2   4 2675.82 259.274  12
  -9   2   4 2074.74 232.337  34
  -9   2   4 1784.49 189.981  32
  -9   2   4 2560.32 224.554   4
  -9   2   3 816.790 156.979   4
  -9   2   3 942.235 189.218  12
  -9   2   3 1145.72 200.083  20
  -9   2   3 922.944 196.412  34
  -9   2   3 354.074 96.0656  32
  -9   2   2 749.281 151.151  12
  -9   2   2 734.490 149.834  20
  -9   2   2 374.876 134.518  34
  -9   3   6 400.613 111.029   4
  -9   3   6 292.460 135.232  12
  -9   3   6 418.301 125.436  32
  -9   3   5 1776.46 217.394  12
  -9   3   5 1064.18 160.342  34
  -9   3   5 1315.08 165.007  32
  -9   3   5 1718.59 184.837   4
  -9   3   4 3557.76 277.366  12
  -9   3   4 4175.50 305.971  20
  -9   3   4 2817.48 248.947  34
  -9   3   4 2084.45 177.495  32
  -9   3   4 3333.71 229.685   4
  -9   3   3 409.202 134.208   4
  -9   3   3 359.510 165.817  12
  -9   3   3 426.331 164.947  20
  -9   3   3 348.989 172.853  34
  -9   3   2 945.195 157.736  12
  -9   3   2 640.513 132.540  20
  -9   3   2 713.736 144.044  34
  -9   4   5 674.948 127.654  34
  -9   4   5 584.354 118.252  32
  -9   4   5 969.762 140.028   4
  -9   4   4 970.054 195.879  34
  -9   4   4 1169.71 150.905   4
  -9   4   3 1095.48 164.215  20
  -9   4   3 799.900 126.806   4
  -9   4   2 1207.43 148.757  34
  -9   4   2 1821.44 135.550   4
  -9   5   5 290.686 91.0818   4
  -9   5   5 313.292 138.745  12
  -9   5   5 220.137 103.015  34
  -9   5   4 3302.64 243.622  12
  -9   5   4 3245.42 227.030  20
  -9   5   4 2756.99 229.767  34
  -9   5   4 2488.64 169.739   4
  -9   5   3 201.562 86.0968   4
  -9   5   3 171.938 127.684  12
  -9   5   3 104.119 131.205  20
  -9   6   5 1297.63 152.905  12
  -9   6   4 626.886 133.691  12
  -9   6   4 612.322 149.340  34
  -9   6   3 747.179 128.776  12
   0   0   0    0.00    0.00   0
 
TITL MLC_LIT_DA2 in P2(1)
REM P2(1) (#4 in standard setting)
CELL 1.54184   7.473577  20.016314   8.261616  90.0000 113.3448  90.0000
ZERR    2.00   0.000111   0.000223   0.000121   0.0000   0.0017   0.0000
LATT -1
SYMM -x, y+1/2,-z
SFAC C H O
UNIT 48.00 64.00 16.00
TREF
HKLF 4
END
;
_shelx_hkl_checksum              76339
loop_
_space_group_symop_operation_xyz
'x, y, z'
'-x, y+1/2, -z'
loop_
_atom_site_label
_atom_site_type_symbol
_atom_site_fract_x
_atom_site_fract_y
_atom_site_fract_z
_atom_site_U_iso_or_equiv
_atom_site_adp_type
_atom_site_occupancy
_atom_site_site_symmetry_order
_atom_site_calc_flag
_atom_site_refinement_flags_posn
_atom_site_refinement_flags_adp
_atom_site_refinement_flags_occupancy
_atom_site_disorder_assembly
_atom_site_disorder_group
C1 C 1.1350(5) 0.27722(18) 1.0359(5) 0.0505(8) Uani 1 1 d . . . . .
H1A H 1.0926 0.2343 0.9758 0.076 Uiso 1 1 calc R U . . .
H1B H 1.2287 0.2694 1.1570 0.076 Uiso 1 1 calc R U . . .
H1C H 1.1968 0.3038 0.9727 0.076 Uiso 1 1 calc R U . . .
C2 C 0.8252(4) 0.32412(12) 0.8809(4) 0.0343(5) Uani 1 1 d . . . . .
C3 C 0.6577(3) 0.36177(12) 0.8978(3) 0.0306(5) Uani 1 1 d . . . . .
H3 H 0.6187 0.3357 0.9818 0.037 Uiso 1 1 calc R U . . .
C4 C 0.4803(4) 0.36182(12) 0.7207(3) 0.0302(5) Uani 1 1 d . . . . .
H4 H 0.5261 0.3490 0.6265 0.036 Uiso 1 1 calc R U . . .
C5 C 0.1816(4) 0.30550(13) 0.5816(4) 0.0388(6) Uani 1 1 d . . . . .
H5A H 0.0987 0.2690 0.5942 0.047 Uiso 1 1 calc R U . . .
H5B H 0.2124 0.2956 0.4781 0.047 Uiso 1 1 calc R U . . .
C6 C 0.0745(4) 0.37072(13) 0.5543(4) 0.0417(6) Uani 1 1 d . . . . .
H6A H -0.0479 0.3679 0.4473 0.050 Uiso 1 1 calc R U . . .
H6B H 0.0400 0.3797 0.6563 0.050 Uiso 1 1 calc R U . . .
C7 C 0.3756(3) 0.42794(12) 0.6698(3) 0.0282(4) Uani 1 1 d . . . . .
C8 C 0.4544(3) 0.48733(11) 0.7300(3) 0.0268(4) Uani 1 1 d . . . . .
C9 C 0.6680(3) 0.49088(12) 0.8551(3) 0.0286(5) Uani 1 1 d . . . . .
C10 C 0.7974(4) 0.49491(13) 0.7506(4) 0.0350(5) Uani 1 1 d . . . . .
H10A H 0.7776 0.4550 0.6769 0.052 Uiso 1 1 calc R U . . .
H10B H 0.9344 0.4976 0.8325 0.052 Uiso 1 1 calc R U . . .
H10C H 0.7629 0.5347 0.6755 0.052 Uiso 1 1 calc R U . . .
C11 C 0.7231(3) 0.43093(12) 0.9820(3) 0.0310(5) Uani 1 1 d . . . . .
H11 H 0.8686 0.4300 1.0406 0.037 Uiso 1 1 calc R U . . .
C12 C 0.6487(4) 0.45089(13) 1.1226(3) 0.0346(5) Uani 1 1 d . . . . .
H12 H 0.7366 0.4319 1.2391 0.042 Uiso 1 1 calc R U . . .
C13 C 0.3910(6) 0.43856(17) 1.2158(5) 0.0518(8) Uani 1 1 d . . . . .
H13A H 0.4862 0.4206 1.3269 0.078 Uiso 1 1 calc R U . . .
H13B H 0.2657 0.4158 1.1858 0.078 Uiso 1 1 calc R U . . .
H13C H 0.3744 0.4866 1.2290 0.078 Uiso 1 1 calc R U . . .
C14 C 0.7079(3) 0.54786(12) 0.9892(3) 0.0317(5) Uani 1 1 d . . . . .
H14 H 0.8505 0.5581 1.0384 0.038 Uiso 1 1 calc R U . . .
C15 C 0.5967(4) 0.61204(12) 0.9216(3) 0.0307(5) Uani 1 1 d . . . . .
H15A H 0.6441 0.6335 0.8380 0.037 Uiso 1 1 calc R U . . .
H15B H 0.6218 0.6430 1.0216 0.037 Uiso 1 1 calc R U . . .
C16 C 0.3780(3) 0.59967(11) 0.8292(3) 0.0284(5) Uani 1 1 d . . . . .
H16 H 0.3378 0.5766 0.9169 0.034 Uiso 1 1 calc R U . . .
C17 C 0.2557(4) 0.66266(12) 0.7742(3) 0.0306(5) Uani 1 1 d . . . . .
C18 C 0.3275(4) 0.72214(14) 0.7649(4) 0.0402(6) Uani 1 1 d . . . . .
H18A H 0.2438 0.7599 0.7305 0.048 Uiso 1 1 calc R U . . .
H18B H 0.4628 0.7272 0.7926 0.048 Uiso 1 1 calc R U . . .
C19 C 0.0425(4) 0.65353(13) 0.7312(4) 0.0378(6) Uani 1 1 d . . . . .
H19A H -0.0221 0.6972 0.7088 0.057 Uiso 1 1 calc R U . . .
H19B H 0.0255 0.6320 0.8306 0.057 Uiso 1 1 calc R U . . .
H19C H -0.0153 0.6255 0.6259 0.057 Uiso 1 1 calc R U . . .
C20 C 0.3313(3) 0.55054(11) 0.6715(3) 0.0275(5) Uani 1 1 d . . . . .
H20 H 0.1933 0.5361 0.6389 0.033 Uiso 1 1 calc R U . . .
C21 C 0.3356(3) 0.58447(11) 0.5098(3) 0.0293(5) Uani 1 1 d . . . . .
C22 C 0.1802(4) 0.58714(13) 0.3584(3) 0.0354(5) Uani 1 1 d . . . . .
H22 H 0.0654 0.5649 0.3523 0.042 Uiso 1 1 calc R U . . .
C23A C 0.3342(18) 0.6660(5) 0.2461(15) 0.044(2) Uani 0.488(11) 1 d . . P A 1
H23A H 0.3119 0.7063 0.3051 0.053 Uiso 0.488(11) 1 calc R U P A 1
H23B H 0.3424 0.6801 0.1344 0.053 Uiso 0.488(11) 1 calc R U P A 1
C24A C 0.5232(9) 0.6329(3) 0.3638(7) 0.0366(18) Uani 0.488(11) 1 d . . P A 1
H24A H 0.5454 0.5922 0.3062 0.044 Uiso 0.488(11) 1 calc R U P A 1
H24B H 0.6338 0.6638 0.3856 0.044 Uiso 0.488(11) 1 calc R U P A 1
C23B C 0.3603(15) 0.6427(5) 0.2345(13) 0.0355(17) Uani 0.512(11) 1 d . . P A 2
H23C H 0.3474 0.6778 0.1460 0.043 Uiso 0.512(11) 1 calc R U P A 2
H23D H 0.4341 0.6052 0.2126 0.043 Uiso 0.512(11) 1 calc R U P A 2
C24B C 0.4733(8) 0.6699(3) 0.4109(7) 0.0331(16) Uani 0.512(11) 1 d . . P A 2
H24C H 0.5979 0.6888 0.4164 0.040 Uiso 0.512(11) 1 calc R U P A 2
H24D H 0.3990 0.7056 0.4395 0.040 Uiso 0.512(11) 1 calc R U P A 2
O1 O 0.9679(3) 0.31288(11) 1.0390(3) 0.0414(5) Uani 1 1 d . . . . .
O2 O 0.8349(3) 0.30658(12) 0.7447(3) 0.0478(5) Uani 1 1 d . . . . .
O3 O 0.3561(3) 0.30941(9) 0.7353(2) 0.0346(4) Uani 1 1 d . . . . .
O4 O 0.1924(3) 0.42439(9) 0.5354(2) 0.0343(4) Uani 1 1 d . . . . .
O5 O 0.4584(3) 0.42800(10) 1.0793(2) 0.0383(4) Uani 1 1 d . . . . .
O6 O 0.6584(3) 0.52178(9) 1.1299(2) 0.0360(4) Uani 1 1 d . . . . .
O7 O 0.1739(3) 0.62001(11) 0.2090(2) 0.0426(5) Uani 1 1 d . . . . .
O8 O 0.5095(3) 0.61507(9) 0.5334(2) 0.0349(4) Uani 1 1 d . . . . .
loop_
_atom_site_aniso_label
_atom_site_aniso_U_11
_atom_site_aniso_U_22
_atom_site_aniso_U_33
_atom_site_aniso_U_23
_atom_site_aniso_U_13
_atom_site_aniso_U_12
C1 0.0399(14) 0.0492(17) 0.068(2) 0.0203(15) 0.0272(14) 0.0207(13)
C2 0.0358(12) 0.0253(12) 0.0458(14) 0.0072(10) 0.0206(11) 0.0052(9)
C3 0.0313(11) 0.0248(11) 0.0386(12) 0.0071(10) 0.0169(10) 0.0066(9)
C4 0.0346(11) 0.0226(11) 0.0341(11) 0.0004(9) 0.0144(10) 0.0020(9)
C5 0.0430(13) 0.0234(12) 0.0430(13) -0.0031(10) 0.0096(11) -0.0037(10)
C6 0.0356(13) 0.0231(12) 0.0545(16) 0.0017(11) 0.0051(12) -0.0028(10)
C7 0.0320(10) 0.0245(10) 0.0269(10) 0.0024(9) 0.0102(9) 0.0025(9)
C8 0.0304(11) 0.0233(10) 0.0259(9) 0.0015(8) 0.0105(8) 0.0022(9)
C9 0.0294(11) 0.0236(11) 0.0302(10) 0.0016(9) 0.0088(9) 0.0031(8)
C10 0.0348(11) 0.0310(12) 0.0410(12) 0.0013(10) 0.0171(10) -0.0003(10)
C11 0.0289(10) 0.0285(11) 0.0327(11) 0.0049(9) 0.0090(9) 0.0046(9)
C12 0.0386(12) 0.0320(12) 0.0287(12) 0.0057(9) 0.0084(10) 0.0059(10)
C13 0.068(2) 0.0472(18) 0.0539(17) -0.0037(14) 0.0393(16) -0.0021(14)
C14 0.0299(11) 0.0320(12) 0.0278(11) -0.0011(9) 0.0059(9) 0.0009(9)
C15 0.0333(11) 0.0245(11) 0.0301(11) -0.0030(8) 0.0080(9) -0.0025(9)
C16 0.0320(11) 0.0219(11) 0.0289(10) 0.0010(8) 0.0096(8) 0.0005(9)
C17 0.0336(12) 0.0242(10) 0.0316(11) -0.0011(9) 0.0102(10) 0.0020(9)
C18 0.0378(13) 0.0257(12) 0.0496(15) 0.0001(11) 0.0092(11) 0.0003(10)
C19 0.0363(13) 0.0283(13) 0.0470(14) 0.0029(10) 0.0147(11) 0.0049(9)
C20 0.0288(11) 0.0208(10) 0.0291(11) 0.0011(8) 0.0073(9) -0.0012(8)
C21 0.0333(11) 0.0212(10) 0.0313(11) 0.0007(9) 0.0105(9) -0.0018(9)
C22 0.0398(13) 0.0299(12) 0.0307(11) 0.0034(10) 0.0079(10) -0.0021(10)
C23A 0.061(5) 0.023(5) 0.041(4) 0.015(4) 0.012(3) 0.007(4)
C24A 0.052(3) 0.028(3) 0.034(3) 0.001(2) 0.021(2) -0.004(2)
C23B 0.048(4) 0.022(4) 0.036(3) 0.011(4) 0.016(3) 0.001(3)
C24B 0.044(3) 0.021(3) 0.037(3) 0.008(2) 0.020(2) 0.0033(19)
O1 0.0349(9) 0.0410(10) 0.0511(11) 0.0145(9) 0.0199(8) 0.0151(8)
O2 0.0479(11) 0.0479(12) 0.0532(12) -0.0005(10) 0.0261(10) 0.0122(10)
O3 0.0371(9) 0.0216(8) 0.0423(10) 0.0027(7) 0.0128(8) 0.0008(7)
O4 0.0354(8) 0.0225(8) 0.0346(8) 0.0007(7) 0.0026(7) -0.0013(7)
O5 0.0446(10) 0.0381(10) 0.0369(9) 0.0020(8) 0.0212(8) 0.0021(8)
O6 0.0447(10) 0.0322(9) 0.0284(8) 0.0015(7) 0.0115(7) 0.0048(7)
O7 0.0464(11) 0.0453(11) 0.0276(8) 0.0078(8) 0.0055(7) -0.0037(8)
O8 0.0365(9) 0.0307(9) 0.0325(9) 0.0072(7) 0.0085(7) -0.0061(7)
loop_
_atom_type_symbol
_atom_type_description
_atom_type_scat_dispersion_real
_atom_type_scat_dispersion_imag
_atom_type_scat_source
C C 0.0181 0.0091 'International Tables Vol C Tables 4.2.6.8 and 6.1.1.4'
H H 0.0000 0.0000 'International Tables Vol C Tables 4.2.6.8 and 6.1.1.4'
O O 0.0492 0.0322 'International Tables Vol C Tables 4.2.6.8 and 6.1.1.4'
loop_
_geom_angle_atom_site_label_1
_geom_angle_atom_site_label_2
_geom_angle_atom_site_label_3
_geom_angle
O1 C1 H1A 109.5
O1 C1 H1B 109.5
H1A C1 H1B 109.5
O1 C1 H1C 109.5
H1A C1 H1C 109.5
H1B C1 H1C 109.5
O2 C2 O1 122.8(2)
O2 C2 C3 126.0(2)
O1 C2 C3 111.2(2)
C2 C3 C4 110.2(2)
C2 C3 C11 111.3(2)
C4 C3 C11 115.44(19)
C2 C3 H3 106.4
C4 C3 H3 106.4
C11 C3 H3 106.4
O3 C4 C7 112.5(2)
O3 C4 C3 105.17(19)
C7 C4 C3 114.96(19)
O3 C4 H4 108.0
C7 C4 H4 108.0
C3 C4 H4 108.0
O3 C5 C6 109.5(2)
O3 C5 H5A 109.8
C6 C5 H5A 109.8
O3 C5 H5B 109.8
C6 C5 H5B 109.8
H5A C5 H5B 108.2
O4 C6 C5 110.7(2)
O4 C6 H6A 109.5
C5 C6 H6A 109.5
O4 C6 H6B 109.5
C5 C6 H6B 109.5
H6A C6 H6B 108.1
C8 C7 O4 119.8(2)
C8 C7 C4 125.1(2)
O4 C7 C4 114.7(2)
C7 C8 C9 119.0(2)
C7 C8 C20 120.0(2)
C9 C8 C20 121.0(2)
C8 C9 C10 110.23(19)
C8 C9 C14 112.14(19)
C10 C9 C14 112.4(2)
C8 C9 C11 110.6(2)
C10 C9 C11 111.5(2)
C14 C9 C11 99.50(18)
C9 C10 H10A 109.5
C9 C10 H10B 109.5
H10A C10 H10B 109.5
C9 C10 H10C 109.5
H10A C10 H10C 109.5
H10B C10 H10C 109.5
C12 C11 C9 103.56(19)
C12 C11 C3 115.7(2)
C9 C11 C3 116.23(19)
C12 C11 H11 106.9
C9 C11 H11 106.9
C3 C11 H11 106.9
O5 C12 O6 111.5(2)
O5 C12 C11 111.1(2)
O6 C12 C11 105.4(2)
O5 C12 H12 109.6
O6 C12 H12 109.6
C11 C12 H12 109.6
O5 C13 H13A 109.5
O5 C13 H13B 109.5
H13A C13 H13B 109.5
O5 C13 H13C 109.5
H13A C13 H13C 109.5
H13B C13 H13C 109.5
O6 C14 C15 108.9(2)
O6 C14 C9 105.83(19)
C15 C14 C9 116.36(19)
O6 C14 H14 108.5
C15 C14 H14 108.5
C9 C14 H14 108.5
C14 C15 C16 111.7(2)
C14 C15 H15A 109.3
C16 C15 H15A 109.3
C14 C15 H15B 109.3
C16 C15 H15B 109.3
H15A C15 H15B 107.9
C17 C16 C15 114.5(2)
C17 C16 C20 111.44(18)
C15 C16 C20 111.18(19)
C17 C16 H16 106.4
C15 C16 H16 106.4
C20 C16 H16 106.4
C18 C17 C19 120.9(2)
C18 C17 C16 123.8(2)
C19 C17 C16 115.3(2)
C17 C18 H18A 120.0
C17 C18 H18B 120.0
H18A C18 H18B 120.0
C17 C19 H19A 109.5
C17 C19 H19B 109.5
H19A C19 H19B 109.5
C17 C19 H19C 109.5
H19A C19 H19C 109.5
H19B C19 H19C 109.5
C21 C20 C8 115.6(2)
C21 C20 C16 112.32(18)
C8 C20 C16 110.57(18)
C21 C20 H20 105.9
C8 C20 H20 105.9
C16 C20 H20 105.9
C22 C21 O8 122.6(2)
C22 C21 C20 122.3(2)
O8 C21 C20 115.07(19)
C21 C22 O7 124.6(2)
C21 C22 H22 117.7
O7 C22 H22 117.7
O7 C23A C24A 110.0(7)
O7 C23A H23A 109.7
C24A C23A H23A 109.7
O7 C23A H23B 109.7
C24A C23A H23B 109.7
H23A C23A H23B 108.2
O8 C24A C23A 108.3(6)
O8 C24A H24A 110.0
C23A C24A H24A 110.0
O8 C24A H24B 110.0
C23A C24A H24B 110.0
H24A C24A H24B 108.4
O7 C23B C24B 114.6(7)
O7 C23B H23C 108.6
C24B C23B H23C 108.6
O7 C23B H23D 108.6
C24B C23B H23D 108.6
H23C C23B H23D 107.6
O8 C24B C23B 106.8(5)
O8 C24B H24C 110.4
C23B C24B H24C 110.4
O8 C24B H24D 110.4
C23B C24B H24D 110.4
H24C C24B H24D 108.6
C2 O1 C1 115.2(2)
C5 O3 C4 111.15(19)
C7 O4 C6 113.97(19)
C12 O5 C13 113.1(2)
C12 O6 C14 110.48(19)
C22 O7 C23B 109.9(4)
C22 O7 C23A 112.4(5)
C21 O8 C24B 109.5(3)
C21 O8 C24A 112.7(3)
loop_
_geom_bond_atom_site_label_1
_geom_bond_atom_site_label_2
_geom_bond_distance
C1 O1 1.447(3)
C1 H1A 0.9800
C1 H1B 0.9800
C1 H1C 0.9800
C2 O2 1.208(3)
C2 O1 1.338(3)
C2 C3 1.514(3)
C3 C4 1.536(3)
C3 C11 1.540(4)
C3 H3 1.0000
C4 O3 1.437(3)
C4 C7 1.510(3)
C4 H4 1.0000
C5 O3 1.417(3)
C5 C6 1.501(4)
C5 H5A 0.9900
C5 H5B 0.9900
C6 O4 1.437(3)
C6 H6A 0.9900
C6 H6B 0.9900
C7 C8 1.332(3)
C7 O4 1.381(3)
C8 C9 1.521(3)
C8 C20 1.526(3)
C9 C10 1.533(3)
C9 C14 1.534(3)
C9 C11 1.538(3)
C10 H10A 0.9800
C10 H10B 0.9800
C10 H10C 0.9800
C11 C12 1.526(3)
C11 H11 1.0000
C12 O5 1.399(3)
C12 O6 1.421(3)
C12 H12 1.0000
C13 O5 1.422(3)
C13 H13A 0.9800
C13 H13B 0.9800
C13 H13C 0.9800
C14 O6 1.450(3)
C14 C15 1.512(3)
C14 H14 1.0000
C15 C16 1.526(3)
C15 H15A 0.9900
C15 H15B 0.9900
C16 C17 1.517(3)
C16 C20 1.558(3)
C16 H16 1.0000
C17 C18 1.321(4)
C17 C19 1.500(4)
C18 H18A 0.9500
C18 H18B 0.9500
C19 H19A 0.9800
C19 H19B 0.9800
C19 H19C 0.9800
C20 C21 1.510(3)
C20 H20 1.0000
C21 C22 1.328(3)
C21 O8 1.379(3)
C22 O7 1.383(3)
C22 H22 0.9500
C23A O7 1.444(13)
C23A C24A 1.514(13)
C23A H23A 0.9900
C23A H23B 0.9900
C24A O8 1.488(5)
C24A H24A 0.9900
C24A H24B 0.9900
C23B O7 1.400(10)
C23B C24B 1.469(12)
C23B H23C 0.9900
C23B H23D 0.9900
C24B O8 1.444(5)
C24B H24C 0.9900
C24B H24D 0.9900
