#------------------------------------------------------------------------------
#$Date: 2018-10-30 01:17:58 +0200 (Tue, 30 Oct 2018) $
#$Revision: 211694 $
#$URL: file:///home/coder/svn-repositories/cod/cif/1/55/01/1550136.cif $
#------------------------------------------------------------------------------
#
# This file is available in the Crystallography Open Database (COD),
# http://www.crystallography.net/
#
# All data on this site have been placed in the public domain by the
# contributors.
#
data_1550136
loop_
_publ_author_name
'Condakes, Matthew'
'Rosen, Rachel'
'Harwood, Stephen'
'Maimone, Thomas'
_publ_section_title
;
 A Copper-Catalyzed Double Coupling Enables a 3-Step Synthesis of the
 Quassinoid Core Architecture
;
_journal_name_full               'Chemical Science'
_journal_paper_doi               10.1039/C8SC03835J
_journal_year                    2019
_chemical_absolute_configuration unk
_chemical_formula_moiety         'C18 H24 O5'
_chemical_formula_sum            'C18 H24 O5'
_chemical_formula_weight         320.39
_space_group_crystal_system      monoclinic
_space_group_IT_number           4
_space_group_name_Hall           ' P 2yb'
_space_group_name_H-M_alt        'P 1 21 1'
_symmetry_Int_Tables_number      4
_symmetry_space_group_name_Hall  'P 2yb'
_symmetry_space_group_name_H-M   'P 1 21 1'
_atom_sites_solution_primary     iterative
_audit_creation_date             2018-07-09
_audit_creation_method
;
Olex2 1.2
(compiled May 18 2018 14:05:52 for OlexSys, GUI svn.r5506)
;
_audit_update_record
;
2018-07-19 deposited with the CCDC.
2018-10-29 downloaded from the CCDC.
;
_cell_angle_alpha                90
_cell_angle_beta                 93.7797(15)
_cell_angle_gamma                90
_cell_formula_units_Z            2
_cell_length_a                   8.0320(3)
_cell_length_b                   6.3518(2)
_cell_length_c                   16.1371(6)
_cell_measurement_reflns_used    16547
_cell_measurement_temperature    100(2)
_cell_measurement_theta_max      78.5250
_cell_measurement_theta_min      5.8380
_cell_volume                     821.49(5)
_computing_molecular_graphics    'Olex2 (Dolomanov et al., 2009)'
_computing_publication_material  'Olex2 (Dolomanov et al., 2009)'
_computing_structure_refinement  'olex2.refine (Bourhis et al., 2015)'
_computing_structure_solution    'olex2.solve (Bourhis et al., 2015)'
_diffrn_ambient_temperature      99.97
_diffrn_measured_fraction_theta_full 0.9884
_diffrn_measured_fraction_theta_max 0.9884
_diffrn_measurement_device_type  'ROD, Synergy Custom DW system, Pilatus 200K'
_diffrn_radiation_type           'Cu K\a'
_diffrn_radiation_wavelength     1.54178
_diffrn_reflns_av_R_equivalents  0.0352
_diffrn_reflns_av_unetI/netI     0.0192
_diffrn_reflns_limit_h_max       9
_diffrn_reflns_limit_h_min       -9
_diffrn_reflns_limit_k_max       7
_diffrn_reflns_limit_k_min       -7
_diffrn_reflns_limit_l_max       19
_diffrn_reflns_limit_l_min       -18
_diffrn_reflns_number            20223
_diffrn_reflns_theta_full        68.2754
_diffrn_reflns_theta_max         68.28
_diffrn_reflns_theta_min         2.74
_exptl_absorpt_coefficient_mu    0.768
_exptl_crystal_colour            'clear whiteish colourless'
_exptl_crystal_colour_lustre     clear
_exptl_crystal_colour_modifier   whiteish
_exptl_crystal_colour_primary    colourless
_exptl_crystal_density_diffrn    1.2951
_exptl_crystal_description       block
_exptl_crystal_F_000             345.1788
_refine_diff_density_max         0.1328
_refine_diff_density_min         -0.1242
_refine_diff_density_rms         0.0283
_refine_ls_abs_structure_details
'Flack, H. D. (1983). Acta Cryst. A39, 876-881.'
_refine_ls_abs_structure_Flack   0.02(11)
_refine_ls_d_res_high            0.8298
_refine_ls_d_res_low             16.1020
_refine_ls_goodness_of_fit_ref   1.0956
_refine_ls_hydrogen_treatment    mixed
_refine_ls_matrix_type           full
_refine_ls_number_constraints    4
_refine_ls_number_parameters     297
_refine_ls_number_reflns         2984
_refine_ls_number_restraints     1
_refine_ls_restrained_S_all      1.0956
_refine_ls_R_factor_all          0.0249
_refine_ls_R_factor_gt           0.0243
_refine_ls_shift/su_max          0.0002
_refine_ls_shift/su_mean         0.0001
_refine_ls_structure_factor_coef Fsqd
_refine_ls_weighting_details
'w=1/[\s^2^(Fo^2^)+(0.0310P)^2^+0.1140P] where P=(Fo^2^+2Fc^2^)/3'
_refine_ls_weighting_scheme      calc
_refine_ls_wR_factor_gt          0.0616
_refine_ls_wR_factor_ref         0.0620
_reflns_Friedel_coverage         0.977
_reflns_limit_h_max              9
_reflns_limit_h_min              -9
_reflns_limit_k_max              7
_reflns_limit_k_min              -7
_reflns_limit_l_max              19
_reflns_limit_l_min              -19
_reflns_number_gt                2920
_reflns_number_total             2984
_reflns_threshold_expression     I>=2u(I)
_iucr_refine_instructions_details
;
TITL 
CELL 1.54178 8.032 6.3518 16.1371 90 93.7797 90
ZERR 2 0.0003 0.0002 0.0006 0 0.0015 0
LATT -1
SYMM -X,0.5+Y,-Z
SFAC C H O
UNIT 36 48 10

L.S. 4
PLAN  20
TEMP -173.18
FMAP 2
ACTA 
WGHT 0.031 0.114
FVAR 0.323055
REM <olex2.extras>
REM <HklSrc "%./PWTraining2_0m.hkl">
REM </olex2.extras>

O1    3    -0.23489 -0.02179  0.32337  11.00000  0.02193  0.02641  0.03083 =
 0.00329 -0.00436 -0.00092 
O2    3    -0.74511 -0.08609  0.10441  11.00000  0.02136  0.02973  0.03244 =
 -0.00176 -0.00485 -0.00421 
AFIX 147
H2    2    -0.75691  0.04518  0.10644  11.00000 -1.50000 
AFIX 0
O3    3    -0.24809  0.48040  0.15815  11.00000  0.02827  0.01848  0.02887 =
 0.00040  0.00381 -0.00302 
O4    3    -0.09417  0.33373  0.41352  11.00000  0.02718  0.04065  0.02427 =
 -0.00362 -0.00370 -0.00720 
O5    3     0.04566  0.29656  0.09742  11.00000  0.02381  0.02929  0.03818 =
 -0.00129  0.00985 -0.00663 
C6    1    -0.37942  0.14293  0.16412  11.00000  0.01803  0.01986  0.02047 =
 0.00232  0.00096  0.00164 
C7    1    -0.62843  0.11408  0.36295  11.00000  0.01910  0.03687  0.02676 =
 -0.00510  0.00522 -0.00498 
C8    1    -0.43741  0.20356  0.24928  11.00000  0.02003  0.01874  0.02208 =
 -0.00061  0.00175 -0.00070 
C9    1    -0.29425  0.18163  0.31335  11.00000  0.02084  0.02344  0.02019 =
 0.00087  0.00338 -0.00259 
C10   1    -0.23314  0.26697  0.14186  11.00000  0.02442  0.01754  0.01807 =
 0.00049 -0.00079 -0.00141 
C11   1    -0.09390  0.18453  0.11576  11.00000  0.02316  0.02275  0.02623 =
 0.00044  0.00315 -0.00419 
AFIX 43
H11   2    -0.09036  0.03600  0.10922  11.00000 -1.20000 
AFIX 0
C12   1    -0.40300 -0.06409  0.03017  11.00000  0.02555  0.02557  0.02254 =
 -0.00159  0.00026 -0.00067 
C13   1    -0.44876 -0.01074  0.11652  11.00000  0.01917  0.02019  0.02219 =
 0.00081 -0.00036  0.00114 
C14   1    -0.22587  0.34593  0.35393  11.00000  0.02240  0.03178  0.02057 =
 -0.00077  0.00153 -0.00290 
C15   1    -0.61653 -0.04294  0.41712  11.00000  0.03367  0.04209  0.02323 =
 -0.00100  0.00613 -0.00143 
C16   1    -0.58785 -0.14447  0.14702  11.00000  0.02031  0.02239  0.02584 =
 -0.00273 -0.00060 -0.00311 
C17   1    -0.07123 -0.02387  0.36504  11.00000  0.02363  0.03674  0.03564 =
 0.00662 -0.00708  0.00088 
C18   1    -0.06505  0.12095  0.43925  11.00000  0.02846  0.04776  0.02612 =
 0.00722 -0.00279 -0.00461 
C19   1    -0.59925  0.08752  0.27125  11.00000  0.01865  0.02691  0.02290 =
 -0.00112  0.00268 -0.00194 
C20   1    -0.59669 -0.13879  0.24088  11.00000  0.02174  0.02420  0.02505 =
 0.00092  0.00346 -0.00478 
C21   1    -0.08756  0.57809  0.16806  11.00000  0.03414  0.02467  0.03558 =
 -0.00083  0.00577 -0.01048 
C22   1     0.01373  0.51989  0.09606  11.00000  0.03801  0.03097  0.03548 =
 0.00132  0.00945 -0.01163 
C23   1    -0.67151  0.33235  0.38847  11.00000  0.03252  0.03698  0.03311 =
 -0.00632  0.01078 -0.00343 
H17a  2    -0.05048 -0.17122  0.38126  11.00000  0.03806 
H8    2    -0.46234  0.34947  0.24759  11.00000  0.02284 
H12a  2    -0.50324 -0.08635 -0.00563  11.00000  0.02620 
H21a  2    -0.10373  0.72862  0.16913  11.00000  0.02719 
H14   2    -0.26296  0.49725  0.34332  11.00000  0.02193 
H19   2    -0.68997  0.16179  0.24046  11.00000  0.01590 
H12b  2    -0.33756 -0.19677  0.03216  11.00000  0.03655 
H15a  2    -0.58882 -0.19448  0.40167  11.00000  0.04371 
H22a  2     0.12409  0.59028  0.10071  11.00000  0.03315 
H15b  2    -0.63333 -0.01444  0.47380  11.00000  0.03303 
H23a  2    -0.77540  0.37351  0.35831  11.00000  0.03233 
H18a  2    -0.15168  0.08257  0.47538  11.00000  0.03588 
H16   2    -0.56730 -0.29121  0.13241  11.00000  0.01473 
H20a  2    -0.70242 -0.21564  0.25525  11.00000  0.02171 
H23b  2    -0.59227  0.43827  0.37385  11.00000  0.04258 
H23c  2    -0.68125  0.34807  0.44739  11.00000  0.04494 
H18b  2     0.04309  0.11599  0.47033  11.00000  0.03280 
H20b  2    -0.50418 -0.21386  0.26478  11.00000  0.01974 
H17b  2     0.01126  0.02533  0.32161  11.00000  0.02992 
H22b  2    -0.04401  0.55502  0.04320  11.00000  0.03916 
H21b  2    -0.02649  0.52821  0.22198  11.00000  0.02977 
H12c  2    -0.33888  0.05350  0.00771  11.00000  0.02858 
HKLF 4

END
Q1 1 -0.64 0.1 0.32 11 0.05 0.13
Q2 1 -0.52 0.15 0.26 11 0.05 0.13
Q3 1 -0.4 0.15 0.2 11 0.05 0.13
Q4 1 -0.32 0.2 0.14 11 0.05 0.13
Q5 1 -0.4 -0.05 0.08 11 0.05 0.11
Q6 1 -0.16 0.2 0.16 11 0.05 0.1
Q7 1 -0.08 0.55 0.12 11 0.05 0.1
Q8 1 -0.48 -0.5 0.12 11 0.05 0.1
Q9 1 -0.56 -0.15 0.2 11 0.05 0.1
Q10 1 -0.52 -0.1 0.14 11 0.05 0.09
Q11 1 -0.36 0.2 0.28 11 0.05 0.09
Q12 1 -0.32 0.25 0.36 11 0.05 0.09
Q13 1 -0.36 0 0.16 11 0.05 0.09
Q14 1 0.16 0.6 0.16 11 0.05 0.08
Q15 1 -0.32 -0.3 0.24 11 0.05 0.08
Q16 1 -0.32 0.5 0.38 11 0.05 0.08
Q17 1 -0.2 0.25 0.32 11 0.05 0.08
Q18 1 -0.56 0.05 0.4 11 0.05 0.08
Q19 1 -0.04 0.5 0.4 11 0.05 0.08
Q20 1 -0.24 0.45 0.32 11 0.05 0.08

  REM The information below was added by Olex2.
  REM
  REM R1 = 0.0243 for 2920 Fo > 4sig(Fo) and 0.0249 for all 2984 data
  REM 297 parameters refined using 1 restraints
  REM Highest difference peak 0.1328, deepest hole -0.1242
  REM Mean Shift 0.0001, Max Shift 0.0002.

  REM +++ Tabular Listing of Refinement Information +++
  REM R1_all = 0.0249
  REM R1_gt = 0.0243
  REM wR_ref = 0.0620
  REM GOOF = 1.0956
  REM Shift_max = 0.0002
  REM Shift_mean = 0.0001
  REM Reflections_all = 2984
  REM Reflections_gt = 2920
  REM Parameters = 297
  REM Hole = -0.1242
  REM Peak = 0.1328
  REM Flack = 0.02(11)

  
;
_cod_data_source_file            c8sc03835j2.cif
_cod_data_source_block           MLC_LIT_dioxenecoupling
_cod_database_code               1550136
_olex2_refinement_description
;
1. Fixed Uiso
 At 1.2 times of:
  All C(H) groups
 At 1.5 times of:
  All O(H) groups
2.a Aromatic/amide H refined with riding coordinates:
 C11(H11)
2.b Idealised tetrahedral OH refined as rotating group:
 O2(H2)
;
_iucr_refine_fcf_details
;
data_PWTraining2_0m
_computing_structure_refinement   'olex2.refine (Bourhis et al., 2015)'
_shelx_refln_list_code            4
loop_
  _space_group_symop_id
  _space_group_symop_operation_xyz
  1  x,y,z
  2  -x,y+1/2,-z

_space_group_crystal_system       monoclinic
_space_group_IT_number            4
_space_group_name_H-M_alt         'P 1 21 1'
_space_group_name_Hall            ' P 2yb'
_symmetry_space_group_name_H-M    'P 1 21 1'
_symmetry_space_group_name_Hall   ' P 2yb'
_symmetry_Int_Tables_number       4
_cell_length_a                    8.0320(3)
_cell_length_b                    6.3518(2)
_cell_length_c                    16.1371(6)
_cell_angle_alpha                 90
_cell_angle_beta                  93.7797(15)
_cell_angle_gamma                 90
_cell_volume                      821.49(5)
loop_
  _refln_index_h
  _refln_index_k
  _refln_index_l
  _refln_F_squared_calc
  _refln_F_squared_meas
  _refln_F_squared_sigma
  _refln_F_squared_weight
  _refln_observed_status
-9 -2 -3 10.961 10.958 0.996 94.447 o
-9 -2 -2 7.166 5.876 0.597 190.477 o
-9 -2 -1 34.166 36.248 1.251 33.186 o
-9 -2 0 16.482 17.258 0.823 77.954 o
-9 -1 -5 0.218 0.112 0.389 1289.780 o
-9 -1 -4 6.346 7.821 0.715 166.645 o
-9 -1 -3 4.611 6.685 0.718 194.048 o
-9 -1 -2 63.022 64.005 1.931 15.029 o
-9 -1 -1 31.298 28.875 0.995 41.526 o
-9 -1 0 25.546 23.952 0.988 50.258 o
-9 0 1 1.178 1.354 0.528 528.324 o
-9 0 2 16.663 16.164 0.988 71.355 o
-9 0 3 89.075 96.514 2.604 8.806 o
-9 0 4 0.275 0.455 0.455 906.247 o
-9 0 5 1.739 2.411 0.405 568.776 o
-9 0 6 7.404 6.363 0.514 199.256 o
-9 0 7 32.004 38.729 1.579 29.577 o
-9 0 8 4.396 6.100 0.536 253.716 o
-9 1 1 49.081 51.306 1.479 21.707 o
-9 1 2 2.225 2.383 0.550 392.423 o
-9 1 3 29.971 28.839 1.476 34.811 o
-9 1 4 44.437 47.212 2.164 18.812 o
-9 1 5 12.940 11.963 0.730 104.822 o
-9 1 6 68.355 70.599 1.914 13.798 o
-9 1 7 30.537 28.506 1.346 36.647 o
-9 2 1 116.188 116.355 6.210 3.435 o
-9 2 2 2.077 3.832 0.626 316.913 o
-9 2 3 26.447 27.956 2.343 24.032 o
-9 2 4 13.212 11.916 0.863 94.342 o
-9 2 5 92.688 93.594 5.712 4.319 o
-9 2 6 46.803 50.574 2.059 18.643 o
-8 -4 -2 12.316 14.426 0.742 101.268 o
-8 -4 -1 49.043 47.832 1.364 22.994 o
-8 -4 0 10.620 10.167 0.469 146.524 o
-8 -3 -6 8.698 8.771 0.729 139.188 o
-8 -3 -5 26.768 22.287 1.098 47.345 o
-8 -3 -4 55.045 54.028 1.353 20.337 o
-8 -3 -3 5.177 4.977 0.581 235.372 o
-8 -3 -2 47.936 49.545 1.122 24.613 o
-8 -3 -1 54.013 54.609 1.137 21.612 o
-8 -3 0 26.840 27.161 0.852 49.496 o
-8 -2 -8 1.315 1.897 0.441 603.603 o
-8 -2 -7 17.981 15.803 1.077 65.217 o
-8 -2 -6 16.241 18.459 0.774 79.147 o
-8 -2 -5 1.346 2.115 0.477 539.534 o
-8 -2 -4 19.098 17.093 0.857 70.382 o
-8 -2 -3 27.805 29.304 0.887 46.536 o
-8 -2 -2 18.391 19.562 0.696 75.059 o
-8 -2 -1 38.443 37.311 0.991 33.144 o
-8 -2 0 75.046 75.716 1.623 13.360 o
-8 -1 -9 42.976 42.791 2.091 20.171 o
-8 -1 -8 48.899 49.785 1.758 20.191 o
-8 -1 -7 37.827 38.957 1.051 32.431 o
-8 -1 -6 3.686 6.073 0.581 256.576 o
-8 -1 -5 106.283 104.792 2.038 8.253 o
-8 -1 -4 42.063 43.522 1.006 29.272 o
-8 -1 -3 0.430 1.450 0.472 715.089 o
-8 -1 -2 94.767 92.734 1.569 10.259 o
-8 -1 -1 1.700 2.868 0.433 517.588 o
-8 -1 0 16.507 15.949 0.654 87.479 o
-8 0 1 404.221 409.062 5.950 0.928 o
-8 0 2 26.439 29.300 0.905 47.739 o
-8 0 3 20.993 22.094 0.884 60.880 o
-8 0 4 62.282 61.528 1.648 16.505 o
-8 0 5 18.968 21.377 0.808 67.806 o
-8 0 6 2.283 2.281 0.434 490.280 o
-8 0 7 75.763 75.770 1.674 13.127 o
-8 0 8 17.863 22.470 0.940 64.370 o
-8 0 9 1.362 1.958 0.371 699.586 o
-8 0 10 0.038 0.113 0.230 3717.860 o
-8 0 11 22.300 22.626 0.686 63.458 o
-8 1 1 16.166 17.181 0.775 81.093 o
-8 1 2 12.874 14.128 0.749 99.082 o
-8 1 3 1.255 1.217 0.538 513.973 o
-8 1 4 3.622 3.281 0.584 295.709 o
-8 1 5 57.119 56.192 1.818 17.274 o
-8 1 6 74.756 74.392 2.569 10.878 o
-8 1 7 23.983 25.417 0.939 52.417 o
-8 1 8 20.685 22.282 0.947 59.374 o
-8 1 9 30.328 30.464 1.010 41.455 o
-8 1 10 25.762 28.766 1.002 46.924 o
-8 1 11 37.031 36.041 0.888 35.517 o
-8 2 1 29.784 32.059 1.193 38.358 o
-8 2 2 48.276 48.668 2.252 17.328 o
-8 2 3 6.484 5.844 0.887 144.562 o
-8 2 4 16.992 15.784 0.857 76.990 o
-8 2 5 52.513 54.145 1.530 20.063 o
-8 2 6 32.782 33.323 1.684 29.142 o
-8 2 7 8.842 10.598 1.145 90.079 o
-8 2 8 55.381 59.454 1.557 18.567 o
-8 2 9 32.014 32.327 1.712 29.353 o
-8 2 10 15.932 15.165 0.648 91.074 o
-8 3 1 32.276 36.024 1.853 26.703 o
-8 3 2 49.231 47.285 2.103 18.199 o
-8 3 3 234.146 243.797 6.649 1.775 o
-8 3 4 70.987 68.889 3.500 8.899 o
-8 3 5 71.661 62.279 3.817 8.275 o
-8 3 6 37.184 39.261 1.538 27.602 o
-8 3 8 25.956 27.130 1.087 45.870 o
-8 4 1 12.355 12.256 0.814 100.525 o
-8 4 2 10.814 7.052 0.976 104.456 o
-8 4 3 10.219 8.754 1.007 100.536 o
-8 4 4 48.717 43.758 2.883 14.079 o
-8 4 5 6.996 4.695 2.108 42.874 o
-7 -5 -3 8.150 5.782 1.054 111.166 o
-7 -5 -2 23.919 18.850 1.197 50.102 o
-7 -5 -1 38.165 34.181 1.440 29.374 o
-7 -5 0 37.316 38.578 1.507 28.020 o
-7 -4 -6 6.102 5.547 1.078 119.036 o
-7 -4 -5 11.030 11.191 0.713 117.749 o
-7 -4 -4 16.119 17.454 0.793 80.018 o
-7 -4 -3 72.007 71.244 1.586 14.228 o
-7 -4 -2 6.807 7.163 0.621 182.319 o
-7 -4 -1 51.951 51.224 1.191 22.519 o
-7 -4 0 16.862 19.236 0.729 78.252 o
-7 -3 -10 3.457 3.155 1.060 146.734 o
-7 -3 -9 1.791 1.458 0.420 601.029 o
-7 -3 -8 7.155 8.357 0.652 165.949 o
-7 -3 -7 1.140 1.345 0.425 695.013 o
-7 -3 -6 35.878 33.132 0.847 37.867 o
-7 -3 -5 19.494 20.770 0.749 69.281 o
-7 -3 -4 13.927 14.601 0.689 97.575 o
-7 -3 -3 116.714 112.403 1.812 7.623 o
-7 -3 -2 30.285 28.969 0.761 46.004 o
-7 -3 -1 233.407 237.307 3.704 2.383 o
-7 -3 0 41.258 41.943 0.954 30.516 o
-7 -2 -11 28.364 30.827 1.881 28.969 o
-7 -2 -10 24.532 26.355 2.616 21.569 o
-7 -2 -9 0.126 0.333 0.508 794.572 o
-7 -2 -8 6.349 7.003 0.623 188.896 o
-7 -2 -7 97.803 97.969 1.767 9.479 o
-7 -2 -6 77.363 80.252 1.270 13.539 o
-7 -2 -5 4.432 3.612 0.422 332.945 o
-7 -2 -4 80.472 77.813 1.178 13.450 o
-7 -2 -3 113.724 119.896 1.804 7.587 o
-7 -2 -2 316.802 304.626 4.108 1.519 o
-7 -2 -1 95.086 92.945 1.378 10.490 o
-7 -2 0 0.530 0.818 0.341 1185.330 o
-7 -1 -12 19.305 22.260 1.259 51.847 o
-7 -1 -11 9.993 9.476 0.823 117.779 o
-7 -1 -10 1.383 1.720 0.550 468.909 o
-7 -1 -9 8.566 7.972 0.664 152.165 o
-7 -1 -8 21.774 20.053 0.653 67.944 o
-7 -1 -7 62.053 63.197 1.138 18.304 o
-7 -1 -6 55.333 55.121 1.092 21.342 o
-7 -1 -5 31.369 30.937 0.696 44.684 o
-7 -1 -4 152.681 150.607 2.114 5.059 o
-7 -1 -3 431.976 421.901 5.202 0.882 o
-7 -1 -2 83.035 81.619 1.345 12.522 o
-7 -1 -1 0.601 1.317 0.373 945.271 o
-7 -1 0 490.146 496.007 7.598 0.642 o
-7 0 1 200.953 204.904 4.063 2.821 o
-7 0 2 0.026 0.799 0.608 554.076 o
-7 0 3 66.154 71.437 2.355 12.560 o
-7 0 4 138.195 140.807 2.543 5.441 o
-7 0 5 424.867 407.150 8.323 0.779 o
-7 0 6 17.981 17.016 0.816 74.729 o
-7 0 7 123.210 116.825 2.624 6.400 o
-7 0 8 55.693 60.729 1.536 18.451 o
-7 0 9 1.230 1.455 0.399 718.320 o
-7 0 10 2.885 3.163 0.341 479.272 o
-7 0 11 31.641 28.067 0.730 45.466 o
-7 0 12 8.226 8.994 0.293 198.417 o
-7 0 13 74.371 76.903 3.333 8.859 o
-7 0 14 3.451 3.162 0.479 357.384 o
-7 1 1 102.247 103.814 2.424 8.023 o
-7 1 2 72.128 69.002 3.270 9.410 o
-7 1 3 170.660 173.771 3.133 3.856 o
-7 1 4 457.636 435.309 7.618 0.732 o
-7 1 5 48.034 44.178 1.187 25.180 o
-7 1 6 150.627 141.482 2.824 4.867 o
-7 1 7 18.114 19.551 0.846 70.247 o
-7 1 8 157.233 153.300 3.394 4.226 o
-7 1 9 40.043 37.547 1.130 30.810 o
-7 1 10 22.115 24.579 0.972 54.739 o
-7 1 11 30.140 34.017 0.940 41.090 o
-7 1 12 33.765 35.084 1.045 36.388 o
-7 1 13 6.542 6.607 0.264 258.955 o
-7 1 14 0.083 0.096 0.192 4765.730 o
-7 2 1 53.422 53.057 1.327 21.060 o
-7 2 2 128.506 130.937 2.628 5.900 o
-7 2 3 263.753 258.927 4.693 1.887 o
-7 2 4 21.921 21.600 0.951 57.844 o
-7 2 5 55.956 55.949 1.772 17.767 o
-7 2 6 52.487 50.862 1.642 19.853 o
-7 2 7 210.637 207.986 4.762 2.504 o
-7 2 8 34.190 32.801 0.993 37.568 o
-7 2 9 20.035 22.567 0.880 62.278 o
-7 2 10 51.282 49.443 1.367 22.011 o
-7 2 11 29.614 32.846 1.078 39.984 o
-7 2 12 62.439 60.174 2.029 15.032 o
-7 2 13 3.421 2.956 0.356 436.989 o
-7 3 1 3.647 3.966 0.565 292.615 o
-7 3 2 73.767 71.093 1.809 13.341 o
-7 3 3 100.288 101.497 2.331 8.349 o
-7 3 4 40.560 39.010 1.550 26.156 o
-7 3 5 15.206 16.505 1.107 68.619 o
-7 3 6 3.445 2.490 0.781 228.043 o
-7 3 7 41.969 38.273 1.360 27.513 o
-7 3 8 7.403 7.000 0.982 120.660 o
-7 3 9 20.397 21.692 1.127 54.805 o
-7 3 10 6.352 5.986 0.607 199.446 o
-7 3 11 42.904 45.527 1.247 26.535 o
-7 4 1 22.265 23.038 1.070 52.989 o
-7 4 2 35.655 32.023 1.167 34.624 o
-7 4 3 22.424 27.740 1.566 38.543 o
-7 4 4 9.323 8.924 1.110 94.251 o
-7 4 5 2.400 2.557 1.159 136.711 o
-7 4 6 31.377 33.451 2.635 19.207 o
-7 4 7 45.606 40.181 2.160 19.351 o
-7 4 8 12.736 11.332 0.941 91.637 o
-7 4 9 56.802 49.083 3.114 11.898 o
-7 5 1 46.489 50.447 3.783 10.135 o
-7 5 2 36.904 37.422 2.059 22.740 o
-7 5 3 16.386 16.775 1.350 56.098 o
-7 5 4 17.855 19.762 1.982 34.971 o
-6 -5 -6 32.472 34.107 2.937 16.562 o
-6 -5 -5 9.653 9.987 1.022 98.990 o
-6 -5 -4 22.850 23.136 1.546 40.380 o
-6 -5 -3 29.306 29.252 1.275 38.443 o
-6 -5 -2 70.295 71.512 2.614 11.300 o
-6 -5 -1 1.834 1.465 0.435 574.697 o
-6 -5 0 5.867 5.370 0.583 218.005 o
-6 -4 -10 39.128 40.857 1.577 26.101 o
-6 -4 -9 42.646 42.821 1.272 27.011 o
-6 -4 -8 12.159 11.645 0.669 113.992 o
-6 -4 -7 22.126 21.253 0.953 57.738 o
-6 -4 -6 20.046 19.813 0.777 68.192 o
-6 -4 -5 20.469 19.808 0.641 71.500 o
-6 -4 -4 39.462 38.994 0.741 34.166 o
-6 -4 -3 60.249 58.149 0.982 19.941 o
-6 -4 -2 28.426 28.049 0.736 49.041 o
-6 -4 -1 26.427 28.078 0.727 51.727 o
-6 -4 0 35.048 36.644 0.940 36.156 o
-6 -3 -12 29.716 31.875 1.340 36.154 o
-6 -3 -11 9.568 9.082 0.795 124.368 o
-6 -3 -10 15.635 16.599 0.910 76.961 o
-6 -3 -9 17.169 17.208 0.924 71.878 o
-6 -3 -8 8.107 7.883 0.543 174.925 o
-6 -3 -7 30.037 31.786 0.808 44.120 o
-6 -3 -6 104.424 108.479 1.480 8.902 o
-6 -3 -5 20.796 20.471 0.590 71.388 o
-6 -3 -4 126.314 125.787 1.607 6.901 o
-6 -3 -3 379.736 378.536 4.829 1.086 o
-6 -3 -2 347.528 340.785 5.249 1.226 o
-6 -3 -1 92.098 89.218 1.338 11.038 o
-6 -3 0 8.040 8.456 0.578 167.198 o
-6 -2 -13 21.289 21.264 0.922 59.964 o
-6 -2 -12 0.318 1.127 0.540 619.477 o
-6 -2 -11 90.087 87.283 2.133 9.958 o
-6 -2 -10 5.203 4.038 0.604 237.724 o
-6 -2 -9 2.441 3.036 0.457 430.974 o
-6 -2 -8 38.455 38.721 0.870 33.827 o
-6 -2 -7 29.093 28.555 0.686 48.696 o
-6 -2 -6 49.192 45.233 0.823 26.698 o
-6 -2 -5 22.316 26.564 0.952 53.593 o
-6 -2 -4 385.378 389.051 6.987 0.941 o
-6 -2 -3 106.133 103.714 1.843 8.539 o
-6 -2 -2 88.541 90.079 1.640 10.876 o
-6 -2 -1 15.152 17.607 0.617 90.959 o
-6 -2 0 135.997 134.086 2.968 5.318 o
-6 -1 -14 1.287 0.235 0.719 356.654 o
-6 -1 -13 21.170 19.561 1.176 53.700 o
-6 -1 -12 85.807 84.985 2.457 9.755 o
-6 -1 -11 61.509 64.036 1.685 16.265 o
-6 -1 -10 64.946 61.795 1.372 17.003 o
-6 -1 -9 21.247 20.387 0.763 65.588 o
-6 -1 -8 184.473 175.390 2.352 3.847 o
-6 -1 -7 77.497 74.111 1.152 14.232 o
-6 -1 -6 5.546 5.461 0.650 205.986 o
-6 -1 -5 160.839 159.884 3.911 3.814 o
-6 -1 -4 157.971 157.037 2.764 4.496 o
-6 -1 -3 66.891 65.099 1.302 16.516 o
-6 -1 -2 11.728 12.269 0.576 121.937 o
-6 -1 -1 207.501 215.784 3.465 2.837 o
-6 -1 0 62.483 63.921 1.219 17.845 o
-6 0 1 4.238 3.601 0.529 295.140 o
-6 0 2 118.015 116.086 2.181 7.094 o
-6 0 3 178.085 176.956 2.884 3.777 o
-6 0 4 404.144 387.624 6.276 0.937 o
-6 0 5 102.893 98.025 2.122 8.592 o
-6 0 6 101.926 96.256 2.453 8.231 o
-6 0 7 921.970 878.707 38.519 0.094 o
-6 0 8 122.513 130.121 6.324 3.213 o
-6 0 9 74.001 71.270 2.311 11.834 o
-6 0 10 211.228 198.000 3.501 2.893 o
-6 0 11 74.722 76.314 1.485 13.716 o
-6 0 12 16.731 15.701 0.730 83.716 o
-6 0 13 116.886 120.805 2.077 7.130 o
-6 0 14 4.961 5.178 0.333 313.973 o
-6 0 15 6.404 5.845 0.575 206.755 o
-6 0 16 5.089 6.516 0.383 274.425 o
-6 1 1 70.479 69.731 1.532 14.745 o
-6 1 2 19.026 19.448 0.760 71.428 o
-6 1 3 138.406 133.761 3.339 4.974 o
-6 1 4 145.898 140.143 4.182 4.135 o
-6 1 5 76.679 80.676 1.824 12.318 o
-6 1 6 244.105 225.242 5.425 2.007 o
-6 1 7 132.457 131.617 3.717 4.873 o
-6 1 8 6.330 8.240 1.533 69.741 o
-6 1 9 19.487 20.317 0.874 65.622 o
-6 1 10 131.650 132.231 2.860 5.576 o
-6 1 11 30.893 31.581 0.980 40.917 o
-6 1 12 26.834 24.372 0.673 54.703 o
-6 1 13 19.184 21.161 0.581 74.728 o
-6 1 14 124.215 133.750 2.328 6.262 o
-6 1 15 6.804 4.382 0.862 152.245 o
-6 2 1 41.000 41.002 1.017 30.392 o
-6 2 2 62.245 62.872 1.474 17.066 o
-6 2 3 9.992 9.961 0.724 126.583 o
-6 2 4 36.187 35.632 1.142 33.444 o
-6 2 5 52.649 48.593 2.720 14.109 o
-6 2 6 123.873 122.423 4.502 4.546 o
-6 2 7 9.077 9.502 0.811 124.303 o
-6 2 8 61.335 52.516 1.344 18.957 o
-6 2 9 183.026 173.165 3.469 3.501 o
-6 2 10 11.374 12.097 0.727 112.315 o
-6 2 11 6.154 7.165 0.641 186.832 o
-6 2 12 25.825 28.405 1.010 46.894 o
-6 2 13 41.872 44.179 1.264 27.123 o
-6 2 14 3.223 3.162 0.489 362.635 o
-6 2 15 55.309 55.350 1.172 20.956 o
-6 3 1 73.787 72.779 2.558 11.073 o
-6 3 2 68.344 67.598 1.847 14.239 o
-6 3 3 51.277 50.951 1.208 22.691 o
-6 3 4 37.046 45.485 1.382 27.892 o
-6 3 5 18.128 14.762 0.865 75.071 o
-6 3 6 32.274 29.742 1.214 37.049 o
-6 3 7 68.969 66.908 1.966 13.796 o
-6 3 8 77.416 80.924 2.172 11.350 o
-6 3 9 122.971 116.933 4.969 4.236 o
-6 3 10 102.762 100.598 2.854 7.473 o
-6 3 11 18.853 20.372 0.878 66.689 o
-6 3 12 73.742 80.898 1.949 12.333 o
-6 3 13 30.553 35.678 1.295 35.019 o
-6 4 1 17.166 15.233 0.749 82.236 o
-6 4 2 121.454 121.479 2.265 6.712 o
-6 4 3 33.495 29.086 1.049 38.800 o
-6 4 4 9.116 7.280 0.884 122.275 o
-6 4 5 11.623 10.509 1.102 85.016 o
-6 4 6 110.167 108.818 2.961 6.777 o
-6 4 7 11.181 14.107 1.418 62.874 o
-6 4 8 18.214 20.032 1.150 58.427 o
-6 4 9 21.177 22.581 1.282 48.786 o
-6 4 10 2.215 0.688 0.636 369.606 o
-6 4 11 13.788 13.152 0.799 94.192 o
-6 4 12 32.318 38.711 1.916 25.464 o
-6 5 1 7.815 9.469 1.199 90.533 o
-6 5 2 23.304 19.387 1.409 44.897 o
-6 5 3 26.378 29.330 1.538 35.871 o
-6 5 4 10.071 9.678 1.266 78.614 o
-6 5 5 2.959 1.821 1.246 120.169 o
-6 5 6 19.715 20.313 1.916 35.194 o
-6 5 7 61.530 54.649 2.486 13.648 o
-6 5 8 36.582 35.383 1.865 25.120 o
-6 5 9 5.309 3.839 1.054 132.272 o
-6 6 1 20.492 25.392 2.395 25.491 o
-5 -6 -6 11.551 4.120 1.054 100.050 o
-5 -6 -5 31.408 24.740 2.240 24.283 o
-5 -6 -4 22.913 20.954 1.212 49.639 o
-5 -6 -3 32.082 26.387 2.300 23.172 o
-5 -6 -2 17.231 15.537 1.329 56.583 o
-5 -6 -1 71.511 67.209 2.204 12.671 o
-5 -6 0 11.269 12.118 0.711 114.137 o
-5 -5 -10 10.677 8.821 1.808 49.315 o
-5 -5 -9 146.219 151.796 3.431 4.476 o
-5 -5 -8 25.731 25.533 1.176 45.042 o
-5 -5 -7 78.562 82.270 3.108 8.947 o
-5 -5 -6 76.203 80.126 3.935 7.396 o
-5 -5 -5 189.325 183.931 5.360 2.653 o
-5 -5 -4 39.436 41.684 1.213 29.265 o
-5 -5 -3 33.977 34.891 0.850 38.635 o
-5 -5 -2 15.280 15.476 0.600 95.303 o
-5 -5 -1 183.763 186.757 2.830 3.597 o
-5 -5 0 87.788 86.217 1.566 11.287 o
-5 -4 -12 30.626 29.905 1.756 29.929 o
-5 -4 -11 63.122 65.547 1.583 16.220 o
-5 -4 -10 113.577 114.321 3.420 5.995 o
-5 -4 -9 73.181 69.132 1.752 13.723 o
-5 -4 -8 43.022 46.724 1.451 24.640 o
-5 -4 -7 33.379 32.848 0.904 39.315 o
-5 -4 -6 109.820 109.752 1.699 8.246 o
-5 -4 -5 316.271 323.463 4.040 1.481 o
-5 -4 -4 49.547 51.235 0.770 25.528 o
-5 -4 -3 18.824 18.659 0.520 80.967 o
-5 -4 -2 303.128 289.379 3.509 1.686 o
-5 -4 -1 62.595 64.597 1.286 17.506 o
-5 -4 0 1.897 2.081 0.423 548.193 o
-5 -3 -14 5.781 5.273 0.720 187.279 o
-5 -3 -13 0.326 0.969 0.556 599.092 o
-5 -3 -12 54.223 53.848 1.473 19.964 o
-5 -3 -11 114.642 118.317 2.652 6.715 o
-5 -3 -10 186.634 190.341 3.500 3.293 o
-5 -3 -9 54.589 53.020 1.329 20.725 o
-5 -3 -8 63.564 58.476 1.126 18.549 o
-5 -3 -7 97.679 95.856 1.691 9.684 o
-5 -3 -6 102.937 108.896 2.289 8.011 o
-5 -3 -5 9.138 8.546 0.512 163.872 o
-5 -3 -4 381.310 374.682 5.263 1.065 o
-5 -3 -3 63.729 60.627 1.288 17.687 o
-5 -3 -2 48.945 47.228 1.018 25.291 o
-5 -3 -1 3.304 3.093 0.391 418.606 o
-5 -3 0 30.039 32.275 0.693 45.417 o
-5 -2 -15 0.203 -0.176 0.390 1329.320 o
-5 -2 -14 26.800 25.200 1.916 30.363 o
-5 -2 -13 13.422 14.595 1.166 71.387 o
-5 -2 -12 53.853 51.375 3.070 12.246 o
-5 -2 -11 84.641 84.732 1.804 11.243 o
-5 -2 -10 126.547 123.457 2.200 6.491 o
-5 -2 -9 85.251 85.954 1.493 11.715 o
-5 -2 -8 61.582 66.075 1.951 15.017 o
-5 -2 -7 180.708 182.820 3.473 3.458 o
-5 -2 -6 228.482 225.975 3.736 2.481 o
-5 -2 -5 277.380 285.807 4.188 1.782 o
-5 -2 -4 16.460 15.216 0.708 86.319 o
-5 -2 -3 220.280 235.730 3.629 2.538 o
-5 -2 -2 130.071 131.377 2.019 6.301 o
-5 -2 -1 61.705 62.477 1.109 18.573 o
-5 -2 0 177.670 186.308 2.579 3.801 o
-5 -1 -15 8.318 9.180 1.294 81.661 o
-5 -1 -14 4.087 2.423 0.920 176.519 o
-5 -1 -13 116.300 107.826 2.766 6.752 o
-5 -1 -12 57.129 55.062 1.430 19.284 o
-5 -1 -11 15.835 14.813 0.781 85.343 o
-5 -1 -10 29.812 29.049 0.829 45.449 o
-5 -1 -9 88.325 83.410 1.674 11.181 o
-5 -1 -8 363.359 365.097 5.724 1.104 o
-5 -1 -7 73.506 80.511 1.481 13.599 o
-5 -1 -6 74.327 80.342 1.821 12.632 o
-5 -1 -5 175.825 174.702 3.396 3.642 o
-5 -1 -4 87.258 82.857 1.654 11.362 o
-5 -1 -3 395.008 415.725 6.288 0.925 o
-5 -1 -2 124.051 124.894 2.228 6.548 o
-5 -1 -1 563.252 574.968 8.173 0.505 o
-5 -1 0 186.422 187.040 2.479 3.655 o
-5 0 1 171.189 181.598 2.777 3.909 o
-5 0 2 262.200 239.689 3.396 2.163 o
-5 0 3 3.269 2.822 0.295 492.115 o
-5 0 4 210.328 199.667 3.151 2.984 o
-5 0 5 85.458 84.872 1.584 11.582 o
-5 0 6 11.361 9.322 0.597 132.197 o
-5 0 7 97.416 88.924 2.296 9.028 o
-5 0 8 2.279 3.533 0.620 318.496 o
-5 0 9 235.869 228.219 5.367 2.066 o
-5 0 10 321.227 325.189 8.707 1.047 o
-5 0 11 135.761 126.924 2.073 6.116 o
-5 0 12 85.597 88.406 1.470 11.579 o
-5 0 13 26.689 30.363 0.591 51.999 o
-5 0 14 37.412 40.693 0.801 34.474 o
-5 0 15 0.423 1.161 0.127 2396.060 o
-5 0 16 62.649 64.427 2.731 12.024 o
-5 1 1 87.499 81.795 1.411 11.844 o
-5 1 2 8.388 7.602 0.441 187.885 o
-5 1 3 203.174 196.147 2.686 3.232 o
-5 1 4 66.264 70.571 1.172 16.491 o
-5 1 5 5.117 4.872 0.412 289.721 o
-5 1 6 13.345 13.854 0.679 102.197 o
-5 1 7 63.084 55.923 1.487 17.563 o
-5 1 8 282.447 272.194 6.095 1.548 o
-5 1 9 264.614 286.208 12.265 0.882 o
-5 1 10 539.906 527.019 16.633 0.363 o
-5 1 11 127.959 121.205 2.274 6.416 o
-5 1 12 68.852 65.860 1.284 16.117 o
-5 1 13 7.819 8.672 0.385 196.038 o
-5 1 14 16.904 18.874 0.538 86.022 o
-5 1 15 47.935 45.038 0.971 26.439 o
-5 1 16 65.457 73.928 2.555 11.841 o
-5 1 17 9.207 9.899 0.608 145.380 o
-5 2 1 257.216 261.267 3.846 2.051 o
-5 2 2 48.415 49.247 0.993 25.247 o
-5 2 3 3.426 2.925 0.427 394.483 o
-5 2 4 19.705 20.682 0.687 70.846 o
-5 2 5 39.955 37.500 0.963 32.441 o
-5 2 6 17.800 16.727 0.672 81.451 o
-5 2 7 45.896 43.160 1.321 25.242 o
-5 2 8 112.401 114.226 3.427 6.031 o
-5 2 9 91.378 90.830 3.281 7.634 o
-5 2 10 71.343 65.880 1.611 14.675 o
-5 2 11 45.868 44.291 1.206 25.885 o
-5 2 12 35.636 38.584 0.969 34.762 o
-5 2 13 52.044 50.951 1.151 22.749 o
-5 2 14 50.188 50.051 1.082 23.924 o
-5 2 15 50.619 54.032 1.007 23.455 o
-5 2 16 5.195 3.762 0.172 378.053 o
-5 3 1 115.918 109.537 2.303 7.245 o
-5 3 2 14.112 15.927 0.742 91.364 o
-5 3 3 45.540 39.740 1.063 28.068 o
-5 3 4 40.317 41.868 1.487 26.283 o
-5 3 5 161.406 175.236 4.627 3.331 o
-5 3 6 48.468 47.306 1.449 22.708 o
-5 3 7 65.553 62.848 3.976 8.183 o
-5 3 8 15.471 15.295 0.858 81.766 o
-5 3 9 19.061 20.212 1.150 57.043 o
-5 3 10 126.290 130.966 3.164 5.523 o
-5 3 11 57.982 56.251 1.451 18.835 o
-5 3 12 3.842 4.373 0.502 306.601 o
-5 3 13 31.919 34.427 1.093 37.348 o
-5 3 14 16.218 15.366 0.638 90.202 o
-5 3 15 34.000 33.962 1.317 33.124 o
-5 4 1 139.737 126.878 4.167 4.413 o
-5 4 2 28.319 31.013 1.160 40.482 o
-5 4 3 2.395 1.772 0.454 483.460 o
-5 4 4 1.403 2.081 0.580 424.245 o
-5 4 5 142.913 132.002 2.473 5.477 o
-5 4 6 13.613 9.901 0.825 99.386 o
-5 4 7 15.827 13.859 0.842 83.687 o
-5 4 8 143.259 141.730 3.771 4.444 o
-5 4 9 38.319 37.580 1.356 29.391 o
-5 4 10 32.069 30.994 1.195 37.036 o
-5 4 11 3.968 4.885 0.798 194.941 o
-5 4 12 75.342 67.470 4.678 6.312 o
-5 4 13 31.224 35.961 1.179 36.104 o
-5 5 1 148.264 148.931 4.319 3.920 o
-5 5 2 38.316 38.422 1.407 28.662 o
-5 5 3 94.777 90.079 2.111 9.499 o
-5 5 4 44.935 49.368 1.556 22.750 o
-5 5 5 59.119 57.759 3.250 10.826 o
-5 5 6 22.612 25.748 2.108 28.985 o
-5 5 7 12.238 15.764 3.061 20.104 o
-5 5 8 16.371 17.807 1.610 46.495 o
-5 5 9 22.908 24.790 1.698 36.502 o
-5 5 10 73.112 70.180 2.900 10.287 o
-5 5 11 3.935 2.420 0.590 296.657 o
-5 6 1 3.945 3.451 0.840 193.578 o
-5 6 2 23.998 23.613 1.229 46.573 o
-5 6 3 76.490 85.671 2.725 9.859 o
-5 6 4 16.521 15.702 0.965 73.294 o
-5 6 5 27.269 24.588 1.446 38.595 o
-5 6 6 45.483 51.071 2.683 15.089 o
-5 6 7 0.335 -0.287 0.862 289.362 o
-4 -6 -8 2.719 1.721 0.483 435.729 o
-4 -6 -7 2.976 3.155 0.472 384.973 o
-4 -6 -6 41.871 36.411 2.970 14.907 o
-4 -6 -5 1.097 0.915 0.612 450.824 o
-4 -6 -4 15.321 14.795 1.097 70.624 o
-4 -6 -3 93.758 100.937 5.222 4.724 o
-4 -6 -2 130.058 126.621 4.675 4.237 o
-4 -6 -1 4.066 4.342 0.511 296.100 o
-4 -6 0 5.889 4.889 0.477 249.976 o
-4 -5 -11 11.424 9.484 0.444 144.791 o
-4 -5 -10 13.338 13.771 0.703 100.925 o
-4 -5 -9 9.195 9.166 0.653 143.183 o
-4 -5 -8 57.070 56.128 1.244 20.025 o
-4 -5 -7 94.771 90.265 1.999 9.682 o
-4 -5 -6 1.692 1.317 0.357 721.008 o
-4 -5 -5 38.964 39.446 0.955 32.522 o
-4 -5 -4 291.956 290.993 4.528 1.643 o
-4 -5 -3 99.585 100.531 1.715 9.305 o
-4 -5 -2 354.461 348.707 5.364 1.181 o
-4 -5 -1 22.734 23.743 0.642 62.617 o
-4 -5 0 7.551 8.500 0.449 192.169 o
-4 -4 -13 11.203 10.144 0.805 111.373 o
-4 -4 -12 45.386 50.879 1.193 24.874 o
-4 -4 -11 26.264 26.377 1.003 47.673 o
-4 -4 -10 182.824 175.933 3.385 3.513 o
-4 -4 -9 48.744 50.775 1.270 23.197 o
-4 -4 -8 108.327 107.027 1.872 8.246 o
-4 -4 -7 95.734 85.737 1.525 10.565 o
-4 -4 -6 301.417 289.078 4.128 1.638 o
-4 -4 -5 100.513 98.045 2.011 8.917 o
-4 -4 -4 67.510 68.759 1.266 16.151 o
-4 -4 -3 126.224 128.076 1.878 6.654 o
-4 -4 -2 386.117 388.141 4.975 1.047 o
-4 -4 -1 45.861 51.434 0.954 26.064 o
-4 -4 0 456.697 452.888 8.161 0.700 o
-4 -3 -15 15.833 17.174 0.862 77.975 o
-4 -3 -14 16.240 19.716 0.981 68.776 o
-4 -3 -13 20.073 20.499 0.785 67.165 o
-4 -3 -12 11.262 11.353 0.741 113.609 o
-4 -3 -11 47.629 45.422 1.302 24.311 o
-4 -3 -10 12.345 12.591 0.776 102.721 o
-4 -3 -9 241.146 239.199 3.773 2.289 o
-4 -3 -8 98.194 105.026 4.004 5.985 o
-4 -3 -7 34.841 35.914 1.251 32.886 o
-4 -3 -6 245.685 262.475 5.085 1.932 o
-4 -3 -5 458.082 466.400 6.571 0.742 o
-4 -3 -4 121.051 122.304 1.801 7.117 o
-4 -3 -3 85.367 84.838 1.349 12.027 o
-4 -3 -2 44.421 47.471 0.929 27.727 o
-4 -3 -1 297.157 288.558 4.312 1.644 o
-4 -3 0 321.899 330.511 4.544 1.399 o
-4 -2 -16 5.871 6.665 0.748 171.757 o
-4 -2 -15 1.014 1.536 0.450 655.355 o
-4 -2 -14 14.462 14.074 0.869 86.033 o
-4 -2 -13 4.510 4.761 0.726 207.668 o
-4 -2 -12 125.719 124.732 2.693 6.071 o
-4 -2 -11 123.108 129.205 2.707 6.074 o
-4 -2 -10 62.590 65.225 1.520 16.588 o
-4 -2 -9 143.548 140.133 2.634 5.217 o
-4 -2 -8 88.065 82.556 1.915 10.781 o
-4 -2 -7 128.335 128.426 2.440 6.111 o
-4 -2 -6 365.018 397.250 6.293 1.020 o
-4 -2 -5 132.441 126.865 2.004 6.307 o
-4 -2 -4 662.810 693.092 9.723 0.367 o
-4 -2 -3 233.228 223.044 3.330 2.528 o
-4 -2 -2 145.603 154.433 3.341 4.515 o
-4 -2 -1 119.594 133.242 2.469 6.349 o
-4 -2 0 350.135 381.398 5.501 1.134 o
-4 -1 -16 4.137 4.526 0.649 240.546 o
-4 -1 -15 60.125 63.631 2.083 14.899 o
-4 -1 -14 127.582 130.204 3.433 5.263 o
-4 -1 -13 9.743 10.546 1.048 95.303 o
-4 -1 -12 7.735 9.066 0.932 119.290 o
-4 -1 -11 1.534 1.933 0.487 517.428 o
-4 -1 -10 148.040 142.890 2.952 4.842 o
-4 -1 -9 196.972 193.952 3.380 3.149 o
-4 -1 -8 370.714 377.062 5.463 1.081 o
-4 -1 -7 3.848 3.446 0.361 392.411 o
-4 -1 -6 2.921 3.849 0.408 408.751 o
-4 -1 -5 2.030 1.853 0.320 673.370 o
-4 -1 -4 226.015 234.256 4.595 2.283 o
-4 -1 -3 225.193 242.900 3.967 2.383 o
-4 -1 -2 35.367 34.124 0.819 38.176 o
-4 -1 -1 112.998 120.040 1.896 7.537 o
-4 -1 0 230.663 245.075 3.490 2.411 o
-4 0 1 192.903 191.277 2.861 3.389 o
-4 0 2 72.714 79.078 1.326 14.201 o
-4 0 3 10.470 12.095 0.391 145.949 o
-4 0 4 7.443 8.118 0.334 213.481 o
-4 0 5 1028.010 988.297 13.768 0.172 o
-4 0 6 179.395 173.004 2.540 3.914 o
-4 0 7 372.682 341.235 6.302 1.075 o
-4 0 8 328.016 333.653 6.776 1.183 o
-4 0 9 510.406 503.583 11.301 0.513 o
-4 0 10 11.768 10.407 0.843 104.803 o
-4 0 11 91.530 87.787 3.337 7.606 o
-4 0 12 20.071 20.002 1.009 60.328 o
-4 0 13 171.941 162.458 2.668 4.142 o
-4 0 14 6.047 5.284 0.275 289.748 o
-4 0 15 2.123 2.822 0.500 424.851 o
-4 0 16 4.024 4.145 0.692 232.473 o
-4 0 17 93.420 95.094 4.662 5.436 o
-4 1 1 553.603 585.107 8.751 0.498 o
-4 1 2 310.232 325.348 4.892 1.432 o
-4 1 3 5.846 7.728 0.376 242.035 o
-4 1 4 85.194 87.503 1.353 11.881 o
-4 1 5 21.400 22.127 0.523 69.743 o
-4 1 6 179.178 169.263 3.092 3.751 o
-4 1 7 280.754 271.006 6.380 1.521 o
-4 1 8 268.592 257.068 5.343 1.765 o
-4 1 9 332.702 307.565 9.398 0.983 o
-4 1 10 161.964 157.741 5.416 3.074 o
-4 1 11 284.925 268.830 14.085 0.729 o
-4 1 12 137.202 123.064 3.299 5.193 o
-4 1 13 105.805 104.609 1.754 8.636 o
-4 1 14 21.883 21.442 0.550 68.798 o
-4 1 15 152.873 165.634 2.917 4.438 o
-4 1 16 50.381 49.035 0.893 25.045 o
-4 1 17 27.478 33.644 1.046 42.006 o
-4 1 18 7.251 8.177 1.114 103.123 o
-4 2 1 275.246 291.624 4.742 1.709 o
-4 2 2 34.467 35.301 0.815 38.468 o
-4 2 3 29.085 31.651 0.731 46.275 o
-4 2 4 89.932 90.431 1.420 11.079 o
-4 2 5 329.662 338.883 5.118 1.305 o
-4 2 6 30.900 30.563 0.745 44.727 o
-4 2 7 59.070 62.703 1.212 18.807 o
-4 2 8 10.929 10.551 0.588 131.759 o
-4 2 9 16.173 16.159 0.800 81.371 o
-4 2 10 251.117 255.768 8.846 1.322 o
-4 2 11 532.789 503.328 13.382 0.444 o
-4 2 12 52.373 54.051 1.196 21.910 o
-4 2 13 31.421 26.574 0.789 45.669 o
-4 2 14 112.039 116.487 2.072 7.514 o
-4 2 15 92.359 99.400 1.786 9.846 o
-4 2 16 1.915 2.014 0.207 828.812 o
-4 2 17 3.616 3.946 0.164 478.782 o
-4 3 1 8.345 9.261 0.576 160.093 o
-4 3 2 9.998 10.954 0.572 138.592 o
-4 3 3 24.898 23.740 0.659 58.475 o
-4 3 4 364.974 361.708 5.490 1.119 o
-4 3 5 3.458 3.502 0.455 362.455 o
-4 3 6 36.980 35.068 0.911 35.652 o
-4 3 7 92.660 86.376 1.791 10.394 o
-4 3 8 202.455 204.171 7.412 1.891 o
-4 3 9 30.504 27.515 1.440 35.472 o
-4 3 10 22.194 22.432 1.148 51.363 o
-4 3 11 2.779 2.921 0.562 344.715 o
-4 3 12 64.335 63.060 1.450 16.716 o
-4 3 13 29.958 30.884 0.930 42.836 o
-4 3 14 22.775 22.968 0.772 60.143 o
-4 3 15 6.103 8.306 0.503 206.515 o
-4 3 16 16.132 17.180 0.587 89.586 o
-4 4 1 194.224 195.105 4.278 2.897 o
-4 4 2 14.766 11.603 0.988 81.835 o
-4 4 3 79.477 74.784 1.739 12.545 o
-4 4 4 123.352 123.004 2.484 6.393 o
-4 4 5 49.241 50.415 1.453 21.956 o
-4 4 6 30.443 28.978 1.338 36.685 o
-4 4 7 41.800 42.823 1.227 27.762 o
-4 4 8 63.356 58.470 2.033 15.006 o
-4 4 9 32.326 32.395 1.364 33.957 o
-4 4 10 4.824 4.427 0.665 222.933 o
-4 4 11 83.672 84.946 2.252 10.373 o
-4 4 12 35.230 34.853 1.355 31.698 o
-4 4 13 127.585 136.534 2.790 5.699 o
-4 4 14 10.098 13.859 0.622 123.288 o
-4 4 15 28.246 39.094 2.970 16.571 o
-4 5 1 21.076 22.115 1.328 47.905 o
-4 5 2 133.203 132.972 2.859 5.512 o
-4 5 3 133.121 136.927 4.206 4.419 o
-4 5 4 87.965 87.314 2.006 10.387 o
-4 5 5 8.548 6.738 0.700 152.789 o
-4 5 6 98.406 101.110 2.764 7.825 o
-4 5 7 1.336 1.126 0.635 405.538 o
-4 5 8 285.372 291.605 5.972 1.505 o
-4 5 9 1.003 1.915 0.767 300.931 o
-4 5 10 54.081 56.291 2.061 16.631 o
-4 5 11 7.532 7.996 0.995 115.751 o
-4 5 12 18.936 15.580 1.003 66.600 o
-4 6 1 43.530 43.926 1.635 23.467 o
-4 6 2 24.839 24.327 1.192 46.187 o
-4 6 3 33.468 38.312 2.046 23.759 o
-4 6 4 14.440 14.790 1.097 72.584 o
-4 6 5 70.143 66.485 2.259 12.699 o
-4 6 6 33.081 32.147 1.622 30.083 o
-4 6 7 34.938 35.165 2.395 20.404 o
-4 6 8 24.930 23.380 1.821 33.366 o
-4 6 9 3.013 2.395 0.958 178.666 o
-3 -7 -4 10.142 6.428 0.649 147.174 o
-3 -7 -3 0.433 0.086 0.390 1181.410 o
-3 -7 -2 1.842 1.905 0.486 491.988 o
-3 -7 -1 18.079 10.264 1.588 49.273 o
-3 -7 0 24.826 23.439 1.203 46.409 o
-3 -6 -10 2.802 2.446 0.566 351.595 o
-3 -6 -9 2.929 4.531 0.393 396.969 o
-3 -6 -8 5.488 4.419 0.627 221.869 o
-3 -6 -7 85.052 77.422 2.116 10.895 o
-3 -6 -6 3.576 3.191 0.616 283.872 o
-3 -6 -5 36.684 37.279 1.186 32.165 o
-3 -6 -4 29.872 27.272 1.104 41.725 o
-3 -6 -3 1.035 1.248 0.430 712.814 o
-3 -6 -2 14.079 16.890 0.753 89.187 o
-3 -6 -1 32.772 35.517 0.837 39.516 o
-3 -6 0 14.209 12.774 0.604 105.396 o
-3 -5 -13 6.832 9.869 1.821 52.150 o
-3 -5 -12 15.920 18.136 0.590 88.538 o
-3 -5 -11 51.437 55.299 1.243 21.761 o
-3 -5 -10 78.079 75.457 1.635 12.937 o
-3 -5 -9 37.702 37.335 1.098 32.508 o
-3 -5 -8 108.900 102.439 2.210 7.948 o
-3 -5 -7 125.921 121.991 2.342 6.430 o
-3 -5 -6 6.967 6.939 0.449 213.731 o
-3 -5 -5 28.418 26.822 0.660 51.017 o
-3 -5 -4 19.952 20.955 0.629 71.692 o
-3 -5 -3 337.838 332.782 4.502 1.331 o
-3 -5 -2 10.778 13.396 0.807 105.486 o
-3 -5 -1 289.987 293.034 4.836 1.613 o
-3 -5 0 467.363 482.047 7.276 0.693 o
-3 -4 -15 6.518 6.995 0.671 177.500 o
-3 -4 -14 15.881 18.774 0.676 83.989 o
-3 -4 -13 63.563 67.009 1.862 14.969 o
-3 -4 -12 153.134 152.577 3.892 4.042 o
-3 -4 -11 27.887 28.154 0.945 46.029 o
-3 -4 -10 18.833 20.399 0.769 70.484 o
-3 -4 -9 336.890 312.815 5.677 1.282 o
-3 -4 -8 262.159 249.685 4.587 1.945 o
-3 -4 -7 264.876 258.261 5.969 1.688 o
-3 -4 -6 39.954 38.982 1.002 31.649 o
-3 -4 -5 43.025 48.408 1.146 26.643 o
-3 -4 -4 245.873 251.835 4.451 2.078 o
-3 -4 -3 107.595 105.377 1.653 8.598 o
-3 -4 -2 198.794 188.917 2.504 3.409 o
-3 -4 -1 17.451 15.879 0.502 90.563 o
-3 -4 0 55.723 54.496 0.953 21.919 o
-3 -3 -16 28.513 28.758 2.194 25.127 o
-3 -3 -15 32.677 35.760 1.101 36.207 o
-3 -3 -14 48.005 47.585 1.169 24.663 o
-3 -3 -13 134.094 133.761 2.361 5.842 o
-3 -3 -12 11.114 10.425 0.594 130.380 o
-3 -3 -11 113.070 114.131 1.934 7.666 o
-3 -3 -10 10.332 10.415 0.767 118.842 o
-3 -3 -9 72.228 74.669 1.522 14.114 o
-3 -3 -8 111.856 105.543 2.239 7.648 o
-3 -3 -7 122.980 123.382 2.087 6.753 o
-3 -3 -6 14.231 13.204 0.593 104.991 o
-3 -3 -5 30.746 30.491 0.726 45.184 o
-3 -3 -4 1.349 1.271 0.342 825.455 o
-3 -3 -3 29.612 30.588 0.747 46.063 o
-3 -3 -2 35.828 32.496 0.822 38.426 o
-3 -3 -1 184.475 193.647 3.221 3.395 o
-3 -3 0 111.869 109.755 2.010 7.785 o
-3 -2 -17 3.741 3.379 0.456 351.237 o
-3 -2 -16 14.004 13.605 0.736 96.431 o
-3 -2 -15 9.527 9.623 0.709 132.421 o
-3 -2 -14 190.978 192.028 3.711 3.145 o
-3 -2 -13 104.174 101.659 2.039 8.494 o
-3 -2 -12 72.391 77.918 1.509 13.881 o
-3 -2 -11 344.327 341.056 7.078 1.099 o
-3 -2 -10 40.695 37.841 0.804 33.239 o
-3 -2 -9 107.842 110.426 1.907 8.127 o
-3 -2 -8 54.381 56.973 1.158 21.052 o
-3 -2 -7 101.762 103.633 1.657 9.087 o
-3 -2 -6 24.608 26.582 0.657 56.691 o
-3 -2 -5 109.935 119.582 2.073 7.544 o
-3 -2 -4 436.194 475.367 8.039 0.718 o
-3 -2 -3 149.688 156.864 2.518 4.848 o
-3 -2 -2 514.974 522.964 8.840 0.564 o
-3 -2 -1 124.047 129.723 2.172 6.485 o
-3 -2 0 38.904 44.277 0.856 31.958 o
-3 -1 -17 41.044 41.822 1.417 26.637 o
-3 -1 -16 12.536 13.492 0.910 90.788 o
-3 -1 -15 250.855 249.837 5.172 1.925 o
-3 -1 -14 59.774 58.265 1.585 17.602 o
-3 -1 -13 2.198 1.398 0.958 195.054 o
-3 -1 -12 171.981 167.583 3.826 3.588 o
-3 -1 -11 540.688 529.560 8.491 0.542 o
-3 -1 -10 2.013 2.789 0.365 560.570 o
-3 -1 -9 54.890 49.684 0.991 22.811 o
-3 -1 -8 36.078 35.059 0.754 37.910 o
-3 -1 -7 241.709 245.847 4.677 2.092 o
-3 -1 -6 213.063 231.141 3.560 2.656 o
-3 -1 -5 565.515 603.094 8.526 0.484 o
-3 -1 -4 260.422 282.704 4.117 1.912 o
-3 -1 -3 500.532 523.251 6.895 0.629 o
-3 -1 -2 1104.820 1104.190 16.164 0.143 o
-3 -1 -1 1251.500 1243.050 16.517 0.116 o
-3 -1 0 180.630 177.404 2.381 3.896 o
-3 0 1 134.181 137.731 2.042 5.981 o
-3 0 2 51.527 60.371 0.971 22.246 o
-3 0 3 248.165 241.129 3.619 2.244 o
-3 0 4 44.396 43.822 0.663 30.255 o
-3 0 5 434.386 438.490 5.601 0.845 o
-3 0 6 308.188 299.278 4.220 1.566 o
-3 0 7 84.170 76.570 1.551 12.286 o
-3 0 8 18.442 17.552 0.695 77.600 o
-3 0 9 0.859 2.288 0.805 277.737 o
-3 0 10 9.298 8.314 1.294 80.255 o
-3 0 11 45.905 42.837 2.395 17.400 o
-3 0 12 208.403 202.644 11.642 1.113 o
-3 0 13 1.108 1.522 0.649 393.975 o
-3 0 14 2.944 1.963 0.240 614.091 o
-3 0 15 12.473 9.983 0.278 145.009 o
-3 0 16 50.752 53.270 1.165 22.720 o
-3 0 17 6.884 7.937 0.574 184.734 o
-3 0 18 33.799 39.514 2.764 17.207 o
-3 1 1 1460.640 1478.230 19.014 0.086 o
-3 1 2 35.844 42.460 0.711 35.702 o
-3 1 3 481.785 509.407 6.467 0.676 o
-3 1 4 1177.440 1204.340 15.220 0.129 o
-3 1 5 218.466 216.605 3.022 2.797 o
-3 1 6 409.489 414.505 5.883 0.912 o
-3 1 7 203.088 204.822 3.436 2.972 o
-3 1 8 565.787 569.483 9.472 0.480 o
-3 1 9 198.817 189.775 3.277 3.184 o
-3 1 10 105.569 96.823 3.016 7.196 o
-3 1 11 94.873 84.278 3.361 7.487 o
-3 1 12 122.336 122.972 6.084 3.402 o
-3 1 13 54.330 45.960 1.775 19.223 o
-3 1 14 14.435 13.449 0.464 110.456 o
-3 1 15 44.410 45.662 0.906 28.309 o
-3 1 16 62.732 66.504 1.308 17.200 o
-3 1 17 14.282 13.371 0.332 117.677 o
-3 1 18 19.953 20.991 0.985 60.489 o
-3 2 1 348.564 393.536 5.265 1.134 o
-3 2 2 926.812 994.928 14.351 0.189 o
-3 2 3 347.185 382.256 5.249 1.158 o
-3 2 4 350.321 366.361 5.277 1.172 o
-3 2 5 187.416 205.536 3.294 3.232 o
-3 2 6 310.839 316.097 4.800 1.459 o
-3 2 7 60.417 52.868 0.947 20.764 o
-3 2 8 151.392 145.763 2.391 5.030 o
-3 2 9 106.320 106.931 1.966 8.269 o
-3 2 10 53.122 50.462 1.421 21.006 o
-3 2 11 445.218 418.230 7.673 0.764 o
-3 2 12 59.497 55.480 2.643 13.197 o
-3 2 13 14.997 15.257 0.646 94.477 o
-3 2 14 5.975 4.465 0.480 252.064 o
-3 2 15 1.054 0.895 0.330 995.198 o
-3 2 16 9.527 8.965 0.456 164.063 o
-3 2 17 3.507 4.076 0.280 433.778 o
-3 2 18 27.472 32.135 0.894 45.249 o
-3 3 1 118.526 117.387 2.095 7.117 o
-3 3 2 8.972 5.599 0.410 198.434 o
-3 3 3 90.746 92.756 1.474 10.791 o
-3 3 4 82.209 83.529 1.484 12.236 o
-3 3 5 286.660 288.681 5.462 1.568 o
-3 3 6 28.172 27.449 0.717 50.039 o
-3 3 7 43.627 43.790 1.039 28.198 o
-3 3 8 103.464 104.533 1.861 8.674 o
-3 3 9 217.376 209.078 4.235 2.568 o
-3 3 10 21.387 18.693 0.921 62.050 o
-3 3 11 165.289 170.990 3.549 3.803 o
-3 3 12 17.400 15.099 0.783 80.208 o
-3 3 13 34.810 38.628 0.947 35.544 o
-3 3 14 22.786 27.453 0.781 56.294 o
-3 3 15 11.755 12.925 0.609 117.321 o
-3 3 16 13.085 12.708 0.540 115.273 o
-3 3 17 1.724 1.094 0.266 906.698 o
-3 4 1 182.502 182.938 3.566 3.393 o
-3 4 2 424.808 427.937 7.880 0.781 o
-3 4 3 173.721 164.117 2.759 4.047 o
-3 4 4 102.713 101.359 2.063 8.572 o
-3 4 5 41.842 37.626 0.988 31.096 o
-3 4 6 234.422 243.762 4.057 2.277 o
-3 4 7 317.692 303.393 6.416 1.302 o
-3 4 8 21.313 22.857 1.135 52.549 o
-3 4 9 324.444 317.867 6.128 1.278 o
-3 4 10 69.282 70.873 1.529 14.857 o
-3 4 11 108.248 105.050 2.449 7.608 o
-3 4 12 104.232 108.929 2.469 7.698 o
-3 4 13 20.781 22.827 1.108 54.071 o
-3 4 14 18.819 20.516 0.836 68.054 o
-3 4 15 5.556 4.227 0.469 268.754 o
-3 5 1 223.149 221.773 10.627 1.197 o
-3 5 2 167.344 167.735 4.174 3.507 o
-3 5 3 326.866 323.769 7.639 1.127 o
-3 5 4 108.263 104.928 2.151 7.984 o
-3 5 5 13.293 13.846 0.740 98.521 o
-3 5 6 0.507 0.738 0.472 768.518 o
-3 5 7 178.295 179.238 4.022 3.312 o
-3 5 8 368.012 361.920 8.325 0.928 o
-3 5 9 71.311 76.192 2.017 12.722 o
-3 5 10 89.596 86.205 5.458 4.696 o
-3 5 11 27.626 30.220 1.510 35.288 o
-3 5 12 26.689 23.917 1.629 35.733 o
-3 5 13 23.589 24.988 2.268 26.361 o
-3 6 1 14.331 13.937 1.033 77.305 o
-3 6 2 21.445 23.188 1.086 53.556 o
-3 6 3 5.823 6.516 0.704 182.331 o
-3 6 4 1.591 1.152 0.548 476.324 o
-3 6 5 12.000 9.747 1.269 73.852 o
-3 6 6 32.285 32.771 1.346 34.127 o
-3 6 7 98.931 103.892 4.120 5.832 o
-3 6 8 13.122 13.702 1.629 51.262 o
-3 6 9 24.378 20.313 1.821 34.514 o
-3 6 10 12.999 13.415 1.437 59.679 o
-3 7 1 3.106 2.940 0.730 250.201 o
-3 7 2 1.485 1.333 0.595 428.188 o
-3 7 3 13.542 13.164 0.983 83.371 o
-3 7 4 17.265 16.977 1.032 67.309 o
-3 7 5 13.909 15.117 1.152 70.542 o
-2 -7 -6 9.149 7.463 0.618 155.503 o
-2 -7 -5 50.950 37.029 1.499 23.213 o
-2 -7 -4 34.873 38.106 2.006 23.771 o
-2 -7 -3 20.593 21.957 1.024 57.461 o
-2 -7 -2 39.587 41.144 1.893 22.938 o
-2 -7 -1 41.061 42.710 2.632 16.687 o
-2 -7 0 7.044 7.856 0.653 169.726 o
-2 -6 -11 12.773 14.230 0.497 115.459 o
-2 -6 -10 85.304 87.225 2.185 10.271 o
-2 -6 -9 40.556 48.353 1.093 28.159 o
-2 -6 -8 52.466 50.364 1.335 21.696 o
-2 -6 -7 18.960 18.809 1.061 61.391 o
-2 -6 -6 23.074 20.633 0.624 65.398 o
-2 -6 -5 13.116 14.793 0.612 105.344 o
-2 -6 -4 29.033 29.284 0.819 46.326 o
-2 -6 -3 13.585 11.825 0.773 99.266 o
-2 -6 -2 45.276 50.432 1.175 25.122 o
-2 -6 -1 47.920 48.572 1.112 24.861 o
-2 -6 0 11.628 10.932 0.537 129.985 o
-2 -5 -13 14.570 14.547 0.613 99.375 o
-2 -5 -12 0.659 0.835 0.289 1341.110 o
-2 -5 -11 8.882 9.974 0.583 150.746 o
-2 -5 -10 68.311 64.750 1.387 16.006 o
-2 -5 -9 79.420 73.891 1.495 13.199 o
-2 -5 -8 117.790 110.186 2.185 7.255 o
-2 -5 -7 16.534 17.477 0.785 79.228 o
-2 -5 -6 42.217 35.849 0.920 31.967 o
-2 -5 -5 49.505 46.476 1.709 20.780 o
-2 -5 -4 9.858 8.302 0.545 154.021 o
-2 -5 -3 26.421 27.730 0.744 51.661 o
-2 -5 -2 41.774 40.235 0.909 31.055 o
-2 -5 -1 133.264 143.440 2.232 5.780 o
-2 -5 0 22.308 25.508 0.645 61.715 o
-2 -4 -15 16.602 16.718 1.389 54.365 o
-2 -4 -14 13.977 14.730 0.728 94.821 o
-2 -4 -13 88.017 87.820 2.860 8.679 o
-2 -4 -12 73.015 67.993 1.336 15.029 o
-2 -4 -11 117.590 117.113 2.546 6.719 o
-2 -4 -10 91.195 93.668 1.599 10.505 o
-2 -4 -9 66.344 65.284 1.384 16.338 o
-2 -4 -8 110.829 108.555 2.315 7.531 o
-2 -4 -7 55.538 54.177 1.234 20.762 o
-2 -4 -6 113.813 113.918 2.217 7.333 o
-2 -4 -5 177.122 171.485 2.641 3.942 o
-2 -4 -4 135.135 131.955 2.013 6.079 o
-2 -4 -3 94.057 94.077 1.540 10.305 o
-2 -4 -2 108.851 115.429 1.605 8.218 o
-2 -4 -1 368.611 387.808 4.842 1.105 o
-2 -4 0 185.970 188.182 2.444 3.663 o
-2 -3 -17 27.208 26.751 1.562 35.728 o
-2 -3 -16 16.182 17.107 0.665 86.140 o
-2 -3 -15 1.289 1.619 0.336 810.804 o
-2 -3 -14 2.753 3.015 0.329 505.791 o
-2 -3 -13 7.269 7.536 0.493 196.302 o
-2 -3 -12 80.991 83.570 1.623 12.094 o
-2 -3 -11 58.215 56.461 1.756 17.324 o
-2 -3 -10 49.864 51.700 1.272 22.665 o
-2 -3 -9 61.926 59.480 2.069 15.000 o
-2 -3 -8 280.454 269.824 4.086 1.825 o
-2 -3 -7 18.405 19.527 0.524 80.791 o
-2 -3 -6 28.841 27.506 0.650 50.186 o
-2 -3 -5 276.075 273.932 4.213 1.824 o
-2 -3 -4 22.424 22.380 0.702 63.041 o
-2 -3 -3 148.190 158.706 2.535 4.856 o
-2 -3 -2 161.592 185.044 2.874 4.035 o
-2 -3 -1 331.956 332.030 4.759 1.337 o
-2 -3 0 48.827 52.348 0.875 25.098 o
-2 -2 -18 54.322 49.949 2.717 13.830 o
-2 -2 -17 12.248 14.165 0.632 109.710 o
-2 -2 -16 0.828 0.250 0.287 1432.700 o
-2 -2 -15 19.786 19.889 0.819 67.298 o
-2 -2 -14 81.034 79.511 1.928 11.634 o
-2 -2 -13 121.063 120.004 2.600 6.447 o
-2 -2 -12 326.073 334.574 7.877 1.094 o
-2 -2 -11 287.032 292.932 5.951 1.497 o
-2 -2 -10 140.313 135.344 2.614 5.413 o
-2 -2 -9 87.893 88.899 1.377 11.452 o
-2 -2 -8 36.371 37.211 0.723 37.147 o
-2 -2 -7 25.270 27.158 0.631 55.709 o
-2 -2 -6 7.812 9.025 0.441 186.043 o
-2 -2 -5 49.812 53.344 0.907 24.366 o
-2 -2 -4 21.836 27.173 0.594 62.158 o
-2 -2 -3 63.880 59.246 1.046 18.649 o
-2 -2 -2 116.231 112.681 1.876 7.582 o
-2 -2 -1 197.104 192.596 2.836 3.316 o
-2 -2 0 357.821 359.582 5.044 1.173 o
-2 -1 -18 34.189 37.214 1.068 35.082 o
-2 -1 -17 21.465 23.819 0.882 58.730 o
-2 -1 -16 26.166 27.322 1.081 45.669 o
-2 -1 -15 72.319 72.341 1.874 13.261 o
-2 -1 -14 98.059 98.827 2.485 8.344 o
-2 -1 -13 451.922 462.467 18.924 0.365 o
-2 -1 -12 444.149 431.602 7.874 0.746 o
-2 -1 -11 171.353 165.712 4.295 3.405 o
-2 -1 -10 29.407 29.028 0.627 48.855 o
-2 -1 -9 411.235 414.226 5.011 0.945 o
-2 -1 -8 238.082 223.258 2.896 2.552 o
-2 -1 -7 338.558 343.266 4.503 1.307 o
-2 -1 -6 472.820 483.443 6.175 0.717 o
-2 -1 -5 254.659 267.042 3.660 2.075 o
-2 -1 -4 642.917 639.648 8.881 0.406 o
-2 -1 -3 177.134 176.280 2.533 3.930 o
-2 -1 -2 200.171 195.199 2.380 3.364 o
-2 -1 -1 924.259 940.897 9.938 0.215 o
-2 -1 0 190.236 191.789 2.268 3.598 o
-2 0 1 1336.120 1269.740 14.346 0.110 o
-2 0 2 4555.930 4348.290 45.889 0.010 o
-2 0 3 2057.490 1995.940 24.126 0.046 o
-2 0 4 2925.890 2672.020 33.600 0.024 o
-2 0 5 255.219 239.106 3.743 2.172 o
-2 0 6 2209.140 2304.340 33.490 0.036 o
-2 0 7 413.082 424.202 11.158 0.657 o
-2 0 8 1.056 0.430 0.203 1605.240 o
-2 0 9 1.960 1.425 0.479 510.859 o
-2 0 10 60.373 60.174 3.929 8.625 o
-2 0 11 374.653 352.579 11.398 0.738 o
-2 0 12 0.336 0.274 0.814 318.215 o
-2 0 13 0.957 4.886 0.798 247.178 o
-2 0 14 18.139 18.943 0.651 78.159 o
-2 0 15 112.348 92.677 1.704 8.654 o
-2 0 16 17.733 19.795 0.423 85.450 o
-2 0 17 0.050 0.197 0.178 5152.120 o
-2 0 18 3.025 3.525 0.538 335.481 o
-2 0 19 5.390 5.833 0.767 178.288 o
-2 1 1 1263.300 1232.330 14.065 0.120 o
-2 1 2 1685.750 1632.440 19.168 0.069 o
-2 1 3 690.557 684.064 9.517 0.356 o
-2 1 4 953.595 930.882 12.811 0.197 o
-2 1 5 1641.250 1606.060 26.815 0.064 o
-2 1 6 431.698 407.448 6.128 0.862 o
-2 1 7 220.969 230.592 3.754 2.531 o
-2 1 8 750.188 757.355 12.165 0.286 o
-2 1 9 1067.370 1027.750 17.067 0.150 o
-2 1 10 176.173 160.130 3.793 3.595 o
-2 1 11 16.850 17.933 0.881 73.641 o
-2 1 12 0.777 0.915 0.643 438.651 o
-2 1 13 225.571 217.484 7.488 1.722 o
-2 1 14 75.542 68.013 1.246 14.835 o
-2 1 15 20.207 20.652 0.596 72.403 o
-2 1 16 17.448 18.964 0.500 85.389 o
-2 1 17 6.427 7.960 0.360 230.228 o
-2 1 18 0.295 0.072 0.119 5664.030 o
-2 1 19 13.715 14.564 2.012 38.156 o
-2 2 1 207.778 208.831 2.864 3.026 o
-2 2 2 536.070 552.551 7.016 0.567 o
-2 2 3 259.782 254.860 3.475 2.109 o
-2 2 4 828.381 866.877 13.529 0.232 o
-2 2 5 106.069 101.457 1.797 8.678 o
-2 2 6 30.558 28.801 0.716 46.438 o
-2 2 7 101.076 90.552 1.655 9.673 o
-2 2 8 220.478 223.132 3.255 2.684 o
-2 2 9 7.760 8.237 0.514 181.415 o
-2 2 10 82.273 82.975 1.864 11.460 o
-2 2 11 72.640 69.842 1.790 13.637 o
-2 2 12 464.638 440.659 28.863 0.205 o
-2 2 13 31.365 25.069 2.091 26.080 o
-2 2 14 6.961 7.484 0.542 192.521 o
-2 2 15 0.685 0.649 0.345 1134.630 o
-2 2 16 17.226 17.704 0.616 83.909 o
-2 2 17 4.908 5.150 0.368 305.684 o
-2 2 18 38.311 42.014 0.816 33.334 o
-2 3 1 606.700 607.815 8.511 0.449 o
-2 3 2 160.543 159.133 2.397 4.578 o
-2 3 3 396.736 422.614 5.698 0.941 o
-2 3 4 164.593 154.441 2.367 4.546 o
-2 3 5 182.272 182.711 2.882 3.644 o
-2 3 6 332.393 335.217 5.751 1.251 o
-2 3 7 17.291 20.628 0.684 76.971 o
-2 3 8 15.834 14.132 0.604 95.567 o
-2 3 9 237.758 245.317 4.100 2.233 o
-2 3 10 35.399 34.404 1.954 24.734 o
-2 3 11 83.665 84.756 2.123 10.663 o
-2 3 12 119.874 113.640 2.181 7.061 o
-2 3 13 85.177 89.333 1.793 10.973 o
-2 3 14 15.131 14.064 0.670 94.996 o
-2 3 15 12.824 11.731 0.580 116.735 o
-2 3 16 59.211 67.746 1.418 17.406 o
-2 3 17 20.526 24.982 0.994 56.162 o
-2 4 1 223.352 228.214 5.060 2.228 o
-2 4 2 30.808 35.232 0.835 41.370 o
-2 4 3 94.133 93.346 1.938 9.709 o
-2 4 4 29.835 29.813 0.817 45.212 o
-2 4 5 227.381 236.932 3.664 2.451 o
-2 4 6 266.116 269.883 4.468 1.868 o
-2 4 7 543.335 533.929 9.097 0.524 o
-2 4 8 520.689 535.899 10.822 0.503 o
-2 4 9 122.867 130.023 3.299 5.531 o
-2 4 10 272.179 269.068 5.267 1.721 o
-2 4 11 93.346 94.915 2.276 9.141 o
-2 4 12 95.300 99.701 2.167 9.001 o
-2 4 13 63.760 68.844 1.638 15.605 o
-2 4 14 59.647 61.913 1.597 17.198 o
-2 4 15 42.556 43.579 1.024 28.879 o
-2 4 16 23.342 25.281 0.695 59.022 o
-2 5 1 287.265 266.147 5.737 1.586 o
-2 5 2 470.027 488.740 9.732 0.606 o
-2 5 3 105.779 107.642 2.526 7.573 o
-2 5 4 404.529 388.533 12.513 0.627 o
-2 5 5 90.432 82.381 3.907 6.813 o
-2 5 6 100.806 100.197 1.811 9.094 o
-2 5 7 66.517 67.140 1.535 15.629 o
-2 5 8 20.966 22.153 0.798 63.405 o
-2 5 9 124.777 127.946 2.704 6.036 o
-2 5 10 25.771 24.022 1.033 48.939 o
-2 5 11 2.316 2.920 0.655 308.220 o
-2 5 12 1.335 1.765 0.818 265.072 o
-2 5 13 36.076 39.581 1.829 24.936 o
-2 5 14 13.623 13.031 1.176 72.125 o
-2 6 1 78.674 82.456 1.957 11.663 o
-2 6 2 435.198 440.675 8.315 0.736 o
-2 6 3 204.929 206.623 4.557 2.625 o
-2 6 4 17.125 17.656 0.875 73.549 o
-2 6 5 54.244 58.123 1.618 18.680 o
-2 6 6 234.512 236.736 6.399 1.840 o
-2 6 7 22.655 23.481 1.014 53.649 o
-2 6 8 57.208 59.510 2.125 15.506 o
-2 6 9 33.360 32.919 1.916 26.126 o
-2 6 10 29.425 26.389 1.456 36.287 o
-2 6 11 45.544 42.458 3.066 13.587 o
-2 7 1 24.204 27.270 1.177 45.671 o
-2 7 2 11.035 11.449 0.935 98.151 o
-2 7 3 66.761 66.694 2.047 13.842 o
-2 7 4 9.416 9.770 1.013 101.130 o
-2 7 5 8.861 8.534 0.744 136.991 o
-2 7 6 1.778 1.841 0.475 512.424 o
-2 7 7 5.269 5.845 1.437 81.916 o
-1 -7 -7 10.565 12.807 0.586 126.763 o
-1 -7 -6 11.801 9.646 0.750 114.497 o
-1 -7 -5 62.255 65.271 1.838 15.415 o
-1 -7 -4 28.955 29.524 0.962 43.942 o
-1 -7 -3 12.787 11.361 0.688 110.009 o
-1 -7 -2 27.968 25.761 1.611 34.706 o
-1 -7 -1 7.611 8.729 0.835 133.393 o
-1 -7 0 3.673 3.446 0.669 255.808 o
-1 -6 -11 14.403 14.983 0.622 98.653 o
-1 -6 -10 26.483 27.055 0.759 51.753 o
-1 -6 -9 38.498 40.921 0.923 32.642 o
-1 -6 -8 50.669 46.972 1.188 23.687 o
-1 -6 -7 21.594 20.892 0.629 68.085 o
-1 -6 -6 131.247 126.380 2.490 5.995 o
-1 -6 -5 70.871 72.593 1.310 15.073 o
-1 -6 -4 41.863 37.732 0.794 32.630 o
-1 -6 -3 93.383 96.873 1.464 10.345 o
-1 -6 -2 10.216 9.785 0.587 139.990 o
-1 -6 -1 48.200 46.967 0.987 25.829 o
-1 -6 0 4.601 3.015 0.445 328.127 o
-1 -5 -14 58.858 54.616 2.395 14.398 o
-1 -5 -13 5.925 5.241 0.400 264.825 o
-1 -5 -12 6.895 8.144 0.479 199.792 o
-1 -5 -11 13.394 14.428 0.686 100.346 o
-1 -5 -10 143.540 142.380 2.897 5.012 o
-1 -5 -9 3.741 4.037 0.403 362.484 o
-1 -5 -8 9.654 9.359 0.524 153.344 o
-1 -5 -7 124.513 119.285 2.072 6.791 o
-1 -5 -6 156.860 141.201 2.892 4.661 o
-1 -5 -5 14.383 15.684 0.693 93.480 o
-1 -5 -4 39.436 43.356 1.049 30.323 o
-1 -5 -3 250.698 239.583 3.264 2.284 o
-1 -5 -2 24.417 23.183 0.603 60.904 o
-1 -5 -1 64.755 63.772 1.351 16.912 o
-1 -5 0 186.013 199.618 2.760 3.465 o
-1 -4 -16 52.980 50.271 3.967 9.166 o
-1 -4 -15 25.987 25.092 0.954 49.752 o
-1 -4 -14 93.249 95.348 2.193 9.272 o
-1 -4 -13 52.992 51.752 1.027 22.931 o
-1 -4 -12 191.742 193.229 3.609 3.159 o
-1 -4 -11 29.053 26.490 0.732 49.291 o
-1 -4 -10 17.825 17.061 0.618 83.013 o
-1 -4 -9 18.377 17.993 1.006 65.220 o
-1 -4 -8 121.504 117.831 2.149 6.904 o
-1 -4 -7 88.291 86.660 1.861 10.666 o
-1 -4 -6 16.459 18.187 0.532 88.887 o
-1 -4 -5 222.928 224.750 3.190 2.660 o
-1 -4 -4 106.044 107.409 1.565 8.731 o
-1 -4 -3 28.900 26.228 0.686 50.373 o
-1 -4 -2 73.340 67.965 1.216 15.292 o
-1 -4 -1 631.035 653.442 9.210 0.405 o
-1 -4 0 359.831 394.329 5.340 1.094 o
-1 -3 -17 1.135 1.353 0.351 848.585 o
-1 -3 -16 18.491 22.877 0.977 61.611 o
-1 -3 -15 7.335 6.545 0.544 193.540 o
-1 -3 -14 1.115 1.783 0.229 1076.130 o
-1 -3 -13 104.810 102.990 1.856 8.641 o
-1 -3 -12 109.246 109.161 1.740 8.261 o
-1 -3 -11 130.191 123.645 2.832 5.802 o
-1 -3 -10 29.634 30.641 1.065 41.117 o
-1 -3 -9 38.651 39.447 1.210 30.255 o
-1 -3 -8 22.470 21.333 0.661 64.989 o
-1 -3 -7 102.767 111.372 1.766 8.598 o
-1 -3 -6 194.572 197.673 2.824 3.320 o
-1 -3 -5 228.156 212.709 3.156 2.676 o
-1 -3 -4 9.446 11.885 0.451 151.019 o
-1 -3 -3 831.443 888.257 13.578 0.228 o
-1 -3 -2 376.578 378.263 5.684 1.050 o
-1 -3 -1 737.792 746.925 10.475 0.308 o
-1 -3 0 7.174 10.240 0.412 190.499 o
-1 -2 -18 7.774 7.015 0.673 163.130 o
-1 -2 -17 76.441 75.137 2.282 11.458 o
-1 -2 -16 31.623 31.603 1.063 39.080 o
-1 -2 -15 141.794 138.699 2.886 5.126 o
-1 -2 -14 43.616 44.298 1.024 28.191 o
-1 -2 -13 313.472 302.175 7.891 1.173 o
-1 -2 -12 78.942 82.343 1.930 11.704 o
-1 -2 -11 8.687 10.605 0.764 128.575 o
-1 -2 -10 177.893 176.984 3.484 3.550 o
-1 -2 -9 13.794 15.143 0.501 107.535 o
-1 -2 -8 6.421 6.202 0.418 237.586 o
-1 -2 -7 21.130 20.604 0.467 73.479 o
-1 -2 -6 404.640 417.154 5.182 0.951 o
-1 -2 -5 68.311 63.535 0.973 17.346 o
-1 -2 -4 151.626 152.489 2.256 4.992 o
-1 -2 -3 76.040 77.627 1.396 13.644 o
-1 -2 -2 1734.460 1770.610 23.863 0.060 o
-1 -2 -1 577.433 569.879 7.990 0.498 o
-1 -2 0 123.342 107.811 1.595 7.561 o
-1 -1 -18 25.129 24.355 0.634 58.087 o
-1 -1 -17 85.756 83.086 2.843 9.018 o
-1 -1 -16 16.217 16.992 0.615 88.428 o
-1 -1 -15 100.296 93.975 2.037 9.044 o
-1 -1 -14 109.149 103.970 2.250 7.837 o
-1 -1 -13 207.431 200.398 4.212 2.729 o
-1 -1 -12 27.528 26.999 0.888 48.122 o
-1 -1 -11 248.171 247.584 4.308 2.101 o
-1 -1 -10 573.791 593.031 8.598 0.480 o
-1 -1 -9 355.274 358.838 5.404 1.159 o
-1 -1 -8 38.755 37.181 0.665 35.866 o
-1 -1 -7 1001.950 986.407 11.646 0.185 o
-1 -1 -6 319.040 320.931 4.015 1.476 o
-1 -1 -5 408.369 401.920 5.439 0.949 o
-1 -1 -4 296.116 300.484 3.971 1.651 o
-1 -1 -3 5111.470 4975.120 51.951 0.008 o
-1 -1 -2 2851.780 2646.240 31.585 0.025 o
-1 -1 -1 1098.240 1087.810 12.773 0.155 o
-1 -1 0 1974.100 1866.490 21.774 0.052 o
-1 0 1 1641.940 1618.240 18.568 0.072 o
-1 0 2 1104.870 1059.940 11.196 0.160 o
-1 0 3 146.852 139.955 1.650 5.666 o
-1 0 4 1730.960 1659.200 19.309 0.066 o
-1 0 5 507.066 519.737 8.050 0.595 o
-1 0 6 1.250 0.726 0.132 1578.330 o
-1 0 7 4005.350 3985.610 54.901 0.012 o
-1 0 8 1467.320 1525.890 25.206 0.076 o
-1 0 9 93.240 100.773 2.419 8.702 o
-1 0 10 34.730 35.114 0.998 36.267 o
-1 0 11 689.195 648.256 14.380 0.308 o
-1 0 12 123.203 119.446 2.861 6.118 o
-1 0 13 30.612 32.762 1.682 30.302 o
-1 0 14 0.820 1.006 0.542 563.311 o
-1 0 15 34.351 41.397 0.879 35.605 o
-1 0 16 12.085 13.960 0.486 120.950 o
-1 0 17 1.623 0.771 0.197 1151.950 o
-1 0 18 23.749 26.768 0.820 54.510 o
-1 0 19 2.538 2.300 0.479 431.674 o
-1 1 1 2704.380 2598.200 28.265 0.028 o
-1 1 2 810.489 766.887 8.421 0.289 o
-1 1 3 846.565 789.805 8.116 0.272 o
-1 1 4 566.130 574.277 7.011 0.524 o
-1 1 5 221.650 210.259 3.361 2.723 o
-1 1 6 473.399 482.683 8.231 0.654 o
-1 1 7 34.483 39.582 0.788 37.067 o
-1 1 8 485.989 526.085 9.408 0.578 o
-1 1 9 117.488 108.595 1.991 7.513 o
-1 1 10 136.985 129.566 2.837 5.458 o
-1 1 11 55.827 54.794 1.101 21.205 o
-1 1 12 211.502 193.159 5.235 2.436 o
-1 1 13 79.558 75.177 2.389 10.871 o
-1 1 14 63.610 59.443 2.076 14.717 o
-1 1 15 12.165 12.117 0.612 117.057 o
-1 1 16 181.825 166.995 2.754 3.850 o
-1 1 17 12.303 14.269 0.449 120.967 o
-1 1 18 26.753 26.921 0.654 53.307 o
-1 1 19 0.243 0.786 0.201 2507.970 o
-1 2 1 164.846 159.402 1.900 4.662 o
-1 2 2 530.212 549.880 6.674 0.582 o
-1 2 3 645.107 628.068 7.655 0.424 o
-1 2 4 253.364 265.945 3.770 2.074 o
-1 2 5 244.628 235.788 3.378 2.340 o
-1 2 6 296.856 296.457 5.062 1.545 o
-1 2 7 863.627 829.570 13.118 0.230 o
-1 2 8 5.023 4.144 0.366 320.294 o
-1 2 9 297.408 303.199 4.595 1.575 o
-1 2 10 90.499 89.371 1.901 10.260 o
-1 2 11 130.179 130.118 2.710 5.786 o
-1 2 12 54.820 52.657 1.717 18.660 o
-1 2 13 62.017 60.037 2.294 14.020 o
-1 2 14 142.924 138.648 2.314 5.465 o
-1 2 15 42.444 46.311 1.034 28.197 o
-1 2 16 14.583 15.230 0.614 97.834 o
-1 2 17 2.002 1.960 0.348 632.801 o
-1 2 18 20.846 20.493 0.566 71.893 o
-1 3 1 77.980 81.461 1.239 13.426 o
-1 3 2 134.595 136.635 1.991 6.020 o
-1 3 3 275.272 290.154 4.177 1.782 o
-1 3 4 169.699 164.911 2.362 4.288 o
-1 3 5 175.647 189.487 2.776 3.742 o
-1 3 6 134.378 135.059 2.286 5.860 o
-1 3 7 118.509 124.221 2.298 6.756 o
-1 3 8 84.849 87.389 1.672 11.342 o
-1 3 9 236.445 238.537 3.968 2.299 o
-1 3 10 453.141 438.958 10.414 0.631 o
-1 3 11 193.613 200.231 6.457 2.206 o
-1 3 12 42.665 44.688 1.598 23.937 o
-1 3 13 9.904 9.722 0.737 126.603 o
-1 3 14 88.165 86.096 1.881 10.668 o
-1 3 15 98.721 103.977 1.840 9.069 o
-1 3 16 7.548 6.308 0.537 193.361 o
-1 3 17 91.491 101.322 2.038 9.436 o
-1 4 1 354.265 385.094 5.586 1.110 o
-1 4 2 285.953 305.293 4.419 1.648 o
-1 4 3 120.777 117.040 1.842 7.237 o
-1 4 4 98.871 99.845 1.599 9.544 o
-1 4 5 80.459 89.025 1.635 11.812 o
-1 4 6 138.965 148.551 2.607 5.246 o
-1 4 7 77.460 77.022 1.541 13.143 o
-1 4 8 38.481 37.675 1.064 32.293 o
-1 4 9 205.741 212.610 4.289 2.659 o
-1 4 10 36.189 38.250 1.491 28.781 o
-1 4 11 31.919 31.808 1.039 39.113 o
-1 4 12 62.023 63.488 1.409 17.296 o
-1 4 13 45.441 40.857 1.147 27.228 o
-1 4 14 1.264 0.437 0.476 654.095 o
-1 4 15 150.176 148.787 2.795 4.795 o
-1 4 16 53.409 56.993 2.510 14.460 o
-1 5 1 12.923 12.196 0.840 96.515 o
-1 5 2 103.687 108.798 2.511 7.676 o
-1 5 3 52.675 49.986 2.258 16.390 o
-1 5 4 17.899 17.843 0.874 71.591 o
-1 5 5 348.950 342.828 7.308 1.067 o
-1 5 6 8.246 8.981 0.981 111.323 o
-1 5 7 35.689 37.237 0.918 35.729 o
-1 5 8 133.046 131.362 2.258 6.004 o
-1 5 9 204.267 217.530 3.298 2.908 o
-1 5 10 9.296 11.057 0.866 112.936 o
-1 5 11 27.328 27.026 1.020 45.816 o
-1 5 12 9.783 8.139 0.934 110.919 o
-1 5 13 51.860 55.972 2.987 12.563 o
-1 5 14 65.386 62.451 2.926 11.191 o
-1 6 1 144.946 155.366 2.868 4.805 o
-1 6 2 139.559 141.647 3.285 4.872 o
-1 6 3 30.826 33.040 1.081 38.881 o
-1 6 4 69.074 70.276 1.876 13.841 o
-1 6 5 21.564 22.782 0.983 56.554 o
-1 6 6 2.664 3.421 0.645 293.919 o
-1 6 7 49.663 54.311 3.485 10.854 o
-1 6 8 30.899 29.148 1.083 40.378 o
-1 6 9 23.750 22.381 1.153 49.381 o
-1 6 10 31.271 32.897 1.345 34.724 o
-1 6 11 21.951 20.043 2.480 24.680 o
-1 6 12 69.015 63.815 3.354 9.565 o
-1 7 1 0.304 0.192 0.913 257.695 o
-1 7 2 11.037 10.399 0.949 99.025 o
-1 7 3 19.948 17.328 1.040 61.729 o
-1 7 4 0.559 0.334 0.472 798.839 o
-1 7 5 4.758 4.187 0.553 262.758 o
-1 7 6 7.047 6.726 0.631 180.209 o
-1 7 7 11.132 11.028 0.807 109.401 o
0 -7 -7 13.911 15.968 1.070 73.858 o
0 -7 -6 15.703 15.675 0.644 91.195 o
0 -7 -5 58.074 55.087 1.314 19.584 o
0 -7 -4 22.853 21.964 1.687 37.675 o
0 -7 -3 0.792 0.098 0.398 999.982 o
0 -7 -2 54.612 55.465 1.370 20.177 o
0 -7 -1 10.540 8.729 0.789 120.308 o
0 -6 -12 11.445 12.729 0.455 131.196 o
0 -6 -11 26.323 27.178 0.688 53.160 o
0 -6 -10 1.208 1.671 0.227 1067.030 o
0 -6 -9 17.619 15.212 0.553 89.206 o
0 -6 -8 24.611 26.692 0.646 56.804 o
0 -6 -7 12.476 11.599 0.501 124.843 o
0 -6 -6 30.790 33.220 0.747 43.470 o
0 -6 -5 7.151 5.413 0.481 217.783 o
0 -6 -4 180.022 166.363 2.414 4.016 o
0 -6 -3 1.905 2.854 0.350 585.100 o
0 -6 -2 44.774 43.045 0.809 29.396 o
0 -6 -1 27.945 29.636 0.756 48.359 o
0 -6 0 233.078 233.190 4.739 2.198 o
0 -5 -14 19.625 20.122 1.054 59.453 o
0 -5 -13 34.530 32.722 0.849 39.088 o
0 -5 -12 101.243 105.358 3.610 6.387 o
0 -5 -11 17.960 19.145 0.502 83.410 o
0 -5 -10 46.181 45.459 0.893 27.604 o
0 -5 -9 58.366 58.393 1.076 20.075 o
0 -5 -8 16.196 16.057 0.522 94.120 o
0 -5 -7 40.284 38.341 0.753 33.744 o
0 -5 -6 34.309 31.789 0.914 38.855 o
0 -5 -5 10.414 9.211 0.628 136.390 o
0 -5 -4 37.022 36.391 0.832 35.945 o
0 -5 -3 405.059 388.879 5.705 0.961 o
0 -5 -2 277.693 266.397 3.748 1.896 o
0 -5 -1 128.779 129.389 1.869 6.510 o
0 -4 -16 31.960 30.092 1.105 38.798 o
0 -4 -15 29.508 32.581 2.101 25.317 o
0 -4 -14 74.148 69.591 1.449 14.406 o
0 -4 -13 2.455 3.425 0.428 438.861 o
0 -4 -12 4.203 4.059 0.313 378.155 o
0 -4 -11 82.253 76.179 1.253 13.168 o
0 -4 -10 31.319 30.986 1.160 38.118 o
0 -4 -9 105.880 114.408 2.609 7.283 o
0 -4 -8 7.163 7.605 0.658 168.869 o
0 -4 -7 6.488 6.998 0.502 211.269 o
0 -4 -6 108.159 111.121 1.971 8.013 o
0 -4 -5 215.735 224.758 3.473 2.682 o
0 -4 -4 63.160 74.137 1.485 15.769 o
0 -4 -3 18.889 15.749 0.490 86.254 o
0 -4 -2 6.751 9.520 0.471 192.915 o
0 -4 -1 174.876 186.310 2.658 3.829 o
0 -4 0 2.108 2.434 0.684 306.780 o
0 -3 -17 1.914 2.141 0.437 528.078 o
0 -3 -16 9.068 10.368 0.693 134.864 o
0 -3 -15 23.192 23.450 0.763 59.235 o
0 -3 -14 166.729 161.508 3.429 3.924 o
0 -3 -13 131.885 131.414 2.169 6.115 o
0 -3 -12 33.968 31.497 1.519 31.165 o
0 -3 -11 159.454 152.917 3.765 3.983 o
0 -3 -10 256.227 245.634 4.662 1.989 o
0 -3 -9 132.042 126.367 2.525 5.936 o
0 -3 -8 67.043 62.983 1.168 17.120 o
0 -3 -7 139.121 144.567 2.021 5.672 o
0 -3 -6 162.799 174.398 2.727 4.189 o
0 -3 -5 11.638 11.470 0.436 135.799 o
0 -3 -4 224.010 227.646 3.326 2.604 o
0 -3 -3 987.324 1032.600 14.302 0.173 o
0 -3 -2 1993.630 2050.690 28.521 0.045 o
0 -3 -1 375.383 401.148 6.010 1.004 o
0 -2 -18 80.192 88.729 3.107 8.645 o
0 -2 -17 1.843 2.108 0.230 804.595 o
0 -2 -16 95.767 99.902 2.091 9.078 o
0 -2 -15 34.190 31.447 0.826 40.176 o
0 -2 -14 4.039 3.763 0.289 405.950 o
0 -2 -13 23.753 24.489 1.189 47.314 o
0 -2 -12 11.093 9.499 0.703 123.304 o
0 -2 -11 171.165 163.537 4.329 3.409 o
0 -2 -10 50.851 50.843 1.043 23.753 o
0 -2 -9 38.036 38.388 0.865 34.261 o
0 -2 -8 222.952 221.575 4.223 2.452 o
0 -2 -7 25.948 27.906 0.636 54.053 o
0 -2 -6 595.657 588.262 7.581 0.480 o
0 -2 -5 152.387 161.664 2.226 4.848 o
0 -2 -4 630.176 619.800 7.911 0.435 o
0 -2 -3 224.952 218.036 2.633 2.784 o
0 -2 -2 350.753 360.110 4.313 1.241 o
0 -2 -1 40.295 35.896 0.609 35.632 o
0 -2 0 1130.300 1095.010 22.622 0.121 o
0 -1 -19 17.632 19.451 0.958 67.098 o
0 -1 -18 13.289 15.336 0.492 110.062 o
0 -1 -17 43.504 47.540 1.010 27.595 o
0 -1 -16 5.095 3.686 0.490 282.343 o
0 -1 -15 80.720 80.958 1.736 12.030 o
0 -1 -14 14.048 14.265 1.010 78.908 o
0 -1 -13 0.262 0.308 0.728 396.718 o
0 -1 -12 73.010 66.842 1.500 14.664 o
0 -1 -11 68.649 69.777 1.401 15.443 o
0 -1 -10 365.302 356.626 6.531 1.059 o
0 -1 -9 106.192 111.323 2.024 8.068 o
0 -1 -8 84.991 74.617 1.344 12.725 o
0 -1 -7 195.550 189.001 2.572 3.446 o
0 -1 -6 437.905 425.448 5.987 0.836 o
0 -1 -5 214.629 224.452 3.506 2.689 o
0 -1 -4 680.027 645.636 7.643 0.394 o
0 -1 -3 857.062 801.833 8.887 0.262 o
0 -1 -2 1278.080 1197.700 13.013 0.123 o
0 -1 -1 4460.370 4121.170 49.577 0.011 o
0 0 1 410.970 404.436 6.669 0.884 o
0 0 2 725.401 721.357 10.476 0.320 o
0 0 3 141.547 137.387 1.761 5.863 o
0 0 4 9114.310 8811.260 117.278 0.002 o
0 0 5 252.574 236.250 3.159 2.298 o
0 0 6 92.930 82.712 1.178 11.534 o
0 0 7 748.608 781.677 9.504 0.304 o
0 0 8 758.471 809.047 9.871 0.291 o
0 0 9 155.583 148.081 1.986 5.068 o
0 0 10 66.630 73.369 1.251 15.923 o
0 0 11 0.245 0.235 0.321 1700.540 o
0 0 12 308.964 289.585 7.559 1.239 o
0 0 13 12.231 13.003 0.676 109.586 o
0 0 14 125.118 123.571 4.234 4.730 o
0 0 15 300.797 287.564 5.775 1.468 o
0 0 16 30.441 26.374 0.800 46.673 o
0 0 17 1.752 2.516 0.263 737.018 o
0 0 18 10.947 12.724 0.514 130.301 o
0 0 19 124.652 127.429 3.245 5.564 o
0 1 1 4456.150 4093.330 47.785 0.011 o
0 1 2 1281.440 1185.900 13.455 0.122 o
0 1 3 853.985 822.189 9.175 0.258 o
0 1 4 681.351 657.417 7.921 0.387 o
0 1 5 214.231 218.472 3.144 2.812 o
0 1 6 438.367 430.477 6.005 0.830 o
0 1 7 194.925 187.954 2.602 3.457 o
0 1 8 86.634 75.877 1.198 12.696 o
0 1 9 107.802 110.523 1.787 8.261 o
0 1 10 364.784 351.868 5.651 1.125 o
0 1 11 68.616 66.455 1.307 16.037 o
0 1 12 73.192 69.218 1.702 13.863 o
0 1 13 0.323 0.096 0.493 820.496 o
0 1 14 13.940 15.195 1.252 65.408 o
0 1 15 82.049 79.959 1.745 11.915 o
0 1 16 4.931 4.431 0.477 280.834 o
0 1 17 43.642 45.733 1.058 27.601 o
0 1 18 13.313 14.680 0.559 107.825 o
0 1 19 17.812 18.268 0.444 87.095 o
0 2 0 1136.930 1127.240 18.505 0.130 o
0 2 1 40.885 35.476 0.539 35.819 o
0 2 2 355.589 361.271 4.317 1.222 o
0 2 3 224.306 217.969 3.129 2.695 o
0 2 4 631.694 623.859 8.681 0.422 o
0 2 5 153.483 156.909 2.238 4.879 o
0 2 6 597.040 601.113 8.783 0.455 o
0 2 7 26.316 27.423 0.597 54.518 o
0 2 8 223.953 222.615 3.924 2.504 o
0 2 9 38.778 40.142 1.029 31.751 o
0 2 10 52.458 52.702 1.093 22.624 o
0 2 11 169.809 163.823 3.317 3.891 o
0 2 12 11.012 11.600 0.837 106.072 o
0 2 13 24.364 24.471 1.006 50.981 o
0 2 14 4.276 5.111 0.536 269.290 o
0 2 15 34.708 31.556 0.942 38.288 o
0 2 16 96.723 99.287 1.861 9.376 o
0 2 17 1.959 2.004 0.369 609.384 o
0 2 18 81.147 91.920 2.153 10.501 o
0 3 1 371.692 400.759 5.022 1.068 o
0 3 2 1997.620 2067.980 25.042 0.047 o
0 3 3 989.775 1020.410 13.639 0.176 o
0 3 4 224.449 228.804 3.329 2.592 o
0 3 5 11.948 12.113 0.405 133.188 o
0 3 6 161.439 172.178 2.464 4.360 o
0 3 7 139.315 147.916 2.248 5.470 o
0 3 8 67.788 67.102 1.155 16.583 o
0 3 9 132.323 125.945 2.796 5.714 o
0 3 10 253.824 250.723 4.163 2.069 o
0 3 11 160.741 158.907 4.382 3.584 o
0 3 12 34.840 31.999 1.375 32.449 o
0 3 13 129.682 130.311 2.802 5.725 o
0 3 14 166.800 167.388 3.451 3.854 o
0 3 15 22.834 22.841 0.918 56.373 o
0 3 16 9.064 10.453 0.640 140.599 o
0 3 17 1.810 1.433 0.311 763.582 o
0 4 0 1.943 1.574 0.599 390.653 o
0 4 1 175.565 182.503 2.674 3.848 o
0 4 2 6.518 8.157 0.408 218.338 o
0 4 3 18.893 14.499 0.524 87.167 o
0 4 4 63.246 74.022 1.272 16.447 o
0 4 5 216.644 222.010 3.690 2.638 o
0 4 6 107.074 112.364 1.999 8.010 o
0 4 7 6.447 7.398 0.541 200.842 o
0 4 8 6.943 8.494 0.581 179.308 o
0 4 9 106.202 114.035 3.550 6.117 o
0 4 10 30.791 30.262 1.295 36.671 o
0 4 11 82.077 75.598 1.537 12.638 o
0 4 12 4.409 4.255 0.535 277.632 o
0 4 13 2.740 3.258 0.516 366.987 o
0 4 14 74.152 71.746 1.756 13.393 o
0 4 15 29.339 31.262 0.957 42.817 o
0 4 16 32.066 29.305 1.407 34.440 o
0 5 1 130.344 127.358 2.705 5.835 o
0 5 2 275.021 265.505 5.600 1.669 o
0 5 3 407.822 402.778 8.071 0.824 o
0 5 4 37.178 37.647 1.501 28.353 o
0 5 5 10.364 10.025 0.766 119.881 o
0 5 6 33.683 34.275 1.228 34.382 o
0 5 7 39.383 37.557 0.977 32.640 o
0 5 8 16.298 16.071 0.625 89.280 o
0 5 9 58.766 57.596 1.217 19.506 o
0 5 10 46.912 48.109 1.249 24.445 o
0 5 11 18.169 19.910 0.928 66.699 o
0 5 12 102.440 111.874 3.837 5.939 o
0 5 13 35.341 32.866 1.447 31.027 o
0 5 14 20.110 18.580 1.369 49.692 o
0 6 0 235.053 237.763 5.778 1.956 o
0 6 1 27.316 29.182 0.966 45.724 o
0 6 2 45.189 44.951 1.165 26.325 o
0 6 3 1.861 2.873 0.502 438.941 o
0 6 4 181.046 164.786 4.971 2.993 o
0 6 5 6.906 4.990 0.657 188.001 o
0 6 6 30.265 30.302 0.969 42.225 o
0 6 7 12.054 11.140 0.673 115.614 o
0 6 8 23.960 26.263 1.136 47.387 o
0 6 9 17.586 16.220 0.884 73.804 o
0 6 10 1.192 1.219 0.634 412.264 o
0 6 11 26.618 26.730 1.389 39.379 o
0 6 12 11.881 9.007 1.341 70.445 o
0 7 1 10.279 7.949 1.388 71.891 o
0 7 2 53.313 50.120 2.632 14.352 o
0 7 3 0.663 0.683 0.584 532.193 o
0 7 4 22.081 21.884 0.943 57.580 o
0 7 5 57.980 53.688 3.098 11.642 o
0 7 6 15.545 15.808 0.830 82.249 o
0 7 7 14.232 17.320 0.807 85.106 o
1 -7 -7 11.231 12.705 0.458 132.584 o
1 -7 -6 7.036 6.673 0.432 217.951 o
1 -7 -5 5.203 4.663 0.427 285.695 o
1 -7 -4 0.588 0.233 0.320 1423.660 o
1 -7 -3 19.736 17.513 1.014 62.859 o
1 -7 -2 10.994 11.815 0.769 111.442 o
1 -7 -1 0.331 0.278 0.408 1101.480 o
1 -6 -12 70.214 62.483 3.905 8.136 o
1 -6 -11 21.461 20.217 0.527 71.736 o
1 -6 -10 31.290 34.418 0.828 41.395 o
1 -6 -9 23.465 23.594 0.785 58.144 o
1 -6 -8 31.247 30.187 0.688 45.307 o
1 -6 -7 49.112 50.821 1.040 24.409 o
1 -6 -6 2.607 2.425 0.318 559.824 o
1 -6 -5 21.854 23.732 0.604 65.203 o
1 -6 -4 68.418 68.281 1.499 15.313 o
1 -6 -3 30.824 32.500 0.793 43.186 o
1 -6 -2 139.825 138.260 1.960 5.800 o
1 -6 -1 145.784 157.221 2.238 5.108 o
1 -5 -14 65.129 57.903 2.875 11.594 o
1 -5 -13 52.328 57.713 2.057 16.840 o
1 -5 -12 9.622 8.607 0.352 175.936 o
1 -5 -11 27.647 27.068 0.681 51.548 o
1 -5 -10 8.759 9.650 0.343 181.087 o
1 -5 -9 205.362 211.997 3.086 2.984 o
1 -5 -8 132.786 136.165 1.961 6.124 o
1 -5 -7 35.847 37.929 0.731 37.201 o
1 -5 -6 8.241 9.173 0.721 142.189 o
1 -5 -5 349.874 359.302 6.486 1.101 o
1 -5 -4 17.899 16.722 0.705 79.849 o
1 -5 -3 52.048 48.381 0.942 24.287 o
1 -5 -2 103.235 104.619 1.667 8.926 o
1 -5 -1 12.690 12.309 0.516 120.277 o
1 -4 -16 53.454 57.482 1.441 19.857 o
1 -4 -15 150.380 148.969 4.195 3.954 o
1 -4 -14 1.195 1.156 0.289 1014.130 o
1 -4 -13 45.102 43.165 0.923 28.462 o
1 -4 -12 61.779 66.046 1.330 17.372 o
1 -4 -11 31.505 30.859 0.564 46.116 o
1 -4 -10 35.813 37.473 1.607 27.824 o
1 -4 -9 204.241 202.538 4.393 2.701 o
1 -4 -8 38.670 38.269 1.153 31.127 o
1 -4 -7 77.712 76.743 2.091 11.744 o
1 -4 -6 138.487 146.323 2.899 5.102 o
1 -4 -5 79.503 87.118 1.594 12.121 o
1 -4 -4 99.810 94.554 2.106 8.955 o
1 -4 -3 120.224 116.433 2.032 7.113 o
1 -4 -2 285.721 303.259 4.391 1.658 o
1 -4 -1 355.775 390.154 5.099 1.127 o
1 -3 -17 91.853 96.750 2.424 8.927 o
1 -3 -16 7.749 5.701 0.466 207.857 o
1 -3 -15 98.966 103.148 3.637 6.480 o
1 -3 -14 87.145 81.909 2.042 10.641 o
1 -3 -13 10.211 10.172 0.543 142.927 o
1 -3 -12 42.894 43.244 7.665 3.401 o
1 -3 -11 192.602 185.703 4.507 2.898 o
1 -3 -10 449.166 446.533 9.985 0.647 o
1 -3 -9 237.407 236.892 5.720 1.955 o
1 -3 -8 86.775 87.050 2.037 10.447 o
1 -3 -7 118.756 121.206 2.310 6.805 o
1 -3 -6 133.376 130.373 2.454 5.864 o
1 -3 -5 175.908 186.571 2.637 3.813 o
1 -3 -4 169.241 167.077 2.777 4.105 o
1 -3 -3 280.362 290.087 3.978 1.774 o
1 -3 -2 134.856 136.897 1.986 6.007 o
1 -3 -1 78.595 83.450 1.357 12.963 o
1 -2 -18 20.141 21.232 1.054 57.771 o
1 -2 -17 2.024 1.916 0.479 483.831 o
1 -2 -16 14.734 15.844 0.472 102.864 o
1 -2 -15 42.045 44.124 1.491 25.150 o
1 -2 -14 142.284 129.199 3.466 4.836 o
1 -2 -13 62.071 61.314 2.277 13.994 o
1 -2 -12 52.941 51.190 1.703 19.346 o
1 -2 -11 130.726 130.583 3.640 4.995 o
1 -2 -10 90.517 88.365 1.979 10.162 o
1 -2 -9 298.926 295.658 4.576 1.588 o
1 -2 -8 4.787 4.020 0.374 329.076 o
1 -2 -7 864.365 849.744 13.097 0.227 o
1 -2 -6 292.796 292.621 4.213 1.667 o
1 -2 -5 243.693 232.217 3.210 2.395 o
1 -2 -4 252.152 261.599 3.280 2.171 o
1 -2 -3 646.854 624.226 8.351 0.416 o
1 -2 -2 535.632 538.584 6.475 0.586 o
1 -2 -1 164.140 160.084 2.221 4.546 o
1 -1 -19 0.273 0.479 0.192 2936.730 o
1 -1 -18 26.456 26.733 1.341 40.441 o
1 -1 -17 12.403 14.802 0.472 117.432 o
1 -1 -16 180.276 165.089 3.291 3.690 o
1 -1 -15 11.683 12.007 0.412 135.061 o
1 -1 -14 63.512 56.916 2.970 11.457 o
1 -1 -13 78.831 77.264 2.218 11.275 o
1 -1 -12 210.871 188.201 5.046 2.519 o
1 -1 -11 55.113 53.972 1.721 18.422 o
1 -1 -10 137.461 132.897 2.417 5.692 o
1 -1 -9 115.507 108.689 2.002 7.612 o
1 -1 -8 486.278 514.995 8.159 0.619 o
1 -1 -7 34.490 40.580 0.801 36.570 o
1 -1 -6 474.022 500.200 7.256 0.671 o
1 -1 -5 219.882 213.810 3.918 2.594 o
1 -1 -4 569.146 581.384 10.379 0.455 o
1 -1 -3 846.989 782.845 9.959 0.262 o
1 -1 -2 808.033 771.759 7.935 0.292 o
1 -1 -1 2701.470 2591.400 26.637 0.028 o
1 0 0 92.854 99.031 1.244 10.586 o
1 0 1 974.946 988.335 12.447 0.187 o
1 0 2 1581.220 1500.830 18.143 0.079 o
1 0 3 308.414 295.930 3.645 1.625 o
1 0 4 1768.730 1766.510 21.387 0.061 o
1 0 5 2856.220 2777.460 40.410 0.023 o
1 0 6 208.879 219.455 2.881 2.933 o
1 0 7 1244.830 1227.420 14.935 0.121 o
1 0 8 13.454 16.820 0.386 110.447 o
1 0 9 378.147 377.393 5.037 1.082 o
1 0 10 883.774 883.925 12.347 0.222 o
1 0 11 21.847 26.001 0.745 59.783 o
1 0 12 65.847 64.054 1.303 16.824 o
1 0 13 0.041 -0.366 0.481 949.674 o
1 0 14 26.676 28.745 2.108 26.870 o
1 0 15 15.103 16.422 1.251 62.368 o
1 0 16 6.282 8.747 0.746 157.286 o
1 0 17 9.260 9.353 0.763 129.091 o
1 0 18 4.656 6.738 0.508 248.629 o
1 0 19 2.566 4.105 0.232 537.538 o
1 1 0 1969.250 1870.080 20.372 0.053 o
1 1 1 1102.830 1095.410 12.340 0.154 o
1 1 2 2855.240 2672.410 28.107 0.026 o
1 1 3 5097.600 4865.730 53.550 0.008 o
1 1 4 295.524 289.219 3.660 1.717 o
1 1 5 409.903 409.430 5.227 0.946 o
1 1 6 320.400 326.134 4.192 1.444 o
1 1 7 999.803 1000.040 13.161 0.178 o
1 1 8 37.941 37.114 0.700 36.202 o
1 1 9 354.733 358.380 5.123 1.180 o
1 1 10 573.830 568.303 8.159 0.499 o
1 1 11 249.473 247.354 3.817 2.173 o
1 1 12 27.395 26.331 1.221 42.178 o
1 1 13 210.279 203.281 5.494 2.332 o
1 1 14 108.671 99.534 2.949 7.074 o
1 1 15 99.992 94.823 2.746 7.942 o
1 1 16 16.460 16.994 0.843 77.435 o
1 1 17 86.403 87.882 2.737 9.028 o
1 1 18 25.261 24.725 0.874 52.644 o
1 2 0 120.532 104.428 1.296 8.078 o
1 2 1 580.312 574.755 7.077 0.509 o
1 2 2 1737.390 1783.750 20.851 0.062 o
1 2 3 76.248 81.746 1.277 13.578 o
1 2 4 148.753 150.763 2.155 5.160 o
1 2 5 67.695 62.759 1.025 17.424 o
1 2 6 402.006 418.722 5.932 0.922 o
1 2 7 21.978 21.443 0.574 68.026 o
1 2 8 6.426 5.862 0.383 248.609 o
1 2 9 13.736 13.623 0.595 106.157 o
1 2 10 176.565 180.458 3.083 3.698 o
1 2 11 9.108 9.284 0.648 144.042 o
1 2 12 80.853 83.785 2.221 10.753 o
1 2 13 313.947 295.285 7.965 1.174 o
1 2 14 43.814 43.782 1.317 25.963 o
1 2 15 141.103 141.748 2.888 5.100 o
1 2 16 31.675 33.008 0.918 40.499 o
1 2 17 75.935 73.075 2.466 11.110 o
1 2 18 7.822 7.246 0.502 188.968 o
1 3 0 7.059 10.329 0.395 193.784 o
1 3 1 737.287 760.360 10.569 0.305 o
1 3 2 376.651 376.964 5.158 1.081 o
1 3 3 832.698 892.480 12.453 0.234 o
1 3 4 9.848 12.065 0.501 142.159 o
1 3 5 229.990 218.771 3.782 2.493 o
1 3 6 193.173 203.089 3.155 3.204 o
1 3 7 102.263 110.969 1.615 8.823 o
1 3 8 22.927 21.742 0.622 64.643 o
1 3 9 39.734 41.419 0.898 31.976 o
1 3 10 29.302 32.036 1.153 39.388 o
1 3 11 128.128 128.938 2.934 5.694 o
1 3 12 109.046 107.874 2.771 7.085 o
1 3 13 105.156 105.500 2.122 8.197 o
1 3 14 1.161 1.880 0.542 488.281 o
1 3 15 7.021 6.099 0.680 175.129 o
1 3 16 18.020 21.003 0.893 67.188 o
1 3 17 1.123 0.859 0.323 996.738 o
1 4 0 358.635 383.329 5.351 1.114 o
1 4 1 630.609 654.070 13.136 0.349 o
1 4 2 74.391 68.064 1.395 14.636 o
1 4 3 28.597 27.560 0.655 50.397 o
1 4 4 105.694 105.891 1.929 8.390 o
1 4 5 222.677 231.463 4.461 2.354 o
1 4 6 16.707 17.320 0.673 83.802 o
1 4 7 86.667 83.145 1.573 11.565 o
1 4 8 121.688 116.868 2.179 6.892 o
1 4 9 18.474 19.416 0.852 69.408 o
1 4 10 18.187 16.216 0.769 77.147 o
1 4 11 28.655 26.308 1.058 44.130 o
1 4 12 191.402 200.751 3.669 3.091 o
1 4 13 52.727 51.373 1.295 21.688 o
1 4 14 93.075 96.877 2.293 9.060 o
1 4 15 25.781 24.076 0.984 49.978 o
1 4 16 52.842 50.125 1.893 18.396 o
1 5 0 185.531 191.559 3.860 3.176 o
1 5 1 65.170 63.597 1.741 15.438 o
1 5 2 24.715 24.703 0.883 53.208 o
1 5 3 250.191 236.232 4.610 2.077 o
1 5 4 39.220 41.531 1.345 28.160 o
1 5 5 14.039 14.182 0.953 82.311 o
1 5 6 157.892 149.792 3.569 4.154 o
1 5 7 124.851 119.575 2.094 6.748 o
1 5 8 9.928 9.325 0.643 138.012 o
1 5 9 3.531 3.140 0.461 364.100 o
1 5 10 143.900 140.490 2.350 5.378 o
1 5 11 13.125 15.888 0.954 82.379 o
1 5 12 6.762 8.026 0.830 142.908 o
1 5 13 5.735 4.948 0.635 210.901 o
1 5 14 58.237 51.690 2.850 12.694 o
1 6 0 4.545 2.892 0.488 313.998 o
1 6 1 49.175 48.077 1.223 23.807 o
1 6 2 9.987 10.680 0.708 125.971 o
1 6 3 93.062 97.062 2.112 9.358 o
1 6 4 41.449 37.018 1.072 30.732 o
1 6 5 71.525 73.673 1.686 13.830 o
1 6 6 131.267 126.488 2.444 6.029 o
1 6 7 21.230 20.280 0.800 64.608 o
1 6 8 50.593 48.255 1.295 22.852 o
1 6 9 38.707 39.240 1.119 31.180 o
1 6 10 27.266 27.224 0.944 47.238 o
1 6 11 14.065 10.794 0.927 89.041 o
1 7 0 3.700 3.976 1.287 105.813 o
1 7 1 7.720 8.780 1.069 104.740 o
1 7 2 28.292 26.446 2.491 22.041 o
1 7 3 12.537 9.932 1.043 87.320 o
1 7 4 29.038 29.098 0.992 43.572 o
1 7 5 62.915 60.363 1.554 16.870 o
1 7 6 11.895 9.627 0.704 118.084 o
1 7 7 10.351 11.173 0.715 121.574 o
2 -7 -7 5.218 5.845 3.833 14.512 o
2 -7 -6 1.746 2.196 0.263 770.591 o
2 -7 -5 8.651 9.296 0.920 115.191 o
2 -7 -4 9.675 11.222 0.531 144.159 o
2 -7 -3 67.391 71.356 1.657 14.724 o
2 -7 -2 10.289 11.653 0.982 96.769 o
2 -7 -1 23.928 25.288 0.953 52.267 o
2 -6 -11 46.544 50.332 1.165 24.722 o
2 -6 -10 30.112 29.514 0.936 43.252 o
2 -6 -9 33.938 33.552 0.790 39.908 o
2 -6 -8 56.943 59.713 1.099 20.190 o
2 -6 -7 23.310 23.832 0.607 62.248 o
2 -6 -6 232.720 238.930 3.350 2.447 o
2 -6 -5 54.185 59.602 1.134 20.836 o
2 -6 -4 17.211 16.561 0.565 87.819 o
2 -6 -3 204.962 212.098 4.088 2.725 o
2 -6 -2 437.706 443.654 6.778 0.790 o
2 -6 -1 77.960 81.006 1.284 13.370 o
2 -5 -14 13.739 14.023 0.784 93.680 o
2 -5 -13 36.115 39.714 1.355 29.962 o
2 -5 -12 1.336 1.689 0.301 862.204 o
2 -5 -11 2.471 3.124 0.264 580.439 o
2 -5 -10 25.446 25.157 0.597 57.599 o
2 -5 -9 124.801 129.066 1.861 6.711 o
2 -5 -8 21.294 21.056 0.524 71.199 o
2 -5 -7 67.041 68.118 1.117 16.737 o
2 -5 -6 101.072 100.564 1.753 9.136 o
2 -5 -5 89.779 88.419 1.992 10.201 o
2 -5 -4 404.531 408.549 8.237 0.817 o
2 -5 -3 105.903 106.367 2.069 8.188 o
2 -5 -2 472.096 472.374 7.195 0.696 o
2 -5 -1 287.065 275.566 4.421 1.726 o
2 -4 -16 23.237 25.846 1.916 31.890 o
2 -4 -15 43.450 50.698 2.399 17.114 o
2 -4 -14 59.494 58.832 1.982 15.826 o
2 -4 -13 63.685 71.036 2.888 11.083 o
2 -4 -12 95.993 100.019 1.738 9.584 o
2 -4 -11 93.341 96.147 1.524 10.298 o
2 -4 -10 271.389 269.470 3.826 1.919 o
2 -4 -9 124.583 127.774 3.831 5.039 o
2 -4 -8 523.177 528.261 10.660 0.508 o
2 -4 -7 542.109 530.929 10.677 0.490 o
2 -4 -6 265.916 269.346 5.535 1.717 o
2 -4 -5 227.148 226.354 4.082 2.419 o
2 -4 -4 30.395 32.063 0.795 43.797 o
2 -4 -3 93.258 92.393 1.579 10.400 o
2 -4 -2 31.218 36.802 0.689 42.015 o
2 -4 -1 225.923 231.533 3.493 2.528 o
2 -3 -17 20.358 25.104 2.204 28.458 o
2 -3 -16 60.185 68.989 4.216 7.728 o
2 -3 -15 12.847 12.705 0.465 121.417 o
2 -3 -14 15.610 14.834 0.676 91.451 o
2 -3 -13 85.129 85.912 2.508 9.663 o
2 -3 -12 121.398 112.337 2.319 6.882 o
2 -3 -11 85.238 87.274 3.417 7.792 o
2 -3 -10 36.364 36.407 1.526 28.729 o
2 -3 -9 238.071 248.656 5.717 1.913 o
2 -3 -8 15.766 14.751 0.675 91.111 o
2 -3 -7 17.018 18.637 0.616 83.112 o
2 -3 -6 330.926 331.717 5.397 1.292 o
2 -3 -5 183.315 185.457 2.892 3.596 o
2 -3 -4 165.841 159.948 2.135 4.538 o
2 -3 -3 393.388 417.979 5.962 0.942 o
2 -3 -2 160.962 156.940 2.159 4.701 o
2 -3 -1 604.561 600.281 8.107 0.460 o
2 -2 -16 17.235 18.446 0.678 80.379 o
2 -2 -15 0.563 1.341 0.287 1256.960 o
2 -2 -14 6.495 6.899 0.479 216.590 o
2 -2 -12 461.096 458.222 14.527 0.477 o
2 -2 -11 72.421 71.222 2.432 11.646 o
2 -2 -10 83.158 85.147 2.025 10.906 o
2 -2 -9 7.568 7.137 0.467 199.130 o
2 -2 -8 220.006 220.639 3.646 2.618 o
2 -2 -7 100.766 93.622 1.639 9.592 o
2 -2 -6 30.620 29.230 0.623 47.356 o
2 -2 -5 107.963 103.058 1.602 8.710 o
2 -2 -4 832.363 870.667 11.532 0.243 o
2 -2 -3 260.484 254.624 3.332 2.124 o
2 -2 -2 532.614 543.746 7.322 0.569 o
2 -2 -1 208.103 206.683 2.885 3.031 o
2 -1 -18 0.213 -0.096 0.192 4205.130 o
2 -1 -17 6.290 7.819 0.767 158.165 o
2 -1 -16 17.398 19.465 0.839 72.236 o
2 -1 -15 20.485 21.407 0.611 70.447 o
2 -1 -14 75.966 67.566 1.390 14.437 o
2 -1 -13 223.973 221.385 5.979 2.041 o
2 -1 -12 0.603 0.348 0.641 473.872 o
2 -1 -11 17.293 20.292 1.380 51.629 o
2 -1 -10 177.289 158.618 3.117 3.881 o
2 -1 -9 1062.940 1026.600 15.980 0.155 o
2 -1 -8 748.443 759.801 11.831 0.289 o
2 -1 -7 221.720 236.303 3.540 2.538 o
2 -1 -6 436.358 420.445 6.499 0.824 o
2 -1 -5 1639.260 1635.920 22.413 0.068 o
2 -1 -4 949.380 918.487 13.496 0.196 o
2 -1 -3 693.843 686.347 9.058 0.359 o
2 -1 -2 1678.910 1655.320 19.895 0.068 o
2 -1 -1 1262.400 1255.040 14.060 0.119 o
2 0 0 53.465 50.943 0.693 24.347 o
2 0 1 3927.220 3702.090 38.022 0.014 o
2 0 2 818.303 856.708 8.630 0.267 o
2 0 3 121.392 102.965 1.348 8.029 o
2 0 4 262.105 260.473 3.580 2.054 o
2 0 5 0.436 0.431 0.223 2234.840 o
2 0 6 1466.780 1559.890 19.735 0.082 o
2 0 7 337.983 328.295 4.120 1.367 o
2 0 8 417.298 436.125 7.427 0.807 o
2 0 9 25.763 24.412 0.512 59.133 o
2 0 10 6.913 8.696 0.365 213.272 o
2 0 11 2.050 2.093 0.363 599.221 o
2 0 12 3.256 3.730 0.764 226.088 o
2 0 13 287.145 282.074 6.525 1.451 o
2 0 14 55.561 57.240 1.624 18.454 o
2 0 15 2.340 3.544 0.620 316.107 o
2 0 16 2.291 2.336 0.548 391.864 o
2 0 17 44.609 48.639 1.826 20.995 o
2 0 18 0.100 0.179 0.288 2285.600 o
2 1 0 189.535 193.379 2.065 3.648 o
2 1 1 912.395 925.787 9.941 0.220 o
2 1 2 197.235 195.724 2.172 3.459 o
2 1 3 180.721 183.413 2.155 3.901 o
2 1 4 640.969 627.682 8.446 0.417 o
2 1 5 256.361 266.316 3.834 2.040 o
2 1 6 473.970 473.583 6.698 0.707 o
2 1 7 338.819 346.140 4.947 1.270 o
2 1 8 235.290 226.524 3.711 2.415 o
2 1 9 409.953 417.175 7.635 0.828 o
2 1 10 30.333 30.493 0.778 44.909 o
2 1 11 173.685 172.452 2.905 3.902 o
2 1 12 442.826 426.492 8.819 0.715 o
2 1 13 449.885 448.352 11.894 0.575 o
2 1 14 96.935 98.649 3.042 7.543 o
2 1 15 71.177 68.651 2.193 12.660 o
2 1 16 26.092 28.311 1.023 46.403 o
2 1 17 21.672 25.699 1.010 53.594 o
2 1 18 34.119 38.484 1.177 33.438 o
2 2 0 350.461 352.709 4.819 1.224 o
2 2 1 197.842 196.064 2.721 3.308 o
2 2 2 118.098 114.093 1.683 7.611 o
2 2 3 63.415 61.240 1.000 18.665 o
2 2 4 23.087 27.672 0.570 59.928 o
2 2 5 50.625 51.795 1.063 23.557 o
2 2 6 8.155 8.987 0.457 179.760 o
2 2 7 24.939 26.160 0.681 56.056 o
2 2 8 36.506 38.234 0.799 35.968 o
2 2 9 87.729 87.617 1.469 11.387 o
2 2 10 140.329 140.977 2.508 5.389 o
2 2 11 288.383 288.786 5.596 1.543 o
2 2 12 324.023 352.630 8.098 1.057 o
2 2 13 121.538 119.245 3.453 5.605 o
2 2 14 80.567 76.184 2.521 10.406 o
2 2 15 19.716 18.072 0.981 63.587 o
2 2 16 0.901 0.620 0.534 588.685 o
2 2 17 12.278 14.152 0.686 105.886 o
2 2 18 54.297 49.825 2.587 14.459 o
2 3 0 49.194 50.124 1.016 24.647 o
2 3 1 332.450 326.733 5.028 1.325 o
2 3 2 160.695 182.887 3.326 3.879 o
2 3 3 147.040 154.143 2.717 4.852 o
2 3 4 23.219 22.307 0.727 61.061 o
2 3 5 275.546 277.363 5.888 1.596 o
2 3 6 28.633 27.436 0.782 48.427 o
2 3 7 17.533 18.023 0.664 80.668 o
2 3 8 281.564 263.788 4.442 1.792 o
2 3 9 62.013 59.449 1.142 18.749 o
2 3 10 49.396 49.532 1.764 20.055 o
2 3 11 57.386 59.841 2.292 14.698 o
2 3 12 81.174 83.834 2.148 10.889 o
2 3 13 7.501 6.919 0.782 148.763 o
2 3 14 2.705 3.691 0.588 317.876 o
2 3 15 1.156 1.719 0.516 528.389 o
2 3 16 15.844 14.983 0.878 80.149 o
2 3 17 26.323 27.308 1.540 36.533 o
2 4 0 185.196 193.467 2.915 3.484 o
2 4 1 370.231 377.438 6.718 1.007 o
2 4 2 108.419 110.455 2.059 7.916 o
2 4 3 95.176 90.962 1.874 9.826 o
2 4 4 133.125 128.768 2.794 5.637 o
2 4 5 176.495 172.630 3.747 3.504 o
2 4 6 113.080 116.929 2.653 6.818 o
2 4 7 55.533 56.147 1.534 19.034 o
2 4 8 110.074 111.278 2.420 7.374 o
2 4 9 67.265 67.204 2.073 13.647 o
2 4 10 90.423 91.986 1.832 10.269 o
2 4 11 117.123 115.371 2.311 7.026 o
2 4 12 73.209 69.804 2.683 10.906 o
2 4 13 86.743 91.882 2.280 9.761 o
2 4 14 13.266 15.296 0.983 81.123 o
2 4 15 16.796 15.337 0.976 72.561 o
2 5 0 21.883 25.777 1.059 51.991 o
2 5 1 133.882 146.007 2.970 5.197 o
2 5 2 40.811 40.319 1.209 28.972 o
2 5 3 26.354 24.703 0.955 49.531 o
2 5 4 10.086 8.703 0.795 122.411 o
2 5 5 49.960 48.984 1.341 22.651 o
2 5 6 41.774 37.187 1.078 30.461 o
2 5 7 16.602 18.345 0.833 75.810 o
2 5 8 118.263 113.003 1.996 7.343 o
2 5 9 79.956 76.458 1.580 12.759 o
2 5 10 68.471 67.234 1.281 16.067 o
2 5 11 8.741 10.739 0.720 132.752 o
2 5 12 0.578 0.394 0.480 768.006 o
2 5 13 14.806 14.019 0.690 95.199 o
2 6 0 11.562 11.986 0.756 109.224 o
2 6 1 48.545 48.591 1.296 23.472 o
2 6 2 45.530 49.786 1.322 24.146 o
2 6 3 13.614 11.160 0.691 106.318 o
2 6 4 29.057 28.751 0.938 44.628 o
2 6 5 13.358 14.475 0.734 97.400 o
2 6 6 23.798 21.007 0.845 58.216 o
2 6 7 18.742 19.019 0.802 71.074 o
2 6 8 53.673 52.667 1.322 21.072 o
2 6 9 41.087 49.181 1.231 26.654 o
2 6 10 85.772 91.151 6.588 3.663 o
2 6 11 12.870 11.786 1.533 56.680 o
2 7 0 7.073 7.426 1.032 115.096 o
2 7 1 40.399 46.115 2.165 19.819 o
2 7 2 39.858 36.890 3.162 14.014 o
2 7 3 20.696 19.154 1.378 48.483 o
2 7 4 35.411 36.457 1.739 26.717 o
2 7 5 50.864 46.256 1.170 23.852 o
2 7 6 9.259 9.142 0.801 125.441 o
3 -7 -5 14.220 15.295 0.707 94.065 o
3 -7 -4 17.116 16.318 0.538 89.614 o
3 -7 -3 12.997 12.856 0.627 109.619 o
3 -7 -2 1.444 1.300 0.390 710.673 o
3 -7 -1 3.222 2.973 0.634 289.441 o
3 -6 -10 12.831 14.406 0.554 111.206 o
3 -6 -9 24.209 23.574 0.626 60.467 o
3 -6 -8 13.053 14.172 0.468 115.754 o
3 -6 -7 98.648 105.012 1.778 9.119 o
3 -6 -6 33.320 33.776 0.770 40.575 o
3 -6 -5 11.351 10.725 0.525 133.619 o
3 -6 -4 1.560 0.998 0.334 824.739 o
3 -6 -3 5.914 6.853 0.454 233.399 o
3 -6 -2 21.799 21.856 0.632 66.563 o
3 -6 -1 13.978 14.543 0.591 103.193 o
3 -5 -13 23.646 25.896 1.280 44.593 o
3 -5 -12 27.126 26.882 1.770 32.163 o
3 -5 -11 27.486 29.372 0.813 48.109 o
3 -5 -10 90.448 88.392 1.824 10.447 o
3 -5 -9 71.749 74.644 1.296 14.787 o
3 -5 -8 368.144 372.186 4.882 1.129 o
3 -5 -7 178.161 179.755 2.676 3.823 o
3 -5 -6 0.597 0.911 0.303 1292.560 o
3 -5 -5 13.582 14.335 0.533 108.841 o
3 -5 -4 107.880 107.462 1.701 8.452 o
3 -5 -3 326.688 331.693 8.209 1.068 o
3 -5 -2 168.723 174.440 3.338 3.800 o
3 -5 -1 223.827 217.991 3.491 2.625 o
3 -4 -15 5.332 4.382 1.116 120.810 o
3 -4 -14 19.095 23.975 1.787 37.294 o
3 -4 -13 20.996 24.433 0.987 56.073 o
3 -4 -12 104.406 110.018 2.442 7.693 o
3 -4 -11 108.182 107.843 1.855 8.248 o
3 -4 -10 68.923 68.914 1.159 16.169 o
3 -4 -9 325.551 319.483 4.271 1.429 o
3 -4 -8 20.535 21.291 0.919 61.314 o
3 -4 -7 316.824 304.713 5.751 1.368 o
3 -4 -6 234.026 240.579 4.640 2.180 o
3 -4 -5 42.285 39.802 1.092 29.400 o
3 -4 -4 102.164 99.330 1.701 9.168 o
3 -4 -3 174.281 156.543 2.431 4.252 o
3 -4 -2 425.302 422.182 5.770 0.874 o
3 -4 -1 179.492 177.500 2.516 3.874 o
3 -3 -17 1.839 1.725 1.246 126.454 o
3 -3 -16 13.662 11.402 1.916 41.960 o
3 -3 -15 11.664 11.211 2.108 37.828 o
3 -3 -14 21.795 26.637 2.779 20.387 o
3 -3 -13 34.660 37.496 1.051 34.875 o
3 -3 -12 17.079 14.981 0.672 86.395 o
3 -3 -11 164.757 170.864 3.791 3.702 o
3 -3 -10 21.116 21.324 1.554 42.304 o
3 -3 -9 219.559 208.883 5.788 2.162 o
3 -3 -8 102.945 102.266 2.340 8.145 o
3 -3 -7 42.837 43.767 1.496 24.875 o
3 -3 -6 28.424 26.796 0.773 49.204 o
3 -3 -5 287.997 293.296 4.454 1.666 o
3 -3 -4 81.780 83.723 1.244 12.737 o
3 -3 -3 89.120 86.354 1.374 11.461 o
3 -3 -2 9.273 5.789 0.334 202.383 o
3 -3 -1 119.518 122.638 1.960 7.053 o
3 -2 -12 61.136 50.209 4.216 8.092 o
3 -2 -11 449.474 420.077 11.111 0.619 o
3 -2 -10 53.181 50.617 1.613 19.875 o
3 -2 -9 107.051 111.917 3.967 5.638 o
3 -2 -8 152.428 149.691 3.162 4.511 o
3 -2 -7 61.112 54.836 1.029 19.988 o
3 -2 -6 310.889 311.465 5.404 1.412 o
3 -2 -5 189.240 202.519 3.598 3.132 o
3 -2 -4 351.806 375.720 5.563 1.133 o
3 -2 -3 345.421 390.741 5.241 1.150 o
3 -2 -2 924.459 966.040 11.942 0.203 o
3 -2 -1 350.186 382.293 4.828 1.174 o
3 -1 -17 14.448 12.942 0.474 111.187 o
3 -1 -16 63.571 66.927 3.377 9.762 o
3 -1 -15 43.352 45.256 1.625 23.393 o
3 -1 -14 14.142 13.230 0.392 116.182 o
3 -1 -13 54.110 45.584 2.369 15.915 o
3 -1 -12 121.639 119.855 4.570 4.564 o
3 -1 -11 95.555 89.925 2.276 9.161 o
3 -1 -10 105.049 104.275 3.058 6.987 o
3 -1 -9 196.458 187.322 3.647 3.122 o
3 -1 -8 561.666 559.409 8.879 0.500 o
3 -1 -7 203.146 209.032 3.368 2.961 o
3 -1 -6 409.849 420.534 6.596 0.873 o
3 -1 -5 216.275 223.995 3.366 2.704 o
3 -1 -4 1174.240 1201.780 15.224 0.130 o
3 -1 -3 476.845 502.083 5.979 0.701 o
3 -1 -2 36.349 42.627 0.684 35.492 o
3 -1 -1 1453.560 1530.930 19.025 0.085 o
3 0 0 1270.000 1241.120 15.690 0.116 o
3 0 1 330.663 360.139 5.107 1.262 o
3 0 2 391.520 390.021 5.508 1.003 o
3 0 3 943.399 1007.590 14.763 0.182 o
3 0 4 654.726 728.455 9.712 0.362 o
3 0 5 609.744 686.462 10.142 0.395 o
3 0 6 0.083 1.493 0.297 1469.400 o
3 0 7 336.834 402.644 6.099 1.103 o
3 0 8 1.023 1.717 0.378 773.425 o
3 0 9 45.745 46.102 0.973 27.151 o
3 0 10 85.680 80.451 1.581 11.813 o
3 0 11 347.607 345.821 9.527 0.905 o
3 0 12 325.940 314.901 5.934 1.296 o
3 0 13 81.922 76.342 2.521 10.283 o
3 0 14 12.105 11.081 1.282 71.391 o
3 0 15 302.367 309.755 8.094 1.174 o
3 0 16 182.959 189.547 6.131 2.428 o
3 0 17 36.863 41.298 1.445 28.276 o
3 0 18 23.942 25.457 1.167 47.117 o
3 1 0 181.626 179.049 2.482 3.826 o
3 1 1 1251.380 1251.040 16.493 0.116 o
3 1 2 1107.560 1101.870 14.000 0.149 o
3 1 3 506.996 552.282 7.575 0.587 o
3 1 4 260.420 290.065 3.952 1.908 o
3 1 5 565.912 610.005 8.553 0.480 o
3 1 6 213.923 224.208 3.356 2.733 o
3 1 7 243.993 239.986 3.585 2.292 o
3 1 8 36.320 36.031 0.848 36.430 o
3 1 9 54.482 51.149 1.059 22.384 o
3 1 10 1.971 2.822 0.493 440.761 o
3 1 11 541.850 541.318 9.934 0.503 o
3 1 12 171.831 170.399 4.104 3.445 o
3 1 13 2.050 0.392 0.811 267.935 o
3 1 14 59.649 58.466 2.640 13.017 o
3 1 15 251.869 230.730 11.977 0.972 o
3 1 16 12.192 12.137 1.173 76.604 o
3 1 17 41.382 41.058 1.176 28.809 o
3 2 0 38.279 44.188 0.804 32.768 o
3 2 1 121.544 118.853 1.929 7.073 o
3 2 2 516.053 522.676 7.414 0.598 o
3 2 3 151.687 160.796 2.422 4.785 o
3 2 4 432.967 475.981 8.782 0.695 o
3 2 5 107.363 110.254 2.176 7.847 o
3 2 6 24.692 26.663 0.666 56.323 o
3 2 7 101.036 106.502 2.086 8.481 o
3 2 8 54.762 57.000 1.115 21.132 o
3 2 9 107.022 111.692 1.940 8.102 o
3 2 10 40.793 37.891 1.019 31.336 o
3 2 11 343.611 352.735 9.939 0.877 o
3 2 12 72.082 73.608 1.938 13.018 o
3 2 13 103.445 100.624 2.707 7.645 o
3 2 14 190.709 187.028 4.524 2.907 o
3 2 15 9.613 10.008 1.126 90.070 o
3 2 16 14.556 14.966 1.269 63.716 o
3 2 17 3.704 2.652 0.447 375.610 o
3 3 0 111.984 108.366 2.094 7.726 o
3 3 1 185.779 182.464 3.403 3.403 o
3 3 2 35.345 30.042 0.774 40.389 o
3 3 3 30.716 31.207 0.698 45.198 o
3 3 4 1.310 1.086 0.332 880.878 o
3 3 5 31.545 31.561 0.949 40.805 o
3 3 6 14.283 12.971 0.683 99.852 o
3 3 7 124.875 122.440 2.545 6.285 o
3 3 8 111.335 102.118 2.253 7.759 o
3 3 9 71.891 72.382 1.542 14.283 o
3 3 10 10.326 11.908 0.795 112.274 o
3 3 11 113.431 108.777 1.964 7.770 o
3 3 12 11.239 10.515 1.028 91.730 o
3 3 13 133.811 137.915 3.933 4.594 o
3 3 14 48.299 50.597 1.879 19.460 o
3 3 15 32.635 34.003 1.482 31.700 o
3 3 16 28.477 22.574 1.868 30.961 o
3 4 0 55.968 54.478 1.504 19.283 o
3 4 1 18.406 16.464 0.864 72.402 o
3 4 2 199.102 181.736 3.653 3.122 o
3 4 3 107.223 104.033 2.205 8.008 o
3 4 4 248.034 250.559 4.806 2.005 o
3 4 5 42.772 46.679 1.288 26.027 o
3 4 6 39.541 42.106 1.435 27.038 o
3 4 7 266.542 251.264 6.222 1.658 o
3 4 8 264.186 251.959 3.980 2.014 o
3 4 9 335.816 317.231 4.651 1.360 o
3 4 10 18.510 19.144 0.978 64.939 o
3 4 11 28.427 28.902 0.980 44.474 o
3 4 12 153.597 156.684 4.479 3.669 o
3 4 13 63.318 65.652 5.085 5.996 o
3 4 14 15.766 15.656 0.879 79.368 o
3 4 15 6.521 3.729 1.063 123.778 o
3 5 0 469.767 486.036 11.991 0.536 o
3 5 1 289.834 302.649 6.166 1.439 o
3 5 2 10.718 13.006 0.755 111.007 o
3 5 3 336.651 328.547 4.888 1.316 o
3 5 4 20.608 21.054 0.784 65.554 o
3 5 5 28.038 28.212 0.854 47.438 o
3 5 6 7.276 6.598 0.633 177.710 o
3 5 7 125.350 121.469 2.613 6.224 o
3 5 8 109.476 104.735 1.979 8.122 o
3 5 9 37.066 35.297 1.187 32.512 o
3 5 10 77.051 74.808 1.672 13.022 o
3 5 11 51.704 51.292 2.251 16.485 o
3 5 12 16.052 15.639 2.252 31.224 o
3 5 13 6.591 10.444 1.341 80.728 o
3 6 0 14.390 12.782 0.767 94.641 o
3 6 1 32.479 33.175 1.436 32.643 o
3 6 2 14.082 16.401 0.733 91.124 o
3 6 3 1.016 0.463 0.403 864.252 o
3 6 4 30.041 24.648 1.604 33.926 o
3 6 5 36.297 37.477 1.443 29.447 o
3 6 6 3.391 3.466 0.551 316.008 o
3 6 7 85.740 82.629 1.820 11.204 o
3 6 8 5.293 5.313 0.632 216.011 o
3 6 9 2.918 4.692 0.540 316.541 o
3 6 10 2.819 2.970 1.150 134.306 o
3 7 0 24.533 26.129 1.362 41.866 o
3 7 1 17.550 16.019 1.901 38.133 o
3 7 2 1.944 2.204 1.437 96.716 o
3 7 3 0.516 0.011 0.573 604.784 o
3 7 4 9.835 9.592 0.854 115.116 o
4 -6 -9 2.899 4.110 0.360 431.066 o
4 -6 -8 24.122 25.053 0.758 56.590 o
4 -6 -7 35.210 36.895 0.852 36.888 o
4 -6 -6 32.354 32.641 0.819 41.352 o
4 -6 -5 70.272 69.476 1.444 15.062 o
4 -6 -4 14.730 15.813 0.640 94.762 o
4 -6 -3 33.262 36.048 0.923 37.900 o
4 -6 -2 24.526 25.225 1.041 49.505 o
4 -6 -1 43.525 44.599 1.163 27.119 o
4 -5 -12 18.969 17.584 1.569 45.407 o
4 -5 -11 7.632 7.420 0.761 148.814 o
4 -5 -10 54.058 52.692 1.530 19.851 o
4 -5 -9 1.058 1.446 0.211 1228.710 o
4 -5 -8 284.582 278.076 4.072 1.774 o
4 -5 -7 1.288 0.692 0.255 1167.830 o
4 -5 -6 99.562 102.257 1.740 9.205 o
4 -5 -5 8.342 8.458 0.511 173.348 o
4 -5 -4 88.532 88.049 1.539 11.157 o
4 -5 -3 134.313 138.161 2.247 5.830 o
4 -5 -2 133.738 133.889 2.029 6.086 o
4 -5 -1 20.985 20.785 0.637 69.317 o
4 -4 -15 28.314 32.770 2.395 22.281 o
4 -4 -14 10.076 13.749 1.389 66.610 o
4 -4 -13 129.108 139.193 5.107 3.834 o
4 -4 -12 35.597 36.199 2.165 22.257 o
4 -4 -11 83.877 84.574 1.585 11.776 o
4 -4 -10 4.803 4.869 0.312 332.194 o
4 -4 -9 32.186 31.451 0.653 44.088 o
4 -4 -8 62.190 59.521 0.991 19.216 o
4 -4 -7 41.814 43.743 0.802 30.843 o
4 -4 -6 31.098 32.494 1.035 39.551 o
4 -4 -5 49.672 49.563 1.426 22.122 o
4 -4 -4 121.723 125.759 2.394 6.486 o
4 -4 -3 78.792 77.094 1.441 13.189 o
4 -4 -2 14.962 12.159 0.590 104.204 o
4 -4 -1 194.276 197.416 2.718 3.356 o
4 -3 -16 16.395 18.780 1.725 42.650 o
4 -3 -15 6.172 8.336 1.725 58.473 o
4 -3 -14 22.610 23.954 2.395 25.069 o
4 -3 -13 30.505 34.495 2.970 16.577 o
4 -3 -12 64.014 62.020 1.971 14.873 o
4 -3 -11 2.748 3.235 0.184 595.536 o
4 -3 -10 22.042 22.391 0.591 66.501 o
4 -3 -9 31.512 32.439 2.043 25.366 o
4 -3 -8 203.188 198.305 4.256 2.777 o
4 -3 -7 91.389 83.689 2.178 9.913 o
4 -3 -6 36.692 35.532 1.030 34.423 o
4 -3 -5 3.308 4.029 0.430 370.228 o
4 -3 -4 363.099 356.637 4.700 1.181 o
4 -3 -3 25.332 25.646 0.640 56.606 o
4 -3 -2 9.881 11.499 0.424 151.231 o
4 -3 -1 7.953 8.939 0.412 188.668 o
4 -2 -13 31.006 28.266 1.246 38.029 o
4 -2 -12 52.740 50.651 1.725 19.335 o
4 -2 -11 528.168 536.389 22.901 0.260 o
4 -2 -10 251.131 254.479 7.517 1.520 o
4 -2 -9 16.234 15.286 1.025 71.568 o
4 -2 -8 10.838 10.713 0.719 119.660 o
4 -2 -7 59.690 63.642 1.546 17.224 o
4 -2 -6 31.622 30.765 0.792 43.276 o
4 -2 -5 327.950 332.964 5.444 1.297 o
4 -2 -4 90.917 91.821 1.404 10.928 o
4 -2 -3 28.477 32.074 0.721 46.856 o
4 -2 -2 35.910 37.131 0.713 37.620 o
4 -2 -1 274.980 287.890 3.934 1.820 o
4 -1 -15 152.729 164.254 5.457 3.127 o
4 -1 -14 22.570 22.169 0.905 57.640 o
4 -1 -13 106.480 102.707 2.323 7.940 o
4 -1 -12 137.240 124.578 7.665 2.448 o
4 -1 -11 284.406 274.220 8.788 1.202 o
4 -1 -10 159.169 150.290 6.267 2.763 o
4 -1 -9 334.554 326.540 7.308 1.129 o
4 -1 -8 266.856 261.104 5.340 1.764 o
4 -1 -7 282.504 278.404 5.186 1.650 o
4 -1 -6 179.024 176.859 3.084 3.685 o
4 -1 -5 21.497 22.656 0.528 68.822 o
4 -1 -4 84.113 88.716 1.345 11.952 o
4 -1 -3 5.747 8.136 0.350 244.745 o
4 -1 -2 311.964 319.479 4.235 1.495 o
4 -1 -1 559.606 588.807 7.566 0.513 o
4 0 0 0.123 0.851 0.316 1573.080 o
4 0 1 486.493 486.879 6.926 0.672 o
4 0 2 441.000 467.272 10.293 0.633 o
4 0 3 0.024 0.462 0.327 1763.510 o
4 0 4 875.903 935.395 20.707 0.171 o
4 0 5 1129.300 1212.210 26.709 0.104 o
4 0 6 89.247 96.713 1.564 10.602 o
4 0 7 0.202 0.657 0.316 1585.890 o
4 0 8 75.738 91.181 1.482 12.571 o
4 0 9 144.516 155.982 2.705 4.905 o
4 0 10 29.863 32.304 0.981 41.496 o
4 0 11 32.692 34.027 1.163 35.975 o
4 0 12 3.810 3.953 0.551 293.716 o
4 0 13 4.790 5.348 0.776 186.516 o
4 0 14 5.641 6.426 0.828 159.815 o
4 0 15 19.412 17.041 1.648 43.020 o
4 0 16 2.184 1.258 0.542 435.606 o
4 0 17 9.546 7.210 0.682 144.603 o
4 1 0 231.085 244.722 3.781 2.355 o
4 1 1 113.667 122.502 2.143 7.190 o
4 1 2 35.970 34.121 0.967 36.087 o
4 1 3 222.409 236.912 4.524 2.318 o
4 1 4 225.383 228.773 4.387 2.358 o
4 1 5 1.877 1.467 0.312 746.054 o
4 1 6 2.935 3.634 0.354 448.700 o
4 1 7 3.930 3.114 0.370 392.413 o
4 1 8 367.615 380.294 5.497 1.083 o
4 1 9 198.645 201.562 3.404 3.064 o
4 1 10 147.683 149.065 4.882 3.601 o
4 1 11 1.401 1.236 0.606 426.391 o
4 1 12 7.425 7.859 0.918 126.384 o
4 1 13 10.145 12.121 0.886 104.519 o
4 1 14 127.594 134.774 3.537 5.108 o
4 1 15 59.347 63.166 2.924 11.719 o
4 1 16 4.064 3.568 0.729 224.682 o
4 2 0 347.208 386.202 6.591 1.064 o
4 2 1 121.195 127.137 2.659 6.235 o
4 2 2 147.075 149.564 3.029 4.729 o
4 2 3 234.174 228.541 3.523 2.452 o
4 2 4 663.781 685.281 12.359 0.336 o
4 2 5 132.897 126.470 2.213 6.142 o
4 2 6 364.160 386.193 6.734 1.010 o
4 2 7 129.112 125.654 2.406 6.164 o
4 2 8 88.527 83.886 1.817 10.863 o
4 2 9 144.431 141.476 2.553 5.219 o
4 2 10 61.542 61.895 1.666 16.537 o
4 2 11 123.150 127.068 2.699 6.122 o
4 2 12 127.074 129.482 3.275 5.426 o
4 2 13 4.604 4.409 0.649 232.116 o
4 2 14 15.137 16.879 1.409 55.453 o
4 2 15 0.967 0.767 0.957 218.471 o
4 2 16 5.701 5.883 0.913 146.237 o
4 3 0 323.159 325.076 5.725 1.306 o
4 3 1 297.891 283.515 5.026 1.576 o
4 3 2 45.276 48.396 1.094 26.065 o
4 3 3 85.072 84.234 1.815 11.200 o
4 3 4 118.485 116.992 2.291 6.938 o
4 3 5 458.372 480.204 9.477 0.634 o
4 3 6 245.724 252.806 4.933 1.991 o
4 3 7 33.932 35.698 1.055 35.940 o
4 3 8 98.610 98.859 2.949 7.594 o
4 3 9 240.509 237.151 4.270 2.212 o
4 3 10 12.923 13.323 0.800 97.069 o
4 3 11 46.143 48.811 1.493 22.908 o
4 3 12 10.867 10.693 1.016 93.665 o
4 3 13 20.343 20.122 2.108 31.131 o
4 3 14 16.317 16.623 1.068 68.027 o
4 3 15 16.230 16.897 1.081 67.374 o
4 4 0 460.479 461.203 9.234 0.651 o
4 4 1 45.278 50.855 1.512 22.722 o
4 4 2 383.861 385.117 7.251 0.934 o
4 4 3 126.586 126.396 2.626 6.064 o
4 4 4 68.217 68.459 1.643 14.868 o
4 4 5 101.142 98.828 3.291 6.965 o
4 4 6 301.427 299.208 5.045 1.518 o
4 4 7 95.951 88.396 1.821 9.955 o
4 4 8 107.361 105.806 1.991 8.208 o
4 4 9 48.428 49.901 1.379 22.760 o
4 4 10 183.306 175.883 4.124 3.223 o
4 4 11 26.884 26.608 1.253 41.879 o
4 4 12 45.976 43.597 2.875 14.475 o
4 4 13 11.111 9.871 1.485 62.954 o
4 5 0 7.745 8.921 0.922 120.870 o
4 5 1 23.018 23.997 0.851 56.940 o
4 5 2 354.015 349.418 9.611 0.883 o
4 5 3 99.385 99.480 1.975 8.999 o
4 5 4 293.185 290.718 4.847 1.602 o
4 5 5 38.163 36.800 1.084 32.536 o
4 5 6 1.889 2.479 0.495 457.319 o
4 5 7 95.512 93.987 1.885 9.653 o
4 5 8 56.066 53.736 1.899 17.325 o
4 5 9 9.037 8.627 0.810 127.391 o
4 5 10 13.367 13.060 0.797 96.111 o
4 5 11 11.306 8.929 0.939 101.759 o
4 6 0 6.281 5.226 0.876 150.759 o
4 6 1 4.142 4.784 1.176 117.262 o
4 6 2 129.044 132.953 3.380 5.223 o
4 6 3 93.783 95.106 3.067 7.760 o
4 6 4 14.823 16.672 1.821 41.964 o
4 6 5 1.105 0.314 0.634 446.748 o
4 6 6 41.510 41.772 1.187 28.480 o
4 6 7 3.008 2.344 0.437 431.201 o
4 6 8 2.725 2.146 0.521 392.923 o
5 -6 -7 0.254 0.515 0.171 3269.400 o
5 -6 -6 46.147 47.767 1.193 25.177 o
5 -6 -5 27.179 27.327 0.776 50.367 o
5 -6 -4 16.647 16.325 0.643 86.854 o
5 -6 -3 77.379 82.326 1.855 12.062 o
5 -6 -2 23.389 24.189 0.753 58.541 o
5 -6 -1 4.008 4.636 0.555 276.335 o
5 -5 -11 4.072 4.412 0.349 361.278 o
5 -5 -10 73.022 72.301 5.069 5.695 o
5 -5 -9 22.774 23.510 1.383 44.099 o
5 -5 -8 16.719 18.261 0.866 74.174 o
5 -5 -7 12.112 15.539 0.621 107.731 o
5 -5 -6 22.098 24.474 0.693 61.937 o
5 -5 -5 58.322 55.297 1.020 20.740 o
5 -5 -4 45.475 50.528 1.024 25.993 o
5 -5 -3 96.001 97.425 1.520 10.002 o
5 -5 -2 38.452 39.056 0.803 34.311 o
5 -5 -1 146.457 146.319 2.553 5.080 o
5 -4 -13 31.323 35.164 1.826 27.575 o
5 -4 -12 75.206 78.288 2.683 10.364 o
5 -4 -11 3.873 3.614 0.442 347.320 o
5 -4 -10 31.886 30.126 0.783 43.441 o
5 -4 -9 38.304 36.779 0.778 35.399 o
5 -4 -8 142.960 142.175 2.152 5.500 o
5 -4 -7 15.531 13.945 0.482 103.090 o
5 -4 -6 13.752 8.873 0.461 128.222 o
5 -4 -5 143.441 133.025 1.908 5.792 o
5 -4 -4 1.451 0.956 0.312 905.584 o
5 -4 -3 2.434 1.957 0.311 616.885 o
5 -4 -2 27.992 29.194 0.683 49.704 o
5 -4 -1 139.260 129.548 2.289 5.777 o
5 -3 -15 34.368 32.770 2.300 21.722 o
5 -3 -14 16.510 13.989 1.916 39.082 o
5 -3 -13 31.762 34.399 2.779 17.853 o
5 -3 -12 3.928 4.294 0.457 324.177 o
5 -3 -11 58.913 54.960 1.266 19.597 o
5 -3 -10 127.186 130.756 2.487 6.071 o
5 -3 -9 18.328 18.052 0.459 85.299 o
5 -3 -8 14.923 13.430 0.353 113.020 o
5 -3 -7 65.388 63.989 1.877 14.864 o
5 -3 -6 48.825 48.480 1.189 24.072 o
5 -3 -5 160.885 173.347 3.216 4.022 o
5 -3 -4 40.657 44.111 1.095 29.108 o
5 -3 -3 45.436 43.790 0.931 28.101 o
5 -3 -2 13.789 15.687 0.592 101.429 o
5 -3 -1 115.134 111.347 1.799 7.760 o
5 -2 -13 52.625 52.029 2.300 16.004 o
5 -2 -12 36.503 40.531 1.821 24.715 o
5 -2 -11 46.260 43.170 1.480 23.897 o
5 -2 -10 71.825 66.545 1.399 15.180 o
5 -2 -9 91.995 89.894 2.640 8.767 o
5 -2 -8 112.227 116.818 2.909 6.572 o
5 -2 -7 45.658 42.373 1.391 24.944 o
5 -2 -6 17.956 15.502 0.805 77.172 o
5 -2 -5 40.626 39.490 1.214 29.215 o
5 -2 -4 19.478 19.459 0.610 75.280 o
5 -2 -3 3.241 2.514 0.328 486.093 o
5 -2 -2 48.032 47.282 0.867 26.520 o
5 -2 -1 256.084 255.170 3.314 2.160 o
5 -1 -15 47.061 44.320 1.423 23.850 o
5 -1 -14 16.867 18.684 1.054 65.533 o
5 -1 -13 7.887 7.873 0.319 209.949 o
5 -1 -12 69.157 67.009 1.274 15.980 o
5 -1 -11 127.061 119.882 1.971 6.738 o
5 -1 -10 542.340 527.942 17.053 0.353 o
5 -1 -9 264.281 261.107 6.206 1.647 o
5 -1 -8 281.337 271.005 6.338 1.524 o
5 -1 -7 63.796 56.228 1.503 17.316 o
5 -1 -6 13.161 13.989 0.700 101.402 o
5 -1 -5 4.942 5.035 0.396 297.620 o
5 -1 -4 65.667 68.769 1.229 16.622 o
5 -1 -3 204.472 192.316 2.925 3.179 o
5 -1 -2 8.194 7.038 0.358 206.699 o
5 -1 -1 86.808 79.787 1.306 12.235 o
5 0 0 153.297 166.660 2.693 4.528 o
5 0 1 999.989 989.828 13.207 0.179 o
5 0 2 1074.420 1110.820 15.510 0.148 o
5 0 3 2.245 4.220 0.389 454.081 o
5 0 4 2.105 0.993 0.342 700.261 o
5 0 5 216.440 225.424 4.688 2.386 o
5 0 6 90.024 94.875 1.862 10.124 o
5 0 7 22.923 18.518 0.766 64.039 o
5 0 8 197.324 178.578 3.094 3.350 o
5 0 9 73.953 74.195 1.560 13.790 o
5 0 10 68.388 57.992 1.182 17.320 o
5 0 11 60.985 58.324 1.349 18.331 o
5 0 12 0.083 0.318 0.479 898.892 o
5 0 13 29.423 33.417 1.287 36.659 o
5 0 14 2.561 1.676 0.775 257.723 o
5 0 15 10.106 11.128 2.060 40.175 o
5 1 0 185.919 187.063 2.995 3.501 o
5 1 1 563.641 578.825 8.619 0.495 o
5 1 2 123.763 125.884 2.074 6.667 o
5 1 3 396.486 413.694 6.622 0.908 o
5 1 4 86.978 84.797 2.078 10.448 o
5 1 5 176.247 175.452 3.690 3.508 o
5 1 6 74.511 77.588 1.859 12.682 o
5 1 7 73.632 78.447 1.794 12.912 o
5 1 8 363.783 365.376 6.400 1.060 o
5 1 9 88.136 85.439 1.893 10.678 o
5 1 10 29.438 29.245 0.785 46.424 o
5 1 11 15.992 15.082 0.720 87.487 o
5 1 12 56.618 56.700 1.413 19.288 o
5 1 13 116.385 115.187 3.577 5.714 o
5 1 14 4.236 2.457 1.010 153.724 o
5 1 15 8.200 9.347 0.996 109.063 o
5 2 0 176.301 186.325 3.045 3.663 o
5 2 1 61.306 64.064 1.438 17.278 o
5 2 2 129.549 123.918 2.433 6.159 o
5 2 3 219.037 223.957 4.093 2.509 o
5 2 4 16.453 16.079 0.771 82.073 o
5 2 5 277.629 278.925 5.825 1.591 o
5 2 6 227.651 219.227 4.667 2.318 o
5 2 7 180.573 184.967 3.947 3.264 o
5 2 8 60.939 65.996 1.663 16.275 o
5 2 9 85.324 85.207 1.565 11.614 o
5 2 10 126.293 127.362 2.223 6.396 o
5 2 11 83.291 84.680 1.896 11.194 o
5 2 12 53.235 52.487 2.174 16.530 o
5 2 13 13.144 15.008 1.538 54.061 o
5 2 14 27.360 27.565 1.679 33.366 o
5 2 15 0.224 0.211 0.638 515.374 o
5 3 0 28.873 30.078 1.228 39.254 o
5 3 1 3.567 3.826 0.634 267.768 o
5 3 2 48.126 43.276 1.314 24.434 o
5 3 3 65.321 60.615 1.591 16.239 o
5 3 4 379.291 385.244 7.718 0.917 o
5 3 5 9.574 9.647 0.788 123.360 o
5 3 6 103.631 106.982 2.768 7.383 o
5 3 7 98.222 93.940 1.929 9.367 o
5 3 8 62.867 57.109 1.477 17.525 o
5 3 9 54.661 54.544 1.410 20.085 o
5 3 10 188.062 188.084 3.726 3.211 o
5 3 11 114.677 113.165 2.921 6.532 o
5 3 12 54.239 54.641 2.550 14.321 o
5 3 13 0.342 -0.158 0.454 959.285 o
5 3 14 5.889 4.120 1.725 61.723 o
5 4 0 1.931 2.162 0.858 229.703 o
5 4 1 62.367 63.547 1.822 15.606 o
5 4 2 303.443 297.411 5.443 1.471 o
5 4 3 19.029 18.164 0.774 72.411 o
5 4 4 49.764 50.803 1.207 23.227 o
5 4 5 318.323 335.688 6.206 1.262 o
5 4 6 109.864 108.920 2.313 7.577 o
5 4 7 33.697 34.221 1.506 30.777 o
5 4 8 43.073 42.857 1.354 26.149 o
5 4 9 73.125 71.700 2.249 12.087 o
5 4 10 113.447 113.406 3.027 6.458 o
5 4 11 63.292 65.444 3.354 9.900 o
5 4 12 30.551 20.601 2.395 23.291 o
5 5 0 86.729 88.865 2.335 9.774 o
5 5 1 182.586 182.859 3.754 3.322 o
5 5 2 15.027 14.707 0.770 88.747 o
5 5 3 33.725 32.586 1.042 37.370 o
5 5 4 38.736 38.559 1.414 28.364 o
5 5 5 189.263 193.456 8.911 1.636 o
5 5 6 75.459 80.203 2.507 10.714 o
5 5 7 77.911 80.805 2.222 11.181 o
5 5 8 25.868 25.884 1.047 47.454 o
5 5 9 144.990 139.138 7.450 2.433 o
5 5 10 10.718 9.199 1.629 56.809 o
5 6 0 11.157 12.934 1.174 78.063 o
5 6 1 71.440 69.632 2.349 12.087 o
5 6 2 17.638 16.147 1.383 53.641 o
5 6 3 31.665 29.289 2.740 18.634 o
5 6 4 22.902 21.914 2.395 25.288 o
5 6 5 30.709 25.925 0.836 46.048 o
5 6 6 11.621 7.603 1.363 71.078 o
6 -6 -1 20.219 21.942 1.629 40.917 o
6 -5 -9 5.568 4.312 1.341 92.274 o
6 -5 -8 36.514 38.815 1.485 28.565 o
6 -5 -7 62.590 59.104 1.707 16.433 o
6 -5 -6 19.887 19.993 0.576 74.576 o
6 -5 -5 3.089 2.442 0.373 469.233 o
6 -5 -4 9.970 8.715 0.643 140.002 o
6 -5 -3 25.901 27.611 0.728 52.730 o
6 -5 -2 23.625 19.473 0.639 65.095 o
6 -5 -1 8.100 9.258 0.624 156.079 o
6 -4 -12 32.626 32.082 1.325 34.415 o
6 -4 -11 13.951 14.624 1.010 78.689 o
6 -4 -10 2.275 2.541 0.401 511.061 o
6 -4 -9 20.948 21.826 0.630 68.443 o
6 -4 -8 18.259 19.631 0.515 81.371 o
6 -4 -7 11.025 12.489 0.421 137.601 o
6 -4 -6 109.659 106.828 1.564 8.495 o
6 -4 -5 11.724 10.002 0.481 137.243 o
6 -4 -4 9.188 7.677 0.471 173.245 o
6 -4 -3 33.654 28.814 0.697 43.422 o
6 -4 -2 119.783 117.066 1.926 7.216 o
6 -4 -1 17.415 15.403 0.684 84.086 o
6 -3 -13 30.959 34.727 2.156 23.886 o
6 -3 -12 73.134 82.472 2.473 10.913 o
6 -3 -11 18.172 18.857 0.884 69.461 o
6 -3 -10 103.742 103.290 2.215 8.234 o
6 -3 -9 121.349 116.870 1.986 7.085 o
6 -3 -8 76.500 77.518 1.319 13.761 o
6 -3 -7 70.097 68.462 1.216 15.834 o
6 -3 -6 32.554 30.741 0.752 42.888 o
6 -3 -5 18.049 12.848 0.540 92.454 o
6 -3 -4 36.565 44.562 0.844 33.397 o
6 -3 -3 51.762 49.609 0.878 24.473 o
6 -3 -2 67.413 68.694 1.569 15.223 o
6 -3 -1 74.214 73.590 1.785 13.179 o
6 -2 -13 41.582 44.939 2.012 20.860 o
6 -2 -12 26.473 29.608 1.437 37.528 o
6 -2 -11 6.262 6.349 0.310 261.459 o
6 -2 -10 11.469 12.555 0.380 136.740 o
6 -2 -9 183.050 170.470 2.743 3.794 o
6 -2 -8 61.511 53.870 1.034 19.991 o
6 -2 -7 8.649 9.304 0.484 168.559 o
6 -2 -6 125.242 128.735 3.267 5.504 o
6 -2 -5 53.731 50.544 1.495 20.411 o
6 -2 -4 36.743 38.944 1.176 31.770 o
6 -2 -3 10.149 9.742 0.545 144.952 o
6 -2 -2 62.895 61.065 1.105 18.472 o
6 -2 -1 42.337 40.211 0.899 30.827 o
6 -1 -14 124.111 133.858 5.941 3.403 o
6 -1 -13 19.486 19.868 0.736 70.711 o
6 -1 -12 26.774 24.783 0.736 53.323 o
6 -1 -11 31.129 32.902 0.676 44.158 o
6 -1 -10 132.164 128.721 2.392 5.990 o
6 -1 -9 20.156 22.219 0.866 62.811 o
6 -1 -8 6.747 7.635 1.010 119.033 o
6 -1 -7 132.704 129.325 3.274 5.254 o
6 -1 -6 244.252 233.495 5.420 1.979 o
6 -1 -5 76.924 78.377 1.983 12.021 o
6 -1 -4 143.403 140.784 2.587 5.241 o
6 -1 -3 138.976 134.564 2.412 5.611 o
6 -1 -2 18.989 17.645 0.712 75.415 o
6 -1 -1 70.968 71.781 1.313 15.117 o
6 0 0 2046.180 2116.520 35.128 0.040 o
6 0 1 224.147 229.993 3.636 2.526 o
6 0 2 50.972 56.836 1.180 21.995 o
6 0 3 33.019 36.835 0.984 37.042 o
6 0 4 124.303 121.577 2.208 6.628 o
6 0 5 17.504 18.697 0.711 77.969 o
6 0 6 18.812 20.479 1.377 49.845 o
6 0 7 6.470 6.016 0.464 228.530 o
6 0 8 3.478 1.460 0.357 489.654 o
6 0 9 3.026 2.114 0.385 477.638 o
6 0 10 57.937 53.663 1.204 20.307 o
6 0 11 0.408 0.079 0.502 777.069 o
6 0 12 49.584 45.289 1.653 21.296 o
6 0 13 0.036 0.397 0.572 645.695 o
6 0 14 19.744 12.785 1.198 59.946 o
6 1 0 61.081 61.392 1.293 18.176 o
6 1 1 208.102 217.671 3.320 2.853 o
6 1 2 12.248 13.577 0.654 109.709 o
6 1 3 66.163 63.743 1.405 16.452 o
6 1 4 157.682 153.502 2.878 4.489 o
6 1 5 159.147 158.901 3.476 4.081 o
6 1 6 5.556 5.294 0.850 161.928 o
6 1 7 77.457 72.332 1.322 14.000 o
6 1 8 186.572 179.045 2.720 3.652 o
6 1 9 21.405 20.546 0.733 65.983 o
6 1 10 64.587 61.102 1.279 17.480 o
6 1 11 61.854 63.532 1.869 15.508 o
6 1 12 87.492 85.037 5.078 5.189 o
6 1 13 20.932 19.879 2.834 20.642 o
6 1 14 1.260 1.309 0.547 499.190 o
6 2 0 136.160 139.311 2.505 5.563 o
6 2 1 14.980 17.213 0.798 83.448 o
6 2 2 89.741 90.211 2.937 8.355 o
6 2 3 107.229 102.814 2.203 8.047 o
6 2 4 383.924 393.255 10.308 0.756 o
6 2 5 22.704 29.061 1.488 39.480 o
6 2 6 49.044 45.043 1.509 22.472 o
6 2 7 29.201 28.146 0.998 43.773 o
6 2 8 38.197 37.668 1.104 32.053 o
6 2 9 2.611 3.536 0.626 303.763 o
6 2 10 5.188 3.812 0.605 240.312 o
6 2 11 89.768 82.375 2.673 9.114 o
6 2 12 0.355 0.556 0.797 325.429 o
6 2 13 21.494 15.624 1.084 59.035 o
6 3 0 7.852 8.681 0.913 122.078 o
6 3 1 92.122 89.271 1.826 10.249 o
6 3 2 349.639 329.611 5.576 1.215 o
6 3 3 380.849 378.219 7.406 0.939 o
6 3 4 127.553 129.989 2.679 5.912 o
6 3 5 20.971 21.137 0.922 60.611 o
6 3 6 103.338 107.723 2.263 8.057 o
6 3 7 30.277 33.135 1.075 39.370 o
6 3 8 8.661 7.782 0.726 143.708 o
6 3 9 17.742 17.803 1.242 57.518 o
6 3 10 15.208 16.121 1.091 69.757 o
6 3 11 9.749 7.465 1.028 103.082 o
6 3 12 29.670 27.500 2.300 23.693 o
6 4 0 34.466 34.000 1.146 35.010 o
6 4 1 26.464 27.815 0.972 47.268 o
6 4 2 27.833 28.151 0.978 45.498 o
6 4 3 59.062 60.539 1.554 17.647 o
6 4 4 40.128 39.624 1.185 29.696 o
6 4 5 20.220 19.943 1.236 52.859 o
6 4 6 21.108 21.869 1.240 50.455 o
6 4 7 21.880 22.433 1.352 46.251 o
6 4 8 12.467 12.458 0.862 96.242 o
6 4 9 41.980 43.442 1.743 23.157 o
6 4 10 40.233 39.055 4.935 7.317 o
6 5 0 5.642 5.734 0.998 133.055 o
6 5 1 1.760 0.768 0.640 387.290 o
6 5 2 69.320 68.963 2.476 11.953 o
6 5 3 30.170 29.597 1.331 36.772 o
6 5 4 22.757 22.414 1.486 42.135 o
6 5 5 9.827 11.213 0.821 114.206 o
6 5 6 32.305 35.612 1.158 35.765 o
6 5 7 35.115 30.287 1.737 28.117 o
7 -5 -5 5.896 5.116 0.496 242.208 o
7 -5 -4 17.542 20.287 0.574 80.601 o
7 -5 -3 16.331 16.801 0.520 92.308 o
7 -5 -2 37.085 42.764 1.628 26.019 o
7 -5 -1 45.840 50.932 1.136 25.062 o
7 -4 -9 55.869 50.692 1.099 21.826 o
7 -4 -8 12.922 11.966 0.660 109.907 o
7 -4 -7 46.713 45.896 1.101 25.943 o
7 -4 -6 31.008 33.500 1.005 39.642 o
7 -4 -5 2.375 1.425 0.352 614.118 o
7 -4 -4 9.746 9.954 0.629 138.525 o
7 -4 -3 21.998 26.789 0.731 59.193 o
7 -4 -2 36.004 33.755 0.836 37.645 o
7 -4 -1 22.267 22.431 0.798 60.812 o
7 -3 -11 42.699 47.999 2.599 16.220 o
7 -3 -10 5.800 5.485 0.300 288.902 o
7 -3 -9 20.043 22.403 0.513 72.849 o
7 -3 -8 7.139 8.127 0.352 216.368 o
7 -3 -7 41.608 38.302 0.814 32.460 o
7 -3 -6 3.281 2.867 0.314 477.155 o
7 -3 -5 15.612 16.936 0.590 91.750 o
7 -3 -4 39.933 35.223 0.821 34.443 o
7 -3 -3 100.312 101.247 1.776 9.138 o
7 -3 -2 73.457 70.601 1.297 14.837 o
7 -3 -1 3.705 3.711 0.380 383.749 o
7 -2 -13 3.603 3.833 1.054 144.202 o
7 -2 -12 61.414 58.729 3.593 9.540 o
7 -2 -11 29.072 32.945 1.019 41.328 o
7 -2 -10 50.924 48.733 0.904 24.836 o
7 -2 -9 20.164 22.650 0.632 69.201 o
7 -2 -8 34.015 33.184 0.718 40.794 o
7 -2 -7 211.692 215.598 4.027 2.646 o
7 -2 -6 51.642 48.170 1.162 23.291 o
7 -2 -5 55.114 55.398 1.119 21.245 o
7 -2 -4 21.535 22.929 0.713 63.941 o
7 -2 -3 265.568 251.291 5.441 1.785 o
7 -2 -2 128.633 128.574 1.850 6.550 o
7 -2 -1 53.467 55.460 1.070 21.966 o
7 -1 -14 0.080 0.096 0.144 7332.820 o
7 -1 -13 6.551 6.707 0.575 197.797 o
7 -1 -12 34.208 35.791 1.184 34.126 o
7 -1 -11 29.498 33.026 0.710 45.368 o
7 -1 -10 21.750 23.210 0.655 64.704 o
7 -1 -9 39.674 35.809 0.905 33.661 o
7 -1 -8 157.544 160.118 3.604 4.035 o
7 -1 -7 18.388 19.617 0.764 72.584 o
7 -1 -6 149.215 148.642 2.724 4.864 o
7 -1 -5 47.739 47.500 1.159 24.842 o
7 -1 -4 459.941 442.495 7.560 0.725 o
7 -1 -3 170.429 174.529 2.761 4.005 o
7 -1 -2 72.540 68.347 2.339 12.067 o
7 -1 -1 103.355 100.912 2.151 8.424 o
7 0 0 84.727 88.043 2.050 10.564 o
7 0 1 29.714 28.570 0.971 43.526 o
7 0 2 73.907 76.684 2.003 12.417 o
7 0 3 135.339 127.946 1.924 6.214 o
7 0 4 263.715 264.597 4.851 1.845 o
7 0 5 5.194 5.189 0.528 248.090 o
7 0 6 85.168 75.222 1.294 12.758 o
7 0 7 66.843 76.114 1.561 14.729 o
7 0 8 11.149 15.382 0.734 104.854 o
7 0 9 8.882 9.228 0.690 140.881 o
7 0 10 12.392 11.634 0.789 103.599 o
7 0 11 8.080 7.871 0.738 146.477 o
7 0 12 14.127 16.649 0.856 83.855 o
7 1 0 491.294 492.574 8.552 0.616 o
7 1 1 0.736 1.401 0.428 759.269 o
7 1 2 82.521 82.356 1.420 12.397 o
7 1 3 426.640 437.348 6.224 0.838 o
7 1 4 153.239 154.151 2.712 4.684 o
7 1 5 31.804 32.689 1.009 39.276 o
7 1 6 55.856 55.898 1.563 18.840 o
7 1 7 61.625 59.953 1.499 17.398 o
7 1 8 21.528 20.582 1.118 54.280 o
7 1 9 8.151 7.480 0.829 134.723 o
7 1 10 1.211 1.425 0.565 476.820 o
7 1 11 10.154 10.808 1.069 91.677 o
7 1 12 19.589 19.906 2.970 19.453 o
7 2 0 0.530 0.952 0.411 904.787 o
7 2 1 95.067 96.688 1.725 9.822 o
7 2 2 315.629 308.198 4.833 1.452 o
7 2 3 114.355 118.535 2.264 7.134 o
7 2 4 79.848 79.074 1.790 12.118 o
7 2 5 4.720 3.789 0.565 264.825 o
7 2 6 77.175 81.368 2.287 11.060 o
7 2 7 98.913 98.870 2.598 8.116 o
7 2 8 6.167 7.570 0.944 131.695 o
7 2 9 0.152 0.241 0.466 935.992 o
7 2 10 24.440 26.445 1.919 31.117 o
7 2 11 29.119 28.831 1.523 34.567 o
7 3 0 40.698 41.657 1.211 28.687 o
7 3 1 235.004 234.670 4.060 2.311 o
7 3 2 30.360 27.809 0.951 43.600 o
7 3 3 117.046 111.477 2.272 7.170 o
7 3 4 14.078 11.968 0.812 94.471 o
7 3 5 19.704 20.102 1.064 59.021 o
7 3 6 36.119 36.531 1.278 31.657 o
7 3 7 1.201 2.133 0.560 455.989 o
7 3 8 6.959 8.399 0.944 124.233 o
7 3 9 1.929 1.833 0.513 461.067 o
7 3 10 3.597 4.312 0.958 162.513 o
7 4 0 17.256 19.568 1.034 64.775 o
7 4 1 51.584 50.723 1.712 19.684 o
7 4 2 6.349 6.950 0.924 135.595 o
7 4 3 72.785 72.621 2.069 12.605 o
7 4 4 16.132 16.516 1.350 56.629 o
7 4 5 11.132 11.860 0.816 106.616 o
7 4 6 5.906 4.197 0.588 226.793 o
7 4 7 34.081 40.415 1.983 23.890 o
7 5 0 37.533 38.777 1.475 28.222 o
7 5 1 37.844 29.397 1.308 32.328 o
7 5 2 23.563 16.245 0.899 61.059 o
7 5 3 8.179 7.197 1.246 88.813 o
8 -4 -5 6.509 4.887 0.767 170.908 o
8 -4 -4 48.709 45.546 1.308 23.862 o
8 -4 -3 10.620 9.764 0.434 151.467 o
8 -4 -2 10.602 8.466 0.435 157.743 o
8 -4 -1 12.557 14.138 0.634 108.158 o
8 -3 -8 26.252 28.640 1.014 46.222 o
8 -3 -7 25.449 27.028 0.595 56.159 o
8 -3 -6 36.730 40.875 1.634 26.462 o
8 -3 -5 71.368 64.755 1.514 15.064 o
8 -3 -4 71.577 69.314 2.313 12.200 o
8 -3 -3 232.885 226.716 5.566 2.051 o
8 -3 -2 48.610 48.349 1.391 22.875 o
8 -3 -1 32.241 33.063 1.043 38.297 o
8 -2 -10 16.169 15.572 0.651 89.421 o
8 -2 -9 32.316 32.623 0.639 43.523 o
8 -2 -8 55.631 57.101 1.327 19.895 o
8 -2 -7 9.294 11.006 0.472 154.495 o
8 -2 -6 32.411 34.696 1.010 37.984 o
8 -2 -5 53.338 53.068 1.271 21.380 o
8 -2 -4 16.793 16.787 0.731 81.819 o
8 -2 -3 6.411 5.194 0.494 230.934 o
8 -2 -2 48.301 50.373 1.326 23.061 o
8 -2 -1 30.057 31.816 0.793 44.295 o
8 -1 -11 37.582 40.148 1.725 25.359 o
8 -1 -10 26.379 28.286 0.595 53.823 o
8 -1 -9 30.427 30.340 0.745 45.345 o
8 -1 -8 20.517 22.020 0.693 67.414 o
8 -1 -7 24.077 25.177 0.811 55.383 o
8 -1 -6 76.850 79.026 1.623 12.893 o
8 -1 -5 57.769 59.918 1.274 19.224 o
8 -1 -4 3.592 3.600 0.414 374.791 o
8 -1 -3 1.266 2.013 0.477 553.300 o
8 -1 -2 12.669 12.884 0.649 109.633 o
8 -1 -1 16.228 15.694 0.707 86.347 o
8 0 0 26.878 28.580 0.864 48.388 o
8 0 1 158.130 146.652 2.506 4.761 o
8 0 2 52.443 51.906 1.237 22.005 o
8 0 3 70.653 71.427 1.573 14.459 o
8 0 4 15.624 14.940 0.705 89.726 o
8 0 5 15.833 12.987 0.754 89.825 o
8 0 6 219.640 237.033 4.917 2.255 o
8 0 7 107.266 112.579 2.750 7.084 o
8 0 8 0.315 0.665 0.432 941.563 o
8 0 9 18.126 20.663 1.646 42.659 o
8 1 0 16.143 17.081 0.750 82.490 o
8 1 1 1.580 2.409 0.464 517.421 o
8 1 2 93.935 93.760 1.634 10.191 o
8 1 3 0.318 1.065 0.411 950.937 o
8 1 4 41.240 44.979 1.345 26.534 o
8 1 5 107.278 111.889 2.730 7.125 o
8 1 6 3.555 4.779 0.664 245.263 o
8 1 7 36.882 39.943 1.304 30.072 o
8 1 8 47.195 49.950 1.783 20.438 o
8 1 9 42.844 44.465 1.288 26.451 o
8 2 0 75.418 82.272 2.236 11.321 o
8 2 1 38.988 37.387 1.444 28.207 o
8 2 2 18.408 17.367 0.937 68.461 o
8 2 3 27.193 24.518 1.270 42.181 o
8 2 4 20.135 15.869 1.657 42.665 o
8 2 5 1.450 1.677 0.668 357.615 o
8 2 6 16.437 17.252 0.982 70.954 o
8 2 7 18.316 17.497 0.837 72.474 o
8 2 8 1.313 1.708 0.405 672.718 o
8 3 0 26.405 25.862 1.628 35.320 o
8 3 1 53.531 51.494 2.586 14.454 o
8 3 2 47.930 44.686 2.541 16.005 o
8 3 3 5.204 5.456 1.049 128.713 o
8 3 4 54.978 55.906 2.201 15.801 o
8 3 5 26.313 23.467 1.618 36.318 o
8 3 6 8.516 8.236 0.682 149.023 o
8 4 0 10.110 9.980 0.858 112.315 o
8 4 1 49.397 44.551 3.927 9.652 o
8 4 2 12.590 13.453 2.102 36.808 o
8 4 3 38.114 29.849 2.731 17.539 o
9 -2 -6 47.184 42.476 2.946 14.017 o
9 -2 -5 93.352 98.425 3.699 6.704 o
9 -2 -4 13.385 13.023 0.493 115.672 o
9 -2 -3 26.215 27.378 1.382 39.578 o
9 -2 -2 2.031 3.953 0.518 383.683 o
9 -2 -1 117.246 111.864 8.209 2.384 o
9 -1 -7 30.671 26.609 1.300 37.988 o
9 -1 -6 68.127 67.273 1.576 15.201 o
9 -1 -5 13.078 12.370 0.886 92.475 o
9 -1 -4 44.168 45.964 1.141 26.714 o
9 -1 -3 30.368 28.259 0.987 42.792 o
9 -1 -2 2.078 2.142 0.481 468.712 o
9 -1 -1 49.410 52.987 2.088 17.677 o
9 0 0 1.123 0.710 0.490 630.013 o
9 0 1 0.205 0.544 0.612 541.690 o
9 0 2 2.822 4.632 0.668 262.623 o
9 0 3 99.722 108.748 3.760 6.184 o
9 0 4 67.281 68.436 2.028 13.716 o
9 0 5 28.227 30.346 1.190 40.322 o
9 1 0 25.626 24.982 2.337 24.783 o
9 1 1 30.815 24.763 2.630 20.242 o
9 1 2 63.430 70.426 3.354 9.719 o
9 1 3 4.276 6.252 0.808 179.763 o
9 1 4 6.297 6.521 0.746 168.340 o
9 1 5 0.258 0.018 0.459 963.586 o
9 2 0 16.053 15.966 0.883 78.002 o
9 2 1 33.823 32.697 3.822 11.415 o
9 2 2 7.165 4.024 1.054 120.671 o
9 2 3 11.319 10.136 1.150 82.978 o
;
_olex2_date_sample_completion    2015-05-27
_olex2_date_sample_data_collection 2015-05-26
_olex2_date_sample_submission    2015-05-26
_olex2_submission_original_sample_id MLC-II-225
_olex2_submission_special_instructions 'No special instructions were received'
loop_
_space_group_symop_id
_space_group_symop_operation_xyz
1 x,y,z
2 -x,y+1/2,-z
loop_
_atom_site_label
_atom_site_type_symbol
_atom_site_fract_x
_atom_site_fract_y
_atom_site_fract_z
_atom_site_U_iso_or_equiv
_atom_site_adp_type
_atom_site_occupancy
_atom_site_refinement_flags_posn
O1 O -0.23489(11) -0.02179(14) 0.32337(6) 0.0267(2) Uani 1.000000 .
O2 O -0.74511(11) -0.08609(14) 0.10441(6) 0.0281(2) Uani 1.000000 .
H2 H -0.7569(11) 0.0452(3) 0.1064(10) 0.0422(3) Uiso 1.000000 GR
O3 O -0.24809(11) 0.48040(14) 0.15815(6) 0.0251(2) Uani 1.000000 .
O4 O -0.09417(11) 0.33373(15) 0.41352(6) 0.0309(2) Uani 1.000000 .
O5 O 0.04566(12) 0.29656(14) 0.09742(6) 0.0301(2) Uani 1.000000 .
C6 C -0.37942(14) 0.14293(18) 0.16412(7) 0.0195(2) Uani 1.000000 .
C7 C -0.62843(16) 0.1141(2) 0.36295(8) 0.0274(3) Uani 1.000000 .
C8 C -0.43741(15) 0.20356(19) 0.24928(8) 0.0203(2) Uani 1.000000 .
C9 C -0.29425(15) 0.1816(2) 0.31335(7) 0.0214(3) Uani 1.000000 .
C10 C -0.23314(16) 0.26697(18) 0.14186(7) 0.0201(3) Uani 1.000000 .
C11 C -0.09390(15) 0.1845(2) 0.11576(8) 0.0240(3) Uani 1.000000 .
H11 H -0.09036(15) 0.0360(2) 0.10922(8) 0.0288(3) Uiso 1.000000 R
C12 C -0.40300(16) -0.0641(2) 0.03017(8) 0.0246(3) Uani 1.000000 .
C13 C -0.44876(14) -0.0107(2) 0.11652(7) 0.0206(2) Uani 1.000000 .
C14 C -0.22587(15) 0.3459(2) 0.35393(8) 0.0249(3) Uani 1.000000 .
C15 C -0.61653(18) -0.0429(2) 0.41712(9) 0.0328(3) Uani 1.000000 .
C16 C -0.58785(15) -0.1445(2) 0.14702(8) 0.0229(3) Uani 1.000000 .
C17 C -0.07123(17) -0.0239(2) 0.36504(9) 0.0324(3) Uani 1.000000 .
C18 C -0.06505(19) 0.1210(3) 0.43925(9) 0.0343(3) Uani 1.000000 .
C19 C -0.59925(15) 0.0875(2) 0.27125(8) 0.0228(3) Uani 1.000000 .
C20 C -0.59669(16) -0.1388(2) 0.24088(8) 0.0236(3) Uani 1.000000 .
C21 C -0.08756(19) 0.5781(2) 0.16806(9) 0.0313(3) Uani 1.000000 .
C22 C 0.0137(2) 0.5199(2) 0.09606(10) 0.0345(3) Uani 1.000000 .
C23 C -0.67151(19) 0.3323(2) 0.38847(10) 0.0338(3) Uani 1.000000 .
H17a H -0.050(2) -0.171(3) 0.3813(11) 0.038(4) Uiso 1.000000 .
H8 H -0.4623(18) 0.349(3) 0.2476(9) 0.023(3) Uiso 1.000000 .
H12a H -0.503(2) -0.086(3) -0.0056(10) 0.026(3) Uiso 1.000000 .
H21a H -0.1037(19) 0.729(3) 0.1691(10) 0.027(4) Uiso 1.000000 .
H14 H -0.2630(18) 0.497(3) 0.3433(9) 0.022(3) Uiso 1.000000 .
H19 H -0.6900(17) 0.162(2) 0.2405(8) 0.016(3) Uiso 1.000000 .
H12b H -0.338(2) -0.197(3) 0.0322(11) 0.037(4) Uiso 1.000000 .
H15a H -0.589(2) -0.194(3) 0.4017(12) 0.044(5) Uiso 1.000000 .
H22a H 0.124(2) 0.590(3) 0.1007(10) 0.033(4) Uiso 1.000000 .
H15b H -0.633(2) -0.014(3) 0.4738(11) 0.033(4) Uiso 1.000000 .
H23a H -0.775(2) 0.374(3) 0.3583(10) 0.032(4) Uiso 1.000000 .
H18a H -0.152(2) 0.083(3) 0.4754(11) 0.036(4) Uiso 1.000000 .
H16 H -0.5673(16) -0.291(2) 0.1324(8) 0.015(3) Uiso 1.000000 .
H20a H -0.7024(19) -0.216(2) 0.2552(9) 0.022(4) Uiso 1.000000 .
H23b H -0.592(2) 0.438(3) 0.3738(11) 0.043(5) Uiso 1.000000 .
H23c H -0.681(2) 0.348(3) 0.4474(12) 0.045(5) Uiso 1.000000 .
H18b H 0.043(2) 0.116(3) 0.4703(10) 0.033(4) Uiso 1.000000 .
H20b H -0.5042(19) -0.214(2) 0.2648(9) 0.020(4) Uiso 1.000000 .
H17b H 0.011(2) 0.025(2) 0.3216(10) 0.030(4) Uiso 1.000000 .
H22b H -0.044(2) 0.555(3) 0.0432(11) 0.039(5) Uiso 1.000000 .
H21b H -0.026(2) 0.528(2) 0.2220(10) 0.030(4) Uiso 1.000000 .
H12c H -0.339(2) 0.054(3) 0.0077(10) 0.029(4) Uiso 1.000000 .
loop_
_atom_site_aniso_label
_atom_site_aniso_U_11
_atom_site_aniso_U_22
_atom_site_aniso_U_33
_atom_site_aniso_U_12
_atom_site_aniso_U_13
_atom_site_aniso_U_23
O1 0.0219(4) 0.0264(5) 0.0308(5) -0.0009(4) -0.0044(4) 0.0033(4)
O2 0.0214(4) 0.0297(5) 0.0324(5) -0.0042(4) -0.0049(4) -0.0018(4)
O3 0.0283(4) 0.0185(4) 0.0289(5) -0.0030(4) 0.0038(4) 0.0004(4)
O4 0.0272(5) 0.0407(6) 0.0243(4) -0.0072(4) -0.0037(4) -0.0036(4)
O5 0.0238(4) 0.0293(5) 0.0382(5) -0.0066(4) 0.0099(4) -0.0013(4)
C6 0.0180(5) 0.0199(6) 0.0205(6) 0.0016(5) 0.0010(4) 0.0023(5)
C7 0.0191(6) 0.0369(8) 0.0268(7) -0.0050(5) 0.0052(5) -0.0051(6)
C8 0.0200(6) 0.0187(6) 0.0221(6) -0.0007(5) 0.0018(5) -0.0006(5)
C9 0.0208(6) 0.0234(6) 0.0202(6) -0.0026(5) 0.0034(5) 0.0009(5)
C10 0.0244(6) 0.0175(6) 0.0181(5) -0.0014(5) -0.0008(5) 0.0005(5)
C11 0.0232(6) 0.0228(6) 0.0262(6) -0.0042(5) 0.0032(5) 0.0004(5)
C12 0.0256(6) 0.0256(7) 0.0225(6) -0.0007(5) 0.0003(5) -0.0016(5)
C13 0.0192(6) 0.0202(6) 0.0222(6) 0.0011(5) -0.0004(5) 0.0008(5)
C14 0.0224(6) 0.0318(7) 0.0206(6) -0.0029(5) 0.0015(5) -0.0008(5)
C15 0.0337(7) 0.0421(9) 0.0232(7) -0.0014(7) 0.0061(6) -0.0010(6)
C16 0.0203(6) 0.0224(6) 0.0258(6) -0.0031(5) -0.0006(5) -0.0027(5)
C17 0.0236(6) 0.0367(8) 0.0356(7) 0.0009(6) -0.0071(6) 0.0066(7)
C18 0.0285(7) 0.0478(9) 0.0261(7) -0.0046(6) -0.0028(6) 0.0072(6)
C19 0.0186(6) 0.0269(6) 0.0229(6) -0.0019(5) 0.0027(5) -0.0011(5)
C20 0.0217(6) 0.0242(6) 0.0251(6) -0.0048(5) 0.0035(5) 0.0009(5)
C21 0.0341(7) 0.0247(6) 0.0356(8) -0.0105(6) 0.0058(6) -0.0008(6)
C22 0.0380(8) 0.0310(8) 0.0355(8) -0.0116(6) 0.0094(6) 0.0013(6)
C23 0.0325(7) 0.0370(8) 0.0331(8) -0.0034(7) 0.0108(6) -0.0063(6)
loop_
_atom_type_symbol
_atom_type_scat_dispersion_real
_atom_type_scat_dispersion_imag
_atom_type_scat_Cromer_Mann_a1
_atom_type_scat_Cromer_Mann_a2
_atom_type_scat_Cromer_Mann_a3
_atom_type_scat_Cromer_Mann_a4
_atom_type_scat_Cromer_Mann_b1
_atom_type_scat_Cromer_Mann_b2
_atom_type_scat_Cromer_Mann_b3
_atom_type_scat_Cromer_Mann_b4
_atom_type_scat_Cromer_Mann_c
_atom_type_scat_source
_atom_type_scat_dispersion_source
H 0.00000 0.00000 0.49300 0.32291 0.14019 0.04081 10.51090 26.12570 3.14236
57.79970 0.0030380000826
'International Tables Volume C Table 6.1.1.4 (pp. 500-502)'
'Henke, Gullikson and Davis, At. Data and Nucl. Data Tables, 1993, 54, 2'
C 0.01920 0.00962 2.31000 1.02000 1.58860 0.86500 20.84390 10.20750 0.56870
51.65120 0.215599998832
'International Tables Volume C Table 6.1.1.4 (pp. 500-502)'
'Henke, Gullikson and Davis, At. Data and Nucl. Data Tables, 1993, 54, 2'
O 0.05239 0.03376 3.04850 2.28680 1.54630 0.86700 13.27710 5.70110 0.32390
32.90890 0.250800013542
'International Tables Volume C Table 6.1.1.4 (pp. 500-502)'
'Henke, Gullikson and Davis, At. Data and Nucl. Data Tables, 1993, 54, 2'
loop_
_geom_angle_atom_site_label_1
_geom_angle_atom_site_label_2
_geom_angle_atom_site_label_3
_geom_angle
C17 O1 C9 111.16(10)
C21 O3 C10 110.88(11)
C18 O4 C14 110.97(10)
C22 O5 C11 111.44(10)
C10 C6 C8 112.22(10)
C13 C6 C8 123.97(10)
C13 C6 C10 123.76(11)
C19 C7 C15 123.26(13)
C23 C7 C15 121.64(13)
C23 C7 C19 115.10(12)
C9 C8 C6 109.31(9)
C19 C8 C6 113.21(10)
C19 C8 C9 114.37(10)
C8 C9 O1 114.18(10)
C14 C9 O1 123.16(11)
C14 C9 C8 122.58(12)
C6 C10 O3 113.23(10)
C11 C10 O3 122.03(11)
C11 C10 C6 124.48(11)
C10 C11 O5 125.39(11)
C12 C13 C6 125.29(11)
C16 C13 C6 120.72(11)
C16 C13 C12 113.97(10)
C9 C14 O4 124.72(13)
C13 C16 O2 110.02(10)
C20 C16 O2 111.75(10)
C20 C16 C13 113.26(10)
C18 C17 O1 110.32(12)
C17 C18 O4 110.49(11)
C8 C19 C7 110.70(10)
C20 C19 C7 115.12(11)
C20 C19 C8 110.21(10)
C19 C20 C16 110.25(10)
C22 C21 O3 109.61(12)
C21 C22 O5 109.51(12)
loop_
_geom_bond_atom_site_label_1
_geom_bond_atom_site_label_2
_geom_bond_distance
O1 C9 1.3830(15)
O1 C17 1.4366(16)
O2 C16 1.4460(15)
O3 C10 1.3876(15)
O3 C21 1.4304(17)
O4 C14 1.3840(15)
O4 C18 1.4286(19)
O5 C11 1.3763(15)
O5 C22 1.4415(18)
C6 C8 1.5291(16)
C6 C10 1.4785(17)
C6 C13 1.3403(17)
C7 C15 1.325(2)
C7 C19 1.5227(17)
C7 C23 1.493(2)
C8 C9 1.5013(16)
C8 C19 1.5555(16)
C9 C14 1.3312(19)
C10 C11 1.3283(18)
C12 C13 1.5031(16)
C13 C16 1.5114(16)
C16 C20 1.5214(17)
C17 C18 1.508(2)
C19 C20 1.5193(18)
C21 C22 1.508(2)
loop_
_refln_index_h
_refln_index_k
_refln_index_l
_refln_F_squared_meas
_refln_F_squared_sigma
1 0 0 10.59 0.47
1 0 0 10.94 0.5
1 0 0 10.48 0.45
1 0 0 10.38 0.47
1 0 0 9.77 0.47
-1 0 0 10.66 0.47
1 0 0 9.85 0.47
1 0 0 10.92 0.47
-1 0 0 10.38 0.47
-1 0 0 10.16 0.47
-1 0 0 9.85 0.45
-1 0 0 10.64 0.47
-1 0 0 9.65 0.46
2 0 0 5.71 0.28
2 0 0 4.86 0.29
2 0 0 5.3 0.28
2 0 0 4.97 0.26
2 0 0 5.46 0.26
2 0 0 5.49 0.28
2 0 0 5.02 0.27
2 0 0 5.14 0.23
-2 0 0 5.47 0.26
-2 0 0 5.36 0.29
-2 0 0 5.65 0.27
-2 0 0 4.84 0.28
-2 0 0 5.24 0.28
-2 0 0 5.75 0.28
-3 0 0 121.63 5.69
3 0 0 134.49 5.66
-3 0 0 119.14 5.69
3 0 0 125.77 5.66
3 0 0 131.12 5.63
3 0 0 131.16 5.69
3 0 0 131.36 5.68
3 0 0 133.59 5.68
-3 0 0 127.78 5.66
-3 0 0 123.66 5.69
-3 0 0 128.43 5.65
-3 0 0 142.73 5.69
-4 0 0 -0.14 0.13
-4 0 0 0.24 0.08
4 0 0 0.1 0.1
4 0 0 0 0.09
4 0 0 0.03 0.1
4 0 0 0.12 0.08
-4 0 0 0.07 0.15
4 0 0 0.05 0.07
-4 0 0 0.3 0.13
5 0 0 16.85 0.82
5 0 0 17.27 0.86
5 0 0 17.54 0.83
-5 0 0 18.02 0.88
5 0 0 17.13 0.84
-5 0 0 19.22 0.9
5 0 0 17.82 0.83
-5 0 0 16.66 0.82
-5 0 0 16.07 0.82
-6 0 0 212.7 9.68
-6 0 0 215.01 9.7
-6 0 0 211.48 9.76
-6 0 0 234.67 9.75
-6 0 0 218.42 9.67
6 0 0 234.2 9.7
6 0 0 217.27 9.64
-7 0 0 8.83 0.51
-7 0 0 9.57 0.56
7 0 0 8.95 0.46
-7 0 0 9.67 0.63
-7 0 0 9.21 0.5
7 0 0 9.13 0.53
8 0 0 3.22 0.29
-8 0 0 2.85 0.29
-8 0 0 3.04 0.35
8 0 0 2.81 0.28
8 0 0 3.22 0.33
-8 0 0 3.36 0.4
-8 0 0 3.13 0.23
8 0 0 2.72 0.2
-8 0 0 2.88 0.23
9 0 0 0.06 0.11
-9 0 0 0.08 0.17
-9 0 0 0.02 0.11
9 0 0 0.11 0.11
-9 0 0 0.1 0.1
0 -1 0 -0.04 0.05
0 -1 0 -0.01 0.08
0 -1 0 0.09 0.05
0 -1 0 -0.01 0.05
0 -1 0 -0.01 0.04
0 -1 0 0.06 0.04
0 1 0 0.04 0.05
0 1 0 0.04 0.05
0 1 0 0.09 0.05
0 1 0 0.03 0
0 1 0 0.01 0.04
0 1 0 0.04 0.05
0 1 0 0.04 0.08
0 1 0 0 0.05
1 -1 0 192.06 8.5
1 -1 0 185.43 8.49
-1 -1 0 182.24 8.53
-1 -1 0 194.24 8.5
1 -1 0 188.26 8.5
1 -1 0 202.55 8.47
1 -1 0 192.01 8.51
-1 -1 0 196.07 8.49
1 -1 0 206.15 8.51
1 -1 0 194.79 8.49
1 -1 0 214.01 8.56
-1 -1 0 185.49 8.49
-1 -1 0 200.32 8.5
-1 -1 0 188.49 8.5
1 1 0 182.31 8.48
1 1 0 197.51 8.49
-1 1 0 205.42 8.51
1 1 0 215.82 8.51
1 1 0 199.7 8.5
1 1 0 201.15 8.5
-1 1 0 188.74 8.5
-1 1 0 189.14 8.5
1 1 0 178.62 8.49
1 1 0 195.2 8.49
-1 1 0 200.81 8.5
-1 1 0 193.33 8.5
1 1 0 191.6 8.5
-1 1 0 195.44 8.49
-1 1 0 189.73 8.56
1 1 0 192.12 8.55
-2 -1 0 20.02 0.92
2 -1 0 19.23 0.92
-2 -1 0 20.11 0.91
2 -1 0 19.59 1
2 -1 0 21.34 0.87
2 -1 0 19.85 0.93
-2 -1 0 20.14 0.9
-2 -1 0 19.39 0.9
-2 -1 0 20.35 0.92
-2 -1 0 19.43 0.96
2 -1 0 19.23 0.91
2 -1 0 21.22 0.91
2 -1 0 19.32 0.9
-2 -1 0 19.29 0.9
2 -1 0 21.13 0.92
2 1 0 21.54 0.9
2 1 0 20.43 0.9
2 1 0 20.92 0.92
2 1 0 19.49 0.92
2 1 0 20.4 0.87
-2 1 0 19.54 0.92
-2 1 0 20.18 0.93
-2 1 0 19.56 0.92
2 1 0 19.86 0.9
-2 1 0 19.28 0.9
-2 1 0 18.79 0.99
-2 1 0 20.5 0.92
2 1 0 19.7 0.92
2 1 0 20.07 0.92
-2 1 0 18.78 0.91
2 1 0 20.78 0.91
-2 1 0 20.76 0.91
-2 1 0 21.82 0.91
-3 -1 0 18.65 0.85
-3 -1 0 18.29 0.88
-3 -1 0 17.23 0.87
3 -1 0 19.4 0.85
3 -1 0 19.36 0.87
-3 -1 0 18.79 0.88
3 -1 0 19.07 0.81
3 -1 0 18.01 0.87
-3 -1 0 18.82 0.89
3 -1 0 17.14 0.88
-3 -1 0 17.99 0.84
3 -1 0 18.95 0.85
-3 1 0 18.19 0.86
3 1 0 20.24 0.85
-3 1 0 17.86 0.89
3 1 0 19.71 0.81
3 1 0 18.28 0.87
3 1 0 17.89 0.87
-3 1 0 18.45 0.88
3 1 0 20.21 0.87
3 1 0 18.06 0.85
3 1 0 17.9 0.84
3 1 0 18.09 0.87
-4 -1 0 26.86 1.16
-4 -1 0 25.69 1.16
-4 -1 0 24.52 1.21
-4 -1 0 27.64 1.22
4 -1 0 27.03 1.18
-4 -1 0 24.22 1.23
-4 -1 0 24.09 1.14
4 -1 0 23.31 1.15
-4 -1 0 25.94 1.21
4 -1 0 25.85 1.17
4 -1 0 26.9 1.2
4 -1 0 24.12 1.22
4 1 0 26.29 1.21
4 1 0 26.18 1.19
4 1 0 24.74 1.16
4 1 0 25.67 1.17
-4 1 0 25.04 1.17
-4 1 0 27.08 1.23
4 1 0 25.26 1.17
-4 1 0 24.48 1.17
4 1 0 25.13 1.19
5 -1 0 19.97 0.91
-5 -1 0 19.93 0.99
-5 -1 0 19.6 0.89
5 -1 0 21.83 0.94
-5 -1 0 20.72 1
5 -1 0 19.52 0.93
5 -1 0 18.06 0.93
-5 -1 0 19.21 0.97
-5 -1 0 19.32 0.91
5 -1 0 17.69 0.88
5 -1 0 18.97 0.96
-5 -1 0 19.29 0.93
-5 -1 0 19.38 0.91
-5 1 0 18.91 0.91
-5 1 0 20.1 0.93
5 1 0 20.63 0.93
5 1 0 20.19 0.96
5 1 0 18.92 0.92
-5 1 0 19.54 0.99
-5 1 0 17.67 0.92
5 1 0 20.93 0.93
5 1 0 18.41 0.95
-6 -1 0 6.34 0.4
6 -1 0 6.34 0.37
6 -1 0 7.29 0.42
-6 -1 0 6.47 0.47
-6 -1 0 6.55 0.49
-6 -1 0 6.77 0.44
-6 -1 0 6.94 0.4
-6 -1 0 6.34 0.38
-6 -1 0 6.61 0.38
6 -1 0 6.91 0.34
-6 1 0 7.03 0.46
-6 1 0 6.56 0.47
6 1 0 6.41 0.43
-6 1 0 6.18 0.41
-6 1 0 5.97 0.4
-6 1 0 6.14 0.39
-6 1 0 6.4 0.39
6 1 0 6.45 0.4
-6 1 0 6.56 0.34
7 -1 0 50.31 2.57
7 -1 0 51.64 2.31
7 -1 0 42.8 2.4
7 -1 0 52.15 2.28
-7 -1 0 49 2.34
-7 -1 0 53.29 2.31
-7 -1 0 49.79 2.35
-7 -1 0 56.65 2.44
-7 -1 0 52.3 2.44
7 -1 0 52.58 2.36
-7 -1 0 55.92 2.31
7 1 0 46.51 2.42
-7 1 0 52.88 2.34
-7 1 0 50.45 2.32
-7 1 0 52.05 2.44
7 1 0 52.48 2.29
-7 1 0 51.49 2.37
7 1 0 53.14 2.36
8 -1 0 1.61 0.25
8 -1 0 1.49 0.15
8 -1 0 1.67 0.25
-8 -1 0 1.87 0.21
-8 -1 0 1.69 0.32
-8 -1 0 1.42 0.17
-8 -1 0 1.81 0.26
8 -1 0 1.69 0.24
-8 -1 0 1.82 0.16
-8 1 0 1.6 0.21
-8 1 0 1.77 0.2
8 1 0 1.75 0.25
8 1 0 1.63 0.24
-8 1 0 2.04 0.29
8 1 0 1.75 0.27
-8 1 0 1.62 0.31
-8 1 0 1.91 0.37
8 1 0 1.89 0.16
-9 -1 0 2.25 0.25
-9 -1 0 2.54 0.16
-9 -1 0 2.55 0.16
-9 1 0 1.79 0.25
9 1 0 2.85 0.22
-9 1 0 2.86 0.17
9 1 0 2.23 0.23
0 -2 0 105.83 5.09
0 -2 0 114.67 5.07
0 -2 0 118.12 5.1
0 -2 0 121.19 5.08
0 -2 0 110.26 5.09
0 2 0 114.01 5.19
0 2 0 115.99 5.09
0 2 0 116.26 5.1
0 2 0 116.77 5.09
0 2 0 122.84 5.1
0 2 0 122.94 5.09
0 2 0 113.8 5.11
1 -2 0 12.06 0.52
1 -2 0 11.5 0.52
-1 -2 0 11.35 0.51
1 -2 0 11.12 0.53
1 -2 0 12.21 0.55
-1 -2 0 10.63 0.52
-1 -2 0 10.74 0.52
1 -2 0 10.82 0.52
-1 -2 0 11.12 0.53
-1 -2 0 10.77 0.55
1 2 0 10.68 0.52
1 2 0 10.63 0.52
-1 2 0 11 0.53
-1 2 0 10.64 0.54
1 2 0 10.54 0.63
-1 2 0 12.46 0.57
1 2 0 11.22 0.55
-1 2 0 11.25 0.65
-1 2 0 9.62 0.52
1 2 0 10.43 0.52
-1 2 0 10.88 0.52
1 2 0 10.45 0.56
-1 2 0 10.94 0.54
-1 2 0 11.66 0.53
-1 2 0 10.53 0.48
1 2 0 11.31 0.54
2 -2 0 36.84 1.66
-2 -2 0 36.22 1.68
2 -2 0 38.62 1.66
2 -2 0 38.57 1.62
-2 -2 0 38.85 1.66
2 -2 0 34.86 1.67
-2 -2 0 37.75 1.65
-2 -2 0 36.09 1.68
2 -2 0 36.11 1.69
-2 -2 0 40.54 1.68
-2 2 0 37.09 1.67
2 2 0 38.55 1.68
-2 2 0 35.87 1.66
-2 2 0 36.03 1.64
2 2 0 36.27 1.69
-2 2 0 35.99 1.68
2 2 0 38.37 1.66
2 2 0 37.09 1.67
-2 2 0 36.16 1.67
2 2 0 36.97 1.67
2 2 0 36.31 1.66
3 -2 0 4.18 0.26
-3 -2 0 4.74 0.3
-3 -2 0 5.01 0.32
-3 -2 0 4.52 0.31
-3 -2 0 4.67 0.27
3 -2 0 4.77 0.27
3 -2 0 4.51 0.32
3 -2 0 4.59 0.26
-3 -2 0 5.16 0.3
-3 -2 0 4.17 0.25
-3 2 0 4.3 0.24
-3 2 0 4.39 0.28
-3 2 0 4.34 0.3
3 2 0 4.77 0.27
3 2 0 4.71 0.29
3 2 0 4.89 0.29
-3 2 0 5.11 0.29
-3 2 0 4.79 0.27
3 2 0 4.56 0.3
3 2 0 4.64 0.27
3 2 0 4.15 0.28
-4 -2 0 42.63 1.78
-4 -2 0 41 1.79
-4 -2 0 36.93 1.83
-4 -2 0 40.74 1.8
4 -2 0 38.16 1.81
-4 -2 0 39.7 1.86
4 -2 0 38.13 1.81
-4 -2 0 40.03 1.85
4 -2 0 39 1.79
-4 -2 0 40.93 1.84
4 2 0 40.09 1.83
-4 2 0 40.5 1.81
4 2 0 37.3 1.81
4 2 0 40.79 1.81
-4 2 0 41 1.83
4 2 0 39.71 1.83
-4 2 0 42.41 1.82
-5 -2 0 19.14 0.93
-5 -2 0 18.53 0.93
-5 -2 0 20.61 0.9
-5 -2 0 20.19 0.97
5 -2 0 20.04 0.91
-5 -2 0 18.94 1
-5 -2 0 19.35 0.91
-5 -2 0 20.01 0.99
-5 -2 0 19.46 0.91
5 -2 0 20.05 0.95
5 -2 0 16.27 0.93
5 -2 0 19.92 0.88
-5 2 0 19.6 0.94
5 2 0 20.21 0.94
5 2 0 19.28 0.97
-5 2 0 18.35 0.94
-5 2 0 19.41 0.92
5 2 0 20.49 0.97
5 2 0 18.04 0.94
-5 2 0 19.55 1.01
-5 2 0 19.91 0.96
6 -2 0 14.33 0.74
-6 -2 0 12.63 0.79
-6 -2 0 13.66 0.68
-6 -2 0 14.33 0.69
-6 -2 0 14.73 0.73
-6 -2 0 15.48 0.7
6 -2 0 14.88 0.7
-6 -2 0 11.47 0.72
-6 -2 0 13.04 0.78
-6 -2 0 12.97 0.72
6 -2 0 14.79 0.67
6 2 0 14.57 0.76
-6 2 0 14.48 0.74
-6 2 0 14.86 0.69
-6 2 0 14.1 0.8
-6 2 0 14.48 0.76
6 2 0 15.02 0.73
-6 2 0 14.37 0.72
-6 2 0 14.28 0.73
-7 -2 0 0.1 0.13
7 -2 0 0.15 0.08
7 -2 0 0.16 0.15
-7 -2 0 0.24 0.17
7 -2 0 0.04 0.14
7 -2 0 -0.01 0.12
-7 -2 0 0.11 0.2
7 -2 0 0.04 0.15
-7 -2 0 0.06 0.12
-7 -2 0 0.15 0.11
-7 -2 0 -0.03 0.13
7 -2 0 -0.03 0.15
-7 -2 0 0.12 0.14
-7 2 0 0.05 0.28
-7 2 0 0.08 0.14
7 2 0 0.38 0.15
-7 2 0 -0.08 0.18
-7 2 0 0.12 0.15
-7 2 0 0.37 0.16
-7 2 0 0.11 0.36
7 2 0 0.03 0.15
7 2 0 -0.02 0.08
7 2 0 0.25 0.19
-7 2 0 0.2 0.2
-7 2 0 -0.13 0.13
-8 -2 0 7.06 0.46
-8 -2 0 8.33 0.42
-8 -2 0 8.11 0.43
-8 -2 0 7.77 0.4
8 -2 0 7.91 0.46
-8 -2 0 8.61 0.53
8 -2 0 7.4 0.47
8 2 0 7.78 0.48
-8 2 0 8.72 0.59
-8 2 0 9.16 0.53
8 2 0 8.32 0.49
8 2 0 9.05 0.54
-9 -2 0 2 0.15
9 -2 0 1.99 0.17
9 -2 0 1.67 0.16
-9 -2 0 1.54 0.12
9 -2 0 1.88 0.16
-9 2 0 1.69 0.13
9 2 0 1.48 0.18
9 2 0 1.79 0.19
0 -3 0 -0.13 0.09
0 -3 0 0.12 0.17
0 -3 0 0.04 0.1
0 -3 0 0.01 0.08
0 3 0 0.12 0.1
0 3 0 -0.01 0.1
0 3 0 -0.04 0.07
0 3 0 0.2 0.12
0 3 0 -0.07 0.09
0 3 0 -0.11 0.09
0 3 0 0.03 0.09
-1 -3 0 1.19 0.16
-1 -3 0 1.01 0.18
-1 -3 0 1.13 0.13
-1 -3 0 0.98 0.17
1 -3 0 0.94 0.16
-1 -3 0 1.1 0.13
-1 -3 0 1.07 0.12
-1 -3 0 1.11 0.15
1 -3 0 0.94 0.15
1 -3 0 1.11 0.16
1 -3 0 1.06 0.11
1 3 0 1.1 0.15
-1 3 0 1.26 0.17
-1 3 0 1.07 0.15
-1 3 0 1.15 0.15
1 3 0 1.14 0.16
-1 3 0 1.08 0.1
-1 3 0 0.9 0.16
1 3 0 0.99 0.15
-1 3 0 0.87 0.15
1 3 0 1.19 0.15
1 3 0 1.07 0.13
-1 3 0 1.03 0.14
-2 -3 0 5.82 0.34
2 -3 0 5.12 0.35
2 -3 0 5.13 0.32
-2 -3 0 5.47 0.35
-2 -3 0 5.1 0.33
-2 -3 0 5.55 0.29
-2 -3 0 5.44 0.34
-2 -3 0 5.45 0.29
-2 -3 0 5.66 0.28
2 -3 0 5.32 0.28
-2 -3 0 5.66 0.31
2 -3 0 5.69 0.36
2 3 0 5.15 0.32
-2 3 0 5.1 0.31
-2 3 0 5.02 0.34
2 3 0 5.31 0.31
-2 3 0 5.02 0.32
2 3 0 4.97 0.33
-2 3 0 5.1 0.29
2 3 0 5.83 0.32
2 3 0 5.47 0.33
-3 -3 0 11.25 0.61
3 -3 0 11.7 0.55
-3 -3 0 11.7 0.6
-3 -3 0 11.95 0.61
3 -3 0 9.97 0.57
-3 -3 0 11.61 0.6
-3 -3 0 12.43 0.58
-3 -3 0 10.82 0.55
3 3 0 11.79 0.58
3 3 0 11.16 0.59
-3 3 0 11.22 0.57
3 3 0 11.52 0.58
3 3 0 11.35 0.59
-3 3 0 10.75 0.56
-3 3 0 11.36 0.58
-4 -3 0 34.78 1.63
-4 -3 0 33.47 1.54
-4 -3 0 33.32 1.59
-4 -3 0 35.52 1.64
-4 -3 0 35.24 1.57
4 -3 0 33.57 1.52
4 -3 0 35.19 1.63
-4 -3 0 35.09 1.54
-4 -3 0 34.24 1.57
4 -3 0 32.58 1.54
-4 -3 0 36.29 1.55
-4 3 0 34.54 1.53
-4 3 0 34.45 1.59
4 3 0 35.32 1.61
4 3 0 33.15 1.6
4 3 0 33.98 1.58
4 3 0 31.48 1.58
-4 3 0 34.29 1.58
5 -3 0 3.18 0.21
-5 -3 0 3.65 0.24
-5 -3 0 3.47 0.24
-5 -3 0 3.41 0.28
-5 -3 0 3.39 0.33
-5 -3 0 3.53 0.28
5 -3 0 3.29 0.2
5 -3 0 2.75 0.26
5 -3 0 3.86 0.24
-5 -3 0 2.83 0.32
-5 -3 0 3.25 0.24
-5 -3 0 3.37 0.26
5 3 0 3.16 0.27
-5 3 0 3.62 0.28
-5 3 0 3.07 0.32
5 3 0 2.97 0.3
-5 3 0 3.49 0.32
-5 3 0 2.51 0.24
6 -3 0 0.88 0.23
-6 -3 0 0.87 0.19
-6 -3 0 0.94 0.17
-6 -3 0 0.41 0.23
6 -3 0 0.86 0.17
-6 -3 0 0.85 0.16
6 -3 0 0.71 0.23
6 -3 0 0.92 0.13
-6 -3 0 1.14 0.21
6 3 0 0.82 0.2
-6 3 0 0.76 0.22
-6 3 0 1.04 0.22
-6 3 0 0.99 0.2
-6 3 0 0.85 0.23
-7 -3 0 4.47 0.27
-7 -3 0 3.82 0.28
-7 -3 0 4.49 0.33
7 -3 0 4.42 0.33
7 -3 0 4.54 0.29
-7 -3 0 4.22 0.37
-7 -3 0 4.28 0.32
-7 -3 0 4.33 0.25
7 -3 0 4.73 0.3
-7 3 0 5.41 0.32
7 3 0 4.41 0.33
7 3 0 4.51 0.38
-7 3 0 3.88 0.42
-7 3 0 3.51 0.66
-7 3 0 4.09 0.36
-7 3 0 4.18 0.31
7 3 0 4.14 0.25
7 3 0 4.12 0.35
-7 3 0 4.01 0.37
8 -3 0 2.76 0.21
-8 -3 0 2.73 0.19
-8 -3 0 3.11 0.27
-8 -3 0 2.82 0.21
8 -3 0 2.68 0.23
8 -3 0 2.99 0.22
8 3 0 2.91 0.28
8 3 0 2.46 0.27
-8 3 0 2.71 0.35
0 -4 0 0.07 0.12
0 -4 0 0.53 0.11
0 -4 0 0.06 0.1
0 -4 0 0.26 0.14
0 -4 0 0.2 0.09
0 4 0 0.2 0.15
0 4 0 0.15 0.12
0 4 0 0.13 0.13
0 4 0 0.18 0.11
-1 -4 0 42.79 1.88
1 -4 0 40.95 1.84
1 -4 0 41.73 1.89
-1 -4 0 40.24 1.82
-1 -4 0 42.07 1.9
-1 -4 0 41.01 1.86
1 -4 0 41.18 1.83
1 -4 0 41.73 1.87
-1 -4 0 40.05 1.83
-1 -4 0 41.19 1.8
1 -4 0 39.79 1.82
1 4 0 44.57 1.87
-1 4 0 39.78 1.85
-1 4 0 40.51 1.86
1 4 0 39.67 1.87
1 4 0 38.61 1.87
-1 4 0 39.5 1.86
1 4 0 40.73 1.84
-1 4 0 37.81 1.82
-1 4 0 38.57 1.8
-1 4 0 39.16 1.88
1 4 0 40.55 1.86
-2 -4 0 19.37 0.92
2 -4 0 19.33 0.96
-2 -4 0 20.15 0.98
2 -4 0 19.66 0.93
2 -4 0 19.41 0.98
-2 -4 0 18.52 0.93
-2 -4 0 20.09 0.95
-2 -4 0 20.48 0.93
2 -4 0 21.34 0.91
-2 -4 0 18.66 0.99
2 -4 0 19.88 1
2 -4 0 19.42 0.94
-2 -4 0 18.6 0.98
2 -4 0 19.4 0.98
2 4 0 19.2 0.96
-2 4 0 20.01 0.97
2 4 0 20.66 0.95
-2 4 0 20.2 0.96
-2 4 0 19.45 0.97
-2 4 0 18.99 0.91
2 4 0 21.29 0.98
2 4 0 21.67 1
2 4 0 20.8 0.99
-2 4 0 19.61 0.94
3 -4 0 5.73 0.39
-3 -4 0 5.66 0.32
3 -4 0 5.05 0.37
-3 -4 0 5.6 0.32
-3 -4 0 5.63 0.41
-3 -4 0 5.74 0.36
3 -4 0 6.29 0.31
3 -4 0 5.58 0.3
-3 -4 0 5.55 0.34
-3 -4 0 5.53 0.41
-3 -4 0 6 0.35
-3 -4 0 5.53 0.32
-3 4 0 5.99 0.35
-3 4 0 5.87 0.37
-3 4 0 5.46 0.31
3 4 0 5.29 0.35
3 4 0 5.87 0.39
-4 -4 0 50.94 2.12
-4 -4 0 47.99 2.11
-4 -4 0 46.31 2.11
-4 -4 0 50.24 2.23
-4 -4 0 39.35 2.13
-4 -4 0 47.14 2.14
4 -4 0 48.98 2.11
-4 -4 0 39.87 2.19
4 -4 0 47.28 2.18
4 -4 0 53.05 2.1
-4 -4 0 46.85 2.15
4 -4 0 45.06 2.1
-4 4 0 45.77 2.17
-4 4 0 48.53 2.13
4 4 0 47.98 2.17
-4 4 0 49.81 2.1
4 4 0 48.27 2.21
-5 -4 0 0.11 0.13
-5 -4 0 0.44 0.23
-5 -4 0 0.05 0.18
-5 -4 0 0.29 0.12
-5 -4 0 -0.01 0.18
5 -4 0 0.25 0.13
-5 -4 0 0.33 0.16
5 -4 0 0.34 0.21
-5 -4 0 0.25 0.1
5 -4 0 0.17 0.11
-5 4 0 0.4 0.23
5 4 0 0.04 0.16
-5 4 0 0.19 0.19
-5 4 0 0.32 0.16
6 -4 0 3.91 0.33
-6 -4 0 3.84 0.29
-6 -4 0 3.76 0.32
6 -4 0 4.09 0.32
-6 -4 0 4.08 0.25
6 -4 0 3.68 0.28
6 -4 0 3.72 0.28
-6 -4 0 3.59 0.35
-6 -4 0 3.62 0.27
-6 4 0 3.57 0.26
6 4 0 3.46 0.35
-6 4 0 2.38 0.31
6 4 0 3.88 0.28
6 4 0 3.76 0.37
6 4 0 3.76 0.3
-6 4 0 3.53 0.29
7 -4 0 2.05 0.2
-7 -4 0 2.11 0.18
7 -4 0 1.97 0.23
-7 -4 0 2.03 0.19
-7 -4 0 1.84 0.24
7 -4 0 2.09 0.19
7 -4 0 1.83 0.2
7 4 0 2.01 0.2
-7 4 0 1.92 0.22
7 4 0 2.14 0.27
-7 4 0 1.95 0.39
-7 4 0 2.16 0.4
7 4 0 2.15 0.27
-8 -4 0 1.17 0.13
8 -4 0 1.19 0.13
8 -4 0 0.95 0.14
-8 -4 0 1.07 0.16
-8 -4 0 0.92 0.1
-8 -4 0 0.83 0.16
8 -4 0 1.17 0.12
8 4 0 0.97 0.13
8 4 0 0.94 0.18
8 4 0 1.21 0.17
0 -5 0 -0.09 0.13
0 -5 0 -0.06 0.09
0 -5 0 -0.08 0.12
0 -5 0 0.06 0.14
0 -5 0 0 0.07
0 5 0 0.18 0.12
0 5 0 0.15 0.16
0 5 0 0.04 0.08
1 -5 0 20.23 0.94
-1 -5 0 22.04 1.12
-1 -5 0 22.34 1.03
1 -5 0 18.67 1.01
1 -5 0 21.09 1.05
-1 -5 0 21.38 1.01
1 -5 0 22.05 1
-1 -5 0 19.89 0.96
1 -5 0 20.67 1.03
1 -5 0 20.72 0.97
1 -5 0 20.3 0.93
-1 -5 0 20.64 0.97
-1 5 0 19.54 0.98
1 5 0 17.98 1.03
-1 5 0 19.77 0.95
-1 5 0 20.84 1.01
1 5 0 20.12 0.95
1 5 0 21.33 1.01
2 -5 0 2.72 0.22
2 -5 0 2.54 0.19
-2 -5 0 2.71 0.26
-2 -5 0 2.74 0.21
-2 -5 0 2.61 0.22
2 -5 0 2.74 0.18
2 -5 0 2.73 0.23
2 -5 0 2.71 0.26
-2 -5 0 1.82 0.31
2 -5 0 2.48 0.29
2 -5 0 2.85 0.3
-2 -5 0 2.77 0.25
2 5 0 3 0.26
-2 5 0 2.73 0.26
-2 5 0 2.56 0.26
2 5 0 2.22 0.26
-2 5 0 2.77 0.21
-3 -5 0 51.62 2.29
3 -5 0 49.49 2.27
3 -5 0 49.45 2.23
3 -5 0 48.9 2.26
-3 -5 0 50.02 2.32
3 -5 0 48.87 2.3
-3 -5 0 51.51 2.25
3 -5 0 47.53 2.24
3 -5 0 55.03 2.35
3 5 0 51.2 2.31
-3 5 0 46.04 2.31
-3 5 0 52.16 2.25
-3 5 0 52.8 2.28
4 -5 0 0.94 0.23
4 -5 0 0.96 0.19
-4 -5 0 0.98 0.15
-4 -5 0 1.03 0.25
-4 -5 0 0.64 0.17
-4 -5 0 0.84 0.12
-4 -5 0 0.65 0.21
4 -5 0 0.92 0.17
-4 -5 0 0.93 0.19
-4 -5 0 0.84 0.19
4 -5 0 0.81 0.17
4 -5 0 0.88 0.14
4 -5 0 0.83 0.18
4 -5 0 1.19 0.26
-4 5 0 0.9 0.22
-4 5 0 0.9 0.16
4 5 0 0.91 0.27
4 5 0 1.18 0.29
4 5 0 0.85 0.21
-5 -5 0 9.85 0.47
-5 -5 0 8.49 0.5
-5 -5 0 9.8 0.53
5 -5 0 9.04 0.47
-5 -5 0 8.77 0.47
5 -5 0 8.9 0.48
5 -5 0 8.67 0.45
-5 -5 0 8.36 0.51
-5 -5 0 8.89 0.56
-5 5 0 9.15 0.52
5 5 0 10.13 0.58
5 5 0 9.64 0.62
5 5 0 8.85 0.53
-5 5 0 8.78 0.5
-6 -5 0 0.48 0.21
6 -5 0 0.57 0.47
-6 -5 0 0.6 0.12
6 -5 0 0.6 0.14
-6 -5 0 0.56 0.16
-6 -5 0 0.41 0.16
6 -5 0 0.6 0.15
-6 5 0 0.62 0.2
6 5 0 0.6 0.19
6 5 0 0.59 0.23
6 5 0 0.58 0.22
7 -5 0 3.87 0.23
7 -5 0 4.45 0.22
-7 -5 0 4.08 0.26
-7 -5 0 3.57 0.23
7 5 0 4.06 0.27
-7 5 0 4.06 0.24
7 5 0 4.01 0.3
0 -6 0 23.81 1.15
0 -6 0 24.71 1.25
0 -6 0 25.27 1.2
0 -6 0 23.6 1.14
0 -6 0 24.32 1.13
0 -6 0 24.42 1.5
0 6 0 25.19 1.29
0 6 0 24.39 1.22
0 6 0 23.99 1.13
0 6 0 25.75 1.2
1 -6 0 0.26 0.11
1 -6 0 0.23 0.21
1 -6 0 0.21 0.32
-1 -6 0 0.18 0.15
-1 -6 0 0.2 0.1
-1 -6 0 0.32 0.18
-1 -6 0 0.55 0.41
1 -6 0 0.33 0.17
-1 -6 0 0.44 0.21
1 -6 0 0.25 0.15
1 -6 0 0.55 0.17
-1 -6 0 0.48 0.18
1 6 0 0.2 0.19
-1 6 0 0.29 0.1
1 6 0 0.39 0.15
-1 6 0 0.41 0.24
1 6 0 0.3 0.19
-1 6 0 0.21 0.17
1 6 0 0.35 0.11
-1 6 0 0.26 0.14
2 -6 0 1.09 0.18
2 -6 0 1.2 0.18
-2 -6 0 1.32 0.19
2 -6 0 1.09 0.26
-2 -6 0 1.49 0.22
2 -6 0 0.97 0.23
-2 -6 0 1.2 0.18
-2 -6 0 1.05 0.14
-2 -6 0 1.06 0.26
2 -6 0 0.91 0.19
2 -6 0 1.08 0.15
2 -6 0 0.99 0.41
-2 6 0 1.07 0.22
2 6 0 1.28 0.21
2 6 0 1.11 0.16
2 6 0 1.25 0.28
-2 6 0 1.52 0.17
2 6 0 1.21 0.26
-2 6 0 0.99 0.25
3 -6 0 1.12 0.17
3 -6 0 1.49 0.16
3 -6 0 1.18 0.18
3 -6 0 1.24 0.23
-3 -6 0 1.46 0.19
3 -6 0 1.2 0.41
-3 -6 0 1.3 0.21
-3 -6 0 1.46 0.29
3 -6 0 1.28 0.16
-3 -6 0 1.47 0.22
3 6 0 1.29 0.29
3 6 0 1.39 0.23
3 6 0 1.37 0.27
-3 6 0 1.45 0.16
-3 6 0 1.12 0.22
3 6 0 1.36 0.17
-3 6 0 1.11 0.24
-4 -6 0 0.68 0.19
4 -6 0 0.39 0.18
-4 -6 0 0.43 0.14
-4 -6 0 0.64 0.2
4 -6 0 0.48 0.14
-4 -6 0 0.39 0.11
4 -6 0 0.52 0.13
4 -6 0 0.6 0.13
-4 -6 0 0.48 0.24
-4 6 0 0.52 0.15
4 6 0 0.43 0.24
-4 6 0 0.64 0.16
4 6 0 0.52 0.23
-5 -6 0 1.16 0.16
-5 -6 0 1.23 0.22
5 -6 0 1.34 0.12
-5 -6 0 1.16 0.2
-5 -6 0 1.31 0.19
5 6 0 1.46 0.23
-5 6 0 1.38 0.2
5 6 0 1.2 0.21
0 -7 0 0.04 0.1
0 -7 0 0.01 0.16
0 -7 0 -0.08 0.26
0 7 0 0 0.13
1 -7 0 0.36 0.29
-1 -7 0 0.47 0.15
1 -7 0 0.39 0.13
1 -7 0 0.35 0.16
-1 -7 0 0.27 0.25
-1 -7 0 0.26 0.17
1 7 0 0.38 0.19
1 7 0 0.45 0.19
-2 -7 0 0.77 0.13
-2 -7 0 0.84 0.16
2 -7 0 0.85 0.13
2 -7 0 0.53 0.32
-2 -7 0 0.99 0.22
2 -7 0 0.79 0.19
2 7 0 0.87 0.18
2 7 0 0.7 0.19
-2 7 0 0.72 0.19
3 -7 0 2.79 0.36
3 -7 0 2.25 0.19
-3 -7 0 2.32 0.17
-3 -7 0 2.65 0.19
-3 7 0 2.82 0.22
3 7 0 2.41 0.23
3 7 0 2.92 0.25
9 0 -1 0.17 0.13
-9 0 1 0.16 0.08
-9 0 1 0.05 0.15
9 0 -1 0.16 0.12
-8 0 1 42.83 2.01
8 0 -1 41.44 1.9
8 0 -1 44.46 1.97
-8 0 1 41.05 1.92
-8 0 1 40.62 1.9
-8 0 1 42.88 1.97
8 0 -1 47.35 2.06
-8 0 1 41.13 1.9
8 0 -1 44.3 1.99
-8 0 1 40.64 2.04
7 0 -1 21.31 0.98
-7 0 1 22.49 1.06
-7 0 1 20.4 1.02
-7 0 1 20.98 1.13
-7 0 1 21.92 1.01
7 0 -1 21.07 1.05
-6 0 1 0.45 0.16
6 0 -1 0.38 0.13
-6 0 1 0.35 0.12
6 0 -1 0.29 0.14
-6 0 1 0.44 0.22
-6 0 1 0.08 0.2
-6 0 1 0.6 0.2
-6 0 1 0.44 0.16
-5 0 1 19.96 0.94
5 0 -1 16.89 0.92
-5 0 1 19.02 0.89
5 0 -1 19.15 0.93
5 0 -1 18.95 0.9
-5 0 1 18.72 0.96
5 0 -1 19.48 0.9
5 0 -1 18.02 0.89
-5 0 1 18.87 0.88
-5 0 1 20.24 0.97
4 0 -1 19.48 0.92
-4 0 1 21.48 0.96
4 0 -1 21.12 0.97
-4 0 1 20.13 0.97
4 0 -1 20.56 0.92
-4 0 1 19.61 0.91
-4 0 1 18.5 0.96
4 0 -1 19.02 0.94
-4 0 1 18.53 0.95
4 0 -1 20.79 0.95
3 0 -1 15.13 0.7
-3 0 1 14.86 0.66
3 0 -1 14.62 0.66
3 0 -1 14.32 0.63
3 0 -1 14.26 0.66
3 0 -1 14.28 0.68
-3 0 1 14.11 0.69
-3 0 1 14.21 0.7
3 0 -1 14.81 0.68
-3 0 1 12.86 0.69
-2 0 1 133.86 5.8
-2 0 1 139.39 5.78
2 0 -1 129.94 5.8
-2 0 1 133.92 5.8
2 0 -1 128.16 5.77
-2 0 1 132.58 5.78
2 0 -1 136 5.79
2 0 -1 133.34 5.8
2 0 -1 133.1 5.79
2 0 -1 131.28 5.85
2 0 -1 134.6 5.8
-2 0 1 130.47 5.8
2 0 -1 134.1 5.79
-2 0 1 132.29 5.8
-2 0 1 123.13 5.83
1 0 -1 168.5 7.36
-1 0 1 171.1 7.34
-1 0 1 160.99 7.34
1 0 -1 164.11 7.34
1 0 -1 176.18 7.35
1 0 -1 167.1 7.35
-1 0 1 186.41 7.35
-1 0 1 166.47 7.33
-1 0 1 186.79 7.34
1 0 -1 164.36 7.33
1 0 -1 174.34 7.35
1 0 -1 168.09 7.34
-1 0 1 164.93 7.35
-1 0 1 155.35 7.34
1 0 -1 150.59 7.34
0 0 -1 40.84 1.84
0 0 -1 43.32 1.84
0 0 -1 40.4 1.84
0 0 1 41.18 1.85
0 0 -1 40.94 1.84
0 0 -1 45.14 1.84
0 0 1 43.19 1.84
-1 0 -1 103.08 4.5
-1 0 -1 98.5 4.5
1 0 1 101.72 4.5
-1 0 -1 112.95 4.51
1 0 1 102.15 4.5
1 0 1 106.29 4.51
-1 0 -1 110.12 4.51
1 0 1 99.23 4.5
-1 0 -1 101.07 4.48
1 0 1 98.16 4.48
1 0 1 100.3 4.51
1 0 1 102.08 4.5
-2 0 -1 361.59 16.83
2 0 1 385.91 16.83
2 0 1 375.95 16.82
-2 0 -1 357.57 16.84
2 0 1 370.05 16.83
2 0 1 380.67 16.84
-2 0 -1 385.97 16.83
2 0 1 412.94 16.84
2 0 1 401.46 16.8
-2 0 -1 396.9 16.83
-2 0 -1 378.89 16.9
-2 0 -1 391.33 16.84
-2 0 -1 377.57 16.84
-2 0 -1 402.24 16.82
2 0 1 397.86 16.84
-2 0 -1 383.94 16.84
2 0 1 402.73 16.85
2 0 1 381.29 16.82
3 0 1 37.78 1.68
3 0 1 37.74 1.69
3 0 1 38.15 1.73
3 0 1 38.28 1.71
-3 0 -1 35.2 1.67
3 0 1 38.04 1.64
3 0 1 36.48 1.67
-3 0 -1 37.19 1.68
-3 0 -1 36.58 1.69
3 0 1 40.13 1.7
-4 0 -1 49.49 2.31
4 0 1 50.84 2.29
4 0 1 49.19 2.29
4 0 1 50.55 2.27
4 0 1 50.45 2.31
-4 0 -1 50.77 2.25
-4 0 -1 54.29 2.32
4 0 1 53.62 2.27
4 0 1 48.97 2.26
4 0 1 49.44 2.29
5 0 1 98.44 4.54
5 0 1 108.34 4.57
5 0 1 104.47 4.56
5 0 1 99.65 4.52
-5 0 -1 101.13 4.55
-5 0 -1 102.71 4.57
5 0 1 100.32 4.56
-5 0 -1 108.15 4.63
-5 0 -1 111 4.63
5 0 1 105.94 4.6
5 0 1 94.37 4.56
6 0 1 25.35 1.15
-6 0 -1 22.45 1.21
-6 0 -1 22.88 1.12
6 0 1 25.06 1.09
-6 0 -1 23.45 1.08
-6 0 -1 25.2 1.22
-6 0 -1 24.74 1.14
-6 0 -1 23.17 1.15
6 0 1 23.35 1.11
-7 0 -1 2.84 0.33
7 0 1 2.81 0.29
7 0 1 3.27 0.2
-7 0 -1 2.41 0.26
-7 0 -1 2.87 0.29
7 0 1 3.23 0.25
-7 0 -1 2.87 0.34
-8 0 -1 16.07 0.85
-8 0 -1 15.29 0.88
-8 0 -1 15.51 0.74
-8 0 -1 14.24 0.79
-8 0 -1 15.3 0.73
8 0 1 15.51 0.79
8 0 1 15.51 0.83
8 0 1 14.94 0.71
8 0 1 15.43 0.79
-9 0 -1 0.13 0.09
9 0 1 0.02 0.11
-9 0 -1 -0.02 0.16
-9 -1 1 5.38 0.3
-9 -1 1 5.07 0.28
-9 -1 1 6.29 0.39
9 -1 -1 5.67 0.33
-9 1 1 5.57 0.41
9 1 -1 5.22 0.37
-9 1 1 5.09 0.28
-9 1 1 5.36 0.37
9 1 -1 5.66 0.34
8 -1 -1 1.64 0.24
-8 -1 1 1.55 0.24
-8 -1 1 1.66 0.19
8 -1 -1 1.6 0.24
8 -1 -1 1.96 0.27
-8 -1 1 1.6 0.29
8 -1 -1 1.74 0.16
-8 -1 1 1.41 0.16
8 1 -1 1.63 0.25
8 1 -1 1.91 0.28
-8 1 1 1.57 0.19
-8 1 1 1.68 0.33
-8 1 1 1.91 0.2
-8 1 1 1.93 0.29
-8 1 1 1.83 0.3
8 1 -1 1.84 0.16
-7 -1 1 11.04 0.6
7 -1 -1 11.07 0.52
-7 -1 1 8.22 0.81
7 -1 -1 10.55 0.59
7 -1 -1 10.21 0.55
-7 -1 1 10.65 0.67
-7 -1 1 10.5 0.53
-7 1 1 9.9 0.55
-7 1 1 10.57 0.57
-7 1 1 10.73 0.61
7 1 -1 11.44 0.59
-7 1 1 10.79 0.68
7 1 -1 12.1 0.81
-6 -1 1 7.51 0.43
-6 -1 1 7.56 0.43
6 -1 -1 7.16 0.37
-6 -1 1 8.06 0.52
-6 -1 1 7.28 0.39
-6 -1 1 7.88 0.51
6 -1 -1 7.26 0.46
-6 -1 1 6.55 0.43
6 -1 -1 8.06 0.45
-6 -1 1 7.79 0.41
-6 1 1 7.42 0.42
-6 1 1 6.83 0.43
-6 1 1 7.03 0.48
6 1 -1 6.97 0.43
-6 1 1 7.17 0.42
-6 1 1 6.71 0.45
6 1 -1 7.86 0.46
-6 1 1 8.26 0.51
-5 -1 1 9.02 0.45
-5 -1 1 7.96 0.47
5 -1 -1 7.55 0.44
5 -1 -1 7.68 0.44
-5 -1 1 8.91 0.43
5 -1 -1 8.25 0.46
-5 -1 1 8.65 0.51
-5 -1 1 7.82 0.41
-5 -1 1 8.74 0.43
5 -1 -1 8.9 0.48
5 -1 -1 8.25 0.41
-5 -1 1 7.94 0.51
-5 1 1 8.84 0.45
-5 1 1 8.14 0.45
5 1 -1 8.94 0.45
5 1 -1 8.83 0.46
-5 1 1 8.09 0.44
-5 1 1 8.81 0.51
5 1 -1 7.96 0.48
-5 1 1 9.03 0.52
5 1 -1 8.27 0.44
5 1 -1 8.45 0.48
4 -1 -1 60.98 2.74
4 -1 -1 63.96 2.75
-4 -1 1 60.7 2.75
-4 -1 1 60.45 2.7
-4 -1 1 61.12 2.77
-4 -1 1 62.3 2.76
4 -1 -1 58.32 2.72
-4 -1 1 63.12 2.71
4 -1 -1 60.51 2.72
4 -1 -1 64.05 2.77
-4 -1 1 61.55 2.7
-4 -1 1 59.96 2.74
-4 1 1 61.3 2.72
4 1 -1 61.04 2.75
-4 1 1 57.39 2.72
4 1 -1 62.77 2.72
-4 1 1 57.14 2.78
-4 1 1 64.64 2.77
4 1 -1 61.87 2.72
4 1 -1 60.74 2.74
4 1 -1 61.92 2.74
-3 -1 1 157.06 6.86
3 -1 -1 162.4 6.89
3 -1 -1 156.03 6.87
3 -1 -1 170.37 6.91
-3 -1 1 162.46 6.89
3 -1 -1 162.48 6.89
-3 -1 1 148.88 6.9
3 -1 -1 163.76 6.83
-3 -1 1 160.74 6.89
3 -1 -1 166.53 6.87
-3 -1 1 147.53 6.88
-3 -1 1 155.96 6.86
3 1 -1 157.59 6.87
3 1 -1 157.61 6.89
3 1 -1 153.75 6.88
3 1 -1 152.79 6.86
-3 1 1 147.55 6.9
3 1 -1 156.03 6.86
-3 1 1 151.71 6.89
-3 1 1 149.84 6.87
-3 1 1 162.65 6.85
-3 1 1 152.21 6.91
3 1 -1 148.69 6.83
3 1 -1 159.34 6.88
-2 -1 1 126.18 5.68
2 -1 -1 128.22 5.76
2 -1 -1 128.6 5.67
-2 -1 1 124 5.71
2 -1 -1 128.19 5.64
2 -1 -1 126.67 5.67
-2 -1 1 127.67 5.68
-2 -1 1 137.41 5.66
-2 -1 1 135.01 5.68
2 -1 -1 130.1 5.68
-2 -1 1 127.28 5.68
2 -1 -1 129.84 5.69
-2 -1 1 133.83 5.67
2 -1 -1 132.4 5.69
2 -1 -1 145.96 5.69
-2 1 1 122.91 5.67
-2 1 1 133.6 5.69
2 1 -1 123.77 5.68
-2 1 1 129.51 5.77
-2 1 1 132.75 5.69
-2 1 1 121.89 5.67
-2 1 1 135.14 5.67
2 1 -1 130.08 5.68
-2 1 1 126.08 5.69
2 1 -1 128.07 5.67
2 1 -1 130.6 5.68
2 1 -1 132.88 5.67
2 1 -1 133.3 5.64
2 1 -1 130.1 5.67
-2 1 1 114.88 5.74
-1 -1 1 269.03 11.79
1 -1 -1 266.45 11.8
1 -1 -1 234.7 11.79
1 -1 -1 273.97 11.86
-1 -1 1 272.22 11.79
-1 -1 1 265.58 11.78
1 -1 -1 264.13 11.8
-1 -1 1 279.83 11.79
-1 -1 1 282.21 11.79
-1 -1 1 279.02 11.79
1 -1 -1 280.57 11.8
-1 -1 1 262.53 11.79
-1 -1 1 260.39 11.79
1 -1 -1 280.31 11.8
-1 -1 1 284.35 11.79
-1 -1 1 275.63 11.79
1 -1 -1 259.81 11.77
1 -1 -1 268.69 11.79
-1 1 1 271.33 11.79
-1 1 1 270.34 11.86
-1 1 1 262.63 11.79
1 1 -1 256.17 11.8
1 1 -1 299 11.8
-1 1 1 277.18 11.77
1 1 -1 261.83 11.79
1 1 -1 269.66 11.79
-1 1 1 280.34 11.81
1 1 -1 274.46 11.79
-1 1 1 266.26 11.8
-1 1 1 258.85 11.8
-1 1 1 281.59 11.8
1 1 -1 272.08 11.83
1 1 -1 264.98 11.78
1 1 -1 265.83 11.79
0 -1 -1 432.5 18.66
0 -1 -1 431.84 18.66
0 -1 -1 432.01 18.66
0 -1 -1 426.42 18.7
0 -1 -1 427.15 18.64
0 -1 1 424.28 18.64
0 -1 1 424.45 18.64
0 -1 -1 422.99 18.65
0 -1 1 382.88 18.65
0 -1 1 484.45 18.69
0 -1 1 436.65 18.65
0 -1 -1 436.27 18.63
0 -1 -1 416.71 18.65
0 1 1 422.56 18.65
0 1 1 404.48 18.66
0 1 -1 413.22 18.65
0 1 -1 421.99 18.65
0 1 1 432.41 18.7
0 1 1 424.66 18.65
0 1 -1 453.11 18.66
0 1 -1 456.06 18.69
0 1 1 428.66 18.66
0 1 1 431.38 18.66
0 1 -1 422.92 18.65
0 1 1 415.16 18.65
0 1 1 420.9 18.66
0 1 -1 427.53 18.65
1 -1 1 108.48 4.98
-1 -1 -1 110.29 4.98
-1 -1 -1 111.73 4.97
1 -1 1 119.61 4.96
1 -1 1 109.31 4.99
-1 -1 -1 116.55 4.99
1 -1 1 116.24 4.99
-1 -1 -1 112.38 5.04
1 -1 1 115.38 4.98
1 -1 1 113.12 5.03
1 -1 1 113.15 4.98
-1 -1 -1 111.13 4.99
-1 -1 -1 115.53 4.98
-1 -1 -1 115.28 4.97
-1 1 -1 112.32 4.98
1 1 1 110.66 4.97
1 1 1 120.5 4.99
1 1 1 117.39 4.99
-1 1 -1 115.56 4.99
-1 1 -1 111.25 4.98
-1 1 -1 121 4.99
-1 1 -1 107.75 4.99
1 1 1 109.79 4.98
1 1 1 115.06 4.99
-1 1 -1 111.98 5.04
-1 1 -1 111.23 4.98
1 1 1 115.59 4.98
1 1 1 113.2 4.98
1 1 1 119.57 4.99
2 -1 1 93.73 4.28
2 -1 1 101.42 4.29
2 -1 1 102.72 4.29
2 -1 1 95.32 4.26
-2 -1 -1 98.21 4.28
2 -1 1 105 4.36
2 -1 1 101.25 4.27
2 -1 1 98.43 4.27
-2 -1 -1 93.58 4.28
2 -1 1 107.01 4.27
2 -1 1 99.34 4.24
-2 -1 -1 93.43 4.28
-2 -1 -1 97.16 4.26
2 -1 1 94.63 4.27
-2 -1 -1 95.87 4.27
-2 -1 -1 94.69 4.27
-2 -1 -1 95.03 4.26
-2 1 -1 91.59 4.28
-2 1 -1 101.35 4.28
-2 1 -1 98.21 4.27
2 1 1 102.95 4.29
2 1 1 91.63 4.28
2 1 1 94.21 4.24
2 1 1 95.95 4.26
-2 1 -1 93.55 4.27
-2 1 -1 96.8 4.27
2 1 1 98.04 4.27
-2 1 -1 94.25 4.27
-2 1 -1 98.53 4.28
2 1 1 99.43 4.27
2 1 1 97.54 4.27
-2 1 -1 91.27 4.36
2 1 1 100.09 4.28
2 1 1 95.02 4.28
3 -1 1 128.05 5.74
-3 -1 -1 122.04 5.73
-3 -1 -1 130.63 5.74
3 -1 1 123.36 5.66
-3 -1 -1 126.86 5.74
3 -1 1 142.34 5.71
-3 -1 -1 131.94 5.7
-3 -1 -1 135.99 5.76
3 -1 1 130.96 5.7
3 -1 1 118.93 5.71
-3 -1 -1 132.64 5.7
3 1 1 132.97 5.7
3 1 1 125.11 5.66
3 1 1 133.18 5.69
3 1 1 133.93 5.7
3 1 1 129.22 5.72
-3 1 -1 130.91 5.71
3 1 1 126.03 5.73
3 1 1 122.28 5.72
3 1 1 131.72 5.73
-3 1 -1 135.15 5.71
-3 1 -1 134.34 5.73
4 -1 1 12.17 0.61
4 -1 1 13.09 0.6
-4 -1 -1 12.92 0.67
4 -1 1 12.75 0.67
4 -1 1 12.24 0.62
-4 -1 -1 12.69 0.61
-4 -1 -1 12.59 0.66
-4 -1 -1 12.78 0.66
-4 -1 -1 11.98 0.6
-4 -1 -1 12.15 0.58
4 1 1 13.06 0.62
-4 1 -1 12.93 0.68
-4 1 -1 12.14 0.62
4 1 1 13.39 0.62
4 1 1 12.48 0.65
4 1 1 12.77 0.64
4 1 1 12.81 0.64
4 1 1 12.63 0.6
-5 -1 -1 61.6 2.68
5 -1 1 60.27 2.65
5 -1 1 62.3 2.67
-5 -1 -1 61.99 2.7
5 -1 1 55.39 2.69
5 -1 1 57 2.7
-5 -1 -1 60.61 2.76
-5 -1 -1 64.42 2.76
-5 -1 -1 54.71 2.67
5 -1 1 60.55 2.7
5 1 1 60.91 2.7
-5 1 -1 58.07 2.69
5 1 1 68.14 2.71
-5 1 -1 59.87 2.69
5 1 1 60.35 2.7
5 1 1 60.78 2.72
-5 1 -1 57.74 2.67
-5 1 -1 58.99 2.76
5 1 1 57.65 2.65
6 -1 1 22.64 1.03
6 -1 1 22.96 1.1
-6 -1 -1 22.36 1.08
-6 -1 -1 21.98 1.14
-6 -1 -1 21.2 1.15
6 -1 1 22.82 1.06
-6 -1 -1 23.6 1.07
-6 -1 -1 22.82 1.06
-6 -1 -1 21.87 1.09
-6 1 -1 23.25 1.17
-6 1 -1 22.78 1.1
-6 1 -1 21.9 1.07
6 1 1 22.07 1.09
-6 1 -1 22.46 1.09
-6 1 -1 23.55 1.09
-6 1 -1 23.2 1.05
-6 1 -1 23.43 1.16
6 1 1 22.12 1.03
6 1 1 22.47 1.13
7 -1 1 0.03 0.12
-7 -1 -1 0.23 0.15
7 -1 1 0.14 0.13
7 -1 1 0.13 0.09
-7 -1 -1 0.17 0.17
-7 -1 -1 0.32 0.16
7 -1 1 0.08 0.15
-7 -1 -1 0.01 0.13
-7 -1 -1 0.25 0.13
7 -1 1 0.13 0.15
-7 -1 -1 0.07 0.2
-7 -1 -1 0.31 0.23
7 -1 1 0 0.16
-7 1 -1 0.19 0.14
-7 1 -1 0.08 0.2
7 1 1 0.1 0.18
7 1 1 0.06 0.13
7 1 1 0.19 0.16
7 1 1 0.08 0.15
-7 1 -1 0.13 0.28
-7 1 -1 0.22 0.21
7 1 1 0.12 0.09
-7 1 -1 0.24 0.25
-7 1 -1 0.23 0.13
-7 1 -1 0.09 0.28
-7 1 -1 0.27 0.44
-8 -1 -1 0.54 0.19
8 -1 1 0.21 0.14
-8 -1 -1 0.25 0.13
-8 -1 -1 0.66 0.25
8 -1 1 0.31 0.14
-8 -1 -1 0.37 0.13
8 -1 1 0.16 0.08
8 -1 1 0.16 0.14
-8 -1 -1 0.35 0.12
8 1 1 0.19 0.09
8 1 1 0.21 0.17
-8 1 -1 0.06 0.2
-8 1 -1 0.46 0.2
8 1 1 0.13 0.15
-8 1 -1 0.4 0.14
-8 1 -1 0.38 0.26
8 1 1 0.18 0.14
-8 1 -1 0.22 0.21
-8 1 -1 0.38 0.17
-9 -1 -1 3.28 0.28
9 -1 1 3.04 0.21
-9 -1 -1 2.9 0.17
9 -1 1 2.99 0.21
9 1 1 2.31 0.21
9 1 1 2.1 0.23
-9 1 -1 2.99 0.19
9 -2 -1 13.49 0.62
-9 -2 1 11.44 0.55
-9 -2 1 10.09 0.54
-9 2 1 13.16 0.66
-9 2 1 13.06 0.54
9 2 -1 11.66 0.6
9 2 -1 10.07 0.61
-8 -2 1 3.31 0.24
-8 -2 1 3.19 0.28
-8 -2 1 3.58 0.22
-8 -2 1 2.89 0.32
8 -2 -1 3.41 0.27
8 -2 -1 3.2 0.33
8 -2 -1 3.09 0.22
8 -2 -1 3.15 0.3
-8 -2 1 3.53 0.23
8 -2 -1 3.44 0.29
8 2 -1 3 0.28
-8 2 1 3.17 0.24
-8 2 1 3.62 0.34
-8 2 1 3.39 0.41
8 2 -1 3.61 0.34
8 2 -1 3.48 0.3
-7 -2 1 6.08 0.38
-7 -2 1 6.08 0.35
7 -2 -1 5.69 0.4
7 -2 -1 6.14 0.35
-7 -2 1 5.37 0.38
-7 -2 1 5.61 0.31
7 -2 -1 6.09 0.31
-7 -2 1 5.55 0.45
7 -2 -1 5.22 0.4
7 -2 -1 5.52 0.39
7 -2 -1 5.81 0.44
-7 2 1 5.36 0.35
-7 2 1 5.14 0.43
7 2 -1 5.38 0.37
-7 2 1 6.01 0.37
7 2 -1 5.53 0.4
-7 2 1 5.72 0.51
-7 2 1 5.16 0.38
-7 2 1 5.88 0.38
6 -2 -1 4.2 0.25
-6 -2 1 4.23 0.26
-6 -2 1 3.77 0.37
6 -2 -1 4.17 0.28
-6 -2 1 4.11 0.31
-6 -2 1 4.31 0.36
-6 -2 1 4.42 0.27
6 -2 -1 4.04 0.32
-6 -2 1 4.97 0.33
-6 -2 1 3.41 0.29
-6 2 1 4.47 0.24
6 2 -1 4.83 0.32
-6 2 1 3.63 0.32
-6 2 1 4.57 0.41
6 2 -1 3.97 0.32
-6 2 1 4.14 0.36
-6 2 1 4.46 0.36
-6 2 1 4.2 0.31
-6 2 1 3.99 0.31
-5 -2 1 27.18 1.25
-5 -2 1 23.61 1.24
-5 -2 1 27.54 1.22
5 -2 -1 25.81 1.21
5 -2 -1 26.43 1.23
-5 -2 1 26.94 1.26
-5 -2 1 28.94 1.33
-5 -2 1 25.97 1.22
5 -2 -1 27.91 1.26
-5 -2 1 25.77 1.22
-5 -2 1 25.98 1.3
-5 -2 1 27.64 1.22
5 -2 -1 26.02 1.27
-5 2 1 26.73 1.29
5 2 -1 27.59 1.29
-5 2 1 26.78 1.24
-5 2 1 28.19 1.33
-5 2 1 27.65 1.26
-5 2 1 27.47 1.23
-5 2 1 26.84 1.26
5 2 -1 27.65 1.26
-5 2 1 27.23 1.28
5 2 -1 26.54 1.26
-4 -2 1 31.89 1.4
4 -2 -1 28.72 1.38
4 -2 -1 30.74 1.39
-4 -2 1 30.01 1.36
-4 -2 1 27.66 1.36
-4 -2 1 31.43 1.42
-4 -2 1 28.83 1.35
4 -2 -1 26.68 1.42
-4 -2 1 31.83 1.41
-4 -2 1 29.98 1.38
4 -2 -1 29.89 1.37
-4 -2 1 32.13 1.44
-4 2 1 32 1.41
-4 2 1 29.25 1.39
4 2 -1 31.07 1.41
4 2 -1 30.31 1.4
4 2 -1 29.63 1.38
-4 2 1 29.94 1.38
-4 2 1 30.23 1.44
4 2 -1 30.94 1.39
3 -2 -1 40.2 1.83
-3 -2 1 39.04 1.83
3 -2 -1 41.41 1.81
-3 -2 1 41.59 1.81
3 -2 -1 41.74 1.86
-3 -2 1 37.71 1.81
3 -2 -1 38.48 1.79
-3 -2 1 42.25 1.79
-3 -2 1 39.9 1.82
-3 -2 1 38.11 1.84
-3 -2 1 40.1 1.83
3 -2 -1 39.17 1.81
-3 -2 1 38.32 1.79
3 2 -1 40.76 1.81
-3 2 1 38.8 1.84
3 2 -1 38.72 1.83
3 2 -1 44.92 1.85
3 2 -1 38.8 1.81
-3 2 1 41.96 1.86
-3 2 1 40.08 1.83
3 2 -1 40.66 1.82
-3 2 1 41.11 1.8
-3 2 1 42.11 1.79
3 2 -1 43.01 1.81
-2 -2 1 20.4 0.99
2 -2 -1 21.12 0.99
2 -2 -1 22.19 1
-2 -2 1 21.65 1
2 -2 -1 23.51 1.02
2 -2 -1 21.66 1.03
-2 -2 1 17.94 1.02
-2 -2 1 21.99 0.98
2 -2 -1 21.4 0.99
-2 -2 1 22.11 0.97
-2 -2 1 22.33 1
2 2 -1 21.36 1.01
2 2 -1 21.58 0.98
-2 2 1 21.71 1
-2 2 1 23.39 1.02
2 2 -1 22.55 0.99
2 2 -1 20.91 0.99
2 2 -1 22.91 1
-2 2 1 20.65 0.99
-2 2 1 21.86 0.99
-2 2 1 20.19 0.96
2 2 -1 22.38 0.98
1 -2 -1 16.23 0.79
-1 -2 1 16.07 0.78
-1 -2 1 17.29 0.75
-1 -2 1 17.5 0.75
-1 -2 1 16.59 0.76
1 -2 -1 16.63 0.77
1 -2 -1 17.69 0.77
1 -2 -1 17.23 0.78
1 -2 -1 17.04 0.79
-1 -2 1 15.6 0.76
1 -2 -1 15.55 0.76
-1 2 1 15.88 0.77
1 2 -1 17.52 0.76
1 2 -1 16.8 0.76
-1 2 1 14.7 0.77
-1 2 1 16.02 0.78
-1 2 1 18.31 0.79
-1 2 1 15.38 0.74
-1 2 1 16.86 0.79
-1 2 1 16.44 0.79
-1 2 1 16.8 0.77
-1 2 1 16.5 0.77
1 2 -1 17.02 0.76
1 2 -1 17 0.77
-1 2 1 16.59 0.72
1 2 -1 17.25 0.79
0 -2 -1 3.81 0.23
0 -2 -1 3.74 0.22
0 -2 -1 3.59 0.23
0 -2 -1 4.01 0.2
0 -2 1 3.64 0.22
0 -2 1 3.62 0.19
0 -2 1 3.85 0.21
0 -2 1 3.7 0.2
0 -2 -1 3.74 0.21
0 -2 -1 3.91 0.21
0 -2 -1 3.52 0.21
0 2 1 3.76 0.21
0 2 -1 3.73 0.23
0 2 1 3.65 0.24
0 2 1 3.77 0.24
0 2 -1 3.63 0.21
0 2 1 3.67 0.24
0 2 1 3.57 0.22
0 2 1 3.61 0.23
0 2 -1 3.54 0.21
0 2 1 3.46 0.22
0 2 -1 3.86 0.23
0 2 1 3.44 0.23
0 2 -1 3.84 0.32
0 2 -1 3.89 0.24
0 2 -1 3.73 0.21
0 2 1 3.89 0.22
0 2 1 4.17 0.34
1 -2 1 56.29 2.64
1 -2 1 62.47 2.66
-1 -2 -1 57.98 2.63
1 -2 1 57.3 2.62
-1 -2 -1 59.54 2.63
1 -2 1 60.46 2.63
-1 -2 -1 61.54 2.65
1 -2 1 56.39 2.63
-1 -2 -1 61.64 2.64
-1 -2 -1 60.48 2.64
-1 2 -1 57.07 2.64
-1 2 -1 63.69 2.64
1 2 1 57.86 2.66
-1 2 -1 57.85 2.64
-1 2 -1 61.11 2.75
1 2 1 60.5 2.64
-1 2 -1 58.7 2.65
1 2 1 63.17 2.66
1 2 1 59.93 2.66
-1 2 -1 60.25 2.65
1 2 1 57.79 2.76
1 2 1 60.58 2.64
1 2 1 60.38 2.64
-2 -2 -1 19.86 0.95
2 -2 1 22.37 0.94
2 -2 1 20.36 0.96
-2 -2 -1 19.65 0.96
2 -2 1 20.42 0.88
-2 -2 -1 20.33 0.93
2 -2 1 18.6 0.95
-2 -2 -1 20.19 0.96
-2 -2 -1 19.43 0.92
2 -2 1 19.32 0.92
-2 2 -1 19.92 0.94
-2 2 -1 19.57 0.93
2 2 1 20.76 0.94
2 2 1 20.5 0.95
-2 2 -1 20.29 0.95
2 2 1 20.08 0.94
2 2 1 20.75 0.93
-2 2 -1 21.76 0.95
-2 2 -1 21.86 0.94
2 2 1 20.5 0.96
2 2 1 18.78 0.93
-3 -2 -1 13.03 0.67
3 -2 1 12.08 0.66
-3 -2 -1 13.98 0.66
3 -2 1 13.88 0.64
3 -2 1 14.88 0.63
-3 -2 -1 13.58 0.66
-3 -2 -1 13.33 0.62
3 -2 1 13.13 0.6
-3 2 -1 12.73 0.63
3 2 1 12.52 0.63
-3 2 -1 11.36 0.65
3 2 1 12.17 0.64
3 2 1 12.89 0.64
-3 2 -1 12.58 0.62
3 2 1 12.34 0.65
3 2 1 12.72 0.63
3 2 1 11.53 0.65
-3 2 -1 12.88 0.63
4 -2 1 14.12 0.67
-4 -2 -1 13.92 0.65
4 -2 1 13.73 0.64
-4 -2 -1 13.77 0.72
-4 -2 -1 13.19 0.66
-4 -2 -1 13.75 0.72
-4 -2 -1 14.91 0.73
4 2 1 14.01 0.68
4 2 1 12.95 0.69
-4 2 -1 12.89 0.67
4 2 1 14.08 0.68
4 2 1 12.42 0.69
-4 2 -1 13.08 0.67
-5 -2 -1 7.03 0.45
-5 -2 -1 6.62 0.37
5 -2 1 6.17 0.35
-5 -2 -1 6.71 0.45
5 -2 1 6.08 0.39
-5 -2 -1 6.35 0.39
-5 -2 -1 6.63 0.45
-5 -2 -1 6.49 0.39
-5 -2 -1 6.66 0.35
5 -2 1 6.51 0.33
-5 -2 -1 6.61 0.37
5 2 1 7.2 0.43
-5 2 -1 6.5 0.42
5 2 1 6.98 0.41
-5 2 -1 6.81 0.4
-5 2 -1 6.35 0.34
5 2 1 7.01 0.4
-5 2 -1 5.98 0.4
6 -2 1 1.8 0.15
-6 -2 -1 1.7 0.28
-6 -2 -1 1.74 0.22
6 -2 1 1.9 0.24
-6 -2 -1 1.56 0.21
-6 -2 -1 1.99 0.21
-6 -2 -1 1.58 0.32
-6 -2 -1 1.56 0.25
6 -2 1 1.85 0.19
-6 -2 -1 1.69 0.25
-6 -2 -1 2.2 0.18
6 2 1 2.05 0.23
6 2 1 1.63 0.15
-6 2 -1 1.87 0.32
-6 2 -1 2.25 0.23
-6 2 -1 1.78 0.23
-6 2 -1 1.73 0.28
6 2 1 1.59 0.24
-6 2 -1 1.27 0.25
7 -2 1 9.1 0.56
-7 -2 -1 8.67 0.51
7 -2 1 9.77 0.48
-7 -2 -1 10.16 0.57
-7 -2 -1 9.85 0.62
-7 -2 -1 9.73 0.5
7 -2 1 9.57 0.56
-7 -2 -1 10.15 0.61
7 -2 1 9.38 0.52
-7 -2 -1 9.43 0.55
-7 -2 -1 10.17 0.5
7 -2 1 10.16 0.59
7 -2 1 9.99 0.52
-7 -2 -1 9.63 0.51
7 2 1 10.3 0.49
-7 2 -1 9.19 0.53
7 2 1 10.12 0.57
-7 2 -1 9.72 0.54
7 2 1 9.92 0.58
-7 2 -1 9.67 0.7
-7 2 -1 9.97 0.57
-7 2 -1 10.38 0.55
7 2 1 11.44 0.64
-7 2 -1 10.14 0.6
-8 -2 -1 3.93 0.24
8 -2 1 3.7 0.26
8 -2 1 4.21 0.31
-8 -2 -1 4.05 0.24
8 -2 1 3.68 0.27
-8 -2 -1 3.91 0.34
-8 -2 -1 3.74 0.3
8 2 1 4.07 0.34
-8 2 -1 4.14 0.27
8 2 1 3.17 0.39
-8 2 -1 4.59 0.37
-8 2 -1 3.96 0.41
8 2 1 3.93 0.31
-8 2 -1 3.23 0.27
9 -2 1 3.67 0.22
9 -2 1 3.77 0.24
9 -2 1 3.9 0.22
-9 2 -1 4 0.2
9 2 1 2.7 0.23
9 2 1 3.02 0.23
8 -3 -1 3.79 0.28
-8 -3 1 3.27 0.22
8 -3 -1 3.4 0.25
8 -3 -1 3.46 0.25
-8 -3 1 3.42 0.23
8 3 -1 3.59 0.32
-8 3 1 4 0.39
8 3 -1 3.75 0.31
-7 -3 1 0.37 0.17
7 -3 -1 0.39 0.16
-7 -3 1 0.5 0.11
7 -3 -1 0.59 0.2
-7 -3 1 0.12 0.14
7 -3 -1 0.32 0.15
-7 -3 1 0.64 0.15
-7 -3 1 0.39 0.12
-7 -3 1 0.25 0.13
7 -3 -1 0.43 0.18
7 -3 -1 0.26 0.08
-7 3 1 0.31 0.24
-7 3 1 0.45 0.15
-7 3 1 0.47 0.14
-7 3 1 0.32 0.15
7 3 -1 0.51 0.23
-7 3 1 0.46 0.32
-7 3 1 0.4 0.21
7 3 -1 0.42 0.17
7 3 -1 0.39 0.15
-6 -3 1 8.4 0.56
6 -3 -1 7.69 0.47
-6 -3 1 7.36 0.44
6 -3 -1 7.33 0.42
-6 -3 1 8.04 0.46
6 -3 -1 7.17 0.39
-6 -3 1 7.92 0.42
-6 -3 1 7.36 0.45
-6 -3 1 6.62 0.52
6 -3 -1 9.38 0.6
-6 3 1 7.41 0.45
-6 3 1 8.64 0.46
6 3 -1 8.25 0.46
-6 3 1 7.17 0.47
-6 3 1 7.01 0.5
-6 3 1 6.91 0.39
-5 -3 1 11.51 0.6
-5 -3 1 12.12 0.65
5 -3 -1 10.45 0.61
-5 -3 1 11.67 0.57
-5 -3 1 11.36 0.61
-5 -3 1 10.93 0.57
-5 -3 1 11.6 0.55
5 -3 -1 11.96 0.55
5 -3 -1 12.3 0.58
-5 -3 1 12.17 0.69
-5 3 1 11.4 0.71
-5 3 1 11.25 0.64
-5 3 1 11.41 0.59
5 3 -1 11.32 0.64
-5 3 1 11.86 0.62
5 3 -1 11.68 0.62
-5 3 1 11 0.65
4 -3 -1 0.84 0.12
-4 -3 1 0.97 0.13
-4 -3 1 0.79 0.17
-4 -3 1 1.22 0.22
4 -3 -1 0.69 0.17
-4 -3 1 1.1 0.17
-4 -3 1 1.09 0.16
-4 -3 1 1.04 0.15
4 -3 -1 0.79 0.14
-4 -3 1 0.79 0.13
-4 -3 1 1 0.2
-4 -3 1 0.91 0.12
4 3 -1 1.03 0.16
-4 3 1 0.96 0.21
-4 3 1 0.97 0.13
4 3 -1 0.94 0.18
4 3 -1 1.07 0.19
4 3 -1 0.95 0.17
-4 3 1 0.81 0.19
-4 3 1 0.94 0.17
-3 -3 1 12.26 0.59
3 -3 -1 12.41 0.6
-3 -3 1 11.14 0.63
-3 -3 1 12.68 0.6
-3 -3 1 13.08 0.63
-3 -3 1 12.97 0.65
-3 -3 1 13.4 0.59
3 -3 -1 14.74 0.7
-3 -3 1 12.44 0.66
-3 -3 1 12.72 0.62
3 3 -1 11.77 0.63
-3 3 1 12.02 0.59
-3 3 1 12.75 0.61
-3 3 1 12.24 0.62
-3 3 1 11.59 0.63
3 3 -1 13.12 0.62
3 3 -1 11.86 0.62
3 3 -1 12.48 0.63
-2 -3 1 59.84 2.77
-2 -3 1 60.85 2.83
2 -3 -1 62.7 2.84
-2 -3 1 65.09 2.81
2 -3 -1 59.5 2.82
-2 -3 1 65.26 2.8
-2 -3 1 62.49 2.78
-2 -3 1 63.57 2.82
-2 -3 1 64.17 2.79
2 -3 -1 63.86 2.78
-2 -3 1 61.1 2.83
2 3 -1 62.97 2.81
2 3 -1 64.11 2.81
2 3 -1 67.39 2.82
-2 3 1 63.21 2.79
2 3 -1 60.84 2.82
-2 3 1 67.01 2.77
-2 3 1 63.4 2.81
-2 3 1 62.45 2.81
-2 3 1 58.69 2.84
2 3 -1 63.15 2.81
-1 -3 1 8.44 0.44
-1 -3 1 8.89 0.48
1 -3 -1 9.68 0.46
1 -3 -1 8.6 0.42
-1 -3 1 8.55 0.43
-1 -3 1 9.03 0.46
-1 -3 1 8.5 0.4
1 -3 -1 9.05 0.48
1 -3 -1 8.24 0.47
-1 -3 1 8.04 0.46
1 3 -1 8.84 0.45
-1 3 1 8.04 0.47
-1 3 1 8.46 0.46
1 3 -1 9.19 0.45
-1 3 1 8.22 0.45
1 3 -1 8.61 0.44
1 3 -1 8.58 0.46
-1 3 1 7.83 0.41
-1 3 1 8.86 0.48
-1 3 1 7.89 0.42
-1 3 1 8.6 0.45
1 3 -1 8.88 0.45
0 -3 -1 42.76 1.89
0 -3 1 39.5 1.89
0 -3 1 41.45 1.87
0 -3 1 43.88 1.92
0 -3 -1 40.37 1.91
0 -3 1 45.12 1.89
0 -3 1 43.06 1.85
0 -3 -1 40.74 1.85
0 -3 -1 39.21 1.87
0 3 1 42.25 1.89
0 3 -1 39.49 1.91
0 3 1 43.06 1.89
0 3 -1 41.59 1.9
0 3 -1 44.77 1.88
0 3 1 42.2 1.92
0 3 1 41.37 1.9
0 3 -1 40.62 1.89
0 3 1 40.76 1.88
0 3 1 41.6 1.9
0 3 -1 40.32 1.88
0 3 -1 44.38 1.88
0 3 1 40.59 1.85
-1 -3 -1 79.86 3.47
-1 -3 -1 77.7 3.51
1 -3 1 73.55 3.52
1 -3 1 75.74 3.44
-1 -3 -1 75.2 3.44
-1 -3 -1 81.44 3.48
-1 -3 -1 70.2 3.48
1 -3 1 82.18 3.5
1 -3 1 77.68 3.46
1 -3 1 86.1 3.49
-1 -3 -1 75.34 3.51
-1 3 -1 79.74 3.48
1 3 1 78.02 3.48
1 3 1 76.92 3.49
1 3 1 79.64 3.5
-1 3 -1 81.5 3.48
-1 3 -1 77.89 3.49
1 3 1 80.88 3.49
1 3 1 82.36 3.49
-1 3 -1 77.58 3.5
-1 3 -1 78.63 3.48
-2 -3 -1 34.8 1.6
-2 -3 -1 35.01 1.55
2 -3 1 35.81 1.58
2 -3 1 34.44 1.55
-2 -3 -1 33.51 1.56
-2 -3 -1 32.47 1.58
2 -3 1 34.55 1.56
2 -3 1 34.12 1.6
2 -3 1 36.63 1.53
-2 -3 -1 34.72 1.6
2 3 1 33.96 1.57
2 3 1 34.65 1.57
-2 3 -1 31.84 1.54
-2 3 -1 34.52 1.57
-2 3 -1 32.74 1.59
2 3 1 33.9 1.58
-2 3 -1 34.48 1.57
-2 3 -1 34.76 1.59
2 3 1 35.83 1.59
-3 -3 -1 19.74 0.93
-3 -3 -1 20.05 0.98
-3 -3 -1 21.08 0.97
3 -3 1 22.32 1
-3 -3 -1 20.47 0.98
3 -3 1 18.64 0.95
-3 -3 -1 19.61 0.91
3 -3 1 19.74 0.9
3 3 1 19.79 0.96
-3 3 -1 19.19 0.94
3 3 1 19.05 0.94
3 3 1 18.87 0.94
-3 3 -1 17.97 0.93
-3 3 -1 19.1 0.92
3 3 1 19.29 0.95
-4 -3 -1 27.73 1.36
-4 -3 -1 31.32 1.43
-4 -3 -1 28.77 1.38
4 -3 1 29.02 1.33
4 -3 1 27.77 1.43
-4 -3 -1 30.91 1.36
-4 -3 -1 31.49 1.35
-4 -3 -1 30.26 1.38
4 -3 1 31.29 1.35
-4 -3 -1 32.85 1.45
-4 -3 -1 29.06 1.44
4 3 1 29.4 1.42
4 3 1 27.29 1.4
-4 3 -1 31.03 1.4
-4 3 -1 30.63 1.37
4 3 1 30.79 1.4
-4 3 -1 29.61 1.34
-4 3 -1 27.91 1.39
-5 -3 -1 0.11 0.13
5 -3 1 0.27 0.08
-5 -3 -1 0.25 0.14
-5 -3 -1 0.3 0.22
-5 -3 -1 0.42 0.13
-5 -3 -1 0.52 0.12
-5 -3 -1 0.37 0.16
-5 -3 -1 0.15 0.2
5 -3 1 0.33 0.12
-5 -3 -1 0.37 0.14
5 3 1 0.42 0.17
-5 3 -1 0.31 0.19
-5 3 -1 0.58 0.16
-5 3 -1 0.34 0.11
5 3 1 0.33 0.15
-6 -3 -1 9.65 0.49
-6 -3 -1 9.77 0.54
-6 -3 -1 8.84 0.47
-6 -3 -1 9.45 0.62
-6 -3 -1 9.7 0.48
6 -3 1 9.28 0.48
-6 -3 -1 9.29 0.52
-6 -3 -1 8.87 0.57
6 -3 1 9.35 0.5
6 -3 1 9.58 0.54
-6 -3 -1 9.55 0.49
6 -3 1 8.93 0.44
-6 -3 -1 8.84 0.48
-6 3 -1 9.81 0.57
6 3 1 8.91 0.59
-6 3 -1 9.85 0.54
6 3 1 8.57 0.56
6 3 1 8.83 0.46
-6 3 -1 8.88 0.58
6 3 1 10.05 0.54
-6 3 -1 9.44 0.51
7 -3 1 25.27 1.19
-7 -3 -1 23.3 1.17
-7 -3 -1 24.73 1.13
-7 -3 -1 25.48 1.19
7 -3 1 24.2 1.15
-7 -3 -1 26.05 1.23
7 -3 1 24.38 1.14
-7 -3 -1 25.55 1.13
-7 -3 -1 23.91 1.12
-7 3 -1 21.81 1.21
-7 3 -1 24.37 1.28
-7 3 -1 23.28 1.17
7 3 1 25.86 1.13
-7 3 -1 25.16 1.16
7 3 1 24.51 1.19
7 3 1 25.9 1.26
7 3 1 24.42 1.21
-8 -3 -1 5.49 0.29
-8 -3 -1 5.77 0.27
-8 -3 -1 5.05 0.36
-8 -3 -1 5.55 0.31
8 -3 1 6.2 0.36
8 -3 1 5.75 0.32
8 -3 1 5.96 0.32
-8 3 -1 5.65 0.32
8 3 1 5.9 0.39
8 3 1 4.69 0.36
-8 3 -1 4.99 0.42
8 -4 -1 1.64 0.17
-8 -4 1 1.33 0.12
-8 -4 1 1.45 0.17
8 -4 -1 1.49 0.14
8 -4 -1 1.78 0.14
-8 -4 1 0.9 0.16
-8 -4 1 1.37 0.12
-8 -4 1 1.54 0.12
-8 4 1 1.44 0.22
8 4 -1 1.22 0.18
8 4 -1 1.2 0.13
8 4 -1 1.36 0.19
-7 -4 1 2.41 0.18
7 -4 -1 1.58 0.26
-7 -4 1 2.35 0.27
7 -4 -1 2.22 0.21
-7 -4 1 2.42 0.21
7 -4 -1 2.59 0.23
7 -4 -1 2.38 0.22
7 4 -1 2.24 0.21
7 4 -1 2.52 0.29
-7 4 1 2.45 0.23
-7 4 1 3.01 0.48
7 4 -1 2.21 0.27
-7 4 1 2.44 0.34
-6 -4 1 1.48 0.2
-6 -4 1 1.37 0.21
-6 -4 1 1.79 0.26
6 -4 -1 1.8 0.25
6 -4 -1 1.78 0.23
6 -4 -1 1.45 0.19
-6 -4 1 1.52 0.24
-6 -4 1 1.29 0.21
-6 -4 1 1.85 0.18
-6 4 1 1.5 0.33
-6 4 1 1.66 0.24
-6 4 1 1.6 0.27
6 4 -1 1.61 0.22
-6 4 1 1.55 0.12
-6 4 1 1.61 0.22
6 4 -1 1.68 0.28
-5 -4 1 13.93 0.67
-5 -4 1 13.57 0.66
5 -4 -1 12.85 0.63
-5 -4 1 14.29 0.69
-5 -4 1 14.13 0.81
5 -4 -1 12.72 0.65
5 -4 -1 13.76 0.64
-5 -4 1 13.04 0.7
-5 4 1 12.22 0.72
-5 4 1 12.67 0.7
-5 4 1 14.58 0.69
5 4 -1 13.16 0.71
-4 -4 1 20.92 1.02
-4 -4 1 19.61 0.96
4 -4 -1 20.42 0.93
4 -4 -1 21.87 0.96
4 -4 -1 19.71 0.94
4 -4 -1 21.34 1.03
-4 -4 1 19.79 1
-4 -4 1 20.36 1.06
-4 -4 1 20.61 0.94
-4 -4 1 20.6 0.96
-4 -4 1 20.55 1.03
-4 -4 1 21.32 0.99
4 4 -1 20.62 1
-4 4 1 19.47 1.02
-4 4 1 20.12 1
-4 4 1 20.81 0.94
4 4 -1 20.66 1.04
-3 -4 1 18.98 0.86
3 -4 -1 17.01 0.86
3 -4 -1 17.97 0.85
3 -4 -1 17.56 0.85
-3 -4 1 17.55 0.9
-3 -4 1 19.39 0.95
-3 -4 1 20.81 0.87
-3 -4 1 19.19 0.87
-3 -4 1 19.01 0.89
-3 -4 1 18.32 0.86
3 -4 -1 16.93 0.92
-3 -4 1 19.29 0.9
-3 -4 1 18.03 0.96
3 4 -1 19.51 0.91
-3 4 1 17.84 0.96
3 4 -1 18.52 0.94
-3 4 1 19.38 0.89
-3 4 1 19.4 0.86
-3 4 1 19.58 0.92
2 -4 -1 23.21 1.09
-2 -4 1 24.14 1.12
2 -4 -1 23.47 1.14
-2 -4 1 22.84 1.16
-2 -4 1 25.1 1.13
-2 -4 1 26.29 1.18
-2 -4 1 23.19 1.11
-2 -4 1 23.9 1.09
-2 -4 1 26.36 1.1
2 -4 -1 22.72 1.07
-2 4 1 24.35 1.14
2 4 -1 23.43 1.15
2 4 -1 21.44 1.14
2 4 -1 22.65 1.13
2 4 -1 20.28 1.13
2 4 -1 24.7 1.13
-2 4 1 24.09 1.15
-2 4 1 26.16 1.12
-2 4 1 25.76 1.09
1 -4 -1 39.3 1.84
1 -4 -1 37.79 1.83
1 -4 -1 40.52 1.86
-1 -4 1 38.99 1.81
-1 -4 1 41.86 1.85
-1 -4 1 40.06 1.81
-1 -4 1 41.85 1.86
-1 -4 1 42.1 1.89
-1 -4 1 40.63 1.84
1 -4 -1 39.73 1.8
1 -4 -1 39.88 1.89
1 -4 -1 45.19 1.85
1 4 -1 40.57 1.87
1 4 -1 42.79 1.85
-1 4 1 38.47 1.85
1 4 -1 40.96 1.86
-1 4 1 41.35 1.82
1 4 -1 38.33 1.84
-1 4 1 37.85 1.8
-1 4 1 41.25 1.86
-1 4 1 40.09 1.85
1 4 -1 39.83 1.84
0 -4 1 19.75 0.95
0 -4 -1 20.03 0.91
0 -4 1 19.86 0.9
0 -4 1 19.68 0.89
0 -4 -1 18.29 0.9
0 -4 1 19.47 0.87
0 -4 1 19.2 0.98
0 -4 -1 20.2 0.97
0 -4 -1 18.01 0.9
0 -4 -1 19.46 0.93
0 -4 1 19.83 0.94
0 4 -1 19.67 0.95
0 4 1 19.93 0.96
0 4 1 19.31 0.92
0 4 -1 19.37 0.92
0 4 1 17.55 0.89
0 4 -1 17.99 0.94
0 4 1 19.65 0.94
0 4 -1 19.25 0.93
0 4 1 19.06 0.93
0 4 -1 19.15 0.93
0 4 1 18.55 0.88
-1 -4 -1 69.26 3.05
1 -4 1 70.52 3.04
-1 -4 -1 63.06 3.01
-1 -4 -1 68.54 3.09
1 -4 1 64.67 3.01
-1 -4 -1 71 3.03
-1 -4 -1 69.65 3.02
1 -4 1 68.2 3.06
1 -4 1 70.48 3.08
1 -4 1 65.86 3.01
-1 4 -1 62.46 3
-1 4 -1 71.57 3.08
1 4 1 74.16 3.07
1 4 1 64.11 3
-1 4 -1 70.82 3.06
-1 4 -1 69.43 3.05
1 4 1 73.46 3.08
1 4 1 63.86 3.04
-1 4 -1 69.48 3.05
1 4 1 60.84 3.05
2 -4 1 41.62 1.88
2 -4 1 41.03 1.81
-2 -4 -1 41.74 1.79
-2 -4 -1 37.69 1.8
2 -4 1 38.81 1.83
2 -4 1 41.95 1.86
-2 -4 -1 42.54 1.83
2 -4 1 41.31 1.85
2 -4 1 39.91 1.8
2 -4 1 37.22 1.8
-2 -4 -1 40.74 1.81
-2 -4 -1 40.14 1.76
-2 -4 -1 40.97 1.88
-2 4 -1 41.59 1.84
-2 4 -1 37.31 1.79
2 4 1 38.25 1.83
-2 4 -1 39.23 1.81
2 4 1 42.5 1.85
2 4 1 36.45 1.86
-2 4 -1 39.78 1.84
-3 -4 -1 1.83 0.2
-3 -4 -1 1.53 0.26
3 -4 1 1.63 0.18
-3 -4 -1 1.56 0.18
3 -4 1 1.7 0.15
-3 -4 -1 1.48 0.22
3 -4 1 1.31 0.22
-3 -4 -1 1.53 0.16
3 -4 1 1.61 0.22
3 -4 1 1.86 0.22
3 -4 1 1.67 0.21
-3 -4 -1 1.82 0.19
-3 -4 -1 1.37 0.2
3 -4 1 2.02 0.22
-3 4 -1 1.87 0.22
-3 4 -1 1.84 0.21
3 4 1 1.57 0.24
-3 4 -1 1.73 0.17
3 4 1 1.54 0.19
-4 -4 -1 6.04 0.56
4 -4 1 5.77 0.36
4 -4 1 5.54 0.39
4 -4 1 5.36 0.3
-4 -4 -1 5.44 0.35
-4 -4 -1 5.44 0.33
-4 -4 -1 5.23 0.35
-4 -4 -1 4.52 0.4
-4 -4 -1 5.37 0.33
-4 -4 -1 4.85 0.37
4 -4 1 5.36 0.4
-4 -4 -1 5.36 0.31
4 -4 1 5.5 0.37
4 4 1 5.43 0.36
-4 4 -1 5.54 0.31
-4 4 -1 5.21 0.37
-4 4 -1 5.01 0.35
4 4 1 5.23 0.39
5 -4 1 6.63 0.39
-5 -4 -1 6.34 0.46
5 -4 1 6.34 0.45
-5 -4 -1 6.9 0.37
5 -4 1 6.24 0.45
5 -4 1 7.22 0.44
-5 -4 -1 5.07 0.42
-5 -4 -1 7.08 0.38
-5 -4 -1 6.55 0.39
-5 -4 -1 7.45 0.38
5 -4 1 5.57 0.42
-5 -4 -1 7.07 0.42
5 -4 1 6.32 0.38
-5 -4 -1 7.7 0.43
5 -4 1 6.77 0.42
-5 -4 -1 7.19 0.37
-5 4 -1 6.94 0.44
5 4 1 6.4 0.35
5 4 1 6.79 0.49
5 4 1 6.94 0.49
-5 4 -1 4.6 0.57
-5 4 -1 6.92 0.35
5 4 1 7 0.44
5 4 1 6.3 0.4
6 -4 1 2.48 0.24
-6 -4 -1 3.26 0.24
6 -4 1 2.85 0.25
-6 -4 -1 2.63 0.23
-6 -4 -1 3.31 0.32
6 -4 1 2.92 0.27
-6 -4 -1 3.4 0.29
-6 -4 -1 2.88 0.22
6 -4 1 3 0.29
-6 -4 -1 2.95 0.27
-6 -4 -1 2.74 0.21
-6 4 -1 2.97 0.3
6 4 1 3.12 0.25
6 4 1 3 0.33
6 4 1 2.87 0.27
-6 4 -1 2.94 0.26
6 4 1 2.6 0.32
6 4 1 2.77 0.21
7 -4 1 5.76 0.36
7 -4 1 5.4 0.31
7 -4 1 5.35 0.31
-7 -4 -1 5.47 0.39
-7 -4 -1 4.98 0.31
-7 -4 -1 5.41 0.29
-7 -4 -1 5.04 0.37
7 4 1 4.89 0.39
7 4 1 5.25 0.38
-7 4 -1 5.69 0.34
7 4 1 5.19 0.33
8 -4 1 4.18 0.28
-8 -4 -1 4.78 0.3
-8 -4 -1 4.88 0.25
-8 -4 -1 5.01 0.28
8 -4 1 5.25 0.25
8 -4 1 5.49 0.26
8 4 1 4.13 0.26
8 4 1 4.1 0.28
-8 4 -1 5.79 0.27
8 4 1 4.02 0.29
-7 -5 1 4.49 0.27
-7 -5 1 5.3 0.33
-7 -5 1 5.31 0.31
7 -5 -1 5.84 0.29
-7 -5 1 5.34 0.27
7 -5 -1 5.51 0.28
7 5 -1 5.63 0.33
-7 5 1 4.52 0.28
7 5 -1 5.83 0.37
-6 -5 1 0.82 0.16
6 -5 -1 0.9 0.18
6 -5 -1 0.96 0.17
-6 -5 1 0.99 0.22
-6 -5 1 1.04 0.14
6 -5 -1 0.88 0.17
-6 -5 1 1.14 0.2
6 5 -1 0.97 0.24
6 5 -1 0.84 0.23
-6 5 1 1.01 0.45
-6 5 1 1.09 0.21
-5 -5 1 15.56 0.82
5 -5 -1 16.14 0.75
-5 -5 1 15.3 0.73
-5 -5 1 15.24 0.73
5 -5 -1 15.22 0.74
-5 -5 1 14.78 0.77
-5 -5 1 13.88 0.75
5 -5 -1 15.85 0.75
-5 5 1 16.21 0.78
-5 5 1 14.84 0.74
5 5 -1 15.6 0.83
-4 -5 1 1.78 0.19
-4 -5 1 2.16 0.24
4 -5 -1 2.18 0.24
4 -5 -1 2.53 0.18
-4 -5 1 1.84 0.21
4 -5 -1 2.23 0.23
4 -5 -1 2.07 0.2
4 -5 -1 2.08 0.21
-4 -5 1 2.34 0.24
-4 -5 1 2.34 0.28
4 -5 -1 2.15 0.27
-4 5 1 2.56 0.28
4 5 -1 2.47 0.27
4 5 -1 1.92 0.3
-4 5 1 2.15 0.25
-3 -5 1 23.17 1.09
3 -5 -1 22.85 1.08
-3 -5 1 23.45 1.17
-3 -5 1 21.81 1.03
-3 -5 1 23.14 1.09
3 -5 -1 23.17 1.15
3 -5 -1 22.72 1.09
3 -5 -1 22.16 1.04
3 -5 -1 22.47 1.12
3 5 -1 21.9 1.1
-3 5 1 25.36 1.09
-3 5 1 21.9 1.05
-2 -5 1 25.62 1.3
-2 -5 1 27.98 1.29
2 -5 -1 30.22 1.31
-2 -5 1 28.28 1.33
2 -5 -1 27.77 1.35
2 -5 -1 30.9 1.39
2 -5 -1 27.01 1.4
-2 -5 1 30.92 1.33
2 -5 -1 29.16 1.28
2 -5 -1 27.4 1.32
2 -5 -1 30.15 1.32
2 5 -1 28.5 1.35
-2 5 1 27.63 1.29
-2 5 1 27.65 1.36
-2 5 1 28.6 1.32
2 5 -1 26.29 1.38
1 -5 -1 1.54 0.23
-1 -5 1 1.5 0.21
1 -5 -1 1.26 0.18
1 -5 -1 1.22 0.18
-1 -5 1 1.32 0.26
1 -5 -1 1.22 0.23
-1 -5 1 1.19 0.18
1 -5 -1 1.14 0.16
1 -5 -1 1.26 0.24
-1 -5 1 1.38 0.17
-1 -5 1 1.16 0.17
1 -5 -1 1.29 0.14
1 5 -1 1.33 0.2
-1 5 1 1.25 0.16
1 5 -1 1.49 0.25
-1 5 1 1.2 0.2
-1 5 1 1.14 0.2
0 -5 -1 14.72 0.69
0 -5 1 12.43 0.7
0 -5 -1 14.08 0.74
0 -5 1 13.55 0.7
0 -5 -1 13.22 0.71
0 -5 -1 12.72 0.62
0 -5 -1 13.11 0.61
0 -5 1 13.4 0.65
0 -5 -1 13.86 0.64
0 -5 1 14.39 0.67
0 -5 -1 13.49 0.67
0 -5 1 12.78 0.76
0 5 -1 13.11 0.72
0 5 1 13.52 0.64
0 5 -1 13.52 0.7
0 5 1 13.43 0.68
0 5 1 13.66 0.7
0 5 -1 12.3 0.72
-1 -5 -1 6.55 0.39
1 -5 1 6.32 0.43
-1 -5 -1 6.68 0.38
-1 -5 -1 6.12 0.33
1 -5 1 6.45 0.4
-1 -5 -1 5.96 0.41
1 -5 1 7.15 0.44
1 -5 1 7.06 0.37
-1 -5 -1 6.19 0.44
1 -5 1 7.62 0.37
-1 5 -1 6.91 0.36
1 5 1 6.77 0.42
-1 5 -1 5.47 0.57
1 5 1 6.71 0.35
-1 5 -1 6.53 0.42
2 -5 1 14.59 0.8
2 -5 1 14.17 0.76
2 -5 1 14.49 0.8
2 -5 1 15.84 0.74
-2 -5 -1 14.5 0.79
2 -5 1 14.33 0.69
-2 -5 -1 15.29 0.74
-2 -5 -1 16.03 0.78
-2 -5 -1 15.21 0.74
2 -5 1 15.87 1.24
2 -5 1 14.69 0.69
2 5 1 14.98 0.82
2 5 1 15.71 0.78
2 5 1 15.19 0.72
-2 5 -1 14.12 0.78
-2 5 -1 15.84 0.72
-2 5 -1 15.33 0.75
-3 -5 -1 30.82 1.46
3 -5 1 30.77 1.42
3 -5 1 29.97 1.38
3 -5 1 31.33 1.4
3 -5 1 29.31 1.45
3 -5 1 31.56 1.5
-3 -5 -1 30.16 1.41
-3 -5 -1 30.7 1.41
-3 5 -1 31.45 1.48
-3 5 -1 32.27 1.44
3 5 1 29.77 1.4
3 5 1 32.61 1.47
-3 5 -1 31.8 1.41
-4 -5 -1 2.55 0.3
4 -5 1 2.54 0.23
-4 -5 -1 2.3 0.28
-4 -5 -1 2.37 0.2
4 -5 1 2.88 0.24
-4 -5 -1 2.59 0.27
4 -5 1 2.08 0.2
4 -5 1 2.27 0.32
4 -5 1 2.57 0.22
-4 -5 -1 2.67 0.21
-4 -5 -1 2.62 0.27
4 -5 1 2.42 0.3
-4 -5 -1 2.21 0.22
4 5 1 2.54 0.28
4 5 1 2.6 0.23
4 5 1 2.33 0.33
-4 5 -1 2.53 0.27
4 5 1 2.58 0.31
-4 5 -1 2.54 0.2
4 5 1 2.41 0.2
-4 5 -1 2.45 0.29
5 -5 1 18.29 1
5 -5 1 19.89 0.91
5 -5 1 19.5 0.91
-5 -5 -1 19.5 0.95
-5 -5 -1 19.77 1
5 -5 1 18.85 0.92
-5 -5 -1 19.55 0.91
-5 -5 -1 19.48 0.95
5 -5 1 19.37 0.91
-5 -5 -1 20.38 0.9
5 5 1 19.3 1.05
5 5 1 19.27 0.93
5 5 1 19.22 0.9
-5 5 -1 19.04 0.94
5 5 1 18.09 0.96
5 5 1 19.56 1
6 -5 1 0.14 0.23
6 -5 1 0.22 0.09
-6 -5 -1 0.11 0.09
-6 -5 -1 0.13 0.14
6 -5 1 0.12 0.09
-6 -5 -1 0.2 0.15
6 5 1 0.07 0.14
-6 5 -1 0.04 0.13
6 5 1 0.05 0.15
6 5 1 0.15 0.12
7 -5 1 3.84 0.19
-7 -5 -1 3.7 0.2
7 -5 1 3.23 0.19
-7 -5 -1 3.8 0.23
-7 -5 -1 3.04 0.24
7 5 1 2.98 0.24
-7 5 -1 3.51 0.22
7 5 1 2.66 0.2
7 5 1 3.06 0.26
6 -6 -1 2.29 0.17
-6 6 1 2.65 0.25
5 -6 -1 0.56 0.12
-5 -6 1 0.55 0.16
5 -6 -1 0.38 0.1
-5 -6 1 0.51 0.13
-5 -6 1 0.41 0.18
-5 6 1 0.3 0.12
5 6 -1 0.4 0.21
-5 6 1 0.18 0.31
5 6 -1 0.53 0.19
-4 -6 1 4.58 0.32
4 -6 -1 5.31 0.51
4 -6 -1 4.98 0.54
-4 -6 1 3.92 0.36
4 -6 -1 4.62 0.28
4 -6 -1 4.41 0.27
-4 -6 1 4.8 0.28
-4 -6 1 5.01 0.35
-4 6 1 4.36 0.29
4 6 -1 4.68 0.37
4 6 -1 4.75 0.41
-4 6 1 4.67 0.33
-3 -6 1 1.43 0.22
-3 -6 1 1.84 0.18
3 -6 -1 1.09 0.39
3 -6 -1 1.59 0.2
3 -6 -1 1.42 0.17
3 -6 -1 1.6 0.41
-3 -6 1 1.59 0.2
-3 -6 1 1.29 0.25
3 -6 -1 1.69 0.24
3 -6 -1 1.35 0.17
3 -6 -1 1.45 0.17
-3 -6 1 1.31 0.29
3 6 -1 1.36 0.27
-3 6 1 1.46 0.21
3 6 -1 1.62 0.29
-3 6 1 1.5 0.23
3 6 -1 1.34 0.23
2 -6 -1 8.17 0.7
-2 -6 1 8.42 0.48
2 -6 -1 8.92 0.78
2 -6 -1 8.85 0.52
2 -6 -1 7.7 0.49
2 -6 -1 8.4 0.46
-2 -6 1 7.94 0.44
2 -6 -1 8.45 0.43
-2 -6 1 7.9 0.55
-2 -6 1 8.68 0.48
2 -6 -1 8.9 0.47
2 -6 -1 8.23 0.42
2 -6 -1 8.64 0.45
2 -6 -1 9.91 0.77
2 6 -1 9.28 0.61
2 6 -1 8.44 0.55
2 6 -1 8.13 0.5
-2 6 1 8.09 0.43
-2 6 1 8.59 0.51
2 6 -1 9.21 0.46
-1 -6 1 17.29 0.81
1 -6 -1 15.59 0.88
1 -6 -1 16.84 0.77
1 -6 -1 15.4 0.77
1 -6 -1 17.55 1.15
1 -6 -1 16.4 0.8
-1 -6 1 17.31 0.83
1 -6 -1 17.12 0.86
-1 -6 1 16.16 0.9
-1 -6 1 16.01 0.77
1 -6 -1 16.05 0.8
-1 -6 1 15.77 0.76
-1 -6 1 16.04 1.11
1 6 -1 16.42 0.78
1 6 -1 15.66 0.83
1 6 -1 17.25 0.88
-1 6 1 15.62 0.86
1 6 -1 17.5 0.95
-1 6 1 15.9 0.84
-1 6 1 16.03 0.91
-1 6 1 15.54 0.77
0 -6 1 3.02 0.55
0 -6 1 2.87 0.28
0 -6 -1 3.24 0.51
0 -6 1 2.94 0.27
0 -6 -1 2.54 0.23
0 -6 -1 3.08 0.34
0 -6 -1 3.17 0.26
0 -6 -1 3.21 0.26
0 -6 1 3.29 0.22
0 -6 1 3.16 0.27
0 -6 1 3.49 0.36
0 -6 -1 3.3 0.25
0 -6 -1 2.89 0.29
0 6 -1 3.28 0.33
0 6 1 2.84 0.28
0 6 -1 2.74 0.29
0 6 1 3.19 0.36
0 6 -1 2.89 0.35
0 6 1 3.19 0.33
0 6 -1 3.26 0.23
0 6 1 2.93 0.22
1 -6 1 4.19 0.59
1 -6 1 4.87 0.31
-1 -6 -1 4.34 0.57
1 -6 1 4.88 0.36
1 -6 1 4.69 0.32
1 -6 1 5.08 0.3
-1 -6 -1 4.59 0.41
-1 -6 -1 5.1 0.31
-1 -6 -1 4.94 0.31
1 -6 1 4.98 0.42
-1 -6 -1 4.92 0.33
-1 -6 -1 5.18 0.36
-1 6 -1 5.51 0.45
-1 6 -1 5.05 0.37
1 6 1 4.92 0.4
1 6 1 5.42 0.36
-1 6 -1 4.83 0.4
-1 6 -1 4.53 0.29
1 6 1 5.07 0.29
1 6 1 5.03 0.44
-2 -6 -1 5.27 0.36
-2 -6 -1 5.1 0.3
2 -6 1 4.69 0.3
-2 -6 -1 5.08 0.43
-2 -6 -1 5.14 0.35
2 -6 1 5.83 0.46
2 -6 1 5.09 0.61
2 -6 1 5.36 0.38
2 -6 1 4.7 0.32
2 -6 1 4.8 0.39
-2 6 -1 4.96 0.3
-2 6 -1 5.2 0.4
2 6 1 4.57 0.35
2 6 1 5.14 0.4
2 6 1 5.28 0.44
-2 6 -1 4.71 0.37
2 6 1 5.51 0.31
-3 -6 -1 3.9 0.24
-3 -6 -1 4.07 0.28
3 -6 1 3.78 0.25
3 -6 1 3.45 0.33
3 -6 1 3.44 0.23
3 -6 1 3.29 0.52
3 -6 1 3.41 0.34
-3 -6 -1 3.54 0.29
-3 -6 -1 3.87 0.39
3 -6 1 3.7 0.26
-3 -6 -1 3.85 0.3
-3 6 -1 3.1 0.24
3 6 1 3.04 0.29
3 6 1 3.58 0.34
-3 6 -1 3.82 0.31
3 6 1 3.42 0.24
3 6 1 4.17 0.39
4 -6 1 0.52 0.12
-4 -6 -1 0.22 0.13
-4 -6 -1 0.5 0.18
4 -6 1 0.53 0.19
4 -6 1 0.6 0.14
-4 -6 -1 0.44 0.11
-4 -6 -1 0.27 0.18
-4 6 -1 0.69 0.21
4 6 1 0.27 0.16
4 6 1 0.6 0.23
-5 -6 -1 6.92 0.45
-5 -6 -1 7.33 0.4
-5 -6 -1 6.8 0.36
-5 6 -1 7.22 0.4
5 6 1 7.44 0.46
5 6 1 7.17 0.42
-3 -7 1 0.12 0.12
-3 -7 1 0.42 0.11
3 -7 -1 0.35 0.24
-3 -7 1 0.33 0.13
3 7 -1 0.18 0.1
-3 7 1 0.45 0.15
3 7 -1 0.36 0.17
-2 -7 1 2.78 0.3
2 -7 -1 2.26 0.18
-2 -7 1 2.76 0.21
-2 -7 1 2.81 0.18
2 -7 -1 2.62 0.42
2 7 -1 3.11 0.29
-2 7 1 2.99 0.23
2 7 -1 2.65 0.26
-2 7 1 2.66 0.22
1 -7 -1 -0.03 0.24
-1 -7 1 0 0.07
-1 -7 1 0.07 0.24
-1 -7 1 0.14 0.1
1 -7 -1 0.03 0.09
-1 -7 1 -0.05 0.16
1 -7 -1 0.01 0.14
1 7 -1 0.02 0.14
1 7 -1 0.02 0.13
0 -7 1 0.91 0.15
0 -7 1 0.65 0.32
0 -7 1 0.9 0.23
0 -7 -1 1 0.15
0 -7 -1 0.73 0.21
0 -7 -1 1.12 0.37
0 7 -1 0.86 0.21
0 7 -1 0.8 0.2
1 -7 1 0.66 0.35
-1 -7 -1 1.01 0.24
-1 -7 -1 0.99 0.16
1 -7 1 0.96 0.15
1 -7 1 0.58 0.21
1 7 1 1.01 0.19
-1 7 -1 0.76 0.2
1 7 1 0.93 0.19
2 -7 1 5.04 0.26
-2 -7 -1 4.39 0.27
2 -7 1 3.57 0.47
-2 -7 -1 4.72 0.36
2 -7 1 3.51 0.31
2 7 1 4.66 0.33
2 7 1 4.94 0.31
-3 -7 -1 1.1 0.21
3 -7 1 1.02 0.27
3 7 1 1.29 0.18
3 7 1 1.57 0.18
-3 7 -1 2.03 0.19
-9 0 2 2.02 0.27
-9 0 2 1.67 0.17
9 0 -2 1.48 0.2
9 0 -2 1.67 0.22
8 0 -2 3.27 0.31
-8 0 2 3.14 0.21
-8 0 2 3.11 0.3
8 0 -2 3.02 0.28
-8 0 2 2.93 0.24
8 0 -2 2.78 0.21
8 0 -2 3.2 0.34
-8 0 2 3.36 0.39
-7 0 2 0.24 0.19
-7 0 2 0.17 0.14
-7 0 2 0.06 0.1
7 0 -2 -0.09 0.14
-7 0 2 0.09 0.23
6 0 -2 11.31 0.63
-6 0 2 11.65 0.64
-6 0 2 12.44 0.6
-6 0 2 12.03 0.7
-6 0 2 11.59 0.69
-6 0 2 12.1 0.64
-6 0 2 12.85 0.61
6 0 -2 12.63 0.66
5 0 -2 26.95 1.16
5 0 -2 24.91 1.15
5 0 -2 25.27 1.19
-5 0 2 22.61 1.13
-5 0 2 25.1 1.22
-5 0 2 24.64 1.18
5 0 -2 26.51 1.17
-5 0 2 22.57 1.19
-5 0 2 25.36 1.22
-5 0 2 25.99 1.15
5 0 -2 24.53 1.18
-4 0 2 7.59 0.41
-4 0 2 8.67 0.47
-4 0 2 7.85 0.44
4 0 -2 8.38 0.44
-4 0 2 7.96 0.45
-4 0 2 8.25 0.46
4 0 -2 7.98 0.41
4 0 -2 7.9 0.45
4 0 -2 8.63 0.44
4 0 -2 9.14 0.42
3 0 -2 6.81 0.31
3 0 -2 5.95 0.34
3 0 -2 6.29 0.33
3 0 -2 6.67 0.27
3 0 -2 6.01 0.33
-3 0 2 5.95 0.31
-3 0 2 6.17 0.34
3 0 -2 6.43 0.31
-3 0 2 6.21 0.35
-3 0 2 6.1 0.34
-2 0 2 443.97 19.75
2 0 -2 456.3 19.74
-2 0 2 453.11 19.72
2 0 -2 478.89 19.72
-2 0 2 464.55 19.76
2 0 -2 477.53 19.75
2 0 -2 457.29 19.75
2 0 -2 446.37 19.74
2 0 -2 456.18 19.79
-2 0 2 437.59 19.73
-2 0 2 441.38 19.75
-2 0 2 433.74 19.75
2 0 -2 408.14 19.75
-2 0 2 442.42 19.75
2 0 -2 437.17 19.75
-2 0 2 491.27 19.75
-2 0 2 474.2 19.74
1 0 -2 111.82 4.82
1 0 -2 110.49 4.83
-1 0 2 111.09 4.82
1 0 -2 114.31 4.82
-1 0 2 103.02 4.82
-1 0 2 112.97 4.82
-1 0 2 112.03 4.82
-1 0 2 109.13 4.81
1 0 -2 115.8 4.82
1 0 -2 109.17 4.82
1 0 -2 110 4.81
-1 0 2 107.12 4.82
1 0 -2 111.85 4.81
1 0 -2 108.69 4.82
-1 0 2 120.46 4.81
-1 0 2 105.92 4.81
-1 0 2 104 4.82
0 0 -2 80.48 3.28
0 0 2 69.91 3.28
0 0 2 72.65 3.28
0 0 -2 78.75 3.28
0 0 -2 72.58 3.28
0 0 2 73.05 3.28
0 0 2 74.91 3.28
0 0 -2 76.09 3.28
0 0 -2 77.88 3.28
1 0 2 156.92 6.83
-1 0 -2 141.08 6.82
1 0 2 156.21 6.83
1 0 2 162.09 6.83
-1 0 -2 151.4 6.83
1 0 2 154.18 6.82
1 0 2 156.57 6.84
1 0 2 153.22 6.83
1 0 2 168.75 6.81
-1 0 -2 169.62 6.83
-1 0 -2 154.41 6.83
1 0 2 150.77 6.82
-1 0 -2 156.71 6.83
-2 0 -2 94.74 3.94
2 0 2 90.19 3.92
2 0 2 88.72 3.92
-2 0 -2 84.64 3.92
2 0 2 95.67 3.93
-2 0 -2 87.85 4
2 0 2 98.85 3.93
-2 0 -2 81.33 3.91
-2 0 -2 90 3.92
2 0 2 92.83 3.92
2 0 2 91.42 3.89
2 0 2 89.04 3.91
-2 0 -2 88.05 3.95
2 0 2 84.95 3.91
2 0 2 87.93 3.91
-2 0 -2 86.75 3.92
2 0 2 85.53 3.93
2 0 2 91.79 3.94
-2 0 -2 84.82 3.93
-3 0 -2 42.6 1.84
3 0 2 41.77 1.81
-3 0 -2 38.43 1.82
3 0 2 40.93 1.85
3 0 2 40.56 1.82
3 0 2 42.78 1.82
3 0 2 41.68 1.81
3 0 2 38.19 1.82
3 0 2 40.6 1.77
-3 0 -2 38.93 1.82
4 0 2 44.75 2.17
4 0 2 52.19 2.17
-4 0 -2 46.69 2.21
4 0 2 55.48 2.18
4 0 2 45.98 2.15
4 0 2 47.48 2.19
-4 0 -2 44.19 2.17
4 0 2 49.17 2.22
-4 0 -2 50.83 2.23
5 0 2 118.84 5.12
5 0 2 106.15 5.11
-5 0 -2 110.15 5.11
-5 0 -2 123.12 5.14
-5 0 -2 116.36 5.08
-5 0 -2 113.69 5.17
5 0 2 115.16 5.09
5 0 2 117.58 5.07
-5 0 -2 118.07 5.18
5 0 2 118.47 5.12
-6 0 -2 6.39 0.44
6 0 2 6.12 0.38
-6 0 -2 6.05 0.34
6 0 2 5.78 0.31
-6 0 -2 6.09 0.37
6 0 2 6.19 0.35
-6 0 -2 5.46 0.43
-6 0 -2 5.55 0.39
-6 0 -2 5.63 0.37
7 0 2 9.32 0.57
-7 0 -2 8.42 0.51
7 0 2 7.66 0.52
-7 0 -2 7.88 0.46
-7 0 -2 5.9 0.46
-7 0 -2 8.24 0.47
7 0 2 7.7 0.48
-7 0 -2 8.21 0.49
-7 0 -2 7.13 0.54
7 0 2 8.47 0.4
-7 0 -2 7.85 0.56
-7 0 -2 6.02 0.7
7 0 2 8.89 0.44
-8 0 -2 5.35 0.4
-8 0 -2 5.5 0.43
8 0 2 5.31 0.39
8 0 2 5.23 0.52
8 0 2 4.69 0.36
8 0 2 5.52 0.29
-8 0 -2 5.36 0.32
-8 0 -2 5.99 0.34
9 0 2 0.49 0.15
-9 0 -2 0.53 0.12
9 0 2 0.41 0.12
-9 0 -2 0.5 0.21
9 -1 -2 0.16 0.12
-9 -1 2 0.24 0.09
-9 -1 2 0.2 0.17
9 -1 -2 0.19 0.12
-9 -1 2 0.3 0.1
9 1 -2 0.19 0.12
-9 1 2 0.16 0.17
-9 1 2 0.31 0.09
-9 1 2 0.35 0.2
9 1 -2 0.21 0.14
8 -1 -2 1.4 0.14
8 -1 -2 1.4 0.23
8 -1 -2 1.22 0.25
-8 -1 2 1.32 0.18
-8 -1 2 1.36 0.14
-8 -1 2 0.96 0.22
-8 -1 2 1.4 0.31
8 -1 -2 1.48 0.23
-8 1 2 1.6 0.18
8 1 -2 1.6 0.22
-8 1 2 1.47 0.31
8 1 -2 1.47 0.26
-8 1 2 1.4 0.15
-8 1 2 1.4 0.36
-8 1 2 1.39 0.24
8 1 -2 1.36 0.24
7 -1 -2 7.74 0.36
-7 -1 2 7.53 0.37
-7 -1 2 7.08 0.44
7 -1 -2 5.53 0.51
-7 -1 2 6.6 0.52
-7 -1 2 7.05 0.53
7 -1 -2 7.87 0.45
-7 -1 2 5.98 0.44
-7 1 2 7.53 0.47
-7 1 2 6.51 0.41
7 1 -2 7.13 0.54
-7 1 2 4.47 0.69
7 1 -2 8.15 0.45
-7 1 2 7.93 0.54
-7 1 2 6.85 0.4
-6 -1 2 1.76 0.23
-6 -1 2 2.02 0.27
-6 -1 2 1.52 0.27
6 -1 -2 1.83 0.23
6 -1 -2 1.58 0.22
-6 -1 2 1.57 0.17
-6 -1 2 2.11 0.19
-6 -1 2 2.02 0.17
-6 1 2 2.1 0.33
6 1 -2 1.64 0.21
-6 1 2 2.23 0.2
6 1 -2 1.84 0.2
-6 1 2 1.91 0.2
-6 1 2 2.04 0.23
-6 1 2 1.69 0.27
-6 1 2 1.9 0.24
-6 1 2 2.39 0.26
-6 1 2 2.6 0.31
5 -1 -2 0.7 0.17
-5 -1 2 0.67 0.12
-5 -1 2 0.63 0.21
-5 -1 2 0.73 0.14
-5 -1 2 0.97 0.15
5 -1 -2 0.53 0.16
5 -1 -2 0.84 0.12
-5 -1 2 0.9 0.21
5 -1 -2 0.81 0.14
-5 -1 2 0.47 0.16
-5 -1 2 0.78 0.13
5 -1 -2 0.36 0.14
-5 -1 2 0.77 0.12
-5 -1 2 0.67 0.2
-5 -1 2 0.67 0.12
-5 1 2 0.67 0.24
-5 1 2 0.73 0.17
5 1 -2 0.71 0.13
-5 1 2 0.74 0.2
-5 1 2 0.78 0.12
-5 1 2 0.95 0.14
5 1 -2 0.83 0.15
-5 1 2 0.75 0.19
5 1 -2 0.51 0.16
5 1 -2 0.92 0.15
5 1 -2 0.81 0.13
-4 -1 2 34.21 1.55
4 -1 -2 32.63 1.52
-4 -1 2 32.7 1.53
4 -1 -2 32.19 1.56
4 -1 -2 33.99 1.54
4 -1 -2 34.28 1.52
-4 -1 2 31.49 1.52
-4 -1 2 35.82 1.53
4 -1 -2 31.48 1.54
-4 -1 2 32.29 1.49
-4 -1 2 34.14 1.57
-4 -1 2 34.34 1.51
4 1 -2 31.18 1.53
4 1 -2 32.85 1.54
4 1 -2 33.37 1.51
-4 1 2 36.42 1.56
4 1 -2 34.46 1.51
-4 1 2 35.19 1.58
4 1 -2 33.58 1.53
-4 1 2 32.58 1.51
-4 1 2 35.51 1.52
-3 -1 2 4.31 0.28
3 -1 -2 4.17 0.24
3 -1 -2 4.55 0.26
-3 -1 2 4.95 0.26
3 -1 -2 4.58 0.24
3 -1 -2 4.33 0.28
-3 -1 2 4.57 0.27
3 -1 -2 4.57 0.27
-3 -1 2 4.3 0.23
3 -1 -2 4.18 0.2
-3 -1 2 4.67 0.23
-3 -1 2 4.24 0.25
-3 1 2 4.52 0.24
3 1 -2 4.66 0.25
-3 1 2 4.39 0.29
3 1 -2 4.83 0.24
3 1 -2 4.41 0.2
-3 1 2 4.27 0.29
3 1 -2 4.22 0.26
-3 1 2 4.42 0.23
3 1 -2 4.57 0.23
3 1 -2 4.25 0.25
-3 1 2 3.86 0.27
2 -1 -2 177.41 7.46
2 -1 -2 164.06 7.49
-2 -1 2 165.22 7.49
-2 -1 2 164.19 7.48
2 -1 -2 168.72 7.51
2 -1 -2 172.89 7.49
-2 -1 2 180.9 7.49
-2 -1 2 178.75 7.49
-2 -1 2 178.12 7.49
-2 -1 2 172.93 7.46
-2 -1 2 178.51 7.48
2 -1 -2 178.31 7.5
2 -1 -2 162.66 7.49
-2 1 2 181.25 7.51
-2 1 2 164.32 7.5
-2 1 2 163.66 7.48
2 1 -2 174 7.48
2 1 -2 167 7.49
2 1 -2 171.58 7.48
2 1 -2 174.32 7.46
-2 1 2 160.44 7.49
2 1 -2 175.1 7.5
2 1 -2 175.1 7.49
-2 1 2 173.67 7.49
-2 1 2 158.19 7.46
-2 1 2 173.24 7.49
2 1 -2 170.17 7.47
-1 -1 2 79.54 3.5
1 -1 -2 81.69 3.52
-1 -1 2 80.67 3.51
1 -1 -2 76.97 3.52
-1 -1 2 82.16 3.5
-1 -1 2 78.71 3.5
1 -1 -2 80.98 3.49
1 -1 -2 79.06 3.53
1 -1 -2 75.65 3.52
-1 -1 2 79.72 3.51
1 -1 -2 81.22 3.53
-1 -1 2 78.86 3.5
1 -1 -2 79.36 3.49
-1 -1 2 81.37 3.51
-1 -1 2 80.93 3.51
1 -1 -2 86.17 3.53
1 -1 -2 81.8 3.59
-1 -1 2 83.79 3.49
-1 1 2 74.72 3.52
1 1 -2 82.92 3.51
1 1 -2 84.16 3.53
1 1 -2 79.53 3.51
-1 1 2 80.4 3.49
-1 1 2 80.63 3.51
-1 1 2 79.65 3.53
-1 1 2 78.1 3.52
1 1 -2 80.48 3.51
1 1 -2 84.33 3.51
1 1 -2 77.22 3.5
1 1 -2 80.49 3.51
-1 1 2 83.48 3.53
-1 1 2 74.62 3.52
1 1 -2 78.83 3.52
-1 1 2 79.43 3.53
0 -1 -2 122.21 5.41
0 -1 -2 127.33 5.43
0 -1 -2 134.42 5.5
0 -1 2 121.49 5.42
0 -1 2 125.01 5.43
0 -1 2 122.42 5.42
0 -1 2 121.68 5.42
0 -1 -2 119.27 5.42
0 -1 2 123.43 5.43
0 -1 -2 120.86 5.43
0 -1 -2 129.71 5.43
0 -1 2 129.22 5.43
0 -1 -2 127.1 5.44
0 -1 2 124.74 5.43
0 -1 -2 124.08 5.44
0 -1 -2 125.49 5.44
0 1 -2 129.28 5.43
0 1 2 115.08 5.44
0 1 2 119.01 5.43
0 1 2 118.41 5.44
0 1 -2 119.89 5.42
0 1 2 132.86 5.45
0 1 -2 119.01 5.43
0 1 2 122.46 5.43
0 1 2 128.24 5.44
0 1 2 128.55 5.5
0 1 -2 126.28 5.43
0 1 -2 118.02 5.45
0 1 2 125.67 5.44
0 1 -2 129.12 5.43
0 1 -2 121.54 5.42
1 -1 2 295.51 12.09
1 -1 2 270.22 12.08
-1 -1 -2 263.53 12.09
-1 -1 -2 271.41 12.17
1 -1 2 297.66 12.09
-1 -1 -2 276.15 12.08
-1 -1 -2 262.25 12.09
1 -1 2 262.77 12.09
-1 -1 -2 275.74 12.1
-1 -1 -2 249.98 12.08
-1 -1 -2 261.05 12.09
1 -1 2 283.17 12.06
1 -1 2 271.99 12.1
-1 -1 -2 273.37 12.1
-1 -1 -2 313.91 12.1
-1 1 -2 274.32 12.09
1 1 2 284.85 12.1
-1 1 -2 284.6 12.15
1 1 2 284.95 12.1
-1 1 -2 263.12 12.08
1 1 2 265.57 12.1
1 1 2 273.9 12.1
1 1 2 290.45 12.08
1 1 2 271.89 12.09
-1 1 -2 288.73 12.1
-1 1 -2 292.38 12.08
1 1 2 273.2 12.09
-1 1 -2 270.5 12.09
-1 1 -2 298.31 12.09
1 1 2 265.11 12.09
1 1 2 276.66 12.1
1 1 2 276.73 12.08
-2 -1 -2 20.58 0.92
2 -1 2 19.65 0.92
2 -1 2 22.74 0.89
-2 -1 -2 19.94 0.94
2 -1 2 20.42 0.92
2 -1 2 19.19 0.95
2 -1 2 19.67 0.92
2 -1 2 19.69 0.95
-2 -1 -2 21.06 0.93
-2 -1 -2 20.31 0.93
-2 -1 -2 19.3 0.96
2 -1 2 18.8 0.93
-2 -1 -2 22.43 0.92
-2 -1 -2 20.17 0.94
-2 1 -2 19.76 0.93
2 1 2 21.46 0.95
2 1 2 21.61 0.93
2 1 2 21.04 0.92
-2 1 -2 20.04 0.92
2 1 2 20.46 0.94
2 1 2 20 0.92
-2 1 -2 20.04 0.94
-2 1 -2 19.74 0.94
2 1 2 20.76 0.89
2 1 2 20.9 0.94
2 1 2 20.25 0.94
2 1 2 20.31 0.94
-2 1 -2 19.9 0.92
-2 1 -2 21.1 0.94
2 1 2 19.3 0.92
-2 1 -2 20.28 1.03
-3 -1 -2 120.86 5.07
-3 -1 -2 116.03 5.09
-3 -1 -2 115.3 5.05
3 -1 2 111.8 5.06
-3 -1 -2 109.81 5.08
3 -1 2 112.66 5.05
3 -1 2 119.32 5.05
3 -1 2 114.84 5.09
3 -1 2 115.65 5.01
-3 1 -2 116 5.06
3 1 2 105.43 5.01
3 1 2 123.07 5.09
3 1 2 125.43 5.06
3 1 2 116.42 5.04
-3 1 -2 115.64 5.06
3 1 2 113.95 5.08
3 1 2 110.74 5.07
3 1 2 111.77 5.05
3 1 2 114.61 5.07
-3 1 -2 110.19 5.07
-3 1 -2 114.12 5.08
4 -1 2 3.61 0.23
4 -1 2 3.14 0.22
-4 -1 -2 4.45 0.24
-4 -1 -2 3.52 0.29
-4 -1 -2 3.16 0.28
4 -1 2 3.4 0.23
-4 -1 -2 3.28 0.22
-4 -1 -2 3.72 0.22
4 -1 2 3.47 0.22
4 -1 2 3.49 0.29
4 1 2 3.47 0.22
-4 1 -2 3.64 0.25
-4 1 -2 3.24 0.27
4 1 2 3.7 0.26
4 1 2 3.3 0.21
4 1 2 3.32 0.23
4 1 2 4.16 0.24
5 -1 2 12.86 0.6
-5 -1 -2 12.24 0.64
-5 -1 -2 13.97 0.73
5 -1 2 12.49 0.66
-5 -1 -2 14.33 0.65
5 -1 2 13.05 0.63
-5 -1 -2 12.95 0.72
5 -1 2 12.28 0.66
5 1 2 12.8 0.63
5 1 2 12.76 0.61
-5 1 -2 12.28 0.61
-5 1 -2 12.81 0.66
5 1 2 13.02 0.66
-5 1 -2 13.85 0.67
5 1 2 13.74 0.69
5 1 2 13.49 0.67
5 1 2 13.63 0.66
-6 -1 -2 1.13 0.19
6 -1 2 1.13 0.23
6 -1 2 1.39 0.13
-6 -1 -2 1.09 0.21
-6 -1 -2 1.24 0.13
-6 -1 -2 1.45 0.24
-6 -1 -2 1.58 0.26
-6 -1 -2 1.17 0.21
6 -1 2 1.24 0.17
-6 1 -2 1.3 0.24
-6 1 -2 1.26 0.22
6 1 2 1.5 0.15
-6 1 -2 1.29 0.21
-6 1 -2 1.44 0.26
-6 1 -2 1.8 0.28
6 1 2 1.32 0.17
-6 1 -2 1.18 0.2
6 1 2 1.61 0.21
7 -1 2 8.81 0.52
-7 -1 -2 8.66 0.47
-7 -1 -2 8.42 0.45
7 -1 2 8.35 0.46
-7 -1 -2 8.36 0.57
7 -1 2 8.66 0.43
-7 -1 -2 7.63 0.46
-7 -1 -2 9.04 0.5
7 -1 2 8.38 0.5
-7 -1 -2 8.09 0.51
7 -1 2 8.79 0.54
-7 -1 -2 8.93 0.48
7 1 2 8.6 0.51
-7 1 -2 8.58 0.41
7 1 2 8.48 0.56
7 1 2 8.47 0.52
-7 1 -2 8.37 0.5
-7 1 -2 8.27 0.48
-7 1 -2 8.59 0.48
7 1 2 9.22 0.47
7 1 2 8.94 0.43
-7 1 -2 8.24 0.61
-7 1 -2 8.33 0.53
-8 -1 -2 9.84 0.49
-8 -1 -2 10.01 0.57
8 -1 2 9.99 0.53
8 -1 2 9.75 0.58
-8 -1 -2 8.63 0.47
-8 -1 -2 9.52 0.5
-8 -1 -2 10.05 0.59
-8 -1 -2 9.1 0.53
8 -1 2 10.16 0.51
8 -1 2 9.81 0.46
8 1 2 9.55 0.55
-8 1 -2 9.33 0.59
8 1 2 9.92 0.47
-8 1 -2 9.59 0.52
-8 1 -2 10.65 0.5
-8 1 -2 9.45 0.63
8 1 2 9.55 0.57
8 1 2 9.12 0.54
-8 1 -2 9.86 0.5
-8 1 -2 10.32 0.58
-9 -1 -2 6.91 0.33
9 -1 2 6.55 0.36
9 -1 2 6.52 0.36
-9 1 -2 7.35 0.35
-9 -2 2 0.44 0.1
-9 -2 2 0.47 0.1
-9 -2 2 0.44 0.11
-9 -2 2 0.2 0.13
9 2 -2 0.38 0.14
-9 2 2 0.36 0.09
-9 2 2 0.52 0.22
9 2 -2 0.43 0.16
-8 -2 2 5.23 0.31
8 -2 -2 5.43 0.35
8 -2 -2 5.1 0.28
8 -2 -2 5.33 0.39
8 -2 -2 5.66 0.36
-8 -2 2 4.74 0.39
8 2 -2 4.06 0.34
-8 2 2 5.01 0.4
8 2 -2 5.31 0.37
8 2 -2 5.66 0.42
-8 2 2 5.53 0.49
-7 -2 2 12.93 0.66
-7 -2 2 14.07 0.71
-7 -2 2 12.74 0.69
7 -2 -2 14.31 0.72
-7 -2 2 11.88 0.75
-7 -2 2 13.13 0.75
-7 -2 2 13.91 0.67
7 -2 -2 13.43 0.71
-7 -2 2 13.18 0.63
7 -2 -2 13.63 0.73
7 -2 -2 13.43 0.77
7 -2 -2 14.13 0.64
7 -2 -2 13.12 0.67
-7 2 2 13.89 0.85
-7 2 2 12.59 0.69
-7 2 2 14.28 0.77
-7 2 2 13.45 0.7
7 2 -2 13.7 0.73
-7 2 2 14.76 0.68
7 2 -2 12.88 0.7
6 -2 -2 6.6 0.34
-6 -2 2 6.83 0.4
-6 -2 2 6.14 0.36
-6 -2 2 6.15 0.43
-6 -2 2 6.02 0.33
-6 -2 2 6.12 0.47
6 -2 -2 6.52 0.42
-6 -2 2 5.72 0.39
-6 -2 2 6.57 0.36
-6 -2 2 6.87 0.4
6 -2 -2 6.38 0.37
-6 2 2 6.23 0.42
-6 2 2 6.1 0.45
-6 2 2 6.81 0.39
-6 2 2 5.98 0.43
6 2 -2 6.68 0.42
-6 2 2 7.04 0.82
-6 2 2 6.87 0.4
6 2 -2 6.81 0.4
-5 -2 2 4.67 0.38
-5 -2 2 4.78 0.32
5 -2 -2 4.95 0.33
5 -2 -2 4.8 0.27
-5 -2 2 4.97 0.35
-5 -2 2 5.31 0.32
5 -2 -2 5.21 0.32
-5 -2 2 4.53 0.29
-5 -2 2 4.8 0.32
5 -2 -2 5.22 0.36
-5 -2 2 4.84 0.27
-5 -2 2 5.13 0.29
-5 2 2 5.15 0.31
-5 2 2 4.81 0.33
-5 2 2 5.13 0.35
5 2 -2 5.47 0.33
-5 2 2 5.29 0.28
5 2 -2 5.46 0.35
-5 2 2 5.27 0.38
-5 2 2 5.01 0.35
-5 2 2 5.01 0.32
5 2 -2 4.74 0.31
-4 -2 2 3.86 0.23
-4 -2 2 3.76 0.25
4 -2 -2 3.88 0.25
-4 -2 2 3.89 0.26
-4 -2 2 3.77 0.23
-4 -2 2 3.67 0.21
-4 -2 2 4.13 0.28
-4 -2 2 3.85 0.3
-4 -2 2 3.8 0.22
4 -2 -2 4.11 0.28
4 -2 -2 4.07 0.25
-4 2 2 3.32 0.25
-4 2 2 3.69 0.28
-4 2 2 3.99 0.25
-4 2 2 3.49 0.22
-4 2 2 3.21 0.29
4 2 -2 3.87 0.24
4 2 -2 3.77 0.26
4 2 -2 4.1 0.27
4 2 -2 3.55 0.23
-3 -2 2 105.33 4.49
-3 -2 2 99.05 4.48
3 -2 -2 98.99 4.51
3 -2 -2 105.06 4.49
-3 -2 2 97.98 4.47
-3 -2 2 105.38 4.53
3 -2 -2 96.07 4.5
-3 -2 2 96.44 4.47
-3 -2 2 98.45 4.48
-3 -2 2 103.34 4.5
3 -2 -2 106.78 4.49
3 -2 -2 94.63 4.52
-3 -2 2 101.23 4.49
-3 2 2 96.56 4.47
-3 2 2 99.47 4.47
3 2 -2 102.6 4.5
3 2 -2 107.19 4.5
-3 2 2 107.11 4.51
-3 2 2 98.13 4.53
3 2 -2 103.08 4.48
3 2 -2 110.33 4.49
3 2 -2 108.26 4.49
-2 -2 2 54.86 2.52
-2 -2 2 55.88 2.53
2 -2 -2 56.15 2.53
-2 -2 2 54.81 2.53
2 -2 -2 57.09 2.56
-2 -2 2 63.57 2.52
2 -2 -2 56.13 2.54
2 -2 -2 56.61 2.53
-2 -2 2 57.99 2.53
2 -2 -2 56.25 2.54
-2 -2 2 53.61 2.55
-2 2 2 52.59 2.54
-2 2 2 58.49 2.54
2 2 -2 61.63 2.53
2 2 -2 58.73 2.52
2 2 -2 56.81 2.53
-2 2 2 59.69 2.51
2 2 -2 61.49 2.53
2 2 -2 57.95 2.52
2 2 -2 58.13 2.56
-2 2 2 54.6 2.54
-2 2 2 56.39 2.56
-2 2 2 53.75 2.56
-1 -2 2 56.02 2.51
-1 -2 2 53.71 2.5
1 -2 -2 55.15 2.51
-1 -2 2 58.58 2.5
1 -2 -2 56.8 2.51
1 -2 -2 58.74 2.51
-1 -2 2 55.91 2.49
1 -2 -2 56.68 2.79
-1 -2 2 52.54 2.5
1 -2 -2 58.3 2.53
1 -2 -2 55.4 2.53
1 -2 -2 57.97 2.51
1 -2 -2 55.1 2.54
-1 -2 2 55.37 2.51
-1 2 2 59.5 2.52
1 2 -2 58.02 2.53
-1 2 2 57.19 2.49
1 2 -2 57.25 2.5
-1 2 2 54.6 2.47
1 2 -2 55.42 2.5
1 2 -2 55.18 2.53
-1 2 2 58.11 2.53
-1 2 2 57.4 2.53
-1 2 2 58.19 2.52
1 2 -2 56.9 2.51
-1 2 2 59.23 2.52
1 2 -2 58.69 2.5
0 -2 -2 38.96 1.68
0 -2 2 37.09 1.66
0 -2 -2 37.9 1.68
0 -2 -2 38.31 1.69
0 -2 -2 37.94 1.68
0 -2 2 37.12 1.69
0 -2 2 37.66 1.67
0 -2 -2 35.99 1.69
0 -2 -2 37.59 1.83
0 -2 2 39.89 1.67
0 -2 -2 38.97 1.64
0 -2 -2 36.89 1.66
0 -2 -2 35.76 1.67
0 -2 -2 35.43 1.69
0 2 -2 38.9 1.67
0 2 -2 37.24 1.67
0 2 2 37.92 1.68
0 2 2 39.56 1.7
0 2 -2 37.72 1.7
0 2 2 39.64 1.7
0 2 2 36.65 1.68
0 2 2 37.66 1.68
0 2 -2 37.96 1.67
0 2 -2 37.49 1.68
0 2 2 37.63 1.7
0 2 2 35.1 1.69
0 2 2 36.9 1.7
0 2 2 37.04 1.68
-1 -2 -2 188.41 8.11
-1 -2 -2 168.38 8.1
-1 -2 -2 186.92 8.1
1 -2 2 176.76 8.12
-1 -2 -2 182.76 8.12
1 -2 2 203.39 8.11
1 -2 2 188.62 8.1
-1 -2 -2 174.37 8.1
-1 -2 -2 179.55 8.11
1 -2 2 197.13 8.09
1 -2 2 180.81 8.13
-1 2 -2 201.01 8.11
1 2 2 191.56 8.42
-1 2 -2 185.87 8.12
1 2 2 178.85 8.13
-1 2 -2 179.39 8.11
1 2 2 180.77 8.11
-1 2 -2 187.09 8.1
1 2 2 181.24 8.11
-1 2 -2 192.56 8.11
-1 2 -2 179.61 8.22
1 2 2 190.11 8.11
1 2 2 188.06 8.13
1 2 2 187.48 8.12
1 2 2 179.91 8.11
-2 -2 -2 11.36 0.58
2 -2 2 12.29 0.63
-2 -2 -2 11.42 0.61
2 -2 2 12.28 0.55
2 -2 2 11.16 0.59
-2 -2 -2 11.69 0.56
2 -2 2 11.45 0.62
2 -2 2 11.76 0.58
2 -2 2 12.24 0.58
-2 2 -2 11.01 0.58
2 2 2 11.69 0.6
2 2 2 12.27 0.57
2 2 2 11.24 0.6
-2 2 -2 11.86 0.59
-2 2 -2 12.49 0.57
-2 2 -2 11.87 0.57
2 2 2 12.63 0.57
2 2 2 11.61 0.59
2 2 2 12.84 0.59
-2 2 -2 11.04 0.58
-3 -2 -2 53.86 2.48
3 -2 2 55.71 2.4
-3 -2 -2 52.04 2.4
-3 -2 -2 56.95 2.43
3 -2 2 56.95 2.45
-3 -2 -2 53.74 2.46
3 -2 2 52.29 2.47
-3 2 -2 52.81 2.45
3 2 2 57.13 2.46
-3 2 -2 52.54 2.42
3 2 2 53.47 2.45
-3 2 -2 53.31 2.44
3 2 2 52.33 2.46
-3 2 -2 55.64 2.47
3 2 2 54.25 2.44
-3 2 -2 56.36 2.44
3 2 2 57.1 2.44
-4 -2 -2 16.63 0.82
-4 -2 -2 16.1 0.76
4 -2 2 16.21 0.74
-4 -2 -2 16.65 0.83
-4 -2 -2 15.05 0.76
-4 2 -2 15.61 0.77
4 2 2 15.76 0.78
-4 2 -2 15.78 0.78
4 2 2 15.64 0.78
-4 2 -2 14.13 0.74
4 2 2 16.72 0.8
-5 -2 -2 13.61 0.74
-5 -2 -2 13.43 0.67
-5 -2 -2 13.3 0.67
-5 -2 -2 14.57 0.69
-5 -2 -2 13.45 0.64
5 -2 2 13.75 0.65
5 -2 2 14.47 0.62
-5 -2 -2 12.91 0.62
-5 -2 -2 13.98 0.66
-5 -2 -2 13.46 0.74
5 2 2 13.55 0.72
-5 2 -2 12.12 0.69
-5 2 -2 13.5 0.69
5 2 2 12.2 0.68
-5 2 -2 13.44 0.63
5 2 2 12.52 0.62
5 2 2 13.08 0.69
-6 -2 -2 8.59 0.58
-6 -2 -2 9.44 0.61
-6 -2 -2 9.47 0.53
6 -2 2 9.36 0.48
-6 -2 -2 8.99 0.53
6 -2 2 9.63 0.45
-6 -2 -2 9.93 0.52
-6 -2 -2 9.43 0.47
-6 -2 -2 9.42 0.51
6 2 2 10.28 0.55
-6 2 -2 10.29 0.58
-6 2 -2 9.76 0.52
-6 2 -2 9.87 0.54
-6 2 -2 9.37 0.55
6 2 2 8.98 0.46
6 2 2 7.18 0.5
7 -2 2 30.51 1.43
7 -2 2 29.95 1.46
7 -2 2 34.13 1.51
-7 -2 -2 33.13 1.52
-7 -2 -2 31.51 1.46
-7 -2 -2 33.13 1.56
-7 -2 -2 32.03 1.45
7 -2 2 30.68 1.47
-7 -2 -2 31.56 1.55
-7 -2 -2 31.07 1.47
-7 -2 -2 31.26 1.51
-7 -2 -2 32.42 1.45
7 2 2 33.03 1.58
-7 2 -2 32.84 1.52
7 2 2 32.88 1.52
-7 2 -2 33.9 1.63
7 2 2 31.49 1.44
-7 2 -2 33.6 1.55
-7 2 -2 31.67 1.48
7 2 2 29.42 1.5
-7 2 -2 30.83 1.43
-8 -2 -2 2.21 0.26
-8 -2 -2 1.89 0.18
-8 -2 -2 1.92 0.16
-8 -2 -2 2.41 0.3
8 -2 2 1.95 0.32
8 -2 2 1.98 0.2
8 -2 2 2.17 0.23
8 -2 2 2.06 0.2
-8 -2 -2 2.08 0.26
8 2 2 1.73 0.24
-8 2 -2 1.52 0.22
-8 2 -2 1.86 0.27
-8 2 -2 1.98 0.2
8 2 2 1.88 0.24
-8 2 -2 1.81 0.31
9 -2 2 0.53 0.13
-9 -2 -2 0.66 0.12
9 -2 2 0.6 0.12
9 -2 2 0.64 0.13
-9 2 -2 0.42 0.11
-8 -3 2 5.27 0.28
-8 -3 2 5.11 0.28
-8 -3 2 4.74 0.28
8 -3 -2 5.03 0.33
-8 3 2 4.56 0.42
8 3 -2 5.02 0.35
8 3 -2 5.11 0.38
7 -3 -2 7.13 0.45
7 -3 -2 7.45 0.48
-7 -3 2 7.43 0.47
-7 -3 2 7.09 0.44
7 -3 -2 7.15 0.45
-7 -3 2 7.53 0.4
-7 -3 2 6.47 0.39
7 -3 -2 7.92 0.38
7 -3 -2 7.67 0.45
-7 -3 2 7.6 0.41
-7 3 2 7.65 0.43
-7 3 2 7.99 0.6
-7 3 2 6.9 0.41
7 3 -2 7.39 0.47
-7 3 2 7.18 0.5
-7 3 2 7.59 0.43
6 -3 -2 5.83 0.55
-6 -3 2 6.95 0.39
-6 -3 2 7.11 0.4
6 -3 -2 6.35 0.44
6 -3 -2 6.89 0.4
-6 -3 2 6.86 0.43
-6 -3 2 8.06 0.54
-6 -3 2 7.34 0.52
-6 -3 2 6.97 0.39
6 -3 -2 7.74 0.37
-6 -3 2 8.01 0.43
-6 3 2 6.22 0.87
-6 3 2 7.23 0.46
-6 3 2 6.55 0.42
-6 3 2 6.2 0.47
6 3 -2 7.64 0.44
-6 3 2 7.37 0.43
-6 3 2 7.41 0.44
-6 3 2 6.6 0.73
-5 -3 2 1.8 0.22
5 -3 -2 1.72 0.16
-5 -3 2 1.28 0.18
-5 -3 2 1.59 0.2
5 -3 -2 1.52 0.19
5 -3 -2 1.81 0.22
-5 -3 2 1.71 0.18
-5 -3 2 1.51 0.21
-5 -3 2 1.65 0.18
-5 -3 2 1.75 0.27
5 3 -2 1.65 0.2
-5 3 2 1.86 0.27
-5 3 2 1.69 0.22
5 3 -2 1.58 0.21
-5 3 2 1.77 0.26
-5 3 2 1.77 0.19
-5 3 2 1.42 0.24
-5 3 2 1.54 0.2
4 -3 -2 1.18 0.12
-4 -3 2 1.14 0.12
4 -3 -2 1.25 0.16
-4 -3 2 1.55 0.23
-4 -3 2 1.26 0.17
-4 -3 2 1.14 0.19
-4 -3 2 1.34 0.14
4 -3 -2 1.17 0.18
-4 -3 2 0.92 0.15
-4 -3 2 1.13 0.14
-4 -3 2 1.31 0.18
4 -3 -2 1.11 0.15
-4 3 2 1 0.22
4 3 -2 0.83 0.17
4 3 -2 1.16 0.19
-4 3 2 1.27 0.13
-4 3 2 1.24 0.23
-4 3 2 1.32 0.2
4 3 -2 1.1 0.16
-4 3 2 1.25 0.22
-4 3 2 0.92 0.17
3 -3 -2 0.56 0.11
3 -3 -2 0.53 0.12
-3 -3 2 0.62 0.11
-3 -3 2 0.35 0.17
3 -3 -2 0.6 0.12
-3 -3 2 0.7 0.14
-3 -3 2 0.71 0.1
3 -3 -2 0.64 0.13
-3 -3 2 0.6 0.16
-3 -3 2 0.59 0.13
-3 -3 2 0.47 0.09
-3 -3 2 0.73 0.14
-3 3 2 0.54 0.14
3 3 -2 0.6 0.13
3 3 -2 0.54 0.12
-3 3 2 0.7 0.16
-3 3 2 0.48 0.13
-3 3 2 0.62 0.13
3 3 -2 0.51 0.14
3 3 -2 0.77 0.13
-3 3 2 0.46 0.1
2 -3 -2 15.2 0.76
2 -3 -2 15.98 0.79
-2 -3 2 18.28 0.81
-2 -3 2 17.17 0.78
-2 -3 2 16.63 0.82
-2 -3 2 15.82 0.78
-2 -3 2 15.92 0.75
2 -3 -2 16.3 0.79
-2 -3 2 16.29 0.76
-2 -3 2 16.77 0.77
2 -3 -2 14.98 0.82
-2 -3 2 16.78 0.75
2 3 -2 16.74 0.8
-2 3 2 16.69 0.77
-2 3 2 17.05 0.78
-2 3 2 16.21 0.83
2 3 -2 16.56 0.78
2 3 -2 16.6 0.8
2 3 -2 16.48 0.79
-2 3 2 16.74 0.83
-2 3 2 16.79 0.76
2 3 -2 16.14 0.78
-1 -3 2 13.06 0.68
-1 -3 2 14.82 0.71
-1 -3 2 14.91 0.67
-1 -3 2 14.26 0.71
-1 -3 2 13.31 0.67
-1 -3 2 14.25 0.68
1 -3 -2 14.31 0.69
1 -3 -2 14.16 0.72
1 -3 -2 13.78 0.69
-1 -3 2 14.58 0.68
1 -3 -2 15.38 0.67
1 3 -2 15.35 0.69
-1 3 2 13.63 0.72
-1 3 2 13.94 0.72
1 3 -2 15.08 0.68
-1 3 2 13.81 0.67
1 3 -2 14.7 0.69
-1 3 2 13.66 0.7
1 3 -2 14.36 0.68
-1 3 2 13.8 0.65
-1 3 2 14.35 0.7
1 3 -2 13.9 0.69
0 -3 2 213.76 9.41
0 -3 -2 213.13 9.45
0 -3 2 204.32 9.4
0 -3 2 224.3 9.42
0 -3 -2 211.03 9.39
0 -3 -2 210.68 9.42
0 -3 -2 225.29 9.44
0 -3 2 204.35 9.37
0 -3 -2 206.44 9.39
0 -3 2 224.36 9.44
0 3 2 222.34 9.42
0 3 2 216.61 9.38
0 3 2 211.86 9.43
0 3 -2 212.89 9.41
0 3 2 213.39 9.44
0 3 -2 213.7 9.42
0 3 -2 231.39 9.51
0 3 2 216.24 9.39
0 3 2 204.87 9.44
0 3 -2 206.62 9.42
0 3 2 217.93 9.42
0 3 -2 216.2 9.41
0 3 -2 219.4 9.41
1 -3 2 38.7 1.78
-1 -3 -2 38.5 1.76
1 -3 2 40.1 1.75
-1 -3 -2 41.85 1.78
-1 -3 -2 39.09 1.75
-1 -3 -2 39.89 1.82
1 -3 2 37.3 1.82
1 -3 2 39.4 1.79
1 -3 2 40.07 1.77
-1 3 -2 37.7 1.78
-1 3 -2 40.05 1.78
1 3 2 41.17 1.8
1 3 2 43.17 1.79
-1 3 -2 39.56 1.79
1 3 2 37.62 1.8
-1 3 -2 40.17 1.78
-1 3 -2 37.37 1.79
1 3 2 38.69 1.79
1 3 2 36.99 1.75
1 3 2 39.49 1.79
2 -3 2 19.6 0.89
-2 -3 -2 18.12 0.89
-2 -3 -2 19.93 0.9
2 -3 2 19.36 0.86
2 -3 2 20.19 0.92
2 -3 2 19.48 0.93
2 -3 2 18.3 0.9
-2 -3 -2 19.02 0.95
-2 -3 -2 19.62 0.87
2 3 2 18.64 0.91
2 3 2 18.77 0.91
2 3 2 19.94 0.93
-2 3 -2 18.49 0.91
-2 3 -2 19 0.93
-2 3 -2 17.63 0.92
-2 3 -2 20.84 0.92
-3 -3 -2 3.78 0.24
3 -3 2 3.27 0.19
3 -3 2 3.38 0.27
3 -3 2 3.33 0.26
-3 -3 -2 3.46 0.29
3 -3 2 3.28 0.25
-3 -3 -2 3.49 0.27
-3 -3 -2 3.2 0.22
3 3 2 3.48 0.26
-3 3 -2 3.04 0.24
-3 3 -2 3.24 0.23
-3 3 -2 2.93 0.24
-3 3 -2 2.69 0.22
3 3 2 2.84 0.25
-3 3 -2 3.19 0.26
3 3 2 3.15 0.24
3 3 2 3.59 0.25
-4 -3 -2 4.8 0.32
-4 -3 -2 5.13 0.32
4 -3 2 4.86 0.28
-4 -3 -2 4.81 0.36
-4 -3 -2 5.44 0.38
-4 -3 -2 5.04 0.31
-4 -3 -2 4.94 0.25
4 -3 2 4.99 0.25
-4 -3 -2 4.75 0.32
4 -3 2 4.8 0.37
-4 3 -2 5.08 0.28
4 3 2 4.96 0.33
4 3 2 4.92 0.34
-4 3 -2 5.9 0.4
4 3 2 5.4 0.36
-4 3 -2 4.81 0.32
-4 3 -2 5.14 0.34
4 3 2 4.56 0.27
-5 -3 -2 4.98 0.34
-5 -3 -2 4.8 0.33
-5 -3 -2 4.84 0.38
5 -3 2 4.29 0.25
-5 -3 -2 4.69 0.39
5 -3 2 4.78 0.28
-5 -3 -2 5.18 0.3
-5 -3 -2 5.41 0.35
-5 -3 -2 5.54 0.33
5 3 2 4.52 0.27
-5 3 -2 4.87 0.28
5 3 2 4.57 0.36
5 3 2 3.68 0.33
-5 3 -2 4.61 0.32
6 -3 2 34.6 1.64
-6 -3 -2 34.44 1.58
6 -3 2 34.7 1.6
-6 -3 -2 38.81 1.64
-6 -3 -2 33.65 1.58
-6 -3 -2 36.91 1.6
6 -3 2 35.77 1.57
6 -3 2 32.47 1.59
-6 -3 -2 33.52 1.68
-6 -3 -2 37.3 1.6
-6 -3 -2 38.08 1.65
-6 3 -2 33.79 1.62
6 3 2 34.7 1.66
6 3 2 35.5 1.65
-6 3 -2 33.07 1.65
-6 3 -2 31.85 1.66
-6 3 -2 35.68 1.65
6 3 2 36.2 1.72
6 3 2 34.15 1.57
7 -3 2 2.54 0.27
7 -3 2 2.76 0.24
7 -3 2 2.93 0.24
-7 -3 -2 3.08 0.21
-7 -3 -2 2.95 0.28
-7 -3 -2 3.4 0.29
-7 -3 -2 2.99 0.22
7 -3 2 3.24 0.28
-7 -3 -2 3.18 0.23
-7 -3 -2 3.07 0.31
-7 3 -2 3 0.27
7 3 2 2.51 0.3
-7 3 -2 2.71 0.39
7 3 2 3.21 0.32
7 3 2 2.8 0.28
7 3 2 3.02 0.21
-7 3 -2 2.85 0.2
8 -3 2 5.58 0.33
-8 -3 -2 4.85 0.33
-8 -3 -2 4.91 0.25
8 -3 2 5.36 0.29
8 -3 2 5.34 0.29
-8 -3 -2 5.05 0.26
8 3 2 4.16 0.33
-8 3 -2 4.11 0.38
-8 3 -2 5.33 0.3
8 3 2 4.55 0.34
8 -4 -2 0.99 0.13
-8 -4 2 0.9 0.1
8 -4 -2 1.01 0.13
-8 -4 2 0.84 0.1
-8 -4 2 0.95 0.11
-8 -4 2 0.55 0.15
-8 -4 2 1 0.15
8 -4 -2 0.62 0.14
-8 -4 2 0.8 0.11
8 4 -2 0.79 0.16
8 4 -2 0.69 0.17
-8 4 2 0.7 0.21
-7 -4 2 3.64 0.23
-7 -4 2 3.67 0.22
7 -4 -2 3.5 0.26
7 -4 -2 3.59 0.29
-7 -4 2 3.24 0.22
-7 -4 2 3.55 0.24
-7 -4 2 3.4 0.3
7 -4 -2 3.54 0.25
-7 4 2 3.58 0.26
-7 4 2 3.33 0.37
7 4 -2 3.69 0.33
-7 4 2 3.16 0.25
-7 4 2 2.74 0.31
7 4 -2 3.41 0.32
6 -4 -2 12.75 0.66
-6 -4 2 12.82 0.71
6 -4 -2 11.97 0.58
6 -4 -2 12.45 0.64
-6 -4 2 13.35 0.63
-6 -4 2 12.16 0.6
6 -4 -2 11.69 0.62
-6 -4 2 12.19 0.61
-6 -4 2 12.48 0.66
-6 -4 2 9.81 0.65
-6 4 2 12.95 0.73
-6 4 2 12.61 0.64
6 4 -2 12.8 0.7
-6 4 2 12.7 0.77
-6 4 2 13.08 0.65
-6 4 2 14.84 1.15
6 4 -2 12.53 0.66
-6 4 2 12.26 0.64
-6 4 2 11.44 0.71
-5 -4 2 3.03 0.24
-5 -4 2 2.43 0.35
-5 -4 2 3.11 0.28
-5 -4 2 2.5 0.33
-5 -4 2 3.34 0.24
-5 -4 2 3.26 0.37
5 -4 -2 3.52 0.23
5 -4 -2 2.59 0.37
5 -4 -2 3.16 0.2
-5 -4 2 2.86 0.23
5 -4 -2 3.07 0.24
-5 -4 2 2.81 0.3
5 -4 -2 3.07 0.37
-5 -4 2 2.76 0.23
-5 4 2 2.82 0.27
-5 4 2 3.73 0.28
5 4 -2 2.91 0.28
-5 4 2 3.42 0.25
-5 4 2 2.84 0.33
-5 4 2 3.43 0.31
-5 4 2 3.17 0.34
-4 -4 2 1.22 0.19
-4 -4 2 0.93 0.2
-4 -4 2 0.88 0.19
-4 -4 2 1.19 0.19
4 -4 -2 1.42 0.16
4 -4 -2 1.16 0.13
-4 -4 2 1.4 0.29
4 -4 -2 1.26 0.18
-4 -4 2 1.69 0.17
-4 -4 2 1.1 0.18
-4 4 2 1.42 0.23
4 4 -2 1.12 0.21
-4 4 2 1.53 0.26
-4 4 2 0.86 0.19
4 4 -2 1.15 0.18
-3 -4 2 45.56 2.01
-3 -4 2 43.87 2.04
-3 -4 2 43.91 1.98
-3 -4 2 43.97 1.98
-3 -4 2 43.16 2.01
3 -4 -2 42.4 1.97
-3 -4 2 44.02 1.96
-3 -4 2 44.04 2
-3 -4 2 45.84 2.08
3 -4 -2 43.83 1.99
3 -4 -2 44.06 1.96
3 4 -2 44.55 2.05
-3 4 2 44.62 2.03
-3 4 2 43.88 2.03
3 4 -2 45.37 2.01
-3 4 2 42.69 1.97
-3 4 2 46.69 2
-2 -4 2 3.79 0.3
-2 -4 2 4.13 0.26
-2 -4 2 3.82 0.22
-2 -4 2 4.3 0.32
-2 -4 2 3.93 0.23
2 -4 -2 3.75 0.21
-2 -4 2 3.83 0.26
-2 -4 2 3.56 0.23
-2 -4 2 3.68 0.23
2 -4 -2 3.91 0.24
-2 -4 2 3.75 0.27
2 -4 -2 3.81 0.29
-2 4 2 3.14 0.27
2 4 -2 3.71 0.26
2 4 -2 4.11 0.3
-2 4 2 3.75 0.23
-2 4 2 3.59 0.23
-2 4 2 3.61 0.26
2 4 -2 3.77 0.27
2 4 -2 3.55 0.29
-2 4 2 3.8 0.27
-1 -4 2 31.27 1.43
-1 -4 2 31.3 1.47
-1 -4 2 35.34 1.51
1 -4 -2 32.65 1.43
1 -4 -2 30.67 1.46
-1 -4 2 32.98 1.46
1 -4 -2 29.67 1.41
-1 -4 2 30.05 1.44
-1 -4 2 30.37 1.47
-1 -4 2 31.77 1.42
1 4 -2 32.95 1.49
1 4 -2 29.13 1.47
-1 4 2 30.8 1.42
1 4 -2 31.24 1.46
-1 4 2 30.86 1.48
1 4 -2 33.97 1.47
1 4 -2 34.39 1.47
-1 4 2 31.94 1.44
-1 4 2 31.71 1.42
-1 4 2 31.02 1.47
0 -4 2 1.28 0.16
0 -4 -2 1.1 0.19
0 -4 2 0.86 0.12
0 -4 2 0.93 0.23
0 -4 -2 1.03 0.12
0 -4 -2 1.04 0.17
0 -4 -2 1.12 0.18
0 -4 2 0.92 0.15
0 -4 2 0.77 0.14
0 -4 -2 0.73 0.19
0 4 2 0.62 0.17
0 4 -2 0.95 0.15
0 4 -2 0.64 0.14
0 4 -2 0.78 0.16
0 4 2 0.84 0.13
0 4 2 0.98 0.17
0 4 -2 0.92 0.17
0 4 2 1.03 0.14
0 4 -2 0.77 0.16
0 4 2 0.92 0.11
0 4 2 0.71 0.11
-1 -4 -2 7.46 0.4
1 -4 2 7.42 0.4
1 -4 2 6.7 0.41
1 -4 2 7.63 0.43
1 -4 2 7.15 0.48
1 -4 2 6.99 0.35
-1 -4 -2 7.16 0.39
-1 -4 -2 7.24 0.45
-1 -4 -2 6.23 0.38
1 -4 2 6.98 0.37
1 4 2 7.27 0.43
1 4 2 7.3 0.4
1 4 2 6.52 0.35
-1 4 -2 6.82 0.43
-1 4 -2 7.28 0.43
1 4 2 7.6 0.42
1 4 2 5.02 0.44
-1 4 -2 7.13 0.41
-1 4 -2 7.46 0.42
1 4 2 7.79 0.39
-1 4 -2 7.11 0.4
-2 -4 -2 11.16 0.57
2 -4 2 12.61 0.65
2 -4 2 12.06 0.58
2 -4 2 10.77 0.63
-2 -4 -2 13.26 0.61
-2 -4 -2 11.86 0.62
2 -4 2 12.69 0.64
-2 -4 -2 11.96 0.66
2 -4 2 11.59 0.61
2 -4 2 12.42 0.56
-2 -4 -2 12.47 0.59
2 -4 2 11.63 0.57
-2 -4 -2 11.81 0.59
-2 4 -2 12.2 0.62
-2 4 -2 11.61 0.61
-2 4 -2 10.53 0.63
2 4 2 11.59 0.61
2 4 2 12.4 0.65
-2 4 -2 10.57 0.56
2 4 2 11.77 0.63
2 4 2 11.53 0.57
3 -4 2 19.94 0.89
-3 -4 -2 18.52 0.92
3 -4 2 20.96 1.01
3 -4 2 19.25 0.91
3 -4 2 18.56 0.92
-3 -4 -2 20.33 0.95
3 -4 2 18.69 0.98
-3 -4 -2 20.23 0.89
3 -4 2 20.15 0.99
-3 -4 -2 19.88 0.93
3 -4 2 19.94 0.96
3 -4 2 19.67 0.92
-3 -4 -2 20.11 1.01
-3 4 -2 20.05 0.96
-3 4 -2 19.71 0.9
3 4 2 19.26 0.95
3 4 2 16.87 0.97
-3 4 -2 18.69 0.93
3 4 2 18.78 0.9
4 -4 2 40.28 1.83
-4 -4 -2 40.32 1.83
4 -4 2 40.49 1.84
-4 -4 -2 39.63 1.86
-4 -4 -2 40.01 1.82
4 -4 2 42.15 1.89
4 -4 2 40.5 1.83
4 -4 2 39.59 1.91
-4 -4 -2 39.83 2.03
4 -4 2 40.35 1.93
-4 -4 -2 39.27 1.85
-4 -4 -2 43.49 1.84
-4 -4 -2 40.16 1.91
-4 4 -2 40.21 1.84
4 4 2 40.22 1.92
4 4 2 39.59 1.87
-4 4 -2 40.05 1.81
-4 4 -2 41.42 1.88
4 4 2 39.67 1.81
-5 -4 -2 31.18 1.4
-5 -4 -2 29.18 1.39
5 -4 2 28.7 1.4
-5 -4 -2 28.45 1.39
-5 -4 -2 29.81 1.38
5 -4 2 32.41 1.4
5 -4 2 27.7 1.39
-5 -4 -2 30.06 1.48
-5 -4 -2 32.08 1.44
5 -4 2 29.2 1.48
5 -4 2 29.19 1.45
-5 -4 -2 32.91 1.44
5 -4 2 29.6 1.49
-5 -4 -2 32.09 1.38
5 -4 2 29.31 1.39
5 4 2 33.73 1.55
5 4 2 31.27 1.38
5 4 2 31.09 1.45
5 4 2 30.17 1.42
-5 4 -2 27.95 1.42
-5 4 -2 30.12 1.38
5 4 2 32.93 1.49
-6 -4 -2 3.33 0.29
-6 -4 -2 3 0.22
-6 -4 -2 2.72 0.22
-6 -4 -2 3 0.27
6 -4 2 2.93 0.24
6 -4 2 2.94 0.29
6 -4 2 3.02 0.24
6 -4 2 2.71 0.21
-6 -4 -2 2.89 0.21
-6 -4 -2 2.88 0.31
6 4 2 2.78 0.25
6 4 2 3.1 0.32
6 4 2 3.1 0.21
-6 4 -2 2.47 0.27
-6 4 -2 2.97 0.28
6 4 2 2.93 0.33
6 4 2 3.09 0.29
7 -4 2 0.87 0.19
7 -4 2 0.91 0.15
7 -4 2 0.69 0.15
-7 -4 -2 0.75 0.21
-7 -4 -2 0.58 0.12
-7 -4 -2 0.71 0.2
7 -4 2 0.69 0.46
-7 4 -2 0.68 0.21
7 4 2 0.67 0.21
-7 4 -2 0.65 0.45
7 4 2 0.89 0.21
7 4 2 0.67 0.17
8 -4 2 1.56 0.13
-8 -4 -2 1.15 0.17
8 -4 2 1.38 0.15
-8 -4 -2 1.66 0.17
8 -4 2 1.59 0.13
-8 4 -2 1.71 0.17
8 4 2 1.09 0.13
8 4 2 1.71 0.14
-8 4 -2 0.81 0.14
-7 -5 2 3.66 0.28
7 -5 -2 4.46 0.24
-7 -5 2 4.02 0.26
7 -5 -2 5.21 0.27
-7 -5 2 4.54 0.23
7 -5 -2 4.03 0.24
-7 -5 2 4.87 0.24
7 5 -2 3.73 0.29
7 5 -2 4.1 0.32
6 -5 -2 1.96 0.18
-6 -5 2 1.94 0.17
-6 -5 2 2.24 0.26
-6 -5 2 1.91 0.16
6 -5 -2 2.17 0.22
-6 -5 2 1.82 0.17
-6 -5 2 2.26 0.19
6 -5 -2 2.15 0.21
6 5 -2 2.13 0.27
6 5 -2 2.16 0.29
-6 5 2 1.85 0.22
-5 -5 2 4.13 0.26
5 -5 -2 4.02 0.3
5 -5 -2 4.17 0.29
-5 -5 2 3.85 0.27
-5 -5 2 4.21 0.27
-5 -5 2 4.09 0.34
5 -5 -2 4.13 0.25
5 -5 -2 4.15 0.27
-5 -5 2 4.17 0.31
-5 -5 2 3.79 0.26
-5 -5 2 4.12 0.27
-5 5 2 3.86 0.23
5 5 -2 3.83 0.31
-5 5 2 4.33 0.32
5 5 -2 4.16 0.37
4 -5 -2 14.2 0.72
-4 -5 2 14 0.7
-4 -5 2 14.06 0.76
-4 -5 2 14.45 0.68
4 -5 -2 13.29 0.69
-4 -5 2 13.63 0.67
4 -5 -2 14.33 0.76
4 -5 -2 14.72 0.66
4 -5 -2 13.2 0.68
-4 -5 2 14.84 0.73
-4 -5 2 12.8 0.7
-4 5 2 14.47 0.71
4 5 -2 13.77 0.73
4 5 -2 13.95 0.77
-4 5 2 13.71 0.73
-4 5 2 14.39 0.71
-4 5 2 12.75 0.74
3 -5 -2 18.72 0.91
-3 -5 2 15.97 0.86
-3 -5 2 18.57 0.85
3 -5 -2 17.23 0.88
3 -5 -2 19.17 0.83
-3 -5 2 19.06 0.89
-3 -5 2 18.27 0.87
-3 5 2 18.16 0.87
3 5 -2 16.73 0.89
-3 5 2 17.59 0.9
-3 5 2 17.46 0.83
2 -5 -2 50.57 2.26
-2 -5 2 47.23 2.23
-2 -5 2 49.76 2.21
-2 -5 2 48.06 2.26
2 -5 -2 48.16 2.28
2 -5 -2 50.64 2.25
-2 -5 2 49.8 2.26
2 -5 -2 48.51 2.31
2 -5 -2 50.61 2.22
-2 5 2 49.34 2.25
2 5 -2 51.03 2.32
-2 5 2 48.47 2.29
2 5 -2 51.84 2.28
-2 5 2 53.86 2.22
-1 -5 2 10.85 0.63
-1 -5 2 11.47 0.53
1 -5 -2 11.38 0.6
1 -5 -2 11.21 0.57
1 -5 -2 10.84 0.53
1 -5 -2 11.08 0.62
1 -5 -2 10.44 0.65
1 -5 -2 11.25 0.58
-1 -5 2 10.5 0.58
1 -5 -2 11.16 0.56
-1 -5 2 9.66 0.54
-1 5 2 11.13 0.6
1 5 -2 11.36 0.6
1 5 -2 10.69 0.62
-1 5 2 11.87 0.54
-1 5 2 11.48 0.58
0 -5 -2 27.39 1.37
0 -5 -2 26.97 1.25
0 -5 -2 30.84 1.31
0 -5 -2 27.47 1.26
0 -5 -2 27.07 1.32
0 -5 2 28.71 1.26
0 -5 2 28.31 1.28
0 -5 2 24.98 1.36
0 -5 2 28.39 1.31
0 -5 -2 27.48 1.29
0 -5 -2 27.29 1.28
0 5 -2 28.95 1.32
0 5 2 26.62 1.32
0 5 2 28.6 1.26
0 5 -2 26.94 1.35
0 5 2 27.18 1.29
-1 -5 -2 2.1 0.23
1 -5 2 2.21 0.2
-1 -5 -2 2.27 0.17
-1 -5 -2 2.52 0.24
-1 -5 -2 2.33 0.19
-1 -5 -2 2.63 0.15
-1 -5 -2 2.24 0.26
-1 -5 -2 2.71 0.28
1 -5 2 2.72 0.24
1 -5 2 2.34 0.23
1 -5 2 2.4 0.29
1 -5 2 2.35 0.34
-1 5 -2 2.5 0.19
-1 5 -2 2.59 0.28
1 5 2 2.6 0.19
1 5 2 2.73 0.26
-1 5 -2 2.58 0.25
1 5 2 2.52 0.23
2 -5 2 4.05 0.34
2 -5 2 3.32 0.46
-2 -5 -2 4.17 0.3
2 -5 2 4.35 0.27
-2 -5 -2 4.86 0.31
2 -5 2 4.02 0.3
-2 -5 -2 4.1 0.23
-2 -5 -2 4.1 0.32
-2 -5 -2 4.03 0.35
2 -5 2 4.13 0.33
-2 -5 -2 4.41 0.6
2 -5 2 4.48 0.63
-2 5 -2 3.72 0.43
2 5 2 4.08 0.26
2 5 2 4.75 0.33
-2 5 -2 4.22 0.34
2 5 2 4.06 0.3
-2 5 -2 4.21 0.27
-3 -5 -2 1.44 0.19
3 -5 2 1.32 0.18
-3 -5 -2 1.47 0.2
3 -5 2 1.61 0.27
3 -5 2 1.2 0.42
-3 -5 -2 1.16 0.22
3 -5 2 1.45 0.24
-3 5 -2 1.37 0.22
-3 5 -2 1.42 0.24
3 5 2 1.32 0.16
3 5 2 0.86 0.27
-3 5 -2 1.39 0.18
3 5 2 1.63 0.23
3 5 2 1.2 0.22
4 -5 2 37.36 1.65
4 -5 2 33.19 1.68
4 -5 2 37.07 1.65
-4 -5 -2 36.16 1.72
-4 -5 -2 38.41 1.64
4 -5 2 31.14 1.99
-4 -5 -2 35.68 1.68
-4 -5 -2 39.64 1.68
4 -5 2 35.72 1.63
4 -5 2 35.3 1.62
4 -5 2 37.79 1.73
-4 5 -2 36.33 1.63
4 5 2 41.03 1.81
4 5 2 36.83 1.73
4 5 2 36.87 1.63
-4 5 -2 34.14 1.7
-4 5 -2 29.88 1.74
4 5 2 33.89 1.66
4 5 2 40.74 1.72
5 -5 2 1.63 0.19
-5 -5 -2 1.65 0.16
5 -5 2 1.79 0.17
5 -5 2 1.2 0.38
-5 -5 -2 1.51 0.21
5 -5 2 1.15 0.26
-5 -5 -2 1.32 0.34
-5 -5 -2 1.55 0.22
5 -5 2 1.65 0.18
-5 -5 -2 1.75 0.26
5 -5 2 1.64 0.17
5 5 2 1.62 0.17
5 5 2 1.7 0.29
5 5 2 1.55 0.26
-5 5 -2 1.56 0.23
5 5 2 1.44 0.21
-5 5 -2 1.43 0.17
5 5 2 1.5 0.24
-6 -5 -2 6.87 0.42
6 -5 2 7.64 0.36
-6 -5 -2 6.92 0.44
6 -5 2 8.04 0.38
6 5 2 6.56 0.46
6 5 2 7.51 0.44
-6 5 -2 7.71 0.42
6 5 2 6.87 0.39
-7 -5 -2 1.88 0.16
-7 -5 -2 2.09 0.2
7 5 2 1.77 0.17
7 5 2 1.49 0.18
-7 5 -2 1.93 0.17
7 5 2 1.56 0.14
-5 -6 2 2.58 0.18
-5 -6 2 2.63 0.17
5 -6 -2 2.37 0.34
5 -6 -2 2.57 0.18
5 -6 -2 2.63 0.34
-5 -6 2 2.19 0.24
5 -6 -2 2.47 0.18
-5 6 2 2.45 0.39
5 6 -2 2.69 0.26
5 6 -2 2.38 0.28
-5 6 2 1.9 0.5
-5 6 2 2.43 0.21
4 -6 -2 3.35 0.53
4 -6 -2 2.47 0.21
4 -6 -2 2.17 0.41
-4 -6 2 2.37 0.23
-4 -6 2 2.87 0.28
-4 -6 2 2.51 0.2
4 -6 -2 2.8 0.2
-4 -6 2 2.8 0.29
4 6 -2 2.64 0.32
-4 6 2 2.51 0.19
-4 6 2 2.37 0.25
4 6 -2 2.73 0.3
3 -6 -2 2.16 0.27
3 -6 -2 2.69 0.48
3 -6 -2 2.26 0.2
-3 -6 2 2.48 0.27
3 -6 -2 2.44 0.22
3 -6 -2 2.19 0.2
-3 -6 2 2.25 0.21
3 -6 -2 2.2 0.59
3 -6 -2 2.28 0.19
3 -6 -2 2.2 0.16
-3 -6 2 2.19 0.2
-3 -6 2 2.45 0.31
3 6 -2 1.97 0.24
3 6 -2 2.6 0.31
-3 6 2 2.24 0.26
3 6 -2 2.85 0.38
-3 6 2 2.37 0.26
-3 6 2 2.65 0.25
2 -6 -2 48.75 2.45
2 -6 -2 44.96 2.07
-2 -6 2 44.86 2.05
2 -6 -2 46.36 2.09
2 -6 -2 44.94 2.08
2 -6 -2 43.45 2.04
2 -6 -2 50.12 2.07
-2 -6 2 46.75 2.19
2 -6 -2 46.68 2.14
2 6 -2 48.03 2.12
-2 6 2 47.62 2.05
2 6 -2 43.43 2.25
-2 6 2 44.37 2.09
2 6 -2 47.03 2.16
-2 6 2 44.78 2.1
1 -6 -2 12.99 1.07
1 -6 -2 13.8 0.72
1 -6 -2 13.59 0.69
-1 -6 2 15.13 0.73
-1 -6 2 13.89 1.04
1 -6 -2 14.76 0.7
-1 -6 2 15.06 0.73
1 -6 -2 13.57 0.73
1 -6 -2 14.16 1.03
1 -6 -2 14.74 0.72
-1 -6 2 15.62 0.84
1 -6 -2 14.97 0.78
1 -6 -2 14.66 0.66
-1 -6 2 13.95 0.68
1 6 -2 15.57 0.76
1 6 -2 15.55 0.8
-1 6 2 14.24 0.69
1 6 -2 14.02 0.85
-1 6 2 14.43 0.76
0 -6 2 4.43 0.27
0 -6 -2 4.52 0.47
0 -6 -2 4.08 0.28
0 -6 -2 4.48 0.41
0 -6 2 4.84 0.42
0 -6 -2 4.53 0.3
0 -6 2 4.27 0.33
0 -6 2 4.38 0.25
0 -6 -2 4.49 0.32
0 -6 -2 4.75 0.32
0 -6 -2 5.17 0.45
0 -6 -2 4.83 0.36
0 -6 2 4.3 0.31
0 -6 -2 4.41 0.28
0 -6 -2 4.31 0.57
0 -6 2 4.8 0.6
0 6 2 4.4 0.37
0 6 -2 4.52 0.35
0 6 2 5.15 0.28
0 6 -2 4.6 0.42
0 6 2 4.67 0.35
0 6 2 4.62 0.41
0 6 -2 4.47 0.38
0 6 -2 4.65 0.28
-1 -6 -2 1.04 0.2
1 -6 2 0.82 0.21
1 -6 2 0.94 0.25
1 -6 2 1.15 0.19
1 -6 2 1.07 0.42
-1 -6 -2 1.09 0.27
-1 -6 -2 1.28 0.22
-1 -6 -2 0.97 0.23
1 -6 2 1 0.14
-1 -6 -2 0.88 0.17
-1 -6 -2 0.97 0.18
-1 6 -2 1.15 0.27
1 6 2 1.03 0.15
-1 6 -2 1.16 0.22
1 6 2 1.37 0.21
-1 6 -2 1 0.28
1 6 2 1.22 0.27
-1 6 -2 0.95 0.16
1 6 2 1.12 0.25
2 -6 2 4.96 0.4
2 -6 2 5.11 0.37
2 -6 2 5.25 0.3
-2 -6 -2 5.2 0.32
2 -6 2 5.36 0.61
2 -6 2 5.37 0.33
-2 -6 -2 5.31 0.35
-2 -6 -2 5.49 0.38
-2 -6 -2 5.33 0.44
2 6 2 4.85 0.4
2 6 2 5.11 0.37
2 6 2 5.19 0.31
-2 6 -2 5.11 0.41
-2 6 -2 5.43 0.31
-2 6 -2 5.04 0.37
2 6 2 5.53 0.45
3 -6 2 1.92 0.28
3 -6 2 1.86 0.17
3 -6 2 1.73 0.26
3 -6 2 1.6 0.24
3 -6 2 1.68 0.19
-3 -6 -2 1.76 0.22
-3 -6 -2 1.82 0.32
3 -6 2 1.75 0.43
-3 -6 -2 1.71 0.23
3 6 2 1.71 0.26
3 6 2 1.85 0.17
-3 6 -2 1.97 0.23
3 6 2 1.83 0.21
-3 6 -2 1.57 0.18
3 6 2 1.34 0.22
-3 6 -2 1.62 0.26
3 6 2 1.52 0.27
4 -6 2 13.37 0.66
4 -6 2 11.41 0.71
-4 -6 -2 13.57 0.68
-4 -6 -2 14.28 0.77
4 6 2 14.1 0.67
-4 6 -2 13.76 0.69
4 6 2 14.22 0.72
4 6 2 13.32 0.75
-5 -6 -2 1.69 0.19
-5 -6 -2 1.3 0.21
-5 -6 -2 1.82 0.24
5 6 2 1.33 0.19
5 6 2 1.43 0.21
5 6 2 1.84 0.16
-5 6 -2 1.92 0.21
-3 -7 2 0.13 0.14
3 -7 -2 0.17 0.22
-3 -7 2 0.14 0.09
-3 -7 2 0.1 0.07
-3 -7 2 0.16 0.07
-3 7 2 0.18 0.1
3 7 -2 0.09 0.1
3 7 -2 0.15 0.13
2 -7 -2 1.33 0.36
-2 -7 2 1.36 0.14
-2 -7 2 0.86 0.21
-2 -7 2 1.12 0.16
2 7 -2 1.14 0.22
-2 7 2 1.19 0.18
-2 7 2 1.23 0.18
2 7 -2 1.2 0.21
-1 -7 2 1.42 0.16
-1 -7 2 1.15 0.13
1 -7 -2 1.17 0.14
-1 -7 2 1.41 0.25
-1 -7 2 0.8 0.34
1 -7 -2 1.1 0.36
1 7 -2 1.01 0.22
-1 7 2 1.17 0.18
1 7 -2 1 0.21
-1 7 2 1.1 0.19
0 -7 -2 6.25 0.57
0 -7 2 5.78 0.3
0 -7 -2 5.85 0.32
0 -7 2 5.77 0.58
0 -7 -2 5.38 0.39
0 -7 2 5.92 0.33
0 -7 2 5.67 0.4
0 7 -2 5.34 0.37
0 7 -2 5.09 0.41
1 -7 2 3.19 0.46
-1 -7 -2 2.23 0.27
1 -7 2 2.69 0.21
-1 -7 -2 2.99 0.21
1 -7 2 2.27 0.26
-1 7 -2 2.76 0.26
2 -7 2 4.3 0.25
2 -7 2 3.74 0.32
-2 -7 -2 3.75 0.33
2 -7 2 4.74 0.49
-2 -7 -2 4.72 0.26
2 7 2 3.85 0.33
3 -7 2 0.29 0.1
3 -7 2 0.07 0.11
-3 -7 -2 0.31 0.14
3 -7 2 0.16 0.18
-3 -7 -2 0.17 0.09
3 7 2 0.23 0.15
9 0 -3 10.42 0.54
9 0 -3 10.36 0.58
-9 0 3 9.45 0.49
-9 0 3 10.18 0.58
8 0 -3 2.42 0.27
-8 0 3 1.83 0.21
8 0 -3 2.25 0.3
-8 0 3 2.67 0.36
8 0 -3 2.51 0.26
-8 0 3 2.29 0.17
-8 0 3 2.42 0.28
-7 0 3 7.25 0.37
-7 0 3 7.27 0.47
7 0 -3 7.91 0.46
-6 0 3 16.8 0.87
-6 0 3 19.21 0.86
-6 0 3 18.09 0.87
-6 0 3 17.55 0.96
-6 0 3 18.11 0.9
-6 0 3 20.08 0.88
6 0 -3 18.44 0.93
6 0 -3 18.13 0.9
-6 0 3 19.39 0.98
-5 0 3 0.18 0.09
5 0 -3 0.23 0.09
-5 0 3 0.18 0.1
5 0 -3 0.39 0.12
5 0 -3 0.3 0.09
-5 0 3 0.32 0.17
5 0 -3 0.34 0.12
-5 0 3 0.17 0.08
-5 0 3 0.51 0.14
5 0 -3 0.32 0.12
-5 0 3 0.31 0.17
-5 0 3 0.31 0.19
-5 0 3 0.4 0.12
-4 0 3 1.16 0.14
4 0 -3 1.16 0.12
4 0 -3 1.21 0.16
-4 0 3 1.15 0.16
4 0 -3 1.17 0.14
4 0 -3 1.25 0.12
-4 0 3 1.19 0.18
-4 0 3 1.14 0.13
4 0 -3 1.81 0.17
-4 0 3 1.33 0.16
-4 0 3 1.07 0.17
-4 0 3 1.34 0.11
3 0 -3 21.79 1.13
-3 0 3 25.72 1.14
-3 0 3 26.16 1.12
3 0 -3 25.71 1.13
-3 0 3 25.85 1.15
3 0 -3 25.65 1.13
3 0 -3 25.29 1.12
-3 0 3 24.11 1.13
3 0 -3 25.64 1.15
-2 0 3 211.35 9.09
-2 0 3 204.73 9.07
2 0 -3 216.52 9.07
2 0 -3 208.7 9.06
-2 0 3 198.46 9.08
-2 0 3 209.81 9.08
-2 0 3 213.73 9.08
2 0 -3 225.22 9.09
-2 0 3 202.31 9.06
2 0 -3 196.88 9.07
2 0 -3 193.88 9.06
2 0 -3 207.85 9.08
2 0 -3 214.35 9.13
-1 0 3 14.04 0.64
1 0 -3 14.68 0.65
1 0 -3 15.03 0.64
1 0 -3 15.4 0.64
-1 0 3 15.36 0.64
1 0 -3 13.84 0.65
-1 0 3 13.64 0.65
1 0 -3 15.09 0.65
1 0 -3 14.26 0.64
-1 0 3 15.04 0.64
1 0 -3 14.39 0.65
-1 0 3 15 0.64
-1 0 3 14.24 0.64
-1 0 3 14.13 0.65
0 0 -3 14.23 0.64
0 0 3 14.53 0.64
0 0 3 14.36 0.64
0 0 -3 14.21 0.64
0 0 3 14.8 0.64
0 0 3 13.65 0.63
0 0 -3 12.63 0.64
0 0 3 14.23 0.62
0 0 -3 14.7 0.64
0 0 3 14.4 0.63
0 0 3 15.24 0.64
0 0 -3 14.77 0.64
-1 0 -3 29.72 1.37
1 0 3 30.44 1.38
1 0 3 31.63 1.38
-1 0 -3 30.49 1.37
1 0 3 31.14 1.38
-1 0 -3 29.44 1.37
-1 0 -3 30.1 1.38
1 0 3 30.09 1.38
1 0 3 30.54 1.36
1 0 3 32.6 1.34
-1 0 -3 32.01 1.38
-1 0 -3 30.41 1.37
1 0 3 32.41 1.37
-2 0 -3 10.41 0.52
-2 0 -3 10.31 0.52
-2 0 -3 10.62 0.52
2 0 3 11.16 0.47
2 0 3 11.43 0.53
-2 0 -3 10.17 0.51
2 0 3 10.1 0.5
2 0 3 9.62 0.5
2 0 3 10.6 0.5
2 0 3 11.21 0.5
-2 0 -3 10.43 0.51
2 0 3 10.97 0.52
2 0 3 11.2 0.51
2 0 3 11.9 0.54
-3 0 -3 107.41 4.63
3 0 3 100.24 4.62
3 0 3 110.91 4.62
3 0 3 111.46 4.63
3 0 3 105.12 4.57
-3 0 -3 102.59 4.64
3 0 3 101.67 4.62
3 0 3 104.95 4.65
-3 0 -3 100.74 4.62
4 0 3 0.11 0.12
4 0 3 0.01 0.07
4 0 3 0.01 0.09
4 0 3 0.04 0.08
-4 0 -3 0.11 0.11
-4 0 -3 0.09 0.1
4 0 3 0.01 0.09
-5 0 -3 0.5 0.15
5 0 3 0.44 0.14
-5 0 -3 0.64 0.11
-5 0 -3 0.42 0.19
5 0 3 0.37 0.12
5 0 3 0.37 0.12
-5 0 -3 0.4 0.13
5 0 3 0.34 0.07
-6 0 -3 4.41 0.31
-6 0 -3 3.85 0.28
-6 0 -3 3.79 0.38
6 0 3 3.92 0.3
-6 0 -3 3.35 0.35
-6 0 -3 3.6 0.28
6 0 3 3.88 0.27
6 0 3 3.77 0.23
-7 0 -3 12.55 0.67
-7 0 -3 13.31 0.69
7 0 3 14.56 0.63
-7 0 -3 13.59 0.83
-7 0 -3 14.13 0.71
7 0 3 13.29 0.71
-7 0 -3 12.74 0.76
-7 0 -3 12.68 0.71
-7 0 -3 14.05 0.74
-7 0 -3 12.31 0.59
7 0 3 13.66 0.66
7 0 3 13.12 0.74
-8 0 -3 7.65 0.4
-8 0 -3 8.09 0.43
-8 0 -3 7.41 0.47
-8 0 -3 7.4 0.41
8 0 3 7.48 0.42
8 0 3 6.63 0.45
-8 0 -3 7.22 0.48
9 0 3 11.52 0.56
9 0 3 11.18 0.55
-9 -1 3 2.92 0.2
-9 -1 3 3.09 0.29
9 -1 -3 3.27 0.25
-9 -1 3 2.7 0.19
9 -1 -3 2.92 0.27
-9 1 3 2.61 0.3
9 1 -3 3.3 0.25
9 1 -3 3.2 0.28
-9 1 3 2.64 0.21
-9 1 3 3.3 0.3
-8 -1 3 0.24 0.12
8 -1 -3 0.2 0.16
-8 -1 3 0.36 0.14
8 -1 -3 0.03 0.13
-8 -1 3 0.16 0.21
8 -1 -3 0.26 0.09
8 -1 -3 0.18 0.16
-8 1 3 0.24 0.13
8 1 -3 0.14 0.16
8 1 -3 0.3 0.22
-8 1 3 0.11 0.12
-8 1 3 0.08 0.16
-8 1 3 0.25 0.24
8 1 -3 -0.11 0.13
-8 1 3 0.13 0.28
-7 -1 3 18.16 1
-7 -1 3 17.45 0.83
7 -1 -3 18.18 0.99
7 -1 -3 19.23 0.94
-7 -1 3 18.59 0.87
-7 -1 3 17.24 0.97
-7 -1 3 18.05 0.88
-7 -1 3 18.45 0.9
-7 -1 3 18.51 0.87
7 -1 -3 18.16 0.91
7 1 -3 18.4 0.91
-7 1 3 17.01 0.89
-7 1 3 17.45 0.85
-7 1 3 17.84 0.92
-7 1 3 18.16 0.98
7 1 -3 18.44 0.94
-7 1 3 18.33 0.87
-7 1 3 19.93 1.1
-6 -1 3 15.19 0.8
-6 -1 3 14.02 0.7
-6 -1 3 12.67 0.74
6 -1 -3 14.43 0.72
-6 -1 3 14.41 0.68
6 -1 -3 14.2 0.75
-6 -1 3 13.79 0.64
-6 -1 3 13.6 0.7
6 1 -3 13.63 0.73
-6 1 3 11.41 0.72
-6 1 3 15.21 0.74
-6 1 3 14.63 0.68
-6 1 3 14.75 0.7
-6 1 3 12.96 0.72
-6 1 3 14.35 0.79
6 1 -3 14.77 0.71
-6 1 3 12.88 0.78
-5 -1 3 20.27 0.93
5 -1 -3 18 0.98
-5 -1 3 20.51 0.96
-5 -1 3 20.22 1.02
5 -1 -3 19.64 0.99
-5 -1 3 19.61 0.91
-5 -1 3 21.73 1
5 -1 -3 20.23 0.96
5 -1 -3 18.49 0.95
5 -1 -3 21.55 0.97
-5 1 3 19.74 0.98
-5 1 3 19.48 0.93
5 1 -3 20.86 0.98
5 1 -3 21.3 0.98
-5 1 3 21.87 1.04
-5 1 3 21.39 1
5 1 -3 19.28 0.95
-5 1 3 20.2 1.01
5 1 -3 19.27 0.95
-5 1 3 20.22 0.95
5 1 -3 21.63 0.95
-5 1 3 20.33 0.95
4 -1 -3 0.86 0.11
-4 -1 3 0.96 0.14
4 -1 -3 0.81 0.16
-4 -1 3 0.9 0.17
4 -1 -3 0.94 0.14
4 -1 -3 0.8 0.1
-4 -1 3 0.84 0.15
-4 -1 3 0.88 0.11
-4 -1 3 0.87 0.13
-4 -1 3 0.87 0.11
-4 -1 3 0.72 0.09
4 1 -3 0.77 0.11
-4 1 3 0.62 0.13
4 1 -3 0.57 0.14
4 1 -3 0.75 0.14
-4 1 3 0.85 0.13
-4 1 3 0.8 0.16
4 1 -3 0.79 0.12
-4 1 3 1.08 0.16
4 1 -3 0.96 0.11
-4 1 3 0.83 0.18
-4 1 3 0.71 0.14
-4 1 3 0.64 0.17
-3 -1 3 49.75 2.32
-3 -1 3 54.82 2.33
3 -1 -3 51.31 2.33
-3 -1 3 48.53 2.36
3 -1 -3 50.86 2.3
-3 -1 3 53.16 2.34
-3 -1 3 54.26 2.32
3 -1 -3 55.52 2.37
-3 -1 3 49.52 2.36
-3 -1 3 55.8 2.33
3 -1 -3 54.57 2.35
-3 -1 3 49.44 2.3
3 -1 -3 52.78 2.35
3 -1 -3 51.89 2.33
-3 1 3 55.38 2.35
3 1 -3 52.26 2.3
3 1 -3 54.32 2.33
3 1 -3 54.08 2.34
-3 1 3 52.03 2.37
3 1 -3 54.12 2.33
3 1 -3 52.43 2.34
-3 1 3 51.88 2.36
-3 1 3 53.16 2.36
3 1 -3 53.45 2.33
-3 1 3 50.1 2.33
-3 1 3 54.31 2.32
-2 -1 3 70.59 3.11
2 -1 -3 69.69 3.14
2 -1 -3 76.22 3.15
-2 -1 3 71.48 3.13
-2 -1 3 72.47 3.13
2 -1 -3 70.94 3.16
2 -1 -3 68.51 3.11
-2 -1 3 72.75 3.14
-2 -1 3 70.15 3.14
-2 -1 3 73.47 3.13
2 -1 -3 71.13 3.15
2 1 -3 71.52 3.13
2 1 -3 71.32 3.13
2 1 -3 70.63 3.11
-2 1 3 71.64 3.14
2 1 -3 74.59 3.15
-2 1 3 69.43 3.17
2 1 -3 71.7 3.14
-2 1 3 69.75 3.13
-2 1 3 70.64 3.15
-2 1 3 72.45 3.16
1 -1 -3 82.17 3.6
1 -1 -3 77.15 3.6
1 -1 -3 80.49 3.57
1 -1 -3 84.54 3.61
1 -1 -3 80.04 3.67
1 -1 -3 87.52 3.61
1 -1 -3 82.86 3.61
-1 -1 3 84.84 3.58
-1 -1 3 82.55 3.58
1 -1 -3 78.57 3.58
1 -1 -3 79.46 3.6
-1 -1 3 78.99 3.6
1 1 -3 83.35 3.58
-1 1 3 81.3 3.6
1 1 -3 85.39 3.59
-1 1 3 84.67 3.6
1 1 -3 84.61 3.59
-1 1 3 80.15 3.57
1 1 -3 79.53 3.58
-1 1 3 81.43 3.65
1 1 -3 82.76 3.57
1 1 -3 83.44 3.58
-1 1 3 74.62 3.6
-1 1 3 80.67 3.61
-1 1 3 81.49 3.59
-1 1 3 84.37 3.61
1 1 -3 85.57 3.61
-1 1 3 84.13 3.61
1 1 -3 83.33 3.57
1 1 -3 81.45 3.58
0 -1 -3 82.87 3.72
0 -1 3 81.08 3.7
0 -1 -3 86.69 3.69
0 -1 3 83.67 3.69
0 -1 3 79.68 3.7
0 -1 -3 78.68 3.71
0 -1 -3 84.15 3.71
0 -1 3 85.47 3.69
0 -1 3 85.54 3.7
0 -1 -3 81.08 3.72
0 -1 -3 87.94 3.72
0 -1 3 84.63 3.71
0 -1 -3 87.36 3.79
0 -1 -3 86.31 3.7
0 -1 3 80.07 3.7
0 -1 -3 82.35 3.71
0 1 3 86.58 3.71
0 1 3 90.47 3.72
0 1 -3 87.32 3.7
0 1 -3 82.18 3.7
0 1 -3 86.07 3.71
0 1 3 80.94 3.72
0 1 -3 88.61 3.7
0 1 3 88.15 3.72
0 1 3 82.27 3.72
0 1 -3 86.86 3.7
0 1 -3 85.9 3.7
0 1 3 89.11 3.71
0 1 3 84 3.72
0 1 -3 81.93 3.68
0 1 3 85.38 3.72
1 -1 3 542.15 22.38
-1 -1 -3 509.04 22.34
1 -1 3 490.66 22.34
-1 -1 -3 568.25 22.35
1 -1 3 502.51 22.34
1 -1 3 503.75 22.36
-1 -1 -3 559.28 22.35
-1 -1 -3 513.78 22.36
-1 -1 -3 485.19 22.44
1 -1 3 497.01 22.35
-1 -1 -3 543.53 22.36
1 -1 3 520.42 22.34
1 -1 3 551.12 22.35
-1 -1 -3 491.96 22.34
1 -1 3 508.05 22.32
-1 -1 -3 499.56 22.35
-1 -1 -3 520.24 22.36
-1 1 -3 508.89 22.34
-1 1 -3 504.59 22.41
1 1 3 524.56 22.34
1 1 3 528.05 22.35
1 1 3 484.11 22.36
1 1 3 483.14 22.34
1 1 3 543.29 22.36
1 1 3 482.82 22.36
-1 1 -3 483.33 22.35
1 1 3 489.14 22.36
1 1 3 566.2 22.37
-1 1 -3 502.52 22.35
-1 1 -3 520.42 22.35
-1 1 -3 489.69 22.34
1 1 3 506.54 22.35
1 1 3 490.16 22.35
2 -1 3 17.57 0.86
2 -1 3 19.37 0.85
-2 -1 -3 16.09 0.88
-2 -1 -3 19.82 0.86
2 -1 3 18.75 0.82
2 -1 3 18.11 0.85
2 -1 3 20.15 0.85
2 -1 3 17.59 0.88
-2 -1 -3 19 0.86
-2 -1 -3 18.03 0.87
-2 -1 -3 18.5 0.88
-2 -1 -3 16.46 0.86
-2 -1 -3 18.56 0.85
2 1 3 19.4 0.85
2 1 3 18.49 0.88
-2 1 -3 20.05 0.87
2 1 3 18.71 0.86
-2 1 -3 20.44 0.86
2 1 3 20.11 0.88
2 1 3 20.04 0.82
-2 1 -3 18.41 0.97
-2 1 -3 18.64 0.88
-2 1 -3 18.48 0.87
2 1 3 18.82 0.88
2 1 3 17.39 0.89
-2 1 -3 18.81 0.86
2 1 3 17.94 0.86
2 1 3 20.38 0.86
-3 -1 -3 52.07 2.49
-3 -1 -3 54.33 2.5
-3 -1 -3 51.6 2.5
3 -1 3 53.24 2.46
3 -1 3 57.13 2.48
3 -1 3 53.38 2.43
3 -1 3 57.53 2.5
3 -1 3 51.84 2.52
3 -1 3 53.9 2.51
-3 -1 -3 55.95 2.55
-3 -1 -3 59.09 2.48
-3 -1 -3 54.09 2.5
-3 1 -3 53.97 2.5
3 1 3 52.63 2.5
3 1 3 57.89 2.49
3 1 3 60.5 2.53
3 1 3 58.63 2.49
3 1 3 58.34 2.48
-3 1 -3 58.43 2.52
3 1 3 55.96 2.51
-3 1 -3 62.28 2.49
-3 1 -3 56.48 2.49
4 -1 3 27.79 1.16
-4 -1 -3 24.84 1.14
-4 -1 -3 25.08 1.15
-4 -1 -3 24.06 1.15
-4 -1 -3 25.27 1.23
4 -1 3 24.93 1.13
-4 -1 -3 24.73 1.2
4 -1 3 25.82 1.22
4 1 3 24.41 1.13
-4 1 -3 23.36 1.16
4 1 3 25.84 1.17
-4 1 -3 25.16 1.17
4 1 3 24.96 1.15
4 1 3 24.52 1.16
-5 -1 -3 42.82 1.97
-5 -1 -3 46.29 2.03
5 -1 3 40.21 1.97
5 -1 3 42.38 1.92
5 -1 3 43.44 1.94
-5 -1 -3 43.36 1.93
-5 -1 -3 41.63 1.96
-5 -1 -3 43.68 2.05
-5 -1 -3 46.2 1.96
5 1 3 45.34 1.94
5 1 3 41.73 1.97
-5 1 -3 41.69 1.97
-5 1 -3 43.47 1.97
5 1 3 42.62 1.97
5 1 3 41.8 1.92
5 1 3 44.52 1.98
-5 1 -3 43.89 1.92
-6 -1 -3 6.74 0.36
-6 -1 -3 6.85 0.41
-6 -1 -3 6.36 0.41
6 -1 3 6.38 0.43
-6 -1 -3 6.54 0.49
-6 -1 -3 6.74 0.5
6 -1 3 6.75 0.34
-6 -1 -3 6.97 0.43
6 -1 3 7.48 0.38
6 1 3 6.91 0.38
-6 1 -3 6.69 0.44
-6 1 -3 7.1 0.49
6 1 3 6.62 0.43
-6 1 -3 6.78 0.43
-6 1 -3 5.79 0.5
6 1 3 6.62 0.35
-6 1 -3 6.47 0.37
-7 -1 -3 43.36 2.09
-7 -1 -3 43.05 2.01
7 -1 3 46.43 2.01
-7 -1 -3 46.25 2.04
-7 -1 -3 37.98 1.98
-7 -1 -3 46.08 2.07
-7 -1 -3 44.81 2
7 -1 3 42.7 2.01
-7 -1 -3 44.56 2.05
-7 -1 -3 42.04 2
7 -1 3 41.34 2.01
-7 -1 -3 45.35 2.1
7 -1 3 44.5 2.05
-7 -1 -3 46.78 2.03
7 1 3 44.56 2.06
-7 1 -3 46.12 2.17
-7 1 -3 46.2 2.06
7 1 3 47.59 2.12
-7 1 -3 44.93 2.02
7 1 3 46.16 2.06
7 1 3 47.8 1.99
-7 1 -3 42 2.07
7 1 3 42.49 2.01
-7 1 -3 47.75 2
-8 -1 -3 0.3 0.21
8 -1 3 0.17 0.12
-8 -1 -3 0.06 0.14
8 -1 3 0.09 0.1
-8 -1 -3 0.07 0.19
-8 -1 -3 0.04 0.18
-8 -1 -3 0.35 0.13
8 -1 3 0.14 0.14
8 1 3 0.12 0.08
-8 1 -3 0.06 0.11
8 1 3 0.13 0.16
-8 1 -3 0.1 0.11
-8 1 -3 0.17 0.16
-8 1 -3 0.11 0.13
8 1 3 0.09 0.13
-8 1 -3 0.14 0.2
-9 -1 -3 0.7 0.11
9 -1 3 0.75 0.14
9 -1 3 0.62 0.15
-9 1 -3 0.47 0.12
9 1 3 0.77 0.16
9 1 3 0.71 0.13
-9 -2 3 3.06 0.17
9 -2 -3 2.17 0.27
-9 -2 3 3.01 0.18
-9 -2 3 2.91 0.18
9 -2 -3 2.18 0.2
-9 -2 3 3.02 0.17
9 2 -3 2.63 0.24
9 2 -3 2.75 0.22
-9 2 3 3.5 0.3
-8 -2 3 0.47 0.22
8 -2 -3 0.61 0.19
-8 -2 3 0.6 0.13
8 -2 -3 0.58 0.2
-8 -2 3 0.4 0.12
8 -2 -3 0.34 0.15
8 -2 -3 0.6 0.18
-8 -2 3 0.64 0.16
-8 -2 3 0.59 0.13
8 2 -3 0.55 0.21
-8 2 3 0.6 0.26
-8 2 3 0.63 0.2
-8 2 3 0.62 0.15
-8 2 3 0.65 0.32
-7 -2 3 26.41 1.21
-7 -2 3 23.93 1.21
7 -2 -3 28.45 1.36
7 -2 -3 28.54 1.3
7 -2 -3 25.12 1.27
-7 -2 3 27.42 1.23
7 -2 -3 24.71 1.27
7 -2 -3 25.04 1.21
7 2 -3 27.65 1.3
-7 2 3 26.42 1.39
-7 2 3 27.59 1.23
-7 2 3 26.11 1.26
7 2 -3 27.25 1.27
-7 2 3 27.28 1.34
-7 2 3 26.7 1.3
6 -2 -3 0.97 0.21
-6 -2 3 0.91 0.18
6 -2 -3 1.26 0.13
6 -2 -3 0.93 0.2
-6 -2 3 1.07 0.17
-6 -2 3 0.53 0.23
-6 -2 3 0.79 0.16
-6 -2 3 0.8 0.25
-6 -2 3 1.02 0.19
-6 -2 3 1.07 0.17
6 2 -3 1.13 0.2
-6 2 3 1.18 0.25
-6 2 3 1.04 0.23
-6 2 3 0.86 0.22
-6 2 3 0.83 0.16
-6 2 3 1.24 0.19
6 2 -3 0.96 0.19
-5 -2 3 0.39 0.21
-5 -2 3 0.35 0.11
-5 -2 3 0.18 0.1
5 -2 -3 0.3 0.13
-5 -2 3 0.08 0.09
5 -2 -3 0.28 0.13
-5 -2 3 0.16 0.1
-5 -2 3 0.27 0.14
5 -2 -3 0.36 0.09
5 -2 -3 0.16 0.14
-5 -2 3 0.38 0.11
-5 2 3 0.43 0.15
5 2 -3 0.54 0.13
-5 2 3 0.15 0.14
-5 2 3 0.29 0.12
5 2 -3 0.12 0.11
-5 2 3 0.22 0.16
5 2 -3 0.21 0.13
-5 2 3 0.35 0.16
-5 2 3 0.38 0.13
-4 -2 3 3.28 0.22
4 -2 -3 3.07 0.22
-4 -2 3 3.36 0.24
-4 -2 3 2.9 0.2
-4 -2 3 3.49 0.21
4 -2 -3 3.28 0.22
-4 -2 3 3.66 0.21
-4 -2 3 3.63 0.29
4 -2 -3 3.52 0.26
4 2 -3 3.29 0.21
4 2 -3 3.36 0.24
-4 2 3 3.26 0.23
4 2 -3 3.48 0.24
4 2 -3 3 0.21
-4 2 3 3.22 0.28
-4 2 3 3.41 0.23
-4 2 3 3.38 0.2
-4 2 3 3.31 0.25
-3 -2 3 39.59 1.79
3 -2 -3 37.01 1.83
-3 -2 3 40.18 1.81
-3 -2 3 39.61 1.85
-3 -2 3 44.11 1.79
3 -2 -3 40.53 1.85
3 -2 -3 43.46 1.82
-3 -2 3 40.62 1.79
3 -2 -3 39.33 1.83
3 -2 -3 42.28 1.81
-3 -2 3 40.69 1.79
-3 2 3 40.63 1.84
-3 2 3 39.06 1.81
3 2 -3 40.17 1.8
-3 2 3 41.19 1.79
-3 2 3 39.91 1.87
-3 2 3 38.67 1.84
-3 2 3 38.26 1.82
3 2 -3 37.72 1.81
3 2 -3 41.37 1.8
3 2 -3 40.7 1.8
3 2 -3 40.68 1.81
-2 -2 3 27.57 1.19
2 -2 -3 26.34 1.22
-2 -2 3 25.77 1.18
2 -2 -3 27.4 1.21
2 -2 -3 27.08 1.22
-2 -2 3 27 1.23
-2 -2 3 25.99 1.18
-2 -2 3 26.93 1.2
2 -2 -3 26.87 1.24
-2 -2 3 25.69 1.19
2 -2 -3 25.13 1.2
-2 -2 3 26.98 1.2
-2 2 3 25.52 1.25
2 2 -3 26.36 1.2
2 2 -3 26.89 1.19
2 2 -3 25.58 1.22
2 2 -3 25.92 1.18
-2 2 3 27.88 1.19
-2 2 3 27.23 1.24
2 2 -3 25.92 1.2
-2 2 3 27.97 1.22
2 2 -3 25.36 1.16
2 2 -3 27.62 1.19
-1 -2 3 65.28 2.88
1 -2 -3 64.54 2.89
-1 -2 3 67.69 2.88
1 -2 -3 63.92 2.89
-1 -2 3 66.26 2.87
1 -2 -3 62.89 2.89
1 -2 -3 63.4 2.9
-1 -2 3 64.88 2.87
1 -2 -3 65.16 2.92
1 -2 -3 70.49 2.95
-1 -2 3 61.45 2.86
-1 2 3 67.19 2.91
1 2 -3 63.06 2.87
1 2 -3 65.79 2.87
1 2 -3 65.63 2.91
-1 2 3 62.06 2.84
-1 2 3 68.77 2.87
-1 2 3 63.19 2.89
1 2 -3 65.47 2.86
-1 2 3 68.51 2.88
1 2 -3 66.42 2.88
-1 2 3 66 2.9
-1 2 3 63.57 2.89
1 2 -3 65.79 2.88
0 -2 -3 22.65 1.03
0 -2 -3 23.13 1.04
0 -2 -3 21.22 1.03
0 -2 -3 23.2 1.06
0 -2 3 23.19 1.02
0 -2 -3 24.27 0.99
0 -2 -3 24.51 1.05
0 -2 -3 22.34 1.03
0 -2 3 23.79 1.04
0 -2 -3 21.49 1.01
0 -2 3 21.94 1.02
0 -2 3 21.83 1.02
0 -2 3 21.47 1.04
0 -2 3 22.95 1.02
0 2 -3 23.72 1.03
0 2 -3 23.78 1.03
0 2 3 24.17 1.05
0 2 -3 21.86 1.02
0 2 3 21.87 1.04
0 2 3 21.44 1.03
0 2 -3 21.96 1.02
0 2 3 22.59 1.05
0 2 -3 22.81 1.02
0 2 3 23 1.04
-1 -2 -3 7.54 0.42
-1 -2 -3 8.35 0.4
1 -2 3 8.16 0.41
1 -2 3 8.97 0.4
-1 -2 -3 7.37 0.42
-1 -2 -3 7.7 0.42
1 -2 3 8.31 0.42
1 -2 3 7.72 0.44
1 -2 3 8.35 0.4
1 2 3 8.28 0.42
-1 2 -3 9.28 0.42
-1 2 -3 8.63 0.42
-1 2 -3 8.5 0.41
1 2 3 8.76 0.44
-1 2 -3 8.27 0.43
-1 2 -3 8.46 0.41
1 2 3 8.92 0.44
1 2 3 8.17 0.42
1 2 3 7.96 0.41
2 -2 3 6.19 0.39
2 -2 3 6.56 0.33
2 -2 3 6.1 0.32
-2 -2 -3 6.53 0.33
2 -2 3 5.97 0.35
-2 -2 -3 5.86 0.35
-2 -2 -3 5.96 0.38
2 -2 3 6.29 0.35
2 -2 3 6.37 0.33
-2 -2 -3 5.78 0.34
-2 2 -3 6.22 0.35
2 2 3 6.79 0.37
2 2 3 6.04 0.32
-2 2 -3 6.1 0.33
2 2 3 6.36 0.37
-2 2 -3 6.18 0.33
2 2 3 6.77 0.36
2 2 3 7.17 0.35
-2 2 -3 6.17 0.35
-2 2 -3 6.53 0.35
2 2 3 5.96 0.34
-3 -2 -3 16.72 0.79
3 -2 3 16.27 0.78
-3 -2 -3 16.06 0.78
3 -2 3 16.28 0.75
3 -2 3 17.09 0.82
3 -2 3 16.06 0.77
-3 -2 -3 17.27 0.85
3 -2 3 16.28 0.81
-3 -2 -3 15.44 0.76
3 2 3 17.93 0.83
-3 2 -3 16.73 0.79
3 2 3 16.16 0.77
-3 2 -3 17.17 0.79
-3 2 -3 15.11 0.81
3 2 3 16.68 0.8
-3 2 -3 16.41 0.78
3 2 3 17.34 0.82
3 2 3 17.14 0.8
-3 2 -3 16.97 0.81
-4 -2 -3 22.53 1.06
4 -2 3 23.32 1.06
-4 -2 -3 24.04 1.17
-4 -2 -3 23.71 1.15
4 -2 3 24.96 1.1
-4 -2 -3 23.7 1.09
4 -2 3 21.42 1.13
4 -2 3 22.46 1.05
-4 -2 -3 23.48 1.1
-4 -2 -3 22.95 1.1
4 2 3 23.68 1.12
-4 2 -3 25.58 1.16
4 2 3 24.5 1.11
-4 2 -3 24.71 1.12
4 2 3 22.36 1.06
4 2 3 24.63 1.12
4 2 3 22.95 1.08
-4 2 -3 23.07 1.11
-4 2 -3 23.24 1.06
-5 -2 -3 25.46 1.1
-5 -2 -3 24.59 1.2
5 -2 3 23.61 1.1
-5 -2 -3 23.81 1.14
-5 -2 -3 24.49 1.13
-5 -2 -3 23.97 1.14
-5 -2 -3 25.36 1.23
5 -2 3 24.85 1.08
-5 -2 -3 25.2 1.13
-5 2 -3 24.69 1.16
5 2 3 22.94 1.09
-5 2 -3 22.78 1.15
5 2 3 23.98 1.16
5 2 3 23.66 1.12
5 2 3 23.38 1.15
-5 2 -3 22.2 1.09
-6 -2 -3 11.13 0.67
6 -2 3 10.23 0.51
-6 -2 -3 11.42 0.6
-6 -2 -3 10.44 0.59
6 -2 3 10.8 0.54
-6 -2 -3 10.63 0.66
-6 -2 -3 10.34 0.57
-6 -2 -3 11.11 0.57
-6 -2 -3 11.33 0.54
6 2 3 9.98 0.59
6 2 3 11.5 0.56
-6 2 -3 10.92 0.52
6 2 3 10.93 0.52
-6 2 -3 10.52 0.6
-6 2 -3 10.13 0.61
-7 -2 -3 12.71 0.67
-7 -2 -3 13.58 0.68
-7 -2 -3 12.11 0.6
7 -2 3 12.04 0.66
7 -2 3 12.12 0.63
-7 -2 -3 12.32 0.7
-7 -2 -3 13.72 0.7
7 -2 3 11.69 0.62
-7 -2 -3 11.95 0.61
-7 -2 -3 12.52 0.64
-7 -2 -3 12.97 0.64
-7 -2 -3 12.56 0.71
7 2 3 12.82 0.72
7 2 3 11.51 0.67
-7 2 -3 13.04 0.78
-7 2 -3 12.55 0.65
-7 2 -3 12.43 0.69
7 2 3 12.01 0.68
7 2 3 11.98 0.59
-7 2 -3 12.75 0.62
-8 -2 -3 2.96 0.29
-8 -2 -3 3 0.22
8 -2 3 2.86 0.23
8 -2 3 3.36 0.23
8 -2 3 3.01 0.26
-8 -2 -3 2.95 0.28
8 -2 3 3.14 0.23
-8 2 -3 2.42 0.24
-8 2 -3 2.98 0.38
8 2 3 2.74 0.33
8 2 3 2.33 0.26
-8 2 -3 2.58 0.34
9 -2 3 1.3 0.13
9 -2 3 0.65 0.14
9 -2 3 1.21 0.13
-9 -2 -3 1.14 0.1
-9 2 -3 1.12 0.12
9 2 3 0.88 0.18
-8 -3 3 24.15 1.1
-8 -3 3 24.95 1.09
8 -3 -3 21.45 1.15
8 -3 -3 22.65 1.14
-8 -3 3 24.47 1.09
8 3 -3 25.57 1.16
8 3 -3 25.7 1.21
-8 3 3 25.02 1.24
7 -3 -3 10.64 0.59
7 -3 -3 10.41 0.59
7 -3 -3 10.88 0.51
-7 -3 3 9.96 0.52
7 -3 -3 10.68 0.59
-7 -3 3 9.93 0.57
-7 -3 3 10.64 0.52
-7 -3 3 11.45 0.53
7 -3 -3 10.14 0.62
-7 3 3 10.75 0.71
7 3 -3 10.78 0.6
7 3 -3 9.27 0.55
-7 3 3 10.33 0.64
-7 3 3 10.79 0.57
-7 3 3 11.43 0.55
-6 -3 3 4.85 0.31
-6 -3 3 5.46 0.45
6 -3 -3 5.17 0.37
6 -3 -3 4.94 0.37
-6 -3 3 5.41 0.32
6 -3 -3 5.33 0.33
6 -3 -3 5.32 0.41
-6 -3 3 5.56 0.32
6 -3 -3 5.24 0.29
6 -3 -3 5.11 0.38
-6 -3 3 4.89 0.3
-6 -3 3 4.85 0.39
-6 -3 3 5.25 0.32
-6 -3 3 5.02 0.35
-6 3 3 5.24 0.61
-6 3 3 5.16 0.54
-6 3 3 5.89 0.35
-6 3 3 5.54 0.36
-6 3 3 4.93 0.34
-6 3 3 4.77 0.37
-6 3 3 5.23 0.35
6 3 -3 5.6 0.35
-6 3 3 5.19 0.42
-6 3 3 5.12 0.58
-5 -3 3 4.68 0.28
-5 -3 3 4.2 0.3
5 -3 -3 4.42 0.29
-5 -3 3 4.66 0.39
-5 -3 3 4.64 0.31
-5 -3 3 4.71 0.27
5 -3 -3 4.45 0.25
-5 -3 3 4.83 0.27
5 -3 -3 4.45 0.32
-5 3 3 4.55 0.31
-5 3 3 3.92 0.34
-5 3 3 4.05 0.3
-5 3 3 4.06 0.25
5 3 -3 3.87 0.3
-5 3 3 3.93 0.35
5 3 -3 4.24 0.33
-5 3 3 4.61 0.39
-4 -3 3 2.76 0.22
4 -3 -3 2.51 0.23
-4 -3 3 2.46 0.22
4 -3 -3 2.91 0.22
-4 -3 3 2.26 0.27
-4 -3 3 2.53 0.2
4 -3 -3 2.7 0.22
-4 -3 3 3.14 0.2
-4 -3 3 2.7 0.19
4 -3 -3 2.45 0.18
-4 3 3 2.39 0.25
-4 3 3 2.34 0.22
4 3 -3 2.68 0.23
-4 3 3 2.45 0.22
-4 3 3 2.53 0.24
-4 3 3 2.31 0.26
4 3 -3 2.92 0.27
-4 3 3 2.54 0.28
-4 3 3 2.49 0.22
-4 3 3 2.56 0.18
4 3 -3 2.04 0.2
-3 -3 3 8.92 0.48
3 -3 -3 8.93 0.47
3 -3 -3 8.93 0.49
-3 -3 3 8.84 0.46
3 -3 -3 8.91 0.49
3 -3 -3 9.52 0.49
-3 -3 3 9.14 0.53
-3 -3 3 9.1 0.49
-3 -3 3 8.3 0.45
-3 -3 3 9.45 0.45
3 -3 -3 9.06 0.45
-3 3 3 9.3 0.49
3 3 -3 9.27 0.47
-3 3 3 9.5 0.51
3 3 -3 8.72 0.47
-3 3 3 10.02 0.54
3 3 -3 10.36 0.5
3 3 -3 9.96 0.49
-3 3 3 10.26 0.46
-3 3 3 9.22 0.49
-3 3 3 9.99 0.46
2 -3 -3 43.2 1.96
2 -3 -3 41.9 1.98
-2 -3 3 44.77 1.96
-2 -3 3 41.48 1.96
-2 -3 3 43.34 1.95
-2 -3 3 44.65 2.01
-2 -3 3 42.6 1.94
-2 -3 3 45.97 1.98
2 -3 -3 43.96 1.98
-2 -3 3 44.06 1.96
-2 3 3 43.17 1.95
-2 3 3 47.48 1.95
2 3 -3 44.8 1.98
2 3 -3 45.63 1.96
2 3 -3 46.69 1.97
-2 3 3 41.84 1.97
2 3 -3 43.46 1.96
-2 3 3 42.87 1.99
2 3 -3 45.58 1.98
-2 3 3 41.23 1.97
-2 3 3 41.12 2.02
-1 -3 3 29.76 1.36
-1 -3 3 30.24 1.39
-1 -3 3 29.01 1.35
1 -3 -3 30.77 1.39
1 -3 -3 28.14 1.36
-1 -3 3 31.23 1.36
-1 -3 3 32.04 1.41
1 -3 -3 29.58 1.38
1 -3 -3 31.44 1.41
-1 -3 3 31.95 1.38
-1 -3 3 28.54 1.36
-1 3 3 31.26 1.42
1 3 -3 29.35 1.37
1 3 -3 31.72 1.37
1 3 -3 30.17 1.38
1 3 -3 30.18 1.38
-1 3 3 30.81 1.36
-1 3 3 30.18 1.4
-1 3 3 28.69 1.35
-1 3 3 29.02 1.39
1 3 -3 31.2 1.37
0 -3 3 104.3 4.72
0 -3 3 110.27 4.71
0 -3 3 106.48 4.71
0 -3 3 109.79 4.74
0 -3 3 115.96 4.72
0 -3 -3 105.51 4.73
0 -3 -3 104.21 4.7
0 -3 -3 109.79 4.75
0 -3 -3 101.53 4.72
0 -3 -3 108.47 4.7
0 3 3 109.64 4.75
0 3 3 110.11 4.69
0 3 -3 108.29 4.73
0 3 3 103.78 4.7
0 3 -3 105.54 4.71
0 3 3 99.13 4.72
0 3 -3 111.17 4.72
0 3 3 102.84 4.75
0 3 3 103.56 4.73
0 3 -3 103.93 4.72
0 3 -3 111.82 4.71
1 -3 3 92.56 4.11
-1 -3 -3 94.52 4.09
-1 -3 -3 86.57 4.08
1 -3 3 88.84 4.09
1 -3 3 93.9 4.06
1 -3 3 95.28 4.09
1 -3 3 103.86 4.12
-1 -3 -3 89.42 4.16
1 -3 3 86.8 4.14
1 3 3 89.9 4.08
-1 3 -3 98.49 4.1
1 3 3 91.95 4.11
1 3 3 93.57 4.14
-1 3 -3 93.92 4.12
-1 3 -3 89.34 4.1
-1 3 -3 92.23 4.11
-1 3 -3 94.54 4.11
1 3 3 95.24 4.11
1 3 3 91.59 4.12
-2 -3 -3 16.03 0.78
-2 -3 -3 17.53 0.85
2 -3 3 17.86 0.81
2 -3 3 16.35 0.85
2 -3 3 17.29 0.76
2 -3 3 16.62 0.8
-2 -3 -3 15.46 0.77
-2 -3 -3 15.9 0.76
2 -3 3 15.95 0.78
2 3 3 16.09 0.77
2 3 3 16.51 0.8
-2 3 -3 16.34 0.79
-2 3 -3 16.51 0.8
2 3 3 14.83 0.88
2 3 3 15.82 0.8
-2 3 -3 15.42 0.78
-2 3 -3 16.83 0.81
3 -3 3 3.54 0.27
-3 -3 -3 3.26 0.23
-3 -3 -3 3.39 0.3
-3 -3 -3 2.75 0.23
3 -3 3 3.02 0.21
3 -3 3 3.34 0.23
3 -3 3 3.23 0.26
-3 -3 -3 3.19 0.2
-3 -3 -3 3.12 0.22
-3 3 -3 2.85 0.29
3 3 3 3.27 0.23
3 3 3 3.28 0.25
3 3 3 2.98 0.2
-3 3 -3 3.08 0.24
3 3 3 3.19 0.25
-3 3 -3 3.43 0.27
-3 3 -3 2.98 0.21
-3 3 -3 3.7 0.25
3 3 3 3.55 0.26
-3 3 -3 3.51 0.25
-4 -3 -3 8.76 0.47
4 -3 3 8.47 0.53
4 -3 3 9.21 0.48
4 -3 3 8.51 0.46
4 -3 3 8.7 0.48
-4 -3 -3 9.02 0.44
4 -3 3 8.48 0.53
-4 -3 -3 9 0.48
-4 -3 -3 8.59 0.49
-4 -3 -3 9.33 0.57
-4 -3 -3 8.33 0.48
4 -3 3 9.65 0.48
-4 3 -3 10.03 0.62
4 3 3 8.35 0.43
-4 3 -3 9.07 0.45
4 3 3 9.06 0.47
4 3 3 8.04 0.49
-4 3 -3 9.15 0.5
-4 3 -3 8.29 0.48
4 3 3 8.62 0.5
-5 -3 -3 6.05 0.4
-5 -3 -3 6.73 0.4
-5 -3 -3 6.91 0.4
-5 -3 -3 6.03 0.35
5 -3 3 6.3 0.4
5 -3 3 6.6 0.4
-5 -3 -3 5.86 0.4
5 -3 3 5.91 0.44
-5 -3 -3 6.42 0.47
-5 3 -3 6.75 0.35
-5 3 -3 6.66 0.42
5 3 3 6 0.41
5 3 3 5.89 0.33
5 3 3 6.31 0.37
-6 -3 -3 39.68 1.88
-6 -3 -3 38.14 1.79
6 -3 3 42.07 1.8
6 -3 3 37.27 1.78
6 -3 3 41.28 1.83
-6 -3 -3 43.63 1.84
-6 -3 -3 41.11 1.83
-6 -3 -3 40.94 1.77
-6 -3 -3 39.99 1.78
-6 -3 -3 39.11 1.79
-6 -3 -3 36.57 1.81
-6 -3 -3 38.17 1.77
6 -3 3 37.46 1.78
6 -3 3 36.54 1.78
-6 3 -3 41.54 1.84
6 3 3 41.38 1.77
-6 3 -3 37.3 1.75
6 3 3 38.7 1.79
6 3 3 39.88 1.84
-6 3 -3 35.06 1.8
6 3 3 38.35 1.85
6 3 3 42.97 1.92
7 -3 3 11.25 0.58
-7 -3 -3 12.43 0.63
-7 -3 -3 12.04 0.67
-7 -3 -3 12.27 0.57
-7 -3 -3 12.28 0.64
-7 -3 -3 10.54 0.58
7 -3 3 11.94 0.62
7 -3 3 11.11 0.58
7 -3 3 11.99 0.58
-7 -3 -3 11.49 0.56
-7 3 -3 10.89 0.57
-7 3 -3 12.42 0.73
7 3 3 11.55 0.65
7 3 3 12.03 0.56
-7 3 -3 11.28 0.62
7 3 3 11.71 0.63
7 3 3 11.71 0.68
8 -3 3 0.54 0.13
-8 -3 -3 0.56 0.12
8 -3 3 0.48 0.35
8 -3 3 0.36 0.12
8 -3 3 0.61 0.17
-8 -3 -3 0.53 0.18
8 3 3 0.55 0.15
-8 3 -3 0.59 0.16
-8 -4 3 1.16 0.11
8 -4 -3 0.96 0.14
-8 -4 3 0.92 0.11
8 -4 -3 0.86 0.14
8 -4 -3 0.85 0.13
-8 -4 3 1.01 0.09
-8 -4 3 1.16 0.11
8 4 -3 0.74 0.16
8 4 -3 1.01 0.18
-8 4 3 1.01 0.22
-7 -4 3 2.86 0.2
-7 -4 3 2.83 0.21
-7 -4 3 2.73 0.27
-7 -4 3 2.61 0.18
7 -4 -3 2.39 0.22
7 -4 -3 2.83 0.23
-7 -4 3 3.12 0.2
7 -4 -3 2.88 0.26
-7 4 3 3 0.37
-7 4 3 2.93 0.24
7 4 -3 2.78 0.28
-6 -4 3 2.96 0.23
-6 -4 3 3.15 0.32
6 -4 -3 3.1 0.21
-6 -4 3 2.93 0.23
-6 -4 3 2.62 0.21
6 -4 -3 3.03 0.2
6 -4 -3 3.41 0.29
6 -4 -3 2.89 0.28
-6 -4 3 2.91 0.22
-6 -4 3 3.13 0.28
6 -4 -3 3.16 0.28
-6 4 3 3.24 0.42
-6 4 3 2.74 0.26
-6 4 3 3.24 0.28
-6 4 3 3.37 0.27
-6 4 3 3.11 0.34
6 4 -3 2.56 0.25
-6 4 3 3.14 0.4
-6 4 3 3.02 0.42
5 -4 -3 0.21 0.13
-5 -4 3 0.31 0.11
-5 -4 3 0.29 0.15
5 -4 -3 0.17 0.09
-5 -4 3 0.19 0.1
5 -4 -3 0.28 0.15
5 -4 -3 -0.02 0.13
-5 -4 3 0.21 0.24
5 -4 -3 0.26 0.13
-5 -4 3 0.23 0.1
-5 -4 3 0.08 0.13
-5 -4 3 0.24 0.11
-5 -4 3 0.27 0.12
5 -4 -3 0.14 0.14
5 4 -3 0.16 0.14
-5 4 3 0.05 0.18
-5 4 3 0.19 0.14
-5 4 3 0.33 0.15
-5 4 3 0.17 0.08
-5 4 3 0.09 0.19
-5 4 3 0.15 0.15
-5 4 3 0.32 0.16
4 -4 -3 8.35 0.4
-4 -4 3 8.93 0.42
4 -4 -3 7.29 0.46
-4 -4 3 8.57 0.47
-4 -4 3 6.99 0.44
-4 -4 3 7.91 0.53
4 -4 -3 7.79 0.43
4 -4 -3 7.83 0.41
-4 -4 3 8.31 0.41
-4 -4 3 7.93 0.42
-4 4 3 7.84 0.56
4 4 -3 7.42 0.45
-4 4 3 7.82 0.44
-4 4 3 7.63 0.51
4 4 -3 7.99 0.48
-4 4 3 8.09 0.47
-4 4 3 7.83 0.48
3 -4 -3 16.71 0.8
3 -4 -3 15.86 0.77
-3 -4 3 16.77 0.79
-3 -4 3 16.13 0.88
-3 -4 3 17.1 0.78
3 -4 -3 15.79 0.82
-3 -4 3 15.38 0.82
-3 -4 3 15.57 0.79
3 -4 -3 17.1 0.77
-3 -4 3 16.59 0.82
-3 4 3 17.42 0.79
-3 4 3 17.15 0.79
-3 4 3 15.81 0.86
3 4 -3 17.31 0.81
-3 4 3 16.42 0.76
-3 4 3 17.58 0.83
3 4 -3 18.28 0.85
-3 4 3 16.88 0.84
-2 -4 3 9.17 0.5
-2 -4 3 9.23 0.48
2 -4 -3 9.92 0.49
-2 -4 3 10.19 0.53
-2 -4 3 9.23 0.5
-2 -4 3 9.56 0.45
-2 -4 3 10.08 0.57
-2 -4 3 9.94 0.5
2 -4 -3 9.56 0.46
2 4 -3 10.49 0.54
2 4 -3 9.12 0.51
-2 4 3 10.35 0.53
-2 4 3 8.91 0.52
-2 4 3 10.29 0.48
-2 4 3 9.34 0.47
2 4 -3 9.37 0.51
-2 4 3 9.89 0.5
1 -4 -3 12.02 0.63
-1 -4 3 10.69 0.57
-1 -4 3 12.03 0.57
-1 -4 3 12.65 0.61
-1 -4 3 11.09 0.59
-1 -4 3 12.64 0.65
1 -4 -3 12.2 0.57
1 -4 -3 13.11 0.59
-1 -4 3 12.78 0.62
-1 4 3 11.93 0.62
1 4 -3 11.98 0.61
1 4 -3 12.92 0.63
1 4 -3 12.17 0.61
1 4 -3 12.05 0.63
-1 4 3 12.5 0.6
-1 4 3 12.69 0.57
-1 4 3 12.2 0.63
-1 4 3 11.77 0.58
1 4 -3 11.82 0.61
0 -4 3 1.59 0.18
0 -4 -3 1.49 0.15
0 -4 3 1.85 0.2
0 -4 -3 1.76 0.2
0 -4 3 1.46 0.16
0 -4 3 1.53 0.16
0 -4 -3 1.69 0.13
0 -4 3 1.5 0.14
0 -4 3 1.87 0.14
0 -4 3 1.65 0.24
0 4 -3 1.15 0.18
0 4 3 1.6 0.15
0 4 -3 1.65 0.19
0 4 3 1.49 0.2
0 4 -3 1.45 0.18
0 4 -3 1.45 0.17
0 4 3 1.63 0.17
0 4 3 1.43 0.19
0 4 -3 1.54 0.19
0 4 3 1.55 0.14
1 -4 3 2.31 0.29
-1 -4 -3 2.9 0.23
-1 -4 -3 2.94 0.29
-1 -4 -3 2.49 0.19
1 -4 3 2.81 0.22
-1 -4 -3 2.61 0.23
1 -4 3 2.94 0.25
1 -4 3 2.66 0.24
1 -4 3 2.68 0.18
1 -4 3 2.96 0.22
1 4 3 2.7 0.19
1 4 3 3.17 0.19
1 4 3 2.92 0.25
1 4 3 2.91 0.26
-1 4 -3 2.2 0.24
-1 4 -3 2.88 0.25
-1 4 -3 2.98 0.23
-1 4 -3 2.96 0.23
1 4 3 2.89 0.22
1 4 3 2.74 0.24
-1 4 -3 2.96 0.23
-2 -4 -3 10 0.51
2 -4 3 9.58 0.45
-2 -4 -3 9.51 0.5
2 -4 3 10.76 0.64
2 -4 3 9.6 0.52
-2 -4 -3 9.41 0.59
2 -4 3 8.98 0.53
2 -4 3 10.61 0.56
2 -4 3 10.24 0.49
2 -4 3 10.71 0.55
-2 -4 -3 9.21 0.53
-2 -4 -3 9.27 0.51
2 4 3 9.31 0.5
2 4 3 8.97 0.53
-2 4 -3 8.74 0.54
-2 4 -3 9.75 0.53
-2 4 -3 9.82 0.52
2 4 3 9.72 0.53
2 4 3 9.9 0.48
-3 -4 -3 11.26 0.53
3 -4 3 9.62 0.6
-3 -4 -3 11.59 0.66
-3 -4 -3 10.07 0.58
-3 -4 -3 11.85 0.57
3 -4 3 11.94 0.63
3 -4 3 10.29 0.61
3 -4 3 11.42 0.55
3 -4 3 10.92 0.53
3 -4 3 11.12 0.59
3 -4 3 11 0.5
-3 -4 -3 10.42 0.57
-3 4 -3 10.74 0.54
3 4 3 10.95 0.57
3 4 3 11.11 0.53
-3 4 -3 10.43 0.57
-3 4 -3 11.03 0.59
3 4 3 10.84 0.59
-4 -4 -3 13.32 0.69
4 -4 3 13.35 0.64
4 -4 3 13.16 0.62
4 -4 3 13.8 0.71
-4 -4 -3 13.09 0.69
4 -4 3 13.24 0.74
-4 -4 -3 12.02 0.6
4 -4 3 13.27 0.66
-4 -4 -3 13.23 0.76
-4 -4 -3 14.35 0.68
-4 -4 -3 13.56 0.67
4 -4 3 14.25 0.75
-4 4 -3 13.88 0.69
-4 4 -3 13.38 0.64
4 4 3 13.45 0.67
-4 4 -3 12.82 0.71
4 4 3 12.83 0.7
4 4 3 12.72 0.63
5 -4 3 1.85 0.29
5 -4 3 2.05 0.15
-5 -4 -3 1.83 0.23
5 -4 3 1.85 0.2
5 -4 3 2.06 0.26
5 -4 3 1.75 0.2
-5 -4 -3 2.11 0.25
-5 -4 -3 1.97 0.19
-5 -4 -3 1.99 0.23
-5 -4 -3 1.88 0.18
-5 -4 -3 1.97 0.2
5 -4 3 2.08 0.2
-5 -4 -3 1.93 0.23
5 -4 3 1.71 0.2
-5 -4 -3 2.14 0.29
5 4 3 1.87 0.22
5 4 3 2.02 0.31
5 4 3 2.08 0.24
-5 4 -3 1.91 0.25
5 4 3 1.93 0.28
5 4 3 1.74 0.24
5 4 3 1.91 0.18
-5 4 -3 1.78 0.19
-6 -4 -3 5.83 0.39
6 -4 3 6.29 0.38
6 -4 3 6.1 0.34
-6 -4 -3 5.85 0.39
-6 -4 -3 6.25 0.45
-6 -4 -3 5.98 0.35
6 -4 3 6 0.36
6 -4 3 6.38 0.35
6 -4 3 5.66 0.34
6 -4 3 5.88 0.46
-6 -4 -3 6.03 0.33
-6 -4 -3 6.28 0.34
-6 -4 -3 6.27 0.4
-6 4 -3 5.7 0.39
6 4 3 6.4 0.41
6 4 3 6.09 0.43
6 4 3 6.68 0.34
6 4 3 6.32 0.38
6 4 3 6.54 0.47
7 -4 3 7.23 0.42
-7 -4 -3 6.76 0.45
-7 -4 -3 7.66 0.42
7 -4 3 7.47 0.38
7 -4 3 7.64 0.37
7 -4 3 7.92 0.61
7 -4 3 7.34 0.55
7 4 3 8.14 0.42
7 4 3 6.76 0.45
7 4 3 7.56 0.44
-7 4 -3 7.63 0.42
8 4 3 2.79 0.21
-8 4 -3 3.36 0.2
7 -5 -3 1.34 0.16
-7 -5 3 1.8 0.13
-7 -5 3 1.89 0.13
7 -5 -3 1.78 0.14
-7 -5 3 1.69 0.13
-7 -5 3 1.77 0.19
7 -5 -3 1.81 0.15
7 5 -3 1.83 0.21
7 5 -3 1.68 0.19
-6 -5 3 2.94 0.19
-6 -5 3 2.99 0.2
6 -5 -3 2.98 0.24
-6 -5 3 2.7 0.2
6 -5 -3 3.01 0.23
6 -5 -3 2.95 0.22
-6 -5 3 2.66 0.27
-6 -5 3 2.75 0.2
-6 5 3 3.35 0.24
-6 5 3 2.89 0.23
6 5 -3 2.84 0.29
5 -5 -3 11.32 0.68
-5 -5 3 11.02 0.56
-5 -5 3 10.09 0.49
5 -5 -3 9.61 0.52
-5 -5 3 9.65 0.49
5 -5 -3 10.6 0.55
-5 -5 3 10.07 0.5
5 -5 -3 10.19 0.52
5 -5 -3 10.27 0.49
-5 -5 3 9.27 0.48
-5 -5 3 10.35 0.59
-5 5 3 9.56 0.61
5 5 -3 10.25 0.6
-5 5 3 9.46 1.05
-5 5 3 9.37 0.53
-5 5 3 9.75 0.53
-5 5 3 9.07 0.53
5 5 -3 8.43 0.53
-4 -5 3 14.44 0.68
4 -5 -3 14.7 0.71
-4 -5 3 14.56 0.69
-4 -5 3 14.11 0.68
-4 -5 3 14.94 0.74
4 -5 -3 14.69 0.71
4 -5 -3 14.13 0.68
-4 -5 3 14.79 0.78
-4 -5 3 13.53 0.68
-4 5 3 12.08 0.69
-4 5 3 15.08 0.77
-4 5 3 15.92 0.76
4 5 -3 13.46 0.73
-4 5 3 14.4 0.72
-4 5 3 14.61 0.72
3 -5 -3 33.74 1.54
-3 -5 3 40.15 1.73
-3 -5 3 33.91 1.59
-3 -5 3 34.82 1.56
3 -5 -3 33.06 1.61
-3 -5 3 32 1.54
-3 5 3 34.72 1.56
-3 5 3 33.8 1.62
-3 5 3 33.66 1.61
3 5 -3 32.89 1.59
-2 -5 3 10.87 0.59
-2 -5 3 10.83 0.58
-2 -5 3 11.18 0.57
2 -5 -3 11.07 0.62
2 -5 -3 11.7 0.55
2 -5 -3 10.45 0.54
-2 -5 3 11.49 0.56
-2 5 3 10.96 0.54
2 5 -3 11.67 0.6
2 5 -3 11.09 0.63
-2 5 3 11.27 0.58
-2 5 3 11.2 0.61
1 -5 -3 5.05 0.28
-1 -5 3 4.95 0.33
-1 -5 3 5.01 0.31
-1 -5 3 5.66 0.39
1 -5 -3 5.32 0.38
-1 -5 3 4.65 0.33
-1 -5 3 5.21 0.27
1 -5 -3 4.77 0.35
1 -5 -3 5.02 0.35
-1 -5 3 4.96 0.32
1 -5 -3 4.95 0.34
-1 5 3 5.38 0.34
-1 5 3 4.79 0.35
1 5 -3 4.63 0.36
-1 5 3 5.96 0.3
1 5 -3 4.78 0.33
0 -5 3 38.49 1.88
0 -5 3 40.53 1.83
0 -5 -3 39.79 1.9
0 -5 -3 41.45 1.83
0 -5 3 40.62 1.93
0 -5 -3 39.29 1.96
0 -5 -3 43.35 1.88
0 -5 -3 41.31 1.85
0 -5 -3 36.35 1.89
0 -5 -3 43.45 1.89
0 5 -3 42.1 1.89
0 5 3 41.22 1.9
0 5 3 45.55 1.87
0 5 -3 38.49 1.92
0 5 3 42.02 1.84
-1 -5 -3 24.26 1.13
1 -5 3 27.85 1.14
-1 -5 -3 24.62 1.26
-1 -5 -3 24.65 1.16
-1 -5 -3 25.89 1.21
1 -5 3 24.03 1.27
1 -5 3 23.97 1.17
-1 -5 -3 24.29 1.17
-1 -5 -3 24.78 1.18
-1 -5 -3 25.6 1.14
1 -5 3 26.18 1.21
1 -5 3 23.08 1.15
1 5 3 25.15 1.14
1 5 3 23.29 1.14
-1 5 -3 25.01 1.24
1 5 3 24.22 1.2
-1 5 -3 23.92 1.19
1 5 3 26.16 1.17
-2 -5 -3 3.54 0.92
2 -5 3 2.97 0.22
2 -5 3 2.75 0.25
2 -5 3 2.47 0.25
-2 -5 -3 2.97 0.21
-2 -5 -3 2.9 0.28
-2 -5 -3 2.88 0.25
-2 -5 -3 2.74 0.32
-2 -5 -3 2.7 0.2
-2 -5 -3 3.24 0.26
2 -5 3 3.22 0.3
-2 5 -3 2.43 0.26
2 5 3 2.45 0.22
2 5 3 2.34 0.26
2 5 3 2.56 0.24
-2 5 -3 2.72 0.21
-2 5 -3 2.97 0.31
-3 -5 -3 35.32 1.61
-3 -5 -3 34.61 1.83
-3 -5 -3 31.87 1.56
-3 -5 -3 33.76 1.81
-3 -5 -3 35.14 1.6
-3 -5 -3 36.74 1.59
-3 -5 -3 35.38 1.59
-3 -5 -3 32.88 1.56
3 -5 3 35.82 1.65
3 -5 3 33.46 1.66
3 -5 3 33.87 1.58
3 -5 3 37.03 1.57
3 5 3 35.62 1.63
3 5 3 35 1.56
3 5 3 34.57 1.59
3 5 3 34.92 1.72
3 5 3 33.36 1.59
3 5 3 33.03 1.65
-3 5 -3 31.41 1.64
-3 5 -3 35.64 1.56
-3 5 -3 34.53 1.62
-3 5 -3 34.2 1.59
4 -5 3 10.6 0.63
4 -5 3 10.19 0.63
4 -5 3 11.01 0.52
4 -5 3 10.33 0.54
-4 -5 -3 9.89 0.58
4 -5 3 9.98 0.57
4 -5 3 10.47 0.54
-4 -5 -3 10.55 0.58
-4 -5 -3 10.6 0.55
-4 -5 -3 10.99 0.55
-4 5 -3 10.23 0.52
-4 5 -3 10.18 0.62
4 5 3 11.98 0.69
4 5 3 10.24 0.52
-4 5 -3 9.71 0.59
4 5 3 10.5 0.62
4 5 3 10.69 0.6
4 5 3 9.83 0.56
5 -5 3 3.63 0.23
-5 -5 -3 3.38 0.28
5 -5 3 3.55 0.35
5 -5 3 3.91 0.25
-5 -5 -3 3.64 0.24
-5 -5 -3 3.28 0.3
-5 -5 -3 3.24 0.29
5 -5 3 4.22 0.26
5 -5 3 3.47 0.25
-5 5 -3 3.48 0.3
5 5 3 3.84 0.24
-5 5 -3 2.5 0.34
5 5 3 3.79 0.35
-5 5 -3 3.16 0.23
5 5 3 3.27 0.3
5 5 3 3.39 0.32
5 5 3 3.29 0.26
-6 -5 -3 3.25 0.28
6 -5 3 2.91 0.19
-6 -5 -3 3.12 0.25
6 5 3 2.51 0.27
6 5 3 3.18 0.23
6 5 3 3.11 0.26
-6 5 -3 3.36 0.26
-7 -5 -3 0.49 0.12
-7 -5 -3 0.71 0.14
-7 5 -3 0.89 0.14
7 5 3 0.63 0.11
-5 -6 3 8.7 0.42
5 -6 -3 8.75 0.43
5 -6 -3 8.62 0.43
-5 -6 3 7.5 0.47
-5 -6 3 9.04 0.42
-5 6 3 8.95 0.45
5 6 -3 8.87 0.54
5 6 -3 8.99 0.5
-4 -6 3 3.88 0.23
4 -6 -3 3.52 0.47
4 -6 -3 3.5 0.22
4 -6 -3 3.83 0.25
4 -6 -3 4.06 0.25
-4 -6 3 3.61 0.3
-4 -6 3 3.72 0.22
-4 6 3 3.99 0.28
4 6 -3 4.01 0.33
3 -6 -3 0.71 0.12
3 -6 -3 0.65 0.12
-3 -6 3 0.64 0.15
-3 -6 3 0.49 0.13
-3 -6 3 0.9 0.26
3 -6 -3 0.74 0.16
3 -6 -3 0.77 0.17
-3 -6 3 0.84 0.2
-3 -6 3 0.7 0.15
-3 -6 3 0.85 0.15
-3 6 3 0.78 0.17
3 6 -3 0.46 0.14
3 6 -3 0.68 0.24
-3 6 3 0.92 0.21
-3 6 3 0.66 0.22
-3 6 3 0.58 0.16
2 -6 -3 19.85 1.02
-2 -6 3 22.71 1.01
2 -6 -3 22.89 1
-2 -6 3 25.93 1.8
2 -6 -3 20.8 1.08
2 -6 -3 22.75 1.03
2 -6 -3 21.3 1.02
-2 -6 3 22.6 1.03
-2 -6 3 23.24 1.14
-2 -6 3 21.1 1.08
-2 6 3 21.21 1.05
2 6 -3 21.02 1.1
-2 6 3 22.39 1.06
2 6 -3 22.29 1.07
-2 6 3 20.82 1.04
-1 -6 3 3.52 0.53
-1 -6 3 3.26 0.23
1 -6 -3 3.81 0.28
1 -6 -3 3.46 0.25
-1 -6 3 3.41 0.37
1 -6 -3 3.33 0.26
1 -6 -3 3.4 0.34
1 -6 -3 3.33 0.3
1 -6 -3 3.68 0.86
1 -6 -3 3.34 0.21
-1 -6 3 3.27 0.28
1 -6 -3 3.29 0.25
-1 6 3 3.13 0.28
1 6 -3 3.03 0.28
1 6 -3 3.41 0.34
-1 6 3 3.53 0.28
-1 6 3 3.38 0.28
-1 6 3 3.85 0.23
0 -6 -3 0.32 0.3
0 -6 -3 0.25 0.18
0 -6 -3 0.29 0.14
0 -6 -3 0.66 0.19
0 -6 3 0.26 0.34
0 -6 3 0.03 0.13
0 -6 -3 0.31 0.17
0 -6 -3 0.24 0.09
0 -6 3 0.19 0.2
0 -6 3 0.33 0.1
0 -6 -3 0.34 0.12
0 -6 -3 0.31 0.13
0 -6 3 0.31 0.13
0 -6 -3 0.32 0.11
0 -6 -3 0.38 0.35
0 6 3 0.24 0.09
0 6 3 0.29 0.15
0 6 3 0.47 0.15
0 6 -3 0.28 0.13
0 6 3 0.27 0.17
0 6 -3 0.22 0.18
0 6 -3 0.36 0.19
-1 -6 -3 9.57 0.54
-1 -6 -3 9.84 0.5
-1 -6 -3 9.97 0.64
1 -6 3 10.75 0.63
1 -6 3 10.74 0.5
1 -6 3 10.29 0.56
1 -6 3 9.63 0.48
-1 -6 -3 10.49 0.51
-1 -6 -3 10.18 0.57
1 -6 3 10.21 0.53
-1 -6 -3 9.76 0.54
-1 -6 -3 10.14 0.53
1 -6 3 9.44 0.84
1 6 3 9.27 0.59
-1 6 -3 10.66 0.62
-1 6 -3 10.32 0.57
1 6 3 9.97 0.57
-1 6 -3 9.19 0.51
-1 6 -3 11.19 0.68
1 6 3 9.16 0.62
1 6 3 10.86 0.5
1 6 3 10.3 0.54
2 -6 3 0.93 0.24
-2 -6 -3 1.21 0.21
-2 -6 -3 1.23 0.3
2 -6 3 1.42 0.24
2 -6 3 1.32 0.41
2 -6 3 1.18 0.18
-2 -6 -3 1.31 0.24
-2 -6 -3 1.25 0.18
2 6 3 1.21 0.22
2 6 3 1.08 0.16
-2 6 -3 1.2 0.27
-2 6 -3 1.21 0.17
2 6 3 1.19 0.25
2 6 3 1.14 0.18
2 6 3 1.39 0.26
-2 6 -3 0.97 0.21
-3 -6 -3 0.4 0.16
3 -6 3 0.21 0.08
3 -6 3 0.07 0.11
-3 -6 -3 0.08 0.2
3 -6 3 0.14 0.18
-3 -6 -3 0.25 0.15
3 -6 3 -0.13 0.15
-3 -6 -3 0.03 0.1
3 6 3 0.07 0.09
-3 6 -3 0.08 0.15
3 6 3 -0.04 0.14
3 6 3 0 0.14
3 6 3 0.05 0.11
-3 6 -3 -0.07 0.12
-3 6 -3 0.21 0.1
3 6 3 0.03 0.15
-4 -6 -3 9.93 0.54
4 -6 3 11.02 0.51
4 6 3 10.13 0.56
4 6 3 10.12 0.59
4 6 3 9.58 0.52
-5 -6 -3 3.01 0.21
5 -6 3 2.53 0.18
-5 6 -3 3.49 0.23
5 6 3 3.13 0.2
5 6 3 2.35 0.22
-3 -7 3 1.12 0.14
-3 -7 3 1.39 0.19
-3 -7 3 1.26 0.11
3 -7 -3 1.29 0.15
-3 -7 3 1.5 0.12
-3 -7 3 1.45 0.12
3 -7 -3 0.89 0.28
-3 7 3 1.42 0.16
3 7 -3 1.3 0.2
3 7 -3 1.37 0.18
-2 -7 3 6.78 0.35
2 -7 -3 8.16 0.63
-2 -7 3 7.25 0.36
-2 -7 3 7.52 0.38
2 -7 -3 8.05 0.39
-2 -7 3 7.38 0.45
-2 7 3 6.81 0.39
2 7 -3 7.27 0.43
-2 7 3 7.28 0.39
2 7 -3 6.26 0.46
-1 -7 3 1.82 0.18
-1 -7 3 1.95 0.15
1 -7 -3 1.83 0.19
1 -7 -3 1.4 0.37
-1 -7 3 2.24 0.4
-1 -7 3 1.38 0.23
1 7 -3 1.67 0.25
-1 7 3 1.84 0.2
1 7 -3 1.76 0.23
-1 7 3 1.89 0.2
0 -7 3 0.02 0.09
0 -7 3 0.07 0.15
0 -7 -3 0.02 0.09
0 -7 -3 0.06 0.24
0 -7 3 -0.02 0.07
0 -7 -3 -0.05 0.14
0 -7 3 0.02 0.25
0 7 3 0.05 0.11
0 7 -3 0.13 0.15
0 7 -3 0 0.13
0 7 3 0.11 0.11
-1 -7 -3 1.22 0.16
1 -7 3 1.17 0.15
1 -7 3 0.85 0.21
1 -7 3 1.39 0.36
-1 -7 -3 1.13 0.22
1 -7 3 1.25 0.13
1 7 3 1.13 0.18
1 7 3 1.01 0.18
-1 7 -3 0.92 0.21
2 -7 3 2.41 0.17
-2 -7 -3 2.31 0.27
2 -7 3 1.76 0.23
2 -7 3 2.04 0.36
-2 -7 -3 2.44 0.18
2 7 3 2.02 0.19
-2 7 -3 1.97 0.22
-3 -7 -3 0.03 0.08
3 -7 3 -0.02 0.1
-3 -7 -3 -0.03 0.12
3 -7 3 0.03 0.06
3 7 3 0.02 0.08
3 7 3 -0.02 0.09
-9 0 4 0.06 0.09
-9 0 4 0.08 0.17
9 0 -4 0.09 0.13
-9 0 4 0 0.08
9 0 -4 0.04 0.12
-8 0 4 5.43 0.5
8 0 -4 7.04 0.44
-8 0 4 6.65 0.37
8 0 -4 6.4 0.41
8 0 -4 6.51 0.54
-8 0 4 5.77 0.4
-8 0 4 6.77 0.48
7 0 -4 14.82 0.85
-7 0 4 14.31 0.72
-7 0 4 14.82 0.76
-7 0 4 14.34 0.85
-7 0 4 14.28 0.73
-7 0 4 13.36 0.7
7 0 -4 16.49 0.77
-7 0 4 14.99 0.68
-6 0 4 39.52 1.92
-6 0 4 40.54 1.79
-6 0 4 37.74 1.84
-6 0 4 42.81 1.84
6 0 -4 42.62 1.88
-6 0 4 41.3 1.82
6 0 -4 40.28 1.85
-6 0 4 38.09 1.89
5 0 -4 20.68 0.97
-5 0 4 19.43 0.97
5 0 -4 21.76 0.97
5 0 -4 20.48 0.98
5 0 -4 20.56 1
5 0 -4 22.63 1.01
-5 0 4 20.09 0.94
-5 0 4 20.85 1.02
-5 0 4 20.92 1.03
-4 0 4 0.72 0.17
4 0 -4 0.66 0.12
-4 0 4 0.82 0.13
4 0 -4 0.96 0.11
-4 0 4 0.73 0.1
4 0 -4 0.81 0.14
4 0 -4 0.85 0.1
-4 0 4 0.93 0.14
-4 0 4 0.98 0.11
-4 0 4 0.78 0.16
4 0 -4 0.73 0.14
-4 0 4 0.91 0.1
3 0 -4 4.62 0.23
-3 0 4 4.08 0.25
-3 0 4 4.63 0.24
-3 0 4 4.73 0.22
3 0 -4 4.29 0.26
3 0 -4 4.44 0.25
-3 0 4 4.58 0.27
3 0 -4 4.77 0.24
3 0 -4 4.7 0.24
-3 0 4 4.46 0.25
3 0 -4 4.7 0.2
-3 0 4 4.6 0.25
-2 0 4 288.14 12.16
-2 0 4 279.66 12.15
2 0 -4 272.61 12.15
-2 0 4 281.94 12.13
2 0 -4 276.71 12.15
-2 0 4 276.57 12.14
2 0 -4 271.18 12.13
-2 0 4 258.11 12.15
2 0 -4 285.54 12.16
-2 0 4 279.85 12.15
-2 0 4 278.01 12.15
-2 0 4 294.75 12.15
-1 0 4 166.69 7.55
1 0 -4 172.76 7.53
-1 0 4 170.45 7.54
1 0 -4 175.29 7.55
1 0 -4 168.81 7.54
-1 0 4 177.44 7.54
-1 0 4 176.66 7.53
1 0 -4 174.12 7.55
-1 0 4 171.48 7.53
1 0 -4 170.72 7.54
1 0 -4 170.26 7.55
1 0 -4 169.85 7.54
1 0 -4 188.51 7.53
1 0 -4 168.93 7.54
0 0 -4 856.91 39.95
0 0 4 904.85 39.98
0 0 -4 870.75 39.96
0 0 4 991.57 39.95
0 0 -4 884.3 39.95
0 0 -4 873.35 39.97
0 0 4 930.78 39.96
0 0 4 900.96 39.96
0 0 4 950.22 39.96
0 0 4 980.13 39.96
0 0 4 853.56 39.93
0 0 -4 1000 39.97
0 0 -4 923.59 39.96
-1 0 -4 170.87 8.05
-1 0 -4 175.31 8.05
1 0 4 186.89 8.05
1 0 4 182.62 8.06
-1 0 -4 190.59 8.04
1 0 4 187.62 8.05
1 0 4 187.13 8.05
-1 0 -4 197.99 8.05
1 0 4 179.79 8.04
1 0 4 182.09 8.06
-1 0 -4 188.55 8.05
1 0 4 177.87 8.02
-1 0 -4 186.12 8.05
2 0 4 23.46 1.31
-2 0 -4 26.44 1.22
-2 0 -4 29.69 1.24
2 0 4 26.3 1.18
2 0 4 28.32 1.25
2 0 4 26.22 1.21
2 0 4 27.58 1.22
2 0 4 27.15 1.22
2 0 4 25.61 1.24
-2 0 -4 29.06 1.27
-2 0 -4 28.09 1.22
2 0 4 27.06 1.22
3 0 4 72.22 3.38
3 0 4 78.74 3.4
-3 0 -4 79.96 3.38
3 0 4 73.68 3.36
3 0 4 78.81 3.38
-3 0 -4 79.05 3.37
-3 0 -4 78.42 3.36
3 0 4 72.82 3.31
3 0 4 73.58 3.33
3 0 4 74.94 3.35
-3 0 -4 73.12 3.36
-4 0 -4 94.79 4.32
4 0 4 96.92 4.29
4 0 4 97.84 4.37
4 0 4 100.75 4.31
-5 0 -4 0.19 0.14
-5 0 -4 0.08 0.16
5 0 4 0.21 0.1
5 0 4 0.09 0.1
-5 0 -4 0.11 0.08
5 0 4 0.04 0.06
-5 0 -4 0.05 0.13
-6 0 -4 13.52 0.66
-6 0 -4 11.61 0.66
-6 0 -4 12.71 0.68
-6 0 -4 12.02 0.73
-6 0 -4 12.85 0.62
6 0 4 11.79 0.66
6 0 4 13.39 0.6
6 0 4 13 0.63
-7 0 -4 27.87 1.31
-7 0 -4 26.4 1.28
7 0 4 23.01 1.35
-7 0 -4 29.24 1.33
-7 0 -4 30.84 1.32
7 0 4 26.1 1.44
7 0 4 26.06 1.27
-7 0 -4 28.28 1.35
7 0 4 30.13 1.23
7 0 4 26.93 1.26
7 0 4 25.97 1.26
-7 0 -4 28.26 1.24
-8 0 -4 1.51 0.2
-8 0 -4 1.48 0.25
-8 0 -4 1.71 0.28
-8 0 -4 1.53 0.19
-8 0 -4 1.67 0.19
-8 0 -4 1.43 0.2
8 0 4 1.63 0.19
8 0 4 1.5 0.21
9 0 4 6.86 0.37
9 0 4 7.12 0.37
-9 0 -4 7.41 0.36
9 -1 -4 5.35 0.34
-9 -1 4 4.94 0.26
-9 -1 4 4.83 0.35
9 -1 -4 4.35 0.31
-9 -1 4 4.57 0.26
-9 -1 4 4.77 0.27
-9 1 4 4.86 0.27
9 1 -4 5.59 0.32
-9 1 4 4.59 0.35
9 1 -4 4.43 0.34
8 -1 -4 0.35 0.16
-8 -1 4 0.39 0.1
8 -1 -4 0.23 0.15
-8 -1 4 0.31 0.22
8 -1 -4 0.36 0.09
-8 -1 4 0.14 0.11
-8 -1 4 0.51 0.14
8 -1 -4 0.44 0.21
-8 -1 4 0.59 0.14
8 1 -4 0.19 0.15
-8 1 4 0.38 0.12
-8 1 4 0.2 0.17
8 1 -4 0.46 0.21
-8 1 4 0.47 0.12
-8 1 4 0.26 0.28
-8 1 4 0.31 0.25
-7 -1 4 46.85 2.16
-7 -1 4 46.96 2.06
-7 -1 4 39.61 2.08
7 -1 -4 46.7 2.12
-7 -1 4 46.71 2.05
7 -1 -4 48.88 2.11
-7 -1 4 46.53 2.04
-7 1 4 44.47 2.03
-7 1 4 45.3 2.21
7 1 -4 44.92 2.09
-7 1 4 45.86 2.05
-7 1 4 45.24 2.16
-7 1 4 45.76 2.11
-7 1 4 46.43 2.09
-6 -1 4 13.4 0.69
-6 -1 4 14.41 0.75
-6 -1 4 14.47 0.81
-6 -1 4 14.99 0.71
-6 -1 4 16.01 0.74
-6 -1 4 15.72 0.71
6 -1 -4 13.81 0.77
6 -1 -4 14.3 0.74
6 1 -4 15.14 0.74
6 1 -4 15.5 0.76
-6 1 4 16.35 0.7
-6 1 4 14.89 0.75
-6 1 4 12.31 0.71
-6 1 4 12.92 0.71
-6 1 4 14.54 0.81
-5 -1 4 7.48 0.38
-5 -1 4 7.37 0.46
5 -1 -4 7.28 0.41
-5 -1 4 6.57 0.37
-5 -1 4 7.51 0.39
-5 -1 4 7.56 0.42
5 -1 -4 7.24 0.43
5 -1 -4 6.57 0.39
5 -1 -4 7.27 0.4
5 -1 -4 6.88 0.43
-5 1 4 7.55 0.39
-5 1 4 7.45 0.38
5 1 -4 7.27 0.39
-5 1 4 7.38 0.47
5 1 -4 7.16 0.42
-5 1 4 7.43 0.42
5 1 -4 7.55 0.42
5 1 -4 7.66 0.39
-5 1 4 7.16 0.42
-5 1 4 7.57 0.42
-5 1 4 6.82 0.37
-4 -1 4 9.62 0.51
-4 -1 4 9.6 0.45
-4 -1 4 8.76 0.5
-4 -1 4 9.1 0.44
-4 -1 4 9.22 0.47
4 -1 -4 9.39 0.49
-4 -1 4 9.81 0.45
4 -1 -4 9.49 0.46
4 -1 -4 9.06 0.48
-4 -1 4 8.79 0.43
4 -1 -4 8.9 0.46
-4 1 4 9.81 0.47
4 1 -4 8.81 0.44
4 1 -4 9.35 0.47
4 1 -4 9.56 0.46
-4 1 4 8.17 0.45
-4 1 4 8.94 0.45
-4 1 4 9.36 0.48
4 1 -4 9.25 0.45
-4 1 4 8.64 0.48
-4 1 4 9.3 0.52
-4 1 4 9.17 0.5
3 -1 -4 133.74 5.52
3 -1 -4 128.75 5.5
3 -1 -4 125.18 5.5
-3 -1 4 122.27 5.48
-3 -1 4 123.28 5.53
-3 -1 4 122.27 5.49
-3 -1 4 121.77 5.48
-3 -1 4 126.64 5.49
-3 -1 4 118.12 5.53
3 -1 -4 134.21 5.52
-3 -1 4 121.89 5.48
3 -1 -4 124.98 5.53
3 1 -4 127.42 5.46
3 1 -4 128.24 5.5
-3 1 4 124.61 5.49
3 1 -4 119.79 5.5
-3 1 4 121.02 5.54
3 1 -4 121.69 5.48
-3 1 4 131.22 5.52
3 1 -4 127.46 5.49
-3 1 4 125.98 5.51
-3 1 4 125.13 5.5
-3 1 4 127.17 5.51
-3 1 4 127.58 5.53
-2 -1 4 91.08 4.2
2 -1 -4 96.37 4.25
2 -1 -4 95.95 4.23
2 -1 -4 97.03 4.24
2 -1 -4 88.72 4.24
-2 -1 4 96.64 4.23
2 -1 -4 101.54 4.23
2 -1 -4 94.13 4.2
-2 -1 4 99.95 4.21
-2 1 4 96.15 4.24
-2 1 4 94.94 4.26
-2 1 4 94.7 4.22
-2 1 4 93.62 4.25
2 1 -4 96.91 4.21
2 1 -4 97.97 4.22
-2 1 4 97.98 4.24
2 1 -4 96.11 4.2
-2 1 4 99.88 4.23
2 1 -4 102.51 4.21
1 -1 -4 62.99 2.65
1 -1 -4 62.58 2.66
-1 -1 4 59.87 2.65
1 -1 -4 58.16 2.66
1 -1 -4 58.53 2.65
1 -1 -4 61.57 2.65
-1 1 4 65.83 2.64
1 1 -4 63 2.62
1 1 -4 60.58 2.62
1 1 -4 57.78 2.62
-1 1 4 59.62 2.66
1 1 -4 58.12 2.62
1 1 -4 58.73 2.65
-1 1 4 59 2.63
-1 1 4 58.58 2.67
-1 1 4 62.19 2.65
-1 1 4 57.68 2.66
-1 1 4 58.41 2.62
-1 1 4 58.4 2.64
0 -1 4 67.17 2.97
0 -1 4 60.48 2.96
0 -1 4 65.36 2.96
0 -1 4 60.83 2.96
0 -1 -4 66.52 2.98
0 -1 4 70.97 2.97
0 -1 -4 68.09 2.98
0 -1 -4 74.17 3
0 -1 4 67.53 2.97
0 -1 -4 64.82 2.98
0 -1 -4 68.82 2.99
0 -1 -4 70.55 3.09
0 -1 4 67.9 2.98
0 -1 -4 68.06 3
0 1 4 70.87 2.98
0 1 4 70.14 3
0 1 -4 68.08 2.97
0 1 -4 64.44 2.97
0 1 4 66.33 2.98
0 1 -4 68.8 2.97
0 1 4 69.6 2.97
0 1 4 70.22 2.99
0 1 4 65.47 3
0 1 -4 70.68 2.97
0 1 -4 70.15 2.97
0 1 4 67.43 2.99
0 1 4 68.96 2.99
1 -1 4 32.17 1.36
1 -1 4 31.24 1.39
-1 -1 -4 32.1 1.39
1 -1 4 31.06 1.37
1 -1 4 33.98 1.37
1 -1 4 32.66 1.39
1 -1 4 29.58 1.36
-1 -1 -4 29.41 1.38
-1 -1 -4 29.59 1.37
-1 -1 -4 31.54 1.37
-1 -1 -4 31.03 1.37
1 1 4 31.74 1.37
1 1 4 29.51 1.37
-1 1 -4 28.54 1.43
-1 1 -4 30.62 1.36
-1 1 -4 30.71 1.36
1 1 4 29.06 1.39
1 1 4 29.95 1.37
-1 1 -4 30.29 1.37
1 1 4 30.42 1.37
-1 1 -4 27.24 1.36
1 1 4 30.19 1.37
1 1 4 33.17 1.4
1 1 4 30.13 1.39
2 -1 4 67.94 2.92
2 -1 4 67.36 2.91
2 -1 4 64.99 2.95
-2 -1 -4 66.88 2.95
-2 -1 -4 66.64 2.94
-2 -1 -4 67.9 2.93
-2 -1 -4 62.45 2.93
2 -1 4 67.97 2.94
2 -1 4 66.48 2.91
-2 -1 -4 68.49 2.93
2 1 4 65.13 2.92
2 1 4 65.2 2.94
2 1 4 64.23 2.88
2 1 4 62.67 2.92
-2 1 -4 63.86 2.93
2 1 4 71.5 2.95
2 1 4 66.88 2.92
2 1 4 63.38 2.92
-2 1 -4 64.8 2.92
-2 1 -4 66.87 2.92
-2 1 -4 65.34 2.94
-3 -1 -4 30.45 1.37
3 -1 4 28.63 1.38
-3 -1 -4 31.3 1.35
3 -1 4 29.11 1.37
-3 -1 -4 28.41 1.38
3 -1 4 28.68 1.35
3 -1 4 31.22 1.35
3 -1 4 29.62 1.33
-3 -1 -4 27.67 1.36
-3 -1 -4 29.41 1.35
-3 1 -4 31.84 1.37
-3 1 -4 29.56 1.39
-3 1 -4 30.55 1.36
3 1 4 27.97 1.36
3 1 4 29.57 1.36
3 1 4 29.6 1.39
3 1 4 30.1 1.37
3 1 4 30.5 1.36
-3 1 -4 29.27 1.37
-3 1 -4 33.85 1.38
3 1 4 29.49 1.34
-4 -1 -4 22.93 1.12
-4 -1 -4 26.49 1.11
4 -1 4 25.73 1.2
4 -1 4 23.71 1.14
4 -1 4 25.54 1.09
4 -1 4 24.79 1.12
-4 -1 -4 21.97 1.11
-4 -1 -4 23.79 1.16
4 1 4 25.35 1.12
-4 1 -4 23.73 1.13
4 1 4 23.99 1.1
4 1 4 22.17 1.11
-4 1 -4 24.65 1.14
4 1 4 23.14 1.13
-5 -1 -4 9.14 0.45
-5 -1 -4 8.71 0.47
-5 -1 -4 9.07 0.54
5 -1 4 8.39 0.42
-5 -1 -4 8.56 0.42
5 -1 4 8.56 0.44
-5 -1 -4 8.13 0.49
5 1 4 7.88 0.48
5 1 4 9.1 0.46
-5 1 -4 9.76 0.49
5 1 4 9.02 0.42
-5 1 -4 8.74 0.43
-5 1 -4 8.35 0.48
6 -1 4 16.57 0.75
-6 -1 -4 15.08 0.77
-6 -1 -4 15.85 0.84
-6 -1 -4 17 0.81
-6 -1 -4 16.49 0.83
-6 -1 -4 15.61 0.91
6 -1 4 17.88 0.77
-6 -1 -4 15.97 0.89
6 1 4 15.66 0.78
6 1 4 14.7 0.81
-6 1 -4 15.23 0.75
-6 1 -4 16.61 0.83
-6 1 -4 15.89 0.78
-6 1 -4 16.7 0.89
6 1 4 17.17 0.75
-7 -1 -4 15.6 0.76
7 -1 4 15.41 0.76
7 -1 4 14.85 0.77
-7 -1 -4 16.75 0.86
-7 -1 -4 15.12 0.8
7 -1 4 16.45 0.82
-7 -1 -4 15.93 0.79
-7 -1 -4 15.27 0.78
-7 -1 -4 17.46 0.87
-7 -1 -4 15.2 0.8
-7 -1 -4 15.47 0.77
7 -1 4 14.5 0.76
-7 -1 -4 16.59 0.83
7 1 4 14.6 0.83
-7 1 -4 16.32 0.76
7 1 4 16.73 0.82
-7 1 -4 15.58 0.79
-7 1 -4 16.14 0.82
7 1 4 15.94 0.74
7 1 4 17.23 0.77
-7 1 -4 15.64 0.91
8 -1 4 4.53 0.29
8 -1 4 4.86 0.33
-8 -1 -4 4.53 0.28
-8 -1 -4 4.54 0.37
-8 -1 -4 4.81 0.36
8 -1 4 4.56 0.3
-8 -1 -4 4.3 0.35
8 -1 4 4.44 0.32
-8 -1 -4 4.35 0.28
-8 1 -4 5.3 0.38
-8 1 -4 4.64 0.3
8 1 4 4.39 0.31
8 1 4 4.74 0.31
-8 1 -4 4.55 0.29
9 -1 4 0.84 0.14
-9 -1 -4 0.82 0.12
9 -1 4 0.79 0.13
-9 1 -4 0.66 0.12
9 1 4 0.74 0.15
9 1 4 0.65 0.14
9 -2 -4 1.29 0.15
-9 -2 4 1.55 0.12
-9 -2 4 1.42 0.12
9 -2 -4 1.1 0.16
-9 -2 4 1.37 0.12
-9 -2 4 1.26 0.1
9 2 -4 1.21 0.18
-9 2 4 1.22 0.23
-9 2 4 1.16 0.14
9 2 -4 1.54 0.17
-9 2 4 0.78 0.2
8 -2 -4 1.78 0.23
-8 -2 4 1.7 0.16
8 -2 -4 1.81 0.25
-8 -2 4 2.12 0.19
-8 -2 4 1.6 0.16
-8 -2 4 1.51 0.18
-8 2 4 1.85 0.34
-8 2 4 1.79 0.26
8 2 -4 1.59 0.23
-8 2 4 1.66 0.31
-8 2 4 1.76 0.19
-8 2 4 1.48 0.15
7 -2 -4 2.08 0.18
7 -2 -4 2.73 0.28
7 -2 -4 2.48 0.31
-7 -2 4 2.46 0.19
-7 -2 4 2.31 0.2
-7 -2 4 2.68 0.21
7 -2 -4 2.25 0.25
7 -2 -4 2.56 0.28
-7 -2 4 2.16 0.21
-7 2 4 2.26 0.24
-7 2 4 2.43 0.32
-7 2 4 2.05 0.2
-7 2 4 2.28 0.26
-7 2 4 2.51 0.38
-7 2 4 2.34 0.31
7 2 -4 2.22 0.24
-6 -2 4 4.13 0.26
6 -2 -4 4.05 0.3
-6 -2 4 4.17 0.26
6 -2 -4 4.28 0.33
-6 -2 4 3.84 0.37
6 -2 -4 3.71 0.33
-6 2 4 3.82 0.27
-6 2 4 3.54 0.27
-6 2 4 3.99 0.34
-6 2 4 3.55 0.28
6 2 -4 3.66 0.3
-6 2 4 3.82 0.31
5 -2 -4 1.87 0.21
-5 -2 4 2.08 0.18
-5 -2 4 1.81 0.17
-5 -2 4 2.3 0.18
-5 -2 4 2.13 0.16
-5 -2 4 1.92 0.2
-5 -2 4 2.22 0.27
5 -2 -4 1.75 0.18
5 -2 -4 2.15 0.23
-5 2 4 2.14 0.3
5 2 -4 1.84 0.18
-5 2 4 2.01 0.24
-5 2 4 2.13 0.19
-5 2 4 2.24 0.22
-5 2 4 2.28 0.19
-5 2 4 2.06 0.23
-5 2 4 2.15 0.24
5 2 -4 2.48 0.21
-4 -2 4 9.76 0.45
-4 -2 4 9.49 0.46
4 -2 -4 8.99 0.49
4 -2 -4 9.55 0.52
4 -2 -4 9.57 0.5
-4 -2 4 9.52 0.54
4 -2 -4 9.89 0.49
4 -2 -4 9.75 0.52
-4 -2 4 8.9 0.46
-4 -2 4 9.62 0.47
-4 -2 4 10.23 0.47
4 2 -4 9.15 0.47
4 2 -4 8.76 0.47
-4 2 4 9.38 0.47
4 2 -4 9.53 0.49
-4 2 4 8.97 0.49
-4 2 4 9.79 0.53
-4 2 4 10.04 0.48
4 2 -4 9.73 0.49
-4 2 4 10.06 0.47
-4 2 4 9.13 0.51
-4 2 4 8.99 0.56
-3 -2 4 38.25 1.78
-3 -2 4 37.78 1.7
3 -2 -4 40.74 1.75
3 -2 -4 42.28 1.77
-3 -2 4 40.19 1.72
-3 -2 4 40.21 1.72
-3 -2 4 40.17 1.72
3 -2 -4 39.23 1.76
3 -2 -4 32.52 1.88
3 -2 -4 38.43 1.74
-3 2 4 37.21 1.76
3 2 -4 39.41 1.74
3 2 -4 37.42 1.72
-3 2 4 36.64 1.79
-3 2 4 38.83 1.74
3 2 -4 36.34 1.72
-3 2 4 39.28 1.74
-3 2 4 36.67 1.77
3 2 -4 38.83 1.72
-3 2 4 40.99 1.72
2 -2 -4 92.42 4.01
-2 -2 4 94.97 3.99
2 -2 -4 88.16 4.01
2 -2 -4 94.04 4
-2 -2 4 93.76 3.97
-2 -2 4 87.17 3.96
-2 -2 4 92.91 3.97
-2 -2 4 88.01 4.02
2 -2 -4 88.82 4.02
-2 -2 4 88.39 3.96
2 -2 -4 89.95 4
2 2 -4 91.23 3.98
-2 2 4 89.26 4.04
-2 2 4 85.19 3.97
2 2 -4 93.27 3.97
2 2 -4 88.34 3.97
-2 2 4 96.65 4.03
-2 2 4 91.8 3.99
-2 2 4 87.12 4
-1 -2 4 27.08 1.23
-1 -2 4 28.4 1.22
-1 -2 4 26.28 1.21
1 -2 -4 26.48 1.26
1 -2 -4 26.98 1.25
-1 -2 4 27.56 1.24
1 -2 -4 27.52 1.25
-1 -2 4 28.72 1.2
-1 -2 4 27.81 1.23
1 -2 -4 25.69 1.25
-1 -2 4 25.89 1.26
-1 -2 4 29.22 1.2
1 -2 -4 26.42 1.25
-1 2 4 26.9 1.24
1 2 -4 28.6 1.22
1 2 -4 27.38 1.23
1 2 -4 28.6 1.27
1 2 -4 26.08 1.22
1 2 -4 28.06 1.23
-1 2 4 29.3 1.26
-1 2 4 27.3 1.29
-1 2 4 27.18 1.27
-1 2 4 27.91 1.22
0 -2 4 60.71 2.84
0 -2 -4 64.73 2.87
0 -2 4 69.69 2.85
0 -2 -4 63.39 2.88
0 -2 4 67.57 2.86
0 -2 4 60.87 2.86
0 -2 -4 63.12 2.87
0 -2 -4 65.71 2.87
0 -2 4 60.02 2.85
0 -2 -4 66.52 2.87
0 -2 4 68.89 2.85
0 -2 -4 63.26 2.85
0 2 4 62 2.89
0 2 4 66.55 2.87
0 2 4 63.01 2.88
0 2 4 65.65 2.88
0 2 -4 70.69 2.86
0 2 4 65.54 2.84
0 2 -4 64.51 2.85
0 2 -4 67.36 2.85
0 2 4 61.15 2.87
0 2 -4 63.41 2.86
1 -2 4 14.87 0.74
1 -2 4 17.38 0.74
1 -2 4 16.5 0.73
-1 -2 -4 15.42 0.74
1 -2 4 16.24 0.77
-1 -2 -4 15.91 0.75
1 -2 4 15.36 0.74
-1 -2 -4 15.57 0.76
-1 -2 -4 16.33 0.73
-1 -2 -4 15.21 0.75
-1 2 -4 15.73 0.74
1 2 4 15.14 0.74
1 2 4 14.45 0.74
1 2 4 14.97 0.76
-1 2 -4 16.26 0.74
-1 2 -4 15.86 0.73
-1 2 -4 16.15 0.73
1 2 4 15.88 0.77
1 2 4 16.18 0.74
1 2 4 15.87 0.77
-1 2 -4 16.34 0.75
-2 -2 -4 2.57 0.2
2 -2 4 2.71 0.18
-2 -2 -4 3.04 0.21
-2 -2 -4 2.99 0.22
2 -2 4 2.61 0.21
2 -2 4 3.04 0.22
-2 -2 -4 2.56 0.21
2 -2 4 2.83 0.19
2 -2 4 3.02 0.26
2 -2 4 2.9 0.19
-2 -2 -4 2.94 0.2
-2 2 -4 2.98 0.2
-2 2 -4 3.03 0.22
2 2 4 2.88 0.21
2 2 4 2.86 0.2
-2 2 -4 2.93 0.22
2 2 4 3.1 0.24
-2 2 -4 3.12 0.22
-2 2 -4 2.57 0.19
2 2 4 2.69 0.19
2 2 4 2.92 0.2
2 2 4 2.97 0.23
2 2 4 2.75 0.18
-3 -2 -4 51.42 2.21
3 -2 4 49.06 2.25
3 -2 4 48.46 2.22
3 -2 4 48.47 2.2
-3 -2 -4 49.43 2.2
-3 -2 -4 51.59 2.22
3 -2 4 48.6 2.24
3 2 4 46.3 2.2
3 2 4 53.3 2.33
-3 2 -4 47.63 2.24
3 2 4 51.63 2.24
-3 2 -4 53.12 2.23
-3 2 -4 48.7 2.25
3 2 4 46.01 2.21
3 2 4 49.99 2.24
-4 -2 -4 77.82 3.33
4 -2 4 71.45 3.2
-4 -2 -4 74.87 3.16
4 -2 4 66.84 3.19
4 -2 4 72.37 3.19
4 -2 4 72.66 3.26
4 -2 4 72.4 3.16
-4 -2 -4 73.58 3.18
-4 -2 -4 72 3.2
4 -2 4 68.54 3.23
-4 2 -4 70.13 3.21
-4 2 -4 67.71 3.21
-4 2 -4 74.79 3.22
4 2 4 68.7 3.22
-4 2 -4 74.45 3.17
4 2 4 65.01 3.21
4 2 4 74.79 3.16
4 2 4 74.82 3.18
5 -2 4 1.5 0.39
5 -2 4 1.34 0.27
-5 -2 -4 1.55 0.2
5 -2 4 1.46 0.16
-5 -2 -4 2.04 0.23
-5 -2 -4 1.7 0.27
-5 -2 -4 1.35 0.22
-5 -2 -4 1.71 0.21
-5 -2 -4 1.47 0.21
5 2 4 1.6 0.21
5 2 4 1.61 0.15
-5 2 -4 1.65 0.22
5 2 4 1.89 0.19
-5 2 -4 1.64 0.16
6 -2 4 40.03 1.86
-6 -2 -4 41.81 1.8
-6 -2 -4 38.61 1.86
-6 -2 -4 44.32 1.89
-6 -2 -4 41.62 1.87
6 -2 4 38.84 1.82
-6 -2 -4 38.37 1.88
6 2 4 37.65 1.88
6 2 4 38.78 1.81
6 2 4 41.59 1.85
-6 2 -4 44.83 1.91
-6 2 -4 41.81 1.82
7 -2 4 8.64 0.46
7 -2 4 8.27 0.44
-7 -2 -4 8.14 0.44
-7 -2 -4 7.64 0.48
-7 -2 -4 8.24 0.45
-7 -2 -4 8.14 0.47
7 -2 4 7.95 0.44
-7 -2 -4 7.76 0.43
7 -2 4 8.53 0.48
-7 -2 -4 7.4 0.41
-7 -2 -4 8.19 0.52
-7 -2 -4 7.92 0.53
-7 -2 -4 7.79 0.44
-7 -2 -4 9.15 0.5
7 2 4 7.75 0.51
-7 2 -4 8.29 0.49
-7 2 -4 7.62 0.5
7 2 4 9.06 0.49
-7 2 -4 8.36 0.45
7 2 4 6.91 0.58
7 2 4 8.72 0.41
-7 2 -4 8.31 0.59
8 -2 4 1.71 0.19
8 -2 4 1.83 0.21
8 -2 4 1.8 0.19
-8 -2 -4 1.72 0.18
-8 -2 -4 1.92 0.25
-8 2 -4 1.73 0.21
-8 2 -4 1.89 0.48
8 2 4 1.23 0.33
-8 -3 4 7.56 0.37
-8 -3 4 7.58 0.36
-8 -3 4 7.53 0.36
8 -3 -4 5.77 0.4
-8 -3 4 7.48 0.35
8 -3 -4 6.19 0.42
8 -3 -4 7.65 0.41
-8 3 4 8.07 0.53
8 3 -4 6.57 0.42
-8 3 4 7.14 0.4
-7 -3 4 3.73 0.25
7 -3 -4 3.52 0.31
7 -3 -4 3.64 0.23
-7 -3 4 3.54 0.24
7 -3 -4 3.87 0.34
-7 -3 4 2.94 0.31
-7 -3 4 4.09 0.26
7 -3 -4 3.84 0.31
7 -3 -4 3.8 0.31
-7 -3 4 3.57 0.23
-7 3 4 4.12 0.27
-7 3 4 3.75 0.42
-7 3 4 4.26 0.38
-7 3 4 4.04 0.29
6 -3 -4 4.53 0.31
-6 -3 4 4.37 0.33
-6 -3 4 4.74 0.29
6 -3 -4 4.58 0.27
6 -3 -4 4.8 0.35
6 -3 -4 4.73 0.4
-6 -3 4 4.59 0.31
6 -3 -4 4.58 0.36
-6 -3 4 4.54 0.28
-6 -3 4 4.57 0.27
6 -3 -4 4.63 0.35
-6 -3 4 5.8 0.52
-6 -3 4 4.67 0.28
-6 3 4 4.87 0.49
-6 3 4 4.64 0.39
-6 3 4 5.04 0.32
-6 3 4 4.64 0.34
-6 3 4 4.48 0.32
-6 3 4 4.8 0.33
-5 -3 4 4.49 0.27
5 -3 -4 4.75 0.26
5 -3 -4 4.82 0.34
-5 -3 4 4.46 0.39
-5 -3 4 4.45 0.32
5 -3 -4 4.43 0.3
-5 -3 4 4.73 0.29
5 3 -4 4.05 0.32
-5 3 4 4.31 0.34
-5 3 4 4.47 0.37
-5 3 4 4.65 0.37
-5 3 4 6.01 0.9
-5 3 4 4.13 0.3
-5 3 4 4.39 0.32
4 -3 -4 36.91 1.72
4 -3 -4 34.97 1.72
-4 -3 4 37.79 1.78
-4 -3 4 37.7 1.65
-4 -3 4 35.27 1.67
4 -3 -4 36.78 1.67
4 -3 -4 40.07 1.7
-4 -3 4 35.96 1.71
-4 -3 4 38.22 1.65
-4 -3 4 36.76 1.68
4 -3 -4 39.48 1.78
-4 -3 4 36.23 1.68
-4 3 4 39.97 1.72
-4 3 4 34.7 1.74
-4 3 4 38.09 1.67
-4 3 4 34.91 1.74
4 3 -4 38.4 1.73
-4 3 4 38.12 1.7
-4 3 4 38.14 1.71
-4 3 4 40.45 1.79
-4 3 4 36.24 1.68
-3 -3 4 8.75 0.44
-3 -3 4 8.75 0.51
-3 -3 4 9.19 0.42
3 -3 -4 8.01 0.42
3 -3 -4 9.1 0.45
-3 -3 4 8.49 0.46
-3 -3 4 9.05 0.43
-3 -3 4 8.41 0.41
3 -3 -4 8.87 0.47
3 -3 -4 9.35 0.49
3 -3 -4 8.57 0.47
3 -3 -4 8.24 0.46
3 3 -4 8.76 0.44
-3 3 4 8.35 0.48
3 3 -4 8.65 0.46
-3 3 4 8.87 0.49
-3 3 4 9.03 0.52
-3 3 4 8.75 0.45
-3 3 4 8.44 0.43
3 3 -4 8.58 0.46
-3 3 4 9.08 0.47
-2 -3 4 17.49 0.77
-2 -3 4 17.37 0.77
2 -3 -4 16.76 0.8
2 -3 -4 16.02 0.77
-2 -3 4 15.85 0.73
-2 -3 4 15.95 0.82
-2 -3 4 16.62 0.73
-2 -3 4 17.27 0.76
2 -3 -4 16.36 0.81
-2 -3 4 16.47 0.78
-2 -3 4 17.19 0.75
2 -3 -4 16.69 0.79
-2 3 4 15.51 0.76
2 3 -4 16.12 0.77
-2 3 4 17.43 0.81
2 3 -4 16.55 0.77
2 3 -4 15.61 0.77
-2 3 4 15.3 0.78
-2 3 4 16.59 0.76
-2 3 4 16.26 0.83
2 3 -4 16.03 0.78
-2 3 4 15.67 0.79
-1 -3 4 18.76 0.82
-1 -3 4 17.52 0.81
-1 -3 4 18.38 0.8
-1 -3 4 16.58 0.81
1 -3 -4 17.58 0.81
1 -3 -4 18.69 0.83
-1 -3 4 16.91 0.79
-1 -3 4 17.71 0.85
1 -3 -4 15.92 0.85
1 -3 -4 15.66 0.82
1 3 -4 16.84 0.81
1 3 -4 16.88 0.8
1 3 -4 16.95 0.8
-1 3 4 17.9 0.84
1 3 -4 17.14 0.82
-1 3 4 16.91 0.82
-1 3 4 17.9 0.8
1 3 -4 17.61 0.81
-1 3 4 17.19 0.87
-1 3 4 17.5 0.83
-1 3 4 16.44 0.8
0 -3 4 24.74 1.12
0 -3 4 24.79 1.09
0 -3 4 23.99 1.09
0 -3 4 22.35 1.07
0 -3 4 25.05 1.1
0 -3 -4 23.9 1.11
0 -3 -4 22.14 1.08
0 -3 4 24.35 1.08
0 -3 -4 22.96 1.11
0 -3 -4 22.96 1.13
0 3 4 23.6 1.14
0 3 -4 25.38 1.09
0 3 4 25.22 1.12
0 3 4 21.28 1.1
0 3 -4 24.65 1.1
0 3 -4 22.33 1.1
0 3 -4 23.56 1.1
0 3 -4 24.24 1.09
0 3 4 24.13 1.07
0 3 4 23.79 1.08
-1 -3 -4 1.38 0.15
-1 -3 -4 1.24 0.16
1 -3 4 1.19 0.2
-1 -3 -4 1.21 0.13
1 -3 4 1.24 0.14
-1 -3 -4 1.31 0.14
-1 -3 -4 1.3 0.19
1 -3 4 1.32 0.15
1 -3 4 1.17 0.13
1 -3 4 1.02 0.14
-1 3 -4 1.35 0.15
1 3 4 0.79 0.18
-1 3 -4 1.1 0.15
1 3 4 1.11 0.15
1 3 4 1.21 0.16
1 3 4 1.28 0.13
1 3 4 1.28 0.17
-1 3 -4 1.63 0.17
-1 3 -4 1.26 0.14
2 -3 4 2.35 0.21
2 -3 4 2.15 0.2
2 -3 4 2.1 0.26
-2 -3 -4 2.23 0.19
-2 -3 -4 2.26 0.19
-2 -3 -4 1.87 0.19
2 -3 4 2.41 0.21
2 -3 4 2.73 0.15
-2 3 -4 2.45 0.2
-2 3 -4 2.53 0.2
2 3 4 2.24 0.21
2 3 4 2.11 0.2
2 3 4 2.36 0.18
-2 3 -4 2.17 0.21
-2 3 -4 2.35 0.21
-3 -3 -4 0.16 0.07
3 -3 4 0.06 0.11
3 -3 4 0.1 0.12
3 -3 4 0.05 0.09
-3 -3 -4 0.12 0.16
-3 -3 -4 0.21 0.11
3 -3 4 0.12 0.09
-3 -3 -4 0.26 0.13
3 3 4 0.01 0.11
3 3 4 0.17 0.13
3 3 4 0.03 0.15
3 3 4 0.18 0.11
-3 3 -4 0.2 0.13
-3 3 -4 0.1 0.09
-3 3 -4 0.14 0.11
-3 3 -4 -0.01 0.13
3 3 4 0.24 0.08
-3 3 -4 0.01 0.11
-4 -3 -4 12.37 0.64
4 -3 4 12.97 0.69
4 -3 4 11.59 0.67
4 -3 4 13.7 0.62
-4 -3 -4 12.24 0.64
4 -3 4 12.13 0.62
4 -3 4 12.61 0.62
-4 -3 -4 12.48 0.64
-4 -3 -4 13.55 0.65
4 -3 4 13.11 0.7
-4 -3 -4 12.99 0.74
-4 -3 -4 13.14 0.62
4 3 4 12.02 0.66
4 3 4 12.67 0.6
-4 3 -4 11.73 0.65
-4 3 -4 12.83 0.6
4 3 4 12.69 0.62
-4 3 -4 10.66 0.67
-4 3 -4 12.25 0.64
5 -3 4 38.52 1.78
5 -3 4 39.71 1.8
-5 -3 -4 39.51 1.83
5 -3 4 38.96 1.88
-5 -3 -4 40.42 1.81
-5 -3 -4 38.39 1.82
5 -3 4 38.58 1.79
-5 -3 -4 37.78 1.75
5 -3 4 39.92 1.87
-5 -3 -4 39.69 1.92
-5 -3 -4 38.72 1.81
5 3 4 39.15 1.76
5 3 4 40.2 1.84
-5 3 -4 40.75 1.77
-5 3 -4 40.9 1.84
5 3 4 40.04 1.8
6 -3 4 12.41 0.65
6 -3 4 13.07 0.7
-6 -3 -4 12.98 0.66
-6 -3 -4 14.34 0.68
6 -3 4 12.76 0.64
6 -3 4 12.61 0.65
-6 -3 -4 13.32 0.74
6 -3 4 13.42 0.76
-6 -3 -4 13.45 0.65
-6 -3 -4 13.35 0.68
-6 -3 -4 12.19 0.64
6 -3 4 12.42 0.64
-6 -3 -4 14.1 0.7
-6 -3 -4 12.67 0.65
-6 -3 -4 14.47 0.71
-6 -3 -4 12.65 0.63
6 3 4 14.39 0.77
6 3 4 13.18 0.73
6 3 4 13.29 0.63
6 3 4 14.65 0.72
6 3 4 13.57 0.66
-6 3 -4 13.97 0.63
-6 3 -4 11.75 0.68
-7 -3 -4 1.66 0.19
7 -3 4 1.5 0.21
7 -3 4 1.45 0.17
-7 -3 -4 1.56 0.2
7 -3 4 1.44 0.17
-7 -3 -4 1.48 0.23
-7 -3 -4 1.44 0.27
-7 -3 -4 1.67 0.25
7 3 4 1.41 0.15
7 3 4 1.15 0.22
-7 3 -4 1.15 0.25
-7 3 -4 1.28 0.2
7 3 4 1.09 0.2
7 3 4 0.95 0.35
-8 -3 -4 5.87 0.29
-8 -3 -4 5.58 0.37
8 -3 4 5.3 0.29
8 -3 4 5.73 0.34
8 -3 4 5.69 0.31
8 3 4 5.82 0.32
-8 3 -4 5.85 0.33
-8 -4 4 4.89 0.23
-8 -4 4 4.51 0.24
-8 -4 4 4.83 0.24
-8 4 4 5.18 0.34
8 4 -4 4.28 0.29
8 4 -4 4.19 0.35
-7 -4 4 0.84 0.2
-7 -4 4 1.02 0.12
-7 -4 4 1.17 0.13
-7 -4 4 1 0.14
7 -4 -4 0.98 0.19
-7 4 4 1.02 0.16
-7 4 4 0.78 0.28
7 4 -4 0.83 0.21
-6 -4 4 0.81 0.24
-6 -4 4 0.77 0.14
-6 -4 4 0.7 0.15
6 -4 -4 1 0.13
-6 -4 4 0.68 0.15
-6 -4 4 0.6 0.13
-6 -4 4 0.82 0.17
6 -4 -4 0.7 0.19
6 -4 -4 0.9 0.19
6 -4 -4 0.79 0.21
6 -4 -4 0.91 0.2
-6 4 4 0.67 0.18
-6 4 4 0.94 0.2
-6 4 4 0.68 0.23
-6 4 4 0.63 0.29
-6 4 4 0.76 0.18
-5 -4 4 0.13 0.15
-5 -4 4 0.17 0.1
-5 -4 4 0.24 0.11
-5 -4 4 0.1 0.13
-5 -4 4 0.07 0.1
5 -4 -4 0.13 0.14
-5 -4 4 0.33 0.13
5 -4 -4 0.1 0.15
-5 -4 4 -0.02 0.08
5 -4 -4 0.09 0.14
5 -4 -4 0.05 0.09
5 -4 -4 -0.11 0.12
-5 4 4 0.28 0.15
-5 4 4 0.13 0.14
-5 4 4 0.17 0.17
-5 4 4 0.21 0.2
-5 4 4 0.21 0.38
-5 4 4 0.23 0.13
-5 4 4 0.16 0.28
-5 4 4 0.32 0.16
4 -4 -4 13.06 0.62
4 -4 -4 12.74 0.65
-4 -4 4 13.4 0.68
-4 -4 4 13.23 0.63
4 -4 -4 12.42 0.68
-4 -4 4 13.15 0.63
-4 -4 4 13.99 0.77
-4 4 4 12.63 0.69
-4 4 4 13.01 0.63
-4 4 4 12.65 0.72
-4 4 4 13.4 0.66
-4 4 4 12.9 0.68
4 4 -4 12.21 0.69
-4 4 4 12.9 0.75
3 -4 -4 10.54 0.56
-3 -4 4 10.37 0.51
3 -4 -4 10.76 0.54
-3 -4 4 11.17 0.54
-3 -4 4 10.46 0.49
-3 -4 4 10.21 0.55
-3 -4 4 9.51 0.61
-3 -4 4 9.88 0.52
3 -4 -4 10.11 0.5
-3 4 4 10.99 0.6
-3 4 4 10.27 0.57
-3 4 4 10.84 0.64
-3 4 4 10.09 0.52
3 4 -4 10.78 0.57
-3 4 4 10.53 0.55
-3 4 4 10.68 0.56
2 -4 -4 3.18 0.24
-2 -4 4 3.6 0.31
-2 -4 4 3.5 0.24
-2 -4 4 3.4 0.21
-2 -4 4 3.24 0.21
2 -4 -4 3.27 0.25
2 -4 -4 3.28 0.21
-2 -4 4 3.4 0.25
-2 4 4 3.27 0.21
-2 4 4 3.02 0.24
-2 4 4 3.05 0.29
-2 4 4 2.98 0.2
-2 4 4 3.2 0.26
-2 4 4 2.93 0.27
2 4 -4 3.27 0.26
2 4 -4 3.12 0.24
-1 -4 4 10.18 0.53
-1 -4 4 10.18 0.5
-1 -4 4 8.49 0.48
-1 -4 4 10.46 0.52
1 -4 -4 10.49 0.51
1 -4 -4 9.55 0.52
-1 -4 4 10.72 0.51
-1 -4 4 8 0.53
-1 -4 4 10.16 0.54
1 -4 -4 9.82 0.48
-1 4 4 10.72 0.51
1 4 -4 10.18 0.62
-1 4 4 10.01 0.48
1 4 -4 10.45 0.52
-1 4 4 10.63 0.54
-1 4 4 10.34 0.5
1 4 -4 10.7 0.55
1 4 -4 9.87 0.52
-1 4 4 10.6 0.55
1 4 -4 10.68 0.52
0 -4 4 7.45 0.37
0 -4 4 9.08 0.51
0 -4 -4 7.69 0.38
0 -4 -4 7.76 0.43
0 -4 4 7.61 0.41
0 -4 4 7.87 0.47
0 -4 4 7.91 0.42
0 -4 -4 8.18 0.41
0 -4 4 5.96 0.48
0 -4 4 7.44 0.43
0 4 -4 7.19 0.43
0 4 -4 7.85 0.45
0 4 4 7.83 0.41
0 4 -4 7.51 0.42
0 4 4 7.66 0.39
0 4 4 7.65 0.44
0 4 -4 7.88 0.43
0 4 4 7.79 0.4
0 4 4 7.77 0.42
0 4 -4 8.05 0.42
1 -4 4 10.55 0.55
-1 -4 -4 11.34 0.55
-1 -4 -4 10.62 0.57
1 -4 4 11.22 0.55
-1 -4 -4 10.52 0.59
1 -4 4 11.63 0.6
-1 -4 -4 11.31 0.52
1 -4 4 11.54 0.64
1 -4 4 12.39 0.57
1 -4 4 10.73 0.56
1 -4 4 10.95 0.53
1 -4 4 11.58 0.59
1 4 4 11.3 0.54
1 4 4 10.45 0.56
-1 4 -4 11.66 0.58
1 4 4 10.99 0.58
-1 4 -4 10.66 0.6
1 4 4 10.94 0.53
-1 4 -4 11.11 0.61
-1 4 -4 11.21 0.57
2 -4 4 12.59 0.7
2 -4 4 13.94 0.68
2 -4 4 13.97 0.78
2 -4 4 12.88 0.71
2 -4 4 13.85 0.7
-2 -4 -4 13.67 0.65
-2 -4 -4 13.37 0.69
-2 -4 -4 13.8 0.77
-2 -4 -4 15.19 0.69
2 -4 4 13.55 0.65
-2 -4 -4 14.32 0.68
-2 4 -4 14.07 0.73
2 4 4 13.06 0.7
-2 4 -4 13.92 0.69
2 4 4 14.13 0.65
-2 4 -4 11.71 0.68
2 4 4 13.44 0.67
3 -4 4 25.17 1.23
-3 -4 -4 26.81 1.23
3 -4 4 27.72 1.28
3 -4 4 26.54 1.2
-3 -4 -4 24.65 1.2
3 -4 4 26.36 1.27
-3 -4 -4 24.26 1.24
-3 -4 -4 27.86 1.23
3 -4 4 23.83 1.28
-3 -4 -4 29.12 1.35
3 4 4 27.21 1.22
-3 4 -4 25.69 1.19
-3 4 -4 25.97 1.25
3 4 4 26.95 1.19
-3 4 -4 24.44 1.28
3 4 4 26.28 1.25
-4 -4 -4 6.88 0.33
-4 -4 -4 7.77 0.43
-4 -4 -4 7.5 0.44
4 -4 4 6.89 0.35
4 -4 4 7.4 0.47
-4 -4 -4 7.29 0.44
4 -4 4 7.13 0.39
4 -4 4 7.35 0.45
4 -4 4 6.98 0.48
-4 -4 -4 6.68 0.51
-4 4 -4 7.02 0.44
4 4 4 7.27 0.42
-4 4 -4 7.26 0.39
4 4 4 6.3 0.45
-4 4 -4 7.21 0.46
4 4 4 7.49 0.38
-5 -4 -4 5 0.34
-5 -4 -4 5.51 0.38
5 -4 4 5.42 0.31
-5 -4 -4 5.26 0.41
5 -4 4 5.52 0.34
5 -4 4 5.19 0.42
-5 -4 -4 5.11 0.3
-5 -4 -4 4.8 0.31
-5 -4 -4 5.83 0.38
-5 -4 -4 4.95 0.33
5 -4 4 5.63 0.69
-5 -4 -4 5.65 0.33
-5 -4 -4 5.28 0.34
5 -4 4 5.1 0.31
-5 -4 -4 5.51 0.36
5 -4 4 5.05 0.42
5 -4 4 5.8 0.33
-5 -4 -4 4.92 0.47
5 -4 4 5.5 0.4
-5 -4 -4 5.86 0.37
-5 4 -4 5.63 0.32
5 4 4 5.5 0.35
5 4 4 5.52 0.44
-5 4 -4 5.02 0.38
5 4 4 5.27 0.3
5 4 4 5.33 0.41
5 4 4 5.16 0.34
5 4 4 4.85 0.37
-6 -4 -4 4.25 0.32
-6 -4 -4 4.18 0.29
6 -4 4 4.05 0.27
6 -4 4 3.84 0.46
6 -4 4 4.19 0.26
-6 -4 -4 3.75 0.23
-6 -4 -4 3.89 0.27
6 -4 4 4.26 0.27
6 -4 4 4.2 0.25
6 -4 4 4.35 0.31
6 -4 4 3.94 0.36
6 -4 4 4.18 0.48
-6 -4 -4 4.29 0.35
-6 -4 -4 3.72 0.32
-6 -4 -4 3.84 0.32
6 4 4 4.07 0.25
-6 4 -4 4.16 0.31
6 4 4 3.81 0.34
6 4 4 4.26 0.29
6 4 4 4.58 0.34
6 4 4 3.87 0.32
-7 -4 -4 1.76 0.21
7 -4 4 1.67 0.19
-7 -4 -4 2 0.24
-7 -4 -4 1.93 0.16
7 -4 4 1.75 0.16
7 4 4 1.8 0.19
-7 4 -4 1.62 0.21
7 -5 -4 2.04 0.16
-7 -5 4 2.18 0.13
-7 -5 4 1.8 0.18
-7 -5 4 2.22 0.13
7 -5 -4 2.1 0.16
-7 -5 4 2.15 0.14
7 5 -4 1.61 0.2
-7 5 4 2.16 0.16
7 5 -4 2.39 0.28
-6 -5 4 0.94 0.13
-6 -5 4 0.76 0.12
-6 -5 4 1.27 0.22
6 -5 -4 0.85 0.18
6 -5 -4 0.74 0.14
6 -5 -4 1.04 0.17
6 5 -4 1.09 0.21
-6 5 4 0.95 0.17
5 -5 -4 4.89 0.35
-5 -5 4 5.51 0.29
5 -5 -4 5.69 0.3
5 -5 -4 4.86 0.32
-5 -5 4 5.26 0.29
5 -5 -4 4.8 0.33
-5 -5 4 5.49 0.4
-5 -5 4 5.02 0.35
-5 -5 4 5.56 0.3
-5 5 4 4.45 0.69
-5 5 4 5.18 0.34
-5 5 4 5.43 0.33
-5 5 4 4.94 0.4
-5 5 4 5.13 0.34
-5 5 4 5.09 0.57
4 -5 -4 8.74 0.49
-4 -5 4 9.26 0.56
4 -5 -4 9.32 0.44
-4 -5 4 9.27 0.52
-4 -5 4 9.23 0.46
-4 -5 4 9.17 0.47
-4 -5 4 8.92 0.46
4 -5 -4 9.68 0.46
4 -5 -4 8.99 0.51
-4 5 4 8.64 0.58
-4 5 4 9.61 0.53
-4 5 4 9.58 0.51
-4 5 4 9.4 0.51
-4 5 4 8.5 0.54
-4 5 4 8.79 0.44
3 -5 -4 9.95 0.55
-3 -5 4 11.17 0.54
-3 -5 4 11.58 0.64
3 -5 -4 11.35 0.57
3 -5 -4 10.56 0.58
-3 -5 4 11.83 0.6
3 -5 -4 11.94 0.53
-3 -5 4 11.48 0.55
3 -5 -4 11.37 0.54
-3 -5 4 10.72 0.54
-3 5 4 11.14 0.61
-3 5 4 11.67 0.58
-3 5 4 10.51 0.61
-3 5 4 11.08 0.59
-3 5 4 10.71 0.59
-3 5 4 10.91 0.59
-3 5 4 10.5 0.59
2 -5 -4 42.95 1.87
-2 -5 4 43.31 1.85
2 -5 -4 46.58 1.99
-2 -5 4 41.17 1.9
-2 -5 4 43.29 1.87
2 -5 -4 38.15 1.85
-2 5 4 42.96 1.93
-2 5 4 36.82 1.87
2 5 -4 44.26 1.91
-2 5 4 38.81 1.92
2 5 -4 39.08 1.94
-1 -5 4 1.88 0.19
-1 -5 4 1.79 0.18
-1 -5 4 1.59 0.21
-1 -5 4 1.9 0.22
1 -5 -4 1.7 0.18
1 -5 -4 1.63 0.24
1 -5 -4 1.67 0.17
-1 5 4 1.87 0.22
1 5 -4 1.83 0.2
-1 5 4 1.92 0.21
-1 5 4 1.81 0.17
1 5 -4 1.92 0.24
0 -5 4 3.8 0.28
0 -5 4 4.09 0.27
0 -5 -4 3.7 0.25
0 -5 -4 3.84 0.29
0 -5 4 3.59 0.27
0 -5 4 3.72 0.21
0 -5 -4 3.88 0.32
0 -5 -4 3.59 0.32
0 -5 4 4.12 0.3
0 -5 -4 3.64 0.3
0 5 -4 3.84 0.29
0 5 -4 3.49 0.31
0 5 4 4.5 0.25
0 5 4 3.51 0.27
0 5 4 3.88 0.45
-1 -5 -4 4.73 0.34
-1 -5 -4 4.33 0.26
-1 -5 -4 4.21 0.31
1 -5 4 4.89 0.26
1 -5 4 4.8 0.34
-1 -5 -4 3.98 0.38
-1 -5 -4 4.45 0.35
-1 -5 -4 4.48 0.3
1 5 4 4.58 0.33
-1 5 -4 4.39 0.32
-1 5 -4 4.11 0.36
1 5 4 4.24 0.31
1 5 4 4.31 0.27
-2 -5 -4 0.85 0.22
2 -5 4 0.94 0.14
-2 -5 -4 1.06 0.21
-2 -5 -4 0.56 0.15
2 -5 4 1.02 0.25
-2 -5 -4 0.9 0.17
-2 -5 -4 0.81 0.14
2 -5 4 0.81 0.17
-2 -5 -4 0.87 0.17
2 5 4 0.85 0.18
-2 5 -4 0.74 0.2
2 5 4 0.94 0.16
-2 5 -4 1.07 0.21
2 5 4 0.89 0.19
3 -5 4 2.09 0.19
-3 -5 -4 2.12 0.26
-3 -5 -4 2.22 0.23
3 -5 4 2.41 0.3
-3 -5 -4 2.18 0.25
3 -5 4 2.01 0.2
-3 -5 -4 2.05 0.23
-3 -5 -4 2.31 0.26
-3 -5 -4 2.16 0.17
3 -5 4 2.42 0.22
3 -5 4 2.19 0.29
-3 -5 -4 2.21 0.24
3 5 4 2.31 0.26
-3 5 -4 2.25 0.26
-3 5 -4 2.3 0.21
3 5 4 2.09 0.2
-3 5 -4 2.25 0.31
3 5 4 2.08 0.28
3 5 4 2.15 0.23
3 5 4 2.23 0.23
3 5 4 2.07 0.3
-4 -5 -4 29.26 1.42
4 -5 4 29.29 1.38
4 -5 4 30.47 1.4
4 -5 4 31.07 1.48
-4 -5 -4 32.42 1.44
-4 -5 -4 29.3 1.38
-4 -5 -4 29.72 1.4
-4 -5 -4 30.94 1.4
4 -5 4 30.82 1.47
-4 5 -4 32.3 1.38
4 5 4 31.24 1.37
-4 5 -4 28.5 1.46
4 5 4 31.77 1.46
4 5 4 30.52 1.41
4 5 4 28.5 1.44
-4 5 -4 29.11 1.44
4 5 4 29.96 1.5
5 -5 4 3.84 0.35
5 -5 4 4.69 0.28
-5 -5 -4 4.47 0.32
5 -5 4 3.43 0.34
-5 -5 -4 4.06 0.34
-5 -5 -4 4.55 0.32
-5 -5 -4 4.35 0.28
5 -5 4 4.65 0.27
-5 5 -4 4.07 0.27
5 5 4 3.92 0.28
5 5 4 3.95 0.34
5 5 4 4.44 0.33
5 5 4 2.94 0.33
5 5 4 4.28 0.25
-6 -5 -4 1.99 0.23
6 -5 4 2.62 0.17
-6 -5 -4 2.36 0.22
-6 5 -4 2.22 0.23
6 5 4 2.43 0.21
5 -6 -4 1.62 0.15
5 -6 -4 1.65 0.15
-5 -6 4 1.83 0.13
-5 -6 4 1.68 0.14
-5 -6 4 1.66 0.21
-5 6 4 1.65 0.16
5 6 -4 1.43 0.2
-5 6 4 1.75 0.17
-4 -6 4 1.72 0.23
4 -6 -4 1.58 0.17
4 -6 -4 1.7 0.14
4 -6 -4 1.64 0.18
-4 -6 4 1.62 0.15
-4 -6 4 1.65 0.15
-4 6 4 1.55 0.18
-4 6 4 1.46 0.21
4 6 -4 1.62 0.24
-4 6 4 1.58 0.43
3 -6 -4 0.28 0.12
3 -6 -4 0.01 0.08
-3 -6 4 -0.1 0.11
-3 -6 4 0.13 0.13
3 -6 -4 0.14 0.09
3 -6 -4 0.19 0.11
-3 -6 4 -0.02 0.09
-3 -6 4 0.21 0.09
-3 -6 4 0.14 0.09
-3 6 4 0.12 0.13
-3 6 4 0.04 0.08
-3 6 4 0.2 0.14
3 6 -4 0.19 0.16
-2 -6 4 1.69 0.3
2 -6 -4 1.77 0.16
-2 -6 4 1.43 0.44
-2 -6 4 1.86 0.18
2 -6 -4 1.67 0.2
-2 -6 4 1.63 0.23
-2 -6 4 1.98 0.18
-2 -6 4 1.57 0.19
2 -6 -4 1.57 0.16
2 -6 -4 1.74 0.22
-2 -6 4 1.71 0.16
-2 6 4 1.94 0.24
2 6 -4 1.95 0.21
-2 6 4 1.97 0.24
-2 6 4 1.8 0.2
-2 6 4 1.68 0.21
2 6 -4 1.67 0.26
1 -6 -4 7.4 0.46
1 -6 -4 6.77 0.4
1 -6 -4 7.25 0.4
-1 -6 4 6.08 0.67
1 -6 -4 6.98 0.35
1 -6 -4 7.38 0.37
1 -6 -4 7.22 0.39
1 -6 -4 4.86 0.52
-1 -6 4 7.55 0.37
-1 -6 4 7.18 0.49
-1 -6 4 7.53 0.39
1 6 -4 7.67 0.44
-1 6 4 7.02 0.43
1 6 -4 7.67 0.49
-1 6 4 7.1 0.42
-1 6 4 7.27 0.42
0 -6 -4 17.51 0.82
0 -6 4 16.42 0.84
0 -6 -4 18.58 0.85
0 -6 4 16.45 0.8
0 -6 -4 18.2 0.79
0 -6 4 18.57 0.94
0 -6 -4 17.81 0.82
0 -6 -4 16.74 1.13
0 -6 -4 16.09 0.85
0 -6 -4 17.67 0.83
0 -6 -4 17.18 0.88
0 -6 4 15.82 1.14
0 6 4 18.15 0.85
0 6 4 15.55 0.84
0 6 -4 17.1 0.91
0 6 4 16.21 0.84
0 6 -4 18.7 0.87
1 -6 4 4.03 0.24
-1 -6 -4 3.97 0.27
-1 -6 -4 4.17 0.33
-1 -6 -4 3.72 0.28
1 -6 4 3.83 0.55
-1 -6 -4 4.02 0.38
1 -6 4 3.93 0.3
-1 -6 -4 3.78 0.28
-1 -6 -4 3.13 0.54
-1 -6 -4 3.81 0.22
1 -6 4 3.94 0.28
-1 -6 -4 4.03 0.26
1 -6 4 4.38 0.38
1 6 4 3.43 0.32
-1 6 -4 3.88 0.39
1 6 4 3.74 0.32
1 6 4 4.12 0.29
-1 6 -4 3.8 0.36
1 6 4 3.88 0.24
-1 6 -4 3.92 0.3
1 6 4 4.05 0.42
-2 -6 -4 3.32 0.27
-2 -6 -4 3.66 0.26
-2 -6 -4 2.85 0.33
-2 -6 -4 2.73 0.23
2 -6 4 2.92 0.26
2 -6 4 2.99 0.34
2 -6 4 2.92 0.24
-2 -6 -4 2.95 0.28
2 -6 4 2.99 0.49
2 -6 4 3.01 0.21
-2 6 -4 2.88 0.28
2 6 4 3.09 0.25
2 6 4 3.08 0.3
-2 6 -4 2.97 0.22
2 6 4 2.4 0.29
2 6 4 3.08 0.21
-2 6 -4 3.35 0.33
3 -6 4 2.91 0.3
3 -6 4 2.94 0.22
-3 -6 -4 2.81 0.25
3 -6 4 2.53 0.28
-3 -6 -4 2.94 0.26
3 6 4 2.13 0.26
3 6 4 2.8 0.24
-3 6 -4 2.39 0.25
-3 6 -4 2.88 0.3
4 -6 4 1.22 0.23
-4 -6 -4 1.67 0.2
4 -6 4 1.58 0.16
4 6 4 1.74 0.19
5 -6 4 2.17 0.15
-5 -6 -4 1.85 0.23
-5 -6 -4 2.37 0.18
5 6 4 2.06 0.18
-5 6 -4 2.56 0.22
-3 -7 4 1.72 0.12
3 -7 -4 1.63 0.13
-3 -7 4 1.81 0.12
3 -7 -4 1.63 0.3
-3 -7 4 1.74 0.11
-3 -7 4 1.33 0.2
-3 7 4 1.93 0.17
3 7 -4 1.57 0.18
3 7 -4 1.75 0.22
2 -7 -4 1.09 0.12
-2 -7 4 1.14 0.11
-2 -7 4 1.15 0.12
2 -7 -4 1.21 0.33
-2 -7 4 1.28 0.2
-2 -7 4 1.25 0.12
2 7 -4 0.84 0.19
2 7 -4 1.05 0.21
-2 7 4 1.1 0.16
-1 -7 4 -0.02 0.06
-1 -7 4 -0.01 0.22
1 -7 -4 0 0.22
-1 -7 4 0.07 0.15
-1 -7 4 0.06 0.07
1 -7 -4 0.01 0.07
-1 -7 4 0.06 0.09
-1 7 4 -0.03 0.1
-1 7 4 0.06 0.1
1 7 -4 -0.02 0.13
1 7 -4 0.04 0.12
-1 7 4 0.12 0.11
0 -7 4 1.47 0.37
0 -7 4 2.39 0.16
0 -7 4 2.39 0.19
0 -7 4 2.09 0.25
0 7 4 2.59 0.22
0 7 -4 2.2 0.26
0 7 4 2.11 0.19
0 7 4 2.09 0.21
0 7 -4 2.42 0.24
1 -7 4 3.3 0.29
-1 -7 -4 2.83 0.27
1 -7 4 3.67 0.45
1 -7 4 3.15 0.21
-1 -7 -4 2.87 0.2
1 -7 4 3.09 0.19
1 7 4 2.85 0.23
1 7 4 3.03 0.22
-1 7 -4 3.32 0.27
1 7 4 3.2 0.24
1 7 4 2.86 0.21
2 -7 4 4.13 0.21
2 -7 4 4.32 0.3
2 -7 4 4.42 0.23
-2 -7 -4 3.06 0.22
-2 -7 -4 3.74 0.3
2 7 4 3.18 0.23
-2 7 -4 3.82 0.27
2 7 4 4.13 0.25
2 7 4 4.34 0.26
2 7 4 3.49 0.24
3 -7 4 0.39 0.16
3 -7 4 0.71 0.1
-3 -7 -4 0.68 0.17
-3 -7 -4 0.74 0.15
3 7 4 1.1 0.16
3 7 4 1.05 0.13
3 7 4 0.54 0.18
3 7 4 1.01 0.15
-9 0 5 0.29 0.09
-9 0 5 0.26 0.08
-9 0 5 0.29 0.09
9 0 -5 0.19 0.13
-9 0 5 0.14 0.16
9 0 -5 0.27 0.13
-8 0 5 2.57 0.32
8 0 -5 2.15 0.24
-8 0 5 1.91 0.22
-8 0 5 2.36 0.19
8 0 -5 2.43 0.26
-8 0 5 2.21 0.19
-8 0 5 2.08 0.21
-7 0 5 41.45 1.91
-7 0 5 44.47 2.03
7 0 -5 42.94 1.95
-7 0 5 40.46 1.9
-7 0 5 43.2 1.93
6 0 -5 10.09 0.56
-6 0 5 10.15 0.52
6 0 -5 10.34 0.55
-6 0 5 10.68 0.52
-6 0 5 9.27 0.56
-6 0 5 10.64 0.55
5 0 -5 8.72 0.48
-5 0 5 9.03 0.45
-5 0 5 9.94 0.5
5 0 -5 9 0.45
5 0 -5 8.13 0.45
-5 0 5 9.14 0.44
5 0 -5 8.27 0.46
5 0 -5 8.49 0.49
-4 0 5 100.71 4.53
4 0 -5 104.11 4.55
4 0 -5 98.34 4.53
4 0 -5 100.04 4.55
-4 0 5 108.29 4.56
-4 0 5 104.43 4.52
-4 0 5 106.01 4.53
4 0 -5 103.9 4.53
-4 0 5 100.71 4.61
-4 0 5 104.05 4.53
3 0 -5 45.85 2.02
-3 0 5 48.16 2.02
-3 0 5 45.74 2.01
3 0 -5 45.01 2.02
-3 0 5 43.51 2.02
-3 0 5 43.53 2.02
3 0 -5 42.65 2.03
3 0 -5 46.59 2.02
-3 0 5 47.26 2.01
3 0 -5 46.27 2.03
-3 0 5 48.13 2.04
-3 0 5 45.7 2.06
-2 0 5 25 1.11
2 0 -5 25.65 1.1
-2 0 5 23.77 1.1
-2 0 5 24.39 1.11
2 0 -5 25.91 1.1
-2 0 5 24.85 1.11
2 0 -5 24.12 1.11
-2 0 5 25.74 1.1
1 0 -5 52.87 2.37
-1 0 5 57.13 2.38
-1 0 5 53.03 2.37
-1 0 5 53.69 2.39
-1 0 5 53.09 2.37
-1 0 5 53.75 2.38
1 0 -5 53.6 2.37
1 0 -5 56.46 2.38
0 0 5 24.68 1.09
0 0 -5 26.33 1.1
0 0 5 25.18 1.1
0 0 -5 24.15 1.08
0 0 5 24.95 1.1
0 0 5 25.65 1.09
0 0 5 22.21 1.1
0 0 5 22.96 1.09
0 0 -5 24.87 1.1
0 0 -5 25.95 1.09
0 0 -5 23.66 1.09
1 0 5 296.02 12.65
1 0 5 280.1 12.65
-1 0 -5 282.06 12.65
-1 0 -5 294.89 12.65
1 0 5 288.69 12.67
1 0 5 283.66 12.64
-1 0 -5 298.13 12.65
1 0 5 296.42 12.66
-1 0 -5 287.57 12.65
2 0 5 -0.04 0.09
-2 0 -5 -0.05 0.08
-2 0 -5 0.01 0.09
-2 0 -5 0.2 0.09
2 0 5 -0.05 0.06
2 0 5 0.16 0.07
2 0 5 0.02 0.09
-2 0 -5 0.08 0.07
-2 0 -5 0.05 0.08
2 0 5 0.01 0.12
2 0 5 0.09 0.06
-3 0 -5 73.91 3.18
3 0 5 66.61 3.16
-3 0 -5 74.11 3.19
-3 0 -5 69.05 3.18
3 0 5 76.6 3.17
3 0 5 71.83 3.18
3 0 5 67.56 3.14
3 0 5 71.34 3.2
-3 0 -5 72.71 3.18
4 0 5 130.39 5.58
-4 0 -5 126.55 5.59
4 0 5 126.88 5.54
4 0 5 121.92 5.59
5 0 5 23.58 1.06
-5 0 -5 22.56 1.07
-5 0 -5 23.61 1.1
-5 0 -5 23.07 1.17
5 0 5 24.66 1.08
6 0 5 1.92 0.19
6 0 5 2.17 0.15
-6 0 -5 1.81 0.3
6 0 5 2.14 0.21
-6 0 -5 1.54 0.17
-6 0 -5 1.95 0.25
-6 0 -5 1.87 0.2
-7 0 -5 0.5 0.18
-7 0 -5 0.71 0.3
7 0 5 0.61 0.19
7 0 5 0.48 0.12
-7 0 -5 0.52 0.16
-7 0 -5 0.53 0.2
7 0 5 0.52 0.25
-7 0 -5 0.65 0.19
7 0 5 0.63 0.21
-7 0 -5 0.45 0.13
8 0 5 1.53 0.21
8 0 5 1.45 0.2
-8 0 -5 0.96 0.23
-8 0 -5 1.13 0.24
-8 0 -5 1.23 0.2
8 0 5 1.42 0.19
-8 0 -5 1.45 0.2
-9 0 -5 3.41 0.2
9 0 5 2.95 0.2
9 0 5 3.1 0.21
-9 -1 5 1.42 0.12
9 -1 -5 0.98 0.17
9 -1 -5 1.31 0.19
-9 -1 5 1.41 0.11
-9 -1 5 0.72 0.2
-9 -1 5 1.2 0.13
-9 1 5 1.39 0.14
9 1 -5 1.15 0.17
9 1 -5 1.28 0.2
-9 1 5 0.99 0.14
-9 1 5 1.48 0.24
-8 -1 5 6.3 0.34
8 -1 -5 6.62 0.46
-8 -1 5 6.4 0.36
-8 -1 5 6.49 0.47
8 -1 -5 5.55 0.38
8 -1 -5 6.31 0.42
-8 -1 5 6.04 0.33
-8 -1 5 6.4 0.33
-8 1 5 6.01 0.48
8 1 -5 6 0.4
-8 1 5 5.8 0.5
-8 1 5 5.8 0.47
-8 1 5 5.75 0.34
-7 -1 5 5.16 0.29
-7 -1 5 4.92 0.28
-7 -1 5 5.17 0.31
7 -1 -5 5.41 0.35
7 -1 -5 4.62 0.37
-7 -1 5 4.66 0.29
-7 -1 5 4.44 0.41
-7 1 5 4.72 0.33
-7 1 5 4.45 0.42
-7 1 5 4.65 0.27
-7 1 5 4.71 0.36
-7 1 5 4.82 0.48
-7 1 5 4.54 0.31
-7 1 5 4.59 0.33
7 1 -5 4.28 0.45
-6 -1 5 8.98 0.44
-6 -1 5 7.82 0.38
-6 -1 5 7.84 0.42
-6 -1 5 8.22 0.43
-6 -1 5 9.1 0.39
6 -1 -5 7.53 0.49
-6 -1 5 7.48 0.52
6 -1 -5 7.61 0.47
6 1 -5 8.56 0.48
-6 1 5 8.28 0.46
-6 1 5 7.89 0.41
-6 1 5 8.24 0.52
-6 1 5 8.73 0.46
-6 1 5 8.9 0.49
5 -1 -5 0.57 0.16
-5 -1 5 0.52 0.18
-5 -1 5 0.58 0.12
-5 -1 5 0.43 0.11
5 -1 -5 0.47 0.12
5 -1 -5 0.59 0.12
-5 -1 5 0.42 0.1
-5 -1 5 0.58 0.09
-5 1 5 0.4 0.12
-5 1 5 0.36 0.13
-5 1 5 0.56 0.14
-5 1 5 0.51 0.18
5 1 -5 0.49 0.14
5 1 -5 0.53 0.11
-5 1 5 0.64 0.15
-5 1 5 0.45 0.11
-5 1 5 0.58 0.12
-4 -1 5 2.42 0.16
4 -1 -5 2.32 0.19
-4 -1 5 2.42 0.16
4 -1 -5 2.37 0.17
4 -1 -5 2.46 0.21
-4 -1 5 2.31 0.13
-4 -1 5 2.01 0.22
-4 -1 5 2.28 0.17
-4 -1 5 2.12 0.22
4 -1 -5 2.68 0.18
-4 1 5 2.21 0.2
-4 1 5 2.31 0.21
4 1 -5 2.62 0.18
-4 1 5 2.31 0.18
4 1 -5 2.22 0.15
-4 1 5 2.26 0.17
-4 1 5 2.28 0.18
4 1 -5 2.2 0.17
-4 1 5 2.24 0.16
-4 1 5 2.32 0.2
-4 1 5 2.51 0.24
3 -1 -5 23.49 1.06
-3 -1 5 22.86 1.08
3 -1 -5 25.05 1.06
-3 -1 5 23.66 1.09
-3 -1 5 21.94 1.03
3 -1 -5 23.57 1.04
-3 -1 5 23.11 1.02
3 -1 -5 22.71 1.07
3 -1 -5 23.81 1.04
-3 1 5 22.85 1.03
3 1 -5 22.42 1.02
-3 1 5 22.66 1.05
-3 1 5 23.98 1.05
-3 1 5 23.13 1.03
-3 1 5 22.03 1.06
-3 1 5 22.99 1.05
-3 1 5 22.04 1.04
-3 1 5 22.13 1.07
3 1 -5 21.17 1.03
-3 1 5 23.06 1.08
2 -1 -5 172.96 7.37
2 -1 -5 166.49 7.41
2 -1 -5 160.92 7.4
-2 -1 5 158.31 7.43
-2 -1 5 188.94 7.38
2 -1 -5 173.09 7.4
-2 -1 5 170.26 7.37
-2 -1 5 178.35 7.4
2 -1 -5 164.83 7.41
2 -1 -5 168.78 7.4
-2 1 5 162.39 7.41
-2 1 5 170.07 7.39
-2 1 5 167.2 7.4
-2 1 5 163.18 7.4
-2 1 5 169.33 7.39
-2 1 5 174.81 7.42
-2 1 5 165.67 7.42
1 -1 -5 22.44 1
1 -1 -5 22.09 1
1 -1 -5 22.94 1
1 -1 -5 22.06 1.01
1 -1 -5 21.94 1
-1 -1 5 22.38 1
1 1 -5 22.39 0.97
-1 1 5 22.01 1.02
-1 1 5 20.43 1
-1 1 5 22.97 1.01
-1 1 5 22.4 0.99
-1 1 5 20.68 1
-1 1 5 21.71 0.98
1 1 -5 22.64 0.97
0 -1 5 24.36 1.02
0 -1 -5 24.24 1.05
0 -1 5 23.68 1.03
0 -1 -5 23.95 1.04
0 -1 5 23.55 1.04
0 -1 -5 21.71 1.04
0 -1 -5 22.92 1.04
0 -1 5 22.75 1.02
0 1 5 21.8 1.02
0 1 5 22.67 1.04
0 1 5 23.49 1.06
0 1 5 23.72 1.06
0 1 5 22.67 1.04
0 1 -5 22.09 1.02
0 1 5 21.41 1.06
0 1 5 24.19 1.04
0 1 -5 22.45 1.02
0 1 -5 23.28 1.02
1 -1 5 44.79 1.88
1 -1 5 40.62 1.87
1 -1 5 41.93 1.9
-1 -1 -5 40.25 1.88
-1 -1 -5 40.39 1.88
1 -1 5 41.22 1.88
-1 -1 -5 43.57 1.89
1 -1 5 41.7 1.88
-1 -1 -5 42.08 1.89
-1 -1 -5 42.58 1.89
1 -1 5 41.87 1.87
1 1 5 41.18 1.9
1 1 5 42.28 1.91
1 1 5 42.41 1.9
1 1 5 42.09 1.91
-1 1 -5 44.06 1.88
-1 1 -5 40.5 1.87
1 1 5 45.88 1.9
-1 1 -5 41.29 1.87
1 1 5 43.21 1.88
1 1 5 44.26 1.89
-1 1 -5 43.08 1.89
-1 1 -5 41.99 1.88
2 -1 5 27.75 1.26
-2 -1 -5 28.02 1.28
2 -1 5 27.78 1.25
2 -1 5 27.44 1.27
2 -1 5 27.44 1.3
-2 -1 -5 27.02 1.27
2 -1 5 29.39 1.26
2 -1 5 26.78 1.24
-2 -1 -5 28.96 1.27
-2 -1 -5 28.05 1.27
-2 -1 -5 27.74 1.27
-2 1 -5 25.9 1.26
2 1 5 27.15 1.29
2 1 5 27.15 1.29
2 1 5 28.87 1.27
2 1 5 28.8 1.21
-2 1 -5 26.33 1.27
2 1 5 26.58 1.28
2 1 5 30.33 1.26
-2 1 -5 27.65 1.27
-2 1 -5 28.38 1.26
3 -1 5 64.17 2.84
-3 -1 -5 63.04 2.84
3 -1 5 65.32 2.81
-3 -1 -5 59.63 2.8
-3 -1 -5 61.24 2.82
3 -1 5 62.15 2.8
3 -1 5 60.32 2.77
3 -1 5 64.32 2.82
-3 -1 -5 65.06 2.83
-3 -1 -5 63.76 2.81
3 1 5 63.24 2.81
-3 1 -5 63.21 2.83
3 1 5 60.92 2.79
-3 1 -5 62.86 2.83
3 1 5 65.33 2.81
3 1 5 63.76 2.82
-3 1 -5 66.22 2.82
-3 1 -5 67.11 2.82
-3 1 -5 56.46 2.83
3 1 5 66.22 2.87
4 -1 5 0.37 0.09
4 -1 5 0.21 0.13
4 -1 5 0.18 0.12
4 -1 5 0.19 0.11
-4 -1 -5 0.01 0.1
4 -1 5 0.11 0.11
4 -1 5 0.15 0.08
-4 -1 -5 0.16 0.12
-4 -1 -5 0.25 0.08
4 1 5 0.23 0.08
-4 1 -5 0.02 0.1
-4 1 -5 0.12 0.09
-4 1 -5 0.18 0.12
4 1 5 0.15 0.1
4 1 5 0.17 0.07
4 1 5 0.22 0.09
-4 1 -5 0.1 0.12
-5 -1 -5 17.7 0.84
5 -1 5 19.47 0.94
-5 -1 -5 18.36 0.87
5 -1 5 18 0.85
5 -1 5 18.63 0.84
-5 -1 -5 17.26 0.88
5 1 5 17.63 0.88
-5 1 -5 18.57 0.85
5 1 5 18.03 0.83
-5 1 -5 17.63 0.89
5 1 5 19.5 0.86
-6 -1 -5 16.86 0.81
-6 -1 -5 16.37 0.83
6 -1 5 16.98 0.78
-6 -1 -5 16.46 0.85
-6 1 -5 16.78 0.92
-6 1 -5 16.68 0.81
-6 1 -5 16.54 0.78
6 1 5 15.7 0.77
6 1 5 17.26 0.8
7 -1 5 3.1 0.27
-7 -1 -5 2.86 0.17
-7 -1 -5 3.4 0.3
-7 -1 -5 3.13 0.33
7 -1 5 3.62 0.28
7 -1 5 3.17 0.28
7 -1 5 3.02 0.24
-7 -1 -5 3 0.26
-7 -1 -5 3.39 0.33
-7 -1 -5 3.35 0.29
7 -1 5 3.31 0.29
-7 -1 -5 3.57 0.3
-7 -1 -5 3.33 0.35
-7 -1 -5 3.59 0.3
-7 1 -5 3.52 0.29
7 1 5 3.22 0.29
-7 1 -5 3.2 0.31
7 1 5 3.09 0.28
7 1 5 3.3 0.38
-7 1 -5 3.43 0.27
7 1 5 3.7 0.21
-8 -1 -5 10.64 0.55
8 -1 5 11.32 0.56
8 -1 5 10.66 0.53
8 -1 5 11.58 0.56
8 -1 5 11.08 0.59
-8 -1 -5 10.97 0.55
-8 -1 -5 10.11 0.61
-8 1 -5 12.11 0.58
8 1 5 11.58 0.57
8 1 5 11.56 0.57
-8 1 -5 11.46 0.56
9 -1 5 0.05 0.07
-9 -1 -5 -0.05 0.09
9 -1 5 0.02 0.06
9 1 5 -0.04 0.08
9 1 5 0.01 0.08
-9 1 -5 0.04 0.09
-9 -2 5 9.39 0.46
-9 -2 5 10.33 0.45
-9 -2 5 10.97 0.46
-9 2 5 8.33 0.53
-9 2 5 10.46 0.47
9 2 -5 8.78 0.52
9 2 -5 10.78 0.51
8 -2 -5 6.22 0.42
-8 -2 5 5.41 0.29
-8 -2 5 5.46 0.32
-8 -2 5 5.4 0.3
8 -2 -5 5.5 0.37
-8 -2 5 5.51 0.3
-8 2 5 5.65 0.48
-8 2 5 6.72 0.5
-8 2 5 5.87 0.32
-8 2 5 5.29 0.43
-8 2 5 5.23 0.28
8 2 -5 5.58 0.37
7 -2 -5 6.18 0.32
-7 -2 5 5.87 0.33
7 -2 -5 5.88 0.41
-7 -2 5 5.69 0.32
-7 -2 5 5.7 0.31
7 -2 -5 5.69 0.38
7 -2 -5 5.22 0.38
-7 -2 5 5.84 0.33
7 -2 -5 5.73 0.44
-7 2 5 6.12 0.51
-7 2 5 5.84 0.43
-7 2 5 6.19 0.37
-7 2 5 5.36 0.35
-7 2 5 5.78 0.47
-6 -2 5 5.22 0.3
6 -2 -5 5.3 0.36
-6 -2 5 5.22 0.31
6 -2 -5 4.9 0.38
-6 -2 5 5.89 0.45
-6 2 5 5.74 0.39
-6 2 5 3.78 0.3
-6 2 5 5.44 0.3
-6 2 5 5.43 0.39
6 2 -5 4.92 0.35
5 -2 -5 3.99 0.3
-5 -2 5 4.16 0.26
5 -2 -5 4.3 0.31
-5 -2 5 4.25 0.24
-5 -2 5 3.68 0.34
-5 2 5 3.54 0.24
-5 2 5 3.67 0.29
-5 2 5 4.04 0.36
-5 2 5 3.96 0.31
-5 2 5 4.35 0.28
-5 2 5 4.01 0.26
5 2 -5 3.86 0.27
-5 2 5 3.93 0.31
-4 -2 5 34.72 1.57
-4 -2 5 31.95 1.59
-4 -2 5 34.89 1.65
4 -2 -5 34.7 1.6
4 -2 -5 32.78 1.62
4 -2 -5 33.99 1.6
4 -2 -5 37.67 1.63
4 -2 -5 36.7 1.6
-4 2 5 36.41 1.59
4 2 -5 33.83 1.58
4 2 -5 34.52 1.59
-4 2 5 33.27 1.62
-4 2 5 35.19 1.63
-4 2 5 35.37 1.58
-4 2 5 36.13 1.58
-4 2 5 36.39 1.67
-4 2 5 36.87 1.59
3 -2 -5 20.64 0.99
-3 -2 5 21.57 0.96
-3 -2 5 21.02 0.97
3 -2 -5 20.72 1.01
3 -2 -5 21.21 0.99
3 -2 -5 21.6 1.01
-3 -2 5 21.13 1.03
-3 2 5 20.66 0.98
-3 2 5 24.27 1.03
-3 2 5 20.41 1.04
-3 2 5 21.22 1.03
3 2 -5 21.11 0.97
-3 2 5 20.72 0.98
-3 2 5 19.98 0.99
-3 2 5 22.18 0.97
-3 2 5 22.05 1.01
2 -2 -5 11.32 0.53
-2 -2 5 11.34 0.56
-2 -2 5 10.92 0.49
2 -2 -5 10.12 0.53
-2 -2 5 9.97 0.5
2 -2 -5 11.19 0.55
-2 -2 5 10.02 0.55
-2 -2 5 10.64 0.52
2 -2 -5 11.42 0.54
2 -2 -5 10.48 0.53
-2 2 5 10.95 0.54
-2 2 5 11.49 0.57
2 2 -5 9.7 0.51
-2 2 5 10.32 0.57
-2 2 5 10.46 0.52
-2 2 5 10.95 0.55
2 2 -5 10.19 0.5
-2 2 5 10.69 0.5
1 -2 -5 24.4 1.12
1 -2 -5 25.62 1.12
-1 -2 5 23.27 1.07
-1 -2 5 24.95 1.08
1 -2 -5 22.69 1.12
-1 -2 5 22.27 1.13
1 -2 -5 23.99 1.13
-1 -2 5 23.63 1.14
1 -2 -5 24.79 1.12
-1 -2 5 24.77 1.09
-1 -2 5 25.61 1.11
-1 2 5 22.45 1.12
-1 2 5 25.62 1.11
1 2 -5 24.23 1.09
-1 2 5 24.24 1.14
-1 2 5 25.92 1.09
1 2 -5 24.37 1.08
-1 2 5 24.58 1.14
1 2 -5 26.39 1.16
-1 2 5 23.76 1.15
1 2 -5 24.09 1.08
0 -2 -5 17 0.8
0 -2 -5 17.08 0.78
0 -2 -5 16.69 0.78
0 -2 5 16.92 0.75
0 -2 -5 17.37 0.79
0 -2 5 16.74 0.77
0 -2 5 17.24 0.75
0 -2 -5 16.93 0.78
0 -2 5 16.53 0.75
0 -2 5 16.44 0.77
0 -2 5 16.64 0.76
0 2 5 15.46 0.77
0 2 5 17.07 0.78
0 2 5 16.33 0.75
0 2 -5 16.67 0.76
0 2 5 15.75 0.81
0 2 5 16.5 0.81
0 2 -5 16.83 0.76
0 2 5 15.62 0.77
0 2 5 15.4 0.79
0 2 -5 16.48 0.77
0 2 -5 17.59 0.76
-1 -2 -5 6.91 0.36
1 -2 5 6.91 0.34
-1 -2 -5 6.5 0.37
-1 -2 -5 6.92 0.36
1 -2 5 6.56 0.34
1 -2 5 6.46 0.33
1 -2 5 6.73 0.35
-1 -2 -5 6.57 0.36
-1 -2 -5 6.38 0.35
1 -2 5 6.34 0.35
-1 -2 -5 6.49 0.34
1 -2 5 6.78 0.38
1 2 5 6.72 0.38
-1 2 -5 6.47 0.34
1 2 5 6.97 0.36
-1 2 -5 6.62 0.35
1 2 5 6.28 0.38
1 2 5 6.18 0.33
-1 2 -5 6.51 0.35
-1 2 -5 6.93 0.34
1 2 5 6.56 0.39
1 2 5 6.37 0.36
-1 2 -5 6.38 0.34
2 -2 5 5.62 0.32
2 -2 5 5.48 0.36
-2 -2 -5 5.93 0.33
-2 -2 -5 5.18 0.34
2 -2 5 5.07 0.3
2 -2 5 5.81 0.31
-2 -2 -5 5.82 0.31
2 -2 5 5.65 0.27
2 -2 5 5.95 0.32
-2 -2 -5 5.28 0.32
-2 -2 -5 5.27 0.3
2 2 5 5.71 0.29
-2 2 -5 5.32 0.3
-2 2 -5 5.68 0.32
2 2 5 5.18 0.34
-2 2 -5 5.21 0.33
2 2 5 5.33 0.31
-2 2 -5 5.18 0.32
-2 2 -5 5.48 0.31
3 -2 5 12.98 0.63
3 -2 5 12.54 0.6
-3 -2 -5 13.04 0.61
3 -2 5 12.49 0.63
-3 -2 -5 12.49 0.59
-3 -2 -5 11.39 0.6
3 -2 5 12.64 0.67
3 -2 5 12.24 0.58
-3 2 -5 11.25 0.62
3 2 5 11.9 0.58
-3 2 -5 10.98 0.62
3 2 5 11.51 0.59
-3 2 -5 12.19 0.61
-3 2 -5 11.93 0.6
3 2 5 10.59 0.59
-4 -2 -5 14.54 0.65
4 -2 5 13.73 0.71
4 -2 5 11.86 0.7
4 -2 5 13.17 0.67
4 -2 5 13.46 0.69
4 -2 5 13.16 0.65
-4 -2 -5 13.11 0.62
4 -2 5 13.66 0.65
4 -2 5 12.38 0.63
-4 -2 -5 12.95 0.66
-4 2 -5 13.04 0.68
-4 2 -5 13.23 0.68
4 2 5 13.26 0.61
-4 2 -5 14.06 0.67
-4 2 -5 12.68 0.62
4 2 5 12.32 0.67
4 2 5 13.89 0.67
4 2 5 13.02 0.64
5 -2 5 28.7 1.42
-5 -2 -5 31.09 1.39
-5 -2 -5 31.55 1.36
5 -2 5 29.9 1.37
5 -2 5 31.52 1.37
-5 -2 -5 30.14 1.38
5 -2 5 29.46 1.36
5 -2 5 29.95 1.45
-5 -2 -5 27.57 1.34
-5 -2 -5 27.79 1.39
5 2 5 28.45 1.39
5 2 5 30.14 1.33
-5 2 -5 29.32 1.34
-5 2 -5 28.01 1.39
5 2 5 29.4 1.35
6 -2 5 2.81 0.33
6 -2 5 2.89 0.26
-6 -2 -5 1.49 0.45
-6 -2 -5 2.9 0.22
6 -2 5 1.79 0.32
-6 -2 -5 2.79 0.27
6 -2 5 2.73 0.26
-6 -2 -5 2.93 0.29
-6 -2 -5 2.9 0.27
-6 -2 -5 2.86 0.27
-6 2 -5 3.62 0.53
-6 2 -5 3.16 0.22
-6 2 -5 3.29 0.37
6 2 5 3.32 0.24
6 2 5 2.82 0.19
6 2 5 2.42 0.26
-7 -2 -5 0.33 0.15
7 -2 5 0.33 0.11
-7 -2 -5 0.21 0.14
-7 -2 -5 0.58 0.21
-7 -2 -5 0.54 0.18
7 -2 5 0.37 0.13
7 -2 5 0.3 0.11
-7 -2 -5 0.6 0.2
7 -2 5 0.39 0.17
-7 -2 -5 0.27 0.15
-7 -2 -5 0.43 0.16
-7 2 -5 0.27 0.14
7 2 5 0.37 0.09
7 2 5 0.42 0.19
-7 2 -5 0.55 0.17
7 2 5 0.42 0.14
8 -2 5 0.26 0.1
-8 -2 -5 0.37 0.13
8 -2 5 0.16 0.1
8 -2 5 0.16 0.25
8 -2 5 0.24 0.13
-8 -2 -5 0.12 0.12
8 2 5 0.26 0.13
-8 2 -5 0.02 0.12
-8 2 -5 0.18 0.36
8 2 5 0.25 0.12
-8 -3 5 6.69 0.31
8 -3 -5 6.84 0.38
8 -3 -5 6.03 0.38
-8 -3 5 7.21 0.33
8 -3 -5 6.27 0.41
-8 -3 5 7.06 0.33
-8 3 5 5.29 0.46
-8 3 5 7.42 0.38
8 3 -5 5.94 0.39
-8 3 5 6.57 0.31
7 -3 -5 2.15 0.25
-7 -3 5 1.75 0.15
-7 -3 5 1.72 0.17
7 -3 -5 1.78 0.25
7 -3 -5 1.85 0.24
7 -3 -5 1.72 0.21
7 -3 -5 1.88 0.16
-7 -3 5 1.5 0.17
-7 -3 5 1.7 0.16
-7 3 5 1.8 0.23
-7 3 5 1.61 0.34
-7 3 5 1.8 0.17
-7 3 5 1.39 0.28
6 -3 -5 1.51 0.23
-6 -3 5 1.45 0.16
-6 -3 5 1.1 0.17
6 -3 -5 1.35 0.26
6 -3 -5 1.52 0.24
6 -3 -5 1.3 0.24
-6 -3 5 1.57 0.21
-6 -3 5 1.27 0.15
-6 -3 5 1.25 0.16
-6 -3 5 1.39 0.19
6 -3 -5 1.18 0.16
-6 3 5 1.25 0.2
-6 3 5 1.45 0.18
-6 3 5 1.85 0.29
-6 3 5 1.74 0.37
-6 3 5 1.7 0.2
-6 3 5 1.45 0.21
-5 -3 5 18.17 0.97
5 -3 -5 17.71 0.94
5 -3 -5 18.23 0.9
-5 -3 5 18.04 0.84
5 -3 -5 17.49 0.84
-5 -3 5 18.58 0.86
-5 -3 5 18.39 0.89
-5 3 5 20.61 0.95
-5 3 5 17.53 0.89
-5 3 5 17.8 0.87
-5 3 5 18.29 0.88
-5 3 5 17.03 0.93
4 -3 -5 0.39 0.12
4 -3 -5 0.35 0.09
4 -3 -5 0.38 0.16
-4 -3 5 0.36 0.11
-4 -3 5 0.41 0.12
-4 -3 5 0.29 0.18
-4 -3 5 0.6 0.11
-4 3 5 0.43 0.16
-4 3 5 0.29 0.11
-4 3 5 0.27 0.14
-4 3 5 0.38 0.16
-4 3 5 0.44 0.12
-4 3 5 0.31 0.13
4 3 -5 0.31 0.12
-4 3 5 0.53 0.17
-3 -3 5 32.76 1.36
3 -3 -5 32.27 1.41
3 -3 -5 29.31 1.42
-3 -3 5 28.96 1.39
-3 -3 5 31.08 1.45
3 -3 -5 30.94 1.41
3 -3 -5 30.68 1.4
-3 -3 5 29.93 1.36
3 -3 -5 29.11 1.36
3 3 -5 28.92 1.39
-3 3 5 31.09 1.45
-3 3 5 27.89 1.37
-3 3 5 26.74 1.42
3 3 -5 30.13 1.38
-3 3 5 31.33 1.4
-3 3 5 29.07 1.4
-3 3 5 30.15 1.38
-3 3 5 34.56 1.4
2 -3 -5 20.44 0.92
-2 -3 5 19.87 0.86
-2 -3 5 18.97 0.88
2 -3 -5 19.26 0.93
-2 -3 5 19.43 0.93
-2 -3 5 19.6 0.88
2 -3 -5 19.54 0.92
-2 -3 5 18.64 0.9
-2 -3 5 18.18 0.94
-2 3 5 16.31 0.88
-2 3 5 19.58 0.93
-2 3 5 19.97 0.96
-2 3 5 18.34 0.9
2 3 -5 19.76 0.89
-2 3 5 19.28 0.88
2 3 -5 19.1 0.88
-2 3 5 19.86 0.91
2 3 -5 19.12 0.9
-1 -3 5 19.43 0.9
-1 -3 5 20.17 0.91
1 -3 -5 18.15 0.93
-1 -3 5 18.62 0.91
-1 -3 5 19.9 0.88
-1 -3 5 19.95 0.88
-1 -3 5 20.48 0.9
1 -3 -5 18.8 0.91
1 -3 -5 19.44 0.93
1 -3 -5 18.65 0.94
-1 -3 5 20.17 0.96
-1 3 5 20.39 0.93
1 3 -5 19.35 0.9
-1 3 5 19.09 0.89
1 3 -5 19.61 0.9
1 3 -5 19.72 0.9
-1 3 5 20.5 0.9
1 3 -5 21.07 0.92
-1 3 5 18.75 0.97
-1 3 5 19.29 0.92
-1 3 5 19.71 0.94
0 -3 -5 1.09 0.15
0 -3 5 1.08 0.14
0 -3 5 1.3 0.18
0 -3 -5 1.28 0.16
0 -3 5 1.18 0.15
0 -3 5 1.29 0.09
0 -3 -5 0.96 0.16
0 -3 5 0.95 0.13
0 -3 5 1.35 0.13
0 3 -5 1.46 0.15
0 3 5 1.45 0.18
0 3 5 1.28 0.16
0 3 5 1.25 0.12
0 3 -5 1.36 0.14
0 3 -5 1.09 0.14
0 3 -5 1.34 0.14
0 3 5 1.11 0.13
0 3 5 1.2 0.13
0 3 5 1.17 0.15
0 3 -5 1.22 0.13
-1 -3 -5 22.11 1.03
1 -3 5 22.4 1.03
1 -3 5 22 1.04
1 -3 5 21.61 1.02
-1 -3 -5 23.45 1.04
1 -3 5 21.71 1.04
-1 -3 -5 22.59 1.06
1 -3 5 22.19 1.05
1 -3 5 22.28 1.08
1 -3 5 21.58 1.03
-1 3 -5 23.13 1.06
-1 3 -5 23.98 1.04
1 3 5 22.44 1.03
1 3 5 22.12 1.05
-1 3 -5 23.83 1.04
-1 3 -5 22.08 1.05
1 3 5 22.05 1.04
2 -3 5 30.48 1.34
2 -3 5 26.71 1.33
-2 -3 -5 25.95 1.28
-2 -3 -5 28 1.32
2 -3 5 28.01 1.29
-2 -3 -5 30.82 1.32
-2 -3 -5 29.41 1.31
2 -3 5 28.79 1.38
2 -3 5 28.63 1.31
2 3 5 29.99 1.3
2 3 5 27.92 1.28
-2 3 -5 29.31 1.32
-2 3 -5 28.77 1.32
2 3 5 31.22 1.34
2 3 5 25.98 1.32
-2 3 -5 24.55 1.33
-2 3 -5 32.21 1.33
-2 3 -5 29.08 1.35
3 -3 5 3.38 0.35
3 -3 5 3.02 0.21
-3 -3 -5 3.03 0.2
3 -3 5 3.31 0.29
-3 -3 -5 2.84 0.26
3 -3 5 3.21 0.18
3 -3 5 3.41 0.28
-3 -3 -5 3.3 0.25
-3 -3 -5 3.34 0.24
3 -3 5 3.15 0.26
3 3 5 3.24 0.2
3 3 5 3.5 0.24
-3 3 -5 3.35 0.25
-3 3 -5 3.22 0.25
-3 3 -5 3.45 0.28
3 3 5 2.97 0.26
-4 -3 -5 51.06 2.24
4 -3 5 47.53 2.2
-4 -3 -5 47.42 2.22
-4 -3 -5 50.32 2.19
4 -3 5 51.81 2.28
4 -3 5 51.26 2.18
-4 -3 -5 44.71 2.22
4 -3 5 49.34 2.27
4 -3 5 46.8 2.15
4 -3 5 44.35 2.26
-4 -3 -5 49.55 2.21
4 3 5 50.5 2.21
-4 3 -5 51.97 2.19
-4 3 -5 50.84 2.24
4 3 5 48.64 2.18
4 3 5 48.43 2.24
-5 -3 -5 0.95 0.21
5 -3 5 0.71 0.15
-5 -3 -5 0.74 0.16
5 -3 5 1.06 0.23
-5 -3 -5 0.95 0.16
-5 -3 -5 1.12 0.27
5 -3 5 0.66 0.21
-5 -3 -5 1.03 0.22
5 -3 5 0.94 0.16
5 -3 5 0.86 0.12
-5 -3 -5 0.92 0.22
5 3 5 1.02 0.19
-5 3 -5 0.86 0.17
5 3 5 0.92 0.2
5 3 5 1.06 0.15
-5 3 -5 1.19 0.25
6 -3 5 2.03 0.24
6 -3 5 2.04 0.2
-6 -3 -5 2.16 0.24
-6 -3 -5 2.18 0.26
-6 -3 -5 2.24 0.29
6 -3 5 1.96 0.19
-6 -3 -5 2.16 0.26
6 -3 5 2.23 0.32
6 -3 5 2.69 0.31
-6 -3 -5 2.02 0.24
6 -3 5 3.08 0.79
-6 -3 -5 1.96 0.24
-6 -3 -5 2.01 0.26
6 -3 5 2.05 0.21
-6 -3 -5 2.17 0.25
6 -3 5 2.26 0.2
6 3 5 1.71 0.26
6 3 5 2.45 0.28
-6 3 -5 2.39 0.19
-6 3 -5 2.36 0.27
-6 3 -5 2.2 0.35
6 3 5 2.01 0.18
7 -3 5 2.17 0.19
-7 -3 -5 1.87 0.26
7 -3 5 2.37 0.25
7 -3 5 2.07 0.28
7 -3 5 1.96 0.18
-7 -3 -5 2.32 0.26
7 -3 5 2.46 0.41
-7 -3 -5 2.24 0.25
-7 -3 -5 2.23 0.2
7 3 5 1.67 0.36
7 3 5 2.26 0.24
7 3 5 2.07 0.2
-7 3 -5 2.15 0.24
-7 3 -5 2.05 0.27
8 -3 5 1.94 0.2
-8 -3 -5 2.11 0.18
-8 -3 -5 2.18 0.22
-8 -3 -5 2.49 0.16
8 -3 5 2.56 0.16
8 3 5 1.86 0.17
8 3 5 2.93 0.2
8 3 5 2.52 0.2
-8 3 -5 2.42 0.2
-8 -4 5 0.51 0.08
-8 4 5 0.49 0.22
7 -4 -5 0.16 0.11
7 -4 -5 0.06 0.12
-7 -4 5 0.17 0.06
-7 -4 5 0.24 0.08
-7 -4 5 0.08 0.08
-7 4 5 0.21 0.24
-7 4 5 0.3 0.14
-6 -4 5 1.04 0.15
6 -4 -5 1.11 0.21
-6 -4 5 0.92 0.21
-6 -4 5 0.99 0.12
6 -4 -5 1.08 0.2
-6 -4 5 1.07 0.24
-6 -4 5 0.96 0.15
6 -4 -5 0.82 0.2
-6 -4 5 1.17 0.15
6 -4 -5 1.04 0.21
6 -4 -5 1.12 0.13
-6 4 5 0.9 0.26
-6 4 5 1.22 0.2
-6 4 5 1.15 0.35
-6 4 5 1.04 0.19
-5 -4 5 13.2 0.64
-5 -4 5 14.62 0.72
-5 -4 5 12.79 0.67
-5 -4 5 14.12 0.66
-5 -4 5 12.94 0.65
-5 -4 5 12.87 0.65
-5 -4 5 13.77 0.75
5 -4 -5 15.46 0.66
5 -4 -5 13.95 0.73
5 -4 -5 14.08 0.69
5 -4 -5 14.55 0.79
5 -4 -5 14.18 0.72
-5 4 5 13.12 0.7
-5 4 5 13.69 0.74
-5 4 5 13.52 0.76
-5 4 5 13.16 0.69
-5 4 5 13.68 0.72
-5 4 5 14.9 0.72
-5 4 5 14.22 0.84
-5 4 5 13.92 0.7
-4 -4 5 5.62 0.32
4 -4 -5 5.53 0.34
-4 -4 5 4.75 0.34
-4 -4 5 4.61 0.41
4 -4 -5 5 0.29
4 -4 -5 4.82 0.35
-4 -4 5 5.41 0.29
-4 4 5 5.49 0.41
-4 4 5 4.85 0.34
-4 4 5 5.39 0.43
4 4 -5 5.24 0.36
-4 4 5 5.02 0.33
-4 4 5 5.74 0.39
3 -4 -5 3.87 0.3
3 -4 -5 4 0.24
3 -4 -5 4.27 0.28
-3 -4 5 4.05 0.3
-3 -4 5 4.38 0.37
-3 -4 5 4.34 0.24
-3 4 5 4.04 0.31
3 4 -5 3.96 0.29
-3 4 5 3.84 0.28
-3 4 5 3.89 0.29
-3 4 5 3.62 0.25
-3 4 5 4.39 0.35
-3 4 5 4.09 0.26
-3 4 5 3.62 0.35
-2 -4 5 22.17 1.09
-2 -4 5 22.9 1.1
2 -4 -5 23.28 1.14
-2 -4 5 25.57 1.2
2 -4 -5 23.3 1.1
2 -4 -5 24.39 1.13
-2 -4 5 23.84 1.14
-2 4 5 24.94 1.22
-2 4 5 25.14 1.12
-2 4 5 25.53 1.12
-2 4 5 22.99 1.15
2 4 -5 24.13 1.13
-2 4 5 26.73 1.16
-2 4 5 23.68 1.1
2 4 -5 23.87 1.15
-2 4 5 25.26 1.19
-1 -4 5 8.44 0.47
-1 -4 5 8.63 0.46
-1 -4 5 9.43 0.45
-1 -4 5 9.71 0.49
1 -4 -5 8.95 0.48
1 -4 -5 9.61 0.45
-1 -4 5 8.71 0.48
1 -4 -5 9.05 0.49
-1 4 5 9.81 0.47
-1 4 5 8.56 0.44
-1 4 5 9.39 0.5
-1 4 5 9.28 0.53
-1 4 5 9.93 0.46
1 4 -5 9.41 0.51
1 4 -5 8.76 0.47
-1 4 5 9.09 0.5
0 -4 5 22.99 1.07
0 -4 -5 21.24 1.09
0 -4 -5 23.77 1.06
0 -4 -5 23.4 1.08
0 -4 5 23.67 1.09
0 -4 5 24.66 1.08
0 -4 5 24.25 1.11
0 -4 5 24.56 1.1
0 -4 5 22.11 1.11
0 4 5 22.81 1.08
0 4 -5 22.9 1.09
0 4 5 22.84 1.05
0 4 5 23.29 1.07
0 4 5 22.88 1.11
0 4 5 23.25 1.11
0 4 -5 23.62 1.09
0 4 -5 23.78 1.12
-1 -4 -5 24.16 1.1
1 -4 5 22.11 1.09
1 -4 5 24.11 1.1
1 -4 5 22.88 1.12
-1 -4 -5 24 1.12
1 -4 5 24.63 1.17
1 -4 5 23.59 1.11
1 -4 5 21.46 1.07
1 -4 5 23.74 1.14
-1 -4 -5 24.11 1.07
1 -4 5 23.1 1.07
1 4 5 24.12 1.09
-1 4 -5 24.85 1.12
1 4 5 25.02 1.08
-1 4 -5 24.36 1.12
1 4 5 25.99 1.1
-1 4 -5 21.85 1.14
1 4 5 22.11 1.12
2 -4 5 17.77 0.83
2 -4 5 17.55 0.85
2 -4 5 18.02 0.91
-2 -4 -5 19.18 0.85
2 -4 5 17.18 0.89
-2 -4 -5 17.8 0.82
-2 -4 -5 17.79 0.89
2 -4 5 18.72 0.87
-2 -4 -5 16.91 0.87
2 -4 5 17.75 0.96
2 4 5 18.39 0.89
2 4 5 17.02 0.83
-2 4 -5 17.95 0.92
-2 4 -5 18.44 0.88
2 4 5 18.31 0.86
3 -4 5 4.89 0.33
-3 -4 -5 5.27 0.33
3 -4 5 4.74 0.34
3 -4 5 5.15 0.46
3 -4 5 5.24 0.38
-3 -4 -5 6.35 0.63
-3 -4 -5 4.81 0.35
-3 -4 -5 5.03 0.34
3 -4 5 4.88 0.29
3 4 5 4.68 0.35
3 4 5 5.05 0.32
-3 4 -5 5 0.35
3 4 5 4.73 0.29
-3 4 -5 5.18 0.38
-3 4 -5 4.67 0.31
4 -4 5 9.72 0.56
4 -4 5 9.79 0.61
-4 -4 -5 10.78 0.57
-4 -4 -5 10.36 0.57
-4 -4 -5 10.24 0.58
4 -4 5 10.46 0.52
-4 -4 -5 10.14 0.5
4 4 5 9.47 0.57
-4 4 -5 10.11 0.51
4 4 5 11.11 0.55
4 4 5 11.45 0.51
-4 4 -5 9.23 0.58
-4 4 -5 9.77 0.56
5 -4 5 33.38 1.64
-5 -4 -5 31.85 1.62
5 -4 5 35.17 1.65
5 -4 5 33.48 1.59
-5 -4 -5 34.01 1.56
5 -4 5 34.26 1.56
-5 -4 -5 34.9 1.54
-5 -4 -5 35.27 1.57
-5 -4 -5 33.2 1.57
5 -4 5 35.27 1.55
-5 -4 -5 34.1 1.55
5 -4 5 31.25 1.53
-5 -4 -5 32.54 1.59
-5 -4 -5 33.3 1.58
-5 4 -5 36.54 1.54
5 4 5 32.44 1.65
5 4 5 34.05 1.53
5 4 5 35.73 1.61
5 4 5 34.75 1.58
-5 4 -5 36.22 1.62
6 -4 5 1.86 0.27
6 -4 5 1.93 0.28
-6 -4 -5 2.07 0.2
6 -4 5 2.34 0.2
6 -4 5 2.22 0.2
-6 -4 -5 1.74 0.29
-6 -4 -5 1.88 0.26
-6 -4 -5 2.21 0.26
6 -4 5 2 0.18
-6 -4 -5 2.3 0.29
-6 -4 -5 1.93 0.24
-6 -4 -5 1.91 0.22
6 4 5 1.28 0.23
6 4 5 2.49 0.22
6 4 5 1.87 0.24
-6 4 -5 1.97 0.24
-6 4 -5 2.16 0.26
6 4 5 2.2 0.2
-7 -4 -5 1.24 0.14
-7 -4 -5 1.14 0.17
7 -4 5 0.94 0.16
7 -4 5 1.29 0.18
-7 -4 -5 1.17 0.2
-7 4 -5 1.18 0.2
7 4 5 1.47 0.18
7 4 5 1.02 0.14
7 4 5 1.3 0.18
7 -5 -5 0.5 0.13
-7 -5 5 0.51 0.07
7 -5 -5 0.61 0.13
7 -5 -5 0.56 0.14
-6 -5 5 0.26 0.07
6 -5 -5 0.37 0.13
6 -5 -5 0.19 0.1
6 -5 -5 0.19 0.11
-6 -5 5 0.29 0.08
-6 -5 5 0.22 0.13
-6 5 5 0.19 0.13
-5 -5 5 5.48 0.31
5 -5 -5 5.57 0.32
-5 -5 5 5.71 0.31
5 -5 -5 5.93 0.35
5 -5 -5 6.37 0.31
5 -5 -5 5.62 0.37
-5 -5 5 6.13 0.42
-5 -5 5 5.51 0.37
5 -5 -5 5.82 0.36
-5 -5 5 5.54 0.3
-5 5 5 6.46 0.45
-5 5 5 5.35 0.36
-5 5 5 5.53 0.35
-5 5 5 6.77 0.37
-4 -5 5 0.98 0.14
4 -5 -5 0.94 0.24
4 -5 -5 0.95 0.17
-4 -5 5 0.61 0.15
-4 -5 5 0.7 0.22
4 -5 -5 0.76 0.15
4 -5 -5 0.95 0.13
-4 -5 5 1.12 0.15
-4 -5 5 0.63 0.13
-4 5 5 0.43 0.18
-4 5 5 0.75 0.17
-4 5 5 0.55 0.21
-4 5 5 0.55 0.16
-4 5 5 0.75 0.18
-4 5 5 0.96 0.49
-4 5 5 0.96 0.2
-3 -5 5 1.65 0.25
3 -5 -5 1.64 0.23
3 -5 -5 1.1 0.19
3 -5 -5 1.51 0.2
3 -5 -5 1.47 0.34
3 -5 -5 1.31 0.14
-3 -5 5 1.51 0.23
-3 -5 5 1.31 0.16
-3 -5 5 1.34 0.17
-3 -5 5 1.8 0.15
3 -5 -5 1.62 0.16
-3 5 5 1.29 0.21
-3 5 5 1.46 0.2
-3 5 5 1.49 0.18
-3 5 5 1.34 0.27
-3 5 5 1.39 0.26
-3 5 5 1.6 0.23
-3 5 5 1.32 0.21
-3 5 5 1.58 0.23
2 -5 -5 9.76 0.44
2 -5 -5 8.95 0.47
2 -5 -5 9.31 0.46
-2 -5 5 9.06 0.46
-2 -5 5 8.89 0.5
-2 5 5 9.19 0.52
-2 5 5 7.03 0.51
-2 5 5 9 0.49
-2 5 5 8.86 0.57
-1 -5 5 37.95 1.67
1 -5 -5 37.78 1.64
-1 -5 5 38.54 1.64
1 -5 -5 38.65 1.65
-1 -5 5 36.98 1.69
1 -5 -5 34.75 1.66
1 5 -5 37.07 1.7
1 5 -5 35.22 1.73
-1 5 5 34.81 1.66
-1 5 5 34.95 1.72
-1 5 5 36.75 1.72
0 -5 5 0.92 0.17
0 -5 -5 0.97 0.16
0 -5 5 0.9 0.16
0 -5 -5 1.1 0.21
0 -5 5 1.05 0.18
0 -5 5 1 0.19
0 -5 -5 0.83 0.16
0 5 5 1.13 0.19
0 5 -5 0.79 0.2
0 5 5 0.88 0.19
0 5 -5 1.29 0.2
0 5 5 1.02 0.14
-1 -5 -5 1.3 0.22
-1 -5 -5 1.47 0.19
1 -5 5 1.76 0.25
-1 -5 -5 1.97 0.22
-1 -5 -5 1.29 0.23
1 -5 5 1.55 0.22
1 -5 5 1.87 0.19
1 -5 5 1.67 0.21
-1 -5 -5 1.5 0.25
-1 5 -5 1.3 0.23
1 5 5 1.59 0.17
-1 5 -5 1.55 0.21
1 5 5 1.36 0.2
2 -5 5 4.79 0.27
2 -5 5 3.65 0.49
-2 -5 -5 4.76 0.29
-2 -5 -5 3.82 0.48
-2 -5 -5 4.8 0.3
-2 -5 -5 4.97 0.36
2 -5 5 3.43 0.66
2 -5 5 5.76 0.39
-2 -5 -5 5.32 0.36
-2 -5 -5 4.85 0.32
-2 5 -5 4.99 0.36
2 5 5 5.04 0.37
2 5 5 5.01 0.59
2 5 5 5.46 0.35
2 5 5 5.04 0.32
2 5 5 5.19 0.29
-2 5 -5 4.59 0.55
-3 -5 -5 2.64 0.26
3 -5 5 2.9 0.2
-3 -5 -5 3.09 0.28
-3 -5 -5 2.58 0.25
3 -5 5 2.19 0.22
3 -5 5 3 0.3
-3 -5 -5 2.69 0.21
-3 -5 -5 3 0.28
-3 -5 -5 2.72 0.28
3 -5 5 2.82 0.21
3 -5 5 2.82 0.24
3 -5 5 3.25 0.33
-3 -5 -5 2.89 0.28
3 5 5 2.8 0.31
3 5 5 2.99 0.21
3 5 5 3.1 0.29
-3 5 -5 3.23 0.24
-3 5 -5 3.25 0.3
-3 5 -5 2.64 0.33
3 5 5 2.52 0.24
3 5 5 2.82 0.25
3 5 5 2.94 0.32
4 -5 5 4.05 0.28
-4 -5 -5 4.03 0.31
4 -5 5 3.75 0.24
4 -5 5 4.04 0.35
4 -5 5 3.99 0.38
-4 -5 -5 4.25 0.31
-4 -5 -5 4.16 0.28
-4 -5 -5 4.44 0.35
-4 -5 -5 4.4 0.27
4 5 5 3.42 0.31
4 5 5 4.09 0.29
-4 5 -5 4.07 0.27
-4 5 -5 4.01 0.38
4 5 5 3.72 0.34
-4 5 -5 3.91 0.33
4 5 5 3.63 0.24
-5 -5 -5 17.66 0.93
5 -5 5 19.9 0.98
5 -5 5 20.32 0.91
-5 -5 -5 19.94 0.93
5 -5 5 17.71 0.97
5 5 5 20.19 0.93
-6 -5 -5 0.78 0.15
6 -5 5 1.19 0.13
-6 -5 -5 1 0.18
6 5 5 1.23 0.15
6 5 5 1.04 0.19
6 5 5 1.1 0.16
-6 5 -5 1.28 0.2
-5 -6 5 2.85 0.23
-5 -6 5 2.97 0.16
5 -6 -5 2.68 0.19
5 -6 -5 2.83 0.19
-5 -6 5 2.86 0.16
5 6 -5 2.52 0.23
-5 6 5 2.6 0.2
4 -6 -5 7.41 0.35
4 -6 -5 7.27 0.38
-4 -6 5 7.43 0.35
4 -6 -5 7.02 0.38
-4 -6 5 7.41 0.35
-4 -6 5 6.73 0.42
-4 6 5 7.15 0.4
-4 6 5 6.92 0.39
4 6 -5 6.69 0.44
3 -6 -5 0.96 0.17
-3 -6 5 1.21 0.14
-3 -6 5 1.11 0.23
3 -6 -5 1.3 0.14
3 -6 -5 0.76 0.16
-3 -6 5 1.1 0.14
3 -6 -5 1.06 0.19
-3 -6 5 1.14 0.13
-3 6 5 0.86 0.48
-3 6 5 1.03 0.2
-3 6 5 1.04 0.19
2 -6 -5 6.29 0.37
2 -6 -5 6.33 0.33
-2 -6 5 5.96 0.32
-2 -6 5 5.92 0.32
-2 -6 5 5.77 0.44
-2 -6 5 6.42 0.42
2 -6 -5 6.84 0.36
2 -6 -5 6.07 0.35
-2 -6 5 5.69 0.36
-2 -6 5 6.76 0.32
-2 -6 5 6.39 0.34
-2 -6 5 4.91 0.6
2 6 -5 5.53 0.48
-2 6 5 6.03 0.38
-2 6 5 5.88 0.33
-2 6 5 6.34 0.37
-2 6 5 6.32 0.37
-1 -6 5 2.63 0.19
-1 -6 5 2.32 0.22
-1 -6 5 2.1 0.46
-1 -6 5 2.26 0.18
-1 -6 5 2.29 0.2
-1 -6 5 2.38 0.32
1 -6 -5 2.78 0.25
-1 -6 5 2.56 0.18
1 -6 -5 2.47 0.2
1 -6 -5 2.54 0.18
1 -6 -5 2.48 0.24
-1 -6 5 2.58 0.28
-1 6 5 2.41 0.25
-1 6 5 2.44 0.23
-1 6 5 2.44 0.25
-1 6 5 2.38 0.26
1 6 -5 2.21 0.24
1 6 -5 2.37 0.29
0 -6 -5 0.61 0.14
0 -6 -5 0.5 0.16
0 -6 -5 0.66 0.15
0 -6 5 0.65 0.27
0 -6 5 0.5 0.14
0 -6 -5 0.75 0.18
0 -6 5 0.54 0.36
0 -6 -5 0.43 0.1
0 -6 5 0.55 0.13
0 6 5 0.56 0.2
0 6 5 0.27 0.14
0 6 5 0.71 0.16
0 6 5 0.6 0.19
0 6 -5 0.55 0.23
0 6 -5 0.42 0.14
1 -6 5 7.68 0.39
-1 -6 -5 7.43 0.44
1 -6 5 6.88 0.43
-1 -6 -5 7.31 0.42
-1 -6 -5 7.78 0.47
-1 -6 -5 7.85 0.38
-1 -6 -5 7.28 0.42
-1 -6 -5 6.25 0.82
-1 -6 -5 7.99 0.42
-1 -6 -5 7.11 0.51
1 -6 5 8.56 0.53
1 -6 5 7.84 0.74
1 6 5 6.88 0.44
1 6 5 8.05 0.44
-1 6 -5 7.56 0.55
-1 6 -5 7.64 0.46
-1 6 -5 8.1 0.51
1 6 5 7.68 0.44
1 6 5 7.85 0.45
-2 -6 -5 1.83 0.21
-2 -6 -5 1.58 0.2
2 -6 5 1.6 0.42
-2 -6 -5 1.58 0.19
2 -6 5 1.4 0.22
-2 -6 -5 1.32 0.24
2 -6 5 1.56 0.18
2 -6 5 1.62 0.27
-2 -6 -5 1.32 0.29
2 -6 5 1.44 0.16
-2 -6 -5 1.56 0.18
2 6 5 1.62 0.24
2 6 5 1.61 0.16
2 6 5 1.42 0.19
-2 6 -5 1.57 0.22
-2 6 -5 1.67 0.27
-2 6 -5 1.31 0.17
2 6 5 1.42 0.24
-3 -6 -5 3.57 0.29
-3 -6 -5 3.7 0.27
3 -6 5 3.83 0.35
3 -6 5 4.24 0.27
3 -6 5 4.2 0.24
3 -6 5 3.46 0.29
-3 6 -5 4.45 0.35
3 6 5 3.91 0.3
3 6 5 3.76 0.27
3 6 5 3.62 0.3
4 -6 5 0.11 0.16
-4 -6 -5 0.08 0.11
4 -6 5 0.1 0.09
4 6 5 0 0.1
4 6 5 0.1 0.13
4 6 5 0.01 0.12
-5 -6 -5 2.17 0.17
-5 -6 -5 2.06 0.23
5 -6 5 2.82 0.17
5 -6 5 3.03 0.22
5 6 5 2.82 0.21
5 6 5 2.6 0.18
5 6 5 2.66 0.2
5 6 5 2.73 0.19
5 6 5 2.74 0.2
-3 -7 5 1.62 0.09
3 -7 -5 1.22 0.28
3 -7 -5 1.86 0.15
-3 -7 5 1.7 0.17
-3 -7 5 1.43 0.11
-3 -7 5 1.54 0.11
3 7 -5 1.46 0.17
-3 7 5 1.68 0.17
-2 -7 5 0.56 0.17
-2 -7 5 0.98 0.09
2 -7 -5 0.54 0.28
-2 -7 5 1.05 0.1
-2 -7 5 1 0.1
-2 7 5 0.78 0.13
2 7 -5 0.89 0.17
-2 7 5 0.99 0.15
2 7 -5 0.92 0.19
1 -7 -5 0.5 0.11
-1 -7 5 0.59 0.09
-1 -7 5 0.44 0.09
-1 -7 5 0.31 0.15
-1 -7 5 0.52 0.1
-1 -7 5 0.19 0.23
1 -7 -5 0.5 0.3
-1 7 5 0.62 0.15
1 7 -5 0.28 0.13
1 7 -5 0.39 0.18
-1 7 5 0.39 0.11
-1 7 5 0.46 0.11
0 -7 5 5.29 0.28
0 -7 5 5.31 0.33
0 -7 -5 6.04 0.3
0 -7 5 6.09 0.29
0 -7 5 5.95 0.31
0 -7 5 5.64 0.38
0 7 5 4.65 0.31
0 7 5 5.89 0.33
0 7 5 6.32 0.33
0 7 -5 5.32 0.37
1 -7 5 6.78 0.32
1 -7 5 7.44 0.42
1 -7 5 6.66 0.57
1 -7 5 6.43 0.34
-1 7 -5 6.42 0.4
1 7 5 5.82 0.35
1 7 5 6.03 0.35
1 7 5 6.51 0.36
1 7 5 6.7 0.36
2 -7 5 4.06 0.41
2 -7 5 3.94 0.25
2 -7 5 3.73 0.23
-2 7 -5 4.8 0.3
2 7 5 5.02 0.26
2 7 5 4.64 0.27
2 7 5 4.76 0.27
2 7 5 4.88 0.27
-9 0 6 0.68 0.11
-9 0 6 0.59 0.2
9 0 -6 0.77 0.18
9 0 -6 0.65 0.16
-9 0 6 0.68 0.1
-9 0 6 0.59 0.12
8 0 -6 0.05 0.19
-8 0 6 0.32 0.13
-8 0 6 0.32 0.09
-8 0 6 0.17 0.11
8 0 -6 0.22 0.14
-8 0 6 0.29 0.23
-8 0 6 0.22 0.09
-7 0 6 1.83 0.18
-7 0 6 1.63 0.19
-7 0 6 1.91 0.19
7 0 -6 1.78 0.22
-7 0 6 1.79 0.31
-7 0 6 1.66 0.22
-6 0 6 10.68 0.47
6 0 -6 9.87 0.56
-6 0 6 10.13 0.52
-6 0 6 9.25 0.51
5 0 -6 0.62 0.15
-5 0 6 0.93 0.13
5 0 -6 0.97 0.13
-5 0 6 0.99 0.14
-5 0 6 1.21 0.12
-5 0 6 0.79 0.13
4 0 -6 16.91 0.83
-4 0 6 18.38 0.82
-4 0 6 17.45 0.88
4 0 -6 18.8 0.85
-4 0 6 18.78 0.84
4 0 -6 17.12 0.83
4 0 -6 19.2 0.86
-4 0 6 17.57 0.83
-4 0 6 17.65 0.83
-4 0 6 18.44 0.82
-3 0 6 31.91 1.39
3 0 -6 32.71 1.39
-3 0 6 31 1.44
3 0 -6 30.61 1.39
-3 0 6 31.57 1.37
-3 0 6 29.85 1.37
-3 0 6 31.6 1.4
-3 0 6 29.98 1.39
-3 0 6 30.91 1.39
3 0 -6 31.99 1.4
-2 0 6 234.3 10.47
2 0 -6 260.5 10.48
-2 0 6 231.71 10.49
-2 0 6 238.97 10.53
-2 0 6 242.57 10.48
2 0 -6 232.9 10.48
-2 0 6 240.38 10.48
-2 0 6 237.05 10.48
2 0 -6 243.52 10.48
1 0 -6 0.09 0.04
-1 0 6 0.06 0.03
-1 0 6 0.19 0.07
-1 0 6 0 0.03
-1 0 6 0.06 0.07
-1 0 6 0.12 0.05
1 0 -6 0.1 0.04
-1 0 6 0.08 0.04
1 0 -6 0.06 0.05
0 0 6 8.63 0.4
0 0 6 8.63 0.42
0 0 -6 8.89 0.41
0 0 -6 8.58 0.39
0 0 -6 7.91 0.42
0 0 6 8.46 0.41
0 0 6 8.94 0.42
0 0 6 8.07 0.39
0 0 -6 9.36 0.41
0 0 -6 8.39 0.41
0 0 6 8.94 0.41
-1 0 -6 22.79 1.04
1 0 6 23.53 1.06
1 0 6 22.13 1.04
1 0 6 23.57 1.04
-1 0 -6 24.71 1.04
-1 0 -6 23.45 1.05
-1 0 -6 21.61 1.03
1 0 6 22.19 1.04
1 0 6 22.37 1.03
-1 0 -6 22.68 1.04
1 0 6 22.37 1.04
1 0 6 23.17 1.05
2 0 6 158.61 7.13
2 0 6 167.53 7.15
-2 0 -6 177.94 7.14
2 0 6 156.01 7.13
-2 0 -6 165.61 7.13
2 0 6 164.28 7.16
2 0 6 154.81 7.12
2 0 6 161.88 7.11
-2 0 -6 161.79 7.13
2 0 6 167.91 7.15
-2 0 -6 152.26 7.13
-2 0 -6 161.83 7.14
-3 0 -6 0.08 0.12
3 0 6 0.24 0.07
3 0 6 0.29 0.1
3 0 6 0.05 0.08
-3 0 -6 0.18 0.11
3 0 6 0.15 0.09
-3 0 -6 0.04 0.1
3 0 6 0.19 0.11
3 0 6 0.15 0.09
-4 0 -6 9.1 0.53
4 0 6 10.78 0.49
-4 0 -6 10 0.52
4 0 6 9.27 0.56
-4 0 -6 10.11 0.49
-4 0 -6 9.97 0.54
4 0 6 10.06 0.52
4 0 6 9.97 0.54
4 0 6 10.96 0.51
4 0 6 10.13 0.48
5 0 6 10.31 0.49
-5 0 -6 9.03 0.53
5 0 6 10.51 0.5
-5 0 -6 10.2 0.53
5 0 6 9.77 0.51
5 0 6 9.61 0.56
-5 0 -6 9.6 0.49
-6 0 -6 2.09 0.22
6 0 6 2.53 0.22
6 0 6 1.9 0.18
-6 0 -6 2.22 0.19
6 0 6 1.46 0.32
7 0 6 8.4 0.55
7 0 6 7.84 0.45
-7 0 -6 7.01 0.45
7 0 6 7.79 0.44
-7 0 -6 7.4 0.5
-7 0 -6 8.5 0.44
-7 0 -6 7.81 0.47
7 0 6 7.07 0.46
-7 0 -6 8.02 0.49
7 0 6 8.36 0.44
-7 0 -6 7.58 0.5
7 0 6 8.1 0.46
8 0 6 25.39 1.14
8 0 6 25.09 1.14
-8 0 -6 24.23 1.19
-8 0 -6 24.31 1.14
-8 0 -6 24.59 1.13
-9 -1 6 7.67 0.35
-9 -1 6 6.94 0.35
9 -1 -6 6.47 0.39
-9 -1 6 6.97 0.34
9 -1 -6 6.76 0.43
-9 1 6 7.48 0.36
-9 1 6 7.47 0.35
9 1 -6 8.34 0.4
9 1 -6 7.28 0.43
-9 1 6 6.47 0.43
-9 1 6 6.86 0.35
-8 -1 6 8.24 0.41
-8 -1 6 8.13 0.52
-8 -1 6 7.94 0.43
8 -1 -6 8.59 0.54
8 -1 -6 8.19 0.49
-8 -1 6 8.54 0.4
-8 -1 6 8.11 0.41
-8 1 6 7.85 0.42
-8 1 6 8.19 0.55
-8 1 6 7.34 0.45
-7 -1 6 14.56 0.83
-7 -1 6 15.36 0.71
7 -1 -6 15.57 0.77
-7 -1 6 16.32 0.74
7 -1 -6 15.74 0.8
-7 -1 6 15.71 0.72
-7 -1 6 15.09 0.72
-7 1 6 15.04 0.76
-7 1 6 13.81 0.73
-7 1 6 15.51 0.92
-7 1 6 14.99 0.75
-7 1 6 15.24 0.73
-7 1 6 15.48 0.85
-7 1 6 13.4 0.77
6 -1 -6 24.8 1.18
6 -1 -6 24.83 1.14
-6 -1 6 23.6 1.11
-6 -1 6 24.28 1.1
-6 1 6 23.64 1.12
-6 1 6 21.85 1.14
-6 1 6 23.64 1.12
6 1 -6 24.73 1.15
5 -1 -6 1.34 0.15
-5 -1 6 1.5 0.16
5 -1 -6 1.67 0.2
5 -1 -6 1.5 0.17
-5 -1 6 1.36 0.15
-5 1 6 1.29 0.17
-5 1 6 1.72 0.22
-5 1 6 1.69 0.21
-5 1 6 1.37 0.18
-5 1 6 1.24 0.13
-5 1 6 1.36 0.18
5 1 -6 1.62 0.17
-4 -1 6 18.89 0.9
4 -1 -6 18.57 0.87
-4 -1 6 19.15 0.83
4 -1 -6 16.93 0.84
4 -1 -6 17.98 0.87
-4 -1 6 19.01 0.82
4 -1 -6 18.47 0.84
-4 1 6 17.26 0.84
-4 1 6 17.37 0.85
-4 1 6 18.7 0.87
-4 1 6 17.57 0.85
-4 1 6 18.17 0.89
4 1 -6 16.97 0.84
4 1 -6 17.62 0.84
-3 -1 6 42.59 1.93
3 -1 -6 44.34 1.96
3 -1 -6 44.57 1.96
3 -1 -6 45.65 1.96
-3 -1 6 41.29 1.98
3 -1 -6 45.14 1.94
3 -1 -6 44.19 1.94
-3 -1 6 43.01 1.91
-3 1 6 44.26 1.94
-3 1 6 42.53 1.95
-3 1 6 43.1 1.92
-3 1 6 44.76 1.93
-3 1 6 41.29 1.92
-3 1 6 42.72 1.98
-3 1 6 41.45 1.92
-3 1 6 43.88 1.94
-3 1 6 42.93 1.97
-3 1 6 45.35 1.95
2 -1 -6 44.97 1.93
-2 -1 6 42.99 1.95
2 -1 -6 40.18 1.92
-2 -1 6 45.93 1.88
-2 -1 6 43.83 1.92
2 -1 -6 44.53 1.92
2 -1 -6 46.29 1.92
2 -1 -6 41.51 1.91
-2 1 6 39.56 1.91
-2 1 6 41.66 1.92
-2 1 6 42.76 1.94
-2 1 6 42.02 1.92
-2 1 6 44.43 1.91
-2 1 6 44.26 1.9
-2 1 6 43.83 1.91
-2 1 6 41.29 1.95
-2 1 6 42.36 1.91
-1 -1 6 51.07 2.28
1 -1 -6 49.72 2.28
1 -1 -6 53.62 2.27
-1 -1 6 51.42 2.24
-1 -1 6 51.74 2.24
1 -1 -6 53.52 2.28
1 -1 -6 55.01 2.27
1 -1 -6 50.27 2.28
-1 -1 6 53.02 2.31
-1 1 6 52.4 2.29
-1 1 6 51.96 2.27
-1 1 6 48.97 2.28
-1 1 6 52.69 2.28
-1 1 6 48.28 2.26
-1 1 6 47.86 2.27
-1 1 6 50.04 2.26
0 -1 -6 44.84 1.98
0 -1 6 46.33 1.96
0 -1 -6 43.86 1.98
0 -1 -6 42.85 1.99
0 -1 6 45.08 1.97
0 -1 -6 43.6 1.98
0 -1 6 42.18 1.97
0 -1 6 45.26 1.96
0 -1 -6 45.24 1.98
0 -1 6 44.4 1.99
0 1 6 46.03 1.98
0 1 -6 46.67 1.97
0 1 6 43.51 2
0 1 6 45.81 1.97
0 1 -6 46.06 1.97
0 1 -6 44.57 1.97
0 1 -6 44.35 1.97
0 1 6 43.46 2
0 1 6 43.11 1.99
0 1 6 45.28 2
1 -1 6 28.88 1.5
-1 -1 -6 35.22 1.52
1 -1 6 31.76 1.5
1 -1 6 33.04 1.52
1 -1 6 33.3 1.5
-1 -1 -6 35.1 1.52
-1 -1 -6 32.94 1.52
1 -1 6 32.83 1.49
1 -1 6 34.66 1.51
-1 -1 -6 34.55 1.52
-1 -1 -6 33.67 1.52
1 -1 6 34.79 1.52
1 -1 6 33.79 1.5
-1 1 -6 35.59 1.5
1 1 6 32.17 1.5
1 1 6 31.81 1.54
1 1 6 32.72 1.53
-1 1 -6 33.52 1.51
1 1 6 32.51 1.53
-1 1 -6 37.42 1.5
1 1 6 35.09 1.52
1 1 6 34.57 1.51
1 1 6 32.41 1.53
-1 1 -6 35.4 1.52
-1 1 -6 34.07 1.5
-2 -1 -6 49.15 2.24
-2 -1 -6 52.8 2.24
2 -1 6 50.79 2.24
-2 -1 -6 52.76 2.24
-2 -1 -6 49.98 2.23
2 -1 6 49.82 2.26
2 -1 6 53.18 2.22
2 -1 6 48.39 2.23
2 -1 6 50.51 2.19
-2 -1 -6 49.92 2.25
2 -1 6 49.99 2.23
2 -1 6 47.49 2.22
2 1 6 47.98 2.22
2 1 6 47.71 2.23
2 1 6 50.57 2.24
-2 1 -6 46.63 2.24
2 1 6 48.09 2.25
-2 1 -6 50.22 2.22
2 1 6 46.1 2.2
2 1 6 52.33 2.26
-2 1 -6 52.14 2.24
2 1 6 47.29 2.26
-2 1 -6 53.43 2.23
-3 -1 -6 23.86 1.12
-3 -1 -6 23.95 1.12
3 -1 6 24.6 1.17
3 -1 6 26.13 1.12
3 -1 6 23.71 1.1
-3 -1 -6 22.29 1.11
3 -1 6 24.6 1.08
3 -1 6 25.44 1.13
-3 -1 -6 22.13 1.09
-3 1 -6 21.48 1.1
3 1 6 24.25 1.1
-3 1 -6 23.48 1.12
3 1 6 23.42 1.15
3 1 6 24.77 1.1
3 1 6 23.42 1.1
3 1 6 22.6 1.11
-3 1 -6 23.61 1.11
-3 1 -6 24.12 1.12
3 1 6 22.56 1.07
4 -1 6 0.53 0.14
-4 -1 -6 0.34 0.12
4 -1 6 0.37 0.1
4 -1 6 0.38 0.14
-4 -1 -6 0.24 0.13
-4 -1 -6 0.35 0.1
4 -1 6 0.39 0.11
-4 -1 -6 0.63 0.16
-4 1 -6 0.31 0.1
4 1 6 0.4 0.07
-4 1 -6 0.37 0.13
4 1 6 0.35 0.09
-4 1 -6 0.3 0.14
-4 1 -6 0.35 0.14
4 1 6 0.3 0.1
-4 1 -6 0.62 0.15
5 -1 6 8.37 0.51
5 -1 6 8.76 0.53
5 -1 6 8.28 0.45
-5 -1 -6 8.12 0.42
-5 -1 -6 8.32 0.45
5 -1 6 8.58 0.46
5 1 6 7.79 0.4
-5 1 -6 8.31 0.42
5 1 6 8.18 0.43
-5 1 -6 7.98 0.47
5 1 6 8.24 0.46
-6 -1 -6 0.61 0.23
6 -1 6 0.35 0.14
6 -1 6 0.74 0.2
-6 -1 -6 0.38 0.19
-6 -1 -6 0.62 0.15
6 -1 6 0.73 0.19
6 -1 6 0.53 0.21
-6 1 -6 0.21 0.21
-6 1 -6 0.59 0.17
6 1 6 0.67 0.16
6 1 6 0.55 0.15
-6 1 -6 0.92 0.16
6 1 6 0.23 0.08
7 -1 6 5.57 0.34
7 -1 6 5.98 0.35
-7 -1 -6 5.99 0.43
-7 -1 -6 5.41 0.31
-7 -1 -6 5.62 0.38
-7 -1 -6 6.19 0.51
-7 -1 -6 5.49 0.38
7 -1 6 5.74 0.35
-7 -1 -6 5.84 0.38
7 -1 6 6.2 0.39
7 -1 6 5.49 0.45
7 1 6 5.56 0.37
-7 1 -6 5.85 0.37
-7 1 -6 5.63 0.38
7 1 6 6.28 0.37
7 1 6 6.15 0.5
7 1 6 5.45 0.46
8 -1 6 0.46 0.16
-8 -1 -6 0.65 0.16
-8 -1 -6 0.49 0.15
8 -1 6 0.93 0.16
-8 -1 -6 0.49 0.2
8 -1 6 0.58 0.38
8 -1 6 0.46 0.19
-8 -1 -6 0.65 0.14
8 1 6 0.73 0.18
-8 1 -6 0.42 0.13
-8 1 -6 0.42 0.13
8 1 6 0.45 0.13
9 -2 -6 3.75 0.28
-9 -2 6 4.91 0.23
9 -2 -6 3.75 0.27
-9 -2 6 4.72 0.24
-9 2 6 5.48 0.32
9 2 -6 5.1 0.29
8 -2 -6 3.43 0.29
-8 -2 6 3.67 0.2
8 -2 -6 3.53 0.32
-8 -2 6 3.46 0.21
-8 -2 6 3.86 0.22
-8 2 6 3.63 0.24
-8 2 6 3 0.37
-8 2 6 3.51 0.36
-7 -2 6 4.88 0.29
-7 -2 6 5.07 0.29
-7 -2 6 5.01 0.3
7 -2 -6 5.15 0.42
7 -2 -6 4.83 0.36
7 -2 -6 5.12 0.38
-7 -2 6 5.14 0.28
-7 2 6 5.34 0.32
-7 2 6 5.4 0.39
-7 2 6 5.41 0.46
-7 2 6 5.19 0.34
-7 2 6 5.21 0.48
-6 -2 6 13.51 0.63
-6 -2 6 13.5 0.77
6 -2 -6 12.46 0.69
-6 -2 6 14.1 0.66
-6 2 6 12.59 0.62
-6 2 6 13.02 0.72
-5 -2 6 1.73 0.18
-5 -2 6 1.76 0.25
5 -2 -6 1.45 0.19
-5 -2 6 1.46 0.15
5 -2 -6 1.79 0.21
-5 2 6 1.74 0.17
-5 2 6 1.44 0.2
-5 2 6 2.26 0.18
-5 2 6 1.65 0.26
-5 2 6 1.34 0.18
-5 2 6 1.64 0.23
5 2 -6 1.72 0.18
-5 2 6 1.72 0.24
-4 -2 6 3.29 0.19
4 -2 -6 3.52 0.23
4 -2 -6 3.16 0.24
-4 -2 6 3.26 0.28
-4 -2 6 3.39 0.21
4 -2 -6 2.46 0.24
4 -2 -6 3.05 0.25
4 -2 -6 3.19 0.27
4 2 -6 3.23 0.22
-4 2 6 2.72 0.26
-4 2 6 2.98 0.21
-4 2 6 3.15 0.22
-4 2 6 3.27 0.25
-4 2 6 3.27 0.21
-4 2 6 3.13 0.26
-4 2 6 3.59 0.31
-4 2 6 3.33 0.21
-3 -2 6 31.11 1.45
3 -2 -6 32.72 1.51
3 -2 -6 30.68 1.49
3 -2 -6 32.96 1.51
3 -2 -6 34.23 1.49
-3 -2 6 32.79 1.53
-3 -2 6 32.88 1.47
-3 2 6 32.86 1.51
-3 2 6 32.45 1.47
-3 2 6 33.86 1.55
-3 2 6 34.47 1.48
-3 2 6 30.86 1.52
-3 2 6 31.7 1.49
-3 2 6 33.15 1.51
-3 2 6 33.46 1.48
-3 2 6 33.79 1.52
2 -2 -6 2.92 0.23
2 -2 -6 3.34 0.21
2 -2 -6 3.28 0.21
-2 -2 6 2.97 0.15
-2 -2 6 2.74 0.18
2 -2 -6 2.91 0.22
-2 -2 6 3.32 0.21
-2 -2 6 3.17 0.25
2 -2 -6 2.75 0.22
-2 -2 6 3.13 0.24
-2 2 6 2.97 0.25
-2 2 6 3.03 0.24
-2 2 6 3.13 0.18
-2 2 6 2.95 0.22
-2 2 6 2.87 0.19
-2 2 6 3.14 0.2
-2 2 6 2.99 0.21
-2 2 6 2.88 0.23
-1 -2 6 29.47 1.35
1 -2 -6 31.36 1.41
-1 -2 6 30.76 1.41
-1 -2 6 28.78 1.41
-1 -2 6 30.44 1.39
1 -2 -6 32.14 1.4
1 -2 -6 32.52 1.4
-1 -2 6 28.36 1.35
1 -2 -6 30.03 1.39
1 -2 -6 31.21 1.4
1 2 -6 30.49 1.36
-1 2 6 31.39 1.42
-1 2 6 33.14 1.44
-1 2 6 32.3 1.41
-1 2 6 29.69 1.38
-1 2 6 29.52 1.37
-1 2 6 29.94 1.41
0 -2 -6 60.14 2.76
0 -2 6 60.15 2.73
0 -2 -6 64.95 2.76
0 -2 6 61.58 2.71
0 -2 6 59.55 2.73
0 -2 6 64.61 2.72
0 -2 -6 60.56 2.75
0 -2 6 58.16 2.71
0 -2 -6 61.99 2.75
0 -2 -6 61.07 2.75
0 -2 -6 61.81 2.77
0 -2 6 61.56 2.75
0 2 6 66.62 2.76
0 2 6 63.43 2.78
0 2 -6 60.55 2.72
0 2 -6 68.46 2.73
0 2 6 59.06 2.79
0 2 6 63.4 2.73
0 2 -6 61.86 2.73
0 2 6 59.16 2.74
0 2 6 60.68 2.73
-1 -2 -6 44.08 1.95
1 -2 6 38.17 1.92
-1 -2 -6 43.02 1.96
-1 -2 -6 43.15 1.96
1 -2 6 44.97 1.92
1 -2 6 44.96 1.97
1 -2 6 44.02 1.94
-1 -2 -6 42.31 1.97
1 -2 6 44.94 1.94
1 -2 6 44.12 1.95
-1 -2 -6 43.21 1.96
-1 -2 -6 44.85 1.96
1 -2 6 43.35 1.95
-1 2 -6 43.17 1.94
1 2 6 44.32 1.99
-1 2 -6 42.88 1.96
1 2 6 44.43 1.93
-1 2 -6 41.89 1.94
1 2 6 42.72 1.95
-1 2 -6 46.2 1.96
1 2 6 45.53 1.96
1 2 6 46 1.98
1 2 6 38.91 1.97
2 -2 6 0.83 0.13
2 -2 6 1.01 0.14
2 -2 6 0.91 0.19
2 -2 6 1.15 0.15
-2 -2 -6 0.92 0.16
-2 -2 -6 0.84 0.14
-2 -2 -6 0.93 0.14
-2 -2 -6 0.97 0.15
2 -2 6 1 0.15
-2 -2 -6 0.82 0.13
2 2 6 0.84 0.18
2 2 6 0.75 0.21
-2 2 -6 1.11 0.13
2 2 6 0.86 0.13
-2 2 -6 0.83 0.13
-2 2 -6 0.97 0.14
2 2 6 0.73 0.12
-2 2 -6 0.98 0.15
2 2 6 1.15 0.15
-3 -2 -6 2.59 0.2
-3 -2 -6 2.55 0.22
3 -2 6 2.94 0.19
3 -2 6 3 0.24
3 -2 6 2.32 0.22
-3 -2 -6 2.77 0.22
-3 -2 -6 2.73 0.24
3 -2 6 2.98 0.3
3 -2 6 2.81 0.17
3 -2 6 3.01 0.24
3 2 6 2.97 0.17
-3 2 -6 2.62 0.24
-3 2 -6 2.86 0.22
3 2 6 2.89 0.2
-3 2 -6 2.99 0.22
3 2 6 2.56 0.21
-3 2 -6 2.68 0.24
-3 2 -6 2.72 0.22
3 2 6 2.56 0.19
4 -2 6 42.72 1.84
4 -2 6 41.78 1.83
-4 -2 -6 42.92 1.85
4 -2 6 41.99 1.91
4 -2 6 38.24 1.9
4 -2 6 41.84 1.82
-4 -2 -6 40.72 1.82
4 -2 6 40.93 1.9
-4 2 -6 39.9 1.88
4 2 6 41.48 1.82
-4 2 -6 40.98 1.91
-4 2 -6 37.19 1.83
-4 2 -6 38.83 1.87
4 2 6 40.44 1.87
4 2 6 42.81 1.84
-5 -2 -6 24.17 1.07
-5 -2 -6 25.05 1.09
5 -2 6 22.75 1.09
5 -2 6 22.26 1.06
5 -2 6 23.36 1.17
5 -2 6 23.93 1.08
-5 -2 -6 22.56 1.11
5 -2 6 24.39 1.17
-5 2 -6 22.95 1.07
5 2 6 23.15 1.08
5 2 6 23 1.06
5 2 6 22.89 1.12
-5 2 -6 22.35 1.12
6 -2 6 4.54 0.29
6 -2 6 4.47 0.26
-6 -2 -6 5 0.4
6 -2 6 4.72 0.32
6 -2 6 4.46 0.31
6 -2 6 4.7 0.35
-6 -2 -6 4.53 0.35
-6 -2 -6 4.97 0.36
-6 -2 -6 5.01 0.36
-6 -2 -6 4.24 0.34
6 -2 6 4.6 0.4
-6 -2 -6 5.46 0.31
-6 -2 -6 4.81 0.35
6 -2 6 4.49 0.3
6 -2 6 4.85 0.4
6 2 6 4.7 0.34
-6 2 -6 4.17 0.41
-6 2 -6 5.35 0.29
6 2 6 4.4 0.34
-6 2 -6 4.29 0.35
6 2 6 5.32 0.3
6 2 6 4.32 0.26
-6 2 -6 4.26 0.36
7 -2 6 8.37 0.53
7 -2 6 8.9 0.46
-7 -2 -6 8.75 0.54
-7 -2 -6 7.95 0.48
-7 -2 -6 8.57 0.48
7 -2 6 7.76 0.45
7 -2 6 8.8 0.5
-7 -2 -6 8.55 0.46
7 -2 6 7.92 0.44
-7 -2 -6 8.91 0.45
-7 -2 -6 7.66 0.5
7 -2 6 7.88 0.53
7 -2 6 8.53 0.44
-7 2 -6 8.72 0.48
7 2 6 8.13 0.47
7 2 6 8.9 0.48
-7 2 -6 8.18 0.48
-8 -2 -6 1.77 0.22
8 -2 6 1.99 0.15
-8 -2 -6 1.77 0.18
8 -2 6 2.02 0.21
8 -2 6 1.99 0.17
-8 2 -6 1.77 0.2
8 2 6 1.8 0.21
-8 2 -6 1.8 0.52
8 2 6 1.75 0.2
8 2 6 1.9 0.23
-8 -3 6 4.31 0.22
8 -3 -6 3.73 0.27
-8 -3 6 4.56 0.2
8 -3 -6 3.71 0.29
-8 -3 6 4.41 0.21
8 -3 -6 3.35 0.27
-8 -3 6 4.7 0.22
-8 3 6 4.12 0.27
-8 3 6 4.13 0.24
-8 3 6 3.98 0.36
-7 -3 6 0.39 0.1
7 -3 -6 0.35 0.15
7 -3 -6 0.26 0.15
7 -3 -6 0.27 0.09
-7 -3 6 0.31 0.07
-7 -3 6 0.25 0.08
7 -3 -6 0.36 0.14
7 -3 -6 0.24 0.14
-7 -3 6 0.26 0.08
-7 3 6 0.34 0.3
-7 3 6 0.22 0.12
-7 3 6 0.35 0.16
-7 3 6 0.17 0.18
-6 -3 6 3.21 0.21
6 -3 -6 3.43 0.31
-6 -3 6 3.02 0.21
-6 -3 6 3.3 0.22
-6 -3 6 3.47 0.25
6 -3 -6 3.47 0.34
6 -3 -6 2.93 0.22
6 -3 -6 3.46 0.28
-6 -3 6 2.99 0.19
-6 3 6 3.01 0.34
-6 3 6 2.96 0.24
-6 3 6 3.02 0.24
-6 3 6 3.7 0.44
-6 3 6 3.17 0.27
5 -3 -6 5.19 0.35
5 -3 -6 5.51 0.29
-5 -3 6 5.2 0.43
-5 -3 6 4.73 0.28
-5 -3 6 4.97 0.31
-5 -3 6 5.13 0.34
5 -3 -6 4.56 0.36
-5 3 6 5.17 0.39
-5 3 6 5.26 0.34
-5 3 6 4.88 0.36
-5 3 6 4.86 0.31
-5 3 6 4.59 0.31
4 -3 -6 3.94 0.28
-4 -3 6 3.57 0.33
-4 -3 6 4.02 0.28
4 -3 -6 3.41 0.29
-4 -3 6 3.52 0.21
-4 -3 6 3.77 0.24
-4 3 6 3.56 0.37
-4 3 6 3.31 0.31
4 3 -6 3.77 0.26
-4 3 6 3.52 0.25
-4 3 6 3.7 0.27
-4 3 6 3.57 0.31
-4 3 6 3.93 0.28
-4 3 6 3.71 0.31
-4 3 6 3.7 0.26
3 -3 -6 2.91 0.23
-3 -3 6 2.66 0.27
-3 -3 6 2.87 0.22
3 -3 -6 2.62 0.24
-3 -3 6 2.65 0.19
3 -3 -6 2.79 0.22
-3 -3 6 2.93 0.17
-3 3 6 2.85 0.24
3 3 -6 2.99 0.22
-3 3 6 2.97 0.21
-3 3 6 2.94 0.2
-3 3 6 2.67 0.25
-3 3 6 2.91 0.27
-3 3 6 2.59 0.27
-3 3 6 2.93 0.49
-3 3 6 2.75 0.21
3 3 -6 2.91 0.21
2 -3 -6 34.62 1.6
2 -3 -6 35.53 1.59
-2 -3 6 37.99 1.64
2 -3 -6 34.32 1.6
-2 -3 6 31.87 1.58
2 -3 -6 32.89 1.55
-2 -3 6 33.79 1.58
2 -3 -6 35.61 1.61
-2 3 6 37.34 1.64
-2 3 6 35.03 1.56
-2 3 6 32.99 1.61
-2 3 6 35 1.59
-2 3 6 35.93 1.58
2 3 -6 35.8 1.57
-2 3 6 32.43 1.57
1 -3 -6 13.55 0.69
-1 -3 6 13.52 0.65
1 -3 -6 14.56 0.7
-1 -3 6 13.93 0.69
-1 -3 6 13.06 0.67
1 -3 -6 13.83 0.7
-1 -3 6 12.82 0.65
-1 3 6 13.8 0.68
-1 3 6 14.03 0.73
1 3 -6 13.98 0.65
-1 3 6 13.47 0.68
1 3 -6 14.34 0.65
-1 3 6 14.04 0.7
1 3 -6 14.89 0.67
-1 3 6 14.08 0.65
0 -3 6 18 0.82
0 -3 -6 17.81 0.88
0 -3 -6 18.11 0.87
0 -3 -6 18.39 0.85
0 -3 6 18.62 0.84
0 -3 6 18.49 0.85
0 -3 -6 17.82 0.87
0 -3 6 18.18 0.86
0 -3 6 18.31 0.85
0 3 -6 18.32 0.86
0 3 -6 17.83 0.83
0 3 6 18.54 0.83
0 3 -6 16.4 0.84
0 3 6 16.65 0.87
0 3 6 18.89 0.86
0 3 6 19.05 0.83
0 3 6 18.19 0.86
0 3 6 17.66 0.86
0 3 -6 17.74 0.84
0 3 6 17.94 0.91
1 -3 6 20.29 0.98
1 -3 6 20.81 1.01
-1 -3 -6 19.88 1
-1 -3 -6 21.79 0.98
1 -3 6 21.55 0.97
1 -3 6 20.96 0.95
-1 -3 -6 19.35 0.95
1 -3 6 21.17 0.97
1 -3 6 20.62 0.97
-1 -3 -6 19.14 1
1 -3 6 20.97 0.98
1 3 6 21.26 1.05
1 3 6 21.21 1
1 3 6 19.89 0.95
-1 3 -6 22.12 0.99
-1 3 -6 22.19 0.98
-1 3 -6 21.06 0.99
1 3 6 21.6 0.99
-1 3 -6 20.52 0.97
1 3 6 20.83 0.98
-2 -3 -6 2.93 0.22
2 -3 6 2.81 0.18
2 -3 6 2.71 0.28
-2 -3 -6 2.96 0.19
-2 -3 -6 2.81 0.23
2 -3 6 3.04 0.24
2 -3 6 3.02 0.2
2 -3 6 2.48 0.22
2 -3 6 2.83 0.22
2 -3 6 2.95 0.21
2 3 6 2.7 0.18
-2 3 -6 2.55 0.21
-2 3 -6 3.19 0.23
-2 3 -6 2.72 0.22
2 3 6 2.69 0.23
-2 3 -6 2.81 0.24
2 3 6 3.1 0.21
-2 3 -6 3.18 0.26
3 -3 6 1.49 0.29
-3 -3 -6 1.27 0.15
3 -3 6 1.03 0.21
3 -3 6 1.33 0.14
-3 -3 -6 1.58 0.19
3 -3 6 1.45 0.19
3 -3 6 1.38 0.22
-3 -3 -6 1.41 0.19
3 -3 6 1.44 0.19
3 3 6 1.05 0.18
3 3 6 1.56 0.17
-3 3 -6 1.41 0.2
3 3 6 1.32 0.14
-3 3 -6 1.35 0.19
-3 3 -6 1.33 0.19
4 -3 6 26.04 1.31
4 -3 6 28.15 1.23
4 -3 6 26.17 1.29
-4 -3 -6 29.68 1.23
-4 -3 -6 26.05 1.26
-4 -3 -6 27.55 1.23
4 3 6 25.67 1.21
-4 3 -6 26.7 1.28
-4 3 -6 24.73 1.31
4 3 6 26.31 1.24
4 3 6 27.92 1.32
-4 3 -6 26.82 1.22
5 -3 6 11.42 0.57
-5 -3 -6 10.86 0.61
-5 -3 -6 10.75 0.62
5 -3 6 11.88 0.67
-5 -3 -6 11.19 0.61
-5 -3 -6 11.49 0.57
5 -3 6 12.55 0.93
-5 3 -6 10.96 0.56
5 3 6 11.4 0.58
5 3 6 11.31 0.55
-5 3 -6 10.94 0.63
6 -3 6 9.97 0.76
6 -3 6 11.42 0.57
-6 -3 -6 11.88 0.61
-6 -3 -6 12.1 0.66
6 -3 6 11.1 0.57
6 -3 6 11.32 0.54
-6 -3 -6 11.36 0.62
6 -3 6 12.28 0.67
6 -3 6 11.88 0.67
-6 -3 -6 11.66 0.59
-6 -3 -6 10.61 0.58
-6 -3 -6 11.57 0.6
6 -3 6 11.51 0.61
-6 -3 -6 10.1 0.62
6 -3 6 11.36 0.55
6 -3 6 9.15 0.87
-6 3 -6 11.28 0.55
6 3 6 11.57 0.58
6 3 6 11.25 0.6
6 3 6 10.5 0.59
-6 3 -6 12.16 0.64
6 3 6 10.78 0.53
7 -3 6 3.12 0.27
-7 -3 -6 3.28 0.31
-7 -3 -6 3.39 0.32
-7 -3 -6 3.6 0.25
7 -3 6 3.16 0.24
7 -3 6 3.8 0.32
-7 -3 -6 3.33 0.26
-7 -3 -6 3.7 0.24
7 -3 6 3.59 0.23
7 3 6 3.63 0.27
-7 3 -6 3.98 0.28
7 3 6 4.08 0.27
7 3 6 3.56 0.25
8 -3 6 0.93 0.14
-8 -3 -6 0.97 0.11
-8 -3 -6 0.74 0.16
8 3 6 0.88 0.15
8 3 6 0.89 0.12
-8 3 -6 0.77 0.16
8 3 6 0.86 0.15
-7 -4 6 3.18 0.19
7 -4 -6 3.79 0.25
-7 -4 6 3.55 0.2
7 -4 -6 3.75 0.27
7 -4 -6 3.1 0.26
-7 -4 6 3.59 0.18
-7 4 6 3.3 0.25
-7 4 6 3.85 0.37
-6 -4 6 11.55 0.53
6 -4 -6 10.99 0.6
6 -4 -6 11.67 0.66
-6 -4 6 11.08 0.59
-6 -4 6 11.23 0.62
6 -4 -6 10.87 0.6
-6 -4 6 10.71 0.53
6 -4 -6 10.62 0.61
-6 -4 6 11.08 0.53
-6 -4 6 10.62 0.52
6 -4 -6 11.53 0.54
-6 -4 6 11.68 0.52
-6 4 6 11.54 0.59
-6 4 6 11.07 0.55
-6 4 6 11.2 0.72
-6 4 6 11.64 0.65
5 -4 -6 1.08 0.23
-5 -4 6 0.88 0.14
-5 -4 6 1.01 0.2
-5 -4 6 0.84 0.2
-5 -4 6 0.95 0.22
-5 -4 6 0.95 0.13
5 -4 -6 0.7 0.14
-5 -4 6 0.77 0.11
5 -4 -6 0.97 0.19
-5 -4 6 1.15 0.14
5 -4 -6 0.95 0.22
-5 4 6 1.23 0.27
-5 4 6 0.94 0.2
-5 4 6 0.87 0.32
-5 4 6 0.89 0.19
-5 4 6 0.87 0.18
-5 4 6 1.27 0.19
-4 -4 6 3.71 0.3
4 -4 -6 3.41 0.23
4 -4 -6 3.52 0.3
4 -4 -6 3.23 0.27
-4 -4 6 3.35 0.35
-4 -4 6 3.24 0.21
-4 4 6 2.85 0.29
-4 4 6 3.1 0.28
-4 4 6 3.33 0.52
-4 4 6 2.93 0.26
-4 4 6 3.15 0.35
3 -4 -6 24.6 1.18
3 -4 -6 23.87 1.2
-3 -4 6 25.71 1.14
-3 -4 6 26.42 1.27
-3 -4 6 24.23 1.19
3 -4 -6 25.68 1.15
-3 4 6 25.18 1.24
3 4 -6 26.08 1.2
-3 4 6 25.5 1.18
-3 4 6 27.61 1.22
-3 4 6 24.52 1.2
-3 4 6 26.27 1.27
-3 4 6 22.9 1.17
-3 4 6 25.24 1.12
-2 -4 6 27.08 1.27
2 -4 -6 26.78 1.31
2 -4 -6 28.58 1.3
-2 -4 6 29.25 1.31
2 -4 -6 28.71 1.27
-2 4 6 26.98 1.35
-2 4 6 26.2 1.3
-2 4 6 28.81 1.28
-2 4 6 29.22 1.32
-2 4 6 30.46 1.29
-2 4 6 27.04 1.32
-2 4 6 28.16 1.38
2 4 -6 27.83 1.32
-1 -4 6 14.38 0.72
1 -4 -6 14.7 0.75
-1 -4 6 14.73 0.75
-1 -4 6 15.97 0.75
1 -4 -6 15.94 0.76
1 -4 -6 15.78 0.72
-1 4 6 15.97 0.74
1 4 -6 15.43 0.77
-1 4 6 15 0.83
-1 4 6 15.66 0.8
-1 4 6 15.56 0.77
-1 4 6 15.2 0.74
-1 4 6 15.04 0.77
1 4 -6 16 0.75
0 -4 6 11.41 0.57
0 -4 -6 12.32 0.56
0 -4 -6 11.44 0.6
0 -4 6 11.18 0.6
0 -4 6 11.58 0.56
0 -4 6 11.41 0.59
0 -4 6 11.59 0.59
0 -4 -6 11.69 0.59
0 4 -6 12 0.61
0 4 -6 11.07 0.58
0 4 6 11.33 0.57
0 4 6 11.62 0.62
0 4 6 12.36 0.61
0 4 6 12.3 0.57
0 4 6 11.38 0.54
0 4 6 11.75 0.64
1 -4 6 1.8 0.18
-1 -4 -6 2.14 0.17
1 -4 6 1.98 0.18
1 -4 6 1.79 0.21
1 -4 6 1.69 0.22
-1 -4 -6 2.01 0.21
1 -4 6 1.9 0.19
1 -4 6 1.94 0.13
1 -4 6 1.97 0.25
1 -4 6 1.72 0.13
1 4 6 1.87 0.18
1 4 6 1.96 0.23
1 4 6 1.61 0.18
1 4 6 1.91 0.16
-1 4 -6 1.8 0.19
1 4 6 1.51 0.17
-1 4 -6 2.02 0.22
2 -4 6 11.3 0.64
2 -4 6 11.98 0.69
2 -4 6 11.96 0.57
2 -4 6 10.87 0.6
-2 -4 -6 11.78 0.57
-2 -4 -6 13.07 0.61
-2 -4 -6 12.04 0.63
2 4 6 12.04 0.57
2 4 6 12.3 0.6
-2 4 -6 12.56 0.67
2 4 6 12.37 0.64
-2 4 -6 11.79 0.63
-3 -4 -6 4.15 0.27
-3 -4 -6 3.85 0.3
3 -4 6 3.98 0.28
3 -4 6 4.44 0.37
3 -4 6 3.92 0.28
3 -4 6 3.83 0.25
-3 -4 -6 4.26 0.31
-3 -4 -6 4.4 0.37
3 4 6 4.49 0.29
3 4 6 4.62 0.26
-3 4 -6 3.9 0.35
-3 4 -6 4.28 0.32
-4 -4 -6 30.02 1.39
4 -4 6 30.82 1.5
-4 -4 -6 31.83 1.45
-4 -4 -6 30.55 1.42
-4 -4 -6 29.56 1.41
-4 -4 -6 29.33 1.43
4 -4 6 29.98 1.41
4 -4 6 30.83 1.39
4 -4 6 31.95 1.49
-4 -4 -6 30.63 1.43
4 -4 6 25.81 1.41
4 4 6 29.02 1.5
-4 4 -6 31.31 1.46
4 4 6 33.45 1.38
-4 4 -6 31.16 1.49
-4 4 -6 31.84 1.39
4 4 6 30.52 1.42
4 4 6 33.42 1.41
4 4 6 31.73 1.43
4 4 6 26.42 1.52
-5 -4 -6 11.34 0.66
-5 -4 -6 11 0.6
-5 -4 -6 11.25 0.61
5 -4 6 11.05 0.57
5 -4 6 11.96 0.68
5 -4 6 11.1 0.58
-5 -4 -6 11.3 0.61
-5 -4 -6 12.18 0.62
-5 -4 -6 11.35 0.63
-5 -4 -6 12.09 0.59
-5 -4 -6 11.47 0.58
5 -4 6 11.35 0.68
5 4 6 11.82 0.6
-5 4 -6 10.87 0.64
5 4 6 11.73 0.6
-5 4 -6 11.61 0.57
5 4 6 11.11 0.55
5 4 6 10.95 0.6
-6 -4 -6 2.11 0.22
-6 -4 -6 2.24 0.2
6 -4 6 1.93 0.26
6 -4 6 1.81 0.28
-6 -4 -6 1.91 0.25
-6 -4 -6 1.84 0.2
6 -4 6 2.21 0.2
-6 -4 -6 2.27 0.28
6 4 6 2.14 0.2
6 4 6 2.17 0.24
6 4 6 2.55 0.24
-7 -4 -6 0.67 0.17
-7 -4 -6 0.48 0.15
7 4 6 0.37 0.11
7 4 6 0.46 0.12
-7 4 -6 0.57 0.18
7 4 6 0.41 0.11
-6 -5 6 1.99 0.22
-6 -5 6 2.2 0.14
6 -5 -6 1.86 0.2
6 -5 -6 2.25 0.2
6 -5 -6 1.86 0.17
-6 -5 6 2.16 0.14
-6 -5 6 2.08 0.12
-6 5 6 2.12 0.2
-5 -5 6 2.38 0.17
-5 -5 6 2.7 0.28
5 -5 -6 2.63 0.25
5 -5 -6 2.54 0.19
-5 -5 6 2.64 0.18
-5 -5 6 2.57 0.17
-5 -5 6 2.54 0.17
-5 5 6 2.41 0.3
-5 5 6 2.85 0.25
-4 -5 6 10.39 0.51
4 -5 -6 10.81 0.53
-4 -5 6 10.57 0.57
-4 -5 6 10.69 0.51
-4 -5 6 11.29 0.62
-4 -5 6 11.52 0.52
4 -5 -6 10.09 0.6
4 -5 -6 10.38 0.51
4 -5 -6 10.1 0.57
-4 5 6 10.84 0.64
-4 5 6 10.81 0.57
-4 5 6 10.28 0.56
-4 5 6 10.34 0.55
3 -5 -6 0.4 0.19
-3 -5 6 0.16 0.12
3 -5 -6 -0.01 0.09
-3 -5 6 0.11 0.08
3 -5 -6 0.06 0.12
3 -5 -6 0.1 0.13
-3 -5 6 0.08 0.08
-3 -5 6 0.12 0.14
3 -5 -6 0.16 0.11
-3 -5 6 -0.01 0.09
3 -5 -6 0.06 0.11
-3 5 6 0.1 0.13
-3 5 6 0.09 0.14
-3 5 6 0.24 0.18
-3 5 6 -0.08 0.14
-3 5 6 0.09 0.35
-3 5 6 0.08 0.12
-3 5 6 0.19 0.13
-3 5 6 0.03 0.15
-3 5 6 -0.03 0.16
-2 -5 6 9.76 0.5
-2 -5 6 11.21 0.52
-2 -5 6 11.55 0.57
2 -5 -6 9.7 0.55
-2 -5 6 10.4 0.6
-2 -5 6 9.85 0.5
2 -5 -6 11.12 0.55
2 -5 -6 10.54 0.52
-2 -5 6 11.04 0.9
2 -5 -6 9.56 0.61
2 -5 -6 10.67 0.51
-2 5 6 9.81 0.55
-2 5 6 10.76 0.56
-2 5 6 10.32 0.59
-2 5 6 10.6 0.62
-2 5 6 10.15 0.57
-2 5 6 11 0.59
-2 5 6 10.63 0.52
-2 5 6 10.24 0.55
-2 5 6 10.57 0.57
-1 -5 6 1.26 0.21
1 -5 -6 1.01 0.16
1 -5 -6 0.83 0.18
-1 -5 6 0.99 0.16
1 -5 -6 0.72 0.14
-1 5 6 0.82 0.19
-1 5 6 0.75 0.21
-1 5 6 1.04 0.19
-1 5 6 1.09 0.24
0 -5 6 3.38 0.2
0 -5 -6 3.35 0.25
0 -5 -6 3.37 0.22
0 -5 6 3.38 0.26
0 -5 6 3.24 0.24
0 -5 -6 3.13 0.25
0 5 6 4.16 0.35
0 5 6 3.49 0.28
0 5 -6 3.27 0.26
0 5 6 3.47 0.25
0 5 6 3.72 0.33
-1 -5 -6 14.27 0.72
1 -5 6 14.84 0.76
1 -5 6 14.58 0.73
-1 -5 -6 14.19 0.77
1 -5 6 15.3 0.74
-1 -5 -6 15.14 0.72
1 5 6 15.63 0.7
1 5 6 15.07 0.73
1 5 6 16.28 0.79
-1 5 -6 15.6 0.77
2 -5 6 4 0.36
2 -5 6 3.78 0.23
-2 -5 -6 3.95 0.31
-2 -5 -6 3.71 0.28
-2 -5 -6 3.4 0.3
2 -5 6 3.77 0.3
-2 -5 -6 4.01 0.26
-2 -5 -6 3.35 0.32
-2 -5 -6 3.52 0.29
2 5 6 4.09 0.24
2 5 6 3.67 0.29
2 5 6 3.79 0.31
2 5 6 3.11 0.29
2 5 6 4 0.28
-2 5 -6 4.06 0.38
-2 5 -6 4.23 0.31
3 -5 6 0.76 0.1
-3 -5 -6 0.62 0.2
-3 -5 -6 0.71 0.12
-3 -5 -6 0.48 0.16
-3 -5 -6 0.81 0.21
-3 -5 -6 0.88 0.24
3 -5 6 0.57 0.16
3 -5 6 0.71 0.14
-3 -5 -6 0.68 0.17
3 -5 6 0.77 0.27
3 -5 6 0.87 0.21
-3 -5 -6 0.83 0.22
-3 5 -6 0.65 0.26
3 5 6 0.74 0.24
3 5 6 0.76 0.23
3 5 6 0.6 0.17
-3 5 -6 0.64 0.13
-3 5 -6 0.84 0.2
3 5 6 0.67 0.13
-4 -5 -6 0.06 0.26
-4 -5 -6 0.12 0.12
-4 -5 -6 0.16 0.14
-4 -5 -6 0.07 0.1
4 -5 6 0.23 0.12
-4 -5 -6 0.17 0.13
4 -5 6 0.09 0.07
-4 -5 -6 0.1 0.14
4 -5 6 0.11 0.18
4 -5 6 0.25 0.17
-4 -5 -6 0.2 0.17
4 5 6 0.21 0.13
4 5 6 0.33 0.1
4 5 6 0.16 0.14
-4 5 -6 0.24 0.12
-4 5 -6 0.33 0.14
4 5 6 0.25 0.15
5 -5 6 7.72 0.43
-5 -5 -6 9.12 0.43
5 -5 6 8.02 0.51
5 5 6 7.87 0.45
5 5 6 8.32 0.46
5 5 6 8.86 0.45
-6 -5 -6 2.8 0.25
6 -5 6 3.76 0.21
6 -5 6 3.9 0.28
-6 5 -6 3.67 0.26
6 5 6 3.52 0.24
6 5 6 3.58 0.24
6 5 6 4.02 0.23
-5 -6 6 4.51 0.31
5 -6 -6 4.88 0.27
-5 -6 6 4.74 0.24
-5 -6 6 5.23 0.24
-5 -6 6 4.89 0.24
5 -6 -6 5.49 0.28
-5 6 6 5.33 0.28
-4 -6 6 3.34 0.19
-4 -6 6 3.6 0.18
4 -6 -6 3.39 0.23
4 -6 -6 3.28 0.23
-4 -6 6 3.29 0.19
-4 -6 6 3.5 0.28
-4 6 6 3.18 0.25
-4 6 6 3.49 0.23
3 -6 -6 3.43 0.25
-3 -6 6 3.3 0.21
-3 -6 6 3.86 0.21
3 -6 -6 3.32 0.22
-3 -6 6 3.55 0.31
-3 -6 6 3.41 0.21
-3 -6 6 3.73 0.2
3 -6 -6 3.44 0.26
-3 6 6 3.29 0.25
-3 6 6 3.19 0.27
-3 6 6 3.67 0.39
-3 6 6 3.53 0.35
-3 6 6 3.75 0.4
2 -6 -6 25.02 1.15
2 -6 -6 24.81 1.14
-2 -6 6 25.62 1.13
2 -6 -6 25.23 1.12
-2 -6 6 25.68 1.12
-2 -6 6 25.73 1.2
-2 -6 6 24.25 1.11
-2 -6 6 21.21 1.43
-2 -6 6 25.02 1.12
-2 -6 6 24.02 1.17
2 -6 -6 25.87 1.15
-2 6 6 25.1 1.15
-2 6 6 23.75 1.16
-2 6 6 25.21 1.16
1 -6 -6 0.27 0.12
-1 -6 6 0.35 0.09
-1 -6 6 0.26 0.11
-1 -6 6 0.26 0.34
1 -6 -6 0.04 0.14
-1 -6 6 0.31 0.14
-1 -6 6 0.24 0.09
1 -6 -6 0.29 0.11
-1 -6 6 0.26 0.11
-1 -6 6 0.31 0.19
-1 -6 6 0.21 0.09
1 -6 -6 0.19 0.11
-1 6 6 0.32 0.13
-1 6 6 0.52 0.13
-1 6 6 0.29 0.14
-1 6 6 0.23 0.14
0 -6 6 3.38 0.21
0 -6 6 3.18 0.21
0 -6 -6 3.48 0.22
0 -6 -6 3.79 0.23
0 -6 6 3.38 0.21
0 -6 6 3.57 0.35
0 -6 -6 3.37 0.26
0 -6 6 3.76 0.58
0 -6 -6 3.31 0.27
0 -6 6 3.71 0.24
0 6 6 2.92 0.27
0 6 6 3.23 0.24
0 6 -6 3.15 0.32
0 6 6 3.02 0.26
0 6 6 3.13 0.26
0 6 6 3.14 0.27
0 6 -6 3.48 0.27
-1 -6 -6 11.05 1.14
1 -6 6 13.31 0.74
-1 -6 -6 13.22 0.62
1 -6 6 13.46 0.62
1 -6 6 13.58 0.96
-1 -6 -6 14.37 0.65
-1 -6 -6 12.31 0.64
1 -6 6 12.7 0.65
1 6 6 13.32 0.67
-1 6 -6 12.52 0.68
1 6 6 13 0.65
1 6 6 13.56 0.67
-1 6 -6 12.95 0.72
1 6 6 13.38 0.67
1 6 6 13.57 0.67
2 -6 6 2.52 0.46
2 -6 6 2.18 0.2
-2 -6 -6 2.21 0.48
-2 -6 -6 2.45 0.21
-2 -6 -6 2.37 0.22
2 -6 6 1.99 0.22
-2 -6 -6 2.29 0.27
2 -6 6 2.11 0.17
-2 -6 -6 1.96 0.3
-2 -6 -6 2.48 0.43
-2 -6 -6 1.93 0.15
2 -6 6 2.35 0.3
-2 -6 -6 1.67 0.24
2 6 6 2.09 0.23
2 6 6 1.98 0.21
2 6 6 2.14 0.25
2 6 6 2.4 0.26
2 6 6 2.4 0.28
2 6 6 2.45 0.23
-2 6 -6 2.23 0.29
-2 6 -6 1.66 0.28
3 -6 6 0.28 0.08
-3 -6 -6 0.54 0.15
3 -6 6 0.46 0.14
3 -6 6 0.21 0.16
-3 -6 -6 0.2 0.12
-3 6 -6 0.43 0.22
3 6 6 0.28 0.13
3 6 6 0.41 0.14
3 6 6 0.3 0.14
3 6 6 0.37 0.12
3 6 6 0.41 0.14
4 -6 6 3.8 0.31
4 6 6 4.45 0.28
4 6 6 3.97 0.3
4 6 6 4.41 0.26
4 6 6 4.3 0.27
4 6 6 4.57 0.28
5 -6 6 0.43 0.11
5 6 6 0.58 0.17
5 6 6 0.67 0.1
5 6 6 1.06 0.15
2 -7 -6 0.3 0.09
-2 -7 6 0.33 0.07
2 -7 -6 0.27 0.22
2 -7 -6 0.19 0.06
-2 -7 6 0.1 0.05
-2 -7 6 0.15 0.2
-2 -7 6 0.24 0.05
-2 7 6 0.18 0.09
2 7 -6 0.15 0.1
2 7 -6 0.21 0.13
-2 7 6 0.23 0.09
1 -7 -6 0.84 0.28
-1 -7 6 0.7 0.08
1 -7 -6 0.81 0.15
-1 -7 6 0.26 0.22
1 -7 -6 0.74 0.11
-1 -7 6 0.69 0.09
-1 -7 6 0.67 0.09
1 7 -6 0.52 0.17
-1 7 6 0.82 0.13
1 7 -6 0.71 0.18
-1 7 6 0.82 0.14
-1 7 6 0.47 0.12
0 -7 6 1.5 0.34
0 -7 -6 1.48 0.12
0 -7 6 1.75 0.11
0 -7 6 1.3 0.21
0 -7 6 1.6 0.12
0 -7 6 1.76 0.12
0 7 -6 1.76 0.2
0 7 6 1.64 0.17
0 7 6 1.68 0.17
0 7 6 1.55 0.16
1 -7 6 0.94 0.1
1 -7 6 1.14 0.1
1 -7 6 0.41 0.27
1 -7 6 1.08 0.12
1 -7 6 1.04 0.19
1 -7 6 0.86 0.12
-1 7 -6 0.78 0.17
1 7 6 0.9 0.13
1 7 6 1.18 0.15
1 7 6 1.14 0.15
1 7 6 0.91 0.14
2 -7 6 0.73 0.17
2 -7 6 0.81 0.11
2 -7 6 0.77 0.09
2 7 6 1.15 0.14
2 7 6 1.03 0.14
2 7 6 1.02 0.13
2 7 6 0.62 0.12
-2 7 -6 0.79 0.16
-9 0 7 4.23 0.22
-9 0 7 3.64 0.22
9 0 -7 3.49 0.29
-9 0 7 4.18 0.2
9 0 -7 4.41 0.27
-8 0 7 7.92 0.39
-8 0 7 7.58 0.42
-8 0 7 7.86 0.4
-8 0 7 7.34 0.52
8 0 -7 8.74 0.48
-8 0 7 7.9 0.4
-7 0 7 12.49 0.59
-7 0 7 12.26 0.58
-7 0 7 11.73 0.72
-7 0 7 11.26 0.59
-7 0 7 12.98 0.61
6 0 -7 87.46 4.1
-6 0 7 95.5 4.05
5 0 -7 9.05 0.5
-5 0 7 9.63 0.46
-5 0 7 8.83 0.49
-5 0 7 9.49 0.47
-4 0 7 35.49 1.59
4 0 -7 34.95 1.61
4 0 -7 34.87 1.61
-4 0 7 37.94 1.61
4 0 -7 34.5 1.59
-4 0 7 35.75 1.66
-3 0 7 7.96 0.39
-3 0 7 8.34 0.45
3 0 -7 8.43 0.4
3 0 -7 7.4 0.38
-3 0 7 7.62 0.39
-3 0 7 8.22 0.38
2 0 -7 46.02 1.94
-2 0 7 45.81 1.95
-2 0 7 45.71 2
-2 0 7 36.5 1.99
-2 0 7 45.09 1.94
-2 0 7 49.56 1.93
-2 0 7 40.12 1.95
2 0 -7 42.38 1.95
1 0 -7 392.2 18.12
1 0 -7 411.35 18.11
-1 0 7 428.51 18.11
-1 0 7 431.04 18.17
-1 0 7 402.73 18.12
-1 0 7 418.47 18.1
-1 0 7 424.91 18.11
-1 0 7 414.01 18.11
1 0 -7 399.11 18.11
-1 0 7 432.98 18.13
0 0 -7 82.74 3.57
0 0 7 84.37 3.59
0 0 -7 81.18 3.58
0 0 7 77.19 3.57
0 0 7 79.66 3.58
0 0 -7 83.08 3.58
0 0 7 80.74 3.57
0 0 7 82.71 3.57
0 0 7 85.24 3.59
0 0 -7 76.93 3.58
0 0 7 84.42 3.57
0 0 7 77.14 3.56
0 0 -7 83.93 3.58
1 0 7 117.07 5.61
-1 0 -7 131.44 5.62
-1 0 -7 130.63 5.62
1 0 7 127.06 5.61
-1 0 -7 125.23 5.62
1 0 7 127.35 5.64
-1 0 -7 128.81 5.62
1 0 7 125.55 5.61
-1 0 -7 131.13 5.62
1 0 7 135.38 5.63
1 0 7 126.23 5.62
1 0 7 125.85 5.62
1 0 7 131.76 5.62
-2 0 -7 30.76 1.55
-2 0 -7 33.85 1.55
2 0 7 34.15 1.57
2 0 7 33.8 1.51
-2 0 -7 34.92 1.55
2 0 7 35.59 1.55
-2 0 -7 33.14 1.55
2 0 7 35.71 1.55
2 0 7 33.03 1.54
2 0 7 32.18 1.53
-2 0 -7 38.81 1.56
2 0 7 34.22 1.57
2 0 7 34.09 1.58
3 0 7 42.78 1.91
3 0 7 42.83 1.88
-3 0 -7 45.12 1.91
-3 0 -7 40.21 1.91
3 0 7 41.5 1.93
3 0 7 38.1 1.89
3 0 7 41.82 1.88
-3 0 -7 41.43 1.91
3 0 7 43.77 1.97
-4 0 -7 -0.02 0.09
4 0 7 0.1 0.11
4 0 7 0.06 0.1
-4 0 -7 0.24 0.13
4 0 7 0.1 0.13
4 0 7 0.1 0.14
-4 0 -7 0.1 0.15
4 0 7 0 0.12
-4 0 -7 0.04 0.09
4 0 7 0.03 0.09
4 0 7 0.08 0.11
5 0 7 2.14 0.2
5 0 7 1.88 0.26
5 0 7 2.1 0.24
-5 0 -7 1.72 0.19
-5 0 -7 1.68 0.23
5 0 7 1.85 0.26
-5 0 -7 1.89 0.23
5 0 7 2.09 0.23
6 0 7 0.57 0.19
6 0 7 0.64 0.17
-6 0 -7 0.5 0.19
6 0 7 0.87 0.16
6 0 7 0.63 0.33
6 0 7 0.33 0.17
-6 0 -7 0.62 0.19
-6 0 -7 0.68 0.13
6 0 7 0.49 0.16
-6 0 -7 0.95 0.29
6 0 7 0.62 0.17
-6 0 -7 0.45 0.16
6 0 7 0.63 0.24
6 0 7 0.64 0.2
7 0 7 7.04 0.41
7 0 7 8.24 0.44
7 0 7 8.24 0.55
-7 0 -7 7.7 0.46
-7 0 -7 7.88 0.44
-7 0 -7 7.82 0.51
-7 0 -7 8.49 0.48
7 0 7 8.23 0.44
-8 0 -7 12 0.58
8 0 7 9.83 0.85
8 0 7 12.67 0.57
8 0 7 11.31 0.56
-8 0 -7 11.85 0.57
-8 0 -7 11.53 0.62
-9 -1 7 2.09 0.31
-9 -1 7 2.68 0.13
-9 -1 7 2.87 0.16
9 -1 -7 2.55 0.24
-9 -1 7 3.03 0.16
-9 1 7 3.26 0.18
-9 1 7 2.7 0.16
9 1 -7 2.49 0.21
-9 1 7 3.15 0.17
-9 1 7 3.16 0.26
8 -1 -7 2.75 0.26
-8 -1 7 2.4 0.17
-8 -1 7 2.65 0.19
-8 -1 7 2.77 0.2
-8 -1 7 2.49 0.19
-8 -1 7 3.03 0.32
-8 1 7 2.69 0.19
-8 1 7 2.64 0.2
-8 1 7 2.72 0.32
-8 1 7 2.44 0.23
-8 1 7 2.75 0.21
7 -1 -7 1.74 0.24
7 -1 -7 2.17 0.31
-7 -1 7 2.08 0.16
-7 -1 7 2.15 0.2
-7 -1 7 1.93 0.18
-7 -1 7 2.12 0.17
-7 1 7 1.98 0.2
-7 1 7 1.93 0.23
-7 1 7 2.28 0.36
-7 1 7 1.92 0.2
-7 1 7 2.03 0.18
-7 1 7 2.24 0.22
-6 -1 7 13.43 0.65
6 -1 -7 13.94 0.7
-6 -1 7 13.61 0.67
6 -1 -7 12.94 0.72
6 1 -7 13.39 0.7
-6 1 7 14.15 0.68
-6 1 7 13.64 0.64
-5 -1 7 5.74 0.31
-5 -1 7 5.97 0.33
5 -1 -7 5.55 0.35
5 -1 -7 6.3 0.38
-5 -1 7 5.8 0.41
-5 1 7 6.14 0.34
5 1 -7 5.32 0.34
-5 1 7 6.14 0.33
-5 1 7 5.69 0.37
-5 1 7 5.76 0.36
4 -1 -7 28.66 1.34
-4 -1 7 29.44 1.38
4 -1 -7 29.72 1.31
4 -1 -7 28.14 1.33
-4 -1 7 29.68 1.3
4 -1 -7 28.61 1.3
-4 1 7 28.58 1.33
-4 1 7 29.31 1.3
4 1 -7 25.83 1.32
-4 1 7 29.12 1.33
3 -1 -7 20.68 1
-3 -1 7 21.21 0.98
3 -1 -7 21.66 0.99
3 -1 -7 23.05 1.01
-3 -1 7 21.72 1.04
-3 -1 7 22.24 0.96
3 -1 -7 21.39 0.98
-3 -1 7 22.42 1
-3 1 7 20.32 0.98
-3 1 7 21.96 0.98
-3 1 7 22.29 1.01
-3 1 7 20.08 1.03
-3 1 7 20.93 0.97
-3 1 7 20.18 0.99
-3 1 7 22.34 1
-3 1 7 22.51 0.98
2 -1 -7 24.11 1.11
2 -1 -7 24.99 1.11
2 -1 -7 24.63 1.1
-2 -1 7 26.13 1.12
2 -1 -7 24.91 1.12
-2 -1 7 25.32 1.15
2 -1 -7 22.66 1.11
-2 -1 7 25.15 1.07
-2 -1 7 23.8 1.09
-2 1 7 22.89 1.09
-2 1 7 23.99 1.11
-2 1 7 23.34 1.1
-2 1 7 23.66 1.09
-2 1 7 25.93 1.16
-2 1 7 23.5 1.1
-2 1 7 25.17 1.12
-2 1 7 24.02 1.1
1 -1 -7 4.38 0.24
1 -1 -7 4.1 0.24
-1 -1 7 4.41 0.28
1 -1 -7 4.27 0.24
1 -1 -7 4.25 0.24
-1 -1 7 4.39 0.19
1 -1 -7 3.73 0.24
-1 -1 7 4.22 0.25
-1 1 7 4.19 0.26
-1 1 7 4.01 0.22
-1 1 7 4.33 0.24
-1 1 7 3.79 0.24
-1 1 7 4.28 0.24
-1 1 7 4.14 0.22
-1 1 7 4.02 0.22
-1 1 7 4.27 0.23
0 -1 7 19.56 0.88
0 -1 -7 20.18 0.91
0 -1 -7 19.73 0.9
0 -1 7 19.4 0.89
0 -1 7 20.58 0.91
0 -1 -7 20.25 0.91
0 -1 -7 19.59 0.9
0 -1 7 19.96 0.86
0 -1 7 19.89 0.88
0 -1 -7 19.46 0.9
0 -1 7 18.35 0.86
0 1 7 19.11 0.9
0 1 7 19.03 0.91
0 1 -7 19.45 0.88
0 1 7 19.73 0.91
0 1 7 19.99 0.93
0 1 7 19.28 0.91
0 1 7 20.49 0.92
0 1 -7 19.41 0.88
0 1 -7 20.13 0.89
0 1 7 19.03 0.89
0 1 7 20.05 0.89
1 -1 7 108.21 4.54
-1 -1 -7 107.68 4.56
-1 -1 -7 100.7 4.57
1 -1 7 98.19 4.52
1 -1 7 96.74 4.54
-1 -1 -7 110.89 4.56
1 -1 7 99.04 4.54
1 -1 7 98.13 4.56
1 -1 7 97.87 4.52
1 -1 7 101.39 4.55
1 -1 7 102.59 4.56
-1 -1 -7 108.57 4.56
-1 -1 -7 103.04 4.56
1 -1 7 105.6 4.53
1 1 7 99.09 4.53
1 1 7 108.54 4.56
-1 1 -7 98.42 4.55
1 1 7 109.3 4.59
1 1 7 103.06 4.55
1 1 7 105.67 4.58
-1 1 -7 101.9 4.54
-1 1 -7 105.21 4.54
-1 1 -7 98.26 4.55
-1 1 -7 108.75 4.54
1 1 7 108.28 4.58
2 -1 7 33.28 1.61
-2 -1 -7 33.91 1.63
2 -1 7 35.87 1.66
2 -1 7 35.66 1.63
2 -1 7 37.19 1.6
2 -1 7 36.93 1.63
2 -1 7 36.85 1.62
2 -1 7 33.64 1.61
2 -1 7 37.19 1.63
-2 -1 -7 36.07 1.64
-2 -1 -7 37.6 1.64
-2 -1 -7 35.08 1.64
2 1 7 35.85 1.63
2 1 7 36.64 1.63
-2 1 -7 39.98 1.63
2 1 7 33.4 1.61
2 1 7 35.95 1.66
-2 1 -7 36.5 1.62
2 1 7 35.21 1.67
2 1 7 36.52 1.61
-2 1 -7 36.74 1.63
-2 1 -7 33.58 1.64
3 -1 7 24.12 1.17
-3 -1 -7 25.44 1.19
-3 -1 -7 23.58 1.19
3 -1 7 26.69 1.14
3 -1 7 22.66 1.18
-3 -1 -7 24.11 1.17
3 -1 7 26.8 1.2
3 -1 7 28.39 1.2
-3 -1 -7 24.96 1.2
3 -1 7 27.59 1.17
3 -1 7 26.72 1.24
-3 1 -7 25.22 1.2
3 1 7 25.41 1.17
-3 1 -7 25.56 1.2
3 1 7 23.98 1.19
-3 1 -7 23.18 1.18
3 1 7 25.99 1.17
3 1 7 25.02 1.23
3 1 7 25.38 1.19
-3 1 -7 25.74 1.18
3 1 7 24.73 1.13
4 -1 7 0.25 0.11
4 -1 7 0.48 0.15
-4 -1 -7 0.34 0.17
-4 -1 -7 0.53 0.11
-4 -1 -7 0.43 0.15
-4 -1 -7 0.33 0.12
4 -1 7 0.31 0.1
4 -1 7 0.15 0.09
4 -1 7 0.37 0.16
4 -1 7 0.39 0.11
4 1 7 0.25 0.12
4 1 7 0.23 0.09
4 1 7 0.18 0.12
4 1 7 0.34 0.13
-4 1 -7 0.48 0.13
4 1 7 0.57 0.13
-4 1 -7 0.21 0.15
4 1 7 0.21 0.14
-4 1 -7 0.41 0.11
-4 1 -7 0.21 0.14
5 -1 7 8.07 0.52
5 -1 7 8.36 0.44
-5 -1 -7 8.14 0.43
-5 -1 -7 8.22 0.46
5 -1 7 8 0.44
-5 -1 -7 8.92 0.48
5 -1 7 8.56 0.52
5 -1 7 8.65 0.46
5 -1 7 8.68 0.45
5 1 7 7.77 0.51
-5 1 -7 8.26 0.43
5 1 7 8.45 0.47
-5 1 -7 8.28 0.48
5 1 7 7.88 0.46
5 1 7 8.34 0.42
6 -1 7 8.36 0.44
6 -1 7 7.52 0.51
-6 -1 -7 7.76 0.42
-6 -1 -7 7.46 0.46
6 -1 7 8.11 0.4
6 -1 7 7.95 0.44
6 -1 7 7.25 0.41
6 -1 7 7.76 0.48
6 -1 7 7.68 0.52
6 -1 7 7.99 0.42
-6 -1 -7 7.8 0.51
-6 -1 -7 7.21 0.45
6 -1 7 7.64 0.44
-6 -1 -7 7.46 0.46
-6 1 -7 8.1 0.47
-6 1 -7 7.91 0.45
6 1 7 7.5 0.44
6 1 7 7.2 0.43
6 1 7 7.83 0.45
-6 1 -7 7.76 0.41
6 1 7 7.92 0.46
-6 1 -7 6.84 0.46
6 1 7 7.17 0.44
-6 1 -7 6.89 0.53
6 1 7 7.54 0.54
7 -1 7 6.24 0.37
-7 -1 -7 6.18 0.35
-7 -1 -7 6.53 0.41
7 -1 7 6.65 0.42
-7 -1 -7 6.67 0.46
7 -1 7 7.08 0.48
-7 -1 -7 6.54 0.4
7 -1 7 6.68 0.37
7 -1 7 6.95 0.47
-7 -1 -7 6.7 0.41
7 -1 7 6.75 0.41
7 -1 7 6.5 0.46
-7 1 -7 5.94 0.41
-7 1 -7 6.55 0.44
7 1 7 6.5 0.39
7 1 7 6.42 0.38
7 1 7 6.41 0.49
-7 1 -7 5.98 0.44
7 1 7 5.97 0.38
8 -1 7 4.2 0.24
-8 -1 -7 4.17 0.26
-8 -1 -7 4.2 0.25
8 -1 7 4.06 0.33
-8 -1 -7 4.02 0.32
8 -1 7 3.67 0.25
8 1 7 4.27 0.26
8 1 7 3.99 0.27
-8 1 -7 4.18 0.28
-8 1 -7 4.22 0.28
-8 -2 7 1.08 0.1
8 -2 -7 1.17 0.21
-8 -2 7 1.13 0.09
8 -2 -7 1.09 0.19
-8 -2 7 1.23 0.12
-8 -2 7 1.2 0.12
-8 2 7 1.22 0.29
-8 2 7 1.07 0.15
-8 2 7 1.11 0.27
-7 -2 7 22.09 1.01
-7 -2 7 22.39 1
7 -2 -7 22.66 1.07
-7 -2 7 22.15 1
-7 -2 7 21.94 1.01
7 -2 -7 23.92 1.1
-7 2 7 23.03 1.06
-7 2 7 22.65 1.03
-7 2 7 22.01 1.19
-7 2 7 22.29 1.14
-7 2 7 19.63 1.07
-7 2 7 20.27 1.05
-6 -2 7 0.99 0.11
-6 -2 7 0.8 0.17
-6 -2 7 0.89 0.16
6 -2 -7 1.01 0.22
6 -2 -7 0.95 0.21
-6 -2 7 1.11 0.14
-6 -2 7 1.17 0.13
-6 -2 7 0.69 0.11
-6 2 7 0.91 0.33
-6 2 7 0.98 0.18
-6 2 7 1.03 0.24
-6 2 7 1.28 0.3
-6 2 7 0.9 0.21
-6 2 7 1.01 0.19
-6 2 7 0.86 0.22
-5 -2 7 4.33 0.25
5 -2 -7 4.18 0.33
-5 -2 7 4.59 0.29
5 -2 -7 4.56 0.31
-5 2 7 4.56 0.3
-5 2 7 4.64 0.26
-5 2 7 3.76 0.35
-5 2 7 4.85 0.35
-5 2 7 4.44 0.31
-4 -2 7 6.73 0.35
4 -2 -7 6.59 0.4
4 -2 -7 6.62 0.38
-4 -2 7 6.54 0.32
4 -2 -7 6.74 0.37
-4 2 7 6.11 0.35
-4 2 7 6.74 0.35
-4 2 7 6.97 0.44
-4 2 7 6.71 0.39
-4 2 7 7 0.4
-4 2 7 6.57 0.37
-4 2 7 6.28 0.4
-4 2 7 6.37 0.34
-4 2 7 6.19 0.41
3 -2 -7 5.64 0.32
3 -2 -7 5.98 0.35
-3 -2 7 5.69 0.39
3 -2 -7 5.59 0.32
3 -2 -7 5.51 0.34
3 -2 -7 5.51 0.32
-3 -2 7 6.03 0.27
-3 -2 7 5.77 0.3
-3 -2 7 5.6 0.33
-3 2 7 5.35 0.3
-3 2 7 6.12 0.33
-3 2 7 5.58 0.29
-3 2 7 5.86 0.3
-3 2 7 5.69 0.36
-3 2 7 5.61 0.3
-3 2 7 5.09 0.32
-3 2 7 5.07 0.34
-3 2 7 5.02 0.41
-3 2 7 5.49 0.37
-3 2 7 5.37 0.34
2 -2 -7 9.9 0.5
2 -2 -7 10.19 0.49
-2 -2 7 9.67 0.43
-2 -2 7 9.78 0.49
2 -2 -7 10.05 0.49
-2 -2 7 9.12 0.46
2 -2 -7 9.91 0.5
-2 -2 7 9.56 0.53
-2 2 7 9.34 0.47
-2 2 7 9.58 0.51
-2 2 7 8.74 0.48
-2 2 7 9.4 0.46
-2 2 7 8.76 0.47
-2 2 7 9.75 0.53
-2 2 7 9.51 0.49
-2 2 7 10.53 0.51
-1 -2 7 86.49 3.87
-1 -2 7 87.47 3.83
1 -2 -7 95.62 3.88
1 -2 -7 88.59 3.88
-1 -2 7 88.92 3.9
1 -2 -7 87.06 3.88
1 -2 -7 85.67 3.87
-1 -2 7 88.95 3.82
-1 2 7 93.12 3.9
-1 2 7 83.31 3.86
-1 2 7 91.65 3.85
-1 2 7 87.88 3.89
-1 2 7 80.86 3.87
-1 2 7 86.89 3.91
-1 2 7 83.45 3.85
-1 2 7 84.11 3.85
0 -2 -7 3.11 0.22
0 -2 7 2.85 0.15
0 -2 -7 2.82 0.21
0 -2 -7 3.08 0.33
0 -2 -7 2.72 0.21
0 -2 7 2.67 0.18
0 -2 7 2.87 0.17
0 -2 7 3.15 0.21
0 -2 -7 3.17 0.23
0 2 -7 3.04 0.18
0 2 -7 2.79 0.17
0 2 7 2.77 0.18
0 2 7 2.91 0.23
0 2 7 2.87 0.24
0 2 7 2.7 0.17
0 2 7 3.26 0.22
0 2 7 2.64 0.19
0 2 7 2.75 0.24
0 2 7 2.93 0.2
1 -2 7 1.76 0.15
-1 -2 -7 2 0.19
-1 -2 -7 1.97 0.23
1 -2 7 2.21 0.16
-1 -2 -7 2.02 0.19
-1 -2 -7 2.07 0.18
1 -2 7 2.34 0.18
1 -2 7 2.09 0.13
1 -2 7 2.09 0.19
1 -2 7 2.25 0.19
-1 -2 -7 2.13 0.19
1 -2 7 2.46 0.13
1 2 7 2.29 0.23
-1 2 -7 2.09 0.17
1 2 7 1.98 0.17
1 2 7 2.24 0.21
1 2 7 2.33 0.19
-1 2 -7 2.37 0.16
-1 2 -7 2.1 0.18
1 2 7 2.26 0.18
-1 2 -7 2.4 0.16
-2 -2 -7 2.73 0.23
2 -2 7 2.87 0.19
-2 -2 -7 2.74 0.23
-2 -2 -7 2.62 0.23
2 -2 7 2.88 0.27
2 -2 7 3.15 0.21
-2 -2 -7 2.55 0.21
2 -2 7 3.13 0.23
2 -2 7 2.68 0.2
2 -2 7 2.78 0.21
-2 -2 -7 2.94 0.22
2 2 7 2.64 0.22
-2 2 -7 2.71 0.21
-2 2 -7 2.62 0.22
2 2 7 3.09 0.23
-2 2 -7 2.81 0.21
2 2 7 2.6 0.18
2 2 7 2.59 0.25
2 2 7 2.73 0.2
-2 2 -7 2.77 0.22
3 -2 7 11.93 0.59
3 -2 7 11.17 0.57
3 -2 7 11.11 0.58
-3 -2 -7 9.82 0.62
3 -2 7 10.57 0.53
-3 -2 -7 10.82 0.55
-3 -2 -7 10.68 0.55
3 -2 7 10.18 0.59
3 -2 7 11.07 0.64
-3 -2 -7 10.75 0.53
-3 -2 -7 10.6 0.59
3 2 7 11.77 0.64
3 2 7 10.99 0.53
-3 2 -7 9.97 0.58
-3 2 -7 12 0.6
-3 2 -7 11.54 0.57
-3 2 -7 10.39 0.56
3 2 7 11.24 0.51
3 2 7 10.72 0.56
-3 2 -7 10.18 0.56
3 2 7 12.23 0.6
-4 -2 -7 13.84 0.67
4 -2 7 14.03 0.71
-4 -2 -7 13.86 0.63
4 -2 7 13.15 0.71
4 -2 7 12.85 0.64
4 -2 7 12.22 0.7
-4 -2 -7 13.62 0.67
4 2 7 12.41 0.7
4 2 7 13.16 0.64
4 2 7 13.49 0.68
4 2 7 13.49 0.61
-4 2 -7 12.59 0.64
-4 2 -7 13.31 0.68
-4 2 -7 13.2 0.72
5 -2 7 18.34 0.91
5 -2 7 18.87 0.87
5 -2 7 19.23 1.33
-5 -2 -7 19.22 0.88
5 -2 7 20.24 0.99
-5 -2 -7 18.3 0.91
5 -2 7 19.58 1
5 2 7 18.35 0.94
-5 2 -7 19.33 0.9
5 2 7 19.01 0.9
5 2 7 19.98 0.91
-5 2 -7 19.76 0.96
6 -2 7 2.99 0.33
6 -2 7 3.76 0.56
-6 -2 -7 3.11 0.28
6 -2 7 3.21 0.25
-6 -2 -7 3.12 0.25
6 -2 7 2.9 0.23
6 -2 7 2.89 0.26
-6 -2 -7 3.48 0.33
6 -2 7 2.98 0.28
-6 -2 -7 2.53 0.29
6 -2 7 2.6 0.23
-6 -2 -7 2.77 0.27
-6 -2 -7 3.38 0.3
6 -2 7 2.96 0.36
6 -2 7 2.67 0.23
6 2 7 2.2 0.3
-6 2 -7 3.28 0.23
-6 2 -7 2.57 0.28
6 2 7 2.94 0.27
6 2 7 3.13 0.26
6 2 7 2.95 0.28
-6 2 -7 2.91 0.35
7 -2 7 9.59 0.6
-7 -2 -7 10.63 0.53
7 -2 7 10.41 0.5
-7 -2 -7 9.1 0.58
7 -2 7 9.8 0.52
7 -2 7 10.57 0.51
-7 -2 -7 10.64 0.54
7 -2 7 10.54 0.56
-7 -2 -7 11.02 0.61
7 -2 7 9.34 0.59
7 2 7 9.88 0.53
-7 2 -7 10.56 0.56
7 2 7 10.49 0.54
7 2 7 10.35 0.54
-8 -2 -7 1.38 0.19
-8 -2 -7 1.97 0.16
-8 -2 -7 1.48 0.14
8 -2 7 1.63 0.14
8 2 7 1.86 0.18
-8 2 -7 1.67 0.17
-8 2 -7 1.67 0.18
8 2 7 2.04 0.17
-8 -3 7 2.71 0.14
-8 -3 7 2.94 0.15
-8 -3 7 2.89 0.14
8 -3 -7 2.79 0.22
8 -3 -7 2.42 0.23
-8 -3 7 2.96 0.14
8 -3 -7 2.63 0.21
7 -3 -7 4.26 0.32
-7 -3 7 3.97 0.2
-7 -3 7 4.11 0.22
-7 -3 7 3.95 0.22
7 -3 -7 4.34 0.35
7 -3 -7 3.86 0.3
-7 -3 7 4.07 0.21
-7 -3 7 3.64 0.22
-7 3 7 3.73 0.33
-7 3 7 4.56 0.44
-7 3 7 4.13 0.28
-7 3 7 3.91 0.26
-7 3 7 3.77 0.36
-6 -3 7 6.98 0.35
-6 -3 7 7.43 0.36
-6 -3 7 6.75 0.34
6 -3 -7 7.68 0.52
-6 -3 7 6.87 0.35
6 -3 -7 6.83 0.43
-6 -3 7 6.98 0.34
6 -3 -7 7.32 0.46
6 -3 -7 7.74 0.38
-6 3 7 7.46 0.46
-6 3 7 7.18 0.43
-6 3 7 6.48 0.39
-6 3 7 7.24 0.56
-6 3 7 6.63 0.51
-5 -3 7 6.67 0.37
-5 -3 7 6.73 0.49
5 -3 -7 6.17 0.41
-5 -3 7 6.97 0.34
-5 3 7 6.03 0.46
-5 3 7 6.86 0.37
-4 -3 7 8.1 0.42
-4 -3 7 9.09 0.46
4 -3 -7 9.58 0.5
-4 -3 7 8.65 0.55
4 -3 -7 7.87 0.51
-4 -3 7 9 0.49
-4 3 7 9.75 0.52
-4 3 7 8.03 0.56
-4 3 7 9.06 0.48
-4 3 7 8.91 0.46
-4 3 7 9.63 0.54
-4 3 7 8.63 0.47
-4 3 7 8.92 0.46
-3 -3 7 4.61 0.35
3 -3 -7 4.23 0.3
-3 -3 7 4.47 0.23
3 -3 -7 5.91 0.41
-3 -3 7 4.08 0.29
3 -3 -7 4.78 0.33
-3 -3 7 4.41 0.26
-3 3 7 4.08 0.29
-3 3 7 4.56 0.33
-3 3 7 4.65 0.28
-3 3 7 4.77 0.34
-3 3 7 4.96 0.38
-3 3 7 4.55 0.28
-3 3 7 4.5 0.33
-3 3 7 4.6 0.27
2 -3 -7 1.66 0.19
-2 -3 7 2.12 0.23
2 -3 -7 1.79 0.19
-2 -3 7 1.98 0.19
2 -3 -7 2 0.19
-2 -3 7 1.92 0.13
-2 -3 7 2.16 0.19
2 -3 -7 1.92 0.2
-2 3 7 2.33 0.17
-2 3 7 2.21 0.19
-2 3 7 2.08 0.21
-2 3 7 2.06 0.23
-2 3 7 2.09 0.26
-2 3 7 2.42 0.19
-2 3 7 1.6 0.23
-2 3 7 1.99 0.18
1 -3 -7 12.41 0.65
1 -3 -7 13.71 0.64
-1 -3 7 12.18 0.63
1 -3 -7 11.77 0.6
1 -3 -7 12.76 0.66
1 -3 -7 12.46 0.65
-1 -3 7 13.18 0.64
-1 3 7 13.31 0.61
-1 3 7 12.17 0.62
-1 3 7 13.44 0.66
-1 3 7 12.64 0.63
-1 3 7 12.58 0.63
1 3 -7 13.56 0.62
-1 3 7 12.95 0.68
0 -3 7 15.18 0.7
0 -3 -7 15.2 0.76
0 -3 -7 15.06 0.76
0 -3 7 14.44 0.74
0 -3 7 15.47 0.68
0 -3 -7 15.22 0.74
0 -3 -7 15 0.76
0 -3 7 15.78 0.73
0 -3 -7 13.79 0.81
0 -3 7 15.98 0.68
0 -3 7 14.76 0.73
0 -3 -7 14.49 0.71
0 3 7 15.09 0.73
0 3 7 14.64 0.73
0 3 7 15.03 0.72
0 3 7 15.21 0.74
0 3 -7 16.63 0.72
0 3 7 14.66 0.76
0 3 7 15.32 0.75
0 3 -7 15.12 0.74
0 3 7 16.59 0.81
0 3 -7 15.91 0.73
-1 -3 -7 11.75 0.58
-1 -3 -7 11.95 0.62
1 -3 7 12.37 0.61
-1 -3 -7 12.03 0.55
-1 -3 -7 10.13 0.6
-1 -3 -7 11.64 0.58
1 -3 7 11.58 0.57
1 -3 7 12.04 0.59
1 -3 7 11.64 0.56
1 -3 7 10.76 0.58
1 3 7 12.04 0.66
1 3 7 12.15 0.59
1 3 7 11.03 0.58
1 3 7 12.31 0.56
1 3 7 12.01 0.6
-1 3 -7 11.6 0.59
-1 3 -7 10.83 0.56
1 3 7 11.88 0.58
1 3 7 10.24 0.54
-1 3 -7 11.73 0.57
-1 3 -7 11.12 0.59
1 3 7 12.01 0.61
-2 -3 -7 2.12 0.19
-2 -3 -7 2.2 0.22
2 -3 7 2.06 0.22
-2 -3 -7 2.3 0.23
2 -3 7 1.83 0.21
-2 -3 -7 2.07 0.17
2 -3 7 2.12 0.25
2 -3 7 2.43 0.2
2 -3 7 1.85 0.19
2 -3 7 1.6 0.14
2 -3 7 2.14 0.14
2 -3 7 1.83 0.19
2 3 7 1.49 0.33
2 3 7 1.88 0.2
2 3 7 1.81 0.16
2 3 7 1.75 0.2
2 3 7 1.96 0.16
-2 3 -7 1.96 0.22
-2 3 -7 2.01 0.21
-2 3 -7 1.9 0.19
3 -3 7 12.94 0.69
3 -3 7 12.52 0.74
-3 -3 -7 12.69 0.61
3 -3 7 12.04 0.63
-3 -3 -7 13.05 0.65
3 -3 7 13.97 0.61
3 -3 7 12.94 0.65
3 -3 7 11.97 0.68
-3 -3 -7 13.3 0.65
3 3 7 13.32 0.69
-3 3 -7 12.02 0.69
3 3 7 12.62 0.62
3 3 7 13.38 0.6
3 3 7 12.89 0.66
-3 3 -7 12.19 0.66
4 -3 7 3.71 0.34
-4 -3 -7 4.32 0.28
-4 -3 -7 3.47 0.24
4 -3 7 3.62 0.29
4 -3 7 3.75 0.24
4 -3 7 2.69 0.44
-4 -3 -7 3.91 0.31
4 3 7 4.01 0.29
4 3 7 3.74 0.22
-4 3 -7 3.34 0.3
4 3 7 3.7 0.25
-4 3 -7 3.37 0.33
-4 3 -7 3.95 0.27
5 -3 7 10.66 0.51
5 -3 7 10.86 0.63
5 -3 7 9.69 0.52
-5 -3 -7 9.67 0.56
-5 -3 -7 9.49 0.55
-5 -3 -7 9.81 0.56
-5 -3 -7 9.53 0.54
-5 -3 -7 10.15 0.52
5 -3 7 10.41 0.64
-5 -3 -7 9.75 0.6
5 3 7 9.3 0.53
5 3 7 9.16 0.54
5 3 7 9.97 0.53
-5 3 -7 10.27 0.58
-5 3 -7 9.9 0.51
5 3 7 10.21 0.55
5 3 7 9.79 0.5
6 -3 7 3.27 0.25
-6 -3 -7 3.84 0.34
-6 -3 -7 3.08 0.29
6 -3 7 3.35 0.3
-6 -3 -7 3.47 0.29
-6 -3 -7 3.7 0.3
6 -3 7 3.47 0.24
-6 -3 -7 2.81 0.42
-6 -3 -7 2.65 0.31
6 -3 7 3.45 0.36
6 -3 7 3.03 0.22
6 -3 7 3.4 0.35
6 3 7 3.32 0.27
6 3 7 3.22 0.26
-6 3 -7 3.6 0.31
6 3 7 3.6 0.31
6 3 7 3.43 0.28
-6 3 -7 3.59 0.24
-7 -3 -7 0.12 0.11
7 -3 7 0.19 0.1
7 -3 7 0.17 0.17
7 -3 7 0.27 0.14
-7 -3 -7 0.05 0.1
-7 -3 -7 0.09 0.12
-7 -3 -7 0.13 0.12
7 3 7 0.14 0.11
7 3 7 0.38 0.13
-7 3 -7 0.26 0.14
7 3 7 0.15 0.1
-7 -4 7 4.73 0.22
-7 -4 7 4.79 0.23
7 -4 -7 5.09 0.3
-7 -4 7 5.13 0.22
-7 -4 7 4.75 0.22
7 -4 -7 3.67 0.29
7 -4 -7 4.9 0.31
-7 4 7 4.31 0.28
-7 4 7 3.96 0.38
6 -4 -7 1.13 0.27
6 -4 -7 0.98 0.19
6 -4 -7 1.35 0.22
-6 -4 7 1.4 0.14
-6 -4 7 1.37 0.12
6 -4 -7 1.35 0.21
-6 -4 7 1.31 0.1
-6 -4 7 1.33 0.09
-6 -4 7 1.19 0.12
6 -4 -7 1.29 0.23
-6 4 7 1.58 0.21
-6 4 7 1.41 0.35
-6 4 7 1.31 0.26
5 -4 -7 1.64 0.24
-5 -4 7 1.51 0.11
-5 -4 7 1.55 0.26
-5 -4 7 1.38 0.13
5 -4 -7 1.19 0.15
-5 -4 7 1.52 0.14
-5 -4 7 1.75 0.23
5 -4 -7 1.49 0.26
5 -4 -7 1.41 0.21
-5 -4 7 1.37 0.12
-5 4 7 1.74 0.27
-5 4 7 1.33 0.19
-5 4 7 1.38 0.19
-5 4 7 1.71 0.36
-5 4 7 1.37 0.2
-5 4 7 1.42 0.19
4 -4 -7 4.84 0.32
4 -4 -7 4.56 0.4
4 -4 -7 4.45 0.36
-4 -4 7 4.51 0.22
-4 -4 7 4.79 0.36
4 -4 -7 4.95 0.28
-4 -4 7 4.32 0.24
-4 -4 7 4.44 0.39
4 -4 -7 4.58 0.33
-4 -4 7 4.02 0.23
-4 -4 7 4.59 0.32
-4 -4 7 4.89 0.25
-4 4 7 4.6 0.38
-4 4 7 4.46 0.3
-4 4 7 4.32 0.32
-4 4 7 4.63 0.48
-4 4 7 4.49 0.32
-4 4 7 4.5 0.31
-4 4 7 4.39 0.34
-3 -4 7 30.83 1.54
3 -4 -7 31.2 1.43
3 -4 -7 32.91 1.49
3 -4 -7 32.26 1.47
-3 -4 7 33.11 1.48
-3 -4 7 30.39 1.42
-3 4 7 31.69 1.48
-3 4 7 31.94 1.54
-3 4 7 31.09 1.46
-3 4 7 32.42 1.49
-3 4 7 31.16 1.52
-2 -4 7 56.39 2.51
2 -4 -7 53.45 2.5
-2 -4 7 55.72 2.46
2 -4 -7 57.25 2.52
2 -4 -7 54.12 2.47
2 4 -7 53.17 2.5
-2 4 7 57.62 2.5
-2 4 7 53.71 2.54
-2 4 7 56.08 2.51
-2 4 7 55.22 2.44
-2 4 7 58.13 2.58
-2 4 7 55.89 2.52
1 -4 -7 7.99 0.44
1 -4 -7 7.87 0.41
-1 -4 7 7.88 0.45
1 -4 -7 8.31 0.45
-1 4 7 8.12 0.45
1 4 -7 8.19 0.45
-1 4 7 7.83 0.49
-1 4 7 7.89 0.42
-1 4 7 8.27 0.47
-1 4 7 7.69 0.51
-1 4 7 7.83 0.44
-1 4 7 8.35 0.43
0 -4 7 0.67 0.16
0 -4 7 0.7 0.1
0 -4 7 0.66 0.12
0 -4 -7 0.83 0.19
0 -4 7 0.68 0.17
0 -4 -7 0.85 0.17
0 -4 -7 0.78 0.13
0 4 7 0.76 0.22
0 4 7 0.81 0.2
0 4 7 0.77 0.17
0 4 7 0.94 0.17
0 4 7 0.9 0.17
0 4 7 0.76 0.21
0 4 7 0.39 0.14
0 4 7 0.74 0.14
0 4 -7 0.76 0.16
-1 -4 -7 9.34 0.48
1 -4 7 9.6 0.48
-1 -4 -7 9.29 0.49
1 -4 7 8.53 0.5
1 -4 7 7.38 0.52
1 -4 7 9.24 0.45
-1 -4 -7 8.84 0.44
1 -4 7 9.48 0.47
1 4 7 8.62 0.48
1 4 7 8.71 0.51
-1 4 -7 8.41 0.48
1 4 7 9.73 0.46
1 4 7 8.38 0.54
1 4 7 8.82 0.5
1 4 7 8.44 0.46
-1 4 -7 8.18 0.5
1 4 7 8.41 0.52
2 -4 7 5.62 0.42
2 -4 7 5.88 0.35
2 -4 7 5.41 0.28
-2 -4 -7 5.58 0.31
2 -4 7 5.46 0.38
2 -4 7 5.8 0.35
-2 -4 -7 5.9 0.35
2 4 7 6.42 0.34
2 4 7 5.85 0.33
2 4 7 5.56 0.37
-2 4 -7 5.68 0.37
-2 4 -7 5.56 0.39
-3 -4 -7 26.21 1.26
3 -4 7 26.62 1.2
-3 -4 -7 27.69 1.23
3 -4 7 27.26 1.3
-3 4 -7 25.84 1.28
-3 4 -7 25.77 1.48
3 4 7 26.7 1.2
3 4 7 26.38 1.28
-4 -4 -7 8.88 0.52
-4 -4 -7 8.29 0.51
4 -4 7 9.04 0.58
-4 -4 -7 8.98 0.52
4 -4 7 8.73 0.49
-4 -4 -7 9.26 0.48
4 -4 7 9.62 0.46
4 -4 7 8.51 0.45
4 -4 7 9.28 0.57
-4 -4 -7 8.76 0.5
4 4 7 8.82 0.47
-4 4 -7 9.42 0.54
4 4 7 8.82 0.5
4 4 7 8.95 0.52
4 4 7 10.04 0.52
-4 4 -7 9.48 0.48
4 4 7 9.02 0.5
-5 -4 -7 3.11 0.3
5 -4 7 3.18 0.22
-5 -4 -7 3.12 0.28
5 -4 7 3.42 0.26
-5 -4 -7 3.37 0.28
5 -4 7 4.04 0.37
5 -4 7 3.66 0.33
-5 -4 -7 3.52 0.28
-5 -4 -7 3.73 0.3
-5 4 -7 3.82 0.26
5 4 7 3.31 0.29
-5 4 -7 2.99 0.31
5 4 7 3.93 0.27
5 4 7 3.45 0.29
6 -4 7 1.94 0.27
6 -4 7 2.42 0.2
-6 -4 -7 2.24 0.26
-6 -4 -7 2.25 0.21
-6 -4 -7 2.08 0.2
6 4 7 2.05 0.2
6 4 7 2.39 0.23
6 4 7 2.6 0.23
7 4 7 4.64 0.26
7 4 7 3.93 0.24
-7 4 -7 4.05 0.27
-6 -5 7 6.09 0.28
-6 -5 7 6.3 0.28
-6 -5 7 5.17 0.35
-6 -5 7 6.42 0.28
6 -5 -7 6.49 0.35
-6 5 7 5.95 0.42
-6 5 7 5.54 0.33
-5 -5 7 1.68 0.1
-5 -5 7 1.55 0.1
-5 -5 7 1.5 0.23
-5 -5 7 1.78 0.14
-5 -5 7 1.66 0.12
5 -5 -7 1.2 0.19
-5 5 7 1.22 0.3
-5 5 7 2.31 0.3
-5 5 7 1.38 0.18
-4 -5 7 0.13 0.14
-4 -5 7 0.06 0.08
4 -5 -7 0.1 0.13
-4 -5 7 0.09 0.07
-4 -5 7 0.11 0.07
4 -5 -7 0.09 0.17
-4 -5 7 0.02 0.11
-4 -5 7 0.04 0.05
4 -5 -7 0.09 0.08
4 -5 -7 0.01 0.13
-4 5 7 0.15 0.15
-4 5 7 0.29 0.14
-4 5 7 -0.07 0.11
-4 5 7 0.29 0.19
-4 5 7 0.02 0.15
-3 -5 7 18.02 0.86
-3 -5 7 19.38 0.92
-3 -5 7 18.52 1.24
-3 -5 7 17.34 0.85
3 -5 -7 18.84 0.87
-3 -5 7 18.01 0.85
3 -5 -7 18.69 0.92
3 -5 -7 22.19 1.1
3 -5 -7 18.13 0.98
-3 -5 7 18.22 0.96
-3 -5 7 19.44 0.84
-3 5 7 20.79 1.19
-3 5 7 15.93 0.91
-3 5 7 17.06 0.92
-3 5 7 20.28 0.98
-3 5 7 19.31 0.9
-3 5 7 19.29 1.22
-3 5 7 19.42 0.92
-3 5 7 18.38 0.92
-3 5 7 18.33 0.9
2 -5 -7 6.96 0.42
-2 -5 7 6.81 0.36
2 -5 -7 7.17 0.41
-2 -5 7 6.95 0.35
-2 -5 7 6.83 0.35
2 -5 -7 6.94 0.48
-2 -5 7 7.74 0.43
-2 -5 7 7.35 0.46
-2 -5 7 7.08 0.37
2 -5 -7 7.14 0.38
-2 -5 7 7.3 0.73
2 -5 -7 7.32 0.37
-2 5 7 6.52 0.47
-2 5 7 7.47 0.43
-2 5 7 7.43 0.45
-2 5 7 6.54 0.42
-2 5 7 6.57 0.42
-2 5 7 7.16 0.41
-2 5 7 6.63 0.4
-2 5 7 7.59 0.44
-1 -5 7 4.55 0.61
1 -5 -7 3.81 0.34
-1 -5 7 3.87 0.23
-1 -5 7 3.95 0.29
1 -5 -7 3.88 0.25
1 -5 -7 4.12 0.3
-1 -5 7 3.94 0.33
1 -5 -7 3.93 0.25
-1 -5 7 3.92 0.25
-1 -5 7 4.01 0.23
1 -5 -7 3.83 0.29
-1 -5 7 3.62 0.23
1 -5 -7 4.55 0.29
-1 5 7 3.67 0.3
-1 5 7 4.01 0.31
-1 5 7 4.39 0.36
-1 5 7 3.75 0.29
-1 5 7 3.57 0.3
-1 5 7 3.87 0.31
-1 5 7 3.91 0.25
-1 5 7 3.64 0.35
-1 5 7 3.92 0.3
-1 5 7 4.11 0.3
0 -5 -7 4.21 0.29
0 -5 -7 4.35 0.27
0 -5 -7 3.97 0.3
0 -5 7 4.12 0.35
0 -5 7 4.57 0.29
0 -5 -7 3.59 0.31
0 -5 7 4.21 0.38
0 -5 7 4.19 0.59
0 -5 7 3.71 0.23
0 -5 7 3.76 0.23
0 -5 7 3.57 0.27
0 -5 -7 4.15 0.25
0 -5 7 3.87 0.24
0 5 7 4.34 0.34
0 5 7 3.53 0.31
0 5 7 3.63 0.3
0 5 7 3.94 0.3
0 5 7 4.07 0.3
0 5 7 4.05 0.27
0 5 7 4.16 0.3
0 5 7 3.69 0.31
0 5 7 3.7 0.34
1 -5 7 11.75 0.59
-1 -5 -7 12.64 0.61
1 -5 7 11.96 0.59
1 -5 7 13.68 0.99
-1 -5 -7 12.27 0.66
1 -5 7 12.69 0.73
1 -5 7 13.58 0.64
1 -5 7 12.13 0.59
-1 -5 -7 12.1 0.64
1 5 7 12.58 0.7
1 5 7 12.34 0.66
1 5 7 12.95 0.68
1 5 7 12.28 0.65
1 5 7 12.85 0.63
1 5 7 11.84 0.64
1 5 7 12.01 0.64
-1 5 -7 13.07 0.66
1 5 7 12.36 0.65
2 -5 7 1.99 0.29
-2 -5 -7 2.05 0.22
2 -5 7 2.21 0.24
2 -5 7 1.87 0.25
-2 -5 -7 1.36 0.23
2 -5 7 1.57 0.17
-2 -5 -7 1.83 0.27
-2 -5 -7 1.67 0.25
2 5 7 1.8 0.22
-2 5 -7 1.91 0.29
2 5 7 1.99 0.24
2 5 7 1.74 0.27
2 5 7 1.87 0.25
-2 5 -7 2.4 0.24
2 5 7 1.53 0.26
2 5 7 1.8 0.22
3 -5 7 12.41 0.64
3 -5 7 13.01 0.68
3 -5 7 12.75 0.61
-3 -5 -7 13.04 0.65
-3 -5 -7 12.45 0.6
-3 -5 -7 12.83 0.65
3 -5 7 12.67 0.72
-3 5 -7 13.15 0.69
-3 5 -7 13.66 0.73
3 5 7 12.47 0.64
3 5 7 11.98 0.65
3 5 7 11.96 0.65
3 5 7 12.95 0.66
-4 -5 -7 9.1 0.55
-4 -5 -7 9.68 0.5
-4 -5 -7 8.86 0.55
4 -5 7 8.57 0.54
4 -5 7 9.52 0.5
-4 -5 -7 9 0.46
4 -5 7 10.52 0.6
4 -5 7 8.85 0.47
-4 -5 -7 10.55 0.51
4 5 7 9.82 0.51
4 5 7 9.59 0.55
4 5 7 9.99 0.51
4 5 7 10.37 0.53
4 5 7 9.75 0.52
-4 5 -7 9.87 0.49
-4 5 -7 9.12 0.54
5 -5 7 7.91 0.5
-5 -5 -7 8.46 0.43
5 -5 7 9.16 0.44
5 5 7 8.17 0.44
5 5 7 9.19 0.46
5 5 7 7.97 0.47
5 5 7 8.31 0.45
6 5 7 3.32 0.2
6 5 7 3.38 0.21
6 5 7 2.77 0.19
-5 -6 7 0.1 0.09
5 -6 -7 -0.02 0.07
-5 -6 7 0.06 0.05
-5 -6 7 0.04 0.03
-5 -6 7 0.06 0.03
5 -6 -7 0.1 0.07
-5 6 7 -0.03 0.09
-4 -6 7 3.48 0.28
4 -6 -7 3.7 0.24
-4 -6 7 3.88 0.19
4 -6 -7 3.82 0.25
-4 -6 7 4.16 0.2
-4 -6 7 3.78 0.19
-4 6 7 3.67 0.25
-3 -6 7 10.83 0.51
-3 -6 7 10.59 0.5
-3 -6 7 11.29 0.5
3 -6 -7 10.55 0.52
3 -6 -7 10.84 0.55
-3 -6 7 11.33 0.6
3 -6 -7 10.71 0.54
-3 -6 7 11.48 0.5
-3 6 7 10.38 0.56
-3 6 7 11.24 0.54
-2 -6 7 1.98 0.43
-2 -6 7 2.03 0.17
2 -6 -7 2.36 0.23
-2 -6 7 2.65 0.15
-2 -6 7 2.43 0.17
2 -6 -7 2.47 0.22
-2 -6 7 2.85 0.26
2 -6 -7 2.55 0.22
-2 -6 7 2.51 0.16
2 -6 -7 2.61 0.19
-2 6 7 2.22 0.23
-2 6 7 2.38 0.22
-2 6 7 2.67 0.27
-2 6 7 2.59 0.21
-2 6 7 2.69 0.41
-2 6 7 1.97 0.37
-1 -6 7 5.34 0.29
1 -6 -7 4.47 0.31
-1 -6 7 5.89 0.29
1 -6 -7 5.21 0.3
1 -6 -7 5.41 0.35
1 -6 -7 4.84 0.33
-1 -6 7 5.49 0.28
-1 -6 7 5.26 0.63
-1 -6 7 5.42 0.38
-1 6 7 6.94 0.89
-1 6 7 5.36 0.34
-1 6 7 6.16 0.36
-1 6 7 5.22 0.34
0 -6 7 1.14 0.25
0 -6 -7 1.11 0.22
0 -6 -7 1.21 0.21
0 -6 7 1.18 0.13
0 -6 -7 1.12 0.16
0 -6 7 1.36 0.13
0 -6 7 1.34 0.16
0 -6 7 1.06 0.4
0 -6 -7 1.12 0.15
0 -6 7 1.16 0.13
0 6 7 1.06 0.2
0 6 7 1.24 0.2
0 6 -7 1.28 0.24
0 6 7 1.1 0.11
0 6 7 1.15 0.2
0 6 7 1.27 0.19
1 -6 7 2.58 0.31
1 -6 7 2.22 0.19
1 -6 7 2.02 0.16
1 -6 7 2.26 0.47
1 -6 7 2.15 0.16
-1 -6 -7 2.04 0.23
-1 -6 -7 2.17 0.17
-1 -6 -7 1.93 0.23
1 -6 7 2.36 0.16
1 6 7 1.9 0.16
1 6 7 1.89 0.23
1 6 7 2.44 0.23
1 6 7 2.17 0.24
-1 6 -7 2.18 0.28
1 6 7 2.34 0.27
1 6 7 2.08 0.21
-2 -6 -7 2.02 0.15
2 -6 7 1.81 0.18
2 -6 7 1.16 0.38
-2 -6 -7 2.56 0.5
2 -6 7 1.99 0.16
2 -6 7 2.16 0.28
-2 -6 -7 1.66 0.19
-2 -6 -7 2.17 0.21
2 6 7 1.89 0.24
2 6 7 2.3 0.23
2 6 7 2.09 0.21
2 6 7 1.77 0.22
-2 6 -7 1.89 0.27
2 6 7 2.13 0.26
2 6 7 1.83 0.17
-3 -6 -7 8.8 0.43
3 -6 7 7.62 0.43
3 -6 7 7.79 0.41
3 -6 7 8.02 0.51
3 6 7 8.78 0.45
-3 6 -7 8.64 0.5
3 6 7 8.91 0.46
3 6 7 8.64 0.49
3 6 7 8.06 0.45
3 6 7 8.68 0.45
4 -6 7 0.36 0.07
4 -6 7 0.24 0.08
4 -6 7 0.38 0.14
4 6 7 0.41 0.13
4 6 7 0.19 0.11
4 6 7 0.18 0.08
4 6 7 0.2 0.1
4 6 7 0.29 0.11
2 -7 -7 0.61 0.4
-2 7 7 0.61 0.15
-1 -7 7 1.4 0.1
-1 -7 7 1.3 0.1
-1 -7 7 1.02 0.3
1 -7 -7 1.25 0.28
1 -7 -7 1.43 0.13
-1 -7 7 1.27 0.08
-1 7 7 1.06 0.14
1 7 -7 1.17 0.18
-1 7 7 1.21 0.13
0 -7 7 1.78 0.11
0 -7 7 1.58 0.1
0 -7 7 1.23 0.31
0 -7 7 1.8 0.12
0 -7 7 1.32 0.18
0 7 -7 2.01 0.2
0 7 7 1.89 0.15
0 7 7 1.87 0.14
0 7 7 1.68 0.16
0 7 7 1.44 0.19
1 -7 7 1.46 0.15
1 -7 7 1.42 0.1
1 -7 7 1.17 0.11
1 -7 7 1.29 0.19
1 -7 7 1.2 0.28
1 7 7 1.15 0.15
1 7 7 1.34 0.14
1 7 7 1.27 0.13
1 7 7 1.06 0.12
-1 7 -7 0.82 0.16
-9 0 8 0.29 0.14
-9 0 8 0.74 0.08
-9 0 8 0.63 0.09
9 0 -8 0.56 0.17
-9 0 8 0.61 0.08
-8 0 8 2.58 0.17
-8 0 8 2.47 0.32
-8 0 8 2.16 0.18
-8 0 8 2.21 0.16
-7 0 8 6.41 0.33
-7 0 8 6.48 0.36
-7 0 8 6.21 0.34
-7 0 8 6.57 0.34
-7 0 8 5.68 0.46
-6 0 8 13.58 0.66
5 0 -8 0.25 0.12
-5 0 8 0.45 0.12
-5 0 8 0.38 0.1
-4 0 8 35 1.55
4 0 -8 34.66 1.58
-4 0 8 35.82 1.57
4 0 -8 33.95 1.58
-4 0 8 34.59 1.63
-3 0 8 1.8 0.13
3 0 -8 1.87 0.14
-3 0 8 1.78 0.13
-3 0 8 1.96 0.22
-2 0 8 0.14 0.14
-2 0 8 0.01 0.03
2 0 -8 0.04 0.06
-2 0 8 0.1 0.08
-2 0 8 0.04 0.04
-1 0 8 146.95 6.96
-1 0 8 159.53 6.95
-1 0 8 158.16 7.01
1 0 -8 164.86 6.96
-1 0 8 161.26 6.94
-1 0 8 154.33 6.95
1 0 -8 167.82 6.95
0 0 -8 86.67 3.71
0 0 8 85.42 3.71
0 0 -8 85.44 3.72
0 0 8 85.27 3.71
0 0 8 82.94 3.72
0 0 8 83.93 3.71
0 0 8 83.04 3.72
0 0 -8 85.24 3.71
0 0 -8 84.64 3.71
0 0 -8 82.68 3.71
0 0 8 84 3.71
0 0 8 81.78 3.75
0 0 8 86.23 3.7
-1 0 -8 1.77 0.15
-1 0 -8 1.96 0.16
1 0 8 1.52 0.16
-1 0 -8 1.9 0.15
1 0 8 1.71 0.14
1 0 8 1.74 0.17
1 0 8 1.83 0.13
-1 0 -8 1.73 0.16
1 0 8 1.94 0.19
-1 0 -8 1.6 0.15
1 0 8 1.57 0.16
1 0 8 1.81 0.14
1 0 8 1.81 0.14
1 0 8 1.58 0.14
2 0 8 47.79 2.04
-2 0 -8 43.53 2.04
2 0 8 45.85 2.04
2 0 8 42.77 2.03
2 0 8 50.38 2.08
2 0 8 44.52 2.04
-2 0 -8 44.19 2.05
2 0 8 41.25 2.01
2 0 8 40.36 2.05
-2 0 -8 49.68 2.05
2 0 8 45.64 2.05
-2 0 -8 48.13 2.05
3 0 8 0.15 0.09
-3 0 -8 0.69 0.14
-3 0 -8 0.08 0.11
3 0 8 0.15 0.16
3 0 8 0.07 0.12
-3 0 -8 0.15 0.12
3 0 8 0.08 0.08
3 0 8 0.01 0.09
3 0 8 0.22 0.09
-3 0 -8 0.11 0.09
4 0 8 9.84 0.53
4 0 8 10.21 0.49
-4 0 -8 9.32 0.53
4 0 8 9.31 0.54
-4 0 -8 8.86 0.5
-4 0 -8 9.1 0.48
4 0 8 10.02 0.5
-4 0 -8 8.38 0.59
4 0 8 9.67 0.56
4 0 8 9.41 0.47
4 0 8 9.97 0.49
5 0 8 18.62 0.89
-5 0 -8 20.12 0.92
5 0 8 17.99 0.95
5 0 8 18.94 0.89
5 0 8 18.45 0.91
-5 0 -8 18.34 0.87
5 0 8 18.72 0.98
-5 0 -8 17.73 0.91
-6 0 -8 0.22 0.15
6 0 8 0.05 0.12
6 0 8 0.34 0.25
-6 0 -8 -0.01 0.15
6 0 8 0.19 0.12
-6 0 -8 0.15 0.21
6 0 8 0.31 0.14
6 0 8 0.12 0.09
-6 0 -8 0.13 0.16
6 0 8 0.02 0.18
6 0 8 0.14 0.13
6 0 8 0.22 0.12
-6 0 -8 0.16 0.11
-7 0 -8 1.86 0.21
7 0 8 1.78 0.48
7 0 8 1.49 0.2
-7 0 -8 1.65 0.22
-7 0 -8 1.67 0.25
7 0 8 1.75 0.32
7 0 8 1.28 0.18
7 0 8 1.64 0.2
-7 0 -8 1.52 0.25
8 0 8 0.05 0.08
8 0 8 0.11 0.1
-8 0 -8 -0.06 0.11
-8 0 -8 0.07 0.12
-8 0 -8 0.18 0.11
-8 -1 8 2.33 0.14
-8 -1 8 2.19 0.16
8 -1 -8 2.24 0.24
-8 -1 8 2.44 0.16
-8 -1 8 2.24 0.15
-8 1 8 2.3 0.18
-8 1 8 2.38 0.19
-8 1 8 2.22 0.33
-8 1 8 2.33 0.17
-7 -1 8 16.72 0.75
-7 -1 8 15.8 0.76
-7 -1 8 16.3 0.74
-7 -1 8 17.9 0.76
-7 1 8 16 0.79
-7 1 8 15.73 0.89
-7 1 8 16.34 0.77
-7 1 8 14.95 0.77
-7 1 8 16.77 0.76
-6 -1 8 0.73 0.14
-6 -1 8 0.87 0.16
-6 1 8 0.86 0.16
-5 -1 8 26.43 1.38
-5 -1 8 28.64 1.3
5 -1 -8 29.27 1.35
-5 -1 8 28.5 1.27
-5 1 8 30.16 1.26
-5 1 8 27.04 1.29
-5 1 8 28.32 1.25
-5 1 8 27.84 1.29
-4 -1 8 25.59 1.2
4 -1 -8 27.14 1.23
4 -1 -8 28.92 1.27
-4 -1 8 26.7 1.23
-4 -1 8 27.94 1.31
-4 1 8 26.82 1.3
-4 1 8 27.39 1.24
-4 1 8 25.26 1.23
-4 1 8 26.82 1.26
-4 1 8 27.7 1.21
3 -1 -8 58.43 2.61
3 -1 -8 59.17 2.63
-3 -1 8 60.28 2.61
-3 -1 8 57.96 2.68
-3 -1 8 57.27 2.62
3 -1 -8 55.42 2.61
-3 -1 8 59.12 2.58
3 -1 -8 59.12 2.63
-3 1 8 53.69 2.66
-3 1 8 62.45 2.6
-3 1 8 59.8 2.6
-3 1 8 59.38 2.62
-3 1 8 59.13 2.63
-3 1 8 60.88 2.59
-3 1 8 59.71 2.61
-2 -1 8 78.26 3.54
2 -1 -8 82.01 3.49
-2 -1 8 79.07 3.45
-2 -1 8 75.45 3.48
2 -1 -8 78.67 3.5
-2 -1 8 81.23 3.5
2 -1 -8 78.85 3.49
2 -1 -8 80.47 3.49
-2 1 8 85.7 3.5
-2 1 8 72.13 3.47
-2 1 8 78.91 3.48
-2 1 8 77.61 3.47
-2 1 8 78.11 3.48
-2 1 8 81.06 3.49
-2 1 8 82.94 3.5
-2 1 8 74.15 3.54
-1 -1 8 54.86 2.42
1 -1 -8 50.5 2.41
-1 -1 8 57.83 2.45
1 -1 -8 53.74 2.41
-1 -1 8 54.35 2.37
1 -1 -8 53.01 2.41
1 -1 -8 54.43 2.41
-1 -1 8 50.71 2.39
-1 1 8 53.61 2.39
-1 1 8 56.51 2.41
-1 1 8 57.35 2.42
-1 1 8 52.75 2.41
-1 1 8 52.89 2.4
-1 1 8 56 2.4
0 -1 -8 7.94 0.41
0 -1 -8 7.74 0.4
0 -1 -8 8.06 0.41
0 -1 8 7.76 0.37
0 -1 -8 8.05 0.4
0 -1 8 7.1 0.38
0 -1 8 8.46 0.41
0 -1 -8 7.12 0.4
0 1 8 7.72 0.39
0 1 8 8.22 0.4
0 1 8 7.42 0.41
0 1 -8 7.93 0.38
0 1 8 8.32 0.4
0 1 8 8.42 0.38
0 1 -8 8.01 0.38
0 1 8 7.42 0.41
0 1 8 7.87 0.39
0 1 8 7.58 0.42
1 -1 8 3.91 0.19
1 -1 8 3.96 0.23
1 -1 8 3.96 0.26
-1 -1 -8 3.89 0.25
-1 -1 -8 4.1 0.25
-1 -1 -8 3.84 0.26
-1 -1 -8 3.52 0.25
1 -1 8 3.76 0.22
1 -1 8 3.8 0.23
1 -1 8 3.73 0.19
1 -1 8 4.24 0.25
-1 1 -8 4.01 0.23
1 1 8 3.88 0.27
-1 1 -8 3.85 0.24
1 1 8 4.07 0.24
1 1 8 3.81 0.25
-1 1 -8 3.91 0.23
1 1 8 3.65 0.22
1 1 8 4.25 0.27
-1 1 -8 3.85 0.23
-1 1 -8 3.45 0.23
1 1 8 3.92 0.28
2 -1 8 22.58 1.08
2 -1 8 24.69 1.06
-2 -1 -8 25.36 1.11
2 -1 8 23.28 1.1
-2 -1 -8 23.04 1.1
2 -1 8 20.97 1.08
-2 -1 -8 22.99 1.1
-2 -1 -8 23.88 1.11
2 -1 8 25.01 1.09
2 -1 8 23.06 1.12
2 -1 8 21.37 1.07
2 -1 8 23.12 1.07
2 -1 8 22.84 1.08
2 1 8 22.17 1.07
2 1 8 24.09 1.06
-2 1 -8 24.48 1.09
-2 1 -8 23.98 1.09
2 1 8 25.16 1.11
2 1 8 22.51 1.12
2 1 8 23.65 1.14
-2 1 -8 22.8 1.09
3 -1 8 3.51 0.23
3 -1 8 4 0.28
-3 -1 -8 3.58 0.28
3 -1 8 3.65 0.32
-3 -1 -8 3.5 0.28
3 -1 8 3.49 0.23
-3 -1 -8 3.45 0.24
3 -1 8 4.09 0.28
-3 -1 -8 4 0.28
3 -1 8 3.64 0.27
-3 -1 -8 3.48 0.23
3 1 8 3.51 0.24
3 1 8 3.44 0.25
3 1 8 4.08 0.31
-3 1 -8 3.61 0.27
3 1 8 4.02 0.25
-3 1 -8 3.73 0.29
-3 1 -8 3.91 0.26
-3 1 -8 3.48 0.26
3 1 8 4.09 0.28
4 -1 8 41.64 1.85
-4 -1 -8 37.04 1.8
4 -1 8 37.93 1.78
4 -1 8 35.62 1.82
-4 -1 -8 40.66 1.85
4 -1 8 38.92 1.83
-4 -1 -8 42.16 1.81
-4 -1 -8 38.8 1.77
4 -1 8 40.61 1.79
4 -1 8 39.35 1.74
4 1 8 38.29 1.83
4 1 8 39.72 1.8
-4 1 -8 36.77 1.77
4 1 8 42.6 1.88
-4 1 -8 41.16 1.85
4 1 8 38.74 1.83
4 1 8 38.92 1.78
4 1 8 39.96 1.79
4 1 8 40.42 1.81
-4 1 -8 40.11 1.81
5 -1 8 37.06 1.74
5 -1 8 36.5 1.81
-5 -1 -8 38.74 1.77
-5 -1 -8 37.59 1.75
5 -1 8 35.99 1.74
5 -1 8 38.01 1.8
-5 -1 -8 38.23 1.72
5 -1 8 42.35 2.25
5 -1 8 39.43 1.7
5 1 8 37.55 1.73
-5 1 -8 37.06 1.77
5 1 8 40.09 1.85
5 1 8 37.59 1.76
5 1 8 38.79 1.8
5 1 8 37.76 1.75
-5 1 -8 38.16 1.72
6 -1 8 18.43 0.97
6 -1 8 18.26 0.87
-6 -1 -8 19.72 0.91
-6 -1 -8 17.44 0.9
6 -1 8 15.04 1.23
6 -1 8 17.75 0.96
6 -1 8 18.36 0.86
-6 -1 -8 18.43 0.97
6 -1 8 19.03 0.89
6 -1 8 18.04 0.92
6 -1 8 17.63 0.89
6 -1 8 19.29 0.89
-6 -1 -8 19.5 0.89
-6 -1 -8 17.15 0.85
6 1 8 19.34 0.91
6 1 8 20.51 0.98
-6 1 -8 18.57 0.92
6 1 8 18.47 0.88
6 1 8 19.58 1
-6 1 -8 16.08 0.89
6 1 8 17.31 0.88
6 1 8 18.06 0.88
6 1 8 19.56 0.88
-6 1 -8 18.67 0.86
-6 1 -8 19.36 1.02
-7 -1 -8 1.94 0.27
7 -1 8 2.3 0.21
-7 -1 -8 2.17 0.19
-7 -1 -8 2.44 0.29
7 -1 8 1.9 0.2
-7 -1 -8 2.15 0.25
7 -1 8 2.2 0.32
7 -1 8 1.86 0.18
-7 -1 -8 1.96 0.26
7 -1 8 1.76 0.28
7 -1 8 2.07 0.32
7 -1 8 2.26 0.31
7 -1 8 2.3 0.32
-7 1 -8 1.88 0.24
-7 1 -8 2.14 0.26
7 1 8 2.25 0.22
7 1 8 2.24 0.22
-8 -1 -8 5.65 0.28
8 -1 8 5.06 0.27
8 -1 8 5.47 0.36
-8 -1 -8 4.28 0.32
-8 -1 -8 5.25 0.29
8 1 8 5.28 0.29
-8 1 -8 5.27 0.3
8 1 8 5.49 0.28
-8 1 -8 5.34 0.31
-8 1 -8 3.88 0.39
-8 -2 8 5.79 0.28
-8 -2 8 6.49 0.29
-8 -2 8 5.95 0.29
8 -2 -8 6.32 0.41
-8 -2 8 5.69 0.28
8 -2 -8 5.44 0.36
-8 2 8 5.58 0.32
-8 2 8 6.05 0.31
-8 2 8 6.5 0.43
-8 2 8 6.28 0.44
-8 2 8 6.68 0.32
-7 -2 8 3.52 0.19
-7 -2 8 3.34 0.2
7 -2 -8 3.38 0.27
-7 -2 8 3.72 0.21
-7 -2 8 3.39 0.21
7 -2 -8 3.66 0.31
-7 -2 8 3.45 0.18
-7 -2 8 3.3 0.2
-7 2 8 3.25 0.23
-7 2 8 3.41 0.23
-7 2 8 3.62 0.28
-7 2 8 3.21 0.4
-7 2 8 3.44 0.25
-7 2 8 3.74 0.39
-7 2 8 3.38 0.27
-6 -2 8 5.91 0.29
-6 -2 8 5.62 0.3
-6 -2 8 5.47 0.28
6 -2 -8 5.36 0.36
-6 -2 8 5.53 0.34
-6 -2 8 5.65 0.27
-6 -2 8 5.57 0.27
6 -2 -8 5.83 0.4
-6 2 8 5.69 0.33
-6 2 8 5.45 0.32
-6 2 8 4.21 0.37
-6 2 8 5.51 0.35
-6 2 8 5.89 0.47
-6 2 8 5.54 0.49
-6 2 8 5.84 0.36
5 -2 -8 12.05 0.65
-5 -2 8 12.13 0.6
5 -2 -8 12.51 0.63
-5 -2 8 12.09 0.56
-5 2 8 11.59 0.64
-5 2 8 12.15 0.61
-5 2 8 11.98 0.61
-4 -2 8 1.14 0.1
4 -2 -8 1 0.18
-4 -2 8 0.92 0.15
4 -2 -8 1.3 0.16
-4 2 8 1.12 0.2
-4 2 8 0.91 0.21
-4 2 8 1.2 0.12
-4 2 8 0.99 0.19
-4 2 8 1.12 0.14
-4 2 8 1.2 0.18
-4 2 8 0.92 0.16
-3 -2 8 14.48 0.75
3 -2 -8 14.59 0.76
-3 -2 8 16.07 0.72
3 -2 -8 16.65 0.77
3 -2 -8 15.8 0.75
3 -2 -8 14.1 0.74
-3 -2 8 15.97 0.82
3 -2 -8 16.91 0.75
-3 2 8 13.75 0.75
-3 2 8 15.04 0.74
-3 2 8 14.9 0.73
-3 2 8 15.77 0.79
-3 2 8 16.46 0.77
-3 2 8 14.73 0.79
-3 2 8 16.45 0.75
-3 2 8 15.12 0.71
-3 2 8 14.44 0.72
-2 -2 8 22.57 1.05
-2 -2 8 23 1.02
-2 -2 8 22.86 1.08
2 -2 -8 21.51 1.09
2 -2 -8 23.16 1.08
-2 -2 8 24.11 1.13
2 -2 -8 23.65 1.08
2 -2 -8 23.28 1.09
-2 2 8 21.67 1.05
-2 2 8 24.7 1.1
-2 2 8 21.98 1.05
-2 2 8 22.98 1.07
-2 2 8 23.82 1.12
-2 2 8 24.53 1.08
-2 2 8 23 1.08
-2 2 8 24 1.06
-2 2 8 23.4 1.05
-2 2 8 22.6 1.09
1 -2 -8 0.44 0.13
1 -2 -8 0.39 0.1
-1 -2 8 0.56 0.13
1 -2 -8 0.54 0.14
1 -2 -8 0.5 0.12
-1 -2 8 0.32 0.06
-1 -2 8 0.35 0.16
-1 2 8 0.29 0.1
-1 2 8 0.52 0.13
-1 2 8 0.46 0.12
-1 2 8 0.32 0.09
-1 2 8 0.41 0.09
-1 2 8 0.59 0.17
-1 2 8 0.47 0.14
-1 2 8 0.47 0.09
0 -2 -8 22.25 1.09
0 -2 -8 23.72 1.09
0 -2 8 23.11 1.08
0 -2 8 22.66 1.04
0 -2 -8 23.3 1.09
0 -2 -8 23.68 1.09
0 2 8 23.83 1.09
0 2 8 21.74 1.1
0 2 8 24.89 1.11
0 2 8 23.08 1.06
0 2 8 22.75 1.05
0 2 -8 23.71 1.06
0 2 8 22.36 1.12
1 -2 8 0.57 0.1
-1 -2 -8 0.71 0.15
1 -2 8 0.72 0.14
-1 -2 -8 0.61 0.15
-1 -2 -8 0.66 0.13
1 -2 8 0.64 0.14
-1 -2 -8 0.72 0.17
1 -2 8 0.62 0.11
1 -2 8 0.65 0.13
1 2 8 0.75 0.12
1 2 8 0.72 0.1
1 2 8 0.59 0.18
1 2 8 0.42 0.12
1 2 8 0.52 0.17
1 2 8 0.53 0.12
-1 2 -8 0.49 0.12
-1 2 -8 0.67 0.11
-1 2 -8 0.55 0.1
2 -2 8 4.5 0.26
2 -2 8 3.69 0.26
-2 -2 -8 4.21 0.29
-2 -2 -8 4.2 0.29
2 -2 8 3.64 0.27
-2 -2 -8 3.65 0.25
2 -2 8 3.96 0.23
-2 -2 -8 3.85 0.24
2 -2 8 3.84 0.31
2 -2 8 4.41 0.33
-2 -2 -8 3.43 0.26
2 -2 8 3.84 0.21
-2 -2 -8 4.04 0.28
2 -2 8 3.34 0.21
-2 2 -8 4.14 0.27
2 2 8 3.97 0.25
2 2 8 4.15 0.28
-2 2 -8 3.62 0.25
-2 2 -8 3.89 0.25
-2 2 -8 4.1 0.26
2 2 8 4.25 0.26
2 2 8 3.7 0.3
2 2 8 3.96 0.26
-2 2 -8 4.04 0.27
-3 -2 -8 6.14 0.4
3 -2 8 5.57 0.4
-3 -2 -8 5.56 0.36
3 -2 8 6.2 0.31
3 -2 8 6 0.35
-3 -2 -8 5.99 0.33
-3 -2 -8 5.78 0.35
3 -2 8 6.1 0.43
3 -2 8 6.03 0.38
3 2 8 5.8 0.37
3 2 8 5.94 0.35
3 2 8 5.04 0.38
3 2 8 6.39 0.37
3 2 8 6.03 0.36
-3 2 -8 5.71 0.35
3 2 8 6.51 0.43
-3 2 -8 5.91 0.38
-3 2 -8 5.85 0.37
3 2 8 6.16 0.34
4 -2 8 8.33 0.52
-4 -2 -8 8.55 0.45
-4 -2 -8 8.52 0.48
4 -2 8 9.15 0.6
-4 -2 -8 8.22 0.48
4 -2 8 8.97 0.45
-4 2 -8 8.65 0.49
-4 2 -8 7.93 0.52
4 2 8 9.5 0.57
4 2 8 8.86 0.47
4 2 8 9.38 0.49
4 2 8 8.52 0.49
4 2 8 8.33 0.5
-5 -2 -8 6.54 0.4
5 -2 8 7.38 0.4
5 -2 8 6.42 0.38
-5 -2 -8 7.31 0.37
5 -2 8 6.59 0.48
5 2 8 6.78 0.4
-5 2 -8 6.83 0.39
5 2 8 7.07 0.43
5 2 8 6.83 0.48
5 2 8 6.79 0.42
-5 2 -8 7.05 0.45
6 -2 8 4.14 0.26
-6 -2 -8 3.69 0.33
-6 -2 -8 3.64 0.35
6 -2 8 4.19 0.39
-6 -2 -8 4.31 0.36
-6 -2 -8 3.7 0.3
-6 -2 -8 3.89 0.31
6 -2 8 4.04 0.38
6 -2 8 4.27 0.28
6 -2 8 3.96 0.29
6 -2 8 4.3 0.32
-6 -2 -8 4.15 0.29
6 2 8 4.25 0.29
6 2 8 3.98 0.31
-6 2 -8 3.96 0.4
-6 2 -8 3.93 0.26
6 2 8 3.78 0.31
6 2 8 4.07 0.3
-6 2 -8 3.39 0.31
-7 -2 -8 0.67 0.2
7 -2 8 0.62 0.24
7 -2 8 0.74 0.31
-7 -2 -8 0.5 0.15
7 -2 8 0.71 0.15
-7 -2 -8 0.58 0.23
7 -2 8 0.95 0.14
7 -2 8 0.7 0.2
7 2 8 0.76 0.18
-7 2 -8 0.96 0.19
7 2 8 0.66 0.15
-8 -2 -8 0.23 0.1
8 -2 8 0.19 0.15
-8 -2 -8 0.21 0.09
-8 -2 -8 0.17 0.07
8 2 8 0.22 0.08
-8 2 -8 0.07 0.09
8 2 8 0.16 0.08
-8 2 -8 0.26 0.09
-8 -3 8 3.12 0.13
-8 -3 8 2.9 0.14
-8 -3 8 3.2 0.14
-8 -3 8 2.87 0.14
8 -3 -8 3.14 0.23
8 -3 -8 2.27 0.21
-8 3 8 2.69 0.18
-8 3 8 3.01 0.18
-8 3 8 2.72 0.25
-7 -3 8 0.88 0.07
-7 -3 8 0.74 0.08
7 -3 -8 0.66 0.19
7 -3 -8 0.75 0.21
-7 -3 8 0.77 0.1
-7 -3 8 0.94 0.07
7 -3 -8 0.86 0.19
-7 3 8 0.79 0.31
-7 3 8 0.82 0.18
-7 3 8 0.78 0.26
-7 3 8 0.58 0.16
-6 -3 8 8.13 0.38
-6 -3 8 8.23 0.37
-6 -3 8 8.07 0.38
-6 -3 8 7.77 0.39
-6 -3 8 8.08 0.39
6 -3 -8 8.35 0.56
-6 -3 8 7.95 0.38
6 -3 -8 7.89 0.48
6 -3 -8 8.53 0.5
-6 3 8 8.51 0.44
-6 3 8 9.16 0.58
-6 3 8 7.92 0.49
-6 3 8 8.1 0.46
-6 3 8 8.83 0.64
-5 -3 8 1.35 0.12
-5 -3 8 1.35 0.1
-5 -3 8 1.27 0.12
-5 -3 8 1.43 0.09
5 -3 -8 1.26 0.25
-5 -3 8 1.38 0.1
-5 -3 8 1.49 0.11
5 -3 -8 1.42 0.22
-5 -3 8 1.41 0.18
-5 -3 8 1.47 0.09
-5 3 8 1.61 0.37
-5 3 8 1.7 0.2
-5 3 8 1.58 0.15
-5 3 8 1.65 0.21
-5 3 8 1.52 0.31
-5 3 8 1.39 0.26
-4 -3 8 20.19 1.01
4 -3 -8 21.05 1.02
4 -3 -8 21.65 1.05
-4 -3 8 20.52 0.97
-4 -3 8 20.18 0.93
-4 3 8 19.54 1.03
-4 3 8 22.65 1.03
-4 3 8 21.48 0.97
-3 -3 8 10.62 0.49
-3 -3 8 10.57 0.56
3 -3 -8 11.03 0.6
3 -3 -8 10.53 0.57
-3 -3 8 10.66 0.53
-3 3 8 11.57 0.55
-3 3 8 11.48 0.54
-3 3 8 10.18 0.58
-3 3 8 10.24 0.54
-3 3 8 11.3 0.61
-3 3 8 10.45 0.6
-3 3 8 11.42 0.65
-3 3 8 10.55 0.55
-3 3 8 10.83 0.67
-2 -3 8 1.5 0.11
2 -3 -8 1.48 0.18
2 -3 -8 1.44 0.18
-2 -3 8 1.7 0.17
2 -3 -8 1.61 0.21
-2 3 8 1.55 0.25
-2 3 8 1.57 0.22
-2 3 8 1.42 0.15
-2 3 8 1.54 0.17
-2 3 8 1.5 0.15
-2 3 8 1.61 0.2
-2 3 8 1.31 0.16
-2 3 8 1.38 0.19
-1 -3 8 9.16 0.47
1 -3 -8 9.2 0.5
-1 -3 8 8.41 0.43
1 -3 -8 9.41 0.51
1 -3 -8 9.37 0.48
-1 3 8 9.21 0.47
-1 3 8 9.21 0.46
-1 3 8 9.08 0.51
-1 3 8 8.76 0.5
-1 3 8 9.42 0.48
-1 3 8 8.91 0.47
-1 3 8 9.02 0.55
-1 3 8 9.29 0.53
0 -3 -8 6.3 0.35
0 -3 -8 7.26 0.44
0 -3 8 6.17 0.38
0 -3 -8 6.2 0.38
0 -3 8 6.7 0.35
0 -3 -8 6.44 0.41
0 -3 8 6.35 0.36
0 -3 8 6.86 0.37
0 -3 8 7.24 0.46
0 -3 -8 6.41 0.4
0 3 8 6.69 0.44
0 3 -8 6.29 0.36
0 3 8 7.58 0.4
0 3 8 6.81 0.4
0 3 8 7.06 0.41
0 3 -8 7 0.37
0 3 8 7.1 0.34
0 3 8 7.21 0.39
0 3 8 7.61 0.36
0 3 8 6.42 0.37
1 -3 8 2.35 0.19
-1 -3 -8 2.21 0.23
1 -3 8 1.82 0.19
-1 -3 -8 2.27 0.19
1 -3 8 2.21 0.16
-1 -3 -8 2.22 0.2
1 -3 8 2.37 0.2
-1 -3 -8 2.31 0.23
1 3 8 2.53 0.19
1 3 8 2.07 0.21
1 3 8 2.23 0.2
1 3 8 2.35 0.21
-1 3 -8 2.33 0.21
-1 3 -8 2.12 0.18
1 3 8 1.98 0.21
1 3 8 2.21 0.17
1 3 8 2.35 0.28
1 3 8 2.53 0.25
2 -3 8 27.09 1.31
2 -3 8 30.02 1.28
-2 -3 -8 27.15 1.29
-2 -3 -8 28.44 1.27
2 -3 8 28.54 1.28
2 -3 8 29.63 1.24
2 -3 8 27.25 1.24
2 -3 8 27.39 1.32
-2 -3 -8 27.41 1.29
2 3 8 26.6 1.29
2 3 8 29.48 1.31
2 3 8 28 1.39
-2 3 -8 25.94 1.32
2 3 8 28.8 1.3
2 3 8 27.85 1.27
2 3 8 26.52 1.33
-2 3 -8 26.67 1.29
3 -3 8 10.54 0.52
3 -3 8 11.43 0.62
-3 -3 -8 11.21 0.57
-3 -3 -8 10.99 0.53
-3 -3 -8 10.68 0.57
3 -3 8 11.45 0.66
3 3 8 11.23 0.56
3 3 8 8.96 0.53
3 3 8 11.23 0.58
-3 3 -8 10.6 0.62
3 3 8 10.83 0.61
3 3 8 11.3 0.59
-3 3 -8 10.34 0.58
4 -3 8 11.57 0.62
-4 -3 -8 10.48 0.52
4 -3 8 9.21 0.54
-4 -3 -8 11.21 0.56
4 -3 8 12.05 0.53
-4 3 -8 9.03 0.62
-4 3 -8 10.73 0.59
4 3 8 9.89 0.63
4 3 8 10.28 0.55
4 3 8 11.23 0.59
5 -3 8 6.05 0.34
5 -3 8 6.08 0.37
5 -3 8 6.14 0.46
-5 -3 -8 6.76 0.38
-5 -3 -8 5.59 0.39
-5 -3 -8 6.03 0.41
5 -3 8 6.07 0.44
5 -3 8 5.67 0.37
-5 -3 -8 6.17 0.45
-5 -3 -8 6.34 0.4
5 -3 8 6.12 0.34
5 3 8 5.72 0.37
-5 3 -8 6.11 0.36
5 3 8 6.07 0.37
5 3 8 6.1 0.38
-5 3 -8 5.82 0.4
5 3 8 5.89 0.39
-6 -3 -8 0.93 0.11
6 -3 8 0.58 0.25
6 -3 8 0.99 0.24
-6 -3 -8 0.78 0.21
6 -3 8 0.77 0.14
-6 -3 -8 0.77 0.17
6 -3 8 0.8 0.17
-6 -3 -8 0.6 0.19
6 -3 8 0.84 0.2
6 3 8 0.9 0.18
-6 3 -8 0.84 0.16
6 3 8 0.91 0.21
6 3 8 0.77 0.18
-6 3 -8 0.78 0.25
-6 3 -8 0.63 0.17
-7 -3 -8 0.93 0.15
-7 -3 -8 0.74 0.16
-7 -3 -8 1.15 0.2
7 -3 8 0.67 0.13
7 -3 8 1 0.22
-7 -3 -8 0.82 0.19
7 3 8 0.87 0.16
-7 3 -8 0.83 0.2
7 3 8 0.91 0.16
7 -4 -8 1.09 0.15
-7 -4 8 1.33 0.07
7 -4 -8 1.1 0.16
7 -4 -8 0.96 0.16
-7 -4 8 1.26 0.07
-7 4 8 1.22 0.15
-7 4 8 1.08 0.15
-7 4 8 1.33 0.26
6 -4 -8 2.19 0.26
6 -4 -8 2.15 0.24
-6 -4 8 2.12 0.11
-6 -4 8 2.06 0.12
-6 -4 8 1.95 0.13
-6 -4 8 2.02 0.11
6 -4 -8 1.89 0.22
-6 4 8 2.13 0.2
-6 4 8 1.92 0.25
-6 4 8 1.9 0.36
-6 4 8 2.22 0.22
5 -4 -8 15.32 0.78
-5 -4 8 14.92 0.67
-5 -4 8 14.96 0.67
5 -4 -8 14.06 0.75
5 -4 -8 14.2 0.7
-5 -4 8 14.41 0.68
-5 -4 8 14.24 0.66
5 -4 -8 16.35 0.85
-5 -4 8 15.49 0.75
-5 -4 8 14.83 0.66
-5 4 8 14.68 0.79
-5 4 8 16.22 0.92
-5 4 8 14.96 0.76
-5 4 8 14.08 0.7
-5 4 8 15.79 0.75
-5 4 8 12.93 0.81
-4 -4 8 6.36 0.29
4 -4 -8 6.78 0.44
4 -4 -8 5.92 0.34
-4 -4 8 6.07 0.29
-4 -4 8 6.02 0.31
4 -4 -8 5.85 0.39
-4 -4 8 6.18 0.42
4 -4 -8 6.51 0.48
-4 -4 8 6.26 0.29
-4 -4 8 6.46 0.39
-4 -4 8 6.19 0.31
-4 4 8 6.48 0.59
-4 4 8 6.55 0.41
-4 4 8 5.08 0.36
-4 4 8 5.88 0.36
-4 4 8 6.73 0.37
-4 4 8 6.43 0.39
-4 4 8 5.49 0.42
-3 -4 8 2.57 0.25
3 -4 -8 2.19 0.18
3 -4 -8 2.29 0.24
-3 -4 8 2.06 0.15
-3 4 8 2.42 0.23
-3 4 8 2.34 0.23
-3 4 8 2.25 0.28
-3 4 8 2.47 0.22
2 -4 -8 54.94 2.51
-2 -4 8 55.15 2.51
-2 -4 8 57.03 2.45
2 -4 -8 52.97 2.5
2 -4 -8 55.33 2.47
-2 4 8 57.58 2.51
-2 4 8 54.76 2.49
-2 4 8 54.5 2.56
-2 4 8 57.58 2.52
-2 4 8 55 2.55
-1 -4 8 4.18 0.29
1 -4 -8 3.96 0.29
1 -4 -8 4.27 0.25
-1 -4 8 3.74 0.24
1 -4 -8 3.77 0.29
-1 4 8 3.53 0.29
-1 4 8 3.66 0.3
1 4 -8 3.94 0.28
-1 4 8 3.96 0.27
-1 4 8 4.25 0.34
-1 4 8 4.18 0.35
-1 4 8 4.03 0.26
0 -4 -8 1 0.21
0 -4 8 0.77 0.15
0 -4 -8 0.92 0.14
0 -4 -8 0.71 0.17
0 -4 8 0.56 0.13
0 4 8 0.94 0.21
0 4 8 0.78 0.22
0 4 8 0.86 0.16
0 4 8 1.12 0.15
0 4 8 1 0.22
0 4 -8 0.7 0.16
0 4 8 0.69 0.14
0 4 8 0.87 0.17
-1 -4 -8 12.9 0.6
1 -4 8 11.51 0.56
-1 -4 -8 11.79 0.63
-1 -4 -8 12.33 0.63
1 -4 8 12.53 0.55
1 -4 8 13.1 0.61
1 -4 8 11.81 0.59
1 4 8 12.32 0.6
1 4 8 11.33 0.67
1 4 8 11.52 0.6
1 4 8 11.68 0.72
-1 4 -8 12.35 0.66
1 4 8 12.3 0.63
1 4 8 12.8 0.65
1 4 8 12.99 0.64
2 -4 8 11.28 0.57
2 -4 8 10.52 0.59
-2 -4 -8 11.34 0.63
-2 -4 -8 11.34 0.6
2 -4 8 11.76 0.61
-2 -4 -8 11.65 0.56
-2 4 -8 11.58 0.65
-2 4 -8 11.83 0.61
2 4 8 12.12 0.62
2 4 8 12.08 0.62
2 4 8 11.43 0.58
2 4 8 10.42 0.64
3 -4 8 26.72 1.19
3 -4 8 24.56 1.26
-3 -4 -8 25.96 1.18
-3 -4 -8 28.1 1.22
-3 -4 -8 24.66 1.23
3 -4 8 27.24 1.32
-3 -4 -8 24.73 1.23
-3 4 -8 26.89 1.3
-3 4 -8 25.72 1.26
3 4 8 27.36 1.26
3 4 8 26.68 1.22
3 4 8 24.42 1.22
3 4 8 27.07 1.26
3 4 8 25.69 1.23
3 4 8 24.7 1.23
3 4 8 27.87 1.24
4 -4 8 11.18 0.54
4 -4 8 11.33 0.67
-4 -4 -8 11.62 0.6
-4 -4 -8 10.83 0.6
4 -4 8 9.83 0.52
4 -4 8 12.1 0.65
-4 -4 -8 10.98 0.57
-4 -4 -8 11.63 0.6
4 -4 8 11.31 0.57
4 4 8 10.53 0.59
4 4 8 11.93 0.61
4 4 8 10.49 0.61
-4 4 -8 10.76 0.61
-4 4 -8 10.45 0.55
4 4 8 10.83 0.58
4 4 8 11.09 0.59
4 4 8 12.03 0.57
5 -4 8 4.84 0.37
-5 -4 -8 5.1 0.33
5 -4 8 4.96 0.4
-5 -4 -8 4.8 0.32
5 -4 8 4.72 0.3
5 4 8 4.49 0.32
5 4 8 4.56 0.33
5 4 8 4.36 0.29
5 4 8 4.68 0.3
-5 4 -8 4.2 0.35
-6 -4 -8 1.17 0.15
6 -4 8 1.31 0.24
-6 -4 -8 1.16 0.22
6 -4 8 1.29 0.15
-6 -4 -8 1.1 0.16
-6 -4 -8 1.26 0.16
6 4 8 1.3 0.19
6 4 8 1.46 0.18
6 4 8 1.28 0.15
-6 4 -8 1.01 0.22
-6 -5 8 3.89 0.18
-6 -5 8 4.2 0.18
-6 5 8 3.72 0.25
-6 5 8 3.65 0.31
-5 -5 8 1.78 0.1
-5 -5 8 2.06 0.11
-5 -5 8 2.07 0.23
5 -5 -8 1.48 0.2
-5 -5 8 1.94 0.11
-5 5 8 1.87 0.2
-5 5 8 1.83 0.31
-4 -5 8 30.95 1.38
4 -5 -8 27.89 1.32
-4 -5 8 28.1 1.3
-4 -5 8 30.16 1.29
-4 -5 8 29.63 1.31
4 -5 -8 29.3 1.38
-4 -5 8 29.14 1.3
-4 -5 8 29.67 1.4
4 -5 -8 28.46 1.37
4 -5 -8 26.24 1.41
-4 5 8 29.79 1.34
-4 5 8 31.97 1.37
-4 5 8 29.54 1.41
-4 5 8 29.61 1.48
-4 5 8 30.98 1.38
-3 -5 8 38.97 1.69
3 -5 -8 39.99 1.72
-3 -5 8 40.06 1.77
-3 -5 8 40.73 1.81
-3 -5 8 37.58 1.69
3 -5 -8 39.93 1.78
-3 -5 8 36.67 1.69
3 -5 -8 38.04 1.79
-3 -5 8 39.12 1.71
-3 -5 8 37.35 1.7
-3 -5 8 36.3 2.09
3 -5 -8 40.58 1.84
-3 5 8 39.13 1.77
-3 5 8 37.57 1.81
-3 5 8 38.84 1.75
-3 5 8 33.37 1.73
-3 5 8 39.43 1.77
2 -5 -8 2.37 0.23
2 -5 -8 2.17 0.29
-2 -5 8 2.1 0.15
-2 -5 8 2.29 0.54
2 -5 -8 2.37 0.19
-2 -5 8 2.13 0.26
-2 -5 8 2.07 0.14
2 -5 -8 2.37 0.27
-2 -5 8 2.47 0.23
-2 -5 8 2.23 0.16
-2 -5 8 2.01 0.16
-2 -5 8 2.19 0.14
-2 5 8 2.16 0.24
-2 5 8 2.27 0.22
-2 5 8 2.57 0.23
-2 5 8 2.49 0.24
-2 5 8 1.91 0.41
-2 5 8 2.42 0.26
-2 5 8 2.16 0.26
-2 5 8 2.25 0.23
-2 5 8 2.23 0.28
-2 5 8 1.93 0.6
1 -5 -8 14.86 0.73
-1 -5 8 13.11 1.04
1 -5 -8 13.63 0.7
1 -5 -8 13.91 0.67
-1 -5 8 14.41 0.65
1 -5 -8 14.75 0.79
1 -5 -8 13.95 0.68
-1 -5 8 14.84 0.76
-1 -5 8 14.2 0.65
-1 -5 8 13.78 0.65
-1 -5 8 14.15 0.67
-1 -5 8 14.53 0.71
-1 5 8 13.33 0.71
-1 5 8 13.12 0.69
-1 5 8 15.22 1.35
-1 5 8 13.51 0.71
-1 5 8 13.87 0.72
-1 5 8 13.87 0.73
-1 5 8 13.5 0.73
-1 5 8 14.45 0.7
-1 5 8 13.2 0.76
-1 5 8 13.92 0.72
0 -5 8 1.87 0.48
0 -5 8 1.81 0.19
0 -5 -8 1.6 0.2
0 -5 -8 1.95 0.18
0 -5 8 1.78 0.22
0 -5 -8 1.6 0.27
0 -5 -8 1.25 0.38
0 -5 -8 1.41 0.21
0 -5 -8 1.64 0.22
0 -5 8 1.63 0.24
0 -5 8 1.68 0.14
0 -5 8 1.66 0.15
0 -5 8 1.57 0.14
0 5 8 1.75 0.23
0 5 8 1.76 0.15
0 5 8 1.53 0.24
0 5 8 1.95 0.21
0 5 8 1.77 0.26
0 5 8 1.5 0.23
0 5 8 1.75 0.21
0 5 8 1.52 0.21
0 5 8 1.65 0.23
0 5 8 1.41 0.23
0 5 8 1.5 0.26
-1 -5 -8 1.15 0.15
1 -5 8 0.76 0.4
-1 -5 -8 0.84 0.19
1 -5 8 1 0.14
-1 -5 -8 0.82 0.21
1 -5 8 1.08 0.25
1 -5 8 0.75 0.17
-1 -5 -8 1.07 0.27
1 -5 8 1 0.13
1 -5 8 0.96 0.13
1 5 8 0.88 0.23
1 5 8 0.96 0.15
1 5 8 1.13 0.21
1 5 8 1.27 0.21
1 5 8 0.75 0.21
1 5 8 0.82 0.26
1 5 8 0.8 0.21
1 5 8 0.8 0.18
1 5 8 1.08 0.21
-2 -5 -8 12.25 0.61
2 -5 8 11.66 0.6
2 -5 8 10.76 0.56
-2 -5 -8 11.42 0.62
2 -5 8 12.32 0.69
2 -5 8 11.33 0.56
-2 -5 -8 10.91 0.61
2 5 8 12.47 0.63
2 5 8 11.67 0.61
2 5 8 11.49 0.62
-2 5 -8 10.94 0.67
2 5 8 12.62 0.67
2 5 8 11.83 0.61
2 5 8 11.9 0.58
-2 5 -8 11.23 0.62
2 5 8 11.82 0.63
-3 -5 -8 10.78 0.53
3 -5 8 11.11 0.52
-3 -5 -8 10.74 0.58
3 -5 8 10.9 0.58
-3 -5 -8 10.32 0.57
3 -5 8 10.01 0.63
-3 5 -8 10.63 0.64
3 5 8 9.83 0.56
3 5 8 11.3 0.58
3 5 8 11.53 0.58
3 5 8 10.85 0.54
-3 5 -8 10.58 0.59
3 5 8 11.13 0.58
3 5 8 11.48 0.62
4 -5 8 5.62 0.33
4 -5 8 6.35 0.43
-4 -5 -8 6.08 0.35
4 -5 8 5.12 0.37
-4 -5 -8 6.19 0.36
-4 -5 -8 5.86 0.3
4 -5 8 5.79 0.31
4 5 8 5.34 0.34
4 5 8 5.81 0.36
4 5 8 4.96 0.31
4 5 8 6.11 0.4
4 5 8 5.97 0.35
-5 -5 -8 2.59 0.2
5 -5 8 2.66 0.19
5 -5 8 2.8 0.27
5 5 8 2.8 0.22
5 5 8 2.81 0.22
5 5 8 2.65 0.24
5 5 8 2.55 0.2
-4 -6 8 2.72 0.13
-4 -6 8 2.01 0.21
-4 -6 8 2.54 0.13
-4 -6 8 2.64 0.13
4 -6 -8 2.84 0.2
4 -6 -8 2.64 0.19
-4 6 8 2.44 0.19
-3 -6 8 1.22 0.38
-3 -6 8 1.57 0.22
-3 -6 8 1.41 0.11
3 -6 -8 1.56 0.19
-3 -6 8 1.43 0.09
-3 -6 8 1.51 0.09
3 -6 -8 1.6 0.17
-3 6 8 1.43 0.17
2 -6 -8 5.97 0.36
-2 -6 8 6.34 0.29
2 -6 -8 6.05 0.32
-2 -6 8 6.35 0.4
-2 -6 8 6.66 0.31
-2 -6 8 5.99 0.3
-2 -6 8 6.25 0.3
2 -6 -8 6.13 0.36
-2 6 8 6.21 0.35
-2 6 8 5.67 0.41
-2 6 8 6.61 0.38
-1 -6 8 3.37 0.54
-1 -6 8 3.25 0.18
1 -6 -8 2.99 0.27
-1 -6 8 3.36 0.19
1 -6 -8 2.98 0.21
-1 -6 8 3.28 0.17
1 -6 -8 2.66 0.24
1 -6 -8 3.26 0.25
-1 -6 8 3.01 0.19
-1 6 8 3.07 0.24
-1 6 8 3.21 0.25
-1 6 8 3.54 0.3
-1 6 8 3.32 0.26
-1 6 8 2.88 0.23
-1 6 8 2.56 0.29
-1 6 8 2.72 0.21
0 -6 8 3.2 0.51
0 -6 8 2.72 0.18
0 -6 -8 2.78 0.25
0 -6 8 2.89 0.17
0 -6 8 3.18 0.3
0 -6 -8 2.51 0.21
0 -6 8 2.89 0.17
0 -6 8 2.68 0.2
0 -6 -8 2.57 0.25
0 -6 -8 2.75 0.2
0 6 8 2.67 0.23
0 6 8 3.02 0.23
0 6 8 2.54 0.25
0 6 8 2.65 0.24
-1 -6 -8 4.67 0.32
1 -6 8 5.09 0.27
-1 -6 -8 4.75 0.27
1 -6 8 5.28 0.26
1 -6 8 4.29 0.3
1 -6 8 4.66 0.37
-1 -6 -8 4.53 0.31
1 -6 8 5.35 0.27
1 6 8 5.24 0.36
1 6 8 5.07 0.31
1 6 8 5.31 0.32
1 6 8 4.74 0.33
-1 6 -8 4.87 0.37
1 6 8 4.93 0.31
2 -6 8 5.15 0.27
2 -6 8 5.38 0.28
-2 -6 -8 5.13 0.31
2 -6 8 4.15 0.36
-2 -6 -8 5.17 0.32
-2 -6 -8 6.04 0.31
2 -6 8 5.2 0.28
2 6 8 5.21 0.32
2 6 8 5.46 0.32
2 6 8 5.03 0.36
2 6 8 5.91 0.33
-2 6 -8 5.71 0.38
2 6 8 5.57 0.33
3 -6 8 0.51 0.12
-3 -6 -8 0.55 0.16
-3 -6 -8 0.57 0.14
3 -6 8 0.54 0.11
3 -6 8 0.22 0.15
-3 -6 -8 0.15 0.17
3 6 8 0.33 0.26
3 6 8 0.46 0.18
3 6 8 0.52 0.14
3 6 8 0.73 0.15
3 6 8 0.57 0.15
3 6 8 0.51 0.15
4 -6 8 0.4 0.16
-4 -6 -8 0.09 0.12
4 -6 8 0.15 0.06
4 -6 8 0.17 0.07
4 6 8 0.12 0.08
4 6 8 0.14 0.09
4 6 8 0.33 0.11
4 6 8 0.13 0.08
4 6 8 0.38 0.09
-8 0 9 0.18 0.07
-8 0 9 0.14 0.06
-8 0 9 0.31 0.08
-8 0 9 0.15 0.19
-7 0 9 0.21 0.09
-7 0 9 0.13 0.07
-7 0 9 0.21 0.09
-7 0 9 0.24 0.2
-7 0 9 0.01 0.1
-6 0 9 7.74 0.38
-6 0 9 7.85 0.4
-6 0 9 7.05 0.37
-6 0 9 8.04 0.54
-6 0 9 6.73 0.38
-5 0 9 23.22 1.08
5 0 -9 23.63 1.12
-5 0 9 24.09 1.1
-5 0 9 24.4 1.19
4 0 -9 51.77 2.35
-4 0 9 54.85 2.43
-4 0 9 50.65 2.32
-4 0 9 52.97 2.34
-3 0 9 0.28 0.11
-3 0 9 0.19 0.13
-2 0 9 0.23 0.16
-2 0 9 0.13 0.04
-1 0 9 10.44 0.49
-1 0 9 11.07 0.48
1 0 -9 10.31 0.5
-1 0 9 10.06 0.56
0 0 9 14.16 0.7
0 0 9 15.23 0.76
0 0 9 16.43 0.71
0 0 9 15.32 0.7
0 0 9 14.77 0.72
0 0 -9 16.37 0.72
0 0 9 15.07 0.72
0 0 9 14.88 0.73
0 0 9 16.18 0.7
0 0 -9 15.85 0.72
0 0 -9 15.23 0.72
0 0 -9 15.59 0.72
-1 0 -9 38.45 1.77
1 0 9 43.29 1.8
1 0 9 37.19 1.77
1 0 9 37.63 1.76
1 0 9 37.73 1.77
1 0 9 41.54 1.76
-1 0 -9 38.13 1.77
1 0 9 39.04 1.74
1 0 9 40.88 1.75
1 0 9 40.29 1.77
-1 0 -9 36.54 1.77
-1 0 -9 40.86 1.77
2 0 9 2.61 0.2
-2 0 -9 2.59 0.21
2 0 9 2.62 0.17
-2 0 -9 2.35 0.18
-2 0 -9 2.81 0.22
2 0 9 2.48 0.19
2 0 9 2.4 0.2
2 0 9 2.92 0.26
-2 0 -9 2.45 0.21
-2 0 -9 2.32 0.2
2 0 9 2.63 0.22
2 0 9 2.76 0.22
2 0 9 2.41 0.17
2 0 9 2.5 0.2
3 0 9 4.84 0.37
-3 0 -9 5.45 0.34
3 0 9 4.76 0.33
3 0 9 4.51 0.28
3 0 9 5.06 0.33
3 0 9 4.46 0.31
3 0 9 5.1 0.28
-3 0 -9 3.89 0.31
-3 0 -9 4.99 0.3
3 0 9 4.85 0.32
-4 0 -9 16.46 0.77
4 0 9 16.72 0.83
4 0 9 16.49 0.85
4 0 9 17.27 0.8
4 0 9 15.77 0.78
-4 0 -9 16 0.81
-4 0 -9 15.47 0.84
4 0 9 15.96 0.73
5 0 9 7.96 0.45
5 0 9 7.27 0.49
5 0 9 8.54 0.85
5 0 9 7.7 0.38
-5 0 -9 7.7 0.47
-5 0 -9 7.73 0.46
-5 0 -9 8.13 0.42
5 0 9 7.31 0.43
6 0 9 0.17 0.24
6 0 9 0.41 0.2
6 0 9 0.18 0.12
-6 0 -9 0.22 0.15
-6 0 -9 0.28 0.18
6 0 9 0.3 0.13
6 0 9 0.31 0.14
6 0 9 0.16 0.11
6 0 9 0.13 0.11
-6 0 -9 0.29 0.21
-6 0 -9 0.17 0.16
-6 0 -9 0.15 0.11
6 0 9 0.23 0.3
-7 0 -9 0.81 0.23
7 0 9 1.12 0.28
7 0 9 0.74 0.15
7 0 9 0.99 0.17
-7 0 -9 0.86 0.23
-7 0 -9 1.19 0.19
-7 0 -9 0.89 0.22
7 0 9 1.09 0.26
-8 0 -9 2.49 0.19
-8 0 -9 1.51 0.2
8 0 9 2.08 0.15
-8 0 -9 2.29 0.19
-8 -1 9 3.04 0.17
-8 -1 9 3.15 0.18
8 -1 -9 2.81 0.25
-8 -1 9 3.1 0.16
-8 -1 9 3.32 0.17
-8 -1 9 3.49 0.23
-8 1 9 3.26 0.2
-8 1 9 3.23 0.2
-8 1 9 3.04 0.18
-8 1 9 3.26 0.33
-7 -1 9 3.86 0.22
-7 -1 9 3.83 0.2
-7 -1 9 3.8 0.2
-7 -1 9 3.56 0.22
-7 -1 9 3.58 0.22
-7 1 9 3.6 0.26
-7 1 9 3.88 0.25
-7 1 9 4.1 0.25
-7 1 9 4.01 0.23
-7 1 9 3.94 0.4
-6 -1 9 2.61 0.17
-6 -1 9 2.45 0.23
-6 -1 9 2.39 0.13
-6 -1 9 2.48 0.16
-6 -1 9 2.04 0.14
-6 -1 9 2.04 0.14
-6 1 9 2.01 0.22
-6 1 9 2.21 0.2
-6 1 9 2.15 0.17
-6 1 9 2.13 0.18
-6 1 9 1.94 0.33
-5 -1 9 28.33 1.28
5 -1 -9 27.07 1.31
-5 -1 9 25.53 1.36
-5 -1 9 27.69 1.24
-5 1 9 29.87 1.28
-4 -1 9 34.42 1.6
-4 -1 9 33.89 1.47
-4 -1 9 34.52 1.51
4 -1 -9 33.5 1.53
-4 1 9 32.17 1.53
-4 1 9 34.11 1.59
-4 1 9 30.02 1.49
-3 -1 9 19.54 0.93
3 -1 -9 19.17 0.93
3 -1 -9 19.71 0.93
-3 -1 9 19.81 0.91
3 -1 -9 19.68 0.91
-3 -1 9 19.33 0.99
-3 1 9 19.59 0.89
-3 1 9 19.38 0.99
-3 1 9 19.6 0.87
-3 1 9 19.67 0.9
-3 1 9 20.23 0.9
-3 1 9 20.16 0.93
-3 1 9 19.94 0.87
-2 -1 9 110.12 4.7
2 -1 -9 105.05 4.72
-2 -1 9 103.15 4.67
2 -1 -9 106.33 4.71
-2 -1 9 108.26 4.78
2 -1 -9 106 4.71
-2 -1 9 113.51 4.73
2 -1 -9 104.06 4.72
-2 1 9 102.67 4.69
-2 1 9 108.68 4.69
-2 1 9 106.79 4.78
-2 1 9 106.72 4.69
-2 1 9 109.71 4.72
-2 1 9 114.07 4.71
-2 1 9 101.16 4.71
1 -1 -9 10.89 0.55
1 -1 -9 11.26 0.55
-1 -1 9 11.32 0.56
1 -1 -9 11.89 0.56
-1 -1 9 11.91 0.6
1 -1 -9 11.02 0.55
-1 -1 9 11.17 0.51
-1 1 9 11.19 0.55
-1 1 9 11.5 0.53
-1 1 9 11.3 0.56
-1 1 9 11.24 0.54
-1 1 9 12.29 0.61
-1 1 9 9.87 0.53
-1 1 9 11.9 0.54
0 -1 -9 11.55 0.57
0 -1 -9 12.19 0.57
0 -1 9 12.08 0.54
0 -1 9 11.61 0.58
0 -1 -9 11.04 0.57
0 -1 -9 11.42 0.57
0 -1 9 11.35 0.52
0 1 9 12.28 0.59
0 1 9 10.66 0.54
0 1 -9 11.89 0.55
0 1 9 11.23 0.57
0 1 9 11.33 0.55
0 1 9 11.81 0.54
0 1 9 11.96 0.57
0 1 9 11.24 0.57
0 1 9 11.35 0.56
1 -1 9 37.45 1.67
-1 -1 -9 35.51 1.7
1 -1 9 39.35 1.69
-1 -1 -9 37.84 1.7
-1 -1 -9 39.15 1.7
1 -1 9 39.36 1.7
1 -1 9 36.9 1.7
1 -1 9 36.12 1.67
-1 -1 -9 34.77 1.7
-1 1 -9 40.23 1.69
1 1 9 38.43 1.71
-1 1 -9 36.1 1.68
1 1 9 36.09 1.68
1 1 9 37.73 1.7
1 1 9 36.03 1.67
1 1 9 36.73 1.68
-1 1 -9 37.71 1.69
-1 1 -9 38.06 1.68
1 1 9 36.53 1.73
2 -1 9 42.21 1.94
-2 -1 -9 43.57 1.94
2 -1 9 42.22 1.92
-2 -1 -9 44.09 1.97
2 -1 9 42.7 1.95
2 -1 9 40.26 1.91
-2 -1 -9 45.04 1.98
2 -1 9 44.69 2
-2 -1 -9 41.97 1.98
2 -1 9 43.13 1.93
-2 -1 -9 45.59 1.98
2 -1 9 38.94 1.96
2 -1 9 45.55 1.96
-2 -1 -9 44.48 1.98
2 1 9 42.37 1.94
2 1 9 44.79 1.97
-2 1 -9 42.32 1.95
2 1 9 43.18 2.01
2 1 9 46.95 1.99
-2 1 -9 41.26 1.94
-2 1 -9 46.95 1.98
2 1 9 39.77 1.93
-3 -1 -9 4.94 0.35
3 -1 9 5.02 0.41
3 -1 9 5.33 0.34
-3 -1 -9 5.27 0.3
3 -1 9 5.05 0.29
-3 -1 -9 5.16 0.35
3 -1 9 5.28 0.35
-3 -1 -9 5.33 0.32
3 -1 9 5.17 0.32
3 -1 9 5.21 0.29
3 1 9 5.09 0.35
-3 1 -9 5.15 0.34
-3 1 -9 5.26 0.35
3 1 9 5.53 0.29
3 1 9 5.66 0.38
3 1 9 5.05 0.31
-3 1 -9 5.25 0.32
3 1 9 5.68 0.35
3 1 9 5.35 0.32
-4 -1 -9 21.73 1
4 -1 9 20.93 0.97
4 -1 9 19.88 1.02
4 -1 9 19.76 0.96
4 -1 9 20.52 1.09
4 -1 9 18.28 1.01
-4 -1 -9 20.37 0.96
-4 -1 -9 20.1 0.99
4 1 9 21.43 0.96
-4 1 -9 20.16 1.03
-4 1 -9 19.5 0.97
4 1 9 19.83 1.02
4 1 9 21.62 1.07
4 1 9 19.1 0.93
-4 1 -9 21.56 1
-4 1 -9 22.72 0.99
4 1 9 21.55 0.98
4 1 9 22.44 0.99
-5 -1 -9 8.32 0.49
5 -1 9 9.45 0.47
5 -1 9 9.05 0.54
-5 -1 -9 9.04 0.46
5 -1 9 8.23 0.47
5 -1 9 8.22 0.52
5 -1 9 8.28 0.52
-5 -1 -9 8.76 0.5
-5 1 -9 8.72 0.45
5 1 9 8.64 0.47
5 1 9 8.56 0.46
5 1 9 9.55 0.5
-5 1 -9 8.86 0.5
5 1 9 9.28 0.54
6 -1 9 2.39 0.22
-6 -1 -9 2.18 0.19
-6 -1 -9 2.11 0.25
6 -1 9 2.17 0.3
-6 -1 -9 2.09 0.27
-6 -1 -9 2 0.29
6 -1 9 1.78 0.3
6 -1 9 2.1 0.2
6 -1 9 2.03 0.22
6 1 9 1.94 0.23
6 1 9 2.03 0.35
6 1 9 2.18 0.29
6 1 9 2.72 0.72
-6 1 -9 1.98 0.24
6 1 9 2.29 0.23
-6 1 -9 2.26 0.34
6 1 9 2.06 0.22
-6 1 -9 2.32 0.2
6 1 9 2.28 0.23
6 1 9 1.89 0.22
7 -1 9 0.83 0.15
7 -1 9 0.39 0.31
-7 -1 -9 0.9 0.22
-7 -1 -9 0.93 0.16
7 -1 9 0.88 0.16
7 -1 9 0.83 0.26
-7 -1 -9 0.7 0.22
-7 -1 -9 0.82 0.23
7 1 9 0.79 0.16
7 1 9 0.86 0.18
7 1 9 0.73 0.33
-7 1 -9 0.76 0.22
7 1 9 0.69 0.26
-7 1 -9 0.74 0.23
-8 -1 -9 4.84 0.25
-8 -1 -9 4.25 0.26
-8 -1 -9 4.13 0.3
-8 1 -9 4.46 0.27
-8 1 -9 4.65 0.27
8 1 9 4.72 0.25
-8 1 -9 4.72 0.29
-8 -2 9 3.45 0.17
-8 -2 9 3.22 0.16
-8 -2 9 3.53 0.16
8 -2 -9 3 0.25
-8 -2 9 3.39 0.16
-8 -2 9 3.5 0.15
8 -2 -9 3.56 0.28
-8 2 9 3.43 0.2
-8 2 9 2.47 0.3
-8 2 9 3.45 0.21
-8 2 9 3.66 0.19
-8 2 9 2.91 0.3
-7 -2 9 2.11 0.15
-7 -2 9 2.35 0.13
-7 -2 9 2.44 0.13
7 -2 -9 2.4 0.25
-7 -2 9 2.47 0.14
-7 2 9 2.26 0.19
-7 2 9 2.66 0.19
-7 2 9 2.5 0.32
-7 2 9 2.2 0.22
-7 2 9 2.13 0.2
-7 2 9 2.3 0.36
-6 -2 9 17.63 0.79
-6 -2 9 18.69 0.8
6 -2 -9 18.86 0.88
-6 -2 9 18.08 0.79
-6 -2 9 17.26 0.8
-6 -2 9 16.1 0.83
-6 -2 9 18.08 0.79
-6 -2 9 17.39 0.81
-6 2 9 18.04 0.83
-6 2 9 17 0.84
-6 2 9 17.57 1
-6 2 9 18.48 0.99
-6 2 9 18.55 0.84
-6 2 9 18.69 0.87
5 -2 -9 9.57 0.51
-5 -2 9 9.01 0.44
-5 -2 9 9.64 0.49
-5 2 9 9.54 0.47
-5 2 9 9.41 0.5
-4 -2 9 1.7 0.17
4 -2 -9 1.63 0.2
4 -2 -9 1.4 0.19
-4 2 9 1.78 0.19
-4 2 9 1.87 0.22
-4 2 9 1.52 0.2
-4 2 9 1.71 0.16
-4 2 9 1.54 0.18
-3 -2 9 11.15 0.65
3 -2 -9 13.1 0.61
3 -2 -9 11.04 0.57
3 -2 -9 10.64 0.57
-3 -2 9 12.19 0.56
-3 2 9 10.6 0.56
-3 2 9 10.43 0.55
-3 2 9 10.91 0.59
-3 2 9 11.6 0.64
-3 2 9 10.72 0.55
-3 2 9 11.55 0.59
-3 2 9 11.48 0.61
-3 2 9 12.03 0.57
-2 -2 9 0.59 0.13
2 -2 -9 0.72 0.15
-2 -2 9 0.9 0.16
2 -2 -9 0.65 0.13
-2 -2 9 0.9 0.12
2 -2 -9 0.82 0.16
2 -2 -9 0.6 0.13
2 -2 -9 0.67 0.14
-2 2 9 0.8 0.11
-2 2 9 1.02 0.18
-2 2 9 0.82 0.14
-2 2 9 0.91 0.1
-2 2 9 0.77 0.15
-2 2 9 0.83 0.16
-1 -2 9 29.26 1.38
1 -2 -9 29.1 1.44
1 -2 -9 31.53 1.42
-1 -2 9 32.64 1.48
1 -2 -9 33.23 1.45
1 -2 -9 31 1.44
-1 -2 9 31.01 1.44
1 -2 -9 29.43 1.43
-1 -2 9 30.23 1.42
-1 2 9 31.97 1.45
-1 2 9 32.39 1.52
-1 2 9 31.42 1.43
-1 2 9 30.78 1.43
-1 2 9 31.41 1.41
-1 2 9 32.81 1.47
-1 2 9 30.82 1.41
-1 2 9 31.05 1.4
-1 2 9 32.23 1.44
0 -2 9 3.67 0.27
0 -2 -9 4.05 0.27
0 -2 -9 4 0.25
0 -2 9 4.31 0.25
0 -2 -9 3.83 0.27
0 -2 -9 4.05 0.28
0 -2 9 3.8 0.2
0 -2 -9 4.4 0.29
0 2 9 3.79 0.29
0 2 9 3.86 0.24
0 2 9 4.41 0.28
0 2 9 4.47 0.27
0 2 -9 4.28 0.24
0 2 9 4.54 0.32
0 2 9 4.02 0.24
-1 -2 -9 1.51 0.17
-1 -2 -9 1.3 0.15
-1 -2 -9 1.54 0.19
1 -2 9 1.44 0.18
-1 -2 -9 1.59 0.19
1 -2 9 1.45 0.12
1 -2 9 1.58 0.16
-1 -2 -9 1.62 0.21
1 -2 9 1.88 0.12
-1 2 -9 1.64 0.16
-1 2 -9 1.22 0.14
1 2 9 1.39 0.17
1 2 9 1.39 0.15
1 2 9 1.32 0.21
1 2 9 1.6 0.21
1 2 9 1.4 0.15
2 -2 9 9.5 0.43
-2 -2 -9 9.67 0.52
-2 -2 -9 9.4 0.51
-2 -2 -9 9.19 0.46
2 -2 9 9.44 0.42
2 -2 9 9.09 0.5
2 -2 9 8.63 0.52
2 -2 9 8.79 0.5
2 -2 9 9.47 0.47
-2 -2 -9 9.39 0.48
2 -2 9 9.21 0.47
-2 2 -9 9.63 0.51
-2 2 -9 9.12 0.48
2 2 9 8.69 0.47
2 2 9 9.06 0.46
2 2 9 9.1 0.48
2 2 9 9.49 0.51
2 2 9 9.64 0.55
2 2 9 8.52 0.51
2 2 9 9.63 0.43
-2 2 -9 8.4 0.48
3 -2 9 12.59 0.55
3 -2 9 10.41 0.59
3 -2 9 11.63 0.63
-3 -2 -9 12.28 0.6
3 -2 9 11.71 0.57
3 -2 9 11.37 0.67
-3 -2 -9 10.8 0.57
3 -2 9 11.36 0.62
-3 -2 -9 11.08 0.6
3 2 9 11.4 0.59
3 2 9 10.8 0.62
3 2 9 12.61 0.61
-3 2 -9 11.36 0.61
-3 2 -9 11.79 0.63
3 2 9 11.08 0.63
3 2 9 11.96 0.58
3 2 9 11.68 0.67
3 2 9 11.91 0.55
-4 -2 -9 14.91 0.74
4 -2 9 13.33 0.73
4 -2 9 14.36 0.7
-4 -2 -9 15.04 0.74
-4 -2 -9 15.39 0.71
4 -2 9 14.5 0.7
4 -2 9 14.68 0.78
4 2 9 14.69 0.73
4 2 9 14.22 0.78
4 2 9 15.18 0.7
-4 2 -9 15.56 0.76
-4 2 -9 13.36 0.78
4 2 9 15.11 0.73
4 2 9 14.18 0.74
4 2 9 15.51 0.83
5 -2 9 8.86 0.51
-5 -2 -9 8.96 0.56
5 -2 9 9.87 0.58
-5 -2 -9 9.36 0.45
5 -2 9 8.75 0.48
-5 -2 -9 8.39 0.51
5 -2 9 9.61 0.58
-5 -2 -9 8.33 0.55
5 -2 9 9.68 0.47
-5 -2 -9 8.27 0.49
5 -2 9 8.45 0.46
5 2 9 8.54 0.48
5 2 9 8.57 0.45
-5 2 -9 9.48 0.52
5 2 9 8.89 0.5
-5 2 -9 9.04 0.46
5 2 9 9.4 0.5
5 2 9 8.69 0.48
5 2 9 8.77 0.5
5 2 9 8.65 0.54
-6 -2 -9 0.28 0.14
6 -2 9 0.11 0.17
6 -2 9 0.25 0.11
-6 -2 -9 0.4 0.18
-6 -2 -9 0.29 0.13
6 -2 9 0.61 0.18
6 -2 9 0.39 0.18
-6 -2 -9 0.21 0.13
-6 -2 -9 0.22 0.15
6 -2 9 0.58 0.25
6 2 9 0.59 0.18
-6 2 -9 0.19 0.11
-6 2 -9 0.28 0.21
-6 2 -9 0.4 0.16
6 2 9 0.43 0.13
-7 -2 -9 -0.04 0.12
7 -2 9 -0.02 0.17
7 -2 9 0.04 0.1
-7 -2 -9 0.18 0.12
-7 -2 -9 0 0.11
-7 2 -9 0.03 0.12
7 2 9 -0.01 0.1
7 2 9 0.06 0.12
7 2 9 0.05 0.1
-7 2 -9 -0.04 0.13
7 2 9 0.08 0.2
-7 -3 9 2.35 0.12
-7 -3 9 2.41 0.12
-7 -3 9 2.31 0.12
7 -3 -9 2.5 0.22
7 -3 -9 2.33 0.25
7 -3 -9 2.05 0.22
-7 -3 9 2.31 0.11
-7 3 9 2.33 0.19
-7 3 9 2.12 0.33
-7 3 9 2.12 0.28
-7 3 9 2.31 0.21
-6 -3 9 11.75 0.55
6 -3 -9 12.71 0.73
-6 -3 9 11.87 0.54
6 -3 -9 11.1 0.63
6 -3 -9 12.79 0.67
-6 -3 9 11.96 0.55
-6 -3 9 12.36 0.55
-6 -3 9 13.01 0.55
-6 3 9 13.05 0.6
-6 3 9 12.81 0.73
-6 3 9 12.01 0.62
-6 3 9 9.56 0.66
-6 3 9 13.1 0.79
-5 -3 9 1.75 0.1
5 -3 -9 2.1 0.23
-5 -3 9 1.91 0.12
-5 -3 9 1.83 0.11
5 -3 -9 1.98 0.28
-5 -3 9 1.99 0.12
-5 -3 9 1.9 0.11
-5 3 9 2.21 0.36
-5 3 9 2.06 0.26
-5 3 9 2.18 0.24
-5 3 9 2.06 0.21
-5 3 9 2.07 0.38
4 -3 -9 3.59 0.44
4 -3 -9 3.72 0.27
-4 -3 9 3.02 0.23
-4 3 9 2.56 0.35
-4 3 9 2.93 0.2
-4 3 9 2.94 0.3
-3 -3 9 21.59 1.03
3 -3 -9 22.21 1.04
3 -3 -9 21.58 1.07
-3 3 9 22.4 1.07
-3 3 9 22.99 1.02
-3 3 9 22.13 1.11
-3 3 9 22.99 1
-3 3 9 19.44 1.01
-3 3 9 22.06 1.03
-3 3 9 20.09 1.09
2 -3 -9 26.02 1.21
2 -3 -9 27.13 1.24
-2 -3 9 25.78 1.14
-2 -3 9 24.89 1.19
-2 3 9 27.88 1.23
-2 3 9 25.94 1.23
-2 3 9 26.03 1.18
-2 3 9 26.05 1.19
-2 3 9 23.62 1.26
-2 3 9 25.4 1.24
-2 3 9 25.07 1.18
-2 3 9 24.37 1.18
1 -3 -9 26.7 1.17
1 -3 -9 23.44 1.18
-1 -3 9 23.89 1.11
-1 -3 9 24.68 1.15
-1 3 9 23.98 1.15
-1 3 9 26.46 1.2
-1 3 9 23.11 1.18
-1 3 9 26.28 1.14
-1 3 9 25.73 1.19
-1 3 9 24.91 1.14
-1 3 9 22.92 1.23
-1 3 9 25.1 1.15
0 -3 9 12.94 0.62
0 -3 -9 13.62 0.69
0 -3 9 13.09 0.65
0 -3 -9 13.04 0.65
0 -3 -9 13.58 0.64
0 -3 9 12.9 0.63
0 3 9 14.11 0.66
0 3 9 12.56 0.68
0 3 -9 12.94 0.65
0 3 9 11.9 0.64
0 3 9 12.55 0.68
0 3 9 13.8 0.72
0 3 9 13.9 0.64
-1 -3 -9 4.12 0.27
1 -3 9 3.98 0.29
1 -3 9 4.15 0.26
-1 -3 -9 3.53 0.31
-1 -3 -9 4.59 0.29
1 3 9 4.19 0.26
1 3 9 4.42 0.26
1 3 9 4.17 0.31
1 3 9 4.16 0.32
1 3 9 3.98 0.28
1 3 9 4.54 0.36
-1 3 -9 4.42 0.3
1 3 9 4.58 0.29
1 3 9 4.39 0.22
2 -3 9 5.69 0.39
2 -3 9 5.1 0.38
-2 -3 -9 6.15 0.39
2 -3 9 6.98 0.34
-2 -3 -9 6.02 0.37
-2 -3 -9 5.89 0.35
2 -3 9 6.95 0.37
2 3 9 6.13 0.35
2 3 9 6.49 0.39
2 3 9 5.99 0.45
2 3 9 5.98 0.33
2 3 9 6.84 0.42
2 3 9 6.74 0.36
-2 3 -9 5.67 0.39
2 3 9 6.35 0.37
-2 3 -9 5.87 0.36
2 3 9 5.84 0.39
3 -3 9 7.58 0.37
3 -3 9 8.64 0.45
-3 -3 -9 7.59 0.44
3 -3 9 7.41 0.36
3 -3 9 8.37 0.44
-3 -3 -9 8.4 0.41
3 -3 9 6.71 0.37
3 -3 9 7.77 0.48
-3 -3 -9 7.9 0.46
3 3 9 6.94 0.4
3 3 9 8.08 0.53
3 3 9 8.02 0.49
3 3 9 7.76 0.45
3 3 9 7.18 0.44
3 3 9 7.67 0.43
-3 3 -9 7.38 0.49
-3 3 -9 7.62 0.45
4 -3 9 24.35 1.13
4 -3 9 25.84 1.22
4 -3 9 25.25 1.12
4 -3 9 26.77 1.26
-4 -3 -9 23.07 1.2
-4 -3 -9 23.59 1.18
-4 -3 -9 23.75 1.25
-4 -3 -9 25.47 1.13
-4 -3 -9 26.13 1.17
4 3 9 23.81 1.16
4 3 9 24.97 1.19
-4 3 -9 26.06 1.2
4 3 9 24.15 1.16
4 3 9 24.84 1.14
4 3 9 23.68 1.18
4 3 9 25.71 1.23
-5 -3 -9 5.66 0.37
5 -3 9 5.42 0.44
-5 -3 -9 6.01 0.39
5 -3 9 5.44 0.3
5 -3 9 5.69 0.4
5 -3 9 5.32 0.34
-5 -3 -9 5.23 0.38
5 3 9 5.37 0.31
5 3 9 5.69 0.45
-5 3 -9 5.59 0.33
-5 3 -9 6.35 0.4
5 3 9 5.4 0.36
5 3 9 5.9 0.36
-6 -3 -9 1.86 0.23
6 -3 9 1.73 0.19
-6 -3 -9 1.68 0.24
6 -3 9 1.73 0.28
6 -3 9 1.94 0.26
-6 -3 -9 1.85 0.25
6 3 9 1.88 0.21
-6 3 -9 1.81 0.29
6 3 9 1.86 0.2
-7 -3 -9 0.22 0.11
7 -3 9 0.06 0.08
-7 -3 -9 0.19 0.09
-7 -3 -9 0.15 0.1
7 -3 9 0.17 0.13
-7 3 -9 0.31 0.12
7 3 9 0.14 0.08
7 3 9 0.16 0.09
7 -4 -9 5.32 0.3
-7 -4 9 5.65 0.24
-7 -4 9 5.09 0.23
7 -4 -9 5.44 0.32
-7 -4 9 5.02 0.23
-7 4 9 5.34 0.28
-7 4 9 4.69 0.37
6 -4 -9 2.47 0.24
-6 -4 9 2.32 0.12
-6 -4 9 2.27 0.13
-6 -4 9 2.2 0.12
6 -4 -9 2.22 0.25
-6 4 9 2.39 0.35
-6 4 9 2.52 0.2
-6 4 9 2.13 0.21
-5 -4 9 3.78 0.2
5 -4 -9 4.38 0.33
-5 -4 9 3.84 0.2
5 -4 -9 3.64 0.24
-5 -4 9 3.77 0.19
5 -4 -9 4.15 0.36
-5 -4 9 3.91 0.19
5 -4 -9 3.49 0.29
-5 4 9 4.01 0.31
-5 4 9 3.66 0.29
-5 4 9 4.01 0.27
-5 4 9 4.18 0.46
-5 4 9 3.86 0.33
4 -4 -9 3.6 0.35
-4 -4 9 3.35 0.17
-4 -4 9 3.2 0.16
-4 -4 9 3.21 0.27
4 -4 -9 3.31 0.27
-4 -4 9 3.13 0.29
-4 -4 9 3.34 0.18
-4 -4 9 3.29 0.17
4 -4 -9 3.24 0.23
4 -4 -9 3.17 0.32
-4 4 9 3.08 0.25
-4 4 9 3.3 0.27
-4 4 9 3.69 0.3
-4 4 9 3.69 0.44
-4 4 9 3 0.23
-4 4 9 3.91 0.31
-3 -4 9 32.18 1.46
-3 -4 9 31.18 1.46
-3 -4 9 33.94 1.47
3 -4 -9 32.18 1.59
3 -4 -9 35.85 1.67
-3 -4 9 32.9 1.58
-3 -4 9 34.29 1.54
-3 -4 9 33.37 1.47
3 -4 -9 33.93 1.55
-3 -4 9 31.84 1.46
3 -4 -9 33.88 1.51
-3 -4 9 35.47 1.93
-3 4 9 33.24 1.54
-3 4 9 32.28 1.7
-3 4 9 31.74 1.55
-3 4 9 33.36 1.51
-3 4 9 33.93 1.59
-3 4 9 34.21 1.53
-2 -4 9 12.97 0.62
2 -4 -9 12.36 0.64
2 -4 -9 14.37 0.7
-2 -4 9 13.73 0.69
-2 4 9 13.17 0.73
-2 4 9 14.42 0.69
-2 4 9 13.13 0.66
-2 4 9 13.48 0.68
-1 -4 9 21.53 1.04
-1 -4 9 20.47 0.99
1 -4 -9 20.71 1.04
1 -4 -9 21.17 1.05
1 -4 -9 21.78 1.01
-1 4 9 23.53 1.33
-1 4 9 23.08 1.06
-1 4 9 21.37 1.04
-1 4 9 22.55 1.11
-1 4 9 20.89 1.08
-1 4 9 22.03 1.03
0 -4 9 12.11 0.62
0 -4 -9 11.87 0.59
0 -4 -9 12.65 0.64
0 -4 -9 11.43 0.62
0 -4 9 11.66 0.58
0 4 9 12.54 0.67
0 4 -9 10.77 0.62
0 4 9 12.41 0.64
0 4 9 11.11 0.61
0 4 9 11.89 0.7
0 4 9 13.79 1.08
-1 -4 -9 1.79 0.24
-1 -4 -9 1.92 0.22
1 -4 9 2.11 0.2
-1 -4 -9 1.63 0.19
1 4 9 1.66 0.21
1 4 9 2.3 0.28
-1 4 -9 1.86 0.23
1 4 9 1.9 0.23
1 4 9 1.95 0.28
1 4 9 2.21 0.15
2 -4 9 6.88 0.4
-2 -4 -9 7.31 0.61
2 -4 9 5.72 0.42
2 -4 9 6.62 0.33
2 -4 9 6.09 0.55
-2 -4 -9 6.63 0.41
-2 -4 -9 7.43 0.37
2 -4 9 6.97 0.35
-2 -4 -9 6.74 0.41
2 -4 9 7.69 0.42
2 -4 9 6.27 0.4
2 4 9 5.79 0.43
2 4 9 5.33 0.56
2 4 9 8.35 0.47
2 4 9 6.52 0.36
2 4 9 7.65 0.47
-2 4 -9 6.94 0.42
2 4 9 7.59 0.46
2 4 9 6.78 0.43
2 4 9 7.16 0.4
2 4 9 7.1 0.42
-3 -4 -9 32.33 1.52
3 -4 9 34.66 1.61
3 -4 9 33.67 1.52
-3 -4 -9 33.87 1.48
-3 -4 -9 30.47 1.5
3 -4 9 34.34 1.48
-3 -4 -9 30.99 1.53
3 -4 9 30.21 1.53
-3 4 -9 32.48 1.59
3 4 9 36.06 1.55
3 4 9 33.55 1.48
3 4 9 32.74 1.51
-3 4 -9 31.7 1.54
3 4 9 32.95 1.52
3 4 9 32.84 1.57
3 4 9 32.88 1.51
3 4 9 30.87 1.52
3 4 9 34.54 1.57
4 -4 9 4.8 0.38
4 -4 9 5.92 0.44
4 -4 9 4.91 0.29
-4 -4 -9 5.44 0.38
-4 -4 -9 5.56 0.35
4 -4 9 5.39 0.33
-4 -4 -9 5.27 0.34
4 4 9 5.59 0.36
-4 4 -9 6 0.38
4 4 9 5.2 0.34
4 4 9 5.14 0.29
4 4 9 5.23 0.34
-4 4 -9 4.22 0.33
4 4 9 5 0.37
-5 -4 -9 7.7 0.41
5 -4 9 7.01 0.4
5 -4 9 7.05 0.37
5 -4 9 6.77 0.46
-5 -4 -9 7.44 0.42
5 4 9 7.37 0.41
5 4 9 7.19 0.4
5 4 9 7.87 0.41
-6 -4 -9 4.67 0.24
-6 -4 -9 4.43 0.26
6 -4 9 4.32 0.26
6 -4 9 4.37 0.32
6 4 9 4.3 0.44
6 4 9 4.84 0.26
6 4 9 4.64 0.27
-6 4 -9 3.92 0.32
6 -5 -9 0.45 0.14
-6 5 9 0.54 0.19
-6 5 9 0.32 0.11
5 -5 -9 2.39 0.21
-5 -5 9 2.55 0.12
5 -5 -9 1.89 0.2
-5 -5 9 2.64 0.12
-5 -5 9 1.92 0.22
-5 5 9 2.48 0.21
-5 5 9 2.82 0.33
4 -5 -9 0.17 0.12
-4 -5 9 0.2 0.04
-4 -5 9 0.15 0.04
-4 -5 9 0.13 0.14
-4 -5 9 0.09 0.04
4 -5 -9 0.09 0.12
-4 5 9 0.13 0.14
-4 5 9 0.05 0.14
-4 5 9 0.42 0.16
-4 5 9 0.25 0.26
-3 -5 9 6.83 0.71
3 -5 -9 7.44 0.44
-3 -5 9 7.56 0.47
-3 -5 9 7.72 0.35
3 -5 -9 8.38 0.4
-3 -5 9 7.58 0.44
3 -5 -9 7.77 0.47
3 -5 -9 7.99 0.51
-3 -5 9 7.89 0.36
-3 -5 9 7.87 0.37
-3 5 9 8.22 0.45
-3 5 9 8.22 0.46
-3 5 9 7.13 0.57
-3 5 9 7.96 0.42
-3 5 9 7.84 0.49
2 -5 -9 13.6 0.64
2 -5 -9 13.49 0.72
2 -5 -9 13.44 0.76
-2 -5 9 13.37 0.68
-2 -5 9 12.95 0.61
-2 -5 9 13.35 0.62
-2 -5 9 12.88 0.6
-2 -5 9 13.46 0.62
-2 -5 9 14.76 0.74
2 -5 -9 13.73 0.7
-2 -5 9 14.04 1.04
-2 -5 9 13.28 0.6
-2 5 9 13.74 0.7
-2 5 9 12.12 0.72
-2 5 9 14.48 0.69
-2 5 9 13.13 0.67
-2 5 9 13.33 0.68
-2 5 9 13.02 0.69
-1 -5 9 24.12 1.47
-1 -5 9 21.62 1
-1 -5 9 21.43 1.01
-1 -5 9 21.83 1.01
-1 -5 9 21.02 1
1 -5 -9 22.8 1.03
-1 -5 9 21.67 1.02
1 -5 -9 20.99 1.07
-1 -5 9 22.67 1.11
1 -5 -9 21.72 1.14
-1 -5 9 24.3 1.08
-1 5 9 22.62 1.08
-1 5 9 22.16 1.12
-1 5 9 23.03 1.08
-1 5 9 23.37 1.16
-1 5 9 23.65 1.17
-1 5 9 21.26 1.03
-1 5 9 23.48 1.07
-1 5 9 22.54 1.07
-1 5 9 22.28 1.08
-1 5 9 22.75 1.05
0 -5 -9 5.71 0.37
0 -5 9 6.58 0.69
0 -5 9 6 0.31
0 -5 -9 5.42 0.37
0 -5 9 5.79 0.31
0 -5 -9 6.45 0.36
0 -5 -9 6.41 0.44
0 -5 9 6.38 0.34
0 -5 9 6.25 0.3
0 -5 -9 6.19 0.33
0 5 9 5.65 0.38
0 5 9 5.61 0.36
0 5 9 6.15 0.44
0 5 9 6.61 0.38
0 5 9 6.08 0.39
0 5 9 6.48 0.4
0 5 9 5.7 0.68
0 5 9 5.85 0.36
0 5 9 6.19 0.38
0 5 9 5.4 0.42
-1 -5 -9 0.19 0.18
-1 -5 -9 0.28 0.09
1 -5 9 0.36 0.19
1 -5 9 0.47 0.11
1 -5 9 0.51 0.11
-1 -5 -9 0.29 0.15
1 -5 9 0.2 0.32
-1 -5 -9 0.45 0.15
1 -5 9 0.5 0.12
1 -5 9 0.6 0.14
1 5 9 0.29 0.13
1 5 9 0.23 0.14
1 5 9 0.41 0.14
1 5 9 0.18 0.44
1 5 9 0.43 0.14
1 5 9 0.28 0.18
1 5 9 0.11 0.15
1 5 9 0.36 0.12
1 5 9 0.49 0.16
1 5 9 0.4 0.18
-2 -5 -9 7.5 0.46
-2 -5 -9 6.71 0.51
2 -5 9 8.21 0.53
-2 -5 -9 7.55 0.46
2 -5 9 7.67 0.4
2 -5 9 8.13 0.4
2 -5 9 7.63 0.39
2 -5 9 7.94 0.44
-2 5 -9 7.8 0.51
2 5 9 7.95 0.45
2 5 9 8.31 0.49
2 5 9 7.93 0.44
-2 5 -9 8.12 0.46
2 5 9 7.86 0.45
2 5 9 8.12 0.51
2 5 9 7.78 0.44
-3 -5 -9 3.85 0.25
-3 -5 -9 3.95 0.31
3 -5 9 3.61 0.28
3 -5 9 3.99 0.23
-3 -5 -9 3.82 0.31
3 -5 9 4.2 0.36
-3 5 -9 4.05 0.36
3 5 9 4.02 0.28
3 5 9 3.87 0.28
3 5 9 3.48 0.29
-3 5 -9 2.91 0.36
3 5 9 3.68 0.33
3 5 9 3.43 0.27
-4 -5 -9 0.94 0.16
4 -5 9 0.97 0.24
4 -5 9 0.92 0.13
-4 -5 -9 1.07 0.19
-4 -5 -9 1.06 0.19
4 -5 9 0.85 0.15
4 5 9 0.76 0.15
4 5 9 0.79 0.37
4 5 9 1.01 0.17
4 5 9 0.82 0.18
4 5 9 1.06 0.21
5 -5 9 16.21 0.71
5 -5 9 15.96 0.76
5 -5 9 14.92 0.69
-5 -5 -9 16.27 0.71
5 5 9 12.63 0.73
5 5 9 14.68 0.71
5 5 9 15.77 0.7
4 -6 -9 0.54 0.12
-4 -6 9 0.43 0.03
-4 -6 9 0.34 0.11
4 -6 -9 0.37 0.1
-4 6 9 0.25 0.1
-3 -6 9 2.52 0.12
-3 -6 9 2.38 0.12
3 -6 -9 2.6 0.19
3 -6 -9 2.47 0.2
-3 -6 9 1.66 0.38
-3 -6 9 2.49 0.23
-3 -6 9 2.46 0.12
-3 6 9 2.12 0.19
-2 -6 9 4.34 0.52
-2 -6 9 3.48 0.17
2 -6 -9 3.42 0.24
-2 -6 9 3.54 0.18
-2 -6 9 3.2 0.27
-2 -6 9 3.52 0.18
2 -6 -9 3.52 0.25
-2 6 9 3.64 0.26
-2 6 9 3.24 0.24
1 -6 -9 2.31 0.23
-1 -6 9 2.31 0.15
-1 -6 9 2.79 0.15
-1 -6 9 1.53 0.42
-1 -6 9 2.48 0.13
-1 -6 9 2.41 0.14
1 -6 -9 2.37 0.18
1 -6 -9 2.47 0.22
-1 6 9 2.49 0.22
-1 6 9 2.44 0.22
-1 6 9 2.11 0.19
0 -6 -9 1.66 0.2
0 -6 9 1.7 0.13
0 -6 -9 1.47 0.21
0 -6 9 1.38 0.38
0 -6 9 1.61 0.13
0 -6 -9 1.54 0.15
0 -6 9 1.53 0.11
0 6 9 1.86 0.2
0 6 9 1.57 0.16
0 6 9 1.82 0.21
0 6 9 1.58 0.18
-1 -6 -9 4.24 0.28
1 -6 9 3.92 0.22
-1 -6 -9 3.95 0.28
1 -6 9 4.44 0.22
1 -6 9 4.36 0.23
-1 -6 -9 4.75 0.28
1 -6 9 4.12 0.33
1 6 9 4.5 0.29
1 6 9 4.24 0.26
1 6 9 3.71 0.31
-1 6 -9 4.13 0.32
1 6 9 3.85 0.28
1 6 9 4 0.27
-2 -6 -9 5.38 0.61
2 -6 9 5.18 0.27
2 -6 9 5.09 0.26
-2 -6 -9 4.65 0.28
2 -6 9 4.73 0.26
2 -6 9 5.19 0.36
-2 -6 -9 5.44 0.31
-2 6 -9 5.24 0.36
2 6 9 5.47 0.35
2 6 9 5.08 0.28
2 6 9 5.16 0.31
2 6 9 4.96 0.3
2 6 9 4.98 0.31
3 -6 9 0.44 0.08
3 -6 9 0.25 0.13
3 -6 9 0.52 0.1
-3 -6 -9 0.53 0.11
3 -6 9 0.36 0.09
3 -6 9 0.45 0.11
-3 -6 -9 0.68 0.13
3 6 9 0.48 0.12
3 6 9 0.39 0.12
3 6 9 0.61 0.17
3 6 9 0.45 0.11
3 6 9 0.55 0.13
-8 0 10 -0.05 0.16
-8 0 10 0.03 0.04
-8 0 10 0.06 0.06
-8 0 10 -0.03 0.05
-8 0 10 0.01 0.05
-7 0 10 0.36 0.09
-7 0 10 0.26 0.08
-7 0 10 0.36 0.2
-7 0 10 0.33 0.07
-7 0 10 0.29 0.08
-7 0 10 0.39 0.09
-6 0 10 19.24 0.94
-6 0 10 20.51 0.93
-6 0 10 20.32 0.93
-6 0 10 22.46 1.1
-6 0 10 21.42 0.95
-6 0 10 20.75 0.94
-6 0 10 20.13 1.01
-5 0 10 35.18 1.65
-5 0 10 33.44 1.56
-5 0 10 33.3 1.52
-4 0 10 1 0.22
-4 0 10 1.12 0.16
-4 0 10 1.09 0.12
-3 0 10 1.07 0.2
-3 0 10 0.8 0.1
-2 0 10 6.28 0.41
1 0 -10 3.61 0.21
-1 0 10 3.81 0.18
-1 0 10 3.58 0.27
-1 0 10 3.57 0.2
0 0 -10 8.08 0.39
0 0 10 7.61 0.35
0 0 10 7.79 0.38
0 0 10 7.14 0.37
0 0 10 7.3 0.39
0 0 10 7.01 0.43
0 0 -10 7.64 0.39
0 0 10 7.44 0.35
0 0 -10 7.26 0.39
0 0 10 8.82 0.37
1 0 10 91.24 4.07
-1 0 -10 90.99 4.08
1 0 10 96.63 4.1
1 0 10 91.97 4.05
-1 0 -10 91.32 4.08
1 0 10 89.34 4.08
-1 0 -10 89.08 4.08
1 0 10 91.29 4.03
1 0 10 94.74 4.09
-1 0 -10 95.38 4.09
-2 0 -10 0.66 0.12
-2 0 -10 0.85 0.15
-2 0 -10 0.87 0.14
2 0 10 0.72 0.14
2 0 10 0.97 0.12
2 0 10 0.83 0.17
2 0 10 0.85 0.18
2 0 10 0.88 0.14
2 0 10 0.98 0.13
2 0 10 0.91 0.19
-2 0 -10 0.62 0.16
2 0 10 0.91 0.2
-2 0 -10 1.01 0.15
2 0 10 0.99 0.14
-2 0 -10 1.25 0.16
3 0 10 7.16 0.46
3 0 10 8.85 0.43
3 0 10 8.61 0.49
-3 0 -10 8.69 0.45
3 0 10 8.38 0.43
3 0 10 8.88 0.53
3 0 10 8.17 0.48
-3 0 -10 8.2 0.49
4 0 10 3.31 0.25
-4 0 -10 3.52 0.29
4 0 10 3.37 0.31
4 0 10 3.52 0.24
4 0 10 3.55 0.3
-4 0 -10 3.09 0.23
-4 0 -10 3.29 0.32
5 0 10 5.77 0.37
5 0 10 6.24 0.43
-5 0 -10 5.48 0.39
-5 0 -10 6.28 0.39
5 0 10 5.82 0.48
-5 0 -10 6.39 0.52
-5 0 -10 6.51 0.36
5 0 10 6.25 0.35
5 0 10 5.74 0.35
5 0 10 5.97 0.36
6 0 10 6.42 0.35
6 0 10 5.82 0.46
-6 0 -10 5.43 0.32
6 0 10 5.65 0.36
6 0 10 5.26 0.33
-6 0 -10 5.39 0.44
-6 0 -10 5.1 0.37
-6 0 -10 5.95 0.43
6 0 10 5.2 0.41
7 0 10 1.16 0.27
-7 0 -10 1.11 0.21
-7 0 -10 1.17 0.2
7 0 10 1.12 0.15
-7 0 -10 1.39 0.23
7 0 10 1.37 0.21
-8 -1 10 2.81 0.15
-8 -1 10 2.9 0.15
-8 -1 10 3.06 0.14
8 -1 -10 3.19 0.24
-8 -1 10 2.83 0.14
-8 -1 10 3.03 0.14
-8 1 10 2.98 0.18
-8 1 10 3.16 0.16
-8 1 10 2.98 0.18
-8 1 10 2.48 0.29
-7 -1 10 2.29 0.13
-7 -1 10 2.45 0.15
-7 -1 10 2.61 0.14
-7 -1 10 2.35 0.13
-7 1 10 2.74 0.19
-7 1 10 2.98 0.35
-7 1 10 2.39 0.17
-7 1 10 2.61 0.19
-7 1 10 2.36 0.2
-6 -1 10 13.55 0.61
-6 -1 10 13.48 0.6
-6 -1 10 13.45 0.62
-6 -1 10 13.18 0.61
-6 -1 10 13.93 0.62
-6 -1 10 12.99 0.61
-6 1 10 14.04 0.66
-6 1 10 13.94 0.65
-6 1 10 13.81 0.79
-6 1 10 13.78 0.64
-6 1 10 13.45 0.63
5 -1 -10 59.62 2.54
-5 -1 10 53.14 2.46
-5 -1 10 56.29 2.41
-5 -1 10 50.44 2.55
-5 1 10 54.28 2.46
-5 1 10 55.7 2.45
4 -1 -10 14.29 0.78
-4 -1 10 16.04 0.77
-4 -1 10 16.71 0.86
-4 1 10 16.08 0.75
-4 1 10 16.94 0.86
-3 -1 10 10.27 0.61
-3 -1 10 10.82 0.52
3 -1 -10 11.38 0.54
-3 1 10 10.82 0.61
-3 1 10 9.58 0.53
-3 1 10 10.03 0.51
-2 -1 10 16.73 0.86
2 -1 -10 15.98 0.79
2 -1 -10 17.45 0.8
-2 -1 10 15.82 0.79
2 -1 -10 16.52 0.78
-2 -1 10 16.76 0.77
-2 1 10 15.74 0.76
-2 1 10 15.74 0.75
-2 1 10 16.85 0.79
-2 1 10 17.57 0.76
-2 1 10 17.73 0.87
1 -1 -10 14.18 0.66
1 -1 -10 13.8 0.66
1 -1 -10 13.96 0.67
-1 -1 10 13.42 0.71
-1 -1 10 13.47 0.63
1 -1 -10 13.97 0.67
-1 -1 10 14.25 0.68
-1 1 10 12.84 0.66
-1 1 10 13.25 0.72
-1 1 10 13.55 0.64
-1 1 10 14.01 0.64
-1 1 10 13.82 0.66
0 -1 10 35.32 1.68
0 -1 -10 38.44 1.68
0 -1 -10 36.93 1.68
0 -1 -10 38.86 1.68
0 -1 10 35.54 1.62
0 -1 -10 38.04 1.68
0 1 10 40.7 1.68
0 1 10 36.01 1.72
0 1 10 36.89 1.69
0 1 10 36.28 1.66
0 1 10 35.06 1.66
0 1 -10 37.85 1.66
0 1 10 34.55 1.63
0 1 10 35.88 1.65
1 -1 10 63.1 2.67
-1 -1 -10 61.46 2.72
-1 -1 -10 57.35 2.68
1 -1 10 65.86 2.67
-1 -1 -10 63.5 2.72
-1 -1 -10 60.68 2.71
1 -1 10 62.19 2.69
1 -1 10 65.3 2.66
1 -1 10 55.94 2.71
1 1 10 56.21 2.7
-1 1 -10 54.28 2.68
1 1 10 59.55 2.67
1 1 10 57.38 2.67
1 1 10 59.25 2.73
-1 1 -10 58.11 2.7
1 1 10 62.06 2.68
1 1 10 60.1 2.69
-1 1 -10 62.23 2.7
1 1 10 62.85 2.71
2 -1 10 3.42 0.26
2 -1 10 3.2 0.23
-2 -1 -10 3.09 0.25
2 -1 10 3.35 0.28
-2 -1 -10 2.66 0.24
2 -1 10 2.93 0.19
2 -1 10 2.84 0.23
-2 -1 -10 2.83 0.22
2 -1 10 3.18 0.18
2 -1 10 2.98 0.17
2 -1 10 2.87 0.22
2 1 10 3.11 0.22
-2 1 -10 3.34 0.26
-2 1 -10 3.01 0.23
2 1 10 3.36 0.25
-2 1 -10 3.03 0.24
2 1 10 3.25 0.29
2 1 10 3.51 0.26
2 1 10 3.23 0.26
2 1 10 2.93 0.21
3 -1 10 0.51 0.22
3 -1 10 0.25 0.09
3 -1 10 0.16 0.09
3 -1 10 0.2 0.13
-3 -1 -10 0.28 0.13
3 -1 10 0.17 0.16
-3 -1 -10 0.21 0.11
3 -1 10 0.35 0.13
-3 -1 -10 0.66 0.18
3 -1 10 0.31 0.09
3 1 10 0.27 0.14
-3 1 -10 0.28 0.12
3 1 10 0.73 0.25
-3 1 -10 0.12 0.13
3 1 10 0.11 0.12
3 1 10 0.47 0.12
3 1 10 0.31 0.14
3 1 10 0.23 0.11
4 -1 10 14.08 0.72
-4 -1 -10 15.29 0.76
4 -1 10 15.8 0.79
-4 -1 -10 15.54 0.72
4 -1 10 15.14 0.71
-4 -1 -10 15.3 0.75
4 -1 10 12.97 0.74
4 1 10 16.08 0.75
4 1 10 12.41 1.01
4 1 10 14.24 0.8
4 1 10 15.68 0.74
4 1 10 15.72 0.8
-4 1 -10 17.12 0.77
-5 -1 -10 2.95 0.29
-5 -1 -10 3.08 0.32
5 -1 10 2.78 0.22
5 -1 10 3.18 0.32
5 -1 10 3.23 0.34
-5 -1 -10 2.81 0.24
-5 -1 -10 2.88 0.36
5 -1 10 3.24 0.25
5 -1 10 3.07 0.23
-5 -1 -10 3.2 0.28
-5 1 -10 2.94 0.28
5 1 10 2.75 0.23
5 1 10 3.61 0.33
-5 1 -10 3.16 0.29
5 1 10 2.86 0.25
-5 1 -10 3.41 0.41
5 1 10 2.16 0.46
5 1 10 3.08 0.26
5 1 10 3.07 0.28
5 1 10 2.69 0.34
5 1 10 3.07 0.25
-5 1 -10 3.29 0.24
6 -1 10 6.39 0.48
6 -1 10 6.57 0.36
6 -1 10 7.06 0.39
-6 -1 -10 6.25 0.34
-6 -1 -10 6.46 0.46
6 -1 10 6.4 0.44
-6 -1 -10 6.07 0.41
-6 -1 -10 6.25 0.42
-6 1 -10 6.64 0.42
-6 1 -10 6.71 0.36
6 1 10 6.59 0.37
6 1 10 6.02 0.38
6 1 10 5.97 0.43
-6 1 -10 6.02 0.47
6 1 10 6.82 0.38
6 1 10 6.54 0.35
6 1 10 5.59 0.43
6 1 10 5.69 0.41
6 1 10 7.01 0.5
-7 -1 -10 0.23 0.14
7 -1 10 0.18 0.17
7 -1 10 0.05 0.1
-7 -1 -10 0.25 0.13
-7 -1 -10 0.23 0.13
7 1 10 0.12 0.1
-7 1 -10 0.14 0.13
-7 1 -10 0.28 0.13
-7 1 -10 0.07 0.12
8 -2 -10 1.94 0.17
-8 -2 10 1.59 0.08
-8 -2 10 1.54 0.11
8 -2 -10 1.59 0.19
-8 2 10 1.5 0.13
-8 2 10 1.84 0.24
-8 2 10 1.63 0.13
-8 2 10 1.54 0.11
-7 -2 10 4.88 0.24
-7 -2 10 5.08 0.23
-7 -2 10 5.01 0.27
-7 -2 10 5.09 0.24
7 -2 -10 5.18 0.34
-7 -2 10 4.95 0.23
-7 -2 10 5.42 0.24
-7 2 10 5.23 0.29
-7 2 10 5.45 0.29
-7 2 10 4.98 0.4
-7 2 10 4.94 0.43
-7 2 10 4.99 0.27
-6 -2 10 1.22 0.1
-6 -2 10 1.27 0.09
-6 -2 10 1.31 0.1
-6 -2 10 1.25 0.08
-6 -2 10 1.44 0.08
-6 2 10 1.39 0.18
-6 2 10 1.14 0.15
-6 2 10 1.18 0.17
-6 2 10 1.04 0.31
-6 2 10 1.13 0.33
-6 2 10 1.39 0.15
-5 -2 10 7.1 0.31
-5 -2 10 6.65 0.31
-5 -2 10 7.28 0.39
-5 -2 10 6.66 0.32
-5 -2 10 7.11 0.32
-5 2 10 6.96 0.37
-5 2 10 7.02 0.37
-5 2 10 6.87 0.39
-5 2 10 6.91 0.56
-5 2 10 6.53 0.37
-5 2 10 7.04 0.52
-4 -2 10 25.84 1.22
4 -2 -10 28.21 1.28
4 -2 -10 25.6 1.24
-4 2 10 26.75 1.23
-4 2 10 28.3 1.2
-4 2 10 24.44 1.3
-3 -2 10 5.26 0.3
-3 -2 10 4.96 0.4
3 -2 -10 5.72 0.35
3 -2 -10 5.1 0.32
-3 2 10 5.49 0.32
-3 2 10 5.45 0.4
-3 2 10 5.13 0.33
-3 2 10 5.45 0.3
-3 2 10 4.74 0.33
-2 -2 10 8.96 0.54
2 -2 -10 8.98 0.48
2 -2 -10 8.64 0.45
-2 -2 10 8.84 0.44
2 -2 -10 9.05 0.47
-2 2 10 8.19 0.48
-2 2 10 8.89 0.45
-2 2 10 9.02 0.48
-2 2 10 8.48 0.47
-2 2 10 8.93 0.46
-2 2 10 8.25 0.53
1 -2 -10 8.89 0.47
-1 -2 10 8.66 0.42
-1 -2 10 9.22 0.43
1 -2 -10 10.08 0.51
1 -2 -10 9.43 0.5
-1 2 10 9.27 0.49
-1 2 10 9.14 0.44
-1 2 10 9.74 0.47
-1 2 10 9.73 0.53
-1 2 10 9.06 0.5
-1 2 10 9.01 0.5
0 -2 -10 5.42 0.34
0 -2 -10 5.68 0.34
0 -2 10 5.45 0.25
0 -2 10 5.4 0.25
0 -2 -10 5.24 0.31
0 -2 10 4.86 0.28
0 -2 10 5.09 0.29
0 2 10 5.53 0.33
0 2 10 5.31 0.34
0 2 -10 5.9 0.31
0 2 10 5.2 0.3
0 2 10 5.28 0.3
0 2 10 5.52 0.37
0 2 10 5.7 0.34
0 2 10 5.54 0.31
1 -2 10 18.15 0.87
-1 -2 -10 18.51 0.91
-1 -2 -10 19.13 0.93
1 -2 10 17.73 0.86
-1 -2 -10 18.91 0.89
1 -2 10 18.45 0.89
-1 2 -10 19.4 0.93
1 2 10 18.87 0.91
1 2 10 18.75 0.87
-1 2 -10 18.05 0.9
1 2 10 18.93 0.93
1 2 10 19.02 0.88
1 2 10 18.37 0.91
1 2 10 19.29 0.96
2 -2 10 14.36 0.69
2 -2 10 13.72 0.73
-2 -2 -10 14.75 0.71
-2 -2 -10 12.38 0.76
2 -2 10 14.81 0.7
2 -2 10 14.31 0.73
-2 -2 -10 14 0.74
-2 2 -10 14.06 0.71
2 2 10 14.57 0.7
2 2 10 15.65 0.72
2 2 10 14.69 0.77
-2 2 -10 14.83 0.74
2 2 10 14.51 0.74
2 2 10 12.88 0.81
2 2 10 15.88 0.75
3 -2 10 3.84 0.22
3 -2 10 4.25 0.34
3 -2 10 4.18 0.29
3 -2 10 3.59 0.28
3 -2 10 3.88 0.22
-3 -2 -10 3.83 0.28
-3 -2 -10 3.87 0.31
3 -2 10 4.15 0.22
3 -2 10 3.68 0.34
-3 -2 -10 4.09 0.26
-3 2 -10 4.14 0.3
3 2 10 3.87 0.34
3 2 10 3.94 0.28
-3 2 -10 4.08 0.31
3 2 10 3.8 0.21
3 2 10 4.21 0.33
3 2 10 3.72 0.29
3 2 10 4.4 0.75
4 -2 10 6.65 0.45
4 -2 10 7.16 0.35
4 -2 10 6.51 0.36
-4 -2 -10 6.58 0.37
-4 -2 -10 6.73 0.41
-4 -2 -10 7.14 0.42
4 2 10 6.43 0.45
-4 2 -10 6.04 0.41
4 2 10 6.52 0.41
4 2 10 6.85 0.78
4 2 10 6.91 0.41
4 2 10 6.29 0.34
5 -2 10 12.91 0.66
5 -2 10 13.29 0.76
-5 -2 -10 13.2 0.74
-5 -2 -10 12.65 0.68
-5 -2 -10 12.46 0.68
5 -2 10 12.69 0.63
-5 -2 -10 13.39 0.63
5 -2 10 13.6 0.73
-5 -2 -10 11.55 0.73
5 2 10 15.25 1.11
5 2 10 13.05 0.65
5 2 10 13.1 0.65
5 2 10 12.81 0.67
5 2 10 12.71 0.67
-5 2 -10 12.69 0.69
5 2 10 13.81 0.67
5 2 10 13.45 0.73
-5 2 -10 13.77 0.65
-6 -2 -10 0.25 0.15
6 -2 10 0.44 0.16
-6 -2 -10 0.31 0.16
-6 -2 -10 0.74 0.17
6 -2 10 0.46 0.22
-6 -2 -10 0.32 0.16
6 -2 10 0.33 0.17
6 2 10 0.46 0.27
6 2 10 0.47 0.19
6 2 10 0.39 0.24
6 2 10 0.21 0.18
6 2 10 0.49 0.12
-6 2 -10 0.36 0.21
6 2 10 0.35 0.12
-7 -2 -10 3.41 0.23
-7 -2 -10 3.22 0.23
7 -2 10 2.18 0.19
-7 -2 -10 2.3 0.24
7 -2 10 2.17 0.26
7 2 10 3.06 0.19
-7 2 -10 2.67 0.21
-7 2 -10 2.3 0.23
-7 -3 10 0.55 0.06
-7 -3 10 0.63 0.04
7 -3 -10 0.61 0.16
-7 -3 10 0.49 0.05
7 -3 -10 0.59 0.17
7 -3 -10 0.37 0.14
-7 3 10 0.41 0.18
-7 3 10 0.51 0.13
-7 3 10 0.55 0.24
-7 3 10 0.77 0.13
-7 3 10 0.65 0.11
-6 -3 10 10.9 0.47
6 -3 -10 11.14 0.59
-6 -3 10 10.83 0.47
6 -3 -10 10.5 0.64
-6 -3 10 10.5 0.48
-6 3 10 10.8 0.65
-6 3 10 10.88 0.7
-6 3 10 10.26 0.53
-6 3 10 10.28 0.55
-5 -3 10 13.63 0.6
5 -3 -10 14.25 0.75
5 -3 -10 13.61 0.7
-5 -3 10 13.03 0.6
-5 -3 10 13.81 0.6
-5 -3 10 13.71 0.61
-5 3 10 13.73 0.74
-5 3 10 13.83 0.8
-5 3 10 13.34 0.66
-5 3 10 13.82 0.69
-5 3 10 13.7 0.85
-4 -3 10 2.64 0.22
-4 -3 10 2.25 0.11
4 -3 -10 2.12 0.29
-4 -3 10 2.35 0.12
-4 -3 10 2.23 0.47
4 -3 -10 2.62 0.24
-4 -3 10 2.29 0.11
-4 3 10 2.39 0.44
-4 3 10 2.36 0.23
-4 3 10 2.68 0.26
-4 3 10 2.29 0.35
-4 3 10 2.04 0.21
3 -3 -10 2.27 0.22
3 -3 -10 2.17 0.24
-3 3 10 2.38 0.24
-3 3 10 1.65 0.2
-3 3 10 2.06 0.27
-3 3 10 1.94 0.22
-3 3 10 1.84 0.16
2 -3 -10 3.96 0.28
2 -3 -10 3.69 0.29
-2 -3 10 3.74 0.26
-2 3 10 2.82 0.23
-2 3 10 4.11 0.25
-2 3 10 3.62 0.22
-2 3 10 3.94 0.29
-2 3 10 3.22 0.32
1 -3 -10 47.91 2.09
1 -3 -10 46.69 2.13
-1 -3 10 45.98 2.09
-1 -3 10 45.82 2.03
-1 3 10 45.6 2.08
-1 3 10 45.91 2.12
-1 3 10 40.16 2.06
-1 3 10 49.47 2.07
-1 3 10 47.06 2.17
0 -3 -10 26.61 1.25
0 -3 10 25.23 1.14
0 -3 10 24.23 1.17
0 -3 10 26.25 1.18
0 -3 10 25.84 1.21
0 -3 -10 25.69 1.21
0 3 10 24.9 1.29
0 3 -10 26.36 1.21
0 3 10 26.56 1.2
0 3 10 26.57 1.25
0 3 10 25.4 1.25
0 3 10 24.82 1.24
0 3 10 26.61 1.19
0 3 10 27.61 1.21
-1 -3 -10 2.99 0.24
-1 -3 -10 3.25 0.25
-1 -3 -10 3.57 0.28
1 -3 10 3.18 0.25
1 -3 10 3.06 0.23
1 3 10 3.71 0.31
-1 3 -10 3.45 0.26
1 3 10 3.32 0.25
1 3 10 2.96 0.29
1 3 10 3.25 0.25
-2 -3 -10 5.14 0.33
2 -3 10 5.45 0.32
2 -3 10 5.52 0.27
2 -3 10 5.78 0.34
-2 -3 -10 5.03 0.35
-2 -3 -10 5.28 0.37
2 3 10 5.22 0.4
2 3 10 5.12 0.34
2 3 10 6.64 0.67
2 3 10 5.29 0.35
-2 3 -10 4.59 0.36
2 3 10 4.97 0.41
3 -3 10 1.01 0.2
3 -3 10 1.17 0.23
-3 -3 -10 1.02 0.18
-3 -3 -10 1.14 0.23
-3 -3 -10 1.08 0.19
3 -3 10 1.12 0.17
3 3 10 1.06 0.14
3 3 10 1.37 0.19
3 3 10 1.42 0.2
3 3 10 1.26 0.53
3 3 10 1.23 0.24
-3 3 -10 1.2 0.22
4 -3 10 1.5 0.31
-4 -3 -10 1.44 0.21
4 -3 10 1.28 0.16
-4 -3 -10 1.18 0.17
-4 -3 -10 1.1 0.24
-4 -3 -10 1.36 0.27
4 -3 10 1.47 0.26
4 3 10 1.53 0.54
4 3 10 1.22 0.2
4 3 10 1.76 0.25
4 3 10 1.2 0.25
-4 3 -10 1.27 0.23
4 3 10 1.35 0.21
4 3 10 1.46 0.22
4 3 10 1.38 0.22
-5 -3 -10 19.3 0.95
5 -3 10 20.13 0.91
5 -3 10 19.05 0.98
-5 -3 -10 19.78 0.96
5 -3 10 20.82 1.02
-5 -3 -10 17.94 1.02
5 -3 10 21.42 0.94
5 3 10 21.08 0.95
5 3 10 18.94 0.99
5 3 10 19.37 0.94
5 3 10 19.92 0.92
-5 3 -10 20.08 0.98
5 3 10 18.11 0.94
6 -3 10 1.48 0.25
-6 -3 -10 1.7 0.22
-6 -3 -10 1.74 0.22
6 -3 10 1.86 0.18
-6 -3 -10 1.72 0.21
6 3 10 1.72 0.17
6 3 10 1.75 0.19
-6 3 -10 1.42 0.26
-7 -3 -10 0.52 0.12
7 -3 10 0.16 0.13
7 -3 10 0.22 0.11
7 3 10 0.45 0.1
6 -4 -10 0.29 0.15
-6 -4 10 0.26 0.05
6 -4 -10 0.37 0.15
6 -4 -10 0.19 0.11
-6 4 10 0.07 0.09
-6 4 10 0.01 0.11
-6 4 10 0.2 0.22
-5 -4 10 3.02 0.16
-5 -4 10 3.13 0.15
5 -4 -10 3.29 0.32
-5 -4 10 3.21 0.15
5 -4 -10 3.21 0.29
-5 4 10 3.36 0.28
-5 4 10 2.76 0.27
-5 4 10 3.08 0.24
-5 4 10 3.34 0.42
-5 4 10 3.59 0.26
4 -4 -10 0.56 0.15
4 -4 -10 0.72 0.24
4 -4 -10 0.68 0.11
-4 -4 10 0.43 0.45
-4 -4 10 0.5 0.06
-4 -4 10 0.44 0.05
4 -4 -10 0.6 0.23
-4 -4 10 0.5 0.06
-4 4 10 0.28 0.15
-4 4 10 0.46 0.12
-4 4 10 0.34 0.15
-4 4 10 0.63 0.21
-4 4 10 0.67 0.33
-4 4 10 0.61 0.24
3 -4 -10 7.62 0.43
-3 -4 10 7.09 0.33
-3 -4 10 8.28 0.8
3 -4 -10 7.29 0.53
-3 -4 10 7.26 0.33
3 -4 -10 6.89 0.38
-3 -4 10 7.51 0.43
3 -4 -10 7.22 0.48
-3 -4 10 7.02 0.34
-3 -4 10 7.01 0.33
-3 -4 10 6.92 0.45
-3 4 10 6.88 0.43
-3 4 10 7.72 0.54
-3 4 10 7.32 0.44
-3 4 10 7.72 0.43
-3 4 10 6.89 0.4
-3 4 10 7.49 0.39
-3 4 10 7 0.61
-3 4 10 8.1 0.48
2 -4 -10 28.46 1.44
-2 -4 10 29.27 1.32
2 -4 -10 28.65 1.38
-2 -4 10 29.18 1.35
-2 -4 10 25.52 1.23
-2 -4 10 27.43 1.24
-2 -4 10 27.31 1.23
2 -4 -10 28.72 1.28
-2 -4 10 27 1.24
2 -4 -10 28 1.32
-2 -4 10 31.32 1.73
-2 4 10 26.43 1.3
-2 4 10 31.06 1.37
-2 4 10 28.59 1.32
-2 4 10 27.58 1.46
-2 4 10 31.05 1.29
-2 4 10 27.05 1.3
-2 4 10 26.97 1.39
-2 4 10 25.79 1.32
-2 4 10 27.13 1.32
-1 -4 10 3.64 0.22
-1 -4 10 4.03 0.25
-1 -4 10 2.81 0.63
-1 -4 10 4.16 0.29
1 -4 -10 4.22 0.26
1 -4 -10 2.9 0.47
1 -4 -10 3.51 0.3
1 -4 -10 4.27 0.56
-1 -4 10 4.36 0.39
-1 4 10 4.71 0.38
-1 4 10 3.59 0.71
-1 4 10 3.88 0.35
-1 4 10 3.83 0.27
-1 4 10 3.83 0.27
0 -4 -10 3.54 0.29
0 -4 -10 3.31 0.26
0 -4 -10 2.94 0.23
0 -4 10 3.23 0.21
0 4 10 3.18 0.23
0 4 10 2.62 0.2
0 4 10 3.12 0.24
0 4 10 3.12 0.31
0 4 10 4.47 0.53
0 4 10 3.5 0.26
0 4 10 3.13 0.26
1 -4 10 1.68 0.14
1 -4 10 1.67 0.15
1 -4 10 1.71 0.2
-1 -4 -10 2.16 0.24
-1 -4 -10 2.07 0.23
-1 -4 -10 2.05 0.32
1 -4 10 1.58 0.15
-1 -4 -10 1.75 0.19
-1 -4 -10 1.97 0.29
1 4 10 1.32 0.21
1 4 10 1.75 0.2
1 4 10 1.71 0.22
1 4 10 1.77 0.22
1 4 10 1.52 0.42
1 4 10 2.03 0.26
1 4 10 1.7 0.26
1 4 10 1.38 0.22
1 4 10 1.95 0.31
2 -4 10 9.44 0.48
-2 -4 -10 9.04 0.53
2 -4 10 9.34 0.47
2 -4 10 9.59 0.52
2 -4 10 9.44 0.47
-2 -4 -10 10.52 0.64
-2 -4 -10 10.31 0.63
-2 -4 -10 10.31 0.49
-2 -4 -10 10.4 0.54
2 -4 10 9.72 0.61
2 4 10 9.63 0.53
2 4 10 9.74 0.53
2 4 10 10.09 0.59
2 4 10 10.12 0.55
2 4 10 9.23 0.51
2 4 10 9.54 0.57
2 4 10 9.59 0.52
2 4 10 8.87 0.54
-3 -4 -10 2.15 0.25
3 -4 10 2.25 0.29
3 -4 10 1.82 0.17
3 -4 10 2.02 0.18
3 -4 10 2.38 0.24
-3 -4 -10 2.22 0.27
-3 -4 -10 2.26 0.18
3 4 10 1.67 0.23
-3 4 -10 2.3 0.25
3 4 10 2.09 0.27
3 4 10 2.23 0.24
3 4 10 2.91 0.54
3 4 10 1.96 0.23
3 4 10 1.69 0.26
3 4 10 1.71 0.24
3 4 10 1.9 0.22
4 -4 10 19.39 0.96
4 -4 10 19.13 0.88
-4 -4 -10 17.02 0.87
-4 -4 -10 18.44 0.89
4 -4 10 16.53 0.89
4 -4 10 19.11 0.85
-4 -4 -10 18.62 0.89
4 4 10 15.4 0.95
4 4 10 18.61 0.87
4 4 10 18.66 0.88
4 4 10 20.43 0.92
4 4 10 17.41 0.92
4 4 10 20.14 1.25
-4 4 -10 18.03 0.91
4 4 10 17.89 0.93
5 -4 10 11.99 0.58
5 -4 10 10.01 0.63
-5 -4 -10 12.94 0.59
-5 -4 -10 11.74 0.59
5 -4 10 12.32 0.56
5 4 10 11.71 0.58
5 4 10 11.68 0.71
5 4 10 12.25 0.57
5 4 10 11.5 0.71
6 -4 10 4.64 0.3
-6 -4 -10 4.09 0.24
6 -4 10 4.49 0.24
-6 -4 -10 3.9 0.24
6 4 10 3.54 0.22
6 4 10 4.57 0.24
5 -5 -10 7.6 0.41
5 -5 -10 6.09 0.39
-5 -5 10 8.28 0.33
-5 5 10 7.16 0.39
-5 5 10 7.56 0.48
-4 -5 10 5.52 0.36
4 -5 -10 4.54 0.34
-4 -5 10 5.84 0.25
-4 -5 10 5.64 0.25
-4 -5 10 5.64 0.26
4 -5 -10 4.96 0.37
-4 5 10 6.21 0.36
-4 5 10 5.51 0.33
-4 5 10 5.96 0.46
-3 -5 10 9.62 0.53
-3 -5 10 9.33 0.41
3 -5 -10 8.63 0.55
-3 -5 10 9.44 0.41
-3 -5 10 9.51 0.4
3 -5 -10 8.5 0.52
-3 -5 10 7.72 0.76
-3 -5 10 9.43 0.41
-3 5 10 8.82 0.48
-3 5 10 9.93 0.51
-3 5 10 7.69 0.59
2 -5 -10 2.34 0.27
-2 -5 10 2.57 0.51
-2 -5 10 2.62 0.13
-2 -5 10 2.66 0.27
-2 -5 10 2.54 0.15
-2 -5 10 2.58 0.14
-2 -5 10 3.06 0.25
2 -5 -10 2.5 0.19
2 -5 -10 3.01 0.25
2 -5 -10 2.41 0.29
-2 5 10 2.7 0.25
-2 5 10 2.69 0.3
-2 5 10 2.4 0.25
-2 5 10 2.11 0.21
-2 5 10 2.74 0.27
-2 5 10 2.54 0.39
1 -5 -10 0.93 0.22
1 -5 -10 1.37 0.2
-1 -5 10 1.05 0.1
1 -5 -10 1.1 0.23
-1 -5 10 1.15 0.18
-1 -5 10 0.91 0.08
-1 -5 10 0.96 0.09
-1 -5 10 1 0.22
-1 -5 10 1.01 0.08
1 -5 -10 0.99 0.16
-1 -5 10 0.98 0.11
-1 -5 10 0.94 0.43
-1 5 10 1.2 0.2
-1 5 10 0.86 0.23
-1 5 10 1.48 0.21
-1 5 10 1.11 0.21
-1 5 10 0.96 0.17
0 -5 10 4.74 0.25
0 -5 -10 4.73 0.28
0 -5 -10 4.8 0.33
0 -5 -10 4.19 0.37
0 -5 -10 5.43 0.36
0 -5 10 4.91 0.25
0 -5 10 4.75 0.6
0 -5 10 4.22 0.27
0 -5 10 4.86 0.25
0 -5 10 4.67 0.27
0 5 10 5.48 0.4
0 5 10 5.25 0.32
0 5 10 4.55 0.31
0 5 10 5.1 0.35
0 5 10 5.15 0.38
0 5 10 5.03 0.35
0 5 10 4.71 0.33
-1 -5 -10 14.43 0.7
-1 -5 -10 14.06 0.73
1 -5 10 14.63 0.67
1 -5 10 12.59 0.98
-1 -5 -10 14.54 0.75
1 -5 10 15.62 0.67
1 -5 10 15.5 0.7
1 -5 10 15.81 0.68
1 5 10 13.98 0.69
1 5 10 14.66 0.74
1 5 10 14.83 0.73
1 5 10 14.87 0.72
1 5 10 15.39 0.78
1 5 10 15.22 0.8
1 5 10 13.42 0.71
1 5 10 15 0.74
1 5 10 14.72 0.73
2 -5 10 6.68 0.39
2 -5 10 6.81 0.34
-2 -5 -10 6.44 0.4
-2 -5 -10 6.73 0.42
2 -5 10 6.55 0.46
2 -5 10 6.56 0.35
2 -5 10 7.31 0.36
2 5 10 6.99 0.4
2 5 10 7.56 0.38
2 5 10 6.94 0.46
2 5 10 7.04 0.61
2 5 10 6.55 0.4
-2 5 -10 7.15 0.46
2 5 10 6.78 0.57
2 5 10 7.1 0.4
2 5 10 6.57 0.51
2 5 10 6.7 0.45
2 5 10 7.29 0.4
3 -5 10 8.28 0.38
3 -5 10 7.8 0.39
3 -5 10 7.77 0.39
-3 -5 -10 7.73 0.44
-3 -5 -10 7.84 0.45
3 -5 10 7.66 0.49
3 5 10 8.33 0.54
3 5 10 8.1 0.54
3 5 10 7.67 0.43
3 5 10 7.08 0.42
3 5 10 7.23 0.42
3 5 10 8.45 0.41
3 5 10 7.9 0.48
4 -5 10 1.24 0.22
4 -5 10 1.56 0.13
4 -5 10 1.3 0.15
-4 -5 -10 1.43 0.18
-4 -5 -10 1.48 0.18
4 5 10 1.17 0.19
4 5 10 1.58 0.15
4 5 10 1.25 0.15
4 5 10 1.31 0.16
5 -5 10 0.67 0.19
-5 -5 -10 1.3 0.18
5 -5 10 0.75 0.11
5 5 10 0.96 0.17
3 -6 -10 1.43 0.16
-3 -6 10 1.53 0.07
-3 -6 10 1.27 0.3
3 -6 -10 1.49 0.15
-3 6 10 1.4 0.15
-2 -6 10 3.06 0.14
2 -6 -10 3.49 0.22
2 -6 -10 3.02 0.22
-2 -6 10 2.38 0.42
-2 -6 10 3.09 0.15
-2 -6 10 2.97 0.15
-2 6 10 2.81 0.21
-2 6 10 2.69 0.22
-1 -6 10 3.6 0.18
1 -6 -10 3.65 0.24
-1 -6 10 3.57 0.17
-1 -6 10 3.31 0.49
-1 -6 10 3.67 0.18
1 -6 -10 3.47 0.25
-1 6 10 3.34 0.24
-1 6 10 3.34 0.24
-1 6 10 3.62 0.25
0 -6 10 0.13 0.05
0 -6 -10 0.14 0.12
0 -6 10 0.16 0.05
0 -6 10 0.18 0.27
0 -6 10 0.23 0.05
0 -6 -10 0.16 0.1
0 -6 10 0.17 0.05
0 6 10 0.04 0.1
0 6 10 0.14 0.13
0 6 10 0.22 0.12
-1 -6 -10 2.48 0.22
1 -6 10 2.98 0.17
1 -6 10 2.93 0.16
1 -6 10 2.81 0.15
-1 -6 -10 2.66 0.22
-1 6 -10 2.94 0.25
1 6 10 2.9 0.21
1 6 10 2.62 0.19
1 6 10 3 0.22
1 6 10 2.79 0.25
-2 -6 -10 9.03 0.45
2 -6 10 9.28 0.43
-2 -6 -10 9.3 0.46
2 -6 10 8.71 0.49
2 6 10 10.27 0.45
2 6 10 10.02 0.47
2 6 10 7.86 0.46
3 -6 10 0.29 0.07
-3 -6 -10 0.18 0.11
3 6 10 0.31 0.12
-8 0 11 2.42 0.12
-8 0 11 2.33 0.13
-8 0 11 2.4 0.12
-8 0 11 1.66 0.23
-8 0 11 2.32 0.11
-8 0 11 2.45 0.11
-7 0 11 2.94 0.17
-7 0 11 2.81 0.15
-7 0 11 3.14 0.16
-7 0 11 2.81 0.32
-7 0 11 2.86 0.15
-6 0 11 7.95 0.37
-6 0 11 8.13 0.39
-6 0 11 7.95 0.38
-6 0 11 7.78 0.62
-6 0 11 8.11 0.37
-6 0 11 7.68 0.39
-6 0 11 8.03 0.48
-5 0 11 13.34 0.75
-5 0 11 13.2 0.67
-5 0 11 12.8 0.59
-5 0 11 13.45 0.7
-5 0 11 12.98 0.62
-5 0 11 13.36 0.6
-5 0 11 13.42 0.61
-5 0 11 13.71 0.79
-5 0 11 13.2 0.6
-4 0 11 9.25 0.44
-4 0 11 9.01 0.57
-3 0 11 4.82 0.37
-3 0 11 4.32 0.23
-2 0 11 35.82 1.63
-2 0 11 37.85 1.74
1 0 -11 68.6 3
-1 0 11 66.54 2.97
-1 0 11 70.03 3.08
-1 0 11 65.47 2.96
0 0 11 -0.04 0.05
0 0 -11 0.16 0.1
0 0 -11 0.07 0.08
0 0 11 0.11 0.08
0 0 -11 -0.08 0.07
0 0 11 0.01 0.07
1 0 11 2.66 0.18
1 0 11 2.76 0.2
1 0 11 2.28 0.21
-1 0 -11 2.6 0.22
1 0 11 3.11 0.21
-1 0 -11 2.8 0.22
1 0 11 2.66 0.21
2 0 11 0.06 0.16
2 0 11 0.32 0.15
2 0 11 0.38 0.12
2 0 11 0.16 0.08
-2 0 -11 0.48 0.15
-2 0 -11 0.16 0.11
2 0 11 0.18 0.12
2 0 11 0.15 0.08
2 0 11 0.16 0.11
3 0 11 38.91 1.67
-3 0 -11 39.03 1.7
3 0 11 32.46 1.7
3 0 11 30.65 1.62
-3 0 -11 37.07 1.65
3 0 11 37.14 1.63
3 0 11 35.9 1.61
-4 0 -11 3.56 0.3
-4 0 -11 3.47 0.26
4 0 11 3.87 0.32
4 0 11 3.24 0.24
4 0 11 3.72 0.26
-5 0 -11 6.61 0.54
-5 0 -11 6.37 0.36
5 0 11 5.79 0.44
-5 0 -11 6.37 0.4
5 0 11 5.73 0.37
5 0 11 6.33 0.36
5 0 11 5.91 0.46
5 0 11 5.65 0.35
6 0 11 -0.04 0.12
-6 0 -11 -0.17 0.16
-6 0 -11 0.13 0.12
6 0 11 0.13 0.17
6 0 11 0.04 0.2
-6 0 -11 -0.19 0.14
6 0 11 0.17 0.18
-6 0 -11 0.03 0.15
-7 0 -11 0.65 0.17
7 0 11 0.96 0.22
-7 0 -11 0.66 0.17
7 0 11 0.94 0.14
-7 0 -11 0.78 0.19
-8 -1 11 4.19 0.18
-8 1 11 3.95 0.3
-8 1 11 3.84 0.19
-8 1 11 3.65 0.2
-8 1 11 3.77 0.2
-8 1 11 3.69 0.19
-7 -1 11 3.11 0.17
-7 -1 11 3.58 0.16
-7 -1 11 3.49 0.16
-7 -1 11 3.48 0.17
-7 -1 11 3.51 0.17
-7 1 11 3.35 0.35
-7 1 11 3.33 0.21
-7 1 11 3.84 0.19
-7 1 11 3.47 0.21
-7 1 11 3.52 0.21
-6 -1 11 3.44 0.18
-6 -1 11 3.39 0.16
-6 -1 11 3.3 0.18
-6 -1 11 3.64 0.18
-6 -1 11 3.39 0.17
-6 -1 11 3.44 0.17
-6 1 11 3.25 0.2
-6 1 11 3.48 0.21
-6 1 11 3.08 0.22
-6 1 11 3.24 0.22
-6 1 11 3.58 0.39
-5 -1 11 12.54 0.56
-5 -1 11 11.53 0.56
-5 -1 11 12.7 0.69
-5 -1 11 12.79 0.56
-5 -1 11 13.01 0.57
-5 -1 11 12.59 0.56
-5 -1 11 12.7 0.63
-5 -1 11 12.24 0.56
-5 1 11 12.14 0.74
-5 1 11 12.48 0.6
-5 1 11 12.45 0.61
-5 1 11 13.03 0.63
-5 1 11 12.5 0.66
-5 1 11 12.84 0.59
-5 1 11 12.89 0.6
-4 -1 11 29.7 1.3
4 -1 -11 26.62 1.31
-4 -1 11 29.43 1.41
-4 1 11 26.4 1.39
-4 1 11 29.34 1.29
-3 -1 11 9.47 0.41
3 -1 -11 9.43 0.49
-3 -1 11 9.04 0.47
-3 -1 11 9.64 0.57
-3 1 11 8.71 0.56
-3 1 11 8.85 0.45
2 -1 -11 2.21 0.18
-2 -1 11 1.93 0.24
-2 1 11 1.88 0.15
-2 1 11 1.67 0.13
-2 1 11 2.02 0.17
-2 1 11 2.15 0.26
1 -1 -11 5.79 0.33
-1 -1 11 6.4 0.42
1 -1 -11 5.33 0.32
-1 -1 11 5.37 0.28
-1 -1 11 6.2 0.39
-1 -1 11 5.28 0.27
-1 1 11 5.69 0.29
-1 1 11 5.73 0.27
-1 1 11 5.59 0.33
-1 1 11 5.69 0.3
-1 1 11 6.28 0.41
-1 1 11 5.9 0.28
-1 1 11 5.29 0.3
0 -1 11 6.96 0.36
0 -1 11 7.38 0.33
0 -1 11 7.26 0.35
0 -1 11 7.08 0.33
0 -1 -11 7.28 0.4
0 -1 -11 7.8 0.4
0 1 11 6.61 0.39
0 1 11 6.61 0.39
0 1 -11 6.82 0.39
0 1 11 7.37 0.38
0 1 11 6.84 0.37
0 1 11 7.36 0.36
0 1 11 6.5 0.44
0 1 -11 7.07 0.38
1 -1 11 26.73 1.16
1 -1 11 24.75 1.18
-1 -1 -11 26.89 1.19
1 -1 11 24.86 1.19
-1 -1 -11 26.59 1.22
1 -1 11 25.17 1.17
-1 -1 -11 25.71 1.22
1 1 11 25.91 1.16
1 1 11 25.54 1.22
1 1 11 27.61 1.17
1 1 11 27.33 1.21
1 1 11 23.81 1.2
1 1 11 26.01 1.23
-1 1 -11 25.27 1.2
-1 1 -11 24.13 1.19
1 1 11 26.16 1.18
-2 -1 -11 18.29 0.85
-2 -1 -11 17.87 0.89
2 -1 11 15.89 0.85
2 -1 11 14.8 0.86
2 -1 11 17.08 0.83
2 -1 11 17.9 0.83
2 -1 11 18.69 0.9
2 1 11 18.96 0.84
2 1 11 17.18 0.87
2 1 11 17.88 0.82
2 1 11 18.15 0.87
2 1 11 17.82 0.91
-2 1 -11 18.33 0.85
2 1 11 17.48 0.83
-2 1 -11 18.03 0.88
-3 -1 -11 52.59 2.55
3 -1 11 52.78 2.46
3 -1 11 59.8 2.58
3 -1 11 55.29 2.46
-3 -1 -11 56.29 2.52
3 -1 11 53.05 2.46
3 -1 11 54.75 2.53
3 -1 11 57.15 2.5
-3 1 -11 53.76 2.55
3 1 11 57 2.54
3 1 11 54.23 2.59
3 1 11 57.35 2.49
3 1 11 58.39 2.55
-3 1 -11 57.76 2.52
4 -1 11 0.25 0.1
-4 -1 -11 0.14 0.22
-4 -1 -11 0.23 0.13
4 -1 11 0.2 0.1
-4 -1 -11 0.25 0.39
-4 -1 -11 0.22 0.12
4 -1 11 0.08 0.18
4 1 11 0.23 0.12
4 1 11 0.14 0.11
-4 1 -11 0.03 0.13
4 1 11 0.1 0.16
-5 -1 -11 1.6 0.3
5 -1 11 1.25 0.27
5 -1 11 1.55 0.21
-5 -1 -11 1.57 0.28
5 -1 11 1.63 0.17
5 -1 11 1.69 0.31
-5 -1 -11 1.52 0.24
-5 -1 -11 1.47 0.19
5 1 11 1.73 0.2
-5 1 -11 1.22 0.22
5 1 11 1.6 0.21
-5 1 -11 1.79 0.34
5 1 11 1.55 0.19
5 1 11 1.54 0.32
-5 1 -11 1.63 0.2
5 1 11 1.52 0.21
5 1 11 1.53 0.26
-6 -1 -11 7.25 0.41
6 -1 11 6.82 0.45
-6 -1 -11 6.5 0.45
6 -1 11 6.54 0.39
6 -1 11 6.56 0.47
-6 -1 -11 6.29 0.43
6 1 11 6.38 0.42
6 1 11 7.16 0.39
6 1 11 5.94 0.45
-6 1 -11 6.82 0.49
6 1 11 6.6 0.45
-7 -1 -11 1.22 0.19
7 -1 11 0.79 0.14
-7 -1 -11 0.9 0.19
-7 -1 -11 1.15 0.18
7 -1 11 0.81 0.21
-7 1 -11 1.21 0.19
-7 1 -11 1.09 0.2
-7 1 -11 1.07 0.19
-7 -2 11 3.4 0.17
7 -2 -11 3.27 0.26
-7 -2 11 3.53 0.16
-7 2 11 3.46 0.21
-7 2 11 3.31 0.34
-7 2 11 3.08 0.21
-7 2 11 3.7 0.2
-6 -2 11 0.61 0.05
-6 -2 11 0.69 0.05
-6 -2 11 0.71 0.08
-6 2 11 0.69 0.32
-6 2 11 0.69 0.15
-6 2 11 0.78 0.16
-6 2 11 0.74 0.32
-6 2 11 0.87 0.14
-6 2 11 0.66 0.12
-5 -2 11 4.4 0.21
-5 -2 11 4.28 0.21
-5 -2 11 4.83 0.22
-5 2 11 4.49 0.26
-5 2 11 4.48 0.49
-5 2 11 4.65 0.27
-5 2 11 4.49 0.42
-5 2 11 4.59 0.27
-5 2 11 4.9 0.3
-4 -2 11 55.98 2.39
-4 2 11 51.67 2.39
-4 2 11 54.74 2.39
-4 2 11 50.91 2.48
-3 -2 11 43.51 2.07
3 -2 -11 42.07 2
-3 -2 11 45.69 1.96
-3 2 11 42.98 1.96
-3 2 11 45.87 1.95
-3 2 11 43.99 2.07
-3 2 11 44.72 1.93
-3 2 11 44.55 1.92
-3 2 11 39.12 1.95
2 -2 -11 7.32 0.43
2 -2 -11 7.69 0.41
-2 -2 11 7.19 0.49
-2 2 11 7.75 0.39
-2 2 11 6.71 0.42
-2 2 11 7.53 0.42
-2 2 11 7 0.39
-2 2 11 7.34 0.49
1 -2 -11 13.49 0.67
1 -2 -11 13.83 0.69
-1 -2 11 13.58 0.62
-1 2 11 13.91 0.7
-1 2 11 14.32 0.7
-1 2 11 12.76 0.66
-1 2 11 12.69 0.68
-1 2 11 13.87 0.67
-1 2 11 13.93 0.76
0 -2 -11 16.57 0.84
0 -2 11 15.89 0.79
0 -2 -11 17.5 0.82
0 -2 11 18.09 0.78
0 2 11 17.18 0.81
0 2 11 16.46 0.84
0 2 11 16.53 0.83
0 2 11 19.28 0.88
0 2 11 16.83 0.79
0 2 11 16.19 0.84
-1 -2 -11 0.91 0.16
-1 -2 -11 1.2 0.17
1 -2 11 1.09 0.16
1 -2 11 1.18 0.15
1 2 11 1 0.21
1 2 11 0.86 0.16
1 2 11 0.82 0.14
1 2 11 1.05 0.15
-1 2 -11 1.12 0.16
1 2 11 0.91 0.21
2 -2 11 30.51 1.35
-2 -2 -11 31.15 1.41
2 -2 11 31.34 1.39
2 -2 11 31.41 1.36
-2 -2 -11 28 1.44
-2 2 -11 30.13 1.43
2 2 11 27.73 1.43
2 2 11 30.36 1.49
2 2 11 29.8 1.45
2 2 11 31.37 1.39
2 2 11 31.06 1.4
3 -2 11 36.45 1.64
3 -2 11 36.69 1.65
-3 -2 -11 35.58 1.63
-3 -2 -11 33.79 1.66
3 -2 11 35.27 1.68
3 2 11 36.56 1.66
-3 2 -11 39.92 1.68
3 2 11 31.67 1.72
3 2 11 38.24 1.65
3 2 11 36.37 1.7
-4 -2 -11 14.57 0.7
4 -2 11 13.7 0.72
-4 -2 -11 13.22 0.69
-4 -2 -11 14.73 0.82
-4 -2 -11 13.08 0.65
4 -2 11 12.95 0.75
4 -2 11 12.39 0.64
4 2 11 12.28 0.68
4 2 11 13.19 0.66
4 2 11 14.41 0.75
4 2 11 13.13 0.67
-4 2 -11 13.44 0.7
4 2 11 13.18 0.69
-5 -2 -11 9.34 0.45
5 -2 11 8.72 0.57
-5 -2 -11 8.27 0.55
5 -2 11 9.69 0.54
-5 -2 -11 8.73 0.5
5 -2 11 8.43 0.45
5 -2 11 8.56 0.47
-5 2 -11 9.27 0.46
-5 2 -11 9.01 0.51
5 2 11 8.86 0.46
5 2 11 9.04 0.49
5 2 11 8.5 0.47
5 2 11 8.13 0.53
-6 -2 -11 9.48 0.49
6 -2 11 9.32 0.55
-6 -2 -11 8.24 0.51
6 -2 11 9.37 0.47
-6 -2 -11 8.99 0.48
6 2 11 8.34 0.46
-6 2 -11 8.53 0.56
6 2 11 8.87 0.45
-7 -2 -11 3.38 0.22
7 -2 11 2.82 0.19
-7 -2 -11 3.49 0.22
-7 2 -11 3.04 0.23
-7 2 -11 2.98 0.22
-7 -3 11 5.24 0.22
7 -3 -11 4.32 0.29
7 -3 -11 5.24 0.34
-7 3 11 5.15 0.26
-7 3 11 4.58 0.24
-7 3 11 4.71 0.34
-7 3 11 4.83 0.26
-7 3 11 4.14 0.35
-6 -3 11 1.97 0.11
6 -3 -11 2.05 0.23
6 -3 -11 1.85 0.25
-6 3 11 2.08 0.16
-6 3 11 1.71 0.34
-6 3 11 2.3 0.18
-6 3 11 2.07 0.18
-6 3 11 2.18 0.32
-5 -3 11 5.92 0.27
5 -3 -11 5.49 0.36
5 -3 -11 5.81 0.4
-5 -3 11 5.56 0.26
-5 -3 11 5.82 0.26
-5 3 11 5.68 0.35
-5 3 11 6.09 0.53
-5 3 11 5.88 0.33
-5 3 11 5.79 0.33
-5 3 11 6.04 0.33
-5 3 11 5.81 0.48
-4 -3 11 0.3 0.03
4 -3 -11 0.44 0.19
-4 -3 11 0.35 0.34
-4 -3 11 0.35 0.03
-4 -3 11 0.38 0.05
4 -3 -11 0.32 0.13
-4 3 11 0.27 0.11
-4 3 11 0.56 0.14
-4 3 11 0.28 0.15
-4 3 11 0.28 0.23
-4 3 11 0.13 0.11
-4 3 11 0.23 0.3
3 -3 -11 17.96 0.95
-3 -3 11 17.95 0.78
3 -3 -11 17.44 0.86
-3 -3 11 17.54 0.78
-3 -3 11 18.8 1.25
-3 3 11 16.7 1.14
-3 3 11 17.88 0.96
-3 3 11 16.73 0.98
-3 3 11 18.31 0.86
-3 3 11 15.5 0.88
-3 3 11 19.44 0.86
-3 3 11 18.6 0.89
-3 3 11 18.23 0.87
2 -3 -11 9.08 0.49
2 -3 -11 9.14 0.52
-2 3 11 9.52 0.48
-2 3 11 8.56 0.43
-2 3 11 9.35 0.58
-2 3 11 8.79 0.51
-2 3 11 8.15 0.46
-1 -3 11 19.7 0.95
-1 -3 11 19.48 0.89
1 -3 -11 19.55 0.95
1 -3 -11 18.71 0.98
-1 3 11 20.98 0.92
-1 3 11 20.8 0.99
0 -3 11 16.27 0.75
0 -3 -11 16.02 0.8
0 -3 11 16.21 0.77
0 -3 -11 15.17 0.83
0 3 11 16.93 0.77
0 3 11 15.96 0.78
0 3 11 16.85 0.83
1 -3 11 13.21 0.66
1 -3 11 12.36 0.64
-1 -3 -11 13.51 0.67
-1 -3 -11 12.65 0.64
-1 -3 -11 12.78 0.7
-1 3 -11 12.48 0.68
1 3 11 14.28 0.71
1 3 11 13.88 0.66
1 3 11 12.97 0.66
1 3 11 13.61 0.72
2 -3 11 5.88 0.36
-2 -3 -11 6.17 0.35
-2 -3 -11 5.75 0.39
-2 -3 -11 5.7 0.37
2 3 11 6.41 0.44
2 3 11 5.74 0.37
2 3 11 6.59 0.38
-3 -3 -11 11.8 0.58
3 -3 11 11.94 0.56
-3 -3 -11 12.87 0.75
-3 -3 -11 11.82 0.61
3 -3 11 11.72 0.68
3 -3 11 12.23 0.56
3 -3 11 11.3 0.6
3 -3 11 11.73 0.56
-3 -3 -11 11.98 0.62
3 3 11 10.48 0.64
3 3 11 11.7 0.63
3 3 11 12.5 0.66
3 3 11 11.32 0.59
-3 3 -11 11.63 0.62
3 3 11 11.58 0.61
3 3 11 10.6 0.63
3 3 11 11.27 0.6
3 3 11 10.98 0.57
-4 -3 -11 4.61 0.29
4 -3 11 4.9 0.36
4 -3 11 5.31 0.42
-4 -3 -11 4.58 0.33
4 -3 11 4.79 0.28
-4 -3 -11 4.33 0.38
4 3 11 4.63 0.3
4 3 11 5.8 0.4
4 3 11 4.76 0.31
4 3 11 5.32 0.35
4 3 11 5.31 0.33
-4 3 -11 4.95 0.36
5 -3 11 12.59 0.58
5 -3 11 12.21 0.6
-5 -3 -11 11.9 0.62
-5 -3 -11 11.98 0.62
5 -3 11 13.11 0.69
5 3 11 11.09 0.58
5 3 11 12.54 0.67
5 3 11 11.82 0.61
5 3 11 11.9 0.59
6 -3 11 1.09 0.14
-6 -3 -11 0.85 0.17
6 -3 11 0.69 0.2
-6 -3 -11 0.93 0.17
-6 3 -11 0.73 0.19
6 3 11 0.8 0.13
6 -4 -11 1.39 0.18
6 -4 -11 1.08 0.17
-6 -4 11 1.6 0.08
6 -4 -11 1.6 0.17
-6 4 11 1.19 0.26
-6 4 11 1.27 0.13
-6 4 11 1.5 0.23
-6 4 11 1.47 0.14
5 -4 -11 0.36 0.16
5 -4 -11 0.46 0.18
-5 -4 11 0.37 0.05
-5 4 11 0.56 0.14
-5 4 11 0.6 0.29
-5 4 11 0.49 0.18
-5 4 11 0.5 0.21
-5 4 11 0.39 0.19
4 -4 -11 9.52 0.59
-4 -4 11 9.23 0.79
4 -4 -11 8.73 0.49
4 -4 -11 8.62 0.53
4 -4 -11 8.58 0.45
-4 -4 11 8.96 0.39
-4 -4 11 8.73 0.4
-4 -4 11 8.7 0.39
-4 4 11 9.29 0.66
-4 4 11 8.66 0.57
-4 4 11 8.71 0.46
-4 4 11 8.36 0.5
-4 4 11 9.39 0.5
-3 -4 11 11.77 0.62
-3 -4 11 11 0.49
-3 -4 11 11.55 0.95
-3 -4 11 10.9 0.5
3 -4 -11 11.63 0.59
3 -4 -11 11.09 0.55
-3 -4 11 11.15 0.49
3 -4 -11 11.4 0.69
3 -4 -11 11.35 0.65
-3 4 11 11.08 0.77
-3 4 11 11.24 0.69
-3 4 11 10.93 0.6
-3 4 11 10.86 0.61
-3 4 11 10.67 0.56
-3 4 11 11.13 0.59
2 -4 -11 9.62 0.5
-2 -4 11 9.82 0.45
2 -4 -11 10.61 0.62
-2 -4 11 10.28 0.45
-2 -4 11 10.98 0.91
-2 -4 11 9.61 0.46
2 -4 -11 10 0.55
-2 -4 11 10.15 0.53
2 -4 -11 10.45 0.67
-2 -4 11 9.94 0.57
-2 -4 11 9.93 0.45
-2 4 11 9.5 0.52
-2 4 11 9.72 0.63
-2 4 11 9.83 0.55
-2 4 11 10.56 0.7
-2 4 11 9.84 0.56
-2 4 11 10.21 0.58
-1 -4 11 2.99 0.17
-1 -4 11 3.48 0.26
-1 -4 11 3.08 0.16
-1 -4 11 3.16 0.15
1 -4 -11 3.41 0.24
1 -4 -11 3.53 0.28
-1 -4 11 3.42 0.18
1 -4 -11 3.48 0.38
-1 -4 11 3 0.17
-1 -4 11 3.17 0.18
-1 -4 11 3.49 0.58
1 -4 -11 3.27 0.35
-1 -4 11 3.41 0.3
-1 4 11 3.09 0.28
-1 4 11 3.15 0.3
-1 4 11 3.85 0.3
-1 4 11 3.47 0.31
-1 4 11 3.27 0.24
-1 4 11 3.32 0.42
-1 4 11 3.02 0.38
-1 4 11 3.19 0.32
0 -4 -11 8.36 0.46
0 -4 11 7.55 0.36
0 -4 11 7.38 0.37
0 -4 11 7.75 0.76
0 -4 -11 8.27 0.42
0 -4 -11 7.83 0.53
0 -4 -11 8.49 0.58
0 -4 11 7.64 0.38
0 -4 11 8.33 0.4
0 -4 -11 8.75 0.48
0 -4 11 7.62 0.37
0 4 11 7.63 0.54
0 4 11 7.7 0.46
0 4 11 8.37 0.51
0 4 11 7.74 0.47
0 4 11 8.11 0.43
0 4 11 8.31 0.43
0 4 11 7.64 0.44
0 4 11 7.77 0.63
0 4 11 7.44 0.51
-1 -4 -11 2.7 0.32
1 -4 11 2.69 0.18
1 -4 11 2.61 0.18
1 -4 11 2.72 0.17
1 -4 11 2.83 0.22
-1 -4 -11 2.97 0.25
-1 -4 -11 2.89 0.22
-1 -4 -11 2.92 0.36
1 4 11 2.44 0.24
1 4 11 2.39 0.3
1 4 11 3.39 0.31
1 4 11 2.82 0.25
1 4 11 2.72 0.25
1 4 11 2.67 0.28
-2 -4 -11 11.43 0.62
-2 -4 -11 12.24 0.72
-2 -4 -11 12.62 0.59
2 -4 11 13.26 0.61
-2 -4 -11 11.06 0.67
2 -4 11 11.04 0.57
2 -4 11 12.76 0.57
2 -4 11 12.72 0.57
2 4 11 13.23 0.68
2 4 11 12.32 0.68
2 4 11 11.54 0.63
2 4 11 11.51 0.6
2 4 11 12.03 0.62
2 4 11 11.38 0.62
2 4 11 12.38 0.65
3 -4 11 2.68 0.19
3 -4 11 3.03 0.2
-3 -4 -11 3.12 0.43
3 -4 11 3.38 0.26
-3 -4 -11 2.7 0.27
-3 -4 -11 2.66 0.21
3 -4 11 3.19 0.21
3 -4 11 3.21 0.33
-3 -4 -11 2.44 0.3
3 4 11 3.11 0.29
3 4 11 3.17 0.23
3 4 11 2.51 0.31
3 4 11 2.91 0.26
3 4 11 3.18 0.27
3 4 11 3.3 0.25
-3 4 -11 2.57 0.26
4 -4 11 2.52 0.29
4 -4 11 2.82 0.19
-4 -4 -11 2.88 0.27
-4 -4 -11 2.66 0.24
4 -4 11 2.77 0.22
4 4 11 2.65 0.22
4 4 11 2.77 0.23
4 4 11 2.91 0.23
-5 -4 -11 7.41 0.37
5 -4 11 6.57 0.34
5 -4 11 6.87 0.42
5 -4 11 6.7 0.36
-5 -4 -11 6.65 0.37
5 4 11 6.83 0.35
5 -5 -11 0.47 0.15
5 -5 -11 0.36 0.11
-5 -5 11 0.47 0.04
-5 5 11 0.15 0.11
-5 5 11 0.39 0.2
-5 5 11 0.27 0.08
4 -5 -11 0.55 0.16
-4 -5 11 0.82 0.06
-4 -5 11 0.79 0.17
4 -5 -11 0.51 0.15
-4 5 11 0.82 0.15
-4 5 11 0.82 0.17
-4 5 11 0.91 0.27
3 -5 -11 2.81 0.29
-3 -5 11 3.09 0.15
-3 -5 11 3.13 0.14
-3 -5 11 3.08 0.27
3 -5 -11 2.86 0.27
-3 -5 11 3.24 0.5
-3 5 11 3.28 0.25
-3 5 11 2.97 0.24
-3 5 11 3.28 0.38
-2 -5 11 0.34 0.06
-2 -5 11 0.46 0.37
2 -5 -11 0.29 0.15
-2 -5 11 0.33 0.06
-2 -5 11 0.33 0.05
2 -5 -11 0.43 0.19
-2 -5 11 0.27 0.06
-2 5 11 0.37 0.13
-2 5 11 0.23 0.16
-2 5 11 0.41 0.27
-2 5 11 0.16 0.14
-2 5 11 0.39 0.14
-1 -5 11 2.72 0.15
1 -5 -11 2.76 0.3
-1 -5 11 3.12 0.55
1 -5 -11 2.97 0.21
1 -5 -11 2.31 0.28
-1 -5 11 3 0.14
1 -5 -11 2.86 0.27
-1 -5 11 2.72 0.16
-1 5 11 2.63 0.26
-1 5 11 3.03 0.31
-1 5 11 2.85 0.21
-1 5 11 2.52 0.38
-1 5 11 2.79 0.24
-1 5 11 2.94 0.25
0 -5 -11 1.9 0.25
0 -5 -11 2.12 0.18
0 -5 11 1.98 0.12
0 -5 11 2.02 0.45
0 -5 11 1.99 0.13
0 -5 -11 2.02 0.21
0 -5 11 2.11 0.14
0 -5 11 1.96 0.14
0 -5 11 1.9 0.13
0 5 11 2.27 0.25
0 5 11 1.96 0.2
0 5 11 2.04 0.26
0 5 11 2.1 0.22
0 5 11 2.05 0.28
0 5 11 2.07 0.24
-1 -5 -11 1.46 0.23
1 -5 11 1.67 0.13
-1 -5 -11 1.41 0.18
1 -5 11 1.49 0.15
-1 -5 -11 0.81 0.28
1 -5 11 1.61 0.13
1 -5 11 1.4 0.11
1 5 11 1.43 0.21
1 5 11 1.37 0.23
1 5 11 1.69 0.26
1 5 11 1.45 0.21
1 5 11 2.22 0.24
1 5 11 1.64 0.2
2 -5 11 1.02 0.12
-2 -5 -11 1.13 0.19
-2 -5 -11 0.99 0.22
2 -5 11 1.03 0.11
2 -5 11 1.05 0.12
2 5 11 0.81 0.18
2 5 11 1.24 0.16
2 5 11 1.08 0.23
-2 5 -11 1.15 0.24
2 5 11 1.35 0.19
2 5 11 1.19 0.16
2 5 11 0.63 0.18
3 -5 11 5.94 0.29
-3 -5 -11 5.45 0.34
3 -5 11 5.56 0.38
3 -5 11 5.64 0.29
-3 -5 -11 5.97 0.35
3 -5 11 5.92 0.29
3 5 11 5.52 0.31
3 5 11 5.11 0.36
4 -5 11 0.84 0.1
4 -5 11 0.95 0.11
-4 -5 -11 1.14 0.15
4 -5 11 1.01 0.1
4 -5 11 0.93 0.12
-4 -5 -11 1.19 0.16
4 -5 11 1.01 0.18
4 5 11 1.05 0.17
4 5 11 0.86 0.12
2 -6 -11 5.61 0.28
-2 -6 11 5.14 0.24
-2 -6 11 5.13 0.49
-2 -6 11 5.14 0.22
2 -6 -11 5.24 0.28
-2 6 11 4.11 0.28
-2 6 11 4.75 0.3
1 -6 -11 2.03 0.19
-1 -6 11 2.31 0.11
-1 -6 11 2.29 0.38
1 -6 -11 2.1 0.18
-1 -6 11 2.05 0.11
-1 -6 11 1.98 0.1
-1 6 11 2.41 0.18
-1 6 11 1.45 0.17
-1 6 11 2.23 0.19
0 -6 11 2.76 0.14
0 -6 -11 2.82 0.21
0 -6 11 2.75 0.14
0 -6 11 2.75 0.15
0 -6 -11 3.26 0.2
0 6 11 2.92 0.2
0 6 11 2.63 0.21
-1 -6 -11 1.39 0.16
1 -6 11 1.71 0.1
1 -6 11 1.45 0.1
-1 -6 -11 1.58 0.17
1 6 11 1.04 0.14
-1 6 -11 1.17 0.17
1 6 11 0.79 0.17
1 6 11 1.33 0.15
-2 -6 -11 1.49 0.14
-2 -6 -11 1.42 0.14
2 -6 11 1.38 0.1
2 -6 11 1.58 0.12
2 -6 11 1.54 0.1
2 6 11 1.23 0.16
-7 0 12 0.87 0.06
-7 0 12 1 0.08
-7 0 12 1.01 0.07
-7 0 12 0.88 0.08
-7 0 12 0.94 0.06
-6 0 12 1.56 0.1
-6 0 12 1.88 0.23
-6 0 12 1.72 0.13
-6 0 12 1.8 0.11
-6 0 12 1.44 0.1
-5 0 12 9.47 0.46
-5 0 12 9.53 0.55
-5 0 12 9.04 0.42
-5 0 12 9.06 0.42
-5 0 12 8.71 0.42
-5 0 12 9.38 0.5
-5 0 12 9.43 0.59
-5 0 12 9.29 0.44
-5 0 12 9.4 0.43
-4 0 12 2.03 0.31
-4 0 12 2.11 0.13
-4 0 12 2.05 0.22
-3 0 12 19.71 1.08
-3 0 12 22.14 0.95
-2 0 12 0.16 0.17
-2 0 12 -0.01 0.05
1 0 -12 12.64 0.6
-1 0 12 13.03 0.55
-1 0 12 12.31 0.58
-1 0 12 11.47 0.68
0 0 -12 29.6 1.39
0 0 12 30.01 1.35
0 0 12 31 1.36
-1 0 -12 6.76 0.39
1 0 12 6.97 0.34
1 0 12 6.64 0.35
1 0 12 7.24 0.39
1 0 12 6.62 0.34
1 0 12 6.39 0.36
1 0 12 6.13 0.36
-2 0 -12 0.75 0.15
2 0 12 0.44 0.12
2 0 12 0.43 0.14
-2 0 -12 0.21 0.11
2 0 12 0 0.14
2 0 12 0.34 0.12
3 0 12 34.05 1.47
3 0 12 32.69 1.47
3 0 12 34.27 1.56
-3 0 -12 32 1.52
-3 0 -12 32.99 1.56
3 0 12 30.93 1.53
-4 0 -12 0.48 0.26
4 0 12 0.38 0.15
4 0 12 0.45 0.1
-4 0 -12 0.23 0.12
4 0 12 0.38 0.16
-4 0 -12 0.58 0.17
-5 0 -12 0.02 0.11
5 0 12 -0.01 0.13
5 0 12 -0.03 0.21
-5 0 -12 0.13 0.13
5 0 12 0.17 0.17
5 0 12 -0.01 0.09
-5 0 -12 -0.04 0.23
6 0 12 5.05 0.31
6 0 12 4.43 0.37
-6 0 -12 4.65 0.35
-6 0 -12 4.6 0.36
7 0 12 1.69 0.16
-7 0 -12 1.85 0.19
-7 0 -12 1.69 0.19
-7 0 -12 1.73 0.18
-7 -1 12 3.8 0.17
-7 -1 12 3.66 0.18
-7 1 12 3.61 0.2
-7 1 12 3.82 0.21
-7 1 12 3.63 0.34
-7 1 12 3.58 0.19
-6 -1 12 2.56 0.14
-6 -1 12 2.51 0.13
-6 -1 12 2.68 0.13
-6 1 12 2.53 0.15
-6 1 12 2.52 0.18
-6 1 12 2.46 0.16
-6 1 12 2.7 0.18
-6 1 12 2.63 0.26
-6 1 12 2.41 0.17
-6 1 12 2.81 0.35
-5 -1 12 7.25 0.32
-5 -1 12 6.98 0.31
-5 -1 12 7.06 0.31
-5 -1 12 7.03 0.44
-5 -1 12 7.06 0.31
-5 -1 12 6.58 0.31
-5 1 12 6.41 0.34
-5 1 12 6.73 0.35
-5 1 12 7 0.54
-5 1 12 6.92 0.34
-5 1 12 7.19 0.43
-5 1 12 6.86 0.36
-5 1 12 7.03 0.41
-5 1 12 7.05 0.36
-4 -1 12 13.9 0.77
-4 -1 12 12.3 0.64
-4 1 12 12.78 0.79
-4 1 12 13.05 0.61
-4 1 12 11.98 0.65
-4 1 12 13.61 0.75
3 -1 -12 12.15 0.63
-3 -1 12 12.96 0.73
-3 1 12 12.3 0.6
-3 1 12 13.57 0.74
-2 -1 12 -0.16 0.16
-2 -1 12 0.06 0.04
2 -1 -12 0.1 0.1
-2 1 12 0.17 0.08
-2 1 12 0.01 0.05
-2 1 12 0.22 0.16
-1 -1 12 19.72 0.9
-1 -1 12 19.84 0.89
1 -1 -12 19.32 0.95
-1 1 12 20.2 0.91
-1 1 12 19.84 1.02
-1 1 12 20.37 0.92
0 -1 12 6.68 0.32
0 -1 12 6.95 0.36
0 -1 12 7.15 0.32
0 -1 -12 7 0.4
0 -1 12 7.12 0.37
0 1 12 6.3 0.4
0 1 12 7.43 0.39
0 1 12 6.93 0.37
0 1 12 7.25 0.38
0 1 12 7.95 0.48
0 1 12 7.74 0.36
0 1 -12 6.87 0.39
-1 -1 -12 2.89 0.23
1 -1 12 3.22 0.22
-1 -1 -12 2.73 0.24
1 -1 12 2.74 0.2
1 -1 12 2.58 0.17
1 1 12 3.25 0.26
-1 1 -12 2.87 0.23
1 1 12 1.78 0.24
1 1 12 2.72 0.22
1 1 12 2.8 0.24
1 1 12 2.71 0.24
2 -1 12 45.48 1.99
2 -1 12 41.84 2.01
-2 -1 -12 45.33 2.03
2 -1 12 44.81 2.01
2 -1 12 47.93 1.98
-2 -1 -12 44.31 2.06
2 1 12 44.34 1.99
2 1 12 41.96 2.05
2 1 12 46.84 2.05
-2 1 -12 46.34 2.06
2 1 12 41.18 1.98
-2 1 -12 48.08 2.14
2 1 12 42.51 2.01
3 -1 12 17.3 0.88
-3 -1 -12 18.39 0.87
3 -1 12 16.88 0.85
3 -1 12 17.69 0.85
-3 -1 -12 16.94 1.06
3 1 12 17.62 0.83
3 1 12 18.42 0.89
3 1 12 18.37 0.85
-3 1 -12 16.65 0.86
-4 -1 -12 0.96 0.15
-4 -1 -12 0.84 0.32
4 -1 12 0.79 0.28
4 -1 12 0.97 0.25
-4 -1 -12 1.02 0.21
4 1 12 0.96 0.23
-4 1 -12 0.75 0.19
4 1 12 0.87 0.19
4 1 12 0.73 0.17
5 -1 12 5.44 0.35
-5 -1 -12 6.09 0.47
-5 -1 -12 5.73 0.43
-5 -1 -12 5.65 0.33
5 -1 12 6.11 0.46
-5 -1 -12 5.74 0.38
5 -1 12 5.73 0.41
5 1 12 5.55 0.43
5 1 12 5.74 0.42
-5 1 -12 6.39 0.51
-5 1 -12 5.83 0.38
5 1 12 5.7 0.37
-5 1 -12 6.45 0.35
5 1 12 5.71 0.34
6 -1 12 8.57 0.53
-6 -1 -12 8.89 0.54
-6 -1 -12 8.8 0.52
6 -1 12 9.13 0.47
-6 1 -12 8.26 0.52
6 1 12 9.32 0.47
-7 -1 -12 2.13 0.17
-7 -1 -12 2.43 0.21
7 -1 12 2.07 0.17
-7 -1 -12 2.68 0.19
-7 1 -12 1.75 0.2
-7 1 -12 2.37 0.22
7 -2 -12 5.65 0.35
-7 -2 12 6.4 0.28
-7 2 12 6.28 0.29
-7 2 12 6.28 0.31
-6 -2 12 3.09 0.15
-6 2 12 3.02 0.18
-6 2 12 2.89 0.33
-6 2 12 2.85 0.2
-6 2 12 3.03 0.2
-5 -2 12 4.23 0.19
-5 2 12 3.99 0.28
-5 2 12 4.1 0.25
-5 2 12 4.03 0.25
-5 2 12 3.92 0.32
-5 2 12 4.2 0.43
-5 2 12 4.22 0.24
-5 2 12 3.69 0.42
-5 2 12 3.85 0.26
-4 -2 12 5.46 0.25
-4 -2 12 5.1 0.25
-4 2 12 5.93 0.35
-4 2 12 5.82 0.47
-4 2 12 5.61 0.38
-4 2 12 5.36 0.31
-4 2 12 5.5 0.3
-4 2 12 5.57 0.31
-4 2 12 5.7 0.33
-4 2 12 6.02 0.54
-3 -2 12 5.24 0.44
-3 2 12 5.57 0.33
-3 2 12 5.55 0.34
-3 2 12 6.5 0.45
-2 -2 12 46.39 2.18
2 -2 -12 49.09 2.11
-2 2 12 39.35 2.01
-2 2 12 52.95 2.21
-2 2 12 41.59 2.05
-2 2 12 48.86 2.07
-1 -2 12 5.32 0.27
1 -2 -12 5.17 0.32
1 -2 -12 5.57 0.35
-1 2 12 5.07 0.41
-1 2 12 5.57 0.32
-1 2 12 5.56 0.32
-1 2 12 5.66 0.42
0 -2 12 1.08 0.14
0 -2 -12 0.88 0.17
0 -2 -12 1.03 0.18
0 -2 12 0.95 0.12
0 2 12 1.23 0.17
0 2 12 1.31 0.2
0 2 12 1.22 0.2
0 2 12 1.37 0.23
0 2 12 0.85 0.19
1 -2 12 8.9 0.46
1 -2 12 8.46 0.44
1 -2 12 8.41 0.4
-1 -2 -12 8.94 0.48
-1 -2 -12 8.28 0.49
1 2 12 8.52 0.49
1 2 12 9.44 0.45
-1 2 -12 8.29 0.48
1 2 12 8.56 0.44
-2 -2 -12 35.16 1.65
-2 -2 -12 34.05 1.69
2 -2 12 35.08 1.63
2 -2 12 35.29 1.61
2 2 12 36.33 1.68
2 2 12 39.4 1.76
2 2 12 36.38 1.62
-2 2 -12 35.04 1.71
3 -2 12 7.73 0.41
-3 -2 -12 8.05 0.43
3 -2 12 8.94 0.45
-3 -2 -12 7.78 0.45
-3 -2 -12 8.05 0.61
-3 -2 -12 8.75 0.47
3 -2 12 8.2 0.41
3 -2 12 7.55 0.41
-3 2 -12 7.68 0.46
3 2 12 7.49 0.46
3 2 12 7.35 0.43
3 2 12 7.88 0.43
3 2 12 8.03 0.49
4 -2 12 13.44 0.7
4 -2 12 12.57 0.74
4 -2 12 13.18 0.63
-4 -2 -12 13.3 0.64
-4 -2 -12 13.28 0.79
-4 -2 -12 12.23 0.67
4 2 12 13.9 0.72
4 2 12 13.3 0.65
4 2 12 12.81 0.68
-4 2 -12 14.05 0.69
-5 -2 -12 4.71 0.38
5 -2 12 4.87 0.37
5 -2 12 6.28 0.43
5 -2 12 5.52 0.34
-5 2 -12 5.32 0.47
5 2 12 5.28 0.34
5 2 12 5.83 0.4
-6 -2 -12 0.05 0.11
-6 -2 -12 0.15 0.13
-6 -2 -12 0.16 0.13
6 -2 12 0.09 0.11
6 -2 12 0.17 0.18
6 2 12 0.11 0.1
-6 2 -12 -0.02 0.15
-6 -3 12 8.64 0.38
6 -3 -12 8.8 0.47
6 -3 -12 8.28 0.53
-6 3 12 8.32 0.41
-6 3 12 8.42 0.42
-6 3 12 8.74 0.56
-6 3 12 8.03 0.52
-6 3 12 8.67 0.42
5 -3 -12 0.43 0.16
-5 -3 12 0.45 0.05
-5 3 12 0.35 0.1
-5 3 12 0.54 0.24
-5 3 12 0.44 0.11
-5 3 12 0.47 0.11
-5 3 12 0.46 0.29
-5 3 12 0.53 0.12
4 -3 -12 6.1 0.44
-4 -3 12 6.41 0.29
4 -3 -12 6.84 0.39
-4 3 12 6.25 0.37
-4 3 12 6.35 0.57
-4 3 12 6.76 0.5
-4 3 12 6.74 0.42
-4 3 12 6.42 0.35
-4 3 12 6.65 0.36
-4 3 12 6.84 0.36
3 -3 -12 1.58 0.28
3 -3 -12 1.42 0.18
-3 -3 12 1.84 0.52
-3 -3 12 1.58 0.08
-3 3 12 1.65 0.36
-3 3 12 1.64 0.19
-3 3 12 1.56 0.2
-3 3 12 1.61 0.24
-3 3 12 1.45 0.32
-3 3 12 1.44 0.17
-3 3 12 1.67 0.19
-2 -3 12 11.52 0.52
-2 -3 12 11.88 0.52
2 -3 -12 11.77 0.61
-2 -3 12 11.88 0.52
2 -3 -12 11.36 0.67
-2 -3 12 11.94 0.97
-2 3 12 12.14 0.73
-2 3 12 10.99 0.58
-2 3 12 12.09 0.63
-2 3 12 11.68 0.6
-2 3 12 11.91 0.59
-2 3 12 12.14 0.79
-2 3 12 12.01 0.68
-2 3 12 12.18 0.63
-1 -3 12 3.1 0.67
1 -3 -12 4.7 0.3
-1 3 12 4.52 0.29
-1 3 12 4.73 0.4
-1 3 12 4.93 0.34
-1 3 12 4.53 0.33
0 -3 12 3.32 0.2
0 -3 -12 3.23 0.26
0 3 12 3.37 0.22
0 3 12 3.39 0.29
0 3 12 3.26 0.25
-1 -3 -12 12.45 0.76
1 -3 12 10.91 0.56
1 -3 12 11.51 0.53
1 -3 12 10.62 0.52
-1 -3 -12 11.66 0.57
1 -3 12 12.36 0.58
-1 -3 -12 10.77 0.67
-1 -3 -12 11.5 0.59
1 -3 12 10.83 0.53
1 -3 12 11.58 0.54
1 3 12 11.85 0.63
1 3 12 12.18 0.58
1 3 12 11.54 0.57
1 3 12 10.3 0.6
1 3 12 10.92 0.67
1 3 12 10.47 0.57
-2 -3 -12 9.69 0.65
2 -3 12 8.9 0.43
2 -3 12 7.97 0.42
-2 -3 -12 8.35 0.62
-2 -3 -12 8.68 0.46
2 -3 12 8.98 0.43
2 -3 12 8.31 0.47
-2 -3 -12 9.14 0.49
2 3 12 8.98 0.47
2 3 12 8.04 0.52
2 3 12 8.87 0.47
2 3 12 8.6 0.51
2 3 12 9.14 0.55
3 -3 12 0.99 0.14
-3 -3 -12 1.09 0.26
-3 -3 -12 1.29 0.3
3 -3 12 1.11 0.14
-3 -3 -12 1.04 0.18
3 -3 12 1.3 0.21
-3 -3 -12 0.75 0.17
3 -3 12 1.18 0.15
3 3 12 1.23 0.24
-3 3 -12 0.78 0.2
3 3 12 1.26 0.24
3 3 12 1.36 0.26
3 3 12 0.9 0.18
4 -3 12 1.12 0.26
-4 -3 -12 1.06 0.22
-4 -3 -12 0.97 0.19
4 -3 12 1.05 0.2
-4 -3 -12 1.35 0.17
4 -3 12 1.28 0.15
4 3 12 1.19 0.26
4 3 12 1.32 0.22
-4 3 -12 1.14 0.21
4 3 12 0.82 0.18
5 -3 12 5.42 0.3
5 -3 12 5.14 0.39
5 -3 12 5.9 0.33
-5 -3 -12 6.01 0.37
-5 -3 -12 5.53 0.35
-5 3 -12 5.67 0.45
5 3 12 5.72 0.33
6 -3 12 2.94 0.25
6 -3 12 3.53 0.2
-6 -3 -12 3.33 0.22
-6 3 -12 2.87 0.24
6 -4 -12 3.23 0.24
6 -4 -12 3.25 0.23
6 -4 -12 3.57 0.25
-6 4 12 4.04 0.2
5 -4 -12 8.52 0.44
-5 -4 12 7.96 0.33
-5 4 12 6.62 0.4
-5 4 12 7.78 0.38
-5 4 12 6.13 0.5
4 -4 -12 3.82 0.33
4 -4 -12 3.74 0.31
-4 4 12 3.65 0.37
-4 4 12 3.52 0.4
-4 4 12 3.59 0.36
-4 4 12 3.83 0.25
-4 4 12 3.45 0.28
3 -4 -12 11.33 0.65
-3 -4 12 11.94 0.92
-3 -4 12 11.44 0.51
3 -4 -12 12.21 0.7
3 -4 -12 11.34 0.6
3 -4 -12 11.08 0.56
-3 4 12 11.66 0.61
-3 4 12 10.6 0.61
-3 4 12 11.34 0.76
-3 4 12 11.64 0.57
-3 4 12 10.99 0.6
-3 4 12 11.97 0.69
-2 -4 12 10.48 0.89
2 -4 -12 10.72 0.67
2 -4 -12 10.67 0.62
2 -4 -12 10.99 0.56
-2 -4 12 10.83 0.46
2 -4 -12 9.84 0.52
-2 -4 12 10.46 0.46
-2 -4 12 9.58 0.54
-2 -4 12 10.35 0.47
-2 4 12 10.41 0.57
-2 4 12 10.63 0.61
-2 4 12 10.69 0.71
-2 4 12 10.57 0.66
-2 4 12 9.8 0.53
-2 4 12 10.74 0.59
-2 4 12 10.22 0.57
1 -4 -12 6.66 0.4
-1 -4 12 6.8 0.32
1 -4 -12 7.45 0.49
-1 -4 12 6.51 0.31
-1 -4 12 6.63 0.32
-1 -4 12 7.93 0.78
-1 -4 12 6.81 0.31
1 -4 -12 7.34 0.53
1 -4 -12 7.33 0.38
-1 4 12 7.23 0.47
-1 4 12 6.37 0.35
-1 4 12 6.98 0.56
-1 4 12 6.77 0.43
-1 4 12 6.07 0.37
-1 4 12 7.11 0.44
-1 4 12 6.31 0.51
-1 4 12 6.06 0.38
-1 4 12 7.09 0.42
0 -4 -12 0.47 0.26
0 -4 12 0.53 0.39
0 -4 -12 0.44 0.21
0 -4 12 0.4 0.07
0 -4 -12 0.43 0.12
0 -4 12 0.44 0.06
0 -4 12 0.39 0.09
0 -4 -12 0.23 0.13
0 -4 12 0.48 0.08
0 4 12 0.46 0.21
0 4 12 0.56 0.17
0 4 12 0.67 0.3
0 4 12 0.33 0.16
0 4 12 0.72 0.32
0 4 12 0.39 0.14
0 4 12 0.45 0.12
0 4 12 0.29 0.11
-1 -4 -12 19.55 1.04
-1 -4 -12 23.22 1.13
1 -4 12 20.56 0.92
-1 -4 -12 19.94 0.95
1 -4 12 19.62 0.93
1 -4 12 19.83 0.92
1 -4 12 18.88 0.92
1 4 12 21.53 1.04
1 4 12 20.53 0.99
1 4 12 20.22 1.05
1 4 12 21.45 1.09
1 4 12 22.08 0.96
1 4 12 20.74 1.01
1 4 12 19.96 0.97
2 -4 12 6.77 0.36
-2 -4 -12 7.31 0.38
-2 -4 -12 6.64 0.46
-2 -4 -12 6.41 0.41
-2 -4 -12 7.15 0.5
2 -4 12 7.24 0.36
2 -4 12 7.88 0.4
2 -4 12 7.07 0.35
2 4 12 6.53 0.46
2 4 12 7.85 0.48
2 4 12 7.66 0.44
2 4 12 7.04 0.4
3 -4 12 17.16 0.77
3 -4 12 15.74 0.73
3 -4 12 14 0.89
3 -4 12 16.53 0.73
3 -4 12 16.28 0.74
-3 -4 -12 14.78 0.81
3 4 12 15.72 0.82
3 4 12 17.02 0.79
3 4 12 16.21 0.82
-4 -4 -12 5.62 0.33
4 -4 12 4.62 0.37
-4 -4 -12 5.03 0.33
4 -4 12 5.52 0.27
4 -4 12 5.43 0.28
4 -4 12 5.25 0.28
4 4 12 4.55 0.3
5 -4 12 3 0.17
5 -4 12 2.51 0.19
5 -4 12 3.45 0.17
-5 -4 -12 3.33 0.21
-5 4 -12 2.15 0.25
-4 -5 12 1.92 0.08
-4 -5 12 1.85 0.09
4 -5 -12 1.24 0.16
-4 5 12 1.63 0.18
-4 5 12 1.7 0.15
-4 5 12 1.36 0.25
3 -5 -12 3.11 0.26
-3 -5 12 1.98 0.41
-3 -5 12 2.75 0.13
3 -5 -12 2.9 0.24
-3 5 12 2.33 0.21
-3 5 12 2.67 0.23
-2 -5 12 0.18 0.03
-2 -5 12 -0.05 0.26
-2 -5 12 0.18 0.04
2 -5 -12 0.25 0.14
2 -5 -12 0.17 0.14
-2 5 12 0.15 0.13
-2 5 12 0.3 0.13
-2 5 12 0.04 0.23
1 -5 -12 1.01 0.2
-1 -5 12 0.81 0.07
-1 -5 12 0.89 0.06
-1 -5 12 0.96 0.42
1 -5 -12 0.86 0.2
-1 -5 12 0.97 0.07
-1 5 12 0.92 0.19
-1 5 12 0.61 0.19
-1 5 12 0.9 0.24
-1 5 12 0.82 0.29
-1 5 12 0.94 0.22
0 -5 12 10.99 0.51
0 -5 12 11.09 0.5
0 -5 12 11.55 0.52
0 -5 12 9.04 0.8
0 5 12 12.12 0.7
0 5 12 11.45 0.62
0 5 12 12.89 0.59
0 5 12 9.59 0.63
0 5 12 11.71 0.59
1 -5 12 0.83 0.1
1 -5 12 0.9 0.1
1 -5 12 0.87 0.08
-1 -5 -12 0.66 0.15
1 5 12 0.86 0.23
1 5 12 0.9 0.15
1 5 12 0.79 0.16
1 5 12 0.78 0.18
2 -5 12 0.08 0.06
-2 -5 -12 0.14 0.11
2 -5 12 0.13 0.06
2 -5 12 0.04 0.05
-2 -5 -12 0.07 0.13
2 5 12 0.07 0.11
2 5 12 0.05 0.1
2 5 12 0.03 0.13
2 5 12 0.02 0.08
-3 -5 -12 1.83 0.19
3 -5 12 1.94 0.13
3 -5 12 1.94 0.22
3 -5 12 1.89 0.12
-3 -5 -12 1.93 0.19
3 -5 12 1.84 0.13
3 5 12 1.78 0.15
3 5 12 1.31 0.19
1 -6 -12 6.62 0.37
-1 -6 12 5.16 0.5
-1 -6 12 6.79 0.28
-1 6 12 6.66 0.35
0 -6 12 1.36 0.07
0 -6 -12 1.24 0.17
0 -6 12 1.31 0.07
0 6 12 0.94 0.14
-7 0 13 7.88 0.37
-7 0 13 8.7 0.35
-7 0 13 7.37 0.35
-6 0 13 12.99 0.56
-6 0 13 13.1 0.56
-6 0 13 12.8 0.57
-6 0 13 12.16 0.56
-6 0 13 12.09 0.65
-6 0 13 12.53 0.56
-6 0 13 12.38 0.57
-5 0 13 3.07 0.16
-5 0 13 3.19 0.17
-5 0 13 3.34 0.36
-5 0 13 3.19 0.15
-5 0 13 3.26 0.17
-5 0 13 3.26 0.27
-5 0 13 3.1 0.15
-5 0 13 3.06 0.17
-5 0 13 3.43 0.32
-4 0 13 17.38 0.76
-4 0 13 15.98 0.76
-4 0 13 16.34 0.9
-4 0 13 16.39 0.75
-4 0 13 17.53 0.75
-4 0 13 17.4 0.85
-4 0 13 16.98 0.82
-4 0 13 17.4 0.75
-3 0 13 0.18 0.09
-3 0 13 0.06 0.2
-3 0 13 0.19 0.12
-2 0 13 0.64 0.22
-2 0 13 0.48 0.09
-1 0 13 3.57 0.32
-1 0 13 3.35 0.21
0 0 13 1.13 0.16
0 0 13 1.45 0.15
0 0 13 1.41 0.11
0 0 -13 1.31 0.17
1 0 13 -0.03 0.07
1 0 13 -0.1 0.09
-1 0 -13 0.03 0.12
-2 0 -13 27.67 1.4
2 0 13 29.03 1.35
2 0 13 31.15 1.34
-2 0 -13 29.55 1.36
3 0 13 7.45 0.44
-3 0 -13 8.09 0.45
3 0 13 8.38 0.48
-4 0 -13 0.6 0.3
4 0 13 0.54 0.19
-4 0 -13 0.41 0.15
4 0 13 0.57 0.17
-4 0 -13 0.67 0.17
-5 0 -13 2.91 0.36
5 0 13 3.6 0.27
5 0 13 3.18 0.35
5 0 13 3.58 0.31
-5 0 -13 3.57 0.33
-5 0 -13 3.87 0.4
-6 0 -13 0.11 0.13
6 0 13 0 0.1
-6 0 -13 0.03 0.11
6 0 13 0.04 0.16
-7 -1 13 0.7 0.06
-7 1 13 0.67 0.07
-7 1 13 0.71 0.06
-7 1 13 0.72 0.05
-7 1 13 0.72 0.08
-7 1 13 0.65 0.05
-7 1 13 0.46 0.21
-6 -1 13 2.04 0.1
-6 -1 13 2.12 0.12
-6 1 13 2.19 0.12
-6 1 13 2.24 0.13
-6 1 13 2.29 0.12
-6 1 13 2 0.31
-6 1 13 2.19 0.23
-6 1 13 2.11 0.15
-5 -1 13 0.86 0.22
-5 -1 13 0.82 0.05
-5 -1 13 0.73 0.06
-5 -1 13 0.92 0.07
-5 1 13 0.84 0.11
-5 1 13 0.93 0.08
-5 1 13 0.83 0.21
-5 1 13 0.75 0.3
-5 1 13 1.16 0.21
-5 1 13 0.96 0.09
-5 1 13 0.84 0.1
-5 1 13 0.86 0.1
-4 -1 13 10.66 0.56
-4 -1 13 11.09 0.65
-4 -1 13 10.66 0.48
-4 -1 13 10.78 0.6
-4 -1 13 10.57 0.48
-4 1 13 11.71 0.57
-4 1 13 10.6 0.5
-4 1 13 11.21 0.66
-4 1 13 10.96 0.52
-4 1 13 10.49 0.5
-4 1 13 10.75 0.6
-4 1 13 10.8 0.5
-4 1 13 11.22 0.52
-4 1 13 10.55 0.66
-3 -1 13 4.6 0.31
-3 -1 13 5.01 0.41
-3 1 13 4.57 0.27
-3 1 13 5.11 0.33
-3 1 13 4.78 0.4
2 -1 -13 23.45 1.08
-2 -1 13 22.83 1.17
-2 -1 13 23 1.01
-2 1 13 22.35 1.17
-2 1 13 22.97 1.05
1 -1 -13 7.97 0.44
-1 -1 13 8.04 0.38
-1 -1 13 8.16 0.39
-1 1 13 7.78 0.39
-1 1 13 8.32 0.53
-1 1 13 7.61 0.41
0 -1 13 -0.01 0.08
0 -1 -13 -0.1 0.1
0 -1 13 0.18 0.08
0 1 13 0.06 0.1
0 1 13 -0.02 0.06
1 -1 13 20.41 0.95
1 -1 13 22.24 0.97
-1 -1 -13 20.92 0.99
1 -1 13 20.76 0.98
-1 -1 -13 20.03 1.03
-1 1 -13 21.16 1.01
1 1 13 20.83 0.99
1 1 13 21.63 0.98
-2 -1 -13 46.2 2.14
2 -1 13 50.15 2.13
2 1 13 46.6 2.15
2 1 13 46.7 2.16
2 1 13 47.07 2.14
3 -1 13 -0.02 0.09
3 -1 13 0.3 0.14
-3 -1 -13 0.25 0.14
3 1 13 0.14 0.09
3 1 13 -0.18 0.16
-3 1 -13 0.08 0.14
-4 -1 -13 1.15 0.2
-4 -1 -13 1.05 0.31
4 -1 13 0.88 0.24
-4 -1 -13 1.17 0.18
-4 1 -13 1.65 0.23
4 1 13 0.98 0.14
4 1 13 1.24 0.21
-4 1 -13 1.19 0.32
4 1 13 1.42 0.24
5 -1 13 11.15 0.65
5 -1 13 11.21 0.62
5 -1 13 11.37 0.59
-5 -1 -13 11.4 0.72
-5 -1 -13 11.13 0.67
5 1 13 11.28 0.63
-5 1 -13 12.09 0.73
5 1 13 12.58 0.6
6 -1 13 2.11 0.25
6 -1 13 2.15 0.19
-6 -1 -13 1.83 0.21
-6 1 -13 1.61 0.23
6 1 13 1.88 0.18
-6 1 -13 2.67 0.25
7 -2 -13 0.4 0.11
-7 2 13 0.44 0.1
-7 2 13 0.09 0.12
-7 2 13 0.31 0.06
-7 2 13 0.32 0.08
-7 2 13 0.3 0.05
-6 -2 13 4.69 0.21
-6 2 13 4.48 0.39
-6 2 13 4.5 0.25
-6 2 13 4.79 0.23
-6 2 13 4.55 0.25
-5 -2 13 5.43 0.24
-5 2 13 5.73 0.3
-5 2 13 5.25 0.28
-5 2 13 5.33 0.33
-5 2 13 4.87 0.29
-5 2 13 5.36 0.36
-5 2 13 5.78 0.46
-5 2 13 5.14 0.29
-4 -2 13 2.95 0.13
-4 2 13 2.88 0.21
-4 2 13 2.79 0.38
-4 2 13 2.95 0.27
-4 2 13 2.66 0.2
-4 2 13 3.09 0.36
-4 2 13 2.67 0.23
-4 2 13 2.68 0.19
-4 2 13 2.74 0.2
-3 2 13 1.56 0.14
-3 2 13 1.85 0.2
-3 2 13 1.36 0.17
-3 2 13 1.44 0.27
-3 2 13 1.63 0.16
-3 2 13 1.54 0.26
-3 2 13 1.3 0.32
-3 2 13 1.11 0.38
-3 2 13 1.77 0.17
-2 2 13 2.05 0.26
-2 2 13 3.14 0.21
-2 2 13 2.69 0.23
-2 2 13 2.92 0.32
-2 2 13 3.34 0.42
-2 2 13 1.9 0.24
-2 2 13 1.74 0.31
-2 2 13 1.78 0.47
-1 -2 13 6.25 0.31
1 -2 -13 6.6 0.37
-1 2 13 6.25 0.48
-1 2 13 5.73 0.36
-1 2 13 6.73 0.36
0 -2 -13 2.83 0.22
0 -2 13 2.44 0.17
0 -2 -13 2.13 0.31
0 -2 13 2.6 0.19
0 2 13 2.23 0.28
0 2 13 2.73 0.25
0 2 13 2.65 0.22
0 2 13 2.6 0.22
0 2 13 2.43 0.22
1 -2 13 32.14 1.43
-1 -2 -13 31.77 1.44
1 -2 13 30.69 1.41
1 2 13 31.9 1.46
1 2 13 29.88 1.43
1 2 13 30.65 1.43
-2 -2 -13 13.68 0.65
2 -2 13 12.33 0.59
2 -2 13 12.02 0.59
2 -2 13 12.53 0.59
2 -2 13 12.1 0.62
2 2 13 12.88 0.67
2 2 13 12.69 0.62
2 2 13 11.84 0.59
3 -2 13 9.87 0.52
3 -2 13 10.5 0.51
-3 -2 -13 10.58 0.57
3 -2 13 10.7 0.55
-3 -2 -13 11.48 0.54
-3 -2 -13 11.65 0.71
3 -2 13 9.84 0.51
-3 2 -13 10.7 0.57
3 2 13 10.45 0.58
3 2 13 10.19 0.52
3 2 13 10.73 0.6
4 -2 13 0.47 0.15
-4 -2 -13 0.46 0.25
-4 -2 -13 0.73 0.18
-4 -2 -13 0.35 0.11
4 2 13 0.68 0.19
4 2 13 0.35 0.1
-4 2 -13 0.39 0.14
4 2 13 0.52 0.16
-5 -2 -13 1.56 0.22
5 -2 13 1.6 0.18
5 -2 13 1.28 0.25
5 2 13 1.49 0.19
-5 2 -13 1.73 0.3
-6 -2 -13 2.11 0.19
6 -2 13 2.26 0.17
6 -2 13 2.4 0.22
-6 -2 -13 2.11 0.2
6 2 13 1.79 0.19
-6 2 -13 1.55 0.19
-6 2 -13 1.5 0.21
6 -3 -13 3.81 0.25
6 -3 -13 3.36 0.28
-6 3 13 3.66 0.19
-6 3 13 3.4 0.33
-6 3 13 3.91 0.21
5 -3 -13 3.59 0.29
-5 3 13 4.12 0.41
-5 3 13 4 0.32
-5 3 13 3.56 0.22
-5 3 13 3.36 0.21
-5 3 13 3.6 0.23
-5 3 13 3.27 0.34
4 -3 -13 3.6 0.31
-4 3 13 3.66 0.28
-4 3 13 3.31 0.42
-4 3 13 3.19 0.22
-4 3 13 3.26 0.39
-4 3 13 2.92 0.23
-4 3 13 3.31 0.23
-4 3 13 3.09 0.21
3 -3 -13 3.86 0.34
-3 -3 13 3.92 0.18
3 -3 -13 4.22 0.28
-3 -3 13 3.78 0.18
-3 3 13 3.88 0.25
-3 3 13 4.23 0.32
-3 3 13 4.29 0.41
-3 3 13 3.93 0.34
-3 3 13 3.96 0.27
-3 3 13 4.3 0.46
-3 3 13 4.17 0.28
-3 3 13 3.91 0.26
-3 3 13 3.97 0.25
2 -3 -13 8.97 0.49
-2 -3 13 8.89 0.41
2 -3 -13 8.68 0.56
-2 -3 13 9.89 0.88
-2 3 13 8.89 0.47
-2 3 13 10 0.49
-2 3 13 9.2 0.48
-2 3 13 8.69 0.53
-2 3 13 9.29 0.48
-2 3 13 9.25 0.68
-2 3 13 9.67 0.59
-2 3 13 9.6 0.62
-1 -3 13 1.1 0.08
-1 -3 13 1.04 0.07
1 -3 -13 1.2 0.27
-1 -3 13 1.45 0.46
-1 -3 13 1.05 0.07
1 -3 -13 0.9 0.18
-1 3 13 0.84 0.18
-1 3 13 1.06 0.26
-1 3 13 0.96 0.31
-1 3 13 1.22 0.21
-1 3 13 1.12 0.33
-1 3 13 0.99 0.19
-1 3 13 0.97 0.21
-1 3 13 0.99 0.18
0 -3 -13 13.81 0.77
0 -3 13 13.76 0.62
0 -3 -13 14.5 0.7
0 -3 13 13.21 0.61
0 -3 13 13.98 0.61
0 -3 13 13.5 0.61
0 -3 13 13.24 0.62
0 -3 13 13.86 0.63
0 3 13 13.52 0.67
0 3 13 13.19 0.7
0 3 13 13.77 0.72
0 3 13 13.09 0.67
0 3 13 14.79 0.82
0 3 13 13.5 0.75
1 -3 13 10.37 0.51
1 -3 13 10.76 0.51
-1 -3 -13 12.21 0.73
-1 -3 -13 11.65 0.58
1 -3 13 10.59 0.53
-1 -3 -13 11.51 0.66
1 -3 13 9.7 0.5
1 -3 13 10.99 0.56
-1 -3 -13 10.25 0.54
1 -3 13 10.4 0.5
1 3 13 11.29 0.6
1 3 13 11.59 0.52
1 3 13 10.7 0.55
1 3 13 11.07 0.63
1 3 13 11.23 0.61
1 3 13 11.3 0.69
1 3 13 9.85 0.55
2 -3 13 0.58 0.13
-2 -3 -13 0.81 0.14
2 -3 13 0.74 0.13
-2 -3 -13 0.77 0.29
2 -3 13 0.96 0.12
2 -3 13 0.65 0.11
-2 -3 -13 1.16 0.27
-2 -3 -13 0.7 0.18
2 3 13 0.64 0.2
2 3 13 0.96 0.23
2 3 13 0.63 0.15
2 3 13 0.68 0.21
2 3 13 0.73 0.16
3 -3 13 14.08 0.66
-3 -3 -13 13.96 0.81
3 -3 13 13.83 0.65
-3 -3 -13 14.78 0.72
-3 -3 -13 14.47 0.76
-3 -3 -13 13.04 0.67
3 -3 13 13.37 0.69
3 -3 13 14.19 0.66
3 3 13 13.9 0.67
3 3 13 14.47 0.72
3 3 13 14.89 0.75
-4 -3 -13 1.79 0.23
4 -3 13 2.1 0.17
4 -3 13 2.24 0.15
4 -3 13 1.93 0.26
4 -3 13 2.26 0.16
4 3 13 2.1 0.22
5 -3 13 0.16 0.1
-5 -3 -13 0.05 0.12
-5 -3 -13 0.15 0.11
5 -3 13 0.01 0.15
5 3 13 0.01 0.06
-5 3 -13 -0.01 0.15
5 3 13 -0.06 0.09
5 -4 -13 3.61 0.28
5 -4 -13 3.72 0.26
-5 4 13 3.95 0.22
-5 4 13 3.72 0.21
-5 4 13 3.59 0.21
4 -4 -13 14.68 0.78
4 -4 -13 14.39 0.73
-4 4 13 15.38 0.7
-4 4 13 13.93 0.67
-4 4 13 13.37 0.81
-4 4 13 14.45 0.67
-4 4 13 14.05 0.7
-4 4 13 13.9 0.76
3 -4 -13 2.53 0.27
-3 -4 13 2.53 0.12
3 -4 -13 2.69 0.3
-3 4 13 1.74 0.37
-3 4 13 2.38 0.33
-3 4 13 2.51 0.24
-3 4 13 2.51 0.25
-3 4 13 2.34 0.2
2 -4 -13 8.12 0.42
2 -4 -13 7.13 0.51
2 -4 -13 8.05 0.49
-2 -4 13 6.86 0.33
-2 -4 13 6.58 0.7
-2 4 13 7.07 0.44
-2 4 13 7.04 0.42
-2 4 13 7.4 0.39
-2 4 13 7.25 0.43
-2 4 13 6.53 0.46
-2 4 13 7.75 0.52
-2 4 13 7.23 0.58
1 -4 -13 4.69 0.31
-1 -4 13 4.69 0.21
1 -4 -13 4.22 0.27
1 -4 -13 4.68 0.41
-1 -4 13 4.35 0.21
-1 -4 13 4.79 0.61
1 -4 -13 4.6 0.38
-1 -4 13 4.42 0.21
-1 4 13 3.76 0.32
-1 4 13 4.56 0.42
-1 4 13 4.23 0.29
-1 4 13 4.32 0.29
-1 4 13 4.34 0.33
-1 4 13 4.29 0.37
-1 4 13 4.3 0.45
-1 4 13 4.39 0.33
0 -4 -13 0.57 0.21
0 -4 -13 0.25 0.19
0 -4 13 0.39 0.06
0 -4 13 0.28 0.08
0 -4 -13 0.24 0.11
0 -4 13 0.14 0.3
0 -4 -13 0.51 0.11
0 -4 13 0.33 0.06
0 4 13 0.25 0.28
0 4 13 0.21 0.11
0 4 13 0.43 0.21
0 4 13 0.52 0.17
0 4 13 0.25 0.14
0 4 13 0.43 0.13
0 4 13 0.26 0.14
0 4 13 0.42 0.18
1 -4 13 5.61 0.29
-1 -4 -13 5.21 0.4
-1 -4 -13 4.63 0.33
-1 -4 -13 5.55 0.31
1 -4 13 5.5 0.28
1 -4 13 5.01 0.27
1 -4 13 5.31 0.26
-1 -4 -13 5.88 0.45
1 -4 13 5.75 0.26
1 4 13 5.74 0.41
1 4 13 5.93 0.35
1 4 13 5.33 0.43
1 4 13 4.28 0.29
1 4 13 5.19 0.37
1 4 13 5.85 0.37
1 4 13 5.42 0.32
1 4 13 5.28 0.47
2 -4 13 9.9 0.45
2 -4 13 9.6 0.43
-2 -4 -13 8.65 0.53
-2 -4 -13 8.26 0.55
2 -4 13 8.77 0.44
2 4 13 9.16 0.59
2 4 13 9.36 0.53
2 4 13 10.01 0.56
2 4 13 9.36 0.48
2 4 13 9.99 0.52
3 -4 13 6.85 0.33
3 -4 13 7.19 0.34
3 -4 13 6.94 0.34
3 4 13 6.81 0.39
3 4 13 5.5 0.4
3 4 13 7.71 0.37
4 -4 13 0.96 0.11
-4 -4 -13 1.13 0.17
-4 -4 -13 0.93 0.17
4 -4 13 1.25 0.1
4 -4 13 0.47 0.18
4 -4 13 1.01 0.1
4 4 13 1.15 0.13
4 4 13 0.84 0.14
-3 -5 13 2.68 0.12
3 -5 -13 2.29 0.22
-3 -5 13 2.9 0.12
3 -5 -13 2.41 0.21
-3 5 13 1.84 0.27
-3 5 13 3.03 0.18
-3 5 13 2.22 0.19
-3 5 13 2.67 0.21
2 -5 -13 4.1 0.31
2 -5 -13 4.1 0.29
-2 -5 13 4.18 0.19
-2 5 13 4.07 0.27
-2 5 13 4.19 0.27
-1 -5 13 7.06 0.61
-1 -5 13 5.89 0.27
-1 -5 13 6.18 0.27
1 -5 -13 6.12 0.37
1 -5 -13 5.3 0.38
-1 5 13 6.09 0.35
-1 5 13 6.73 0.47
-1 5 13 5.76 0.35
-1 5 13 4.9 0.36
0 -5 13 3.47 0.17
0 -5 13 3.43 0.16
0 -5 -13 3.25 0.26
0 -5 13 3.41 0.16
0 5 13 3.81 0.26
0 5 13 2.87 0.39
0 5 13 3.01 0.28
0 5 13 3.55 0.35
0 5 13 3.46 0.24
1 -5 13 0.65 0.07
1 -5 13 0.49 0.05
1 -5 13 0.53 0.06
1 5 13 0.41 0.12
1 5 13 0.59 0.14
1 5 13 0.49 0.15
1 5 13 0.65 0.31
1 5 13 0.5 0.19
1 5 13 0.54 0.2
-2 -5 -13 1.67 0.18
2 -5 13 1.45 0.1
2 -5 13 1.53 0.11
-2 -5 -13 1.53 0.18
2 5 13 1.44 0.14
2 5 13 1.48 0.15
2 5 13 1.45 0.19
2 5 13 1.13 0.2
2 5 13 1.61 0.15
-3 -5 -13 1.03 0.19
3 5 13 1.09 0.14
-7 0 14 0.33 0.05
-6 0 14 0.53 0.04
-6 0 14 0.57 0.07
-5 0 14 4.07 0.21
-5 0 14 4.12 0.19
-5 0 14 4.41 0.38
-5 0 14 4.41 0.2
-5 0 14 4.27 0.2
-5 0 14 4.68 0.35
-5 0 14 4.15 0.19
-4 0 14 0.6 0.26
-4 0 14 0.68 0.18
-4 0 14 0.73 0.21
-4 0 14 0.6 0.07
-4 0 14 0.5 0.05
-4 0 14 0.5 0.05
-4 0 14 0.62 0.06
-4 0 14 0.52 0.07
-3 0 14 0.18 0.04
-3 0 14 0.24 0.05
-3 0 14 0.1 0.17
-3 0 14 0.16 0.04
-3 0 14 0.23 0.13
-3 0 14 0.03 0.19
-3 0 14 0.19 0.05
-3 0 14 0.31 0.06
-2 0 14 1.87 0.16
-2 0 14 2.2 0.21
-2 0 14 1.96 0.13
-2 0 14 2.06 0.14
-2 0 14 1.82 0.54
-2 0 14 1.72 0.27
-2 0 14 1.92 0.19
-1 0 14 0.09 0.08
-1 0 14 0.12 0.08
0 0 14 12.59 0.63
0 0 14 13.18 0.62
1 0 14 3 0.22
2 0 14 5.71 0.32
2 0 14 5.67 0.33
2 0 14 6.5 0.35
-2 0 -14 6.03 0.36
-3 0 -14 1.05 0.2
3 0 14 1.23 0.18
4 0 14 0.42 0.17
-4 0 -14 0.66 0.17
-4 0 -14 0.82 0.29
-4 0 -14 0.74 0.19
4 0 14 0.76 0.2
5 0 14 0.17 0.13
-5 0 -14 0.07 0.17
-5 0 -14 0.26 0.13
6 0 14 1.44 0.16
-6 0 -14 1.19 0.17
-7 -1 14 0 0.01
-7 -1 14 0.03 0.02
-7 1 14 0.01 0.02
-6 -1 14 13.97 0.62
-6 1 14 12.57 0.74
-6 1 14 13.83 0.69
-6 1 14 14.12 0.63
-6 1 14 13.67 0.61
-6 1 14 14.59 0.62
-6 1 14 13.66 0.62
-6 1 14 14.67 0.62
-5 -1 14 1.95 0.11
-5 1 14 1.83 0.11
-5 1 14 2.02 0.32
-5 1 14 1.93 0.14
-5 1 14 2.2 0.23
-5 1 14 1.9 0.26
-5 1 14 2.12 0.12
-5 1 14 2.1 0.29
-5 1 14 1.89 0.13
-4 -1 14 2.24 0.31
-4 -1 14 2.22 0.26
-4 -1 14 2.51 0.24
-4 -1 14 2.29 0.12
-4 1 14 2.12 0.16
-4 1 14 2.41 0.29
-4 1 14 2.06 0.15
-4 1 14 2.41 0.14
-4 1 14 2.38 0.32
-4 1 14 2.21 0.13
-4 1 14 2.22 0.13
-4 1 14 2.33 0.24
-4 1 14 2.19 0.3
-3 -1 14 1.4 0.07
-3 -1 14 1.36 0.07
-3 -1 14 1.43 0.28
-3 -1 14 1.16 0.23
-3 -1 14 1.4 0.08
-3 1 14 1.22 0.13
-3 1 14 1.52 0.11
-3 1 14 1.61 0.23
-3 1 14 1.41 0.2
-3 1 14 1.3 0.29
-3 1 14 1.33 0.13
-3 1 14 1.31 0.1
-3 1 14 1.55 0.12
-3 1 14 1.1 0.29
-2 -1 14 7.99 0.5
-2 -1 14 6.89 0.32
-2 -1 14 7.13 0.32
-2 -1 14 6.7 0.32
-2 -1 14 7 0.31
-2 -1 14 7.13 0.51
-2 1 14 7.56 0.45
-2 1 14 6.58 0.34
-2 1 14 7.17 0.36
-2 1 14 7.34 0.5
-2 1 14 6.77 0.36
-2 1 14 7.32 0.51
-2 1 14 6.85 0.34
-2 1 14 6.79 0.36
-2 1 14 8 0.41
-1 -1 14 5.94 0.31
-1 1 14 6.12 0.45
-1 1 14 6.17 0.36
-1 1 14 6.28 0.34
0 -1 14 1.46 0.16
0 -1 14 1.51 0.14
0 1 14 1.48 0.19
0 1 14 1.67 0.18
1 -1 14 11.75 0.53
1 -1 14 10.82 0.54
1 -1 14 10.43 0.5
1 -1 14 10.33 0.51
-1 -1 -14 10.9 0.55
1 1 14 10.38 0.54
1 1 14 10.25 0.52
1 1 14 10.54 0.54
2 -1 14 10.25 0.5
2 -1 14 10.4 0.53
-2 -1 -14 10.82 0.55
2 -1 14 9.84 0.5
2 1 14 10.27 0.54
2 1 14 9.89 0.55
2 1 14 10.71 0.56
3 -1 14 6.44 0.36
3 -1 14 5.86 0.33
-3 -1 -14 6.63 0.53
-3 -1 -14 6.15 0.38
3 -1 14 5.66 0.33
-3 1 -14 6.02 0.38
3 1 14 6.19 0.4
-4 -1 -14 14.06 0.82
-4 -1 -14 13.4 0.68
4 -1 14 13.53 0.69
-4 -1 -14 13.49 0.7
-4 1 -14 14.05 0.71
4 1 14 13.51 0.7
4 1 14 13.88 0.72
-4 1 -14 15.06 0.85
5 -1 14 0.21 0.12
-5 -1 -14 0.31 0.16
-5 1 -14 0.21 0.18
5 1 14 0.29 0.13
6 -1 14 0.12 0.14
6 -1 14 -0.03 0.08
-6 1 -14 0.08 0.1
6 1 14 0.22 0.08
-6 1 -14 0.07 0.14
-6 2 14 0.13 0.16
-6 2 14 0.32 0.06
-6 2 14 0.17 0.06
-6 2 14 0.34 0.09
-6 2 14 0.46 0.07
-5 2 14 5.42 0.43
-5 2 14 5.2 0.32
-5 2 14 5.53 0.35
-5 2 14 4.85 0.28
-5 2 14 5.2 0.26
-5 2 14 5.25 0.26
-5 2 14 5.29 0.28
-4 2 14 12.85 0.57
-4 2 14 11.95 0.58
-4 2 14 11.67 0.71
-4 2 14 12.19 0.58
-4 2 14 11.6 0.68
-4 2 14 12.7 0.61
-4 2 14 11.42 0.57
-4 2 14 12.53 0.64
-3 2 14 0.42 0.16
-3 2 14 0.15 0.22
-3 2 14 0.53 0.14
-3 2 14 0.48 0.14
-3 2 14 0.55 0.12
-3 2 14 0.48 0.13
-3 2 14 0.45 0.11
-3 2 14 0.26 0.28
-3 2 14 0.68 0.28
-2 -2 14 0.72 0.05
-2 2 14 0.74 0.12
-2 2 14 0.79 0.26
-2 2 14 0.98 0.24
-2 2 14 0.84 0.15
-2 2 14 0.88 0.14
-2 2 14 0.78 0.33
-2 2 14 0.79 0.16
-2 2 14 0.49 0.13
-2 2 14 0.8 0.35
-1 -2 14 13.51 0.62
-1 -2 14 13.83 0.63
-1 -2 14 13.09 0.63
-1 2 14 13.38 0.67
-1 2 14 15.44 0.69
-1 2 14 13.83 0.67
-1 2 14 13.59 0.72
-1 2 14 14.94 0.68
-1 2 14 14.37 0.82
-1 2 14 13.94 0.87
-1 2 14 14.81 0.78
-1 2 14 15.49 0.7
0 -2 14 0.43 0.09
0 -2 14 0.48 0.07
0 -2 14 0.32 0.06
0 -2 14 0.28 0.07
0 -2 14 0.42 0.1
0 -2 14 0.44 0.09
0 -2 -14 0.34 0.12
0 2 14 0.52 0.23
0 2 14 0.45 0.12
0 2 14 0.42 0.24
0 2 14 0.54 0.13
0 2 14 0.51 0.14
0 2 14 0.65 0.15
0 2 14 0.57 0.13
1 -2 14 4.44 0.25
1 -2 14 4.81 0.23
1 -2 14 4.68 0.3
1 -2 14 4.76 0.24
-1 -2 -14 4.64 0.31
1 -2 14 4.3 0.27
1 2 14 4.5 0.39
1 2 14 4.63 0.31
1 2 14 4.51 0.31
1 2 14 4.18 0.41
1 2 14 4.7 0.31
1 2 14 4.69 0.33
2 -2 14 8.19 0.44
2 -2 14 8.23 0.4
2 -2 14 8.2 0.41
-2 -2 -14 8.29 0.46
-2 -2 -14 8.87 0.62
2 2 14 8.33 0.45
2 2 14 7.43 0.48
2 2 14 7.98 0.44
-3 -2 -14 21.63 1.1
-3 -2 -14 20.27 0.93
-3 -2 -14 20.2 0.96
3 -2 14 19.77 0.93
3 -2 14 19.31 0.9
3 -2 14 19.46 0.91
3 2 14 19.78 0.97
3 2 14 20.24 0.93
3 2 14 19 0.96
3 2 14 19 0.92
4 -2 14 1.2 0.23
4 -2 14 1.56 0.15
4 -2 14 1.48 0.15
-4 -2 -14 1.42 0.27
-4 2 -14 1.58 0.27
4 2 14 1.89 0.29
4 2 14 1.79 0.22
5 -2 14 2.63 0.2
5 2 14 2.95 0.22
-5 2 -14 2.74 0.29
5 -3 -14 1.46 0.2
-5 3 14 1.58 0.14
-5 3 14 1.58 0.27
-5 3 14 1.53 0.19
-5 3 14 1.6 0.14
-5 3 14 1.7 0.12
-5 3 14 1.26 0.28
4 -3 -14 2.5 0.25
-4 3 14 2.66 0.25
-4 3 14 2.19 0.37
-4 3 14 2.55 0.17
-4 3 14 1.78 0.27
-4 3 14 2.49 0.19
-4 3 14 2.33 0.26
-4 3 14 2.5 0.33
-4 3 14 2.21 0.18
3 -3 -14 2.78 0.29
-3 3 14 2.83 0.22
-3 3 14 2.51 0.4
-3 3 14 2.78 0.31
-3 3 14 2.55 0.21
-3 3 14 2.9 0.35
-3 3 14 3.03 0.29
-3 3 14 2.83 0.2
-3 3 14 2.93 0.2
-3 3 14 3.16 0.22
-2 -3 14 1.54 0.08
2 -3 -14 1.59 0.27
2 -3 -14 1.57 0.18
-2 3 14 1.54 0.37
-2 3 14 1.57 0.25
-2 3 14 1.57 0.28
-2 3 14 1.48 0.16
-2 3 14 1.43 0.35
-2 3 14 1.45 0.2
-2 3 14 1.31 0.18
-2 3 14 1.5 0.17
-2 3 14 1.46 0.18
1 -3 -14 8.95 0.55
-1 -3 14 8.59 0.39
1 -3 -14 8.9 0.47
-1 -3 14 8.29 0.39
-1 -3 14 7.47 0.75
-1 3 14 9.09 0.46
-1 3 14 8.6 0.6
-1 3 14 8.78 0.47
-1 3 14 8.63 0.49
-1 3 14 9.48 0.48
-1 3 14 9.65 0.67
-1 3 14 8.66 0.56
0 -3 -14 16.82 0.83
0 -3 -14 14.91 1.15
0 -3 -14 18.16 0.91
0 -3 14 17.76 0.76
0 -3 14 17.19 0.76
0 -3 14 16.6 0.77
0 -3 14 15.5 0.76
0 3 14 17.49 0.85
0 3 14 17.12 1
0 3 14 16.78 0.82
0 3 14 19.09 0.91
0 3 14 16.22 0.81
0 3 14 18.27 0.95
-1 -3 -14 0.11 0.12
1 -3 14 0.14 0.05
1 -3 14 0.21 0.05
1 -3 14 0.19 0.07
1 -3 14 0.21 0.08
-1 -3 -14 0.17 0.2
1 -3 14 0.18 0.05
-1 -3 -14 0.2 0.22
-1 -3 -14 0.27 0.12
1 3 14 0.21 0.11
1 3 14 0 0.13
1 3 14 0.14 0.16
1 3 14 0.23 0.16
1 3 14 0.23 0.21
1 3 14 0.36 0.12
2 -3 14 0.32 0.08
-2 -3 -14 0.17 0.19
2 -3 14 0.43 0.15
-2 -3 -14 0.38 0.12
2 -3 14 0.28 0.07
-2 -3 -14 0.47 0.23
-2 -3 -14 0.35 0.12
2 -3 14 0.37 0.08
2 -3 14 0.11 0.1
2 3 14 0.53 0.17
2 3 14 0.34 0.15
2 3 14 0.54 0.17
2 3 14 0.21 0.11
2 3 14 0.39 0.12
3 -3 14 5.01 0.27
-3 -3 -14 4.44 0.39
3 -3 14 5.19 0.26
3 -3 14 5.19 0.3
3 -3 14 4.6 0.27
-3 -3 -14 5.11 0.37
3 3 14 5.11 0.3
3 3 14 5.55 0.34
3 3 14 5.18 0.4
4 -3 14 2.12 0.15
4 -3 14 2 0.14
-4 3 -14 1.75 0.27
4 3 14 1.83 0.16
4 3 14 1.57 0.19
5 -3 14 0.45 0.12
5 -3 14 0.57 0.11
-5 -3 -14 0.68 0.2
-5 3 -14 0.43 0.18
4 -4 -14 1.55 0.18
4 -4 -14 1.26 0.2
-4 4 14 1.55 0.18
-4 4 14 0.9 0.26
-4 4 14 1.5 0.13
-4 4 14 1.4 0.18
-4 4 14 1.16 0.23
-4 4 14 1.49 0.14
-4 4 14 1.48 0.14
3 -4 -14 2.39 0.25
3 -4 -14 2.63 0.28
-3 4 14 2.06 0.21
-3 4 14 2.43 0.23
-3 4 14 2.09 0.3
-3 4 14 2.22 0.18
-3 4 14 1.99 0.16
-3 4 14 2.03 0.34
-2 -4 14 6.17 0.28
2 -4 -14 6.13 0.45
2 -4 -14 6.08 0.42
-2 4 14 6.57 0.46
-2 4 14 6.5 0.38
-2 4 14 6.82 0.4
-2 4 14 5.6 0.5
-2 4 14 6.67 0.35
-2 4 14 6.12 0.41
-1 -4 14 0.25 0.3
1 -4 -14 0.16 0.18
1 -4 -14 0.14 0.17
-1 -4 14 0.1 0.03
-1 4 14 0.13 0.21
-1 4 14 0.19 0.16
-1 4 14 0.03 0.1
-1 4 14 0.08 0.26
-1 4 14 -0.12 0.12
-1 4 14 0.04 0.13
-1 4 14 0.06 0.1
0 -4 -14 7.37 0.48
0 -4 14 7.17 0.34
0 -4 14 7.44 0.33
0 -4 -14 7.84 0.52
0 -4 14 7.39 0.34
0 -4 14 6.7 0.33
0 4 14 8.06 0.44
0 4 14 8.39 0.49
0 4 14 7.6 0.52
0 4 14 7.27 0.39
0 4 14 6.98 0.43
0 4 14 6.88 0.55
0 4 14 6.85 0.39
0 4 14 7.81 0.43
1 -4 14 10.32 0.46
-1 -4 -14 8.98 0.59
1 -4 14 10.07 0.45
1 -4 14 9.63 0.45
-1 -4 -14 10.46 0.57
1 4 14 9.68 0.61
1 4 14 9.39 0.53
1 4 14 10.66 0.51
1 4 14 10.59 0.52
1 4 14 10.58 0.67
1 4 14 9.55 0.56
2 -4 14 1.58 0.1
2 -4 14 1.64 0.12
-2 -4 -14 1.2 0.21
2 -4 14 1.57 0.12
-2 -4 -14 1.04 0.21
2 -4 14 1.53 0.1
2 4 14 1.74 0.23
2 4 14 1.69 0.17
2 4 14 1.43 0.19
2 4 14 1.41 0.27
3 -4 14 1.96 0.13
3 -4 14 2.06 0.13
3 -4 14 1.88 0.11
3 4 14 1.74 0.16
3 4 14 1.72 0.24
3 4 14 1.65 0.19
3 4 14 1.42 0.17
-2 -5 14 1.46 0.07
2 -5 -14 1.17 0.16
2 -5 -14 1.27 0.16
-2 -5 14 1.54 0.07
-2 5 14 1.07 0.13
-2 5 14 1.36 0.16
-2 5 14 1.47 0.16
-2 5 14 1.81 0.26
1 -5 -14 5.72 0.36
-1 -5 14 6.49 0.28
1 -5 -14 5.54 0.35
-1 5 14 6.24 0.39
-1 5 14 7.45 0.35
-1 5 14 5.96 0.34
-1 5 14 6.17 0.36
0 -5 14 2.1 0.11
0 5 14 1.66 0.18
0 5 14 1.9 0.2
0 5 14 2.21 0.26
0 5 14 1.65 0.17
0 5 14 2.49 0.24
1 -5 14 5.7 0.25
1 5 14 5.46 0.33
1 5 14 4.37 0.3
1 5 14 5.95 0.41
1 5 14 5.81 0.3
-6 0 15 0.61 0.06
-5 0 15 0.13 0.04
-5 0 15 0.12 0.14
-5 0 15 0.12 0.02
-5 0 15 0.12 0.02
-4 0 15 0.59 0.17
-4 0 15 0.36 0.21
-4 0 15 0.28 0.04
-4 0 15 0.02 0.16
-4 0 15 0.28 0.04
-4 0 15 0.33 0.06
-3 0 15 1.06 0.08
-3 0 15 0.94 0.06
-3 0 15 1.06 0.18
-3 0 15 1.05 0.07
-3 0 15 0.97 0.27
-3 0 15 1.05 0.09
-3 0 15 1.12 0.08
-3 0 15 1.09 0.07
-3 0 15 0.88 0.21
-2 0 15 9.6 0.44
-2 0 15 10.08 0.46
-2 0 15 9.92 0.6
-2 0 15 9.41 0.44
-2 0 15 9.24 0.44
-2 0 15 9.85 0.52
-2 0 15 9.76 0.45
-1 0 15 4.19 0.37
-1 0 15 4.46 0.24
-1 0 15 4.21 0.22
-1 0 15 4.09 0.22
-1 0 15 4.64 0.26
-1 0 15 4.36 0.24
-1 0 15 4.29 0.22
0 0 15 29.71 1.35
0 0 15 28.02 1.33
0 0 15 30.83 1.37
0 0 15 30.64 1.34
0 0 15 30.74 1.35
1 0 15 1.64 0.18
1 0 15 1.5 0.16
1 0 15 1.98 0.18
2 0 15 0.39 0.12
2 0 15 0.4 0.1
2 0 15 0.3 0.12
3 0 15 31.47 1.45
3 0 15 32.7 1.48
3 0 15 32.8 1.46
4 0 15 1.73 0.21
-4 0 -15 1.87 0.3
-5 0 -15 0.86 0.2
5 0 15 1.29 0.16
-6 1 15 0.63 0.25
-6 1 15 0.45 0.04
-5 -1 15 4.67 0.21
-5 -1 15 4.58 0.21
-5 1 15 4.99 0.21
-5 1 15 4.6 0.22
-5 1 15 3.76 0.37
-5 1 15 4.85 0.32
-5 1 15 4.51 0.23
-5 1 15 4.96 0.22
-5 1 15 4.86 0.3
-5 1 15 4.61 0.21
-5 1 15 4.3 0.35
-4 -1 15 17.55 0.76
-4 -1 15 16.59 0.86
-4 1 15 17.07 0.76
-4 1 15 16.33 0.9
-4 1 15 17.39 0.77
-4 1 15 17.83 0.78
-4 1 15 16.76 0.77
-4 1 15 17.55 0.83
-4 1 15 17.9 0.86
-3 -1 15 4.78 0.41
-3 -1 15 4.41 0.35
-3 -1 15 4.82 0.22
-3 1 15 4.78 0.23
-3 1 15 4.84 0.24
-3 1 15 4.85 0.23
-3 1 15 4.92 0.31
-3 1 15 4.77 0.25
-3 1 15 4.63 0.42
-3 1 15 4.47 0.34
-3 1 15 4.65 0.25
-2 -1 15 2.25 0.11
-2 -1 15 2.39 0.3
-2 -1 15 2.19 0.11
-2 -1 15 2.24 0.12
-2 1 15 2 0.14
-2 1 15 2.1 0.16
-2 1 15 1.97 0.27
-2 1 15 2.24 0.23
-2 1 15 2.07 0.14
-2 1 15 2.34 0.3
-2 1 15 2.34 0.17
-2 1 15 2.28 0.16
-1 -1 15 1.28 0.09
-1 -1 15 1.37 0.12
-1 -1 15 1.07 0.1
-1 -1 15 1.31 0.09
-1 -1 15 1.22 0.09
-1 1 15 1.11 0.12
-1 1 15 1.49 0.14
-1 1 15 1.18 0.18
-1 1 15 1.22 0.15
-1 1 15 1.26 0.17
-1 1 15 1.29 0.26
0 -1 15 8.31 0.41
0 -1 15 8.29 0.39
0 -1 15 8.63 0.41
0 -1 15 8.85 0.43
0 -1 15 8.21 0.39
0 1 15 8.1 0.42
0 1 15 8.67 0.53
0 1 15 8.02 0.43
0 1 15 8.29 0.44
0 1 15 8.74 0.43
0 1 15 8.32 0.45
1 -1 15 10.01 0.47
1 -1 15 9.61 0.47
1 -1 15 9.66 0.48
1 -1 15 10.26 0.5
1 -1 15 9.52 0.46
1 1 15 9.76 0.49
1 1 15 9.55 0.49
1 1 15 10.38 0.51
2 -1 15 7.25 0.38
-2 -1 -15 7.6 0.42
2 -1 15 7.66 0.37
2 -1 15 7.69 0.4
2 1 15 7.46 0.41
2 1 15 6.88 0.39
2 1 15 7.16 0.39
3 -1 15 28.41 1.16
3 -1 15 25.67 1.19
-3 -1 -15 25.65 1.34
3 -1 15 24.91 1.16
-3 -1 -15 25.24 1.21
3 1 15 24.08 1.25
4 -1 15 6.29 0.35
4 -1 15 6.86 0.34
-4 -1 -15 6.81 0.48
4 1 15 6.72 0.39
-4 1 -15 6.38 0.49
-5 -1 -15 0.78 0.18
5 -1 15 1.05 0.15
-5 1 -15 0.9 0.18
5 1 15 1.02 0.16
-5 1 -15 0.99 0.21
-6 2 15 5.18 0.36
-6 2 15 5.82 0.26
-6 2 15 5.83 0.26
-6 2 15 5.79 0.26
-6 2 15 5.94 0.26
-5 2 15 5.78 0.29
-5 2 15 5.59 0.42
-5 2 15 6.02 0.27
-5 2 15 5.59 0.34
-5 2 15 5.58 0.27
-5 2 15 5.47 0.27
-5 2 15 5.23 0.31
-5 2 15 5.67 0.28
-4 2 15 9.96 0.49
-4 2 15 10.69 0.57
-4 2 15 10.48 0.48
-4 2 15 10.51 0.53
-4 2 15 10.93 0.64
-4 2 15 10.49 0.49
-4 2 15 9.77 0.59
-4 2 15 10.23 0.49
-3 2 15 0.09 0.15
-3 2 15 -0.01 0.22
-3 2 15 0.1 0.08
-3 2 15 0.1 0.08
-3 2 15 0.13 0.07
-3 2 15 0.11 0.2
-3 2 15 0.04 0.11
-3 2 15 0.11 0.08
-2 -2 15 0.14 0.03
-2 2 15 0.24 0.28
-2 2 15 0.12 0.07
-2 2 15 -0.03 0.11
-2 2 15 0.09 0.08
-2 2 15 0.02 0.23
-2 2 15 -0.1 0.17
-2 2 15 0.09 0.1
-2 2 15 0.17 0.16
-2 2 15 0.03 0.09
-1 -2 15 4.61 0.22
-1 -2 15 4.6 0.22
-1 2 15 5.12 0.29
-1 2 15 4.93 0.32
-1 2 15 4.77 0.29
-1 2 15 4.6 0.45
-1 2 15 4.93 0.35
-1 2 15 4.61 0.28
-1 2 15 5.07 0.43
-1 2 15 4.41 0.37
-1 2 15 4.88 0.27
0 -2 15 3.18 0.18
0 -2 -15 3.63 0.25
0 -2 15 3.41 0.17
0 -2 15 3.1 0.2
0 -2 15 3.18 0.17
0 2 15 3.44 0.25
0 2 15 3.43 0.26
0 2 15 2.96 0.33
0 2 15 3.07 0.24
0 2 15 3.34 0.23
0 2 15 3.25 0.39
0 2 15 3.35 0.22
1 -2 15 14.3 0.67
1 -2 15 14.7 0.68
1 -2 15 14.59 0.66
1 -2 15 14.52 0.7
1 -2 15 14.27 0.66
1 2 15 14 0.7
1 2 15 14.57 0.71
1 2 15 15.65 0.71
1 2 15 15.76 0.85
1 2 15 14.64 0.72
1 2 15 14.2 0.77
-2 -2 -15 1.9 0.22
2 -2 15 2.1 0.18
-2 -2 -15 2.45 0.34
2 -2 15 2.2 0.16
2 -2 15 1.92 0.15
2 2 15 1.59 0.22
2 2 15 1.96 0.2
2 2 15 2.02 0.25
2 2 15 1.92 0.21
2 2 15 1.9 0.3
3 -2 15 0.98 0.16
3 -2 15 1.04 0.12
3 -2 15 1 0.13
-3 -2 -15 0.9 0.26
3 2 15 1.21 0.28
3 2 15 1.01 0.17
3 2 15 0.99 0.2
4 -2 15 0.19 0.07
4 -2 15 0.14 0.07
-4 -2 -15 0.14 0.15
-4 2 -15 0.08 0.18
4 2 15 0.08 0.12
5 -2 15 -0.01 0.05
5 -2 15 -0.03 0.07
-5 2 -15 -0.02 0.12
5 2 15 0.05 0.08
5 -3 -15 3.42 0.24
-5 3 15 3.7 0.19
-5 3 15 3.74 0.17
-5 3 15 3.46 0.19
-5 3 15 2.97 0.29
-5 3 15 3.18 0.3
4 -3 -15 0.87 0.18
-4 3 15 0.89 0.26
-4 3 15 1 0.18
-4 3 15 0.88 0.1
-4 3 15 0.8 0.11
-4 3 15 1.03 0.14
-4 3 15 0.54 0.27
-4 3 15 0.75 0.12
3 -3 -15 1.17 0.22
-3 3 15 1.45 0.15
-3 3 15 1.4 0.18
-3 3 15 1.29 0.14
-3 3 15 1.24 0.3
-3 3 15 1.36 0.2
-3 3 15 1.3 0.13
-3 3 15 1.35 0.34
-3 3 15 1.35 0.24
-2 -3 15 1.32 0.07
2 -3 -15 1.35 0.25
-2 -3 15 1.33 0.07
-2 3 15 1.18 0.18
-2 3 15 1.45 0.15
-2 3 15 1.17 0.14
-2 3 15 1.26 0.24
-2 3 15 0.96 0.33
-2 3 15 1.21 0.3
-2 3 15 1.27 0.16
-2 3 15 1.27 0.2
-2 3 15 0.95 0.15
-1 -3 15 10.78 0.48
1 -3 -15 10.74 0.62
-1 3 15 11.93 0.54
-1 3 15 10.52 0.61
-1 3 15 10.64 0.67
-1 3 15 11.29 0.58
-1 3 15 11.01 0.72
-1 3 15 9.89 0.54
-1 3 15 11.04 0.55
-1 3 15 10.88 0.54
-1 3 15 10.24 0.52
0 -3 -15 2.38 0.23
0 -3 15 2.42 0.13
0 -3 15 2.45 0.13
0 -3 -15 2.54 0.33
0 -3 -15 2.6 0.3
0 3 15 2.25 0.21
0 3 15 2.7 0.35
0 3 15 2.33 0.24
0 3 15 2.49 0.28
0 3 15 2.17 0.22
0 3 15 2.59 0.22
0 3 15 2.19 0.39
-1 -3 -15 0.68 0.26
1 -3 15 0.74 0.09
-1 -3 -15 0.82 0.25
1 -3 15 0.61 0.08
1 3 15 0.7 0.2
1 3 15 0.59 0.26
1 3 15 0.82 0.15
1 3 15 0.64 0.17
1 3 15 0.25 0.13
1 3 15 0.74 0.22
2 -3 15 0.08 0.05
2 -3 15 0.14 0.06
-2 -3 -15 0.2 0.18
2 -3 15 0.25 0.07
-2 -3 -15 0.29 0.17
2 3 15 0.14 0.1
2 3 15 0.2 0.14
2 3 15 0.1 0.13
2 3 15 0.12 0.17
2 3 15 0.3 0.1
3 -3 15 3.73 0.2
-3 -3 -15 3.95 0.29
3 -3 15 3.67 0.19
-3 -3 -15 3.64 0.3
3 3 15 3.36 0.23
3 3 15 3.63 0.33
3 3 15 3.73 0.27
4 -3 15 1.69 0.12
4 -3 15 1.87 0.11
-4 3 -15 1.46 0.23
4 3 15 1.85 0.16
4 3 15 1.82 0.22
4 -4 -15 3.42 0.25
-4 4 15 4.08 0.31
3 -4 -15 0.5 0.16
3 -4 -15 0.41 0.17
-3 4 15 0.46 0.14
-3 4 15 0.37 0.21
-3 4 15 0.42 0.1
-3 4 15 0.45 0.11
-3 4 15 0.39 0.16
-3 4 15 0.41 0.11
-3 4 15 0.58 0.16
2 -4 -15 5.13 0.34
2 -4 -15 5.47 0.37
-2 4 15 4.71 0.27
-2 4 15 4.63 0.3
-2 4 15 4.81 0.3
-2 4 15 4.32 0.27
-2 4 15 4.67 0.42
-2 4 15 4.61 0.26
-2 4 15 4.4 0.36
-2 4 15 4.11 0.32
1 -4 -15 15.29 0.83
-1 -4 15 16.05 0.68
1 -4 -15 15.06 0.79
-1 4 15 16.83 0.76
-1 4 15 14.77 0.86
-1 4 15 15.44 0.82
-1 4 15 15.31 0.72
-1 4 15 15.75 0.79
-1 4 15 15.23 0.75
-1 4 15 15.11 0.73
0 -4 -15 3.92 0.3
0 -4 15 3.31 0.16
0 -4 -15 3.08 0.3
0 4 15 3.22 0.26
0 4 15 3.18 0.22
0 4 15 3.29 0.25
0 4 15 3.09 0.32
0 4 15 3.41 0.23
0 4 15 3.57 0.29
0 4 15 2.76 0.35
1 -4 15 2.56 0.13
1 -4 15 2.75 0.13
-1 -4 -15 2.18 0.25
-1 -4 -15 2.68 0.24
1 4 15 2.47 0.29
1 4 15 2.89 0.34
1 4 15 2.55 0.19
1 4 15 2.49 0.19
1 4 15 2.3 0.23
-2 -4 -15 1.21 0.23
2 -4 15 1.75 0.1
2 -4 15 1.82 0.11
2 4 15 1.74 0.15
2 4 15 1.36 0.17
2 4 15 1.62 0.24
3 -4 15 0.73 0.07
3 4 15 0.39 0.11
3 4 15 0.19 0.12
3 4 15 0.66 0.19
-6 0 16 0.68 0.04
-5 0 16 6.37 0.38
-5 0 16 6.94 0.31
-4 0 16 0.4 0.06
-4 0 16 0.63 0.18
-4 0 16 0.59 0.25
-4 0 16 0.32 0.16
-3 0 16 5.67 0.25
-3 0 16 5.09 0.37
-3 0 16 6.08 0.45
-3 0 16 5.73 0.34
-3 0 16 5.36 0.26
-3 0 16 5.55 0.25
-2 0 16 2.21 0.29
-2 0 16 2.04 0.13
-2 0 16 2.24 0.12
-2 0 16 1.98 0.11
-2 0 16 2.03 0.11
-2 0 16 2.31 0.22
-2 0 16 1.86 0.13
-2 0 16 2.06 0.12
-2 0 16 2.1 0.13
-1 0 16 1.32 0.1
-1 0 16 1.65 0.27
-1 0 16 1.51 0.14
-1 0 16 1.44 0.11
-1 0 16 1.54 0.13
-1 0 16 1.49 0.11
0 0 16 3.07 0.21
0 0 16 2.63 0.16
0 0 16 2.89 0.2
0 0 16 2.91 0.19
0 0 16 2.47 0.18
0 0 16 2.65 0.16
1 0 16 0.88 0.12
1 0 16 0.94 0.14
1 0 16 0.93 0.15
2 0 16 0.26 0.11
2 0 16 0.2 0.1
2 0 16 0.27 0.09
3 0 16 20.16 0.9
3 0 16 19.38 0.91
-4 0 -16 0.1 0.16
4 0 16 0.14 0.07
4 0 16 0.14 0.12
-5 1 16 7.61 0.43
-5 1 16 7.78 0.34
-4 1 16 5.14 0.23
-4 1 16 5.15 0.23
-4 1 16 5.04 0.39
-4 1 16 5.1 0.24
-4 1 16 5.38 0.24
-4 1 16 4.93 0.24
-4 1 16 4.9 0.31
-4 1 16 5.15 0.35
-3 -1 16 7.17 0.31
-3 -1 16 6.16 0.41
-3 -1 16 7.47 0.47
-3 1 16 6.92 0.39
-3 1 16 7.14 0.34
-3 1 16 6.69 0.32
-3 1 16 6.76 0.48
-3 1 16 7.02 0.33
-3 1 16 6.74 0.32
-3 1 16 7.4 0.43
-2 -1 16 1.87 0.11
-2 -1 16 2.05 0.09
-2 -1 16 2.42 0.3
-2 -1 16 2.07 0.09
-2 1 16 1.84 0.17
-2 1 16 1.98 0.23
-2 1 16 2 0.22
-2 1 16 1.93 0.13
-2 1 16 2.37 0.32
-2 1 16 1.93 0.13
-2 1 16 2.06 0.12
-2 1 16 2.03 0.14
-2 1 16 1.9 0.15
-1 -1 16 17.19 0.76
-1 -1 16 16.79 0.77
-1 -1 16 17.54 0.77
-1 -1 16 17.23 0.77
-1 -1 16 17.38 0.77
-1 1 16 16.25 0.8
-1 1 16 17.28 0.78
-1 1 16 17.09 0.83
-1 1 16 17.89 0.79
-1 1 16 17.87 0.82
-1 1 16 17.94 0.8
-1 1 16 17.32 0.8
-1 1 16 17.71 0.9
0 -1 16 0.36 0.08
0 -1 16 0.47 0.12
0 -1 16 0.36 0.08
0 1 16 0.42 0.11
0 1 16 0.42 0.1
0 1 16 0.63 0.15
0 1 16 0.5 0.11
0 1 16 0.5 0.13
0 1 16 0.23 0.17
1 -1 16 1.97 0.16
1 -1 16 1.72 0.15
1 -1 16 1.61 0.12
1 -1 16 1.74 0.13
1 -1 16 1.95 0.18
1 1 16 1.78 0.17
1 1 16 1.67 0.19
1 1 16 1.81 0.16
1 1 16 1.81 0.19
2 -1 16 2.75 0.2
2 -1 16 2.79 0.21
2 -1 16 2.97 0.18
2 1 16 3 0.23
2 1 16 2.78 0.2
2 1 16 3.18 0.23
2 1 16 2.9 0.2
-3 -1 -16 1.65 0.28
3 -1 16 1.32 0.13
3 -1 16 1.44 0.16
3 1 16 1.2 0.19
3 1 16 1.31 0.16
4 -1 16 0.51 0.09
4 -1 16 0.44 0.12
-4 -1 -16 0.38 0.2
-4 1 -16 0.42 0.22
4 1 16 0.31 0.12
4 1 16 0.4 0.11
-5 2 16 0.32 0.04
-5 2 16 0.39 0.04
-5 2 16 0.44 0.2
-5 2 16 0.48 0.15
-5 2 16 0.42 0.03
-5 2 16 0.38 0.06
-5 2 16 0.4 0.05
-4 2 16 0.08 0.13
-4 2 16 0.21 0.04
-4 2 16 0.25 0.18
-4 2 16 0.31 0.11
-4 2 16 0.13 0.15
-4 2 16 0.25 0.06
-4 2 16 0.19 0.04
-4 2 16 0.22 0.05
-3 2 16 0.98 0.22
-3 2 16 0.98 0.1
-3 2 16 0.63 0.28
-3 2 16 0.93 0.09
-3 2 16 0.82 0.12
-3 2 16 0.93 0.26
-3 2 16 0.96 0.12
-3 2 16 1.05 0.18
-2 -2 16 1.94 0.1
-2 -2 16 1.91 0.1
-2 2 16 1.78 0.15
-2 2 16 1.89 0.2
-2 2 16 1.76 0.31
-2 2 16 1.74 0.27
-2 2 16 1.92 0.14
-2 2 16 1.89 0.23
-2 2 16 1.82 0.16
-2 2 16 1.86 0.16
-1 -2 16 1.66 0.1
-1 -2 16 1.7 0.08
-1 -2 16 1.6 0.08
-1 2 16 1.46 0.34
-1 2 16 1.38 0.2
-1 2 16 1.83 0.23
-1 2 16 1.53 0.28
-1 2 16 1.77 0.16
-1 2 16 1.41 0.14
-1 2 16 1.56 0.16
-1 2 16 1.59 0.32
-1 2 16 1.65 0.16
0 -2 16 10.57 0.47
0 -2 16 10.07 0.47
0 -2 -16 10.6 0.61
0 -2 16 10.29 0.47
0 -2 16 10.64 0.46
0 2 16 10.72 0.53
0 2 16 10.81 0.51
0 2 16 10.02 0.68
0 2 16 10.7 0.5
0 2 16 9.98 0.52
0 2 16 10.3 0.51
0 2 16 9.54 0.63
0 2 16 10.26 0.59
1 -2 16 3.33 0.18
1 -2 16 3.2 0.21
1 -2 16 3.34 0.19
1 2 16 3.45 0.35
1 2 16 3.62 0.23
1 2 16 3.13 0.29
1 2 16 3.61 0.25
1 2 16 3.31 0.25
1 2 16 3.49 0.22
1 2 16 3.34 0.24
-2 -2 -16 0 0.17
2 -2 16 -0.01 0.05
2 -2 16 0.05 0.05
2 -2 16 0.05 0.06
2 2 16 0.01 0.09
2 2 16 0.16 0.13
2 2 16 0.08 0.1
2 2 16 0.02 0.16
3 -2 16 1.46 0.12
3 -2 16 1.41 0.11
-3 -2 -16 1.29 0.24
3 2 16 1.36 0.24
3 2 16 1.75 0.17
3 2 16 1.39 0.19
4 -2 16 0.78 0.08
-4 -2 -16 0.42 0.15
-4 -2 -16 0.53 0.15
4 -2 16 0.68 0.11
4 2 16 0.7 0.12
-4 2 -16 0.77 0.2
4 2 16 0.24 0.19
4 2 16 0.57 0.14
4 -3 -16 1.96 0.18
-4 3 16 1.8 0.13
-4 3 16 1.99 0.18
-4 3 16 1.79 0.1
-4 3 16 1.62 0.24
-4 3 16 1.72 0.13
3 -3 -16 1.19 0.2
-3 3 16 1.56 0.13
-3 3 16 1.35 0.26
-3 3 16 1.34 0.2
-3 3 16 1.36 0.11
-3 3 16 1.36 0.29
-3 3 16 0.91 0.21
-3 3 16 1.13 0.16
-3 3 16 1.19 0.13
2 -3 -16 7.2 0.44
-2 3 16 6.98 0.36
-2 3 16 7.91 0.42
-2 3 16 6.92 0.38
-2 3 16 6.95 0.36
-2 3 16 7.14 0.45
-2 3 16 7 0.35
-2 3 16 6.47 0.47
1 -3 -16 0.51 0.21
-1 -3 16 0.6 0.05
-1 3 16 0.5 0.24
-1 3 16 0.51 0.11
-1 3 16 0.76 0.23
-1 3 16 0.6 0.16
-1 3 16 0.63 0.13
-1 3 16 0.76 0.23
-1 3 16 0.81 0.18
-1 3 16 0.76 0.14
0 -3 16 1.07 0.08
0 -3 -16 1.2 0.25
0 -3 -16 1.07 0.23
0 3 16 1.05 0.14
0 3 16 1.25 0.23
0 3 16 1.39 0.27
0 3 16 1.02 0.31
0 3 16 1.13 0.14
0 3 16 1.06 0.17
0 3 16 0.9 0.15
-1 -3 -16 2.36 0.29
-1 -3 -16 2.3 0.26
1 -3 16 2.41 0.12
1 3 16 2.21 0.3
1 3 16 2.17 0.19
1 3 16 2.12 0.18
1 3 16 2 0.33
1 3 16 2.28 0.24
1 3 16 2.32 0.23
-2 -3 -16 1.69 0.24
2 -3 16 1.8 0.12
-2 -3 -16 1.88 0.22
2 -3 16 1.77 0.1
2 3 16 1.52 0.16
2 3 16 1.55 0.16
2 3 16 1.74 0.2
2 3 16 1.37 0.25
-3 -3 -16 3 0.22
-3 -3 -16 2.27 0.22
3 -3 16 3.24 0.15
3 3 16 2.5 0.2
3 3 16 2.11 0.24
2 -4 -16 2.9 0.24
2 -4 -16 2.5 0.22
-2 4 16 2.61 0.17
-2 4 16 2.65 0.3
-2 4 16 2.5 0.2
-2 4 16 2.85 0.17
-2 4 16 2.6 0.16
-2 4 16 2.42 0.22
-2 4 16 2.71 0.2
-1 -4 16 6.09 0.26
-1 -4 16 6.09 0.26
1 -4 -16 6.02 0.38
1 -4 -16 5.6 0.36
-1 4 16 7.14 0.41
-1 4 16 6.32 0.37
-1 4 16 4.85 0.32
-1 4 16 6.1 0.3
-1 4 16 5.2 0.33
-1 4 16 5.5 0.33
-1 4 16 6.43 0.31
0 -4 -16 3.12 0.26
0 -4 16 3.25 0.15
0 -4 -16 2.81 0.25
0 4 16 3.63 0.29
0 4 16 2.57 0.21
0 4 16 2.92 0.2
0 4 16 3.33 0.25
0 4 16 3.26 0.2
0 4 16 2.76 0.22
1 -4 16 4.9 0.24
-1 -4 -16 4.44 0.31
1 -4 16 5.85 0.23
1 4 16 5.34 0.27
1 4 16 5.1 0.29
-4 0 17 9.25 0.52
-4 0 17 9.3 0.55
-4 0 17 10.69 0.44
-3 0 17 0.74 0.17
-3 0 17 0.83 0.2
-3 0 17 0.82 0.07
-3 0 17 1.06 0.26
-2 0 17 0.03 0.17
-2 0 17 -0.02 0.03
-2 0 17 0.06 0.03
-2 0 17 0.02 0.04
-1 0 17 0.08 0.05
-1 0 17 0.07 0.05
-1 0 17 0.12 0.06
-1 0 17 0.11 0.04
-1 0 17 0.05 0.04
-1 0 17 0.01 0.17
0 0 17 0.25 0.07
0 0 17 0.32 0.06
0 0 17 0.2 0.08
0 0 17 0.29 0.07
0 0 17 0.26 0.06
0 0 17 0.18 0.07
1 0 17 0.89 0.13
1 0 17 0.82 0.1
1 0 17 0.81 0.14
1 0 17 1.2 0.13
1 0 17 1.14 0.15
2 0 17 5.09 0.26
2 0 17 5.06 0.28
-3 0 -17 4.05 0.36
3 0 17 4.39 0.23
3 0 17 4.33 0.24
4 0 17 0.72 0.09
-4 0 -17 0.65 0.17
4 0 17 0.9 0.16
-5 1 17 1 0.15
-5 1 17 1.04 0.07
-4 1 17 3.89 0.27
-4 1 17 3.36 0.17
-4 1 17 3.23 0.3
-4 1 17 3.63 0.16
-4 1 17 3.35 0.24
-3 -1 17 1.38 0.07
-3 -1 17 1.32 0.07
-3 1 17 1.38 0.17
-3 1 17 1.37 0.08
-3 1 17 1.29 0.09
-3 1 17 1.32 0.21
-3 1 17 1.43 0.07
-3 1 17 1.36 0.08
-3 1 17 1.5 0.09
-3 1 17 1.55 0.27
-2 -1 17 0.96 0.23
-2 -1 17 0.8 0.07
-2 1 17 0.84 0.08
-2 1 17 0.88 0.08
-2 1 17 0.81 0.2
-2 1 17 0.85 0.1
-2 1 17 0.84 0.12
-2 1 17 0.81 0.26
-2 1 17 0.78 0.08
-2 1 17 0.67 0.18
-1 -1 17 1.47 0.08
-1 -1 17 1.55 0.1
-1 -1 17 1.61 0.08
-1 1 17 1.36 0.15
-1 1 17 1.65 0.13
-1 1 17 1.5 0.13
-1 1 17 1.53 0.1
-1 1 17 1.55 0.12
-1 1 17 1.45 0.19
-1 1 17 1.62 0.27
-1 1 17 1.27 0.11
0 -1 17 5.09 0.23
0 -1 17 4.88 0.25
0 -1 17 5.01 0.24
0 -1 17 4.82 0.23
0 -1 17 4.99 0.23
0 1 17 4.71 0.25
0 1 17 4.52 0.37
0 1 17 4.75 0.27
0 1 17 4.79 0.27
0 1 17 4.82 0.27
0 1 17 4.88 0.42
0 1 17 4.9 0.29
1 -1 17 8.78 0.43
1 -1 17 8.57 0.41
1 1 17 9.77 0.45
1 1 17 8.77 0.43
1 1 17 8.96 0.44
2 -1 17 2.46 0.16
2 -1 17 2.47 0.17
2 -1 17 2.52 0.15
2 1 17 2.55 0.19
2 1 17 2.75 0.17
2 1 17 2.72 0.19
3 -1 17 4.36 0.24
3 -1 17 4.34 0.22
-3 -1 -17 4.44 0.36
3 1 17 4.43 0.23
3 1 17 4.3 0.24
3 1 17 4.01 0.24
3 1 17 4.39 0.28
-4 2 17 0.42 0.05
-4 2 17 0.34 0.03
-4 2 17 0.45 0.05
-4 2 17 0.43 0.12
-4 2 17 0.44 0.03
-4 2 17 0.39 0.05
-4 2 17 0.63 0.13
-4 2 17 0.42 0.16
-4 2 17 0.39 0.17
-3 2 17 0.52 0.13
-3 2 17 0.39 0.18
-3 2 17 0.43 0.09
-3 2 17 0.42 0.05
-3 2 17 0.48 0.17
-3 2 17 0.28 0.16
-3 2 17 0.43 0.06
-3 2 17 0.42 0.07
-2 2 17 0.57 0.23
-2 2 17 0.59 0.08
-2 2 17 0.63 0.17
-2 2 17 0.55 0.11
-2 2 17 0.61 0.11
-2 2 17 0.61 0.25
-2 2 17 0.37 0.11
-2 2 17 0.46 0.07
-1 -2 17 0.2 0.05
-1 2 17 0.2 0.06
-1 2 17 0.21 0.08
-1 2 17 0.23 0.08
-1 2 17 0.1 0.1
-1 2 17 0.28 0.19
-1 2 17 0.26 0.16
0 -2 -17 0.15 0.16
0 -2 17 0.17 0.03
0 -2 17 0.31 0.06
0 -2 17 0.24 0.03
0 -2 17 0.21 0.03
0 2 17 0.21 0.22
0 2 17 0.17 0.07
0 2 17 0.29 0.11
0 2 17 0.32 0.09
0 2 17 0.07 0.17
0 2 17 0.12 0.08
0 2 17 0.25 0.14
1 -2 17 8.3 0.35
1 -2 17 8.01 0.35
-1 -2 -17 7.41 0.47
1 -2 17 7.84 0.34
-1 -2 -17 6.52 0.56
1 2 17 7.73 0.39
1 2 17 7.91 0.38
1 2 17 7.44 0.39
1 2 17 8.19 0.39
1 2 17 6.19 0.46
-2 -2 -17 1.45 0.22
2 -2 17 1.65 0.12
-2 -2 -17 1.58 0.25
2 -2 17 1.35 0.09
2 2 17 1.45 0.15
2 2 17 1.45 0.18
2 2 17 1.61 0.15
2 2 17 1.34 0.13
2 2 17 1.64 0.25
3 -2 17 0.3 0.08
-3 -2 -17 0.15 0.11
3 -2 17 0.42 0.06
-3 -2 -17 0.36 0.16
3 2 17 0.26 0.07
3 2 17 0.3 0.08
3 2 17 0.27 0.1
3 -3 -17 0.18 0.13
-3 3 17 0.21 0.2
-3 3 17 -0.03 0.13
-3 3 17 0.13 0.05
-3 3 17 0.18 0.05
-3 3 17 0.01 0.1
-3 3 17 0.14 0.1
-3 3 17 0.09 0.05
2 -3 -17 2.62 0.23
-2 3 17 1.8 0.23
-2 3 17 2.54 0.19
-2 3 17 2.76 0.14
-2 3 17 2.85 0.3
-2 3 17 2.67 0.16
-2 3 17 2.19 0.2
-2 3 17 2.64 0.16
-2 3 17 3.02 0.28
-1 -3 17 10.07 0.46
1 -3 -17 9.54 0.55
1 -3 -17 10.35 0.59
-1 -3 17 10.33 0.46
-1 3 17 11.04 0.57
-1 3 17 10.45 0.49
-1 3 17 11.13 0.63
-1 3 17 10.68 0.48
-1 3 17 9.97 0.49
-1 3 17 10.43 0.51
0 -3 -17 0.2 0.15
0 -3 -17 0.09 0.12
0 -3 17 0.26 0.05
0 3 17 0.11 0.07
0 3 17 0.27 0.08
0 3 17 0.11 0.06
0 3 17 0.11 0.15
0 3 17 0.09 0.11
0 3 17 0.26 0.19
0 3 17 0.13 0.08
-1 -3 -17 0.09 0.14
1 -3 17 0.16 0.04
-1 -3 -17 0.11 0.12
1 3 17 0.09 0.07
1 3 17 0.16 0.17
1 3 17 0.1 0.11
1 3 17 0.14 0.07
1 3 17 0.13 0.1
1 3 17 -0.03 0.07
1 3 17 0.1 0.14
-2 -3 -17 2.28 0.21
2 -3 17 2.95 0.13
-2 -3 -17 2.77 0.23
2 3 17 2.85 0.2
2 3 17 2.85 0.27
-3 0 18 3.62 0.24
-3 0 18 4.49 0.19
-3 0 18 3.77 0.31
-2 0 18 0.36 0.06
-2 0 18 0.41 0.16
-1 0 18 2.87 0.14
-1 0 18 2.71 0.17
-1 0 18 2.77 0.14
0 0 18 1.31 0.1
0 0 18 1.34 0.09
0 0 18 1.33 0.09
1 0 18 0.72 0.08
1 0 18 0.6 0.1
1 0 18 0.76 0.1
2 0 18 -0.02 0.07
2 0 18 0.05 0.06
2 0 18 0.02 0.04
3 0 18 2.53 0.13
3 0 18 2.96 0.18
3 0 18 2.57 0.16
-4 1 18 0.48 0.17
-4 1 18 0.78 0.17
-4 1 18 0.9 0.07
-3 1 18 1.46 0.23
-3 1 18 2.25 0.21
-3 1 18 2.02 0.11
-3 1 18 2.26 0.12
-3 1 18 2.26 0.1
-3 1 18 2.47 0.19
-2 -1 18 -0.01 0.02
-2 1 18 0.09 0.09
-2 1 18 0.04 0.03
-2 1 18 0 0.02
-2 1 18 -0.05 0.14
-2 1 18 0 0.03
-2 1 18 -0.01 0.03
-2 1 18 0 0.02
-1 -1 18 2.79 0.14
-1 1 18 2.87 0.16
-1 1 18 2.71 0.15
-1 1 18 2.79 0.14
-1 1 18 2.82 0.21
-1 1 18 3.03 0.28
-1 1 18 2.8 0.15
0 -1 18 1.68 0.08
0 -1 18 1.54 0.09
0 -1 18 1.54 0.1
0 1 18 1.38 0.12
0 1 18 1.71 0.11
0 1 18 1.5 0.13
0 1 18 1.49 0.09
1 -1 18 2.54 0.14
1 -1 18 2.64 0.13
1 -1 18 2.64 0.13
1 -1 18 2.32 0.13
1 1 18 2.55 0.14
1 1 18 2.52 0.17
1 1 18 2.68 0.17
2 -1 18 4.19 0.24
2 -1 18 3.73 0.19
-2 -1 -18 3.62 0.31
2 -1 18 3.92 0.2
2 1 18 3.87 0.22
2 1 18 4.16 0.22
2 1 18 4.01 0.2
-3 2 18 3.08 0.25
-3 2 18 3.45 0.22
-3 2 18 3.49 0.16
-3 2 18 3.26 0.16
-2 2 18 4.44 0.21
-2 2 18 3.88 0.25
-2 2 18 4.66 0.34
-2 2 18 4.4 0.21
-2 2 18 4.42 0.21
-2 2 18 4.18 0.26
-2 2 18 4.41 0.22
-2 2 18 4.81 0.32
-1 -2 18 2.09 0.11
-1 -2 18 2.31 0.1
-1 2 18 2.12 0.11
-1 2 18 1.95 0.14
-1 2 18 2 0.18
-1 2 18 2.28 0.13
-1 2 18 2.15 0.23
-1 2 18 2.25 0.15
0 -2 18 9.41 0.42
0 -2 -18 9.03 0.51
0 2 18 9.25 0.45
0 2 18 9.84 0.47
0 2 18 9.89 0.45
0 2 18 9.4 0.43
-1 -2 -18 0.99 0.17
-1 -2 -18 0.74 0.19
1 -2 18 0.7 0.05
1 2 18 0.82 0.09
1 2 18 0.64 0.09
1 2 18 0.79 0.1
1 2 18 0.76 0.24
2 -2 18 5.61 0.23
-2 -2 -18 4.51 0.31
2 -2 18 5.11 0.24
2 2 18 5.2 0.27
-2 0 19 0.62 0.05
-2 0 19 0.46 0.16
-1 0 19 0.24 0.05
0 0 19 13.43 0.59
0 0 19 13.47 0.58
0 0 19 12.98 0.59
1 0 19 0.38 0.06
1 0 19 0.43 0.05
1 0 19 0.38 0.05
1 0 19 0.47 0.04
-2 1 19 1.52 0.21
-1 -1 19 0.05 0.02
-1 1 19 0.09 0.03
-1 1 19 0.07 0.03
-1 1 19 0.1 0.13
0 -1 19 2.03 0.1
0 1 19 2.02 0.11
0 1 19 1.77 0.1
0 1 19 1.94 0.11
0 1 19 1.86 0.1
0 1 19 1.95 0.1
