#------------------------------------------------------------------------------
#$Date: 2018-11-09 01:20:52 +0200 (Fri, 09 Nov 2018) $
#$Revision: 211862 $
#$URL: file:///home/coder/svn-repositories/cod/cif/1/55/02/1550203.cif $
#------------------------------------------------------------------------------
#
# This file is available in the Crystallography Open Database (COD),
# http://www.crystallography.net/
#
# All data on this site have been placed in the public domain by the
# contributors.
#
data_1550203
loop_
_publ_author_name
'Linares, F\'atima'
'Garcia-Fernandez, Emilio'
'L\'opez-Garz\'on, F Javier'
'Domingo-Garcia, Maria'
'Orte, Angel'
'Rodr\'iguez Di\'eguez, Antonio'
'Galindo Cuesta, Miguel Angel'
_publ_section_title
;
 Multifunctional Behavior of Molecules Comprising Stacked
 Cytosine-AgI-Cytosine Base Pairs; Towards Conducting and
 Photoluminescence Silver-DNA Nanowires
;
_journal_name_full               'Chemical Science'
_journal_paper_doi               10.1039/C8SC04036B
_journal_year                    2019
_chemical_formula_moiety         'C80 H112 Ag8 N48 O16, 6(B F4)'
_chemical_formula_sum            'C80 H112 Ag8 B8 F32 N48 O16'
_chemical_formula_weight         3559.61
_space_group_crystal_system      orthorhombic
_space_group_IT_number           19
_space_group_name_Hall           'P 2ac 2ab'
_space_group_name_H-M_alt        'P 21 21 21'
_symmetry_space_group_name_Hall  'P 2ac 2ab'
_symmetry_space_group_name_H-M   'P 21 21 21'
_atom_sites_solution_hydrogens   geom
_audit_creation_date             2018-06-06
_audit_creation_method
;
Olex2 1.2
(compiled 2018.05.29 svn.r3508 for OlexSys, GUI svn.r5506)
;
_audit_update_record
;
2018-06-07 deposited with the CCDC.
2018-11-05 downloaded from the CCDC.
;
_cell_angle_alpha                90
_cell_angle_beta                 90
_cell_angle_gamma                90
_cell_formula_units_Z            4
_cell_length_a                   21.7990(11)
_cell_length_b                   22.6096(15)
_cell_length_c                   26.0615(17)
_cell_measurement_reflns_used    12903
_cell_measurement_temperature    100(2)
_cell_measurement_theta_max      18.89
_cell_measurement_theta_min      2.38
_cell_volume                     12844.8(14)
_computing_cell_refinement       'Bruker ApexII'
_computing_data_collection       'Bruker ApexII'
_computing_data_reduction        'Bruker ApexII'
_computing_molecular_graphics    'Olex2 (Dolomanov et al., 2009)'
_computing_publication_material  'Olex2 (Dolomanov et al., 2009)'
_computing_structure_refinement  'XL (Sheldrick, 2008)'
_diffrn_ambient_temperature      100(2)
_diffrn_detector_area_resol_mean 'Phi and Omega Scans'
_diffrn_measured_fraction_theta_full 0.990
_diffrn_measured_fraction_theta_max 0.990
_diffrn_measurement_device_type  'Bruker D8 Venture'
_diffrn_radiation_type           MoK\a
_diffrn_radiation_wavelength     0.71069
_diffrn_reflns_av_R_equivalents  0.1077
_diffrn_reflns_av_unetI/netI     0.0545
_diffrn_reflns_Laue_measured_fraction_full 0.990
_diffrn_reflns_Laue_measured_fraction_max 0.990
_diffrn_reflns_limit_h_max       17
_diffrn_reflns_limit_h_min       -19
_diffrn_reflns_limit_k_max       20
_diffrn_reflns_limit_k_min       -20
_diffrn_reflns_limit_l_max       23
_diffrn_reflns_limit_l_min       -23
_diffrn_reflns_number            68619
_diffrn_reflns_point_group_measured_fraction_full 0.991
_diffrn_reflns_point_group_measured_fraction_max 0.991
_diffrn_reflns_theta_full        18.929
_diffrn_reflns_theta_max         18.929
_diffrn_reflns_theta_min         2.174
_diffrn_source                   'fine-focus sealed tube'
_exptl_absorpt_coefficient_mu    1.315
_exptl_absorpt_correction_T_max  0.7443
_exptl_absorpt_correction_T_min  0.6796
_exptl_absorpt_correction_type   multi-scan
_exptl_absorpt_process_details   'SADABS 2014/5'
_exptl_crystal_colour            Colourless
_exptl_crystal_density_diffrn    1.841
_exptl_crystal_description       Prismatic
_exptl_crystal_F_000             7040
_exptl_crystal_size_max          0.12
_exptl_crystal_size_mid          0.08
_exptl_crystal_size_min          0.06
_refine_diff_density_max         0.442
_refine_diff_density_min         -0.410
_refine_diff_density_rms         0.082
_refine_ls_abs_structure_details
;
 Flack x determined using 3434 quotients [(I+)-(I-)]/[(I+)+(I-)]
 (Parsons, Flack and Wagner, Acta Cryst. B69 (2013) 249-259).
;
_refine_ls_abs_structure_Flack   -0.032(17)
_refine_ls_extinction_method     none
_refine_ls_goodness_of_fit_ref   1.010
_refine_ls_hydrogen_treatment    constr
_refine_ls_matrix_type           full
_refine_ls_number_parameters     885
_refine_ls_number_reflns         10151
_refine_ls_number_restraints     0
_refine_ls_restrained_S_all      1.010
_refine_ls_R_factor_all          0.0516
_refine_ls_R_factor_gt           0.0377
_refine_ls_shift/su_max          0.001
_refine_ls_shift/su_mean         0.000
_refine_ls_structure_factor_coef Fsqd
_refine_ls_weighting_details
'w=1/[\s^2^(Fo^2^)+(0.0182P)^2^+42.9848P] where P=(Fo^2^+2Fc^2^)/3'
_refine_ls_weighting_scheme      calc
_refine_ls_wR_factor_gt          0.0670
_refine_ls_wR_factor_ref         0.0718
_reflns_Friedel_coverage         0.816
_reflns_Friedel_fraction_full    0.992
_reflns_Friedel_fraction_max     0.992
_reflns_number_gt                8628
_reflns_number_total             10151
_reflns_threshold_expression     'I > 2\s(I)'
_cod_data_source_file            c8sc04036b2.cif
_cod_data_source_block           Compound2
_cod_database_code               1550203
_shelx_shelxl_version_number     2017/1
_shelx_space_group_comment
;
The symmetry employed for this shelxl refinement is uniquely defined
by the following loop, which should always be used as a source of
symmetry information in preference to the above space-group names.
They are only intended as comments.
;
_olex2_refinement_description
;
1. Fixed Uiso
 At 1.2 times of:
  All C(H) groups, All N(H,H) groups
 At 1.5 times of:
  All C(H,H,H) groups
2.a Aromatic/amide H refined with riding coordinates:
 C2A(H2A), C2B(H2B), C2C(H2C), C2D(H2D), C2E(H2E), C2F(H2F), C2G(H2G),
 C2H(H2H), C2I(H2I), C2J(H2J), C2K(H2K), C2L(H2L), C2M(H2M), C2N(H2N), C2O(H2O),
  C2P(H2P), C3A(H3A), C3B(H3B), C3C(H3C), C3D(H3D), C3E(H3E), C3F(H3F),
 C3G(H3G), C3H(H3H), C3I(H3I), C3J(H3J), C3K(H3K), C3L(H3L), C3M(H3M), C3N(H3N),
  C3O(H3O), C3P(H3P)
2.b X=CH2 refined with riding coordinates:
 N3A(H3AA,H3AB), N3B(H3BA,H3BB), N3C(H3CA,H3CB), N3D(H3DA,H3DB), N3E(H3EA,
 H3EB), N3F(H3FA,H3FB), N3G(H3GA,H3GB), N3H(H3HA,H3HB), N3I(H3IA,H3IB),
 N3J(H3JA,H3JB), N3K(H3KA,H3KB), N3L(H3LA,H3LB), N3M(H3MA,H3MB), N3N(H3NA,H3NB),
  N3O(H3OA,H3OB), N3P(H3PA,H3PB)
2.c Idealised Me refined as rotating group:
 C1A(H1AA,H1AB,H1AC), C1B(H1BA,H1BB,H1BC), C1C(H1CA,H1CB,H1CC), C1D(H1DA,H1DB,
 H1DC), C1E(H1EA,H1EB,H1EC), C1F(H1FA,H1FB,H1FC), C1G(H1GA,H1GB,H1GC), C1H(H1HA,
 H1HB,H1HC), C1I(H1IA,H1IB,H1IC), C1J(H1JA,H1JB,H1JC), C1K(H1KA,H1KB,H1KC),
 C1L(H1LA,H1LB,H1LC), C1M(H1MA,H1MB,H1MC), C1N(H1NA,H1NB,H1NC), C1O(H1OA,H1OB,
 H1OC), C1P(H1PA,H1PB,H1PC)
;
_shelx_res_file
;
TITL mo_AGCL0_0m in P2(1)2(1)2(1)
    mo_kmc22_0m.res
    created by SHELXL-2017/1 at 12:44:05 on 06-Jun-2018
CELL 0.71069 21.799 22.6096 26.0615 90 90 90
ZERR 4 0.0011 0.0015 0.0017 0 0 0
LATT -1
SYMM 0.5-X,-Y,0.5+Z
SYMM 0.5+X,0.5-Y,-Z
SYMM -X,0.5+Y,0.5-Z
SFAC C H B N O F Ag
UNIT 320 448 32 192 64 128 32

L.S. 20
PLAN  10
LIST 1
ABIN
fmap 2
acta
MERG 2
REM <olex2.extras>
REM <HklSrc "%.\\mo_KMC22_0m.hkl">
REM </olex2.extras>

WGHT    0.018200   42.984806
FVAR       0.07479
AG1   7    0.418231   -0.001096    0.377327    11.00000    0.01293    0.01758 =
         0.02934    0.00971    0.00195   -0.00029
AG2   7    0.551224    0.001068    0.403486    11.00000    0.01507    0.01087 =
         0.04184   -0.00087   -0.00160   -0.00036
AG3   7    0.686109    0.000010    0.398551    11.00000    0.01348    0.02279 =
         0.02862   -0.01250   -0.00357    0.00165
AG4   7    0.817644   -0.016844    0.407777    11.00000    0.01313    0.03624 =
         0.01455   -0.00146    0.00009   -0.00321
AG5   7    0.942292    0.030223    0.399520    11.00000    0.01167    0.01758 =
         0.02119    0.00865    0.00038   -0.00075
AG6   7    1.058922   -0.003387    0.350360    11.00000    0.01457    0.01111 =
         0.02791   -0.00002   -0.00016   -0.00153
AG7   7    1.171435   -0.035623    0.404310    11.00000    0.01286    0.01568 =
         0.01823   -0.00626    0.00106    0.00102
AG8   7    1.290874    0.022059    0.404209    11.00000    0.01506    0.02064 =
         0.01338    0.00255    0.00134   -0.00059
F1    6    1.176013   -0.398288    0.388543    11.00000    0.05043    0.01886 =
         0.05732    0.00517    0.01059    0.01464
F2    6    1.087194   -0.349023    0.405197    11.00000    0.04169    0.03306 =
         0.08521   -0.00681    0.01179   -0.00641
F3    6    1.164103   -0.303429    0.363383    11.00000    0.08539    0.02998 =
         0.03615    0.01589    0.00657   -0.00618
F4    6    1.172727   -0.324381    0.448730    11.00000    0.05907    0.05511 =
         0.04618   -0.01029   -0.02113    0.01625
F5    6    1.035129   -0.151932    0.653524    11.00000    0.03815    0.02385 =
         0.07426    0.00058    0.01177    0.00398
F6    6    1.101625   -0.080141    0.629752    11.00000    0.05023    0.01174 =
         0.03464    0.00174    0.00189   -0.00814
F7    6    1.090350   -0.163259    0.579847    11.00000    0.03866
F8    6    1.136470   -0.170743    0.657515    11.00000    0.04176    0.03917 =
         0.04716   -0.00332   -0.01038    0.01242
F9    6    0.830525   -0.228683    0.684298    11.00000    0.08529    0.19525 =
         0.11609    0.07299    0.04635   -0.00838
F10   6    0.813421   -0.231479    0.604369    11.00000    0.04706    0.06276 =
         0.12719   -0.03580   -0.00395   -0.00033
F11   6    0.832876   -0.145013    0.642469    11.00000    0.03925    0.02245 =
         0.20374   -0.03175    0.01345    0.01280
F12   6    0.907680   -0.211132    0.629871    11.00000    0.01920    0.03385 =
         0.10175    0.01807    0.02020    0.00316
F13   6    0.976283    0.156714    0.662912    11.00000    0.03802    0.05297 =
         0.03126   -0.00464   -0.00484    0.01810
F14   6    1.019580    0.073437    0.630308    11.00000    0.04069    0.02187 =
         0.03734   -0.00163    0.00641   -0.00801
F15   6    1.022501    0.158969    0.584650    11.00000    0.03564
F16   6    1.079860    0.150934    0.656742    11.00000    0.03453
F17   6    1.286217    0.155293    0.594950    11.00000    0.04180    0.01808 =
         0.04982    0.00168    0.00148    0.00244
F18   6    1.300226    0.248018    0.561713    11.00000    0.03074    0.03045 =
         0.02515    0.00435    0.00043   -0.00072
F19   6    1.304878    0.233166    0.648365    11.00000    0.06111    0.03398 =
         0.02235   -0.00437   -0.01953   -0.02136
F20   6    1.213642    0.225091    0.607208    11.00000    0.02574    0.04131 =
         0.04736   -0.01136    0.00734    0.00423
F21   6    1.170014    0.321015    0.326386    11.00000    0.05304
F22   6    1.223603    0.263988    0.381316    11.00000    0.08303    0.03461 =
         0.02803    0.00210    0.01820    0.00189
F23   6    1.242321    0.258513    0.295959    11.00000    0.06695    0.02370 =
         0.03246    0.00387    0.00231    0.00085
F24   6    1.270047    0.340390    0.340547    11.00000    0.05420    0.03885 =
         0.04394    0.00669   -0.00572   -0.02568
C1A   1    0.380498    0.233000    0.379953    11.00000    0.04190
AFIX 137
H1AA  2    0.397015    0.231616    0.414079    11.00000   -1.50000
H1AB  2    0.336872    0.227415    0.381301    11.00000   -1.50000
H1AC  2    0.389451    0.270737    0.364820    11.00000   -1.50000
AFIX   0
C1B   1    0.473566   -0.074342    0.564953    11.00000    0.04848
AFIX 137
H1BA  2    0.468652   -0.102891    0.591907    11.00000   -1.50000
H1BB  2    0.456035   -0.037319    0.575450    11.00000   -1.50000
H1BC  2    0.516431   -0.069038    0.557868    11.00000   -1.50000
AFIX   0
C1C   1    0.644929    0.194205    0.312319    11.00000    0.04233
AFIX 137
H1CA  2    0.646830    0.236612    0.311408    11.00000   -1.50000
H1CB  2    0.626752    0.179901    0.281147    11.00000   -1.50000
H1CC  2    0.685620    0.178434    0.315674    11.00000   -1.50000
AFIX   0
C1D   1    0.467339   -0.178716    0.287348    11.00000    0.04219
AFIX 137
H1DA  2    0.489739   -0.166455    0.257470    11.00000   -1.50000
H1DB  2    0.429007   -0.157881    0.288815    11.00000   -1.50000
H1DC  2    0.459686   -0.220480    0.285574    11.00000   -1.50000
AFIX   0
C1E   1    0.607754    0.044474    0.589664    11.00000    0.04645
AFIX 137
H1EA  2    0.607961    0.070365    0.618859    11.00000   -1.50000
H1EB  2    0.627493    0.007905    0.598482    11.00000   -1.50000
H1EC  2    0.566179    0.036792    0.579506    11.00000   -1.50000
AFIX   0
C1F   1    0.742290   -0.229100    0.369183    11.00000    0.05078
AFIX 137
H1FA  2    0.736527   -0.263480    0.348111    11.00000   -1.50000
H1FB  2    0.722852   -0.235166    0.401815    11.00000   -1.50000
H1FC  2    0.785364   -0.222423    0.374207    11.00000   -1.50000
AFIX   0
C1G   1    0.864110    0.133737    0.561163    11.00000    0.03525
AFIX 137
H1GA  2    0.855058    0.145460    0.595748    11.00000   -1.50000
H1GB  2    0.846765    0.161900    0.537723    11.00000   -1.50000
H1GC  2    0.907761    0.132201    0.556470    11.00000   -1.50000
AFIX   0
C1H   1    0.757274    0.092726    0.233479    11.00000    0.05740
AFIX 137
H1HA  2    0.780432    0.126096    0.245462    11.00000   -1.50000
H1HB  2    0.715969    0.095367    0.246048    11.00000   -1.50000
H1HC  2    0.756893    0.092536    0.196645    11.00000   -1.50000
AFIX   0
C1I   1    0.897194   -0.180319    0.489275    11.00000    0.05405
AFIX 137
H1IA  2    0.901869   -0.204576    0.519254    11.00000   -1.50000
H1IB  2    0.916498   -0.199273    0.460539    11.00000   -1.50000
H1IC  2    0.854350   -0.174877    0.482177    11.00000   -1.50000
AFIX   0
C1J   1    0.958865    0.069113    0.194650    11.00000    0.03536
AFIX 137
H1JA  2    0.947076    0.094527    0.166838    11.00000   -1.50000
H1JB  2    0.939156    0.031400    0.190820    11.00000   -1.50000
H1JC  2    1.002564    0.063860    0.194340    11.00000   -1.50000
AFIX   0
C1K   1    1.060975   -0.214428    0.448359    11.00000    0.03404
AFIX 137
H1KA  2    1.053134   -0.256181    0.447018    11.00000   -1.50000
H1KB  2    1.035693   -0.196730    0.474319    11.00000   -1.50000
H1KC  2    1.103388   -0.207783    0.456426    11.00000   -1.50000
AFIX   0
C1L   1    1.040819    0.211536    0.440223    11.00000    0.03334
AFIX 137
H1LA  2    1.052318    0.252474    0.438492    11.00000   -1.50000
H1LB  2    1.060449    0.193358    0.469181    11.00000   -1.50000
H1LC  2    0.997114    0.208475    0.443886    11.00000   -1.50000
AFIX   0
C1M   1    1.168699   -0.081016    0.201491    11.00000    0.03200
AFIX 137
H1MA  2    1.178676   -0.108359    0.174573    11.00000   -1.50000
H1MB  2    1.193129   -0.045944    0.197815    11.00000   -1.50000
H1MC  2    1.126024   -0.070807    0.199423    11.00000   -1.50000
AFIX   0
C1N   1    1.196415    0.180248    0.489390    11.00000    0.03365
AFIX 137
H1NA  2    1.179436    0.206997    0.514222    11.00000   -1.50000
H1NB  2    1.183163    0.191565    0.455661    11.00000   -1.50000
H1NC  2    1.240384    0.181654    0.491068    11.00000   -1.50000
AFIX   0
C1O   1    1.351495   -0.043105    0.213071    11.00000    0.06802
AFIX 137
H1OA  2    1.322081   -0.073235    0.204807    11.00000   -1.50000
H1OB  2    1.383538   -0.059789    0.233784    11.00000   -1.50000
H1OC  2    1.368760   -0.027506    0.182004    11.00000   -1.50000
AFIX   0
C1P   1    1.255708   -0.132223    0.561449    11.00000    0.02838
AFIX 137
H1PA  2    1.277687   -0.162628    0.543472    11.00000   -1.50000
H1PB  2    1.213253   -0.133335    0.551709    11.00000   -1.50000
H1PC  2    1.259213   -0.138619    0.597747    11.00000   -1.50000
AFIX   0
C2A   1    0.443140    0.197282    0.307605    11.00000    0.02575
AFIX  43
H2A   2    0.448699    0.236393    0.297583    11.00000   -1.20000
AFIX   0
C2B   1    0.417657   -0.148720    0.513785    11.00000    0.02746
AFIX  43
H2B   2    0.418494   -0.174724    0.541425    11.00000   -1.20000
AFIX   0
C2C   1    0.581074    0.214731    0.388122    11.00000    0.02561
AFIX  43
H2C   2    0.586834    0.254980    0.382563    11.00000   -1.20000
AFIX   0
C2D   1    0.526607   -0.208304    0.364057    11.00000    0.02359
AFIX  43
H2D   2    0.520145   -0.247437    0.354487    11.00000   -1.20000
AFIX   0
C2E   1    0.668396    0.126573    0.548326    11.00000    0.03015
AFIX  43
H2E   2    0.664692    0.148277    0.578480    11.00000   -1.20000
AFIX   0
C2F   1    0.689181   -0.179966    0.297298    11.00000    0.03245
AFIX  43
H2F   2    0.689512   -0.215948    0.280010    11.00000   -1.20000
AFIX   0
C2G   1    0.813325    0.042008    0.588296    11.00000    0.02851
AFIX  43
H2G   2    0.813812    0.055610    0.621971    11.00000   -1.20000
AFIX   0
C2H   1    0.801974   -0.007910    0.222634    11.00000    0.04270
AFIX  43
H2H   2    0.796639   -0.004358    0.187364    11.00000   -1.20000
AFIX   0
C2I   1    0.945461   -0.104147    0.545167    11.00000    0.02623
AFIX  43
H2I   2    0.942394   -0.131051    0.572038    11.00000   -1.20000
AFIX   0
C2J   1    0.919381    0.152569    0.246817    11.00000    0.02738
AFIX  43
H2J   2    0.915925    0.173914    0.216450    11.00000   -1.20000
AFIX   0
C2K   1    1.031404   -0.219099    0.356121    11.00000    0.02317
AFIX  43
H2K   2    1.028744   -0.260076    0.358296    11.00000   -1.20000
AFIX   0
C2L   1    1.077102    0.213588    0.350006    11.00000    0.02821
AFIX  43
H2L   2    1.075861    0.254686    0.351058    11.00000   -1.20000
AFIX   0
C2M   1    1.195689   -0.167947    0.256391    11.00000    0.02327
AFIX  43
H2M   2    1.198669   -0.191564    0.227281    11.00000   -1.20000
AFIX   0
C2N   1    1.158261    0.103580    0.547330    11.00000    0.02178
AFIX  43
H2N   2    1.157802    0.131508    0.573526    11.00000   -1.20000
AFIX   0
C2O   1    1.305082    0.055407    0.219296    11.00000    0.03547
AFIX  43
H2O   2    1.310910    0.059702    0.184142    11.00000   -1.20000
AFIX   0
C2P   1    1.306684   -0.038691    0.584628    11.00000    0.01781
AFIX  43
H2P   2    1.308370   -0.051766    0.618432    11.00000   -1.20000
AFIX   0
C3A   1    0.469534    0.155448    0.281065    11.00000    0.02224
AFIX  43
H3A   2    0.492050    0.163834    0.251641    11.00000   -1.20000
AFIX   0
C3B   1    0.391514   -0.165698    0.469784    11.00000    0.02258
AFIX  43
H3B   2    0.375644   -0.203738    0.466933    11.00000   -1.20000
AFIX   0
C3C   1    0.546379    0.196738    0.427873    11.00000    0.03295
AFIX  43
H3C   2    0.530544    0.223966    0.451111    11.00000   -1.20000
AFIX   0
C3D   1    0.558177   -0.197904    0.407065    11.00000    0.02103
AFIX  43
H3D   2    0.573164   -0.228267    0.427617    11.00000   -1.20000
AFIX   0
C3E   1    0.699651    0.149690    0.509987    11.00000    0.02381
AFIX  43
H3E   2    0.717519    0.186882    0.512976    11.00000   -1.20000
AFIX   0
C3F   1    0.663011   -0.134239    0.273993    11.00000    0.03208
AFIX  43
H3F   2    0.645941   -0.137716    0.241429    11.00000   -1.20000
AFIX   0
C3G   1    0.788034   -0.010657    0.577796    11.00000    0.02562
AFIX  43
H3G   2    0.771547   -0.033808    0.603870    11.00000   -1.20000
AFIX   0
C3H   1    0.824807   -0.056987    0.239889    11.00000    0.05646
AFIX  43
H3H   2    0.834537   -0.087677    0.217566    11.00000   -1.20000
AFIX   0
C3I   1    0.967900   -0.051175    0.554648    11.00000    0.02583
AFIX  43
H3I   2    0.980979   -0.040622    0.587358    11.00000   -1.20000
AFIX   0
C3J   1    0.904226    0.178432    0.289070    11.00000    0.02483
AFIX  43
H3J   2    0.892198    0.217895    0.289322    11.00000   -1.20000
AFIX   0
C3K   1    1.020158   -0.193174    0.312155    11.00000    0.02564
AFIX  43
H3K   2    1.009018   -0.215967    0.283949    11.00000   -1.20000
AFIX   0
C3L   1    1.095211    0.186287    0.307310    11.00000    0.02582
AFIX  43
H3L   2    1.107657    0.207465    0.278544    11.00000   -1.20000
AFIX   0
C3M   1    1.205096   -0.191167    0.301914    11.00000    0.01992
AFIX  43
H3M   2    1.213830   -0.231260    0.305108    11.00000   -1.20000
AFIX   0
C3N   1    1.141338    0.047025    0.557988    11.00000    0.02497
AFIX  43
H3N   2    1.130833    0.035504    0.591098    11.00000   -1.20000
AFIX   0
C3O   1    1.280817    0.100566    0.246176    11.00000    0.02448
AFIX  43
H3O   2    1.270082    0.135882    0.230237    11.00000   -1.20000
AFIX   0
C3P   1    1.329136    0.014532    0.573856    11.00000    0.02460
AFIX  43
H3P   2    1.346234    0.038455    0.599118    11.00000   -1.20000
AFIX   0
C4A   1    0.462300    0.096036    0.299248    11.00000    0.01775
C4B   1    0.387656   -0.126870    0.427734    11.00000    0.02012
C4C   1    0.534614    0.136352    0.433549    11.00000    0.03166
C4D   1    0.567278   -0.137347    0.419241    11.00000    0.01709
C4E   1    0.705477    0.116128    0.463501    11.00000    0.02303
C4F   1    0.662309   -0.079455    0.301290    11.00000    0.01964
C4G   1    0.786908   -0.030408    0.526094    11.00000    0.01955
C4H   1    0.834694   -0.063026    0.293535    11.00000    0.03605
C4I   1    0.971402   -0.010277    0.512483    11.00000    0.01094
C4J   1    0.906410    0.144768    0.335594    11.00000    0.01564
C4K   1    1.024724   -0.130665    0.306885    11.00000    0.01319
C4L   1    1.094700    0.122877    0.307584    11.00000    0.01568
C4M   1    1.201927   -0.155467    0.345369    11.00000    0.01041
C4N   1    1.140345    0.006561    0.516882    11.00000    0.01528
C4O   1    1.272229    0.092412    0.299477    11.00000    0.02149
C4P   1    1.325687    0.033310    0.521194    11.00000    0.01704
C5A   1    0.399974    0.127515    0.365809    11.00000    0.02129
C5B   1    0.442101   -0.055110    0.476278    11.00000    0.01977
C5C   1    0.597418    0.115113    0.363213    11.00000    0.01538
C5D   1    0.514291   -0.105971    0.346919    11.00000    0.01214
C5E   1    0.645727    0.038798    0.501341    11.00000    0.02460
C5F   1    0.715874   -0.124388    0.370557    11.00000    0.01563
C5G   1    0.838551    0.056510    0.500302    11.00000    0.01903
C5H   1    0.791782    0.032613    0.307070    11.00000    0.02313
C5I   1    0.929626   -0.081972    0.457620    11.00000    0.02498
C5J   1    0.944076    0.062408    0.288963    11.00000    0.01481
C5K   1    1.053309   -0.124890    0.394905    11.00000    0.01946
C5L   1    1.057346    0.120674    0.390105    11.00000    0.01336
C5M   1    1.176539   -0.073756    0.295488    11.00000    0.01579
C5N   1    1.177217    0.080222    0.459727    11.00000    0.01363
C5O   1    1.311138   -0.004662    0.294319    11.00000    0.02177
C5P   1    1.278625   -0.055216    0.497964    11.00000    0.01557

B1    3    1.150608   -0.343966    0.401523    11.00000    0.03179
B2    3    1.092462   -0.142496    0.629263    11.00000    0.02884
B3    3    0.847354   -0.201637    0.639897    11.00000    0.03506
B4    3    1.024132    0.135766    0.634919    11.00000    0.01459
B5    3    1.276912    0.214187    0.603503    11.00000    0.01645
B6    3    1.227357    0.296491    0.337020    11.00000    0.03350
N1A   4    0.428104    0.083280    0.339474    11.00000    0.01881
N1B   4    0.413185   -0.072424    0.433817    11.00000    0.01710
N1C   4    0.560140    0.097517    0.401017    11.00000    0.02031
N1D   4    0.545661   -0.094172    0.389928    11.00000    0.01386
N1E   4    0.679966    0.062412    0.461767    11.00000    0.01031
N1F   4    0.688117   -0.076126    0.348718    11.00000    0.01697
N1G   4    0.812683    0.002586    0.489413    11.00000    0.00735
N1H   4    0.818220   -0.018481    0.325347    11.00000    0.02660
N1I   4    0.952698   -0.026539    0.466484    11.00000    0.01412
N1J   4    0.927487    0.088162    0.333434    11.00000    0.01313
N1K   4    1.041086   -0.098811    0.349079    11.00000    0.01095
N1L   4    1.075608    0.091803    0.347242    11.00000    0.01435
N1M   4    1.186927   -0.097535    0.341256    11.00000    0.00966
N1N   4    1.158050    0.023330    0.469222    11.00000    0.01392
N1O   4    1.287360    0.040723    0.321409    11.00000    0.01345
N1P   4    1.300975   -0.001341    0.485945    11.00000    0.01002
N2A   4    0.408339    0.185825    0.348763    11.00000    0.01971
N2B   4    0.442479   -0.095318    0.518724    11.00000    0.02532
N2C   4    0.607637    0.175366    0.356201    11.00000    0.02494
N2D   4    0.503554   -0.165405    0.333701    11.00000    0.01940
N2E   4    0.641715    0.073306    0.545924    11.00000    0.03462
N2F   4    0.715299   -0.178107    0.344140    11.00000    0.02124
N2G   4    0.837796    0.075243    0.551320    11.00000    0.02044
N2H   4    0.785450    0.038251    0.252160    11.00000    0.03674
N2I   4    0.926947   -0.120746    0.498512    11.00000    0.02620
N2J   4    0.939994    0.096259    0.244070    11.00000    0.02202
N2K   4    1.046770   -0.187810    0.398384    11.00000    0.02113
N2L   4    1.060134    0.181280    0.392777    11.00000    0.01270
N2M   4    1.181340   -0.108440    0.251421    11.00000    0.01722
N2N   4    1.175502    0.120159    0.500376    11.00000    0.02434
N2O   4    1.320918    0.004868    0.241688    11.00000    0.03666
N2P   4    1.281177   -0.075335    0.548574    11.00000    0.01417
N3A   4    0.490856    0.050626    0.274206    11.00000    0.02115
AFIX  93
H3AA  2    0.486269    0.014873    0.284794    11.00000   -1.20000
H3AB  2    0.513413    0.057803    0.247859    11.00000   -1.20000
AFIX   0
N3B   4    0.361308   -0.139938    0.385083    11.00000    0.02617
AFIX  93
H3BA  2    0.359931   -0.114350    0.360695    11.00000   -1.20000
H3BB  2    0.345060   -0.174269    0.380940    11.00000   -1.20000
AFIX   0
N3C   4    0.500194    0.115725    0.471877    11.00000    0.04476
AFIX  93
H3CA  2    0.494771    0.078259    0.475320    11.00000   -1.20000
H3CB  2    0.483420    0.139888    0.493152    11.00000   -1.20000
AFIX   0
N3D   4    0.597390   -0.122936    0.461815    11.00000    0.02137
AFIX  93
H3DA  2    0.602447   -0.086343    0.469763    11.00000   -1.20000
H3DB  2    0.611808   -0.150210    0.481402    11.00000   -1.20000
AFIX   0
N3E   4    0.735145    0.135616    0.424398    11.00000    0.02791
AFIX  93
H3EA  2    0.738497    0.114127    0.397314    11.00000   -1.20000
H3EB  2    0.751650    0.170148    0.425309    11.00000   -1.20000
AFIX   0
N3F   4    0.637527   -0.031326    0.281412    11.00000    0.02535
AFIX  93
H3FA  2    0.637920    0.001274    0.298410    11.00000   -1.20000
H3FB  2    0.620996   -0.032587    0.251470    11.00000   -1.20000
AFIX   0
N3G   4    0.762509   -0.082403    0.513779    11.00000    0.02725
AFIX  93
H3GA  2    0.763424   -0.094467    0.482493    11.00000   -1.20000
H3GB  2    0.745813   -0.103970    0.537099    11.00000   -1.20000
AFIX   0
N3H   4    0.856083   -0.110931    0.313563    11.00000    0.04256
AFIX  93
H3HA  2    0.859557   -0.113931    0.346330    11.00000   -1.20000
H3HB  2    0.866874   -0.139878    0.294152    11.00000   -1.20000
AFIX   0
N3I   4    0.992684    0.043287    0.520141    11.00000    0.02202
AFIX  93
H3IA  2    0.994485    0.067986    0.495090    11.00000   -1.20000
H3IB  2    1.004832    0.053695    0.550210    11.00000   -1.20000
AFIX   0
N3J   4    0.889227    0.166799    0.380250    11.00000    0.02329
AFIX  93
H3JA  2    0.891430    0.145438    0.407491    11.00000   -1.20000
H3JB  2    0.875830    0.202512    0.382098    11.00000   -1.20000
AFIX   0
N3K   4    1.012948   -0.103033    0.264716    11.00000    0.02632
AFIX  93
H3KA  2    1.015487   -0.065098    0.263562    11.00000   -1.20000
H3KB  2    1.002558   -0.122546    0.237756    11.00000   -1.20000
AFIX   0
N3L   4    1.113037    0.094152    0.265767    11.00000    0.02376
AFIX  93
H3LA  2    1.112257    0.056131    0.265046    11.00000   -1.20000
H3LB  2    1.125672    0.113600    0.239450    11.00000   -1.20000
AFIX   0
N3M   4    1.211943   -0.177516    0.392042    11.00000    0.01587
AFIX  93
H3MA  2    1.208819   -0.155083    0.418563    11.00000   -1.20000
H3MB  2    1.221531   -0.214178    0.395643    11.00000   -1.20000
AFIX   0
N3N   4    1.121117   -0.048369    0.523122    11.00000    0.01736
AFIX  93
H3NA  2    1.120143   -0.072163    0.497390    11.00000   -1.20000
H3NB  2    1.109571   -0.060340    0.552918    11.00000   -1.20000
AFIX   0
N3O   4    1.249805    0.135065    0.326768    11.00000    0.02783
AFIX  93
H3OA  2    1.244496    0.130408    0.359217    11.00000   -1.20000
H3OB  2    1.240213    0.168067    0.312456    11.00000   -1.20000
AFIX   0
N3P   4    1.347249    0.086209    0.509134    11.00000    0.02397
AFIX  93
H3PA  2    1.345312    0.098536    0.477958    11.00000   -1.20000
H3PB  2    1.363201    0.108270    0.532470    11.00000   -1.20000
AFIX   0
O1A   5    0.368023    0.119221    0.404408    11.00000    0.02132
O1B   5    0.466613   -0.005874    0.482670    11.00000    0.02702
O1C   5    0.622091    0.080481    0.332335    11.00000    0.03022
O1D   5    0.491366   -0.067936    0.317955    11.00000    0.02339
O1E   5    0.618758   -0.008499    0.497921    11.00000    0.03093
O1F   5    0.742389   -0.121416    0.412157    11.00000    0.02455
O1G   5    0.861424    0.088126    0.466723    11.00000    0.02313
O1H   5    0.773393    0.072549    0.333324    11.00000    0.02908
O1I   5    0.909966   -0.097832    0.415038    11.00000    0.02508
O1J   5    0.964221    0.011470    0.285351    11.00000    0.02419
O1K   5    1.070806   -0.098082    0.432875    11.00000    0.01828
O1L   5    1.039605    0.093115    0.429019    11.00000    0.01912
O1M   5    1.160795   -0.020751    0.289730    11.00000    0.02207
O1N   5    1.195684    0.095275    0.417932    11.00000    0.01852
O1O   5    1.328183   -0.051498    0.313246    11.00000    0.02498
O1P   5    1.256664   -0.088782    0.464688    11.00000    0.01245
HKLF 4




REM  mo_AGCL0_0m in P2(1)2(1)2(1)
REM R1 =  0.0377 for    8628 Fo > 4sig(Fo)  and  0.0516 for all   10151 data
REM    885 parameters refined using      0 restraints

END

WGHT      0.0157     43.8487

REM Highest difference peak  0.442,  deepest hole -0.410,  1-sigma level  0.082
Q1    1   0.8982 -0.1857  0.2484  11.00000  0.05    0.44
Q2    1   0.4772 -0.0031  0.3846  11.00000  0.05    0.42
Q3    1   1.0589  0.0022  0.4090  11.00000  0.05    0.41
Q4    1   0.8341 -0.1666  0.5894  11.00000  0.05    0.41
Q5    1   1.1604  0.3180  0.2932  11.00000  0.05    0.41
Q6    1   0.5998 -0.0064  0.4019  11.00000  0.05    0.40
Q7    1   0.9562 -0.0346  0.4072  11.00000  0.05    0.40
Q8    1   0.4846  0.1380  0.4511  11.00000  0.05    0.39
Q9    1   0.8164  0.0179  0.3497  11.00000  0.05    0.39
Q10   1   0.5996 -0.0038  0.2356  11.00000  0.05    0.38
;
_shelx_res_checksum              86693
_shelx_fab_file
;
-19 -5 -3 -6.6176 3.3014
-19 -5 -2 10.3717 0.1535
-19 -5 -1 1.9075 -1.8576
-19 -4 -5 2.0430 0.1538
-19 -4 -4 5.7617 -5.1515
-19 -4 -3 -5.3408 -6.8833
-19 -4 -2 -5.5509 -0.5087
-19 -4 -1 1.8320 -0.5613
-19 -3 -5 -8.9321 1.4703
-19 -3 -4 4.0155 -2.9406
-19 -3 -3 9.0956 -0.8519
-19 -3 -2 0.6429 3.9065
-19 -3 -1 0.8572 -5.3046
-19 -2 -6 -5.3713 -2.3587
-19 -2 -5 1.5170 -7.0503
-19 -2 -4 1.1130 5.7038
-19 -2 -3 -0.1929 -0.2480
-19 -2 -2 7.5822 1.3361
-19 -2 -1 0.8228 5.7177
-19 -1 -6 0.4771 2.7345
-19 -1 -5 6.7785 0.4675
-19 -1 -4 -1.4120 -3.8541
-19 -1 -3 -3.1450 0.4281
-19 -1 -2 -12.6778 -0.8252
-19 -1 -1 -2.6918 3.2984
-18 -8 -3 1.5917 2.8401
-18 -8 -2 3.0806 1.1228
-18 -8 -1 -4.7612 1.2144
-18 -7 -5 -2.2734 -5.0507
-18 -7 -4 2.5551 0.9561
-18 -7 -3 0.4191 5.7104
-18 -7 -2 -1.2760 8.5184
-18 -7 -1 5.2230 -5.0660
-18 -6 -7 -0.1308 -0.6819
-18 -6 -6 7.0353 -1.0261
-18 -6 -5 -0.8153 9.1605
-18 -6 -4 3.4580 -3.7113
-18 -6 -3 -1.2195 -11.5675
-18 -6 -2 -3.4685 3.8387
-18 -6 -1 -1.8530 2.9125
-18 -5 -8 5.6639 -2.0689
-18 -5 -7 4.1086 1.2777
-18 -5 -6 -4.6069 4.8748
-18 -5 -5 -4.7535 1.8943
-18 -5 -4 3.2845 6.1330
-18 -5 -3 -3.4280 -7.0233
-18 -5 -2 8.0625 -10.3077
-18 -5 -1 3.9840 5.7267
-18 -4 -8 4.5745 1.9047
-18 -4 -7 0.9541 1.5582
-18 -4 -6 -6.6201 1.7637
-18 -4 -5 -3.8640 -4.0955
-18 -4 -4 -10.8769 -6.3076
-18 -4 -3 6.6931 4.4276
-18 -4 -2 -0.1319 7.8180
-18 -4 -1 11.4202 0.1893
-18 -3 -9 -0.3005 0.9548
-18 -3 -8 -0.1067 7.4920
-18 -3 -7 -7.0763 -2.0401
-18 -3 -6 -3.9299 3.4143
-18 -3 -5 4.7094 -2.3051
-18 -3 -4 0.4190 -13.8604
-18 -3 -3 5.3786 -0.1349
-18 -3 -2 -1.7893 4.4299
-18 -3 -1 -2.5111 1.9861
-18 -2 -9 1.0617 2.2930
-18 -2 -8 5.2699 -1.6909
-18 -2 -7 -0.2477 -3.2827
-18 -2 -6 -6.5832 0.7065
-18 -2 -5 5.6995 -2.1911
-18 -2 -4 8.8521 -0.7890
-18 -2 -3 -8.3535 -2.9351
-18 -2 -2 10.6805 -1.1047
-18 -2 -1 -13.0435 3.0060
-18 -1 -9 -0.1096 0.6293
-18 -1 -8 2.4505 -3.1406
-18 -1 -7 5.4721 0.2885
-18 -1 -6 2.4669 0.5841
-18 -1 -5 -6.3736 5.7333
-18 -1 -4 0.4261 2.6957
-18 -1 -3 -2.1718 10.8242
-18 -1 -2 5.5189 2.7734
-18 -1 -1 6.8035 -15.1247
-17 -10 -4 -8.4768 -3.6909
-17 -10 -3 3.7998 -5.8356
-17 -10 -2 2.2947 -5.5824
-17 -10 -1 1.8779 -1.7624
-17 -9 -6 -2.6195 0.9946
-17 -9 -5 -4.5830 -0.9987
-17 -9 -4 -4.3904 -0.2707
-17 -9 -3 -0.1857 -1.1459
-17 -9 -2 2.0330 -1.7479
-17 -9 -1 1.9242 7.1750
-17 -8 -8 4.2495 1.5337
-17 -8 -7 -1.4219 0.6914
-17 -8 -6 -1.0786 2.6216
-17 -8 -5 2.4142 -3.6078
-17 -8 -4 7.1966 -0.1969
-17 -8 -3 -0.8325 4.7803
-17 -8 -2 -6.4695 -0.6665
-17 -8 -1 -5.8459 2.2463
-17 -7 -9 -0.2022 1.9565
-17 -7 -8 -3.4078 -3.7127
-17 -7 -7 -1.5258 -7.1082
-17 -7 -6 2.5979 3.0354
-17 -7 -5 7.3932 0.4282
-17 -7 -4 -3.0637 4.2955
-17 -7 -3 6.4578 4.4503
-17 -7 -2 -1.2641 2.9070
-17 -7 -1 -7.9093 -4.9783
-17 -6 -10 -5.7148 1.2834
-17 -6 -9 -1.3065 -3.4304
-17 -6 -8 4.2577 -1.5988
-17 -6 -7 0.6366 -6.4438
-17 -6 -6 3.3443 0.4607
-17 -6 -5 1.2692 1.5762
-17 -6 -4 -9.1363 0.8132
-17 -6 -3 2.6460 4.0998
-17 -6 -2 5.5158 -3.4897
-17 -6 -1 3.3830 1.1331
-17 -5 -10 -1.4364 -2.8368
-17 -5 -9 -5.6169 -0.9170
-17 -5 -8 1.7711 3.7472
-17 -5 -7 4.0855 3.7745
-17 -5 -6 -1.5576 2.0573
-17 -5 -5 2.9217 -5.1069
-17 -5 -4 -2.8508 -6.8535
-17 -5 -3 -15.4470 -1.8972
-17 -5 -2 9.5296 -4.4367
-17 -5 -1 8.0803 7.8720
-17 -4 -11 0.4436 0.7492
-17 -4 -10 9.5947 4.2128
-17 -4 -9 0.8931 8.4825
-17 -4 -8 -4.0266 -3.8701
-17 -4 -7 -5.5914 -2.3111
-17 -4 -6 -10.1420 3.8239
-17 -4 -5 1.4514 10.7278
-17 -4 -4 11.4689 -8.7717
-17 -4 -3 5.8699 -3.1144
-17 -4 -2 -4.8834 -4.1841
-17 -4 -1 -9.3776 -16.7596
-17 -3 -11 6.4945 -3.2563
-17 -3 -10 -6.7627 5.1311
-17 -3 -9 0.2771 5.8108
-17 -3 -8 -0.5795 7.7208
-17 -3 -7 -4.2572 -6.7924
-17 -3 -6 4.1313 -15.0703
-17 -3 -5 0.5962 -0.5145
-17 -3 -4 -8.4698 5.8379
-17 -3 -3 0.2727 7.5830
-17 -3 -2 10.5001 12.8792
-17 -3 -1 2.7587 -1.7690
-17 -2 -12 4.4216 1.1857
-17 -2 -11 3.0595 -2.8406
-17 -2 -10 0.9755 -2.9191
-17 -2 -9 -3.4586 1.0801
-17 -2 -8 -7.1499 -5.6567
-17 -2 -7 0.3479 -3.3169
-17 -2 -6 4.7548 7.5398
-17 -2 -5 6.5526 -9.8515
-17 -2 -4 6.6453 6.5129
-17 -2 -3 -9.3458 1.6121
-17 -2 -2 -5.4750 -4.0905
-17 -2 -1 7.4293 8.8097
-17 -1 -12 -4.3555 1.9744
-17 -1 -11 3.4471 1.7049
-17 -1 -10 -0.7045 1.7387
-17 -1 -9 -1.4184 0.7292
-17 -1 -8 8.5262 -6.1443
-17 -1 -7 -4.6232 -3.5805
-17 -1 -6 3.4813 9.2496
-17 -1 -5 7.0644 4.7010
-17 -1 -4 -3.0107 -4.5736
-17 -1 -3 0.7231 -5.2949
-17 -1 -2 -14.2300 -7.6247
-17 -1 -1 -4.1834 -10.1413
-16 -12 -2 -7.8886 -1.0066
-16 -12 -1 0.6999 5.7922
-16 -11 -6 -3.1759 -3.0751
-16 -11 -5 -3.0433 2.4490
-16 -11 -4 -1.5523 5.2984
-16 -11 -3 1.0297 -7.8988
-16 -11 -2 5.1764 -7.5790
-16 -11 -1 4.6160 6.9310
-16 -10 -8 -3.1757 6.8944
-16 -10 -7 2.2954 4.0678
-16 -10 -6 0.7519 2.6641
-16 -10 -5 -5.7403 0.4044
-16 -10 -4 -8.4281 -9.1525
-16 -10 -3 0.4687 -7.9738
-16 -10 -2 3.8113 -0.6563
-16 -10 -1 6.1906 -1.7041
-16 -9 -9 4.4764 -3.0411
-16 -9 -8 1.1168 1.2928
-16 -9 -7 -1.2841 7.7530
-16 -9 -6 -6.8146 2.4052
-16 -9 -5 -2.9713 -1.8881
-16 -9 -4 1.9442 -0.3714
-16 -9 -3 -1.2413 0.2612
-16 -9 -2 0.8056 -6.6402
-16 -9 -1 -3.3278 -3.4144
-16 -8 -10 4.8970 0.0775
-16 -8 -9 1.2325 0.7329
-16 -8 -8 0.9212 2.4226
-16 -8 -7 2.3969 -1.0669
-16 -8 -6 -0.0229 -4.7611
-16 -8 -5 -0.7233 0.9917
-16 -8 -4 4.1590 6.7432
-16 -8 -3 -3.6297 8.9101
-16 -8 -2 -2.4446 5.7381
-16 -8 -1 -3.5109 -3.3346
-16 -7 -11 -2.2747 0.4665
-16 -7 -10 -2.0789 -9.1901
-16 -7 -9 -2.6769 2.0246
-16 -7 -8 -4.8034 0.4958
-16 -7 -7 7.6626 -3.3652
-16 -7 -6 7.7449 0.0694
-16 -7 -5 5.5783 6.0413
-16 -7 -4 1.6467 -7.1201
-16 -7 -3 -2.6006 0.9243
-16 -7 -2 -4.2163 15.2412
-16 -7 -1 -3.1083 -0.3417
-16 -6 -12 -5.3681 0.3859
-16 -6 -11 -0.2374 2.6145
-16 -6 -10 -8.7743 1.2210
-16 -6 -9 3.1709 -7.6556
-16 -6 -8 10.2334 -4.4766
-16 -6 -7 -7.0987 2.2881
-16 -6 -6 -8.6678 -1.2089
-16 -6 -5 3.1929 7.6287
-16 -6 -4 3.0941 -0.2681
-16 -6 -3 2.9349 -8.2601
-16 -6 -2 9.7768 -9.5813
-16 -6 -1 -5.6183 5.6387
-16 -5 -12 1.3544 4.0411
-16 -5 -11 0.1798 -5.9964
-16 -5 -10 -0.8621 -1.8572
-16 -5 -9 2.6465 5.0585
-16 -5 -8 1.2709 1.2608
-16 -5 -7 0.5930 2.7013
-16 -5 -6 -4.2968 5.9075
-16 -5 -5 -14.7799 -18.1046
-16 -5 -4 0.0799 -3.3870
-16 -5 -3 3.4187 9.0432
-16 -5 -2 3.8223 -0.5114
-16 -5 -1 14.5771 -3.5852
-16 -4 -13 3.7425 -2.9041
-16 -4 -12 0.8589 5.9257
-16 -4 -11 2.4318 -6.6860
-16 -4 -10 5.2660 -1.2371
-16 -4 -9 0.3139 7.9746
-16 -4 -8 -0.3026 2.3627
-16 -4 -7 -9.0850 2.1681
-16 -4 -6 2.5258 -0.7662
-16 -4 -5 5.4403 -9.6697
-16 -4 -4 -5.5696 -4.3727
-16 -4 -3 6.3851 -7.3594
-16 -4 -2 -3.8841 14.7943
-16 -4 -1 -5.0203 1.2218
-16 -3 -13 -3.6503 -0.1286
-16 -3 -12 -2.8746 -1.0353
-16 -3 -11 6.1439 4.0157
-16 -3 -10 -5.9979 -2.5252
-16 -3 -9 3.6024 3.4335
-16 -3 -8 2.1326 -0.0098
-16 -3 -7 -11.4733 -3.5822
-16 -3 -6 -1.5555 3.0753
-16 -3 -5 13.4235 4.5492
-16 -3 -4 6.2508 -1.7954
-16 -3 -3 1.8066 5.2768
-16 -3 -2 1.4213 -3.8472
-16 -3 -1 -14.6683 1.8140
-16 -2 -13 -2.6191 3.2533
-16 -2 -12 -1.4760 -0.7315
-16 -2 -11 -5.9919 -2.0539
-16 -2 -10 -4.5056 -2.4885
-16 -2 -9 4.5020 6.3072
-16 -2 -8 5.9845 -3.6086
-16 -2 -7 3.0972 -1.1399
-16 -2 -6 -6.0723 2.7653
-16 -2 -5 1.8395 -2.1906
-16 -2 -4 0.4396 -1.5614
-16 -2 -3 -5.7529 22.9919
-16 -2 -2 6.6873 -4.9467
-16 -2 -1 -7.2728 -4.0254
-16 -1 -14 -3.2832 2.1368
-16 -1 -13 2.2470 7.0539
-16 -1 -12 1.7745 0.2560
-16 -1 -11 -5.0456 -9.3572
-16 -1 -10 2.2631 -2.0045
-16 -1 -9 3.3767 -8.3534
-16 -1 -8 1.7964 3.5445
-16 -1 -7 -1.3756 5.0765
-16 -1 -6 1.0450 -1.4712
-16 -1 -5 -5.7689 -2.6040
-16 -1 -4 -7.3624 -4.9287
-16 -1 -3 3.0612 3.8172
-16 -1 -2 2.8193 9.1295
-16 -1 -1 2.6041 -11.4227
-15 -13 -4 2.6963 0.9949
-15 -13 -3 8.8602 6.5369
-15 -13 -2 -2.8932 5.6804
-15 -13 -1 -7.8318 -2.0954
-15 -12 -7 -1.1789 -0.7051
-15 -12 -6 3.6493 0.1037
-15 -12 -5 2.1369 -4.0001
-15 -12 -4 2.7767 -3.0400
-15 -12 -3 -1.0450 6.5255
-15 -12 -2 3.5738 -2.0978
-15 -12 -1 0.7248 2.5949
-15 -11 -9 -0.5866 -2.4497
-15 -11 -8 2.7096 -0.3737
-15 -11 -7 -1.4418 5.2372
-15 -11 -6 1.3567 5.2030
-15 -11 -5 -3.8171 -4.5386
-15 -11 -4 -6.3157 -2.6909
-15 -11 -3 2.9728 -9.8122
-15 -11 -2 16.0444 -1.4394
-15 -11 -1 -0.8169 4.1179
-15 -10 -10 -1.3427 -2.7898
-15 -10 -9 10.0180 -1.1661
-15 -10 -8 6.5169 3.1738
-15 -10 -7 -4.3382 6.6104
-15 -10 -6 -8.2805 4.7809
-15 -10 -5 -12.1166 -3.2174
-15 -10 -4 -5.1090 -6.1583
-15 -10 -3 11.1835 -10.1344
-15 -10 -2 1.3833 -0.5567
-15 -10 -1 2.2906 4.3593
-15 -9 -11 1.7881 -7.6533
-15 -9 -10 1.8104 -3.3169
-15 -9 -9 1.1016 3.6622
-15 -9 -8 2.4981 2.6075
-15 -9 -7 -0.3881 11.7905
-15 -9 -6 -6.4851 1.9181
-15 -9 -5 -3.8943 -10.1982
-15 -9 -4 1.5320 -1.6994
-15 -9 -3 0.7884 4.0062
-15 -9 -2 -7.9206 -4.4535
-15 -9 -1 5.4706 7.6846
-15 -8 -12 0.1389 -0.2413
-15 -8 -11 -5.1459 -3.0097
-15 -8 -10 3.1820 -0.8396
-15 -8 -9 3.8432 1.5049
-15 -8 -8 -2.0848 -1.8038
-15 -8 -7 -2.3964 -2.9952
-15 -8 -6 9.7397 0.3333
-15 -8 -5 -1.2153 3.4152
-15 -8 -4 -0.1917 6.4223
-15 -8 -3 9.1024 2.5962
-15 -8 -2 -5.5025 -3.3891
-15 -8 -1 -15.0537 -6.9269
-15 -7 -13 -2.3009 -2.0349
-15 -7 -12 2.4051 4.3437
-15 -7 -11 -4.1501 4.9101
-15 -7 -10 -0.9675 -2.7548
-15 -7 -9 1.7528 -7.5649
-15 -7 -8 1.3178 -4.2004
-15 -7 -7 2.5441 0.2601
-15 -7 -6 7.7499 -1.1344
-15 -7 -5 1.4708 -1.0622
-15 -7 -4 -4.3087 12.2657
-15 -7 -3 -3.5986 -0.7913
-15 -7 -2 -1.0232 5.1303
-15 -7 -1 -3.6766 11.8284
-15 -6 -13 3.2269 4.2927
-15 -6 -12 -4.5844 -1.2926
-15 -6 -11 4.5652 -0.0211
-15 -6 -10 -7.9298 0.8086
-15 -6 -9 -3.4507 -2.1331
-15 -6 -8 8.3181 1.8162
-15 -6 -7 2.6490 0.5831
-15 -6 -6 -2.4718 0.8800
-15 -6 -5 -1.2635 0.4722
-15 -6 -4 0.4760 -3.1909
-15 -6 -3 2.3584 2.0311
-15 -6 -2 1.2916 1.6537
-15 -6 -1 9.4151 3.6581
-15 -5 -14 -0.4395 -3.8512
-15 -5 -13 -0.4191 -1.4092
-15 -5 -12 2.4943 2.1801
-15 -5 -11 5.6939 0.0922
-15 -5 -10 -1.3901 -2.5124
-15 -5 -9 -5.1683 5.7687
-15 -5 -8 -4.1102 -3.2168
-15 -5 -7 -4.2188 -2.6972
-15 -5 -6 -5.5419 10.4703
-15 -5 -5 10.4519 -4.0601
-15 -5 -4 1.3370 -16.1328
-15 -5 -3 -5.1316 -3.5172
-15 -5 -2 5.4326 -10.7550
-15 -5 -1 3.7988 -5.7650
-15 -4 -14 -5.7361 -6.4536
-15 -4 -13 4.1288 -7.1170
-15 -4 -12 8.3812 2.5213
-15 -4 -11 -8.8801 0.5091
-15 -4 -10 -0.9673 10.9151
-15 -4 -9 0.1100 10.1305
-15 -4 -8 -0.2533 -11.6978
-15 -4 -7 -4.4733 -15.5030
-15 -4 -6 0.6916 1.8145
-15 -4 -5 -2.8557 7.0824
-15 -4 -4 -15.7498 2.6518
-15 -4 -3 8.9249 3.8920
-15 -4 -2 15.1301 -7.5653
-15 -4 -1 -12.3059 -17.0385
-15 -3 -15 -3.2623 -2.1927
-15 -3 -14 -1.8554 -4.0442
-15 -3 -13 -0.6982 12.1702
-15 -3 -12 13.6505 -1.9820
-15 -3 -11 5.1439 3.1723
-15 -3 -10 -10.4803 5.1573
-15 -3 -9 -4.7864 -10.5462
-15 -3 -8 -0.6061 -1.7007
-15 -3 -7 5.0121 9.9537
-15 -3 -6 19.7522 0.6541
-15 -3 -5 2.6155 -6.9688
-15 -3 -4 -14.8035 11.1896
-15 -3 -3 -15.1722 6.0092
-15 -3 -2 3.0708 1.2804
-15 -3 -1 7.1710 22.2285
-15 -2 -15 3.2433 0.6921
-15 -2 -14 3.2228 -3.7930
-15 -2 -13 -4.8770 -2.7462
-15 -2 -12 2.0617 2.4565
-15 -2 -11 -4.9143 3.8800
-15 -2 -10 -0.8166 0.7926
-15 -2 -9 8.8312 -4.9425
-15 -2 -8 -0.4687 -11.9065
-15 -2 -7 0.3097 5.0781
-15 -2 -6 7.6226 11.7870
-15 -2 -5 -2.6774 5.7487
-15 -2 -4 7.5688 2.4437
-15 -2 -3 9.3635 -3.4199
-15 -2 -2 -15.9737 -7.1124
-15 -2 -1 -1.7870 -0.5150
-15 -1 -15 -3.5986 2.4475
-15 -1 -14 0.1006 -4.0334
-15 -1 -13 2.4403 -3.2591
-15 -1 -12 -4.1004 4.1765
-15 -1 -11 -0.3540 -13.5111
-15 -1 -10 -5.7570 6.5905
-15 -1 -9 0.3244 3.9492
-15 -1 -8 5.7935 -8.5327
-15 -1 -7 -3.7786 -0.6199
-15 -1 -6 -2.1307 2.6889
-15 -1 -5 -0.2285 -4.9666
-15 -1 -4 -4.7146 -3.2502
-15 -1 -3 9.9796 -4.9697
-15 -1 -2 4.1277 -6.3407
-15 -1 -1 -5.7048 -7.4621
-14 -14 -4 4.4740 2.1144
-14 -14 -3 -0.1607 5.6137
-14 -14 -2 2.9250 3.3872
-14 -14 -1 -9.2009 -2.2011
-14 -13 -7 -2.9280 -4.2462
-14 -13 -6 4.5289 -5.3727
-14 -13 -5 6.1982 -2.6713
-14 -13 -4 2.7274 4.0334
-14 -13 -3 1.7714 4.5861
-14 -13 -2 -12.3010 7.9568
-14 -13 -1 -1.1007 -7.2612
-14 -12 -9 -1.1211 -0.2227
-14 -12 -8 -7.2502 -1.4451
-14 -12 -7 3.0405 -4.6804
-14 -12 -6 3.6220 -4.4980
-14 -12 -5 -1.3153 8.7854
-14 -12 -4 2.8125 5.0120
-14 -12 -3 3.0038 -8.6541
-14 -12 -2 -6.2469 -3.7655
-14 -12 -1 4.3129 8.8275
-14 -11 -11 -2.0728 1.4344
-14 -11 -10 2.4533 2.8353
-14 -11 -9 -0.6049 -4.6955
-14 -11 -8 3.0288 3.2527
-14 -11 -7 9.2612 5.5634
-14 -11 -6 -4.9641 -4.3336
-14 -11 -5 -9.1092 -1.9527
-14 -11 -4 -1.4348 1.1516
-14 -11 -3 0.3885 -10.0558
-14 -11 -2 13.5481 -2.3388
-14 -11 -1 12.9019 16.8405
-14 -10 -12 -0.1897 -3.8190
-14 -10 -11 2.5535 -2.2909
-14 -10 -10 5.5540 -3.7357
-14 -10 -9 0.4492 -6.9220
-14 -10 -8 -2.4095 10.4776
-14 -10 -7 -1.9005 10.0123
-14 -10 -6 -4.8616 0.5707
-14 -10 -5 -7.9926 -2.0184
-14 -10 -4 2.8963 -13.1421
-14 -10 -3 8.1711 -7.8228
-14 -10 -2 4.5354 1.1472
-14 -10 -1 11.3058 0.6124
-14 -9 -13 -1.6350 -3.7058
-14 -9 -12 -10.9475 -0.4112
-14 -9 -11 0.3892 -1.0699
-14 -9 -10 9.2985 2.3464
-14 -9 -9 0.7143 6.9745
-14 -9 -8 -2.6166 0.7240
-14 -9 -7 0.0955 -3.2142
-14 -9 -6 -8.3829 -1.5188
-14 -9 -5 -6.3835 2.1625
-14 -9 -4 4.0562 -4.2683
-14 -9 -3 -3.6475 -1.8088
-14 -9 -2 -5.3774 -2.6550
-14 -9 -1 0.4054 -5.6399
-14 -8 -14 -1.2479 7.6701
-14 -8 -13 -3.9102 -2.0443
-14 -8 -12 2.8304 0.1441
-14 -8 -11 3.5134 0.8574
-14 -8 -10 -5.2701 -4.7330
-14 -8 -9 -2.9397 4.3658
-14 -8 -8 2.8314 1.6861
-14 -8 -7 2.7295 -5.3977
-14 -8 -6 1.8991 -0.0535
-14 -8 -5 5.5345 7.3208
-14 -8 -4 -7.9226 4.3427
-14 -8 -3 -12.6484 2.2033
-14 -8 -2 -1.7289 9.8882
-14 -8 -1 -10.8523 -1.4670
-14 -7 -14 -1.3883 1.4405
-14 -7 -13 -1.1340 -0.3130
-14 -7 -12 3.6170 2.9491
-14 -7 -11 -0.4185 -1.3990
-14 -7 -10 -3.9614 -4.9839
-14 -7 -9 5.9239 -4.3504
-14 -7 -8 2.1601 -1.8496
-14 -7 -7 -1.6550 0.1314
-14 -7 -6 5.9795 11.6724
-14 -7 -5 12.2867 2.7731
-14 -7 -4 0.4512 2.3609
-14 -7 -3 4.3321 3.7939
-14 -7 -2 0.9777 -3.0841
-14 -7 -1 -10.7410 -3.5226
-14 -6 -15 0.4117 0.9817
-14 -6 -14 3.5798 -6.2390
-14 -6 -13 1.7858 9.0863
-14 -6 -12 -4.8223 -9.4100
-14 -6 -11 -0.7645 -9.3878
-14 -6 -10 -0.2732 12.7269
-14 -6 -9 3.2010 -2.7310
-14 -6 -8 7.1940 -4.3440
-14 -6 -7 -0.3825 6.0743
-14 -6 -6 -4.3459 -9.8375
-14 -6 -5 -5.3940 -15.0466
-14 -6 -4 3.3101 9.0808
-14 -6 -3 10.1575 12.0903
-14 -6 -2 1.8040 -16.6609
-14 -6 -1 8.6669 -0.0466
-14 -5 -15 -0.6166 -3.5829
-14 -5 -14 -3.9920 -2.5406
-14 -5 -13 -7.7747 1.5086
-14 -5 -12 7.1238 4.3273
-14 -5 -11 -4.2748 2.7186
-14 -5 -10 9.0997 -2.6727
-14 -5 -9 1.4396 3.3266
-14 -5 -8 -21.5232 2.0908
-14 -5 -7 -5.4063 3.2186
-14 -5 -6 11.9216 -8.1351
-14 -5 -5 -9.2886 -2.5500
-14 -5 -4 -1.7524 -9.7262
-14 -5 -3 3.2895 -5.9952
-14 -5 -2 -9.7943 14.6442
-14 -5 -1 6.1402 11.0603
-14 -4 -16 -2.0061 -1.0367
-14 -4 -15 2.1230 5.8841
-14 -4 -14 2.9607 4.2224
-14 -4 -13 1.9034 -7.0791
-14 -4 -12 2.7255 6.4355
-14 -4 -11 -3.4638 -3.5905
-14 -4 -10 -3.4621 6.2000
-14 -4 -9 -0.9438 5.6980
-14 -4 -8 -0.0790 -4.5980
-14 -4 -7 -1.9432 0.1116
-14 -4 -6 -4.8075 -1.5200
-14 -4 -5 5.0027 5.5411
-14 -4 -4 6.8659 8.0193
-14 -4 -3 -6.6453 -11.0550
-14 -4 -2 5.8302 -6.6346
-14 -4 -1 -7.7011 -1.1411
-14 -3 -16 3.0423 -1.8092
-14 -3 -15 3.1456 -2.0566
-14 -3 -14 3.8622 2.9915
-14 -3 -13 -4.5329 4.9951
-14 -3 -12 -5.3188 -2.3208
-14 -3 -11 8.8621 -5.9291
-14 -3 -10 -14.2462 -1.0902
-14 -3 -9 12.8596 -2.8614
-14 -3 -8 5.5154 0.9546
-14 -3 -7 -5.3247 -4.5682
-14 -3 -6 0.3681 9.7373
-14 -3 -5 8.2422 -3.4059
-14 -3 -4 -4.0276 0.9953
-14 -3 -3 -4.3659 15.5329
-14 -3 -2 -2.7116 -5.2377
-14 -3 -1 -17.2645 -19.2016
-14 -2 -16 3.6563 1.3826
-14 -2 -15 2.2753 -2.8308
-14 -2 -14 -5.0912 6.3710
-14 -2 -13 -1.6586 6.2377
-14 -2 -12 -4.0006 -7.1679
-14 -2 -11 -1.9333 -10.7170
-14 -2 -10 7.6086 -4.2877
-14 -2 -9 6.9793 8.0930
-14 -2 -8 0.3022 -1.9884
-14 -2 -7 -6.8241 7.5175
-14 -2 -6 4.0954 -5.2491
-14 -2 -5 7.9436 -12.0032
-14 -2 -4 -11.0257 4.2910
-14 -2 -3 5.2667 27.9314
-14 -2 -2 -6.3921 5.7023
-14 -2 -1 -13.6678 -11.0415
-14 -1 -16 5.3158 2.6702
-14 -1 -15 2.9314 -1.4388
-14 -1 -14 -8.3307 1.3619
-14 -1 -13 0.4787 1.3012
-14 -1 -12 -4.0261 -7.2819
-14 -1 -11 -0.8122 -0.3915
-14 -1 -10 18.1341 7.2515
-14 -1 -9 -3.8726 4.7434
-14 -1 -8 -7.5682 1.1301
-14 -1 -7 -9.0472 4.8169
-14 -1 -6 9.2861 -13.9834
-14 -1 -5 1.1384 -7.0835
-14 -1 -4 12.9054 8.4252
-14 -1 -3 8.1652 8.5845
-14 -1 -2 0.1362 -1.1393
-14 -1 -1 -0.7889 10.0487
-13 -15 -4 7.8981 -0.5055
-13 -15 -3 3.2600 -2.3061
-13 -15 -2 -5.0100 2.0583
-13 -15 -1 0.1295 6.4775
-13 -14 -7 0.1432 -4.5754
-13 -14 -6 -3.4036 -7.6069
-13 -14 -5 2.2416 -3.3502
-13 -14 -4 15.7268 5.9745
-13 -14 -3 2.2475 6.0738
-13 -14 -2 -14.2650 2.6801
-13 -14 -1 -4.8367 -1.0147
-13 -13 -9 -3.6381 5.5636
-13 -13 -8 -4.8209 3.4030
-13 -13 -7 -0.2583 -3.8306
-13 -13 -6 9.3796 -12.4219
-13 -13 -5 8.2361 1.6428
-13 -13 -4 -6.3541 7.4673
-13 -13 -3 0.7070 6.6960
-13 -13 -2 -4.8981 10.2368
-13 -13 -1 -5.5030 -3.9633
-13 -12 -11 3.1198 4.4358
-13 -12 -10 2.0329 -3.1965
-13 -12 -9 1.7945 1.4392
-13 -12 -8 -3.4112 -6.7562
-13 -12 -7 -3.8910 3.0281
-13 -12 -6 3.2442 6.8254
-13 -12 -5 -1.2135 0.3757
-13 -12 -4 3.5456 -2.7763
-13 -12 -3 2.8931 2.8414
-13 -12 -2 1.7730 -4.4933
-13 -12 -1 0.8326 9.2967
-13 -11 -12 -2.0178 -4.9281
-13 -11 -11 0.4554 -2.8644
-13 -11 -10 -2.1542 -2.9532
-13 -11 -9 5.7987 -0.8098
-13 -11 -8 10.0358 4.3941
-13 -11 -7 -7.0562 11.7824
-13 -11 -6 -10.7509 -1.8002
-13 -11 -5 -6.7282 -14.9805
-13 -11 -4 4.7218 -3.6337
-13 -11 -3 6.5277 -8.5467
-13 -11 -2 18.0429 0.9048
-13 -11 -1 -3.8122 14.4179
-13 -10 -13 -0.0885 0.8611
-13 -10 -12 -7.6404 -0.9591
-13 -10 -11 -2.5645 -9.5012
-13 -10 -10 10.0157 -0.3242
-13 -10 -9 8.5808 3.4101
-13 -10 -8 0.9078 10.7447
-13 -10 -7 -9.2218 3.1377
-13 -10 -6 -9.5523 -4.8652
-13 -10 -5 -11.2713 -14.9227
-13 -10 -4 7.2826 -10.4496
-13 -10 -3 16.7168 -2.5227
-13 -10 -2 -9.1371 5.4765
-13 -10 -1 -4.2841 1.2623
-13 -9 -14 -7.1064 1.8935
-13 -9 -13 2.2856 6.0347
-13 -9 -12 -2.6465 -4.6201
-13 -9 -11 -1.1002 -5.1158
-13 -9 -10 10.7521 -2.2243
-13 -9 -9 1.4787 2.8444
-13 -9 -8 -13.8533 7.7947
-13 -9 -7 0.7097 4.1269
-13 -9 -6 -0.7846 -2.8786
-13 -9 -5 -3.0617 -1.8705
-13 -9 -4 3.5226 4.3288
-13 -9 -3 11.1664 1.9762
-13 -9 -2 -10.2465 1.8329
-13 -9 -1 3.5242 2.8717
-13 -8 -15 2.4876 0.7281
-13 -8 -14 1.7128 6.5795
-13 -8 -13 -4.8853 -0.0850
-13 -8 -12 3.2971 -8.7274
-13 -8 -11 -4.7957 9.9216
-13 -8 -10 -0.7113 -3.3818
-13 -8 -9 2.8904 -6.2573
-13 -8 -8 0.4501 9.0169
-13 -8 -7 7.5340 5.2835
-13 -8 -6 2.4711 -15.9588
-13 -8 -5 1.4607 12.3615
-13 -8 -4 -3.0545 14.5194
-13 -8 -3 -3.3079 -8.3642
-13 -8 -2 -0.0852 4.9321
-13 -8 -1 -3.4508 2.2237
-13 -7 -16 2.8795 -0.9148
-13 -7 -15 0.7445 -0.8003
-13 -7 -14 4.9641 -0.4382
-13 -7 -13 -4.5647 -3.5572
-13 -7 -12 -8.4552 6.2636
-13 -7 -11 1.4478 -0.3003
-13 -7 -10 7.7350 -1.0242
-13 -7 -9 -2.0388 -6.8132
-13 -7 -8 3.0843 -4.7497
-13 -7 -7 5.8930 0.0838
-13 -7 -6 -8.3467 5.5249
-13 -7 -5 -3.4449 2.2595
-13 -7 -4 21.3406 -6.8352
-13 -7 -3 -26.1308 1.5870
-13 -7 -2 -24.3647 0.9380
-13 -7 -1 6.4210 4.2992
-13 -6 -16 -0.7690 -2.7133
-13 -6 -15 -7.3196 2.8628
-13 -6 -14 3.9137 -2.4982
-13 -6 -13 5.7475 1.3505
-13 -6 -12 -2.2292 4.6804
-13 -6 -11 6.1542 -12.4998
-13 -6 -10 -11.7474 1.2911
-13 -6 -9 -1.6374 9.1524
-13 -6 -8 8.7611 3.4507
-13 -6 -7 -7.3584 -9.1830
-13 -6 -6 1.8824 1.0597
-13 -6 -5 1.4224 5.6362
-13 -6 -4 -7.5220 -4.3616
-13 -6 -3 4.9458 5.1989
-13 -6 -2 21.5879 9.5594
-13 -6 -1 2.4508 -20.1769
-13 -5 -17 -3.8597 0.6576
-13 -5 -16 -3.7076 3.4115
-13 -5 -15 3.3220 -7.9708
-13 -5 -14 -0.1674 -3.2064
-13 -5 -13 1.8501 1.4573
-13 -5 -12 10.2584 4.8414
-13 -5 -11 -1.2260 5.5094
-13 -5 -10 -7.1664 -1.3378
-13 -5 -9 2.9695 5.1609
-13 -5 -8 -2.3075 -19.6673
-13 -5 -7 -5.5425 5.9124
-13 -5 -6 8.8498 17.3210
-13 -5 -5 10.7949 -11.1893
-13 -5 -4 -13.0664 -3.8967
-13 -5 -3 14.5670 -9.0450
-13 -5 -2 21.6652 -18.4829
-13 -5 -1 -1.2631 1.7338
-13 -4 -17 -5.5859 0.1026
-13 -4 -16 -2.0883 -0.2106
-13 -4 -15 7.8037 -8.1242
-13 -4 -14 -8.7480 -0.7042
-13 -4 -13 11.4823 4.9578
-13 -4 -12 5.8600 0.4234
-13 -4 -11 -20.2842 6.4895
-13 -4 -10 -6.5503 -0.0478
-13 -4 -9 5.8860 -10.1847
-13 -4 -8 4.4678 -10.6060
-13 -4 -7 7.0953 8.7269
-13 -4 -6 13.1072 2.8628
-13 -4 -5 -26.9939 -12.0663
-13 -4 -4 -25.6846 5.2618
-13 -4 -3 15.2748 -1.8595
-13 -4 -2 -0.1086 -12.0369
-13 -4 -1 -0.7632 22.5701
-13 -3 -17 -2.0144 1.2553
-13 -3 -16 -0.0084 4.2525
-13 -3 -15 3.7342 -6.1450
-13 -3 -14 -0.5697 -3.5334
-13 -3 -13 -0.6213 17.5182
-13 -3 -12 -8.7138 -7.1024
-13 -3 -11 -6.4432 5.5821
-13 -3 -10 0.1261 0.8865
-13 -3 -9 6.5949 -29.9450
-13 -3 -8 -1.1763 7.3471
-13 -3 -7 4.1234 21.4505
-13 -3 -6 2.2291 6.9021
-13 -3 -5 -17.3291 -1.8291
-13 -3 -4 4.1310 9.6526
-13 -3 -3 -2.2042 -8.6988
-13 -3 -2 -26.1362 0.0162
-13 -3 -1 -2.3145 22.5965
-13 -2 -17 0.4794 -0.1505
-13 -2 -16 -3.5574 0.9316
-13 -2 -15 0.8390 4.3469
-13 -2 -14 4.7205 -1.7998
-13 -2 -13 0.1151 3.2743
-13 -2 -12 2.9046 -4.2165
-13 -2 -11 -13.2548 -7.9869
-13 -2 -10 8.5690 7.1766
-13 -2 -9 3.6518 2.7547
-13 -2 -8 3.7580 0.0560
-13 -2 -7 7.4445 8.6743
-13 -2 -6 -7.1065 -7.8683
-13 -2 -5 6.0179 9.6699
-13 -2 -4 10.2462 9.6536
-13 -2 -3 13.0326 -6.3404
-13 -2 -2 -9.4416 8.6786
-13 -2 -1 -15.4424 -10.5177
-13 -1 -17 0.0980 -0.2276
-13 -1 -16 0.2660 -3.3079
-13 -1 -15 -6.3211 2.0385
-13 -1 -14 -3.3189 -6.7712
-13 -1 -13 5.8116 -1.2904
-13 -1 -12 16.0316 12.5974
-13 -1 -11 -3.0186 -6.3089
-13 -1 -10 2.0166 4.3029
-13 -1 -9 -2.3640 2.3139
-13 -1 -8 -8.9138 -8.5009
-13 -1 -7 1.8658 -12.0232
-13 -1 -6 10.9689 -1.5867
-13 -1 -5 -0.4969 -5.5396
-13 -1 -4 6.1932 -7.1841
-13 -1 -3 11.3929 18.4886
-13 -1 -2 10.9507 -3.5876
-13 -1 -1 -3.9316 5.9663
-12 -16 -4 -4.3209 -2.5746
-12 -16 -3 3.5663 -0.8447
-12 -16 -2 6.6401 0.5530
-12 -16 -1 2.7504 -0.8889
-12 -15 -7 -3.0809 4.2519
-12 -15 -6 4.9837 0.9832
-12 -15 -5 2.4165 -9.6926
-12 -15 -4 1.0025 -7.9946
-12 -15 -3 0.6054 14.1549
-12 -15 -2 -5.5631 7.6816
-12 -15 -1 -6.2977 -4.1167
-12 -14 -9 -3.3652 -0.0833
-12 -14 -8 -1.7811 -7.1072
-12 -14 -7 -5.3243 -6.5068
-12 -14 -6 4.7763 -5.1948
-12 -14 -5 9.6812 0.1833
-12 -14 -4 10.2098 14.3737
-12 -14 -3 -4.1452 8.7765
-12 -14 -2 -0.5564 -4.9053
-12 -14 -1 -15.6009 -5.8539
-12 -13 -11 -5.0637 5.0426
-12 -13 -10 2.4040 1.0750
-12 -13 -9 -8.7221 -3.7540
-12 -13 -8 -7.9964 -0.5572
-12 -13 -7 6.6747 -13.2095
-12 -13 -6 11.2199 -3.6547
-12 -13 -5 3.3616 11.4533
-12 -13 -4 -3.2980 3.6215
-12 -13 -3 -2.4703 -4.4191
-12 -13 -2 -6.1528 7.7768
-12 -13 -1 1.3239 -7.1424
-12 -12 -12 1.6775 -5.7991
-12 -12 -11 -1.9149 10.6251
-12 -12 -10 -2.1268 3.7443
-12 -12 -9 -5.8868 -9.0509
-12 -12 -8 3.2752 8.3197
-12 -12 -7 10.1826 -1.3471
-12 -12 -6 -10.9948 -2.7210
-12 -12 -5 -5.1911 7.3430
-12 -12 -4 0.3567 -1.5516
-12 -12 -3 -0.9351 -13.7167
-12 -12 -2 3.4627 -2.0577
-12 -12 -1 10.2591 10.7847
-12 -11 -14 3.7918 -1.1415
-12 -11 -13 0.2723 4.6460
-12 -11 -12 -2.1020 -2.2902
-12 -11 -11 4.9762 3.3402
-12 -11 -10 8.2187 -2.9997
-12 -11 -9 -5.1820 -1.7487
-12 -11 -8 -0.1764 10.6030
-12 -11 -7 8.4092 11.1145
-12 -11 -6 -21.2355 -1.0126
-12 -11 -5 -8.2381 -7.7322
-12 -11 -4 12.0806 -12.1246
-12 -11 -3 0.3055 -2.4674
-12 -11 -2 7.2802 13.0158
-12 -11 -1 16.5071 17.0218
-12 -10 -15 -2.6229 6.0947
-12 -10 -14 0.0487 -1.3890
-12 -10 -13 1.1947 -8.7291
-12 -10 -12 -3.6020 5.4441
-12 -10 -11 4.1332 -5.7290
-12 -10 -10 10.1052 -5.3502
-12 -10 -9 -0.0929 5.2148
-12 -10 -8 -3.9686 8.4612
-12 -10 -7 -3.3015 -3.6270
-12 -10 -6 -4.1312 -4.7477
-12 -10 -5 -4.2381 7.2685
-12 -10 -4 12.4257 -21.1252
-12 -10 -3 12.5707 -0.5671
-12 -10 -2 5.4631 22.2412
-12 -10 -1 12.2476 -4.4302
-12 -9 -15 -1.3071 7.8782
-12 -9 -14 0.3613 -1.4486
-12 -9 -13 -3.9907 -13.4698
-12 -9 -12 -0.8388 2.2917
-12 -9 -11 2.7543 1.4666
-12 -9 -10 -8.9158 -0.2486
-12 -9 -9 5.9644 4.1617
-12 -9 -8 7.3714 -4.1956
-12 -9 -7 -3.0933 -10.7888
-12 -9 -6 -1.4617 -1.9462
-12 -9 -5 7.3307 5.5239
-12 -9 -4 0.3562 -6.1296
-12 -9 -3 -8.4019 -14.7993
-12 -9 -2 8.2356 -0.2859
-12 -9 -1 -15.8911 -0.1251
-12 -8 -16 -2.2099 6.8309
-12 -8 -15 -5.4467 -6.4706
-12 -8 -14 1.9227 3.3288
-12 -8 -13 -8.8250 6.0317
-12 -8 -12 6.1760 -1.5128
-12 -8 -11 4.7145 -0.3512
-12 -8 -10 -13.3129 -1.9034
-12 -8 -9 -5.3798 -0.6268
-12 -8 -8 7.7529 -9.0344
-12 -8 -7 -0.8354 8.7831
-12 -8 -6 -0.2334 10.3386
-12 -8 -5 -1.9411 -9.9708
-12 -8 -4 -13.1816 12.3066
-12 -8 -3 -12.0925 7.2186
-12 -8 -2 1.2805 -9.8773
-12 -8 -1 -7.2147 -3.3863
-12 -7 -17 -3.1355 -0.3378
-12 -7 -16 1.1468 5.4947
-12 -7 -15 3.5485 0.1899
-12 -7 -14 -8.0577 2.0358
-12 -7 -13 6.8363 2.0682
-12 -7 -12 1.3590 -0.6058
-12 -7 -11 -8.3264 1.2990
-12 -7 -10 6.8478 4.0111
-12 -7 -9 2.2999 -0.9692
-12 -7 -8 -4.2017 2.2302
-12 -7 -7 -5.9243 5.9017
-12 -7 -6 12.3343 9.4068
-12 -7 -5 -11.2736 0.6223
-12 -7 -4 -2.0322 13.5314
-12 -7 -3 17.8151 8.3400
-12 -7 -2 -14.3569 -14.4110
-12 -7 -1 14.9168 -4.1251
-12 -6 -17 -0.3441 -1.5046
-12 -6 -16 4.5192 0.0345
-12 -6 -15 -0.8343 -0.0871
-12 -6 -14 -4.9524 -6.4941
-12 -6 -13 15.3117 7.0436
-12 -6 -12 -5.4843 -7.7965
-12 -6 -11 3.3657 1.2810
-12 -6 -10 14.0278 8.4225
-12 -6 -9 -7.4667 -6.7577
-12 -6 -8 -8.5828 6.3801
-12 -6 -7 16.5591 0.1298
-12 -6 -6 4.5655 -15.1867
-12 -6 -5 -1.5509 -2.7969
-12 -6 -4 -0.7382 1.9056
-12 -6 -3 4.0335 -16.9001
-12 -6 -2 -13.1628 1.4324
-12 -6 -1 19.6721 20.7142
-12 -5 -18 -5.4852 -1.7645
-12 -5 -17 1.9237 1.5823
-12 -5 -16 -2.6727 -5.4578
-12 -5 -15 6.6249 -2.4598
-12 -5 -14 4.2354 -3.0167
-12 -5 -13 -8.1500 -9.2947
-12 -5 -12 3.8578 -2.6194
-12 -5 -11 -8.2996 18.2745
-12 -5 -10 3.0573 -5.2358
-12 -5 -9 5.3490 -10.1507
-12 -5 -8 -7.6288 -1.9198
-12 -5 -7 6.8185 -10.0635
-12 -5 -6 -16.2254 -7.2367
-12 -5 -5 7.2149 21.3670
-12 -5 -4 1.4820 -10.3138
-12 -5 -3 -6.7153 -25.7244
-12 -5 -2 11.2704 10.8117
-12 -5 -1 -3.1680 19.9456
-12 -4 -18 -0.9653 -0.7974
-12 -4 -17 -0.8314 -5.8974
-12 -4 -16 -3.2644 -5.6186
-12 -4 -15 -4.3781 9.0559
-12 -4 -14 4.4652 8.7371
-12 -4 -13 -4.8880 3.7853
-12 -4 -12 7.4485 3.6408
-12 -4 -11 -9.2823 -22.1936
-12 -4 -10 -10.6363 -0.9372
-12 -4 -9 -4.9582 5.2753
-12 -4 -8 10.7583 5.2655
-12 -4 -7 6.2702 3.3884
-12 -4 -6 -2.7256 9.7205
-12 -4 -5 -9.3143 -0.2289
-12 -4 -4 6.7669 -11.1510
-12 -4 -3 -7.6519 30.5190
-12 -4 -2 17.9766 -16.6695
-12 -4 -1 0.8998 -32.0955
-12 -3 -18 1.1372 -3.3025
-12 -3 -17 2.9146 2.4918
-12 -3 -16 11.2223 5.0652
-12 -3 -15 -0.8164 -1.6411
-12 -3 -14 -2.0822 3.5273
-12 -3 -13 -17.2053 7.6098
-12 -3 -12 -7.3535 -2.2173
-12 -3 -11 15.6736 -10.9193
-12 -3 -10 1.1868 10.2019
-12 -3 -9 18.7756 -7.6481
-12 -3 -8 -2.9011 1.0645
-12 -3 -7 -22.2044 7.6988
-12 -3 -6 18.6827 3.1959
-12 -3 -5 10.3043 -8.9436
-12 -3 -4 -11.3845 13.5042
-12 -3 -3 -7.3882 11.0267
-12 -3 -2 -10.8052 -15.4312
-12 -3 -1 -38.4392 -20.0851
-12 -2 -18 -0.6352 -7.0967
-12 -2 -17 -4.0914 1.2886
-12 -2 -16 10.2946 6.5450
-12 -2 -15 -1.4768 3.4270
-12 -2 -14 -13.6953 6.1341
-12 -2 -13 8.6011 -11.5843
-12 -2 -12 -1.7784 -8.0617
-12 -2 -11 3.7553 -0.5586
-12 -2 -10 14.2856 9.9360
-12 -2 -9 -2.1155 18.2273
-12 -2 -8 -26.7737 -21.5383
-12 -2 -7 6.1554 3.4083
-12 -2 -6 12.2742 -20.9996
-12 -2 -5 8.6308 -8.1353
-12 -2 -4 -15.1003 43.0703
-12 -2 -3 -0.9352 6.3877
-12 -2 -2 -33.4061 -2.3748
-12 -2 -1 -5.8944 -1.1211
-12 -1 -18 1.3310 -2.7293
-12 -1 -17 -3.2556 0.6913
-12 -1 -16 3.1125 6.3809
-12 -1 -15 -2.2056 -5.4712
-12 -1 -14 -8.4383 -1.0245
-12 -1 -13 15.6551 -10.6408
-12 -1 -12 3.9865 -10.7753
-12 -1 -11 -1.6758 19.1053
-12 -1 -10 -5.6763 12.3049
-12 -1 -9 -20.7495 2.9008
-12 -1 -8 -21.3678 -6.0201
-12 -1 -7 11.5647 -12.8291
-12 -1 -6 30.4188 -17.8350
-12 -1 -5 -6.0843 17.9153
-12 -1 -4 19.2787 15.7294
-12 -1 -3 4.3665 1.1286
-12 -1 -2 -24.9815 -4.4400
-12 -1 -1 25.8369 15.9249
-11 -17 -2 6.1594 -6.5833
-11 -17 -1 1.4130 5.4885
-11 -16 -7 0.3756 0.2191
-11 -16 -6 -5.9216 -0.1654
-11 -16 -5 -5.8169 1.8575
-11 -16 -4 3.1653 -3.0727
-11 -16 -3 7.2607 -2.4178
-11 -16 -2 -3.4409 2.4220
-11 -16 -1 -4.5946 -1.1164
-11 -15 -9 -4.1538 -0.5921
-11 -15 -8 0.9518 5.5546
-11 -15 -7 2.8238 -4.0507
-11 -15 -6 -2.4311 -5.7508
-11 -15 -5 7.4784 1.6960
-11 -15 -4 10.7659 7.6108
-11 -15 -3 -3.9434 9.0849
-11 -15 -2 -9.1137 6.5553
-11 -15 -1 5.2003 -1.2304
-11 -14 -11 0.1093 -1.1346
-11 -14 -10 0.6076 0.8570
-11 -14 -9 -5.1907 2.5882
-11 -14 -8 -6.9070 -2.2124
-11 -14 -7 6.7270 -14.5735
-11 -14 -6 11.1141 -4.4746
-11 -14 -5 8.0111 7.7475
-11 -14 -4 3.4395 8.5611
-11 -14 -3 -9.6824 5.4617
-11 -14 -2 -11.4218 1.4103
-11 -14 -1 1.2679 -15.0295
-11 -13 -12 3.4898 5.6081
-11 -13 -11 3.1774 0.7987
-11 -13 -10 -8.4608 -0.6895
-11 -13 -9 -4.4242 -4.4305
-11 -13 -8 -6.2803 -6.2726
-11 -13 -7 -1.4769 1.9597
-11 -13 -6 7.9162 -5.0257
-11 -13 -5 7.3047 6.6635
-11 -13 -4 -10.8144 5.2744
-11 -13 -3 -10.1694 -9.2537
-11 -13 -2 -1.6253 1.0697
-11 -13 -1 -1.6632 -1.0320
-11 -12 -14 5.5188 -0.6236
-11 -12 -13 -3.4688 -1.1705
-11 -12 -12 -3.9689 -0.6656
-11 -12 -11 5.0723 2.4723
-11 -12 -10 -3.6913 4.0128
-11 -12 -9 9.9385 4.0877
-11 -12 -8 -0.0586 -2.1417
-11 -12 -7 -7.7447 5.2262
-11 -12 -6 -8.8270 -0.9400
-11 -12 -5 -10.2027 -4.7220
-11 -12 -4 9.2116 -1.1815
-11 -12 -3 9.2469 6.1374
-11 -12 -2 2.8339 -2.0691
-11 -12 -1 0.8246 12.5043
-11 -11 -15 -5.0482 0.1495
-11 -11 -14 5.2015 1.2450
-11 -11 -13 0.6052 7.8168
-11 -11 -12 -4.4653 -8.6110
-11 -11 -11 7.5864 -9.8572
-11 -11 -10 12.1053 0.4327
-11 -11 -9 0.0954 18.3169
-11 -11 -8 -0.8040 7.9545
-11 -11 -7 -6.4516 8.6183
-11 -11 -6 -6.2713 -8.6049
-11 -11 -5 3.3861 -22.6020
-11 -11 -4 20.4691 -3.7810
-11 -11 -3 10.6944 7.8332
-11 -11 -2 -1.3833 3.7853
-11 -11 -1 -7.1386 14.0048
-11 -10 -16 6.7653 -2.4801
-11 -10 -15 8.3566 1.2202
-11 -10 -14 -13.2714 6.4125
-11 -10 -13 0.5334 -11.6854
-11 -10 -12 -0.8078 -2.6418
-11 -10 -11 -2.6220 -0.8609
-11 -10 -10 19.7627 -4.2186
-11 -10 -9 0.9533 8.4200
-11 -10 -8 -7.2094 13.0810
-11 -10 -7 -15.1119 -16.7173
-11 -10 -6 6.8499 -13.3174
-11 -10 -5 1.1390 0.7084
-11 -10 -4 5.5454 -0.9449
-11 -10 -3 20.4477 0.5362
-11 -10 -2 -16.0733 15.1458
-11 -10 -1 -16.8812 -9.9850
-11 -9 -16 0.7055 0.2918
-11 -9 -15 -1.9716 0.8393
-11 -9 -14 -7.1825 7.7066
-11 -9 -13 0.0257 -3.1869
-11 -9 -12 -5.0287 -9.3836
-11 -9 -11 6.5851 4.7877
-11 -9 -10 2.2450 -4.6551
-11 -9 -9 -12.7497 -9.9507
-11 -9 -8 -5.6091 14.7701
-11 -9 -7 4.1176 -8.6028
-11 -9 -6 -10.0334 -6.3966
-11 -9 -5 7.8375 4.1606
-11 -9 -4 0.7693 17.0386
-11 -9 -3 -14.9707 -2.4917
-11 -9 -2 1.2467 12.6834
-11 -9 -1 14.6848 5.3483
-11 -8 -17 8.9342 1.3450
-11 -8 -16 -6.6837 3.1072
-11 -8 -15 -7.9638 2.7553
-11 -8 -14 10.7763 2.0035
-11 -8 -13 -11.6747 3.0382
-11 -8 -12 -7.5766 -7.4937
-11 -8 -11 10.8422 8.5772
-11 -8 -10 0.4599 -1.8208
-11 -8 -9 -10.2647 -2.1969
-11 -8 -8 5.3611 7.6646
-11 -8 -7 15.2913 0.9058
-11 -8 -6 -19.7946 -1.9414
-11 -8 -5 19.6566 9.5906
-11 -8 -4 11.4285 -10.4695
-11 -8 -3 -32.3425 -2.7729
-11 -8 -2 -3.9167 -4.1805
-11 -8 -1 19.7396 -8.8703
-11 -7 -18 -0.8240 3.5820
-11 -7 -17 1.6720 1.5008
-11 -7 -16 -0.0580 -3.6966
-11 -7 -15 3.4219 15.0306
-11 -7 -14 4.8079 -11.5415
-11 -7 -13 -2.3211 -10.7236
-11 -7 -12 -1.0489 12.8348
-11 -7 -11 -4.2567 -8.5499
-11 -7 -10 10.0808 4.4815
-11 -7 -9 9.0099 21.0138
-11 -7 -8 0.5091 -10.5488
-11 -7 -7 -4.6806 -25.0359
-11 -7 -6 -4.6965 9.1348
-11 -7 -5 -6.2264 24.1090
-11 -7 -4 8.7437 -35.8597
-11 -7 -3 -3.3146 14.4790
-11 -7 -2 -8.1379 -14.1424
-11 -7 -1 -7.1269 -38.8075
-11 -6 -18 5.1006 -0.1571
-11 -6 -17 -2.5269 -5.4686
-11 -6 -16 0.6008 -7.2289
-11 -6 -15 0.3019 -1.4678
-11 -6 -14 -3.4461 0.9532
-11 -6 -13 1.5798 7.3279
-11 -6 -12 17.5997 3.5697
-11 -6 -11 8.5649 -17.5834
-11 -6 -10 -25.0974 5.1306
-11 -6 -9 -3.2839 0.0728
-11 -6 -8 2.3039 2.7421
-11 -6 -7 -12.5768 18.8759
-11 -6 -6 16.5832 -8.2780
-11 -6 -5 2.9651 -12.9888
-11 -6 -4 -37.1065 16.7687
-11 -6 -3 -3.2375 0.6366
-11 -6 -2 59.9431 12.5778
-11 -6 -1 -5.7122 15.0211
-11 -5 -18 -4.1574 -6.4855
-11 -5 -17 -8.2348 0.3606
-11 -5 -16 6.4177 7.0324
-11 -5 -15 6.0690 -16.7385
-11 -5 -14 0.3249 6.7019
-11 -5 -13 0.4220 6.1114
-11 -5 -12 -5.0077 2.9979
-11 -5 -11 -12.0198 10.2024
-11 -5 -10 4.8723 -3.4170
-11 -5 -9 21.9567 -10.4115
-11 -5 -8 -11.1143 -20.6070
-11 -5 -7 4.8297 28.4136
-11 -5 -6 5.5280 22.5029
-11 -5 -5 -21.3176 -22.6960
-11 -5 -4 16.6796 13.2469
-11 -5 -3 32.9252 -21.6140
-11 -5 -2 -12.2481 -9.5134
-11 -5 -1 -3.9131 27.6071
-11 -4 -19 0.3978 0.3142
-11 -4 -18 0.4079 -1.6542
-11 -4 -17 -7.9454 2.4489
-11 -4 -16 8.3607 -1.0282
-11 -4 -15 4.1119 -9.0248
-11 -4 -14 -4.4642 14.8082
-11 -4 -13 9.4489 4.0394
-11 -4 -12 -19.8887 -12.0957
-11 -4 -11 -16.8386 3.8155
-11 -4 -10 14.7064 -14.3350
-11 -4 -9 16.1388 -18.1099
-11 -4 -8 14.7677 17.5715
-11 -4 -7 6.0220 16.0369
-11 -4 -6 3.2327 -22.2630
-11 -4 -5 -37.3686 -5.5463
-11 -4 -4 8.2561 -4.6707
-11 -4 -3 20.4520 -17.1961
-11 -4 -2 -44.0764 11.8827
-11 -4 -1 15.3006 12.0359
-11 -3 -19 1.1035 -1.0966
-11 -3 -18 -4.9212 -0.6806
-11 -3 -17 0.3844 -1.9407
-11 -3 -16 -2.0153 3.7249
-11 -3 -15 -1.1516 0.4108
-11 -3 -14 0.0414 5.5133
-11 -3 -13 5.7545 9.5345
-11 -3 -12 -20.0247 -22.9802
-11 -3 -11 -1.6490 -5.4923
-11 -3 -10 12.7365 -4.8676
-11 -3 -9 -8.2872 -12.4951
-11 -3 -8 5.2147 25.6105
-11 -3 -7 0.4836 2.3470
-11 -3 -6 -19.5645 -11.2182
-11 -3 -5 -2.3904 9.5352
-11 -3 -4 15.8989 8.6514
-11 -3 -3 -18.2992 -9.2354
-11 -3 -2 -18.6301 5.2212
-11 -3 -1 5.1460 -11.2018
-11 -2 -19 0.5375 2.0438
-11 -2 -18 -1.5104 7.2054
-11 -2 -17 4.8345 0.7111
-11 -2 -16 -3.2807 -7.1508
-11 -2 -15 2.6681 2.0733
-11 -2 -14 -10.5773 -6.2711
-11 -2 -13 4.7224 5.4745
-11 -2 -12 9.8422 9.4657
-11 -2 -11 -13.8175 2.8738
-11 -2 -10 13.0382 -2.4712
-11 -2 -9 -17.8496 11.9938
-11 -2 -8 -15.9494 -6.0678
-11 -2 -7 19.5900 -5.4515
-11 -2 -6 -12.8209 9.8951
-11 -2 -5 23.3497 6.8433
-11 -2 -4 2.0826 13.8857
-11 -2 -3 -7.2169 9.1618
-11 -2 -2 -0.7557 -1.2896
-11 -2 -1 -20.3826 -10.5592
-11 -1 -19 6.6229 -3.1283
-11 -1 -18 -1.8391 6.2199
-11 -1 -17 -5.2892 2.2075
-11 -1 -16 -4.7779 -9.5321
-11 -1 -15 2.2886 -1.4829
-11 -1 -14 11.4680 -5.7151
-11 -1 -13 1.0891 5.8414
-11 -1 -12 15.5588 16.5471
-11 -1 -11 -10.0710 21.8919
-11 -1 -10 -14.5793 3.0526
-11 -1 -9 9.4716 -20.3925
-11 -1 -8 4.1827 -4.1914
-11 -1 -7 -2.1143 -18.7988
-11 -1 -6 29.3785 -6.2090
-11 -1 -5 -6.7005 10.1742
-11 -1 -4 -15.3120 -7.7231
-11 -1 -3 28.7267 30.2456
-11 -1 -2 2.2360 7.1314
-11 -1 -1 -14.1868 23.7987
-10 -17 -6 -5.5842 2.5201
-10 -17 -5 -3.9840 -7.0897
-10 -17 -4 -3.5923 -5.4170
-10 -17 -3 2.3946 1.9800
-10 -17 -2 8.9689 3.9970
-10 -17 -1 -1.9897 0.7347
-10 -16 -8 -2.0827 3.8997
-10 -16 -7 -4.3390 6.7482
-10 -16 -6 -2.0060 0.0038
-10 -16 -5 2.6739 -12.1760
-10 -16 -4 2.0369 -1.4866
-10 -16 -3 3.3745 10.9708
-10 -16 -2 -1.0561 6.0085
-10 -16 -1 -5.6799 -9.0842
-10 -15 -11 4.2415 -0.4366
-10 -15 -10 2.0823 1.6178
-10 -15 -9 4.4635 -1.6369
-10 -15 -8 -7.8828 -4.3913
-10 -15 -7 -5.3395 -0.5604
-10 -15 -6 10.7299 -2.2124
-10 -15 -5 10.6555 5.8133
-10 -15 -4 3.4292 5.0949
-10 -15 -3 -1.0180 6.3898
-10 -15 -2 -16.9189 -5.5863
-10 -15 -1 -18.8770 -3.7490
-10 -14 -12 -0.0504 -3.9688
-10 -14 -11 -4.2456 2.2041
-10 -14 -10 0.0852 0.5620
-10 -14 -9 -6.6597 3.2467
-10 -14 -8 4.7057 -11.2816
-10 -14 -7 12.1443 -10.4569
-10 -14 -6 4.4430 -2.9509
-10 -14 -5 -2.2038 10.1205
-10 -14 -4 -5.3609 20.2994
-10 -14 -3 -8.9953 11.8436
-10 -14 -2 1.1563 -14.0630
-10 -14 -1 2.1294 -3.9461
-10 -13 -14 -5.1393 3.7955
-10 -13 -13 0.2307 -5.6233
-10 -13 -12 7.0224 1.5080
-10 -13 -11 -3.6805 14.1890
-10 -13 -10 -3.9156 -11.7799
-10 -13 -9 -10.3820 -8.7557
-10 -13 -8 7.5408 7.7505
-10 -13 -7 0.7813 -3.3820
-10 -13 -6 6.3651 6.1164
-10 -13 -5 6.4872 7.6115
-10 -13 -4 -8.7934 -11.8299
-10 -13 -3 -2.1470 -15.6563
-10 -13 -2 4.0544 10.3960
-10 -13 -1 -0.7892 2.2662
-10 -12 -15 -5.8719 -3.7441
-10 -12 -14 6.7637 -2.4481
-10 -12 -13 4.1461 5.6406
-10 -12 -12 -11.8514 -2.6295
-10 -12 -11 6.7051 0.8330
-10 -12 -10 0.9253 3.8892
-10 -12 -9 -10.4564 -2.2881
-10 -12 -8 11.7808 9.6943
-10 -12 -7 0.6053 -4.8659
-10 -12 -6 -26.6915 1.6430
-10 -12 -5 -0.3243 -14.8043
-10 -12 -4 17.8640 -9.3311
-10 -12 -3 0.3460 0.4749
-10 -12 -2 11.3739 -1.1051
-10 -12 -1 6.3481 -3.6009
-10 -11 -16 2.2630 -2.0623
-10 -11 -15 -2.5995 5.2657
-10 -11 -14 5.0922 -6.0765
-10 -11 -13 -1.6412 -0.6716
-10 -11 -12 -4.2427 9.2263
-10 -11 -11 5.9735 -3.9190
-10 -11 -10 12.1923 -6.5846
-10 -11 -9 -1.3826 10.8593
-10 -11 -8 -12.8389 8.8998
-10 -11 -7 -0.3684 -9.5226
-10 -11 -6 -18.6689 -0.0207
-10 -11 -5 2.7199 -1.0037
-10 -11 -4 12.3657 -20.8754
-10 -11 -3 0.0594 18.4773
-10 -11 -2 -2.2085 35.1980
-10 -11 -1 0.8979 -1.5829
-10 -10 -16 -6.4999 -10.4672
-10 -10 -15 6.8049 11.0059
-10 -10 -14 0.0821 2.8911
-10 -10 -13 -6.6508 -14.3042
-10 -10 -12 13.7068 11.4690
-10 -10 -11 -3.7081 -1.4900
-10 -10 -10 -6.6391 -5.9353
-10 -10 -9 7.5185 4.9416
-10 -10 -8 3.0701 10.1095
-10 -10 -7 -8.1223 -2.0209
-10 -10 -6 4.1928 -5.5143
-10 -10 -5 15.9371 23.2205
-10 -10 -4 -1.3353 -18.4104
-10 -10 -3 3.0608 4.6509
-10 -10 -2 8.0911 33.1045
-10 -10 -1 -16.1367 -0.9308
-10 -9 -17 0.6256 3.7102
-10 -9 -16 -7.3233 3.1609
-10 -9 -15 0.7266 -2.6544
-10 -9 -14 9.1189 -5.4447
-10 -9 -13 -6.3144 4.2226
-10 -9 -12 -1.5465 -3.3018
-10 -9 -11 2.8759 -3.7332
-10 -9 -10 -19.2607 9.8626
-10 -9 -9 10.9629 -5.9551
-10 -9 -8 25.3903 -15.5641
-10 -9 -7 2.8053 9.8759
-10 -9 -6 -11.4638 0.7839
-10 -9 -5 3.9479 -13.0192
-10 -9 -4 12.9797 13.6886
-10 -9 -3 -8.7248 -8.8265
-10 -9 -2 23.6356 -30.8976
-10 -9 -1 -15.4402 3.9552
-10 -8 -18 -2.2650 0.7627
-10 -8 -17 -2.1796 1.1466
-10 -8 -16 5.7766 9.5312
-10 -8 -15 -12.7794 -11.9716
-10 -8 -14 -0.7949 -7.7797
-10 -8 -13 7.8533 13.4177
-10 -8 -12 -4.0478 1.1363
-10 -8 -11 0.6955 -8.1979
-10 -8 -10 0.2913 -14.6027
-10 -8 -9 -1.9745 0.5424
-10 -8 -8 -14.3188 -11.5331
-10 -8 -7 3.2573 12.2608
-10 -8 -6 12.0305 6.0467
-10 -8 -5 -29.9096 -25.7388
-10 -8 -4 -8.2668 -4.8260
-10 -8 -3 7.2396 5.1559
-10 -8 -2 -16.6193 3.0988
-10 -8 -1 29.4699 -6.2059
-10 -7 -18 5.2349 -2.3590
-10 -7 -17 -8.6537 5.6362
-10 -7 -16 -0.9049 -5.1423
-10 -7 -15 -0.0206 -3.5754
-10 -7 -14 -8.3099 11.7345
-10 -7 -13 10.5788 -13.8491
-10 -7 -12 -2.9977 2.6074
-10 -7 -11 -6.6868 17.4193
-10 -7 -10 8.0849 -2.1607
-10 -7 -9 -7.6324 -1.4543
-10 -7 -8 -5.1653 12.5895
-10 -7 -7 -15.6339 -0.7802
-10 -7 -6 7.8985 -5.2742
-10 -7 -5 -13.8809 19.0489
-10 -7 -4 -3.2984 3.3419
-10 -7 -3 20.8936 -27.7227
-10 -7 -2 -14.0316 14.0727
-10 -7 -1 25.4504 15.0534
-10 -6 -19 -2.2794 -4.1121
-10 -6 -18 -3.2617 7.1384
-10 -6 -17 4.4982 -2.6143
-10 -6 -16 3.0713 -1.1462
-10 -6 -15 0.5112 3.4326
-10 -6 -14 4.4287 -0.2321
-10 -6 -13 8.2275 -4.7322
-10 -6 -12 -10.6707 8.0268
-10 -6 -11 5.7503 14.3215
-10 -6 -10 11.7058 4.8972
-10 -6 -9 -15.0213 -2.1373
-10 -6 -8 16.2247 12.7724
-10 -6 -7 14.8090 -10.7308
-10 -6 -6 -20.2124 9.9831
-10 -6 -5 14.4501 2.2928
-10 -6 -4 10.1137 -6.2533
-10 -6 -3 -12.2107 -27.6565
-10 -6 -2 13.4007 8.3784
-10 -6 -1 -1.1193 27.6989
-10 -5 -19 -3.0697 -2.0957
-10 -5 -18 -0.7049 -2.8285
-10 -5 -17 10.3534 -5.1871
-10 -5 -16 -10.7742 0.2936
-10 -5 -15 10.0144 6.5483
-10 -5 -14 13.1594 1.1939
-10 -5 -13 -8.6195 2.6507
-10 -5 -12 6.0831 -14.5976
-10 -5 -11 -5.7633 -2.2168
-10 -5 -10 -9.3067 -14.3193
-10 -5 -9 11.6303 2.4526
-10 -5 -8 17.7423 9.0373
-10 -5 -7 11.7174 -13.8014
-10 -5 -6 -30.9601 11.2000
-10 -5 -5 8.1915 -1.9951
-10 -5 -4 -8.9664 -15.8070
-10 -5 -3 -0.7660 25.5279
-10 -5 -2 23.8719 -5.2209
-10 -5 -1 -9.1627 -7.8634
-10 -4 -20 -6.5266 -0.0855
-10 -4 -19 -0.9036 -1.7038
-10 -4 -18 2.7397 -1.5019
-10 -4 -17 2.3850 -1.6326
-10 -4 -16 4.2058 -5.9818
-10 -4 -15 -5.0899 6.6368
-10 -4 -14 -16.5113 -6.6253
-10 -4 -13 -13.1553 16.8706
-10 -4 -12 7.9981 -2.9413
-10 -4 -11 3.3451 -29.5139
-10 -4 -10 8.5021 -9.8569
-10 -4 -9 1.2478 -5.1682
-10 -4 -8 -12.7143 6.0141
-10 -4 -7 -10.8828 24.1168
-10 -4 -6 19.0080 1.6140
-10 -4 -5 -0.0503 2.8559
-10 -4 -4 -21.2001 -19.3404
-10 -4 -3 10.7026 37.3562
-10 -4 -2 -11.5554 -22.9798
-10 -4 -1 -2.9258 -26.1172
-10 -3 -20 -2.5403 4.0267
-10 -3 -19 3.2204 1.9937
-10 -3 -18 -6.4569 -9.3615
-10 -3 -17 -0.5548 10.5552
-10 -3 -16 11.2457 11.8044
-10 -3 -15 -9.2830 -2.6259
-10 -3 -14 -3.7131 -3.8733
-10 -3 -13 -10.9990 -12.9524
-10 -3 -12 -10.1334 -6.2025
-10 -3 -11 2.5398 7.6452
-10 -3 -10 12.5406 38.9857
-10 -3 -9 11.1332 -12.0199
-10 -3 -8 -11.0434 -19.6749
-10 -3 -7 -0.3160 3.0593
-10 -3 -6 19.4469 -16.1119
-10 -3 -5 -10.6717 9.1759
-10 -3 -4 1.2236 46.3589
-10 -3 -3 -19.5662 -32.9423
-10 -3 -2 -14.1370 -43.3367
-10 -3 -1 -9.7511 10.7350
-10 -2 -20 -2.2001 4.7768
-10 -2 -19 8.1191 -1.9203
-10 -2 -18 0.4996 -7.7353
-10 -2 -17 -7.4387 9.8834
-10 -2 -16 4.6596 -2.0689
-10 -2 -15 -11.9681 0.1396
-10 -2 -14 -3.4427 18.2543
-10 -2 -13 28.6961 -26.5605
-10 -2 -12 17.0170 8.7152
-10 -2 -11 -12.0445 18.9052
-10 -2 -10 -11.3415 1.5191
-10 -2 -9 -20.3769 -0.7614
-10 -2 -8 -28.8575 -19.5322
-10 -2 -7 52.8251 -15.8342
-10 -2 -6 23.3309 -6.8810
-10 -2 -5 -19.2454 17.8121
-10 -2 -4 0.9339 35.4085
-10 -2 -3 -25.4423 -44.1283
-10 -2 -2 -23.8828 11.8108
-10 -2 -1 28.4220 0.7147
-10 -1 -20 -1.8995 1.1086
-10 -1 -19 2.1246 0.1011
-10 -1 -18 0.4816 1.8374
-10 -1 -17 0.1790 6.8785
-10 -1 -16 8.7431 -0.7572
-10 -1 -15 -11.4478 -18.0505
-10 -1 -14 8.2040 1.2864
-10 -1 -13 27.3419 5.4746
-10 -1 -12 -4.7545 1.4054
-10 -1 -11 1.4215 30.0152
-10 -1 -10 -29.7497 -7.3884
-10 -1 -9 -32.1688 -33.0979
-10 -1 -8 5.2093 0.9390
-10 -1 -7 22.2768 -3.7906
-10 -1 -6 17.3793 -3.4769
-10 -1 -5 -3.9351 52.9508
-10 -1 -4 6.7254 -10.8836
-10 -1 -3 -0.6578 -9.8152
-10 -1 -2 -15.4023 20.9411
-10 -1 -1 32.0561 2.0524
-9 -18 -4 -4.2351 -3.9060
-9 -18 -3 -0.7729 -5.2322
-9 -18 -2 5.3530 -1.3992
-9 -18 -1 7.3178 9.4463
-9 -17 -7 0.5627 5.2794
-9 -17 -6 -7.0169 4.5522
-9 -17 -5 -4.0101 -1.7991
-9 -17 -4 10.6470 -4.7959
-9 -17 -3 10.7496 -5.7833
-9 -17 -2 -0.4201 -6.6522
-9 -17 -1 -3.6121 2.5859
-9 -16 -10 -0.4691 0.1489
-9 -16 -9 0.2356 5.1043
-9 -16 -8 4.4023 6.1633
-9 -16 -7 -2.9002 -5.7315
-9 -16 -6 -1.3107 -8.6625
-9 -16 -5 -4.4810 2.1683
-9 -16 -4 -8.0803 4.0911
-9 -16 -3 3.3755 5.2852
-9 -16 -2 0.5757 9.4198
-9 -16 -1 -8.3209 -4.8614
-9 -15 -12 -1.5830 0.6940
-9 -15 -11 3.9269 -3.7332
-9 -15 -10 1.6180 0.7316
-9 -15 -9 -11.9726 0.8677
-9 -15 -8 -0.9348 -6.0332
-9 -15 -7 4.0040 -1.6516
-9 -15 -6 7.3853 9.0581
-9 -15 -5 7.8835 4.1442
-9 -15 -4 -1.4007 6.2288
-9 -15 -3 -20.6454 6.5303
-9 -15 -2 -11.1636 -4.9605
-9 -15 -1 9.4241 1.7978
-9 -14 -13 -3.0405 -7.8774
-9 -14 -12 9.9192 2.7099
-9 -14 -11 -2.9440 3.4934
-9 -14 -10 -6.4207 -2.9349
-9 -14 -9 2.6561 -4.6817
-9 -14 -8 0.2939 -4.9194
-9 -14 -7 10.8323 -6.0337
-9 -14 -6 13.9526 5.6409
-9 -14 -5 2.2516 15.9393
-9 -14 -4 -7.4808 0.8137
-9 -14 -3 -0.2979 -11.1260
-9 -14 -2 5.5897 -5.6356
-9 -14 -1 1.9180 -16.4865
-9 -13 -14 3.0623 -1.1990
-9 -13 -13 -6.8834 -6.2469
-9 -13 -12 4.7505 2.7460
-9 -13 -11 4.0818 2.2398
-9 -13 -10 -3.2418 7.3503
-9 -13 -9 4.7762 -11.3356
-9 -13 -8 2.0792 -8.0742
-9 -13 -7 1.2955 4.1167
-9 -13 -6 -9.6277 -8.0395
-9 -13 -5 0.0909 -0.8153
-9 -13 -4 2.3366 1.0078
-9 -13 -3 -3.2621 -8.5519
-9 -13 -2 5.7268 0.6214
-9 -13 -1 4.8075 4.3082
-9 -12 -16 -1.7502 4.2099
-9 -12 -15 -5.9642 3.0031
-9 -12 -14 1.3214 -3.3317
-9 -12 -13 4.9029 3.8028
-9 -12 -12 -7.2250 -3.2582
-9 -12 -11 9.8074 -11.6175
-9 -12 -10 -3.2671 12.1819
-9 -12 -9 -5.0388 13.9950
-9 -12 -8 -13.3067 4.0873
-9 -12 -7 -6.1647 -3.5704
-9 -12 -6 -4.1590 -7.8050
-9 -12 -5 -4.5331 -12.0622
-9 -12 -4 14.2219 1.1880
-9 -12 -3 -0.8450 17.7103
-9 -12 -2 -12.9360 7.1001
-9 -12 -1 2.1830 10.7291
-9 -11 -16 12.1505 0.4249
-9 -11 -15 -2.2589 7.0616
-9 -11 -14 -12.1339 1.0254
-9 -11 -13 1.6413 -4.7660
-9 -11 -12 0.5588 -0.3977
-9 -11 -11 6.1839 3.2341
-9 -11 -10 6.6338 -2.2696
-9 -11 -9 -5.6412 28.2607
-9 -11 -8 -16.8609 -0.8986
-9 -11 -7 -10.2318 -8.8958
-9 -11 -6 15.8957 -3.6631
-9 -11 -5 12.4498 2.5728
-9 -11 -4 9.0229 8.3886
-9 -11 -3 13.1065 6.2433
-9 -11 -2 -20.0282 2.2057
-9 -11 -1 -18.9746 -10.8340
-9 -10 -17 0.0644 8.9106
-9 -10 -16 -0.1017 0.2657
-9 -10 -15 7.0483 0.6639
-9 -10 -14 -2.3307 14.6002
-9 -10 -13 -9.8483 -17.6997
-9 -10 -12 8.5844 -8.3265
-9 -10 -11 8.9085 18.0015
-9 -10 -10 1.5429 -7.0964
-9 -10 -9 -4.6406 -0.0364
-9 -10 -8 17.8459 -2.1193
-9 -10 -7 -12.5459 -12.7802
-9 -10 -6 13.5955 -14.5082
-9 -10 -5 12.5064 9.6251
-9 -10 -4 -14.3249 13.8882
-9 -10 -3 -4.1440 -2.8402
-9 -10 -2 0.4667 8.7789
-9 -10 -1 -5.0091 -5.2850
-9 -9 -18 1.8555 3.6637
-9 -9 -17 9.5731 -6.5396
-9 -9 -16 -5.8647 -0.5322
-9 -9 -15 -9.6769 3.2745
-9 -9 -14 5.8118 -6.3910
-9 -9 -13 -0.8720 -0.5401
-9 -9 -12 -7.8182 0.6640
-9 -9 -11 18.2354 -7.4318
-9 -9 -10 1.3208 -6.6104
-9 -9 -9 -21.9089 -6.8771
-9 -9 -8 10.0886 -0.4643
-9 -9 -7 7.2983 -12.2178
-9 -9 -6 -16.4981 23.5432
-9 -9 -5 14.4204 -11.2075
-9 -9 -4 7.5644 -0.5911
-9 -9 -3 -39.4166 11.2816
-9 -9 -2 9.3142 -3.9290
-9 -9 -1 28.3157 10.2597
-9 -8 -19 -1.2729 0.3812
-9 -8 -18 -2.4084 9.5384
-9 -8 -17 8.0751 -11.8333
-9 -8 -16 -9.8735 6.7130
-9 -8 -15 -2.8646 7.6897
-9 -8 -14 5.4769 -21.0203
-9 -8 -13 -7.7120 0.4051
-9 -8 -12 -5.2136 6.0770
-9 -8 -11 5.2976 -2.8150
-9 -8 -10 -4.7334 11.6903
-9 -8 -9 -4.8185 16.2867
-9 -8 -8 -0.3218 -0.4178
-9 -8 -7 1.9215 -24.8420
-9 -8 -6 -15.4596 24.1883
-9 -8 -5 26.7467 12.9682
-9 -8 -4 -3.6955 -31.4118
-9 -8 -3 3.4695 8.9428
-9 -8 -2 11.7221 -15.3567
-9 -8 -1 -0.9082 -32.9179
-9 -7 -19 -3.3697 -1.3161
-9 -7 -18 5.8136 0.9159
-9 -7 -17 -8.3683 2.3245
-9 -7 -16 -6.6625 0.0714
-9 -7 -15 14.5262 14.5142
-9 -7 -14 -10.9229 -2.4612
-9 -7 -13 1.9738 -9.7231
-9 -7 -12 32.0428 4.6843
-9 -7 -11 -14.8290 -0.5014
-9 -7 -10 -15.1473 11.1633
-9 -7 -9 9.8831 18.2571
-9 -7 -8 -4.1866 -2.8733
-9 -7 -7 -6.4361 -20.2819
-9 -7 -6 12.9157 -17.9267
-9 -7 -5 -3.8316 17.0328
-9 -7 -4 -40.0929 -21.7913
-9 -7 -3 28.1038 12.7873
-9 -7 -2 37.0339 -8.8980
-9 -7 -1 -23.2661 -21.7346
-9 -6 -20 -6.2185 2.8629
-9 -6 -19 1.9134 3.4235
-9 -6 -18 1.3268 -9.4878
-9 -6 -17 2.4787 5.4342
-9 -6 -16 11.4294 -0.4780
-9 -6 -15 -6.8013 -15.0596
-9 -6 -14 -6.8343 4.2714
-9 -6 -13 -5.2508 17.7237
-9 -6 -12 10.0970 -1.6590
-9 -6 -11 15.8681 -6.6875
-9 -6 -10 0.6756 4.7712
-9 -6 -9 -12.9580 -31.1433
-9 -6 -8 -18.5290 -11.5540
-9 -6 -7 -1.2224 55.5635
-9 -6 -6 3.0526 -6.7973
-9 -6 -5 -5.2879 -34.0566
-9 -6 -4 6.6757 18.7771
-9 -6 -3 -37.3854 -10.7494
-9 -6 -2 19.3853 0.1787
-9 -6 -1 9.0942 66.3536
-9 -5 -20 -1.1117 -1.0915
-9 -5 -19 7.6018 -1.6554
-9 -5 -18 -9.6031 -11.7134
-9 -5 -17 -1.4703 6.0005
-9 -5 -16 14.0731 2.6179
-9 -5 -15 -4.6065 -2.5039
-9 -5 -14 6.9584 11.9544
-9 -5 -13 -1.5502 -14.8399
-9 -5 -12 -31.9381 -9.4982
-9 -5 -11 -15.1396 10.3508
-9 -5 -10 21.5379 -4.4863
-9 -5 -9 41.1078 6.2410
-9 -5 -8 -6.3915 12.8211
-9 -5 -7 5.5733 1.7760
-9 -5 -6 -10.9488 0.3567
-9 -5 -5 -48.0806 15.7600
-9 -5 -4 52.6152 8.9522
-9 -5 -3 28.7351 -21.6413
-9 -5 -2 -47.9025 19.3722
-9 -5 -1 -3.8288 -23.3871
-9 -4 -20 4.1161 4.3170
-9 -4 -19 -1.9918 -3.3773
-9 -4 -18 2.3659 3.0823
-9 -4 -17 0.0142 0.6223
-9 -4 -16 5.5701 -7.2379
-9 -4 -15 -6.6646 8.3885
-9 -4 -14 0.6899 19.9119
-9 -4 -13 5.4087 -7.1265
-9 -4 -12 -22.1105 -16.1274
-9 -4 -11 15.2663 -13.3600
-9 -4 -10 17.8032 -14.6373
-9 -4 -9 -5.0102 12.4634
-9 -4 -8 26.1933 36.6554
-9 -4 -7 1.3013 6.6543
-9 -4 -6 -9.9734 -33.0401
-9 -4 -5 7.8171 11.8042
-9 -4 -4 5.1970 -6.6187
-9 -4 -3 -9.6550 -15.9526
-9 -4 -2 -19.4127 30.8349
-9 -4 -1 32.7748 -30.5446
-9 -3 -20 7.5225 -0.1358
-9 -3 -19 -5.9268 1.1761
-9 -3 -18 -3.7474 7.7312
-9 -3 -17 4.0404 -10.8495
-9 -3 -16 -3.1892 2.1798
-9 -3 -15 -2.0710 -1.2451
-9 -3 -14 -4.3707 6.5142
-9 -3 -13 3.7366 3.9873
-9 -3 -12 -1.1516 -6.9432
-9 -3 -11 13.4726 -6.3988
-9 -3 -10 8.9654 -19.9049
-9 -3 -9 -28.7792 -0.5430
-9 -3 -8 0.8662 5.5822
-9 -3 -7 -1.7654 -16.7780
-9 -3 -6 -10.3496 13.1197
-9 -3 -5 21.4432 -0.3733
-9 -3 -4 -1.2985 -2.2863
-9 -3 -3 -26.9200 3.5794
-9 -3 -2 14.7234 -17.6305
-9 -3 -1 16.0612 -11.7692
-9 -2 -21 1.4940 2.8120
-9 -2 -20 2.8209 -0.0290
-9 -2 -19 -7.2315 0.8427
-9 -2 -18 -6.7753 7.5655
-9 -2 -17 -0.3985 -1.3247
-9 -2 -16 -2.4871 -7.3176
-9 -2 -15 21.6924 -5.7598
-9 -2 -14 -8.5500 -7.2023
-9 -2 -13 -3.4244 -1.9943
-9 -2 -12 -3.9768 19.0411
-9 -2 -11 -30.4973 26.2281
-9 -2 -10 -0.0272 -13.6798
-9 -2 -9 2.0798 -4.9983
-9 -2 -8 -11.5481 -17.8827
-9 -2 -7 15.1636 -26.4271
-9 -2 -6 -2.1768 26.2196
-9 -2 -5 -3.3337 -0.6740
-9 -2 -4 -8.8473 11.6882
-9 -2 -3 4.8372 11.8515
-9 -2 -2 -11.9486 -12.1225
-9 -2 -1 -25.2206 4.9922
-9 -1 -21 2.0984 2.7833
-9 -1 -20 -1.1546 5.6262
-9 -1 -19 5.4488 -0.9903
-9 -1 -18 -2.0292 1.6415
-9 -1 -17 -3.5259 -5.6685
-9 -1 -16 -8.3548 -13.9926
-9 -1 -15 2.9475 4.1376
-9 -1 -14 23.0006 5.0213
-9 -1 -13 -2.3906 31.1747
-9 -1 -12 -11.0665 -1.9248
-9 -1 -11 -5.7876 5.3288
-9 -1 -10 -24.3255 10.2070
-9 -1 -9 5.8903 -29.8840
-9 -1 -8 28.1705 16.0947
-9 -1 -7 -4.5017 20.5624
-9 -1 -6 17.4873 -38.0063
-9 -1 -5 4.0432 12.3713
-9 -1 -4 -12.3425 11.3930
-9 -1 -3 12.0843 7.5665
-9 -1 -2 -32.8618 32.2805
-9 -1 -1 -11.0534 31.1105
-8 -18 -6 -1.3492 0.8535
-8 -18 -5 -5.3481 -9.1302
-8 -18 -4 0.3250 1.1541
-8 -18 -3 6.1826 10.3769
-8 -18 -2 0.1615 -7.1464
-8 -18 -1 6.9803 -2.7826
-8 -17 -9 4.6472 0.4021
-8 -17 -8 -2.2978 3.5542
-8 -17 -7 -10.0208 1.2878
-8 -17 -6 3.7633 -5.8674
-8 -17 -5 3.2906 -10.5446
-8 -17 -4 -2.4347 -2.8191
-8 -17 -3 0.3461 1.3955
-8 -17 -2 -4.8047 6.7749
-8 -17 -1 -11.0768 2.5927
-8 -16 -11 -0.2729 -5.2645
-8 -16 -10 3.7815 1.7300
-8 -16 -9 -2.4834 -1.0288
-8 -16 -8 -10.0378 0.1602
-8 -16 -7 -4.0906 1.2631
-8 -16 -6 5.3973 -0.6236
-8 -16 -5 5.8932 2.7098
-8 -16 -4 6.7479 8.7382
-8 -16 -3 -2.1306 2.9392
-8 -16 -2 -8.7911 -6.4341
-8 -16 -1 -6.7838 -9.9349
-8 -15 -13 2.0896 -1.4163
-8 -15 -12 -6.9405 0.9634
-8 -15 -11 -0.7577 4.0997
-8 -15 -10 1.1802 9.5464
-8 -15 -9 3.5684 -1.2875
-8 -15 -8 3.7799 -5.9514
-8 -15 -7 6.8642 -7.5024
-8 -15 -6 1.9468 -1.1328
-8 -15 -5 -0.4278 16.5553
-8 -15 -4 -6.6358 16.4721
-8 -15 -3 -5.0843 -4.7729
-8 -15 -2 -5.3303 -19.9449
-8 -15 -1 -1.0380 -4.1695
-8 -14 -14 -3.9124 3.4317
-8 -14 -13 6.9522 -1.1320
-8 -14 -12 8.0234 -0.3083
-8 -14 -11 0.4412 3.2561
-8 -14 -10 -8.4161 -12.7810
-8 -14 -9 -2.9704 5.0930
-8 -14 -8 5.6617 -0.3822
-8 -14 -7 14.2368 0.4641
-8 -14 -6 5.3806 5.7041
-8 -14 -5 -7.4501 -5.0123
-8 -14 -4 -19.7971 -1.7957
-8 -14 -3 -7.4732 5.7362
-8 -14 -2 -2.7044 2.2584
-8 -14 -1 14.2301 6.4976
-8 -13 -15 0.6398 -12.1548
-8 -13 -14 5.8048 -2.6467
-8 -13 -13 -5.4750 -0.4323
-8 -13 -12 -0.5850 -4.2033
-8 -13 -11 8.5952 7.0877
-8 -13 -10 -1.9625 -6.0880
-8 -13 -9 -5.4882 -4.3145
-8 -13 -8 7.3957 -0.8555
-8 -13 -7 -22.1228 7.3454
-8 -13 -6 -0.6152 7.2837
-8 -13 -5 17.7447 0.5705
-8 -13 -4 9.6516 -4.4395
-8 -13 -3 10.0099 -10.0806
-8 -13 -2 6.2635 -4.4142
-8 -13 -1 -13.1686 10.2730
-8 -12 -16 0.9060 -0.2832
-8 -12 -15 -6.3346 9.2907
-8 -12 -14 2.5014 -11.1132
-8 -12 -13 6.3274 1.2275
-8 -12 -12 -9.6648 5.6397
-8 -12 -11 0.6045 -11.7468
-8 -12 -10 9.6792 9.2528
-8 -12 -9 -10.5615 17.7517
-8 -12 -8 1.4568 0.1288
-8 -12 -7 1.3707 -22.0343
-8 -12 -6 -5.4901 -2.2572
-8 -12 -5 -0.9177 -17.5788
-8 -12 -4 17.6748 -2.7712
-8 -12 -3 -2.6639 31.8563
-8 -12 -2 4.5264 -0.1862
-8 -12 -1 5.1126 -24.6717
-8 -11 -17 1.8604 -2.8109
-8 -11 -16 -3.6376 -3.5464
-8 -11 -15 7.2600 14.9336
-8 -11 -14 -3.8203 -1.8523
-8 -11 -13 -11.7031 -3.6527
-8 -11 -12 10.5294 9.5757
-8 -11 -11 -1.6933 2.9048
-8 -11 -10 0.4094 -8.0061
-8 -11 -9 6.2437 -0.2549
-8 -11 -8 -9.5749 6.2364
-8 -11 -7 -8.6665 -19.9629
-8 -11 -6 -6.9041 -0.9850
-8 -11 -5 20.9506 11.8788
-8 -11 -4 -15.8150 -18.2260
-8 -11 -3 -13.2112 6.7580
-8 -11 -2 -5.8889 37.2486
-8 -11 -1 -32.2681 -14.6964
-8 -10 -18 7.7158 0.8035
-8 -10 -17 5.5032 2.4113
-8 -10 -16 -10.9553 -0.5652
-8 -10 -15 12.1677 -5.4972
-8 -10 -14 5.2050 7.2217
-8 -10 -13 -18.5212 4.7982
-8 -10 -12 10.4288 -4.2173
-8 -10 -11 -4.6278 -5.5707
-8 -10 -10 -17.8648 -2.4108
-8 -10 -9 9.7504 -7.9442
-8 -10 -8 15.3234 9.8903
-8 -10 -7 -9.7074 18.2341
-8 -10 -6 -15.4601 2.0511
-8 -10 -5 22.5061 12.0498
-8 -10 -4 -1.1684 -4.0778
-8 -10 -3 -3.1932 5.7384
-8 -10 -2 13.9267 1.9178
-8 -10 -1 -30.5545 -0.3178
-8 -9 -19 5.1064 4.5220
-8 -9 -18 -7.1470 -4.1312
-8 -9 -17 -6.7221 -2.1459
-8 -9 -16 2.8260 6.1875
-8 -9 -15 -4.3149 -7.0837
-8 -9 -14 12.3227 -6.0913
-8 -9 -13 10.7239 16.6939
-8 -9 -12 -18.7869 1.5669
-8 -9 -11 -2.7339 -25.9283
-8 -9 -10 4.4304 11.8083
-8 -9 -9 12.7351 12.7790
-8 -9 -8 10.6980 -6.6616
-8 -9 -7 19.5116 17.5316
-8 -9 -6 -9.1413 1.9621
-8 -9 -5 -23.2497 -35.4830
-8 -9 -4 34.6745 11.6859
-8 -9 -3 5.1723 31.4470
-8 -9 -2 15.9360 -22.6261
-8 -9 -1 25.1075 -1.8511
-8 -8 -19 7.7829 1.9058
-8 -8 -18 -8.0085 5.5692
-8 -8 -17 -9.7006 0.3813
-8 -8 -16 12.8737 -12.9364
-8 -8 -15 -4.4533 -2.0735
-8 -8 -14 -3.9340 -0.7060
-8 -8 -13 9.5635 -2.8543
-8 -8 -12 -0.0022 17.2727
-8 -8 -11 8.9127 4.3064
-8 -8 -10 10.3686 -23.7231
-8 -8 -9 12.5837 -5.9631
-8 -8 -8 -31.7002 -0.4343
-8 -8 -7 -21.6965 0.9043
-8 -8 -6 30.0223 -13.8049
-8 -8 -5 -9.5456 -0.0918
-8 -8 -4 -2.0274 -27.4091
-8 -8 -3 21.1889 -28.9598
-8 -8 -2 -25.0911 59.8858
-8 -8 -1 12.5726 11.3680
-8 -7 -20 3.3276 3.1889
-8 -7 -19 -8.2136 0.6555
-8 -7 -18 6.6235 -3.6136
-8 -7 -17 2.5262 4.8704
-8 -7 -16 -13.8794 -10.2144
-8 -7 -15 4.4950 -1.0525
-8 -7 -14 10.8868 6.2572
-8 -7 -13 -9.9169 -17.8599
-8 -7 -12 -3.4870 -3.2802
-8 -7 -11 -0.7536 17.5554
-8 -7 -10 -16.6967 2.4461
-8 -7 -9 -15.3006 9.3439
-8 -7 -8 17.6743 -8.2965
-8 -7 -7 -20.8460 -7.0761
-8 -7 -6 -20.3240 -15.8630
-8 -7 -5 3.0974 8.2266
-8 -7 -4 6.6143 11.0753
-8 -7 -3 4.4333 -25.2380
-8 -7 -2 13.9005 4.0551
-8 -7 -1 -1.8727 10.2674
-8 -6 -20 -1.9002 -7.2710
-8 -6 -19 -6.8357 -4.2835
-8 -6 -18 4.5169 10.1759
-8 -6 -17 1.2129 -9.5918
-8 -6 -16 -5.5455 10.5892
-8 -6 -15 2.5614 9.7895
-8 -6 -14 1.7205 -6.3191
-8 -6 -13 -6.0513 3.6002
-8 -6 -12 -2.6025 6.7866
-8 -6 -11 -2.3912 -6.9117
-8 -6 -10 -2.2574 -2.7572
-8 -6 -9 -8.3640 22.8412
-8 -6 -8 23.0536 9.6191
-8 -6 -7 -1.1745 -8.1118
-8 -6 -6 -16.1857 31.8839
-8 -6 -5 8.5508 -26.9469
-8 -6 -4 3.1460 -8.1488
-8 -6 -3 -10.9755 21.7638
-8 -6 -2 15.4264 -19.0537
-8 -6 -1 -16.1317 -0.5618
-8 -5 -20 3.2130 -3.4638
-8 -5 -19 3.4618 3.0963
-8 -5 -18 4.9630 0.2398
-8 -5 -17 8.2325 -7.1214
-8 -5 -16 -5.9911 12.9399
-8 -5 -15 3.5268 0.1469
-8 -5 -14 -7.1390 6.1571
-8 -5 -13 -2.3257 19.0327
-8 -5 -12 10.0777 -16.3401
-8 -5 -11 15.0769 -21.6963
-8 -5 -10 8.9683 -8.5878
-8 -5 -9 16.8915 -1.0103
-8 -5 -8 2.5782 27.3730
-8 -5 -7 -8.3102 1.1148
-8 -5 -6 -2.3865 18.0580
-8 -5 -5 4.3250 -19.5247
-8 -5 -4 -30.3252 -5.9088
-8 -5 -3 19.1849 32.1664
-8 -5 -2 -6.0216 -10.2585
-8 -5 -1 3.3974 -16.5827
-8 -4 -21 3.3118 -5.7429
-8 -4 -20 0.9877 4.2927
-8 -4 -19 4.3739 -7.3538
-8 -4 -18 -2.6538 -0.0334
-8 -4 -17 -1.0054 13.3524
-8 -4 -16 14.9207 -8.1434
-8 -4 -15 1.2461 0.6383
-8 -4 -14 -19.0567 -13.2647
-8 -4 -13 -2.7923 -7.4198
-8 -4 -12 -8.3976 -3.9846
-8 -4 -11 4.7099 1.3587
-8 -4 -10 34.0709 6.3099
-8 -4 -9 6.5254 -16.4474
-8 -4 -8 -19.0844 -5.5560
-8 -4 -7 0.2129 21.1185
-8 -4 -6 -0.4443 -10.5369
-8 -4 -5 2.6323 23.7534
-8 -4 -4 -15.5660 -1.5207
-8 -4 -3 12.5868 -31.0122
-8 -4 -2 -19.5114 -10.1752
-8 -4 -1 15.2048 20.1954
-8 -3 -21 -8.9940 -0.1917
-8 -3 -20 -1.3377 7.0192
-8 -3 -19 8.3136 -1.7320
-8 -3 -18 -15.5858 -7.5927
-8 -3 -17 4.0576 8.6466
-8 -3 -16 -0.8152 -6.0706
-8 -3 -15 -19.9739 2.8025
-8 -3 -14 20.0467 2.2390
-8 -3 -13 5.9156 -22.3140
-8 -3 -12 -5.9541 -4.2163
-8 -3 -11 -24.3755 22.5349
-8 -3 -10 -13.8335 11.3444
-8 -3 -9 -10.0248 -6.2969
-8 -3 -8 12.2830 -9.4476
-8 -3 -7 49.0646 -8.2096
-8 -3 -6 -0.2515 -16.3672
-8 -3 -5 -42.0417 35.2842
-8 -3 -4 22.0378 3.5993
-8 -3 -3 -29.8735 -38.8084
-8 -3 -2 15.7339 -9.6779
-8 -3 -1 34.9502 31.0243
-8 -2 -21 -4.2785 5.2171
-8 -2 -20 -2.9453 4.9727
-8 -2 -19 0.3432 -7.8771
-8 -2 -18 -1.7669 -2.1975
-8 -2 -17 2.7095 10.7863
-8 -2 -16 -9.6010 -19.0335
-8 -2 -15 -14.7760 -3.0071
-8 -2 -14 17.5837 25.3136
-8 -2 -13 15.2745 -2.9743
-8 -2 -12 10.7217 30.5135
-8 -2 -11 -10.6632 17.6975
-8 -2 -10 -33.0012 -39.6082
-8 -2 -9 -20.9953 -35.3946
-8 -2 -8 11.0088 1.2345
-8 -2 -7 39.0796 -6.8163
-8 -2 -6 -0.0296 27.9853
-8 -2 -5 -12.9797 33.5443
-8 -2 -4 15.3859 -14.8896
-8 -2 -3 -29.6438 -34.2701
-8 -2 -2 25.1960 19.2969
-8 -2 -1 13.2932 -12.4242
-8 -1 -21 -0.8845 3.2630
-8 -1 -20 1.6740 -7.5002
-8 -1 -19 -2.0890 -5.0302
-8 -1 -18 -1.5717 14.6762
-8 -1 -17 -0.0947 6.4785
-8 -1 -16 15.1668 -4.2280
-8 -1 -15 -7.1709 -10.8320
-8 -1 -14 18.1116 -7.2159
-8 -1 -13 18.4325 12.1444
-8 -1 -12 -38.4012 22.9725
-8 -1 -11 10.2449 5.9221
-8 -1 -10 -12.0903 -17.3593
-8 -1 -9 -22.6517 -30.5080
-8 -1 -8 35.5416 -1.0918
-8 -1 -7 5.4704 1.2536
-8 -1 -6 -17.5888 16.2229
-8 -1 -5 13.9288 17.4464
-8 -1 -4 -27.2711 -22.5342
-8 -1 -3 -1.2980 5.0887
-8 -1 -2 -7.5634 26.4604
-8 -1 -1 3.9076 -33.3633
-7 -19 -3 -3.1319 -3.6965
-7 -19 -2 1.6725 -0.1506
-7 -19 -1 0.9342 7.6378
-7 -18 -7 -1.3453 3.6853
-7 -18 -6 -7.4442 4.5696
-7 -18 -5 -4.7605 -1.8660
-7 -18 -4 9.9281 -4.5269
-7 -18 -3 4.9814 -2.7605
-7 -18 -2 -3.0153 0.2310
-7 -18 -1 -2.3003 8.8651
-7 -17 -10 -2.7749 -0.2813
-7 -17 -9 4.2608 0.5825
-7 -17 -8 0.3653 3.7447
-7 -17 -7 -2.0444 -5.4323
-7 -17 -6 -6.4426 -4.8589
-7 -17 -5 -8.0657 1.1265
-7 -17 -4 4.0117 2.3135
-7 -17 -3 20.3248 1.6184
-7 -17 -2 3.0482 4.4615
-7 -17 -1 -9.5406 -6.8284
-7 -16 -12 -0.7787 0.5086
-7 -16 -11 0.0364 -2.9987
-7 -16 -10 -6.0188 -1.2011
-7 -16 -9 -2.1911 -0.9362
-7 -16 -8 5.8613 1.2635
-7 -16 -7 4.5714 6.3688
-7 -16 -6 8.9135 -10.9090
-7 -16 -5 3.8933 -10.1772
-7 -16 -4 -15.3220 -0.0728
-7 -16 -3 -11.7863 -2.6758
-7 -16 -2 -4.6813 4.6410
-7 -16 -1 6.2067 14.1387
-7 -15 -13 5.6614 2.0112
-7 -15 -12 1.7277 8.6988
-7 -15 -11 -2.4141 0.0437
-7 -15 -10 4.4618 -3.0169
-7 -15 -9 1.1397 -6.8105
-7 -15 -8 -5.6225 -12.8077
-7 -15 -7 3.3105 9.0495
-7 -15 -6 -1.3889 23.7648
-7 -15 -5 -8.7502 9.6394
-7 -15 -4 10.0215 -1.8176
-7 -15 -3 -0.6982 -5.1345
-7 -15 -2 -13.5293 -12.9655
-7 -15 -1 2.6822 -3.2976
-7 -14 -15 1.0386 -3.9296
-7 -14 -14 8.3000 -1.2687
-7 -14 -13 -3.0683 -2.8963
-7 -14 -12 9.8972 -2.6566
-7 -14 -11 -5.2062 10.1174
-7 -14 -10 -9.1151 2.3163
-7 -14 -9 6.4826 -6.1835
-7 -14 -8 7.2025 12.2973
-7 -14 -7 3.8434 5.3355
-7 -14 -6 -3.3592 -4.0095
-7 -14 -5 -3.6091 11.7513
-7 -14 -4 -6.1626 3.9400
-7 -14 -3 2.4207 -8.6115
-7 -14 -2 25.4111 12.2930
-7 -14 -1 -3.1586 -9.1480
-7 -13 -16 -5.0127 2.1334
-7 -13 -15 -7.7705 -5.1507
-7 -13 -14 8.9578 -8.4187
-7 -13 -13 -0.6637 1.0179
-7 -13 -12 1.2547 0.9661
-7 -13 -11 2.8264 -1.7452
-7 -13 -10 4.5566 15.3620
-7 -13 -9 -5.4771 2.6539
-7 -13 -8 3.5429 -7.5699
-7 -13 -7 5.9393 -11.6526
-7 -13 -6 -6.6264 -11.1921
-7 -13 -5 3.4440 -7.0669
-7 -13 -4 10.3568 -6.8905
-7 -13 -3 -15.1504 10.0015
-7 -13 -2 -7.4145 0.1118
-7 -13 -1 9.7031 1.6787
-7 -12 -17 -2.4784 -1.5521
-7 -12 -16 6.4675 2.0761
-7 -12 -15 -6.0359 3.8300
-7 -12 -14 -13.4277 -6.5886
-7 -12 -13 10.1058 -6.8698
-7 -12 -12 7.2876 9.2196
-7 -12 -11 7.5202 -11.4409
-7 -12 -10 -5.9306 -0.5817
-7 -12 -9 -12.5609 4.7273
-7 -12 -8 -22.3733 -12.7998
-7 -12 -7 -3.5789 -14.5171
-7 -12 -6 21.4750 4.0921
-7 -12 -5 6.6043 2.6457
-7 -12 -4 1.2008 1.9052
-7 -12 -3 -2.8434 5.4519
-7 -12 -2 -22.0744 -7.0983
-7 -12 -1 2.4216 -9.8099
-7 -11 -18 6.4843 -3.5455
-7 -11 -17 -0.1854 9.3901
-7 -11 -16 -1.1668 2.1972
-7 -11 -15 3.9671 3.9856
-7 -11 -14 -10.3218 5.4421
-7 -11 -13 -3.5913 -16.8254
-7 -11 -12 4.5704 -2.1760
-7 -11 -11 2.1092 12.9801
-7 -11 -10 -23.4528 0.0128
-7 -11 -9 7.3884 5.4563
-7 -11 -8 -0.9002 -10.7015
-7 -11 -7 -3.1590 6.8247
-7 -11 -6 18.5264 0.4667
-7 -11 -5 5.2316 12.4109
-7 -11 -4 -22.7249 30.5675
-7 -11 -3 13.0803 -14.4051
-7 -11 -2 2.8054 2.1526
-7 -11 -1 -9.3345 -14.7094
-7 -10 -19 -1.4988 0.7008
-7 -10 -18 3.1109 -4.9059
-7 -10 -17 9.6770 0.0063
-7 -10 -16 -12.1102 11.1858
-7 -10 -15 -4.5160 -2.8278
-7 -10 -14 12.2512 2.0222
-7 -10 -13 -13.2671 8.8631
-7 -10 -12 -2.1840 -2.0796
-7 -10 -11 14.8587 7.4750
-7 -10 -10 -3.2879 2.9053
-7 -10 -9 3.3309 0.3547
-7 -10 -8 24.8946 -14.2765
-7 -10 -7 -3.1100 16.2784
-7 -10 -6 0.2120 7.1447
-7 -10 -5 -0.8082 -10.8053
-7 -10 -4 -5.7006 3.8509
-7 -10 -3 -18.5174 6.1684
-7 -10 -2 -4.4697 -6.0540
-7 -10 -1 10.4913 24.1781
-7 -9 -19 -5.3444 6.5926
-7 -9 -18 8.2258 11.7877
-7 -9 -17 -1.1372 -14.7374
-7 -9 -16 0.4391 1.8671
-7 -9 -15 4.7068 8.1346
-7 -9 -14 -0.6977 -20.2696
-7 -9 -13 3.3286 5.2333
-7 -9 -12 7.8375 13.3857
-7 -9 -11 -1.8062 -15.1180
-7 -9 -10 6.4271 -6.1960
-7 -9 -9 -8.4787 12.8919
-7 -9 -8 3.7135 -10.0277
-7 -9 -7 -10.5050 -22.6953
-7 -9 -6 0.2953 33.8185
-7 -9 -5 0.3058 -13.6629
-7 -9 -4 5.2705 -22.8717
-7 -9 -3 -4.1479 27.4017
-7 -9 -2 9.7805 -18.9207
-7 -9 -1 -8.3290 5.6592
-7 -8 -20 -2.9615 -4.9808
-7 -8 -19 -3.0609 1.9606
-7 -8 -18 2.3580 0.9364
-7 -8 -17 -9.5906 -10.0532
-7 -8 -16 -1.4368 8.1210
-7 -8 -15 9.4893 0.4560
-7 -8 -14 -7.6314 -22.2843
-7 -8 -13 8.2567 -2.2864
-7 -8 -12 13.3583 1.6620
-7 -8 -11 -12.1920 -0.4053
-7 -8 -10 -21.3285 19.0873
-7 -8 -9 -12.0860 5.9270
-7 -8 -8 4.7217 -7.3266
-7 -8 -7 -7.7894 -25.9181
-7 -8 -6 8.7356 12.3784
-7 -8 -5 28.2943 3.8182
-7 -8 -4 -37.5101 -7.5066
-7 -8 -3 40.0849 3.8357
-7 -8 -2 40.7505 -7.3026
-7 -8 -1 -34.1431 -20.7175
-7 -7 -20 -5.1439 5.0551
-7 -7 -19 0.2228 -4.9756
-7 -7 -18 7.1949 -13.4489
-7 -7 -17 -1.3264 13.9095
-7 -7 -16 -13.4993 -1.0654
-7 -7 -15 -0.9514 -10.8483
-7 -7 -14 -11.7506 13.6710
-7 -7 -13 5.5095 0.3847
-7 -7 -12 33.6893 -2.0092
-7 -7 -11 -0.5954 21.1629
-7 -7 -10 -23.4669 1.5852
-7 -7 -9 -2.0075 -18.8139
-7 -7 -8 -7.3375 -0.1305
-7 -7 -7 14.4627 5.8086
-7 -7 -6 13.7877 -14.6681
-7 -7 -5 7.7844 -6.4982
-7 -7 -4 -37.6577 0.1832
-7 -7 -3 7.3265 0.5781
-7 -7 -2 33.0934 1.5761
-7 -7 -1 11.5205 24.8671
-7 -6 -21 -3.4484 -3.0780
-7 -6 -20 -1.8645 1.1203
-7 -6 -19 10.2137 -7.2467
-7 -6 -18 -7.4986 2.0451
-7 -6 -17 12.1369 13.7106
-7 -6 -16 12.9684 7.5327
-7 -6 -15 -18.3676 -8.0738
-7 -6 -14 6.8920 -11.4715
-7 -6 -13 -5.2824 -0.8202
-7 -6 -12 -21.0243 6.8413
-7 -6 -11 13.3358 4.0509
-7 -6 -10 31.8494 6.2777
-7 -6 -9 1.4451 -18.1631
-7 -6 -8 -18.6644 -20.1026
-7 -6 -7 6.9341 28.6858
-7 -6 -6 -29.9336 10.4996
-7 -6 -5 -17.3279 -1.8593
-7 -6 -4 54.5251 -11.5432
-7 -6 -3 -41.6699 -11.5996
-7 -6 -2 -32.3733 -21.6955
-7 -6 -1 25.9392 25.5099
-7 -5 -21 -1.4845 1.0019
-7 -5 -20 3.4888 -1.1352
-7 -5 -19 7.6995 -0.3100
-7 -5 -18 -2.1568 3.1674
-7 -5 -17 1.0635 -0.1078
-7 -5 -16 -3.4129 -1.7793
-7 -5 -15 -6.1374 21.4518
-7 -5 -14 7.7037 6.3248
-7 -5 -13 -4.3059 -26.3830
-7 -5 -12 -13.6280 -18.6165
-7 -5 -11 -4.3009 -15.9938
-7 -5 -10 -4.2584 3.8715
-7 -5 -9 20.9245 37.5646
-7 -5 -8 11.9845 44.9301
-7 -5 -7 -8.9287 -18.0357
-7 -5 -6 -8.4348 -28.9970
-7 -5 -5 -33.2596 31.3795
-7 -5 -4 4.9904 -12.0070
-7 -5 -3 4.7385 -7.2122
-7 -5 -2 -2.2883 28.4888
-7 -5 -1 -17.8724 -63.3264
-7 -4 -21 5.8213 1.1792
-7 -4 -20 3.6710 -0.1808
-7 -4 -19 -14.0029 7.8559
-7 -4 -18 8.5972 2.7495
-7 -4 -17 -0.6010 -6.4000
-7 -4 -16 -0.8816 -8.6544
-7 -4 -15 -1.8220 11.0989
-7 -4 -14 -15.3185 6.7204
-7 -4 -13 -3.9477 4.9592
-7 -4 -12 7.2635 2.3924
-7 -4 -11 28.9496 -19.4989
-7 -4 -10 12.0377 -12.1493
-7 -4 -9 -18.2577 20.4973
-7 -4 -8 3.0298 5.4667
-7 -4 -7 -8.5448 11.4356
-7 -4 -6 -7.0610 8.0617
-7 -4 -5 33.2562 -9.0624
-7 -4 -4 -12.1441 2.9852
-7 -4 -3 -13.2801 0.8834
-7 -4 -2 28.5696 15.6435
-7 -4 -1 11.0985 -4.9141
-7 -3 -21 6.5629 8.4462
-7 -3 -20 1.7666 -6.2859
-7 -3 -19 -12.1969 1.2467
-7 -3 -18 -3.4718 -2.0790
-7 -3 -17 2.1224 -12.6527
-7 -3 -16 8.2787 9.7329
-7 -3 -15 9.2975 -10.7316
-7 -3 -14 2.0811 5.2477
-7 -3 -13 -8.6421 5.1530
-7 -3 -12 0.8930 2.6115
-7 -3 -11 6.1466 16.4470
-7 -3 -10 5.1597 -21.6314
-7 -3 -9 -0.6638 -15.0085
-7 -3 -8 8.6953 -15.2139
-7 -3 -7 -5.7515 -12.9535
-7 -3 -6 10.7611 24.3864
-7 -3 -5 16.0113 -4.7460
-7 -3 -4 1.3567 0.2167
-7 -3 -3 6.8669 7.6237
-7 -3 -2 7.0812 -17.6982
-7 -3 -1 14.5406 14.7427
-7 -2 -22 0.1402 3.2168
-7 -2 -21 -2.6327 5.4074
-7 -2 -20 -2.6565 2.6355
-7 -2 -19 -4.8586 -6.8801
-7 -2 -18 -1.1327 -0.6943
-7 -2 -17 1.9688 -7.9325
-7 -2 -16 1.8167 -2.9107
-7 -2 -15 21.6508 2.0643
-7 -2 -14 8.8859 7.9637
-7 -2 -13 -4.6874 -11.9203
-7 -2 -12 -26.5279 -0.1186
-7 -2 -11 -31.0256 9.6867
-7 -2 -10 -10.1487 -11.0218
-7 -2 -9 12.2426 -5.7837
-7 -2 -8 16.3831 4.8434
-7 -2 -7 20.2350 -30.1879
-7 -2 -6 4.4657 -6.2906
-7 -2 -5 -17.3069 4.9422
-7 -2 -4 3.7546 1.4006
-7 -2 -3 -21.5626 0.8597
-7 -2 -2 -38.6807 1.0703
-7 -2 -1 10.9388 -14.4089
-7 -1 -22 -1.0428 -6.2499
-7 -1 -21 0.5197 -3.7681
-7 -1 -20 -2.2651 10.9448
-7 -1 -19 -1.7224 -2.2861
-7 -1 -18 -2.8156 4.2051
-7 -1 -17 9.6764 -8.9244
-7 -1 -16 -5.7402 -13.9068
-7 -1 -15 -8.7704 15.8690
-7 -1 -14 2.5934 1.0963
-7 -1 -13 -5.0232 28.6808
-7 -1 -12 -22.6734 -1.5825
-7 -1 -11 23.3705 -26.0143
-7 -1 -10 -0.6582 11.5305
-7 -1 -9 -32.0814 -10.9629
-7 -1 -8 -0.7524 8.4958
-7 -1 -7 1.8994 21.8406
-7 -1 -6 -21.6358 -28.6620
-7 -1 -5 35.3754 32.9162
-7 -1 -4 9.5139 18.4910
-7 -1 -3 -51.0988 -18.0070
-7 -1 -2 -31.4015 18.9288
-7 -1 -1 15.6050 -41.4659
-6 -19 -5 -7.0233 -1.2643
-6 -19 -4 0.9589 10.4786
-6 -19 -3 2.4552 0.4558
-6 -19 -2 0.2869 -9.0219
-6 -19 -1 13.8882 -2.7081
-6 -18 -9 1.1786 7.3775
-6 -18 -8 -6.5514 4.6237
-6 -18 -7 4.6680 1.4349
-6 -18 -6 13.4951 -2.4560
-6 -18 -5 -4.3853 -6.8500
-6 -18 -4 0.4783 -6.8394
-6 -18 -3 1.0513 3.4094
-6 -18 -2 -7.5121 7.3206
-6 -18 -1 8.0394 2.9759
-6 -17 -11 5.2291 3.9953
-6 -17 -10 3.6481 2.5008
-6 -17 -9 3.7764 -6.3481
-6 -17 -8 -2.6417 -3.3343
-6 -17 -7 -8.8960 3.2287
-6 -17 -6 1.4955 -8.3264
-6 -17 -5 12.1088 9.0055
-6 -17 -4 3.3707 7.4062
-6 -17 -3 -4.5826 -12.5547
-6 -17 -2 -1.3563 -3.7707
-6 -17 -1 -13.0960 9.8633
-6 -16 -13 -0.2986 -1.9247
-6 -16 -12 -2.3483 0.5380
-6 -16 -11 -3.2452 -2.4722
-6 -16 -10 4.5611 -1.4602
-6 -16 -9 -6.1241 -1.8556
-6 -16 -8 -4.2380 -4.6571
-6 -16 -7 3.6854 -6.6213
-6 -16 -6 -1.8083 5.8869
-6 -16 -5 -7.4513 13.3029
-6 -16 -4 -0.9741 4.6324
-6 -16 -3 -1.0305 1.9637
-6 -16 -2 -1.1771 -9.2760
-6 -16 -1 12.0740 -12.0715
-6 -15 -14 -0.5498 1.7660
-6 -15 -13 2.4229 -5.3469
-6 -15 -12 -2.0971 -1.2199
-6 -15 -11 -7.7923 0.7807
-6 -15 -10 -8.2909 6.2939
-6 -15 -9 -2.1699 6.3782
-6 -15 -8 14.8605 4.1078
-6 -15 -7 12.1270 -3.2770
-6 -15 -6 -0.8326 0.8868
-6 -15 -5 -9.6354 -6.8772
-6 -15 -4 -14.4145 4.6814
-6 -15 -3 -6.9213 -8.5529
-6 -15 -2 4.9168 -9.1491
-6 -15 -1 11.9548 2.2944
-6 -14 -15 0.4802 -11.1663
-6 -14 -14 -1.9043 1.8935
-6 -14 -13 1.9609 6.4398
-6 -14 -12 9.3975 4.2754
-6 -14 -11 14.0050 6.6632
-6 -14 -10 -2.4989 -6.1602
-6 -14 -9 0.1832 -3.3551
-6 -14 -8 -11.5785 -1.4459
-6 -14 -7 -5.0567 8.9240
-6 -14 -6 12.3471 9.6742
-6 -14 -5 2.5380 -8.7560
-6 -14 -4 -7.8601 -5.8250
-6 -14 -3 1.8218 -12.1380
-6 -14 -2 -12.8313 5.4917
-6 -14 -1 2.4934 17.1729
-6 -13 -16 0.5898 4.8880
-6 -13 -15 -0.7373 -0.9432
-6 -13 -14 9.1223 -10.2913
-6 -13 -13 9.3852 -0.9768
-6 -13 -12 -2.9688 -4.9068
-6 -13 -11 6.1719 4.4869
-6 -13 -10 0.9352 12.5706
-6 -13 -9 -5.6797 0.2692
-6 -13 -8 -5.4009 -17.4077
-6 -13 -7 -10.3385 -2.2585
-6 -13 -6 0.6000 -3.1743
-6 -13 -5 4.9947 17.1896
-6 -13 -4 10.2318 19.3281
-6 -13 -3 12.2887 6.5831
-6 -13 -2 0.4503 -20.9103
-6 -13 -1 4.4675 -2.2966
-6 -12 -17 -1.2116 -6.4559
-6 -12 -16 -5.8782 -5.4208
-6 -12 -15 0.8053 10.0317
-6 -12 -14 -12.5562 -6.8251
-6 -12 -13 2.7908 -9.1475
-6 -12 -12 8.4869 6.5862
-6 -12 -11 -12.7073 -0.2874
-6 -12 -10 -0.1987 -1.7174
-6 -12 -9 -7.5456 11.6484
-6 -12 -8 3.7566 1.5332
-6 -12 -7 17.6687 -21.0720
-6 -12 -6 16.5874 0.3524
-6 -12 -5 1.9295 0.8011
-6 -12 -4 -9.0260 -12.9022
-6 -12 -3 -17.2191 24.1348
-6 -12 -2 1.5862 7.5523
-6 -12 -1 -3.4597 -19.8243
-6 -11 -18 6.9775 0.7652
-6 -11 -17 1.1505 4.1099
-6 -11 -16 -10.4256 3.9217
-6 -11 -15 8.9918 -0.1134
-6 -11 -14 -5.2660 -0.5223
-6 -11 -13 -18.7956 6.6943
-6 -11 -12 5.0969 -4.2287
-6 -11 -11 1.1487 -1.2121
-6 -11 -10 -0.5532 -6.6223
-6 -11 -9 10.2259 -10.6459
-6 -11 -8 18.1405 3.6598
-6 -11 -7 -14.6409 -4.9028
-6 -11 -6 -19.2324 8.0082
-6 -11 -5 31.1273 -2.9268
-6 -11 -4 -14.8405 -6.8045
-6 -11 -3 -15.3832 -4.4043
-6 -11 -2 15.3422 4.8383
-6 -11 -1 -52.7992 -11.9460
-6 -10 -19 0.7651 6.7237
-6 -10 -18 -4.3220 -3.3458
-6 -10 -17 0.2286 -0.0952
-6 -10 -16 3.7596 9.4614
-6 -10 -15 4.5799 -6.0886
-6 -10 -14 12.4205 4.6812
-6 -10 -13 -13.9011 19.1215
-6 -10 -12 -8.4199 -17.7776
-6 -10 -11 3.7671 -24.3072
-6 -10 -10 -1.0919 1.4489
-6 -10 -9 7.4803 5.7036
-6 -10 -8 -2.7619 13.8674
-6 -10 -7 -22.5385 16.5957
-6 -10 -6 -18.1809 2.5985
-6 -10 -5 8.0981 -19.2333
-6 -10 -4 11.6075 4.0802
-6 -10 -3 9.5231 36.8658
-6 -10 -2 -1.2068 -11.9236
-6 -10 -1 -13.7616 -21.3386
-6 -9 -20 0.5416 6.3640
-6 -9 -19 6.2031 3.0303
-6 -9 -18 -9.9301 -0.7283
-6 -9 -17 -7.1839 -13.6488
-6 -9 -16 15.1159 -10.5747
-6 -9 -15 -1.6927 10.8240
-6 -9 -14 -4.7804 6.5893
-6 -9 -13 6.6346 3.7028
-6 -9 -12 -5.8705 14.8691
-6 -9 -11 -8.4241 -22.1907
-6 -9 -10 18.9247 8.7387
-6 -9 -9 8.5921 28.9478
-6 -9 -8 -34.7525 3.4094
-6 -9 -7 7.0503 0.0248
-6 -9 -6 20.6835 -14.0502
-6 -9 -5 -19.1632 -22.5578
-6 -9 -4 26.1913 0.3968
-6 -9 -3 6.9167 42.7924
-6 -9 -2 -22.3036 26.3716
-6 -9 -1 22.9826 -5.1584
-6 -8 -20 -4.7029 3.4910
-6 -8 -19 -4.4879 -4.7754
-6 -8 -18 -1.5140 1.8012
-6 -8 -17 -3.4812 -0.1734
-6 -8 -16 2.7574 -10.9701
-6 -8 -15 19.3127 3.0761
-6 -8 -14 -3.3103 -0.4492
-6 -8 -13 -10.2339 -10.5794
-6 -8 -12 10.4599 12.8616
-6 -8 -11 11.4886 18.7568
-6 -8 -10 -2.9510 13.5737
-6 -8 -9 18.5345 -21.9676
-6 -8 -8 -9.9002 -18.8484
-6 -8 -7 -25.8529 -3.5245
-6 -8 -6 17.3695 -34.7137
-6 -8 -5 32.2190 31.2382
-6 -8 -4 5.8131 11.0915
-6 -8 -3 10.2959 -55.3530
-6 -8 -2 -0.9956 38.3959
-6 -8 -1 -36.8492 28.2979
-6 -7 -21 -2.6481 -2.4684
-6 -7 -20 0.6645 -6.3411
-6 -7 -19 -6.2640 9.9875
-6 -7 -18 10.5365 -9.6163
-6 -7 -17 7.0750 -4.3103
-6 -7 -16 -17.7811 11.8239
-6 -7 -15 5.5372 -7.0587
-6 -7 -14 11.2199 -10.5925
-6 -7 -13 0.5812 7.3972
-6 -7 -12 11.0438 -22.8577
-6 -7 -11 -4.6908 -11.9408
-6 -7 -10 -31.4272 6.3501
-6 -7 -9 -7.7137 17.9219
-6 -7 -8 10.9653 -14.7925
-6 -7 -7 16.3362 -1.5799
-6 -7 -6 -3.6648 -3.2696
-6 -7 -5 -10.1170 -28.1129
-6 -7 -4 4.8552 14.7784
-6 -7 -3 -3.8723 21.6919
-6 -7 -2 14.9670 -39.7191
-6 -7 -1 15.4433 -15.7611
-6 -6 -21 4.6930 -1.9189
-6 -6 -20 -3.3843 -9.4785
-6 -6 -19 1.0480 1.3067
-6 -6 -18 7.8040 7.0889
-6 -6 -17 -12.7713 -1.4380
-6 -6 -16 1.1535 9.9863
-6 -6 -15 -4.9363 -3.4882
-6 -6 -14 -19.4662 -5.4157
-6 -6 -13 -7.5448 11.2737
-6 -6 -12 6.6141 -5.3355
-6 -6 -11 0.4506 -9.6948
-6 -6 -10 13.5117 -8.1242
-6 -6 -9 1.2787 15.8179
-6 -6 -8 -7.9781 8.1898
-6 -6 -7 -31.2116 11.8159
-6 -6 -6 7.2051 23.9101
-6 -6 -5 -6.2807 -27.3098
-6 -6 -4 -14.3568 -6.1609
-6 -6 -3 5.2029 17.6858
-6 -6 -2 -10.9810 -25.6744
-6 -6 -1 -5.6441 -4.8180
-6 -5 -21 -0.5450 1.3724
-6 -5 -20 7.3546 2.7056
-6 -5 -19 6.3176 5.2461
-6 -5 -18 -8.3803 5.9074
-6 -5 -17 -0.6212 -0.0826
-6 -5 -16 6.5990 3.7292
-6 -5 -15 -11.7337 3.2075
-6 -5 -14 -12.2724 9.4363
-6 -5 -13 -0.9432 -3.1363
-6 -5 -12 -9.4950 -1.2617
-6 -5 -11 21.5284 -7.9812
-6 -5 -10 34.8409 10.2514
-6 -5 -9 0.7208 4.1701
-6 -5 -8 -2.1064 21.5984
-6 -5 -7 -28.4818 0.8125
-6 -5 -6 -4.6299 1.2401
-6 -5 -5 -8.4501 -5.1006
-6 -5 -4 -12.3656 0.9286
-6 -5 -3 18.6604 -2.8249
-6 -5 -2 -9.6474 19.6426
-6 -5 -1 14.6483 -2.0504
-6 -4 -22 2.7635 -2.9502
-6 -4 -21 1.1179 -0.2091
-6 -4 -20 9.6573 13.7392
-6 -4 -19 -4.7387 -11.0614
-6 -4 -18 -7.5090 1.1807
-6 -4 -17 8.1780 10.5008
-6 -4 -16 3.0569 -14.4004
-6 -4 -15 11.6435 14.1508
-6 -4 -14 11.8714 -0.7922
-6 -4 -13 -2.5142 -32.8102
-6 -4 -12 -13.5082 3.8991
-6 -4 -11 -1.0614 11.6108
-6 -4 -10 4.2324 -3.3332
-6 -4 -9 9.9043 7.1625
-6 -4 -8 6.0746 6.5429
-6 -4 -7 23.2465 -7.0253
-6 -4 -6 -30.1076 -2.6019
-6 -4 -5 13.7358 12.7355
-6 -4 -4 16.1917 -14.6727
-6 -4 -3 -5.4498 -42.7639
-6 -4 -2 7.6544 27.9557
-6 -4 -1 -3.7031 29.8059
-6 -3 -22 6.3725 -4.8212
-6 -3 -21 -10.0193 3.2608
-6 -3 -20 -4.8424 -1.7409
-6 -3 -19 1.7334 -6.4630
-6 -3 -18 -5.1496 2.6717
-6 -3 -17 18.4181 -10.6402
-6 -3 -16 -10.7529 -13.5689
-6 -3 -15 -7.7187 6.5702
-6 -3 -14 30.2438 3.8223
-6 -3 -13 -6.6344 10.9365
-6 -3 -12 1.2639 5.4348
-6 -3 -11 -9.4768 -2.7318
-6 -3 -10 -39.5042 -35.7464
-6 -3 -9 1.4174 -10.9467
-6 -3 -8 33.1848 8.2502
-6 -3 -7 27.6030 3.9225
-6 -3 -6 -15.9981 2.9536
-6 -3 -5 -8.1355 20.5097
-6 -3 -4 2.4397 -37.7833
-6 -3 -3 -8.7414 12.8317
-6 -3 -2 27.0822 21.6436
-6 -3 -1 11.6697 5.5109
-6 -2 -22 -9.9017 5.0535
-6 -2 -21 -1.3232 2.2785
-6 -2 -20 1.0314 -7.7822
-6 -2 -19 -3.7015 -4.7719
-6 -2 -18 2.3220 0.8314
-6 -2 -17 1.7251 1.0570
-6 -2 -16 -12.0179 -11.3829
-6 -2 -15 -2.5336 -1.2042
-6 -2 -14 12.2061 7.7330
-6 -2 -13 -6.2216 26.1861
-6 -2 -12 -14.2691 29.4496
-6 -2 -11 -4.8472 -14.4847
-6 -2 -10 -6.4332 -33.9179
-6 -2 -9 -1.6523 -24.2425
-6 -2 -8 36.2465 -12.6416
-6 -2 -7 -6.9979 11.4266
-6 -2 -6 -13.4047 44.7026
-6 -2 -5 -16.0046 1.4083
-6 -2 -4 7.2637 -9.3162
-6 -2 -3 2.7012 29.0304
-6 -2 -2 36.4078 -31.1253
-6 -2 -1 16.1296 -25.2236
-6 -1 -22 -11.2145 1.2110
-6 -1 -21 8.0452 1.6568
-6 -1 -20 1.4398 -10.6669
-6 -1 -19 -2.8797 2.8798
-6 -1 -18 -0.0650 17.5834
-6 -1 -17 -16.3446 7.2095
-6 -1 -16 10.1724 -4.6034
-6 -1 -15 9.1960 1.2189
-6 -1 -14 6.9644 -13.6746
-6 -1 -13 6.1962 -8.5459
-6 -1 -12 -30.8367 30.1279
-6 -1 -11 -1.8557 -3.2515
-6 -1 -10 5.7419 -12.8973
-6 -1 -9 -3.2020 4.9401
-6 -1 -8 24.1192 -1.6906
-6 -1 -7 -8.6349 1.3121
-6 -1 -6 11.0441 23.9816
-6 -1 -5 16.3299 -21.6223
-6 -1 -4 -47.6080 -24.5756
-6 -1 -3 -3.1832 -37.6008
-6 -1 -2 -12.8801 16.8105
-6 -1 -1 -25.1191 1.5127
-5 -19 -6 -1.0144 4.3969
-5 -19 -5 -1.2002 1.2457
-5 -19 -4 7.6722 -10.1058
-5 -19 -3 4.2608 -2.3248
-5 -19 -2 -7.6134 -0.8012
-5 -19 -1 -3.8222 2.3639
-5 -18 -9 5.2183 -2.1522
-5 -18 -8 1.4819 -0.5058
-5 -18 -7 -4.4744 -4.4029
-5 -18 -6 -10.0436 -1.8994
-5 -18 -5 -4.8946 -0.2015
-5 -18 -4 11.4756 2.8773
-5 -18 -3 9.4123 6.5237
-5 -18 -2 -1.3281 3.3066
-5 -18 -1 -6.0528 1.0147
-5 -17 -11 -4.9475 -7.5894
-5 -17 -10 -4.8147 -1.4055
-5 -17 -9 0.7155 1.1766
-5 -17 -8 5.8986 13.6795
-5 -17 -7 2.8587 1.0011
-5 -17 -6 3.9693 -14.1585
-5 -17 -5 0.8447 -5.9701
-5 -17 -4 -5.9886 7.8992
-5 -17 -3 5.2186 1.3825
-5 -17 -2 1.3679 16.5277
-5 -17 -1 -1.0195 0.7239
-5 -16 -13 -2.9443 3.2993
-5 -16 -12 -5.3221 4.6811
-5 -16 -11 -3.2910 -2.6173
-5 -16 -10 7.4302 -2.8447
-5 -16 -9 0.6893 -11.5264
-5 -16 -8 -4.3333 3.1666
-5 -16 -7 2.9058 18.8224
-5 -16 -6 0.1263 1.5597
-5 -16 -5 5.5540 -9.8192
-5 -16 -4 11.0548 -7.6918
-5 -16 -3 -13.0063 -10.7691
-5 -16 -2 -22.6499 -1.5762
-5 -16 -1 8.8399 11.2049
-5 -15 -15 1.7123 2.1426
-5 -15 -14 3.6473 3.7649
-5 -15 -13 2.4117 -0.1267
-5 -15 -12 -3.4022 3.6390
-5 -15 -11 -9.2625 5.5647
-5 -15 -10 9.5034 -4.3989
-5 -15 -9 11.8695 -3.8344
-5 -15 -8 -8.7826 -3.0131
-5 -15 -7 -3.6607 -7.5475
-5 -15 -6 -21.9085 2.5549
-5 -15 -5 -20.5073 17.0850
-5 -15 -4 14.4977 -3.0527
-5 -15 -3 11.9873 0.9668
-5 -15 -2 7.9492 -3.7168
-5 -15 -1 -5.4293 -20.5942
-5 -14 -16 -6.1709 -4.4303
-5 -14 -15 2.0336 -3.4773
-5 -14 -14 11.4808 -4.0134
-5 -14 -13 2.7825 8.0000
-5 -14 -12 1.4911 -5.5975
-5 -14 -11 4.4940 3.9530
-5 -14 -10 -13.3401 4.9967
-5 -14 -9 -11.7640 2.8413
-5 -14 -8 6.4467 12.6071
-5 -14 -7 4.6036 1.6699
-5 -14 -6 -4.0105 -12.3262
-5 -14 -5 14.6695 -1.0002
-5 -14 -4 -9.9094 -3.6352
-5 -14 -3 -22.1722 3.9520
-5 -14 -2 21.9163 7.8522
-5 -14 -1 7.2685 2.9943
-5 -13 -17 -5.8659 -4.1652
-5 -13 -16 4.8884 -2.4401
-5 -13 -15 -2.2345 -1.2196
-5 -13 -14 0.0832 -14.7382
-5 -13 -13 8.4573 1.7123
-5 -13 -12 5.9398 11.5489
-5 -13 -11 -3.3311 1.9889
-5 -13 -10 -3.5630 9.5381
-5 -13 -9 -4.8472 8.5336
-5 -13 -8 5.8763 -13.0806
-5 -13 -7 11.4155 -12.9662
-5 -13 -6 21.8273 10.9204
-5 -13 -5 2.0135 5.4306
-5 -13 -4 -8.4771 -6.7677
-5 -13 -3 -1.8298 6.9170
-5 -13 -2 -13.6091 -7.1449
-5 -13 -1 5.8189 -13.8560
-5 -12 -18 1.7018 -0.3658
-5 -12 -17 -8.2468 8.1872
-5 -12 -16 -1.0133 3.0206
-5 -12 -15 0.3706 -5.1785
-5 -12 -14 -5.3070 2.9594
-5 -12 -13 1.4854 -10.1478
-5 -12 -12 19.4901 11.5048
-5 -12 -11 -4.9312 -0.0841
-5 -12 -10 -4.5098 -8.5026
-5 -12 -9 8.7415 -22.8288
-5 -12 -8 -6.8800 -19.0615
-5 -12 -7 -4.6070 13.3102
-5 -12 -6 19.5735 16.9731
-5 -12 -5 -11.5141 8.2628
-5 -12 -4 -8.0109 19.5503
-5 -12 -3 6.2249 -21.2469
-5 -12 -2 -0.9673 -9.0439
-5 -12 -1 0.9306 -4.9796
-5 -11 -19 2.6675 3.5304
-5 -11 -18 7.0729 -2.5184
-5 -11 -17 2.6641 8.0603
-5 -11 -16 -10.7439 4.2434
-5 -11 -15 -2.9234 -8.0730
-5 -11 -14 1.7525 4.4022
-5 -11 -13 -5.4007 -0.1189
-5 -11 -12 -6.2333 -10.8058
-5 -11 -11 -5.2489 -10.5732
-5 -11 -10 -12.3736 5.9988
-5 -11 -9 12.9344 -10.8857
-5 -11 -8 3.2012 -0.0452
-5 -11 -7 5.5600 31.0814
-5 -11 -6 -9.0678 -11.9455
-5 -11 -5 -16.2434 -15.5951
-5 -11 -4 -5.5621 23.2826
-5 -11 -3 -2.4452 -17.3464
-5 -11 -2 -0.6050 5.1323
-5 -11 -1 3.8177 17.1613
-5 -10 -19 3.1436 7.2733
-5 -10 -18 -1.6453 0.2651
-5 -10 -17 -2.0349 -11.6880
-5 -10 -16 2.6360 12.6171
-5 -10 -15 -2.9497 1.5901
-5 -10 -14 -2.9434 -14.0327
-5 -10 -13 -4.4830 20.0148
-5 -10 -12 -16.4031 -2.9780
-5 -10 -11 1.9114 -2.9776
-5 -10 -10 6.4847 11.1475
-5 -10 -9 17.3372 13.1160
-5 -10 -8 -3.6735 -3.5644
-5 -10 -7 -4.7778 -2.6936
-5 -10 -6 -3.1375 -1.2688
-5 -10 -5 -8.0930 -8.8189
-5 -10 -4 13.9955 -17.4098
-5 -10 -3 18.4213 23.0687
-5 -10 -2 -33.9126 -10.2506
-5 -10 -1 -5.4072 13.7456
-5 -9 -20 -11.0272 -0.2850
-5 -9 -19 -5.0380 3.8585
-5 -9 -18 7.8208 -2.1648
-5 -9 -17 -9.3477 -2.4380
-5 -9 -16 5.8349 2.1723
-5 -9 -15 17.8975 1.1536
-5 -9 -14 -12.6361 1.2661
-5 -9 -13 11.9288 3.3521
-5 -9 -12 27.7440 4.6543
-5 -9 -11 -11.2727 2.7867
-5 -9 -10 -10.9411 -7.8465
-5 -9 -9 -9.4660 11.4933
-5 -9 -8 -1.2825 -11.4233
-5 -9 -7 -11.5820 -11.1463
-5 -9 -6 27.9250 13.0651
-5 -9 -5 14.2612 -9.9389
-5 -9 -4 -20.3262 -3.8593
-5 -9 -3 24.4842 22.3501
-5 -9 -2 24.2838 -11.0211
-5 -9 -1 -33.0252 13.1875
-5 -8 -21 -1.3582 1.2525
-5 -8 -20 -4.8928 -2.8433
-5 -8 -19 6.2666 -6.6062
-5 -8 -18 3.8019 -7.1195
-5 -8 -17 -7.1281 6.6469
-5 -8 -16 3.4667 2.2939
-5 -8 -15 0.5585 -11.2331
-5 -8 -14 -0.2052 -9.7315
-5 -8 -13 22.2386 -3.4274
-5 -8 -12 9.9784 16.7909
-5 -8 -11 -16.3387 9.3847
-5 -8 -10 -18.0227 7.0990
-5 -8 -9 -19.1168 -18.1141
-5 -8 -8 18.5548 -28.8545
-5 -8 -7 -2.4329 7.2015
-5 -8 -6 15.2940 23.9812
-5 -8 -5 5.0936 -9.7887
-5 -8 -4 -35.2057 18.0677
-5 -8 -3 21.9483 -10.0022
-5 -8 -2 41.6190 -5.4557
-5 -8 -1 -31.1156 16.2511
-5 -7 -21 -9.8737 -6.1221
-5 -7 -20 5.7561 -0.3336
-5 -7 -19 6.2595 -2.3124
-5 -7 -18 4.9700 -2.7213
-5 -7 -17 8.1727 17.4357
-5 -7 -16 -21.0170 -4.2110
-5 -7 -15 -19.4619 -25.9615
-5 -7 -14 15.2462 2.2500
-5 -7 -13 -5.1834 10.2965
-5 -7 -12 6.1105 5.3564
-5 -7 -11 9.2349 23.2457
-5 -7 -10 -22.3853 -5.8180
-5 -7 -9 14.6393 -33.1509
-5 -7 -8 8.2518 6.8230
-5 -7 -7 8.9473 13.1765
-5 -7 -6 -3.3048 12.1134
-5 -7 -5 -16.5180 -12.6984
-5 -7 -4 -12.8398 -9.2761
-5 -7 -3 -8.8892 -8.9080
-5 -7 -2 11.5248 1.0734
-5 -7 -1 34.9129 33.0665
-5 -6 -21 -3.1105 -3.0975
-5 -6 -20 6.3920 -0.9670
-5 -6 -19 10.5490 -1.8845
-5 -6 -18 -6.3657 16.7285
-5 -6 -17 -10.2533 3.3677
-5 -6 -16 0.0470 9.3892
-5 -6 -15 -3.4404 8.0976
-5 -6 -14 10.0251 -26.4238
-5 -6 -13 5.2755 -10.8949
-5 -6 -12 -16.1382 -0.1967
-5 -6 -11 -10.8236 -15.5730
-5 -6 -10 27.2826 13.3692
-5 -6 -9 17.5653 22.6327
-5 -6 -8 -7.7862 -6.7936
-5 -6 -7 9.0847 1.3293
-5 -6 -6 -38.7593 3.8196
-5 -6 -5 -14.0050 5.1355
-5 -6 -4 36.4017 -32.1589
-5 -6 -3 14.3234 -7.4888
-5 -6 -2 -20.5631 -27.5305
-5 -6 -1 10.2293 -24.1924
-5 -5 -22 3.4187 -3.2334
-5 -5 -21 6.5441 -3.8883
-5 -5 -20 -5.4240 1.5560
-5 -5 -19 -0.3160 10.8264
-5 -5 -18 3.6003 3.6920
-5 -5 -17 -5.9347 -10.5297
-5 -5 -16 -3.8797 -2.2819
-5 -5 -15 6.0269 6.3560
-5 -5 -14 -24.6290 8.1067
-5 -5 -13 5.0764 -1.1853
-5 -5 -12 23.1080 -19.5533
-5 -5 -11 2.7162 -27.8028
-5 -5 -10 -1.6472 5.4445
-5 -5 -9 -9.5038 18.0752
-5 -5 -8 -8.6245 36.1189
-5 -5 -7 -19.3568 6.0081
-5 -5 -6 13.8218 -36.4778
-5 -5 -5 3.7478 -3.7680
-5 -5 -4 -26.5920 -17.2284
-5 -5 -3 11.1317 5.0947
-5 -5 -2 16.6402 15.9978
-5 -5 -1 -34.3857 -12.1388
-5 -4 -22 1.7533 5.3625
-5 -4 -21 10.4135 4.3970
-5 -4 -20 -5.4587 0.3456
-5 -4 -19 -13.3682 4.8610
-5 -4 -18 4.6892 -15.3306
-5 -4 -17 2.1851 0.5698
-5 -4 -16 7.8966 1.4853
-5 -4 -15 7.2922 -5.2804
-5 -4 -14 -23.8174 11.7925
-5 -4 -13 -11.2776 8.9327
-5 -4 -12 3.2747 0.1783
-5 -4 -11 10.4742 18.4229
-5 -4 -10 12.6472 -7.6550
-5 -4 -9 5.3792 -6.6057
-5 -4 -8 -16.7078 -10.1837
-5 -4 -7 -14.4759 -1.8802
-5 -4 -6 -7.3631 16.6031
-5 -4 -5 4.5656 -14.5405
-5 -4 -4 0.0373 38.0488
-5 -4 -3 -7.2551 22.6777
-5 -4 -2 19.7861 11.8252
-5 -4 -1 -15.9915 41.0367
-5 -3 -22 -0.2033 6.1556
-5 -3 -21 -0.3932 12.6300
-5 -3 -20 -2.5631 -7.7706
-5 -3 -19 -2.8294 -5.1238
-5 -3 -18 0.2868 -9.5779
-5 -3 -17 8.4639 -4.9552
-5 -3 -16 11.9632 16.4225
-5 -3 -15 -2.3201 6.4875
-5 -3 -14 24.9358 3.1112
-5 -3 -13 -14.4701 1.3628
-5 -3 -12 -26.7717 -4.5504
-5 -3 -11 5.8378 12.7192
-5 -3 -10 -2.5545 -7.0415
-5 -3 -9 0.7852 -5.6266
-5 -3 -8 29.5526 -6.6948
-5 -3 -7 8.1692 1.5331
-5 -3 -6 2.9795 16.6932
-5 -3 -5 23.1249 17.0160
-5 -3 -4 14.1886 -2.8073
-5 -3 -3 -9.8835 -1.0247
-5 -3 -2 -18.6001 -3.4067
-5 -3 -1 16.7184 -9.0389
-5 -2 -22 -1.8062 -3.8383
-5 -2 -21 -9.4222 -0.5966
-5 -2 -20 -3.0927 -0.2762
-5 -2 -19 -5.5234 -7.7736
-5 -2 -18 13.8668 8.5615
-5 -2 -17 8.9217 -7.8584
-5 -2 -16 -4.0530 -5.9872
-5 -2 -15 6.9720 22.4435
-5 -2 -14 9.3929 -1.3743
-5 -2 -13 -6.4022 -21.0920
-5 -2 -12 -0.7088 9.7345
-5 -2 -11 -3.9713 -27.2894
-5 -2 -10 -13.6872 -11.1318
-5 -2 -9 -6.5439 17.9712
-5 -2 -8 27.5306 8.3050
-5 -2 -7 25.4279 -36.1523
-5 -2 -6 15.1117 6.9218
-5 -2 -5 2.3292 28.7520
-5 -2 -4 -12.5540 -50.7069
-5 -2 -3 -52.1191 -4.9868
-5 -2 -2 6.8562 -15.5124
-5 -2 -1 48.0083 -70.0603
-5 -1 -23 5.1557 6.4585
-5 -1 -22 -1.8349 -0.9548
-5 -1 -21 1.6405 -5.7747
-5 -1 -20 6.7924 3.9915
-5 -1 -19 -9.1997 -5.2185
-5 -1 -18 -3.3140 6.3185
-5 -1 -17 8.9579 -12.3178
-5 -1 -16 -15.6000 -0.9725
-5 -1 -15 -4.0815 8.5512
-5 -1 -14 -13.1822 -22.5563
-5 -1 -13 -5.1178 3.2186
-5 -1 -12 13.3686 19.7577
-5 -1 -11 26.1122 -17.5391
-5 -1 -10 -5.2743 13.7390
-5 -1 -9 -28.9927 -3.4743
-5 -1 -8 -12.5852 -39.3859
-5 -1 -7 0.0014 -17.1972
-5 -1 -6 -33.8386 21.7351
-5 -1 -5 22.1263 35.3206
-5 -1 -4 -33.4672 13.8546
-5 -1 -3 -51.3152 -21.9867
-5 -1 -2 81.2840 -24.6229
-5 -1 -1 24.4434 -69.8463
-4 -20 -2 5.9694 -3.0510
-4 -20 -1 6.8117 5.4968
-4 -19 -7 8.2604 -1.2844
-4 -19 -6 1.7022 -1.2515
-4 -19 -5 -11.4188 -0.7170
-4 -19 -4 -3.9188 -4.3043
-4 -19 -3 1.6502 6.4528
-4 -19 -2 -2.0725 8.9834
-4 -19 -1 16.8595 -2.1657
-4 -18 -10 -0.8140 -1.5052
-4 -18 -9 0.6225 -4.7386
-4 -18 -8 -12.9129 6.3933
-4 -18 -7 -0.3587 3.5511
-4 -18 -6 9.1559 2.4401
-4 -18 -5 8.7509 5.7875
-4 -18 -4 2.4038 -9.1652
-4 -18 -3 -5.6960 -13.6000
-4 -18 -2 -6.7742 8.0337
-4 -18 -1 -9.6479 7.4257
-4 -17 -12 -7.1069 -3.5484
-4 -17 -11 4.6591 1.7733
-4 -17 -10 3.7757 8.4641
-4 -17 -9 0.5378 -5.5526
-4 -17 -8 11.1956 -11.6108
-4 -17 -7 2.0760 -3.5033
-4 -17 -6 -15.5785 -4.9650
-4 -17 -5 0.8390 8.6983
-4 -17 -4 5.1887 12.7012
-4 -17 -3 -2.0873 -2.3331
-4 -17 -2 13.5121 -7.3105
-4 -17 -1 1.0460 -4.1972
-4 -16 -14 -3.9869 -0.0929
-4 -16 -13 0.2830 -3.6115
-4 -16 -12 5.0286 0.5325
-4 -16 -11 -1.6584 -0.8942
-4 -16 -10 -1.0452 -12.9068
-4 -16 -9 -0.4922 3.9871
-4 -16 -8 3.8596 1.0052
-4 -16 -7 0.9437 -4.2466
-4 -16 -6 5.4447 5.2056
-4 -16 -5 -10.8305 3.0023
-4 -16 -4 -7.9595 -12.2151
-4 -16 -3 6.9635 2.1051
-4 -16 -2 4.5222 5.5029
-4 -16 -1 11.7636 -1.7334
-4 -15 -15 -2.0626 -5.4283
-4 -15 -14 3.6921 1.5336
-4 -15 -13 3.5577 0.7820
-4 -15 -12 1.4622 -3.4127
-4 -15 -11 -3.9576 0.7638
-4 -15 -10 -11.1908 2.9202
-4 -15 -9 -12.0712 7.6270
-4 -15 -8 3.1382 3.2906
-4 -15 -7 9.5798 11.6679
-4 -15 -6 6.6114 2.9054
-4 -15 -5 -6.8215 -23.5089
-4 -15 -4 -1.9696 -0.9745
-4 -15 -3 -6.0338 -10.7458
-4 -15 -2 -0.4748 -6.9966
-4 -15 -1 12.5788 17.3606
-4 -14 -16 2.1938 -0.9533
-4 -14 -15 -3.3614 -6.4652
-4 -14 -14 0.8336 -1.5113
-4 -14 -13 6.5000 2.6128
-4 -14 -12 -1.1336 15.5140
-4 -14 -11 4.4204 19.7842
-4 -14 -10 4.0695 7.2211
-4 -14 -9 -1.3726 -21.0847
-4 -14 -8 -15.7961 -11.6188
-4 -14 -7 -6.3101 -4.1051
-4 -14 -6 5.5301 8.3595
-4 -14 -5 -5.9799 19.1393
-4 -14 -4 0.8208 3.7969
-4 -14 -3 10.7834 -27.7298
-4 -14 -2 -11.5028 2.8300
-4 -14 -1 8.1894 8.6685
-4 -13 -17 -4.8302 -3.0091
-4 -13 -16 -1.6639 -4.0603
-4 -13 -15 -2.2009 5.2677
-4 -13 -14 6.9302 -5.0834
-4 -13 -13 18.9304 -3.3737
-4 -13 -12 1.8056 3.3668
-4 -13 -11 -5.6034 7.4260
-4 -13 -10 -9.1805 2.9081
-4 -13 -9 -8.9203 -10.2163
-4 -13 -8 12.4023 -5.7308
-4 -13 -7 19.5419 -7.4077
-4 -13 -6 -9.0211 -0.6080
-4 -13 -5 -8.1177 26.3688
-4 -13 -4 -12.7440 6.3867
-4 -13 -3 -1.1239 2.3476
-4 -13 -2 7.6906 -7.5526
-4 -13 -1 16.4784 -9.0495
-4 -12 -18 6.6810 3.7118
-4 -12 -17 2.2638 -0.2946
-4 -12 -16 -8.7066 -1.2244
-4 -12 -15 8.5549 -11.7542
-4 -12 -14 -3.3561 -1.8238
-4 -12 -13 -7.8425 -4.4573
-4 -12 -12 6.6117 -2.2668
-4 -12 -11 -7.8292 1.6089
-4 -12 -10 -5.8898 -16.4175
-4 -12 -9 3.8035 10.9713
-4 -12 -8 19.4942 10.8988
-4 -12 -7 12.1267 2.9199
-4 -12 -6 0.1779 15.5512
-4 -12 -5 12.9314 -7.3194
-4 -12 -4 -17.4255 -20.9926
-4 -12 -3 -21.0711 17.6448
-4 -12 -2 10.4658 -5.8553
-4 -12 -1 -26.4032 1.3781
-4 -11 -19 0.3214 6.0128
-4 -11 -18 -4.9655 -4.1119
-4 -11 -17 -4.6308 0.9365
-4 -11 -16 -1.8618 9.2862
-4 -11 -15 4.5423 -1.7685
-4 -11 -14 -8.4978 1.5693
-4 -11 -13 -9.8141 9.3723
-4 -11 -12 -5.6237 -10.1988
-4 -11 -11 11.1255 -21.0707
-4 -11 -10 15.6688 0.5210
-4 -11 -9 10.3463 13.4038
-4 -11 -8 2.3985 -1.7875
-4 -11 -7 -29.0799 3.2145
-4 -11 -6 -3.8280 5.2246
-4 -11 -5 22.6268 -28.2705
-4 -11 -4 5.2478 10.0527
-4 -11 -3 1.9043 28.1694
-4 -11 -2 6.6637 -22.0732
-4 -11 -1 -38.1274 -22.3970
-4 -10 -20 -1.7302 7.1212
-4 -10 -19 -0.2693 2.5897
-4 -10 -18 -8.1510 -6.1579
-4 -10 -17 -3.3927 -6.9268
-4 -10 -16 16.5105 5.7883
-4 -10 -15 -4.3379 12.6914
-4 -10 -14 -3.1201 2.1112
-4 -10 -13 -8.3723 10.0540
-4 -10 -12 -3.9816 -23.8556
-4 -10 -11 15.9087 -15.6123
-4 -10 -10 8.4067 20.0904
-4 -10 -9 -0.3550 2.2462
-4 -10 -8 -34.2692 -2.9410
-4 -10 -7 -30.1315 -10.0261
-4 -10 -6 23.8361 -25.5908
-4 -10 -5 9.0886 -7.8754
-4 -10 -4 12.5325 23.5230
-4 -10 -3 13.2653 25.3411
-4 -10 -2 -30.2969 -2.8043
-4 -10 -1 -7.5328 -32.9266
-4 -9 -20 -5.2143 5.2475
-4 -9 -19 -4.8534 -3.3104
-4 -9 -18 2.5312 -5.8715
-4 -9 -17 4.0269 -6.9657
-4 -9 -16 15.0428 -8.4207
-4 -9 -15 5.8047 8.0353
-4 -9 -14 -23.4214 4.9177
-4 -9 -13 -5.8449 -9.7288
-4 -9 -12 20.4872 7.9681
-4 -9 -11 -22.9550 15.6328
-4 -9 -10 8.0167 16.0161
-4 -9 -9 -5.0401 5.9172
-4 -9 -8 -43.6932 -10.5336
-4 -9 -7 25.6161 -17.8471
-4 -9 -6 29.0441 -22.5531
-4 -9 -5 -6.3023 15.9623
-4 -9 -4 3.0543 17.5247
-4 -9 -3 -15.2135 -0.6723
-4 -9 -2 -34.0913 29.6961
-4 -9 -1 4.8966 10.7918
-4 -8 -21 -0.3021 0.4007
-4 -8 -20 -4.4127 3.7358
-4 -8 -19 -0.4564 -5.5203
-4 -8 -18 8.1130 -9.7808
-4 -8 -17 -3.8281 5.1288
-4 -8 -16 -7.8585 15.1414
-4 -8 -15 16.7991 -7.9537
-4 -8 -14 -1.0393 3.1241
-4 -8 -13 12.6013 2.3378
-4 -8 -12 10.3774 -8.3432
-4 -8 -11 -16.0108 15.0522
-4 -8 -10 -10.0606 37.8380
-4 -8 -9 -5.8760 -28.9212
-4 -8 -8 16.6769 -10.8258
-4 -8 -7 19.4865 13.1510
-4 -8 -6 -11.1358 -17.3431
-4 -8 -5 11.9814 30.4730
-4 -8 -4 2.5128 40.1220
-4 -8 -3 -4.5639 -39.6309
-4 -8 -2 21.7426 -21.3760
-4 -8 -1 -7.2499 31.5372
-4 -7 -21 0.2839 -9.3839
-4 -7 -20 -0.9183 -7.4053
-4 -7 -19 7.2458 13.7620
-4 -7 -18 -1.4335 1.8006
-4 -7 -17 2.5637 0.6434
-4 -7 -16 1.3406 12.6294
-4 -7 -15 -10.7057 -24.2656
-4 -7 -14 -2.8796 -5.2343
-4 -7 -13 20.2995 24.6558
-4 -7 -12 9.2614 -22.0180
-4 -7 -11 10.7842 -10.3706
-4 -7 -10 -5.0987 -8.3923
-4 -7 -9 1.1542 -8.3686
-4 -7 -8 -21.7377 19.0511
-4 -7 -7 15.2871 11.3624
-4 -7 -6 26.0605 14.4622
-4 -7 -5 -25.5837 -25.9598
-4 -7 -4 1.2119 -22.7065
-4 -7 -3 10.4889 16.8725
-4 -7 -2 -10.3811 -32.6807
-4 -7 -1 43.6104 -9.4454
-4 -6 -22 -2.7372 -1.8075
-4 -6 -21 9.5510 -2.2842
-4 -6 -20 7.1559 1.9738
-4 -6 -19 1.0837 -2.2690
-4 -6 -18 -7.5117 0.9928
-4 -6 -17 -12.7769 3.7558
-4 -6 -16 6.3289 -11.1353
-4 -6 -15 -8.3127 2.4127
-4 -6 -14 -11.1251 -7.9869
-4 -6 -13 -12.0990 -17.0900
-4 -6 -12 -6.4542 -6.1154
-4 -6 -11 15.1721 5.1969
-4 -6 -10 34.3471 1.7836
-4 -6 -9 9.0260 20.8401
-4 -6 -8 -17.6622 -20.4925
-4 -6 -7 -34.0114 1.7477
-4 -6 -6 -13.7588 -18.5322
-4 -6 -5 -2.8465 -10.4894
-4 -6 -4 -7.1767 7.1073
-4 -6 -3 10.1091 -8.7038
-4 -6 -2 -7.0058 -4.7402
-4 -6 -1 -6.3938 3.5001
-4 -5 -22 1.2838 -4.6490
-4 -5 -21 -2.3390 12.6194
-4 -5 -20 -0.1285 8.5054
-4 -5 -19 -6.2919 0.2600
-4 -5 -18 -6.5655 3.6598
-4 -5 -17 5.5710 -9.6643
-4 -5 -16 -0.7959 -12.4487
-4 -5 -15 -5.8899 32.6867
-4 -5 -14 -3.6488 1.6428
-4 -5 -13 -16.0486 -29.2782
-4 -5 -12 3.6609 12.0545
-4 -5 -11 9.5920 -14.8956
-4 -5 -10 3.7245 11.5973
-4 -5 -9 -8.8425 36.0282
-4 -5 -8 -0.1020 6.3504
-4 -5 -7 -26.2706 -13.9587
-4 -5 -6 7.5869 -17.0953
-4 -5 -5 4.3998 3.1571
-4 -5 -4 5.9141 -4.9275
-4 -5 -3 -2.4611 14.6962
-4 -5 -2 -1.6302 42.7789
-4 -5 -1 -17.1415 -19.6456
-4 -4 -22 4.3275 0.5567
-4 -4 -21 -3.1786 4.7843
-4 -4 -20 -0.0809 4.8317
-4 -4 -19 -17.1598 -4.7163
-4 -4 -18 3.0895 -3.1233
-4 -4 -17 20.6336 0.2298
-4 -4 -16 -9.8098 11.8101
-4 -4 -15 19.5044 13.6254
-4 -4 -14 16.9251 5.5618
-4 -4 -13 -27.4465 -0.7373
-4 -4 -12 6.7019 -1.3607
-4 -4 -11 5.4785 -11.0758
-4 -4 -10 -34.2715 1.2560
-4 -4 -9 19.8228 3.2840
-4 -4 -8 9.8021 15.4550
-4 -4 -7 -2.4936 -3.0520
-4 -4 -6 -4.1427 23.3720
-4 -4 -5 35.3786 -16.0411
-4 -4 -4 35.1025 6.4065
-4 -4 -3 -21.3264 -5.1820
-4 -4 -2 15.0122 -0.0548
-4 -4 -1 -55.0649 -0.9702
-4 -3 -23 -0.3028 4.7335
-4 -3 -22 2.3017 -0.1179
-4 -3 -21 0.1195 -1.4537
-4 -3 -20 -4.1711 -9.0253
-4 -3 -19 6.1668 -5.8314
-4 -3 -18 8.4964 3.1796
-4 -3 -17 6.6864 -13.5990
-4 -3 -16 3.6251 7.7603
-4 -3 -15 1.5590 -5.1134
-4 -3 -14 0.3060 1.1988
-4 -3 -13 -4.5773 38.9454
-4 -3 -12 -7.9448 -1.4117
-4 -3 -11 2.1022 -25.2362
-4 -3 -10 -2.7430 -16.6687
-4 -3 -9 20.7321 -15.6621
-4 -3 -8 22.1363 -10.7781
-4 -3 -7 -0.7980 25.6215
-4 -3 -6 -14.1254 -0.8086
-4 -3 -5 -8.5989 -15.0424
-4 -3 -4 -34.8182 3.2555
-4 -3 -3 25.1407 32.6098
-4 -3 -2 -4.0136 13.4655
-4 -3 -1 24.7402 -6.7787
-4 -2 -23 -4.9803 -5.4229
-4 -2 -22 -12.0165 6.1437
-4 -2 -21 0.8423 -8.7835
-4 -2 -20 6.3959 -7.5094
-4 -2 -19 8.1945 6.0293
-4 -2 -18 2.3853 -0.9918
-4 -2 -17 -13.7193 -3.4672
-4 -2 -16 4.0339 -11.4657
-4 -2 -15 2.1353 -4.1445
-4 -2 -14 -11.2122 -0.6396
-4 -2 -13 11.4086 8.5086
-4 -2 -12 -18.4186 16.0609
-4 -2 -11 -16.3907 -15.7816
-4 -2 -10 24.3437 -26.6427
-4 -2 -9 6.2542 12.0132
-4 -2 -8 4.8830 -11.2749
-4 -2 -7 -4.9010 18.3304
-4 -2 -6 8.7281 26.1543
-4 -2 -5 -56.0908 -11.3296
-4 -2 -4 -12.3894 -19.9535
-4 -2 -3 45.8717 19.5519
-4 -2 -2 -9.8516 -26.1334
-4 -2 -1 73.7032 20.3205
-4 -1 -23 -4.3930 -2.7133
-4 -1 -22 -8.2421 0.2618
-4 -1 -21 14.5489 -4.9830
-4 -1 -20 -3.0795 -1.3832
-4 -1 -19 -8.2534 11.0097
-4 -1 -18 -7.1061 6.7580
-4 -1 -17 -20.8165 11.1432
-4 -1 -16 -5.1337 -8.8889
-4 -1 -15 26.7022 -4.1385
-4 -1 -14 19.7396 -5.4982
-4 -1 -13 -14.2060 -21.3483
-4 -1 -12 -8.6280 14.8538
-4 -1 -11 -7.4674 23.3066
-4 -1 -10 -15.5735 -10.2756
-4 -1 -9 15.3654 1.1900
-4 -1 -8 24.3600 9.2403
-4 -1 -7 -34.6899 11.7498
-4 -1 -6 4.5639 21.0163
-4 -1 -5 42.0119 -16.1641
-4 -1 -4 -4.7960 -21.0189
-4 -1 -3 -6.7758 -111.9280
-4 -1 -2 26.3937 -11.1710
-4 -1 -1 -72.6948 74.1459
-3 -20 -4 1.1230 -5.1897
-3 -20 -3 -1.6959 -2.7470
-3 -20 -2 -0.2114 -0.4289
-3 -20 -1 -3.8564 0.5855
-3 -19 -8 0.4951 3.9291
-3 -19 -7 -5.2006 -4.6339
-3 -19 -6 -3.8476 -2.5712
-3 -19 -5 -0.3597 3.4824
-3 -19 -4 2.7312 -0.4126
-3 -19 -3 9.5013 2.3009
-3 -19 -2 -6.7262 1.4510
-3 -19 -1 -5.3271 -4.1208
-3 -18 -10 6.0834 -1.2301
-3 -18 -9 2.5579 3.9231
-3 -18 -8 4.2851 1.3984
-3 -18 -7 0.3019 -6.7261
-3 -18 -6 -1.1699 -4.7243
-3 -18 -5 -1.6781 -4.7070
-3 -18 -4 5.8242 10.2703
-3 -18 -3 -2.2265 11.6782
-3 -18 -2 -4.1356 4.3004
-3 -18 -1 4.4013 0.9777
-3 -17 -12 -0.9954 -7.3298
-3 -17 -11 1.4550 -6.4172
-3 -17 -10 4.5160 -8.6328
-3 -17 -9 -9.2163 -0.4289
-3 -17 -8 -1.0162 17.1356
-3 -17 -7 -0.4343 13.7956
-3 -17 -6 8.0990 -12.2494
-3 -17 -5 14.1193 -2.3329
-3 -17 -4 0.4674 1.7897
-3 -17 -3 -10.4732 -7.5362
-3 -17 -2 -5.9818 11.6549
-3 -17 -1 -0.5390 -0.7697
-3 -16 -14 2.6760 1.9179
-3 -16 -13 -8.3020 -4.7479
-3 -16 -12 -13.2222 -2.3476
-3 -16 -11 0.2324 4.5608
-3 -16 -10 18.9128 0.2979
-3 -16 -9 3.9977 -4.3489
-3 -16 -8 -9.5404 2.4245
-3 -16 -7 -1.4846 -4.4277
-3 -16 -6 -20.3206 1.4153
-3 -16 -5 3.3487 6.4316
-3 -16 -4 25.2256 -9.6406
-3 -16 -3 -3.8335 -0.7232
-3 -16 -2 -12.2080 -4.1334
-3 -16 -1 5.0402 -7.8843
-3 -15 -15 -1.6358 2.3397
-3 -15 -14 4.6251 6.0595
-3 -15 -13 -1.0739 -0.3437
-3 -15 -12 -0.2562 1.9487
-3 -15 -11 -1.4084 0.3245
-3 -15 -10 -0.9492 -1.2856
-3 -15 -9 3.5198 6.4315
-3 -15 -8 -0.8762 7.6029
-3 -15 -7 2.9379 -30.4836
-3 -15 -6 -17.0947 -10.2150
-3 -15 -5 -5.4919 8.1962
-3 -15 -4 -4.0597 -3.2469
-3 -15 -3 0.8351 14.4541
-3 -15 -2 29.5622 2.8860
-3 -15 -1 4.2913 -13.3162
-3 -14 -17 1.7001 -1.4108
-3 -14 -16 3.1670 1.2416
-3 -14 -15 9.4056 -2.8719
-3 -14 -14 1.2532 -5.0215
-3 -14 -13 6.1745 7.5863
-3 -14 -12 0.3669 8.2527
-3 -14 -11 2.5747 -4.7017
-3 -14 -10 -16.7462 2.4660
-3 -14 -9 -18.4922 -0.8872
-3 -14 -8 5.7342 -3.1780
-3 -14 -7 2.6671 9.7807
-3 -14 -6 14.6897 8.5020
-3 -14 -5 14.8097 -4.8896
-3 -14 -4 -17.8854 -14.2597
-3 -14 -3 -15.6843 -4.2746
-3 -14 -2 4.2661 -8.6194
-3 -14 -1 -1.8441 3.1167
-3 -13 -18 2.9263 -4.1064
-3 -13 -17 -8.5357 4.0248
-3 -13 -16 3.5177 -5.2477
-3 -13 -15 5.5320 -0.5605
-3 -13 -14 -2.0058 -2.6467
-3 -13 -13 7.6817 5.9236
-3 -13 -12 2.9219 4.8338
-3 -13 -11 -12.5133 6.4277
-3 -13 -10 -9.6462 -2.9610
-3 -13 -9 10.7721 -4.6214
-3 -13 -8 6.7090 -7.9565
-3 -13 -7 2.7089 23.1058
-3 -13 -6 17.6631 8.6869
-3 -13 -5 -20.4119 7.8705
-3 -13 -4 -18.5058 4.9795
-3 -13 -3 9.8976 -15.8933
-3 -13 -2 0.6593 -2.0836
-3 -13 -1 -0.3550 -1.2480
-3 -12 -18 -5.3358 -1.7496
-3 -12 -17 -3.0578 3.7265
-3 -12 -16 -4.7039 0.3864
-3 -12 -15 -6.0371 -9.2766
-3 -12 -14 6.0962 8.7599
-3 -12 -13 -7.3990 4.6769
-3 -12 -12 4.5453 -6.7769
-3 -12 -11 -4.2052 4.1702
-3 -12 -10 23.7004 -7.1263
-3 -12 -9 24.4649 -17.5699
-3 -12 -8 -7.4014 -2.7656
-3 -12 -7 0.5979 22.3171
-3 -12 -6 -18.1280 1.1562
-3 -12 -5 -25.3129 1.2519
-3 -12 -4 30.4271 21.1460
-3 -12 -3 4.1548 -19.8580
-3 -12 -2 -10.3518 -1.5321
-3 -12 -1 14.8607 6.1557
-3 -11 -19 -1.1558 5.5702
-3 -11 -18 -3.4776 0.8662
-3 -11 -17 3.3668 1.8612
-3 -11 -16 2.6237 0.7649
-3 -11 -15 -1.0230 -5.6918
-3 -11 -14 -3.8789 -1.4344
-3 -11 -13 -0.8061 -4.7063
-3 -11 -12 -9.3701 -14.6735
-3 -11 -11 -2.7598 -20.0074
-3 -11 -10 20.2134 12.5852
-3 -11 -9 -2.3418 3.6081
-3 -11 -8 -7.5444 23.7732
-3 -11 -7 10.1304 -6.5934
-3 -11 -6 -8.0597 -26.7552
-3 -11 -5 -1.2700 -15.3430
-3 -11 -4 21.8097 4.1211
-3 -11 -3 -8.8811 3.3763
-3 -11 -2 -32.4707 17.7295
-3 -11 -1 6.2885 2.5836
-3 -10 -20 -5.3139 3.4313
-3 -10 -19 6.8440 -2.8079
-3 -10 -18 1.1741 -3.2586
-3 -10 -17 -8.0342 -8.0190
-3 -10 -16 11.3692 3.4716
-3 -10 -15 -4.1769 8.3343
-3 -10 -14 -12.9210 -4.1884
-3 -10 -13 11.0636 2.3806
-3 -10 -12 -5.5267 -8.6190
-3 -10 -11 -1.1857 0.1828
-3 -10 -10 -14.3085 14.6980
-3 -10 -9 -3.8811 3.1357
-3 -10 -8 -7.1792 7.5695
-3 -10 -7 -7.0243 -24.4176
-3 -10 -6 20.1746 -15.0651
-3 -10 -5 11.4542 8.7523
-3 -10 -4 -14.7048 3.0956
-3 -10 -3 28.2184 22.0890
-3 -10 -2 -17.6588 6.7600
-3 -10 -1 -24.6536 -5.8741
-3 -9 -21 -3.0000 -5.6801
-3 -9 -20 -6.2646 -1.0052
-3 -9 -19 -1.2212 -4.6696
-3 -9 -18 0.8548 -5.2003
-3 -9 -17 2.8007 18.5783
-3 -9 -16 -0.1434 0.9222
-3 -9 -15 3.1714 -14.7256
-3 -9 -14 -0.0513 12.7786
-3 -9 -13 4.2616 9.4144
-3 -9 -12 19.5074 19.2763
-3 -9 -11 -7.1372 17.9822
-3 -9 -10 -21.2470 -22.9948
-3 -9 -9 -5.7622 -14.3493
-3 -9 -8 -10.2768 -36.8679
-3 -9 -7 2.4473 34.6938
-3 -9 -6 18.0781 26.2580
-3 -9 -5 12.4196 -17.6378
-3 -9 -4 -11.3482 9.5744
-3 -9 -3 14.6881 -1.7122
-3 -9 -2 16.8898 -24.7073
-3 -9 -1 -23.1999 48.3793
-3 -8 -21 -3.3333 -0.1243
-3 -8 -20 4.5790 -0.6758
-3 -8 -19 16.6063 -6.3726
-3 -8 -18 0.1640 4.5217
-3 -8 -17 -10.9696 12.7400
-3 -8 -16 -8.8224 -10.9090
-3 -8 -15 3.4786 -7.6069
-3 -8 -14 21.2438 -6.6990
-3 -8 -13 13.8626 -2.1885
-3 -8 -12 -12.1360 30.1068
-3 -8 -11 -32.7597 3.4040
-3 -8 -10 -4.8811 -4.0846
-3 -8 -9 28.9632 -10.4311
-3 -8 -8 29.8944 -25.2413
-3 -8 -7 -3.1197 25.4413
-3 -8 -6 -7.7832 6.2790
-3 -8 -5 -50.6232 -14.4920
-3 -8 -4 -6.0995 -2.1489
-3 -8 -3 34.7555 -12.1443
-3 -8 -2 19.1013 -4.1071
-3 -8 -1 -18.9430 26.6251
-3 -7 -22 -3.4354 -8.9367
-3 -7 -21 -4.1625 -9.4217
-3 -7 -20 11.0407 -1.7282
-3 -7 -19 7.8627 17.5740
-3 -7 -18 -6.9548 7.8774
-3 -7 -17 -0.8964 -1.8410
-3 -7 -16 -12.7194 -8.4740
-3 -7 -15 -12.8414 -27.2060
-3 -7 -14 24.9948 -5.7524
-3 -7 -13 -3.7478 34.2542
-3 -7 -12 -12.9604 -14.6485
-3 -7 -11 15.1674 -12.3372
-3 -7 -10 -8.7503 8.3562
-3 -7 -9 16.9373 -19.8809
-3 -7 -8 12.2309 41.3921
-3 -7 -7 -15.2560 25.2227
-3 -7 -6 -9.8287 -6.2050
-3 -7 -5 -26.4987 -31.3132
-3 -7 -4 11.4473 -16.3685
-3 -7 -3 -1.1067 -8.8708
-3 -7 -2 1.3409 22.8767
-3 -7 -1 23.0707 31.2911
-3 -6 -22 4.3306 -6.2590
-3 -6 -21 2.3740 -3.8080
-3 -6 -20 3.5692 5.1291
-3 -6 -19 1.8045 6.0747
-3 -6 -18 -8.3025 3.9381
-3 -6 -17 -29.0827 -2.6612
-3 -6 -16 16.6219 -0.3686
-3 -6 -15 12.9462 5.6811
-3 -6 -14 -18.6600 1.8582
-3 -6 -13 26.0689 -14.4048
-3 -6 -12 3.8120 -17.6732
-3 -6 -11 -27.0547 -10.3192
-3 -6 -10 42.4922 1.0138
-3 -6 -9 1.0994 38.0913
-3 -6 -8 -35.8207 14.7032
-3 -6 -7 8.9243 -9.0706
-3 -6 -6 -20.5306 -2.6219
-3 -6 -5 7.2774 -4.2666
-3 -6 -4 31.1159 3.3506
-3 -6 -3 52.5601 -8.0722
-3 -6 -2 -17.6153 1.7451
-3 -6 -1 -17.9762 -34.6382
-3 -5 -22 10.1710 4.9104
-3 -5 -21 5.8886 2.1792
-3 -5 -20 -10.0365 6.9686
-3 -5 -19 -5.1584 -4.2079
-3 -5 -18 0.9315 -9.9820
-3 -5 -17 -0.1652 3.1938
-3 -5 -16 18.3493 -1.6850
-3 -5 -15 1.1069 -14.7994
-3 -5 -14 -36.1686 28.7531
-3 -5 -13 3.5945 -7.2530
-3 -5 -12 8.1460 -15.9534
-3 -5 -11 12.2164 19.5010
-3 -5 -10 26.8989 -8.2690
-3 -5 -9 -19.9024 -21.1583
-3 -5 -8 -13.0871 16.5006
-3 -5 -7 -14.6121 -3.8022
-3 -5 -6 17.5537 -42.2994
-3 -5 -5 26.4163 1.3493
-3 -5 -4 -11.4816 6.7762
-3 -5 -3 5.2183 7.7995
-3 -5 -2 -33.1453 7.6943
-3 -5 -1 -13.3796 22.8438
-3 -4 -23 2.2607 -2.3555
-3 -4 -22 -7.2547 9.0315
-3 -4 -21 -2.1050 5.1839
-3 -4 -20 -5.5899 2.0016
-3 -4 -19 -1.7933 -5.1439
-3 -4 -18 3.7475 -18.1047
-3 -4 -17 20.9124 2.7681
-3 -4 -16 -5.0017 12.7843
-3 -4 -15 -11.3818 -1.2899
-3 -4 -14 9.7751 12.1240
-3 -4 -13 -19.2829 0.3641
-3 -4 -12 -27.0180 -15.9935
-3 -4 -11 17.4535 18.9620
-3 -4 -10 -13.0421 -3.0515
-3 -4 -9 0.7098 -15.0042
-3 -4 -8 16.6613 1.6323
-3 -4 -7 3.8379 -22.0158
-3 -4 -6 -15.6719 0.8952
-3 -4 -5 -7.2453 -12.4457
-3 -4 -4 -1.0722 31.4232
-3 -4 -3 -54.3923 37.4198
-3 -4 -2 -0.4072 -3.7991
-3 -4 -1 9.0183 46.7446
-3 -3 -23 1.1994 1.0358
-3 -3 -22 -6.3312 1.3358
-3 -3 -21 -3.0208 3.6720
-3 -3 -20 -3.8053 -17.0537
-3 -3 -19 3.2878 -0.8032
-3 -3 -18 5.4813 11.5532
-3 -3 -17 6.0802 -5.4043
-3 -3 -16 -4.2843 12.9596
-3 -3 -15 -1.9183 34.8393
-3 -3 -14 16.8760 -32.5944
-3 -3 -13 -8.8880 2.5289
-3 -3 -12 -14.4169 21.1492
-3 -3 -11 -5.3200 -29.8721
-3 -3 -10 -9.9672 0.6997
-3 -3 -9 -4.5384 30.0825
-3 -3 -8 18.0489 -21.7624
-3 -3 -7 5.8986 10.3078
-3 -3 -6 -15.8581 63.7392
-3 -3 -5 27.0502 33.9391
-3 -3 -4 -2.2438 -40.6773
-3 -3 -3 13.5393 -10.3360
-3 -3 -2 17.8813 -25.9278
-3 -3 -1 -31.4057 -57.7312
-3 -2 -23 1.8540 1.3232
-3 -2 -22 1.0310 -5.8697
-3 -2 -21 -0.8888 -4.1544
-3 -2 -20 3.5335 -7.1624
-3 -2 -19 -8.3471 2.3987
-3 -2 -18 23.6025 12.2503
-3 -2 -17 -7.4656 -0.7241
-3 -2 -16 -19.8244 -5.5819
-3 -2 -15 22.0208 9.3874
-3 -2 -14 -8.5828 -16.8139
-3 -2 -13 -7.0108 2.3593
-3 -2 -12 60.2060 24.7392
-3 -2 -11 -12.6198 -19.0662
-3 -2 -10 -32.0199 -0.3411
-3 -2 -9 17.9521 8.7343
-3 -2 -8 25.0215 -2.9563
-3 -2 -7 1.7447 -4.2355
-3 -2 -6 31.9971 26.3929
-3 -2 -5 -8.8638 10.9011
-3 -2 -4 -72.9804 -78.6642
-3 -2 -3 10.6902 4.3703
-3 -2 -2 107.6658 -19.3993
-3 -2 -1 17.9755 -18.9466
-3 -1 -23 2.0663 0.6787
-3 -1 -22 -1.2664 8.0408
-3 -1 -21 -1.1008 2.0083
-3 -1 -20 9.5593 -0.3882
-3 -1 -19 -0.6096 0.7831
-3 -1 -18 1.5076 -3.5306
-3 -1 -17 -5.7274 -15.9641
-3 -1 -16 -10.9021 10.4378
-3 -1 -15 1.1449 -29.6226
-3 -1 -14 -0.1703 -18.7676
-3 -1 -13 8.7022 16.2511
-3 -1 -12 27.5181 13.6255
-3 -1 -11 -5.0246 2.6119
-3 -1 -10 -16.4777 18.9569
-3 -1 -9 8.2724 -35.2315
-3 -1 -8 2.4184 -51.7386
-3 -1 -7 10.1042 7.2277
-3 -1 -6 -23.3432 20.4704
-3 -1 -5 -32.0463 -30.9066
-3 -1 -4 -38.9989 23.8774
-3 -1 -3 -18.1866 -14.8955
-3 -1 -2 125.3585 -28.3506
-3 -1 -1 32.0015 36.8125
-2 -20 -5 -3.4583 -2.3743
-2 -20 -4 -1.6277 -1.1639
-2 -20 -3 -0.3430 -2.4695
-2 -20 -2 4.8020 6.9903
-2 -20 -1 0.5773 0.6196
-2 -19 -8 -4.2638 6.7137
-2 -19 -7 4.0816 1.1369
-2 -19 -6 7.9240 2.1198
-2 -19 -5 -0.7899 0.4517
-2 -19 -4 -0.4608 -10.9100
-2 -19 -3 -1.4161 1.6497
-2 -19 -2 0.0492 10.2240
-2 -19 -1 -0.1840 -7.2770
-2 -18 -11 -1.1981 5.2628
-2 -18 -10 1.2279 1.3086
-2 -18 -9 2.5165 -8.7612
-2 -18 -8 2.8827 -1.3496
-2 -18 -7 -1.7004 -0.2564
-2 -18 -6 -5.7866 5.5011
-2 -18 -5 6.8326 12.7301
-2 -18 -4 8.6921 -0.4850
-2 -18 -3 -4.5118 -5.5309
-2 -18 -2 3.5167 -5.2900
-2 -18 -1 -13.1473 2.7976
-2 -17 -13 2.2820 1.0265
-2 -17 -12 -1.8534 3.4885
-2 -17 -11 1.9459 -5.2834
-2 -17 -10 -0.9720 4.3201
-2 -17 -9 -0.6188 9.2791
-2 -17 -8 14.4275 -4.3892
-2 -17 -7 10.4694 -0.1304
-2 -17 -6 -13.1128 -4.9437
-2 -17 -5 -8.8726 -5.4019
-2 -17 -4 -8.5867 4.1235
-2 -17 -3 2.8981 13.4591
-2 -17 -2 8.7233 10.3185
-2 -17 -1 7.8255 -2.8294
-2 -16 -14 -1.0802 -1.2745
-2 -16 -13 -1.6681 -0.9190
-2 -16 -12 1.8519 0.9263
-2 -16 -11 4.3902 4.8217
-2 -16 -10 -8.5875 -10.4521
-2 -16 -9 5.8728 -0.8988
-2 -16 -8 -3.1710 3.7273
-2 -16 -7 -11.0003 6.4926
-2 -16 -6 7.2728 2.3170
-2 -16 -5 -0.0353 -8.5352
-2 -16 -4 4.3940 -9.0672
-2 -16 -3 11.4992 -11.4037
-2 -16 -2 -0.8400 4.1905
-2 -16 -1 2.7905 9.3539
-2 -15 -16 0.9806 -1.5015
-2 -15 -15 -8.1908 -1.7097
-2 -15 -14 8.3355 -1.5792
-2 -15 -13 10.0492 3.0944
-2 -15 -12 -3.7282 3.2540
-2 -15 -11 -5.9100 -1.4431
-2 -15 -10 -4.9685 -10.8433
-2 -15 -9 -15.2899 -0.9135
-2 -15 -8 -7.0542 -3.2463
-2 -15 -7 11.7652 6.8168
-2 -15 -6 7.7066 7.2097
-2 -15 -5 -13.2593 -13.3671
-2 -15 -4 16.5916 -11.8147
-2 -15 -3 -2.0181 -10.5085
-2 -15 -2 -5.1295 4.8555
-2 -15 -1 19.9461 11.9476
-2 -14 -17 2.7664 2.4335
-2 -14 -16 -4.5595 -10.2207
-2 -14 -15 4.1688 -0.0693
-2 -14 -14 6.3270 0.7290
-2 -14 -13 0.1760 -2.9060
-2 -14 -12 -9.2975 20.3040
-2 -14 -11 -10.2261 21.5777
-2 -14 -10 0.6707 -3.5262
-2 -14 -9 4.0671 -25.0177
-2 -14 -8 24.1886 -3.6758
-2 -14 -7 -5.3958 -12.3501
-2 -14 -6 -20.6781 1.5420
-2 -14 -5 -8.6134 38.6614
-2 -14 -4 -10.1607 -3.3741
-2 -14 -3 10.1424 -26.8202
-2 -14 -2 16.5922 15.2248
-2 -14 -1 3.7540 3.9027
-2 -13 -18 3.5356 3.0966
-2 -13 -17 -2.2122 1.0855
-2 -13 -16 -3.5776 -4.0836
-2 -13 -15 5.1378 3.2465
-2 -13 -14 10.1300 1.9406
-2 -13 -13 4.7090 7.6488
-2 -13 -12 -4.1677 6.8935
-2 -13 -11 -2.5482 -7.7790
-2 -13 -10 -10.1321 -8.8914
-2 -13 -9 -3.8812 1.9629
-2 -13 -8 30.5025 13.2860
-2 -13 -7 17.1553 5.4248
-2 -13 -6 -26.9985 18.3296
-2 -13 -5 2.7860 -10.1391
-2 -13 -4 -19.8570 -14.3458
-2 -13 -3 -11.2005 8.0957
-2 -13 -2 17.1091 -12.6315
-2 -13 -1 0.2915 -6.1024
-2 -12 -19 1.3025 6.2437
-2 -12 -18 -2.8545 0.0921
-2 -12 -17 -0.8963 -3.7672
-2 -12 -16 5.0700 7.0998
-2 -12 -15 -0.3311 -11.3240
-2 -12 -14 4.0538 2.0171
-2 -12 -13 -9.9527 1.9378
-2 -12 -12 5.2523 -11.5634
-2 -12 -11 5.4385 -14.1033
-2 -12 -10 -1.7080 -9.8678
-2 -12 -9 11.1017 26.7923
-2 -12 -8 -9.4684 9.8061
-2 -12 -7 -6.5411 8.2592
-2 -12 -6 8.6605 17.6850
-2 -12 -5 10.2103 -31.1602
-2 -12 -4 -12.6106 -10.0315
-2 -12 -3 -6.4807 31.9581
-2 -12 -2 -10.9642 -22.6312
-2 -12 -1 -20.2536 -2.8237
-2 -11 -19 0.4204 -1.2690
-2 -11 -18 -7.7185 -10.4029
-2 -11 -17 -4.7765 -0.1429
-2 -11 -16 8.3953 0.4633
-2 -11 -15 -1.6076 3.0871
-2 -11 -14 -21.8714 2.9549
-2 -11 -13 -2.2077 -10.5811
-2 -11 -12 7.3129 -3.4975
-2 -11 -11 17.9515 -3.1046
-2 -11 -10 18.6278 15.6748
-2 -11 -9 3.8332 3.9723
-2 -11 -8 -32.8884 -20.5566
-2 -11 -7 -29.5591 -2.4758
-2 -11 -6 35.8819 -13.4359
-2 -11 -5 12.6891 16.0475
-2 -11 -4 8.3994 32.5760
-2 -11 -3 13.2098 14.6300
-2 -11 -2 -21.9714 -16.7010
-2 -11 -1 -15.4075 -14.4210
-2 -10 -20 -6.7200 6.2004
-2 -10 -19 -0.7747 -5.3318
-2 -10 -18 0.9658 -9.6903
-2 -10 -17 5.9724 0.1685
-2 -10 -16 9.6369 7.3317
-2 -10 -15 -9.7254 11.2170
-2 -10 -14 -8.6204 -6.9654
-2 -10 -13 15.1059 -3.8072
-2 -10 -12 -6.4040 -18.4306
-2 -10 -11 5.9027 15.6169
-2 -10 -10 -4.4583 38.0017
-2 -10 -9 -19.4979 -21.8149
-2 -10 -8 -2.4856 -24.3821
-2 -10 -7 20.6816 -19.2162
-2 -10 -6 23.4767 -36.0422
-2 -10 -5 -0.4345 29.7258
-2 -10 -4 8.9787 44.1364
-2 -10 -3 -15.8295 -20.4264
-2 -10 -2 -10.3930 -6.7262
-2 -10 -1 6.8568 -9.8203
-2 -9 -21 -6.5102 4.8271
-2 -9 -20 -4.2516 -2.3403
-2 -9 -19 -0.1874 -5.5373
-2 -9 -18 9.3690 -2.1522
-2 -9 -17 4.8764 10.1252
-2 -9 -16 4.1476 2.0581
-2 -9 -15 0.0810 -13.9034
-2 -9 -14 -15.0461 9.7965
-2 -9 -13 8.7882 -7.5082
-2 -9 -12 18.7445 -2.4467
-2 -9 -11 -40.4987 40.4504
-2 -9 -10 -5.7857 -23.0358
-2 -9 -9 -17.2122 -17.5825
-2 -9 -8 -12.9934 6.1615
-2 -9 -7 54.7444 -18.8427
-2 -9 -6 5.9931 4.9524
-2 -9 -5 -20.0692 13.5302
-2 -9 -4 -9.2321 -13.3053
-2 -9 -3 -29.9531 -31.1337
-2 -9 -2 -12.9200 25.4607
-2 -9 -1 18.8751 16.8191
-2 -8 -21 -4.4246 -4.8006
-2 -8 -20 2.8336 4.0455
-2 -8 -19 0.4215 -0.3110
-2 -8 -18 2.0313 -2.6191
-2 -8 -17 -8.6562 9.9725
-2 -8 -16 -5.6978 6.4527
-2 -8 -15 -10.5665 -18.3565
-2 -8 -14 6.4059 17.2935
-2 -8 -13 27.4623 13.7979
-2 -8 -12 -7.3707 -12.5993
-2 -8 -11 -13.0166 4.9545
-2 -8 -10 10.7725 2.9038
-2 -8 -9 -35.3587 -24.1373
-2 -8 -8 16.6725 19.6654
-2 -8 -7 13.6930 25.3649
-2 -8 -6 -36.5514 7.2398
-2 -8 -5 -10.3002 10.1688
-2 -8 -4 4.9652 4.8566
-2 -8 -3 12.6463 -16.8459
-2 -8 -2 19.5998 -22.1506
-2 -8 -1 39.1238 20.7717
-2 -7 -22 4.6692 0.0413
-2 -7 -21 6.9847 0.3414
-2 -7 -20 7.7532 -3.1881
-2 -7 -19 2.5889 2.5209
-2 -7 -18 -21.8007 10.3304
-2 -7 -17 2.5273 -1.0313
-2 -7 -16 16.4501 1.1834
-2 -7 -15 -10.0604 -6.2433
-2 -7 -14 1.8578 -16.2465
-2 -7 -13 5.4005 2.5986
-2 -7 -12 -15.9804 1.6381
-2 -7 -11 36.7370 12.6165
-2 -7 -10 23.4838 15.9541
-2 -7 -9 10.2196 -13.4821
-2 -7 -8 -24.0900 24.5107
-2 -7 -7 -17.2828 -5.7782
-2 -7 -6 12.8846 5.5337
-2 -7 -5 -6.5904 8.5942
-2 -7 -4 10.3518 -25.5430
-2 -7 -3 25.1685 -12.2525
-2 -7 -2 -13.7091 -3.2418
-2 -7 -1 24.5178 16.2537
-2 -6 -22 0.4369 0.0161
-2 -6 -21 2.9214 9.2963
-2 -6 -20 1.9486 11.2043
-2 -6 -19 -2.4692 -5.1894
-2 -6 -18 6.6421 -7.0602
-2 -6 -17 9.7829 -13.5645
-2 -6 -16 -14.0653 -14.2981
-2 -6 -15 5.8234 31.0203
-2 -6 -14 -7.4188 -10.2496
-2 -6 -13 -9.7385 -37.7572
-2 -6 -12 28.4001 1.4071
-2 -6 -11 3.7247 -3.8372
-2 -6 -10 2.1707 19.5957
-2 -6 -9 13.8609 45.7531
-2 -6 -8 -21.3081 -33.0098
-2 -6 -7 21.3432 -23.2371
-2 -6 -6 -4.5397 -35.9375
-2 -6 -5 4.8843 -10.9688
-2 -6 -4 -11.3579 22.7225
-2 -6 -3 -21.2088 5.7949
-2 -6 -2 4.4874 9.1437
-2 -6 -1 -16.1513 -3.7211
-2 -5 -22 3.8821 -0.7896
-2 -5 -21 -3.9603 5.5545
-2 -5 -20 -18.9657 -2.3455
-2 -5 -19 -17.0882 -9.1094
-2 -5 -18 14.3548 -0.6253
-2 -5 -17 15.0248 -1.0530
-2 -5 -16 -9.0599 6.7003
-2 -5 -15 6.0884 17.2098
-2 -5 -14 -14.9421 -10.7988
-2 -5 -13 -28.9360 -7.2470
-2 -5 -12 41.1891 -5.8566
-2 -5 -11 -2.7520 -20.9591
-2 -5 -10 -31.6855 10.0023
-2 -5 -9 -7.2111 -0.4548
-2 -5 -8 -13.1545 -13.5911
-2 -5 -7 -22.3923 13.2908
-2 -5 -6 40.9690 -18.2742
-2 -5 -5 21.1722 30.5046
-2 -5 -4 -1.6093 4.5429
-2 -5 -3 -18.2250 22.9287
-2 -5 -2 -10.3635 -4.0267
-2 -5 -1 -44.7635 -38.9587
-2 -4 -23 3.5538 8.9872
-2 -4 -22 -1.4522 7.2719
-2 -4 -21 -7.3183 -0.8885
-2 -4 -20 -0.1687 -8.7228
-2 -4 -19 -1.9163 -2.4126
-2 -4 -18 -2.1240 -11.3879
-2 -4 -17 4.3012 7.6570
-2 -4 -16 4.3611 39.2532
-2 -4 -15 -10.3821 -8.9287
-2 -4 -14 2.9672 -3.6984
-2 -4 -13 -13.1538 30.6438
-2 -4 -12 -14.0976 -21.6061
-2 -4 -11 1.4090 -10.8580
-2 -4 -10 -5.1661 23.9541
-2 -4 -9 12.6707 -25.3660
-2 -4 -8 -1.2052 -5.4151
-2 -4 -7 -5.2184 18.0707
-2 -4 -6 8.1569 21.5877
-2 -4 -5 -9.5002 -13.4486
-2 -4 -4 46.2076 43.0135
-2 -4 -3 -19.3666 4.7828
-2 -4 -2 -0.1475 -53.7040
-2 -4 -1 -16.8312 -12.8550
-2 -3 -23 -4.0444 3.6908
-2 -3 -22 -4.1291 -1.8222
-2 -3 -21 0.6572 -2.6496
-2 -3 -20 5.5208 4.4395
-2 -3 -19 20.2108 2.7111
-2 -3 -18 6.3696 1.9426
-2 -3 -17 -10.9480 2.7914
-2 -3 -16 16.5576 -9.1473
-2 -3 -15 -10.4935 -6.1482
-2 -3 -14 -18.9695 18.8300
-2 -3 -13 26.9832 4.9319
-2 -3 -12 -21.2257 10.1464
-2 -3 -11 -5.6003 -5.7943
-2 -3 -10 34.0060 -12.7866
-2 -3 -9 11.8315 6.8288
-2 -3 -8 0.7367 3.6437
-2 -3 -7 23.7766 13.6706
-2 -3 -6 -7.8632 -22.9726
-2 -3 -5 -42.4876 -36.2558
-2 -3 -4 -40.0465 3.3920
-2 -3 -3 30.9001 -32.1722
-2 -3 -2 -26.9815 88.6683
-2 -3 -1 68.2994 22.1796
-2 -2 -23 -7.7371 -12.3571
-2 -2 -22 7.2275 -1.6841
-2 -2 -21 5.4877 -8.9199
-2 -2 -20 1.9981 0.5452
-2 -2 -19 3.8904 8.4267
-2 -2 -18 -4.9120 6.8769
-2 -2 -17 -9.4464 2.1715
-2 -2 -16 8.1071 -26.6355
-2 -2 -15 18.2799 -6.4869
-2 -2 -14 1.3464 8.0428
-2 -2 -13 6.3423 -22.5770
-2 -2 -12 -4.8629 19.3402
-2 -2 -11 -4.7307 10.3721
-2 -2 -10 2.4968 -40.5241
-2 -2 -9 13.6461 14.8037
-2 -2 -8 -10.7244 17.9603
-2 -2 -7 -31.3965 8.3540
-2 -2 -6 5.6033 11.3776
-2 -2 -5 -29.4550 7.5363
-2 -2 -4 12.2710 -51.2611
-2 -2 -3 69.9368 -35.8847
-2 -2 -2 -14.4355 29.4512
-2 -2 -1 58.4230 56.3044
-2 -1 -23 -5.7340 -3.5583
-2 -1 -22 -3.8149 4.3869
-2 -1 -21 15.3115 -7.9156
-2 -1 -20 -1.5539 4.6582
-2 -1 -19 -16.2482 6.6668
-2 -1 -18 -14.8667 -13.5723
-2 -1 -17 -8.6726 -11.2547
-2 -1 -16 -18.1378 11.0049
-2 -1 -15 30.8283 -4.2391
-2 -1 -14 44.0998 -3.3273
-2 -1 -13 -32.0857 15.1097
-2 -1 -12 -7.8955 -24.0234
-2 -1 -11 1.4185 -2.2936
-2 -1 -10 -33.6430 24.7024
-2 -1 -9 20.8688 11.6262
-2 -1 -8 47.4789 -11.6759
-2 -1 -7 -52.9870 21.7167
-2 -1 -6 -39.2119 12.9824
-2 -1 -5 58.4939 -36.0986
-2 -1 -4 41.4633 36.7953
-2 -1 -3 -6.2336 -24.4451
-2 -1 -2 66.2693 -102.3407
-2 -1 -1 -88.7257 67.9315
-1 -20 -5 1.8942 0.0812
-1 -20 -4 3.7687 3.4218
-1 -20 -3 4.5198 -3.2105
-1 -20 -2 0.8508 -1.6603
-1 -20 -1 -3.1352 -2.5707
-1 -19 -9 0.7798 2.7660
-1 -19 -8 4.4560 3.5553
-1 -19 -7 -2.2519 -0.6074
-1 -19 -6 2.8504 -4.0739
-1 -19 -5 -1.4933 2.4283
-1 -19 -4 -4.7678 6.2682
-1 -19 -3 -4.3013 5.2630
-1 -19 -2 -7.7464 3.0885
-1 -19 -1 2.2928 -1.0029
-1 -18 -11 1.2366 -0.8195
-1 -18 -10 1.5535 -3.2575
-1 -18 -9 -0.8520 8.1579
-1 -18 -8 -3.4739 1.0940
-1 -18 -7 2.1518 -4.4807
-1 -18 -6 0.8889 2.3996
-1 -18 -5 -1.1808 3.2573
-1 -18 -4 -0.6526 3.7708
-1 -18 -3 -6.2193 3.9603
-1 -18 -2 -6.8844 -0.1221
-1 -18 -1 3.6281 -2.6479
-1 -17 -13 -4.0657 -3.5057
-1 -17 -12 -0.3072 -3.3917
-1 -17 -11 14.3463 -2.9087
-1 -17 -10 7.3004 -5.4630
-1 -17 -9 -14.0594 -4.8281
-1 -17 -8 -3.1727 7.7530
-1 -17 -7 -5.2478 4.1993
-1 -17 -6 -6.9320 -5.2078
-1 -17 -5 25.1578 1.0637
-1 -17 -4 6.5204 -1.6676
-1 -17 -3 -10.0010 -10.0638
-1 -17 -2 4.3581 2.0164
-1 -17 -1 -4.0881 -3.7750
-1 -16 -14 5.5738 -5.8491
-1 -16 -13 -4.9255 -4.9701
-1 -16 -12 -4.4158 -3.9446
-1 -16 -11 2.3094 2.9245
-1 -16 -10 11.7036 6.0618
-1 -16 -9 0.2357 14.0820
-1 -16 -8 1.5139 0.7933
-1 -16 -7 0.1769 -35.3531
-1 -16 -6 -12.1624 1.8209
-1 -16 -5 1.0647 5.5139
-1 -16 -4 14.4516 -11.3022
-1 -16 -3 -1.1182 22.6445
-1 -16 -2 2.8659 -1.9656
-1 -16 -1 3.5013 -7.9395
-1 -15 -16 5.0912 0.7815
-1 -15 -15 -0.9657 1.6694
-1 -15 -14 -3.0671 0.6902
-1 -15 -13 -5.9050 3.1538
-1 -15 -12 8.4708 3.6431
-1 -15 -11 -1.3518 0.6828
-1 -15 -10 -12.0726 -1.3094
-1 -15 -9 -2.9298 8.5774
-1 -15 -8 5.7173 3.8729
-1 -15 -7 0.9807 -13.8387
-1 -15 -6 8.2260 -2.3854
-1 -15 -5 6.5511 2.2595
-1 -15 -4 -20.5925 -4.6365
-1 -15 -3 1.1413 12.6870
-1 -15 -2 26.3455 0.6505
-1 -15 -1 0.5777 -1.2726
-1 -14 -17 -2.3791 5.1866
-1 -14 -16 2.7057 5.6990
-1 -14 -15 7.6475 -3.1708
-1 -14 -14 -3.1974 7.9509
-1 -14 -13 3.2589 0.1822
-1 -14 -12 -2.5570 6.4769
-1 -14 -11 -3.2176 -10.2605
-1 -14 -10 -11.4854 -1.7660
-1 -14 -9 -3.8488 -13.4528
-1 -14 -8 -0.3396 -9.6254
-1 -14 -7 -1.1057 32.1420
-1 -14 -6 8.7293 8.4465
-1 -14 -5 3.7333 -3.1561
-1 -14 -4 -14.4448 -9.4241
-1 -14 -3 3.0289 -28.3816
-1 -14 -2 -1.9533 -7.7974
-1 -14 -1 -6.8991 2.8203
-1 -13 -18 1.9291 -5.0572
-1 -13 -17 3.4965 2.5371
-1 -13 -16 -0.2313 -4.7243
-1 -13 -15 -1.9677 -2.2491
-1 -13 -14 -2.2008 5.2872
-1 -13 -13 2.5786 4.2688
-1 -13 -12 -10.6605 -3.8285
-1 -13 -11 3.6318 -1.2255
-1 -13 -10 7.0603 -3.5369
-1 -13 -9 12.4529 -9.5603
-1 -13 -8 -7.0241 1.7736
-1 -13 -7 1.4916 20.2535
-1 -13 -6 -18.6054 -1.9731
-1 -13 -5 -26.7548 -3.2019
-1 -13 -4 15.2738 9.0067
-1 -13 -3 -13.4241 -15.9387
-1 -13 -2 -4.9084 3.9634
-1 -13 -1 20.6546 9.3076
-1 -12 -19 3.1416 -2.8529
-1 -12 -18 -5.5149 4.8990
-1 -12 -17 3.1325 -5.8697
-1 -12 -16 2.1024 -0.0660
-1 -12 -15 -4.6555 2.7418
-1 -12 -14 3.6093 -2.8267
-1 -12 -13 -5.8301 -2.7706
-1 -12 -12 -2.3913 -14.6322
-1 -12 -11 2.0840 17.8531
-1 -12 -10 25.8995 3.2000
-1 -12 -9 10.5133 20.0675
-1 -12 -8 -6.1953 14.2805
-1 -12 -7 1.2200 -27.7350
-1 -12 -6 -16.2697 -10.4358
-1 -12 -5 -14.6814 21.7026
-1 -12 -4 34.0115 6.5674
-1 -12 -3 -2.3379 8.8342
-1 -12 -2 -14.7923 8.5769
-1 -12 -1 9.6490 -33.8980
-1 -11 -20 3.1263 3.8226
-1 -11 -19 -5.4438 -0.0170
-1 -11 -18 -2.8751 1.1820
-1 -11 -17 4.3801 1.3050
-1 -11 -16 1.3530 2.1152
-1 -11 -15 1.5491 3.0345
-1 -11 -14 -3.8209 -1.0407
-1 -11 -13 8.8904 -9.6119
-1 -11 -12 11.0582 -8.2480
-1 -11 -11 0.5010 -3.1767
-1 -11 -10 5.8270 8.4275
-1 -11 -9 -34.1832 11.2814
-1 -11 -8 5.9894 15.0883
-1 -11 -7 8.6729 -18.7185
-1 -11 -6 27.7103 -18.1143
-1 -11 -5 35.3322 3.5380
-1 -11 -4 -11.2830 -3.8801
-1 -11 -3 -22.1856 9.7248
-1 -11 -2 -24.2031 10.9085
-1 -11 -1 -1.5390 -12.1730
-1 -10 -20 -3.6095 2.7427
-1 -10 -19 2.0010 -7.9489
-1 -10 -18 3.6648 3.7415
-1 -10 -17 -2.7372 3.6544
-1 -10 -16 2.2590 -11.8418
-1 -10 -15 -8.8622 0.1123
-1 -10 -14 -6.4595 1.4542
-1 -10 -13 9.9742 7.5084
-1 -10 -12 3.1463 10.5071
-1 -10 -11 1.9637 -7.6183
-1 -10 -10 -20.5516 -1.8830
-1 -10 -9 -12.3955 -34.6823
-1 -10 -8 -0.5097 -9.9656
-1 -10 -7 0.2175 6.5085
-1 -10 -6 14.9613 3.3572
-1 -10 -5 16.1934 -2.3732
-1 -10 -4 -23.2775 27.8212
-1 -10 -3 9.0687 0.8128
-1 -10 -2 2.4792 2.8405
-1 -10 -1 -9.2797 22.3861
-1 -9 -21 -3.0530 -4.1361
-1 -9 -20 10.3279 -5.9105
-1 -9 -19 3.7579 -4.7359
-1 -9 -18 -15.5791 -0.0082
-1 -9 -17 -1.0436 14.3715
-1 -9 -16 -8.1391 -2.2077
-1 -9 -15 8.8121 -13.1965
-1 -9 -14 25.5024 0.4482
-1 -9 -13 -20.9314 7.1537
-1 -9 -12 -15.7182 20.0663
-1 -9 -11 -22.1673 9.0139
-1 -9 -10 0.8076 -16.8506
-1 -9 -9 48.3885 -17.5808
-1 -9 -8 -24.2833 -26.2086
-1 -9 -7 5.7222 27.6445
-1 -9 -6 -24.5151 26.0925
-1 -9 -5 -27.7145 -13.7018
-1 -9 -4 44.7497 6.1392
-1 -9 -3 38.5907 -9.0122
-1 -9 -2 -20.5798 -17.0408
-1 -9 -1 -13.0474 32.9128
-1 -8 -21 1.2983 -3.4380
-1 -8 -20 6.8835 14.3763
-1 -8 -19 13.2017 9.9903
-1 -8 -18 -1.0587 7.8140
-1 -8 -17 -9.3615 -9.5850
-1 -8 -16 -10.1088 -25.6898
-1 -8 -15 10.2770 5.0376
-1 -8 -14 17.8818 16.6805
-1 -8 -13 3.4192 6.6605
-1 -8 -12 -11.5449 -5.0676
-1 -8 -11 -24.3606 -23.1882
-1 -8 -10 1.4701 8.2923
-1 -8 -9 32.6657 26.3752
-1 -8 -8 19.2993 31.6046
-1 -8 -7 -5.7281 22.7135
-1 -8 -6 -9.7603 -70.9055
-1 -8 -5 -43.2601 -19.9525
-1 -8 -4 5.4738 -22.9916
-1 -8 -3 25.6837 2.5269
-1 -8 -2 5.0828 36.1278
-1 -8 -1 -12.7284 13.3527
-1 -7 -22 5.0741 -6.0872
-1 -7 -21 6.5840 -6.2055
-1 -7 -20 1.5828 3.7983
-1 -7 -19 -3.5810 16.8796
-1 -7 -18 -26.3222 6.0828
-1 -7 -17 2.6118 -9.1537
-1 -7 -16 29.5063 -4.4885
-1 -7 -15 -13.5307 -13.0608
-1 -7 -14 -3.8725 2.8520
-1 -7 -13 11.7772 26.4660
-1 -7 -12 -20.5530 -17.1633
-1 -7 -11 42.7839 -18.0176
-1 -7 -10 31.2922 8.6473
-1 -7 -9 -35.1792 -3.3958
-1 -7 -8 -24.9560 30.6952
-1 -7 -7 -31.9744 20.1502
-1 -7 -6 -3.3631 -17.4390
-1 -7 -5 8.8173 -21.5649
-1 -7 -4 47.1111 -10.0961
-1 -7 -3 -25.9594 -1.9738
-1 -7 -2 -21.7548 16.7904
-1 -7 -1 7.0151 18.3085
-1 -6 -22 6.2478 -2.6259
-1 -6 -21 0.8487 9.8603
-1 -6 -20 -0.8525 6.9752
-1 -6 -19 -5.1923 -13.2455
-1 -6 -18 -7.6522 -18.3521
-1 -6 -17 -16.0889 18.0281
-1 -6 -16 20.0496 -8.6803
-1 -6 -15 5.6451 9.5565
-1 -6 -14 -19.8922 37.7029
-1 -6 -13 15.3431 -55.3373
-1 -6 -12 3.2523 -16.1449
-1 -6 -11 -12.8217 45.5684
-1 -6 -10 30.1599 -29.8256
-1 -6 -9 -6.7805 34.3808
-1 -6 -8 -31.5570 16.6299
-1 -6 -7 5.6336 -51.3329
-1 -6 -6 -6.5026 7.0236
-1 -6 -5 12.4785 25.9778
-1 -6 -4 20.2465 54.1177
-1 -6 -3 30.5804 -11.8359
-1 -6 -2 -15.8288 23.5398
-1 -6 -1 -10.4897 -58.2177
-1 -5 -23 -3.7132 0.0214
-1 -5 -22 -2.7215 2.7601
-1 -5 -21 -5.7023 6.1673
-1 -5 -20 -2.4794 3.3651
-1 -5 -19 -1.8597 -11.7625
-1 -5 -18 11.8178 -11.5193
-1 -5 -17 18.4677 8.6317
-1 -5 -16 3.5503 -2.1091
-1 -5 -15 -21.5242 -6.5862
-1 -5 -14 2.1913 18.3751
-1 -5 -13 -16.3686 -14.8099
-1 -5 -12 -24.1063 -7.7709
-1 -5 -11 35.6742 26.6930
-1 -5 -10 11.0317 -8.0136
-1 -5 -9 -22.3301 -17.2786
-1 -5 -8 43.4862 6.5119
-1 -5 -7 3.2100 -14.7378
-1 -5 -6 8.5502 -21.5647
-1 -5 -5 41.4126 9.2937
-1 -5 -4 -18.2332 14.1565
-1 -5 -3 -33.9202 2.6683
-1 -5 -2 -62.4975 7.2246
-1 -5 -1 42.5209 8.5719
-1 -4 -23 3.8829 -1.6253
-1 -4 -22 -8.1325 7.3888
-1 -4 -21 -4.6615 -10.9844
-1 -4 -20 -1.2799 -10.5693
-1 -4 -19 2.9562 8.3871
-1 -4 -18 4.4359 9.7683
-1 -4 -17 19.7466 -17.5556
-1 -4 -16 -12.3512 20.6053
-1 -4 -15 -13.2942 7.9001
-1 -4 -14 16.7212 -24.6593
-1 -4 -13 -10.2836 21.2583
-1 -4 -12 -18.1120 -4.9935
-1 -4 -11 17.0500 -43.2073
-1 -4 -10 -17.0732 2.3197
-1 -4 -9 -8.6939 1.4193
-1 -4 -8 23.2152 -7.3375
-1 -4 -7 7.0340 -7.3484
-1 -4 -6 -7.6493 31.1225
-1 -4 -5 -1.1755 -34.2684
-1 -4 -4 -4.1375 -23.4044
-1 -4 -3 -47.1874 41.8259
-1 -4 -2 -0.9038 -43.9383
-1 -4 -1 14.3169 42.1491
-1 -3 -23 -2.8937 0.7382
-1 -3 -22 -2.1015 1.7534
-1 -3 -21 12.6271 -2.0154
-1 -3 -20 -4.0084 -12.8125
-1 -3 -19 4.6611 2.2219
-1 -3 -18 4.3530 16.3432
-1 -3 -17 -30.3134 -4.5728
-1 -3 -16 -13.3855 6.8078
-1 -3 -15 42.1686 20.6397
-1 -3 -14 -24.9550 -29.4478
-1 -3 -13 5.3340 3.2505
-1 -3 -12 32.6935 23.4292
-1 -3 -11 -61.2422 -26.3780
-1 -3 -10 -8.6260 1.1459
-1 -3 -9 40.4311 23.9278
-1 -3 -8 -24.3805 -21.8089
-1 -3 -7 -26.6128 7.2032
-1 -3 -6 -23.2273 48.7651
-1 -3 -5 -11.7665 19.5471
-1 -3 -4 -36.2771 -33.0891
-1 -3 -3 125.0827 -5.3356
-1 -3 -2 89.6045 -25.9209
-1 -3 -1 -128.9856 -37.3891
-1 -2 -23 -1.8857 2.9197
-1 -2 -22 1.1911 -5.5350
-1 -2 -21 2.3224 -0.9683
-1 -2 -20 3.0682 2.9622
-1 -2 -19 -3.2778 17.5696
-1 -2 -18 13.8598 -9.6114
-1 -2 -17 -13.7926 7.5347
-1 -2 -16 -13.2113 -7.0387
-1 -2 -15 18.6004 -35.7657
-1 -2 -14 -7.9980 11.2366
-1 -2 -13 -2.7495 50.9695
-1 -2 -12 43.6666 -3.5761
-1 -2 -11 -17.3131 18.8368
-1 -2 -10 -23.1860 15.9020
-1 -2 -9 22.9763 -43.0750
-1 -2 -8 9.6995 22.1339
-1 -2 -7 -5.5862 66.5865
-1 -2 -6 18.8972 -21.8860
-1 -2 -5 -13.2626 -53.3670
-1 -2 -4 -53.3527 -52.9242
-1 -2 -3 32.4078 14.7504
-1 -2 -2 75.1438 23.4244
-1 -2 -1 -5.0772 123.1212
-1 -1 -23 -2.6484 -0.1964
-1 -1 -22 -1.4972 4.2264
-1 -1 -21 -8.6720 1.3118
-1 -1 -20 4.8186 0.5848
-1 -1 -19 9.9436 4.6722
-1 -1 -18 -6.3326 -6.0797
-1 -1 -17 -5.2215 -6.8792
-1 -1 -16 25.8841 4.6638
-1 -1 -15 -13.6518 -26.2949
-1 -1 -14 23.1028 -1.8872
-1 -1 -13 20.3243 19.0100
-1 -1 -12 -19.5016 -0.2124
-1 -1 -11 -15.7047 4.4056
-1 -1 -10 22.9742 9.2125
-1 -1 -9 17.1702 -30.7760
-1 -1 -8 0.9912 -18.8131
-1 -1 -7 34.2797 19.6876
-1 -1 -6 -28.7641 0.2778
-1 -1 -5 -58.2352 -38.2762
-1 -1 -4 55.5381 16.1331
-1 -1 -3 -29.3421 -7.3298
0 0 4 -147.2173 2.0061
0 0 6 134.0905 1.4351
0 0 8 -66.3358 -0.8880
0 0 10 58.7866 -0.9832
0 0 12 48.7095 -0.4548
0 0 14 -92.4310 0.6656
0 0 16 33.8538 1.2448
0 0 18 16.8279 -0.1760
0 0 20 -30.7064 -1.3834
0 0 22 4.2002 -0.3817
0 1 3 0.3272 -67.5291
0 1 4 0.4204 -84.3276
0 1 5 0.3425 74.4300
0 1 6 -0.2974 -7.3241
0 1 7 0.1471 -20.0892
0 1 8 0.1358 33.8329
0 1 9 -0.4367 -28.7520
0 1 10 0.1368 -56.5376
0 1 11 -0.4444 44.6013
0 1 12 -0.1700 50.5734
0 1 13 0.0088 -47.1466
0 1 14 0.0443 7.8947
0 1 15 0.3380 -2.0976
0 1 16 0.0574 -31.4835
0 1 17 0.2240 36.6661
0 1 18 0.1288 29.2686
0 1 19 -0.0856 -4.0190
0 1 20 0.0033 -5.0538
0 1 21 -0.0460 10.3357
0 1 22 -0.3323 -9.1863
0 1 23 -0.1420 6.1540
0 2 2 -2.4642 -0.0057
0 2 3 77.8468 -0.2636
0 2 4 31.2883 -0.8455
0 2 5 13.6793 0.1019
0 2 6 -18.2241 -0.6055
0 2 7 -67.4129 0.6237
0 2 8 -5.3916 0.0368
0 2 9 25.5730 0.3891
0 2 10 -27.6687 0.6321
0 2 11 12.3439 -0.2581
0 2 12 0.7610 0.3206
0 2 13 -17.4719 -0.5531
0 2 14 21.5720 -0.4314
0 2 15 35.1642 -0.1551
0 2 16 1.9692 -0.6282
0 2 17 -2.0134 0.3969
0 2 18 -10.5122 0.0406
0 2 19 -11.8975 0.3475
0 2 20 -3.3142 1.0302
0 2 21 12.4127 -0.0681
0 2 22 17.4920 0.0944
0 2 23 -11.1349 -0.2190
0 3 1 0.1792 -52.8714
0 3 2 0.0881 -160.6373
0 3 3 0.0369 74.9879
0 3 4 0.0699 30.9388
0 3 5 0.0531 34.2729
0 3 6 0.1347 32.4858
0 3 7 0.0683 -1.0647
0 3 8 0.1511 -28.1264
0 3 9 -0.0746 -29.7626
0 3 10 0.0764 34.7014
0 3 11 -0.1424 -14.2090
0 3 12 -0.1348 -31.1905
0 3 13 -0.0100 26.9158
0 3 14 -0.2823 -37.0192
0 3 15 0.1494 -0.9256
0 3 16 -0.0517 36.5267
0 3 17 0.0560 -11.3457
0 3 18 0.2886 -11.4319
0 3 19 -0.1176 -10.2890
0 3 20 0.0316 -18.1282
0 3 21 -0.1747 -1.4187
0 3 22 -0.3854 5.9927
0 3 23 -0.0366 0.1427
0 4 0 -45.3133 -0.3369
0 4 1 36.8864 0.1401
0 4 2 -1.3620 -0.2506
0 4 3 -16.7487 0.2900
0 4 4 57.6056 0.4148
0 4 5 -58.4596 -0.0301
0 4 6 0.8911 0.3251
0 4 7 12.7817 -0.2414
0 4 8 0.5990 -0.0147
0 4 9 -1.5832 -0.1063
0 4 10 29.3150 -0.1253
0 4 11 -7.4197 0.0528
0 4 12 -44.3235 -0.0066
0 4 13 16.6942 0.1613
0 4 14 2.4868 0.2288
0 4 15 -35.7431 0.0323
0 4 16 15.7975 0.0700
0 4 17 -10.1011 -0.0915
0 4 18 -14.0735 -0.1029
0 4 19 21.8938 -0.0612
0 4 20 10.6334 -0.0765
0 4 21 -9.2055 -0.0275
0 4 22 -7.3838 -0.2407
0 4 23 1.2329 0.0181
0 5 1 -0.0667 44.2206
0 5 2 0.0844 46.4288
0 5 3 -0.0253 -4.5794
0 5 4 0.1012 -20.0385
0 5 5 -0.0343 -53.2658
0 5 6 -0.1750 11.9857
0 5 7 0.0016 -39.4133
0 5 8 -0.0449 24.5215
0 5 9 -0.0154 50.6089
0 5 10 -0.0002 -13.4406
0 5 11 0.0382 11.7255
0 5 12 0.1467 24.6083
0 5 13 0.0206 -16.2405
0 5 14 0.1126 21.9382
0 5 15 0.0052 14.1648
0 5 16 -0.0909 -24.9448
0 5 17 0.0672 -19.9653
0 5 18 0.0291 6.6618
0 5 19 -0.0215 16.8741
0 5 20 -0.0138 17.9790
0 5 21 -0.0375 7.8872
0 5 22 -0.1338 -2.0356
0 5 23 0.1741 -6.2300
0 6 0 48.5530 0.0531
0 6 1 -18.7244 0.0028
0 6 2 0.5835 -0.1768
0 6 3 -44.3632 -0.1155
0 6 4 -25.4896 -0.0579
0 6 5 9.2567 -0.0079
0 6 6 22.2250 -0.0946
0 6 7 64.1260 0.0603
0 6 8 -31.6591 -0.0575
0 6 9 14.4299 0.0496
0 6 10 -31.0651 0.0018
0 6 11 -12.9307 0.0081
0 6 12 72.2399 -0.0802
0 6 13 -4.9871 -0.0830
0 6 14 -19.9721 0.0337
0 6 15 8.7599 -0.0590
0 6 16 -29.8008 0.0292
0 6 17 21.6087 0.0186
0 6 18 32.0899 -0.1008
0 6 19 -7.8999 0.1335
0 6 20 -13.5837 0.2195
0 6 21 -8.4648 0.0075
0 6 22 3.0326 -0.0604
0 7 1 0.1385 -25.9974
0 7 2 -0.0228 -3.4966
0 7 3 0.0259 17.3892
0 7 4 0.1137 7.4756
0 7 5 -0.0594 -25.7622
0 7 6 0.0594 10.6555
0 7 7 -0.0313 26.6903
0 7 8 0.0510 -8.5282
0 7 9 0.0731 -1.7967
0 7 10 -0.0509 -49.6524
0 7 11 0.0265 -19.8882
0 7 12 -0.0643 -14.6671
0 7 13 -0.0635 20.9199
0 7 14 0.0446 29.1123
0 7 15 -0.0314 -21.1666
0 7 16 -0.1128 -8.3457
0 7 17 -0.0093 12.9482
0 7 18 0.0151 -10.7381
0 7 19 0.1754 6.7757
0 7 20 0.0761 -3.9380
0 7 21 -0.0495 -13.7989
0 7 22 -0.2420 -6.1880
0 8 0 -41.7210 0.0404
0 8 1 44.3900 -0.0906
0 8 2 12.9981 -0.0578
0 8 3 30.1485 0.0244
0 8 4 11.1924 -0.0010
0 8 5 -7.6567 0.0302
0 8 6 -49.4436 0.0620
0 8 7 -19.6624 0.0170
0 8 8 8.7951 0.0279
0 8 9 -44.3758 -0.0315
0 8 10 29.4970 0.0454
0 8 11 10.3650 0.0163
0 8 12 -22.8310 0.0144
0 8 13 17.9858 -0.0176
0 8 14 11.0936 0.0133
0 8 15 -15.8999 0.0127
0 8 16 0.4373 0.0407
0 8 17 -2.8825 -0.0562
0 8 18 -10.1795 -0.0946
0 8 19 -4.3323 0.0482
0 8 20 9.3805 0.0267
0 8 21 2.1805 0.2014
0 9 1 -0.1259 -14.2081
0 9 2 -0.0600 -38.4872
0 9 3 -0.0065 31.3551
0 9 4 0.0153 54.0199
0 9 5 0.0970 4.2295
0 9 6 -0.0112 -29.6958
0 9 7 0.0060 13.4051
0 9 8 -0.0515 -33.1125
0 9 9 -0.0604 20.5293
0 9 10 0.0588 66.5769
0 9 11 -0.0570 -40.3264
0 9 12 0.0076 6.1116
0 9 13 -0.0091 -0.8035
0 9 14 -0.0101 -18.2775
0 9 15 0.0793 25.0360
0 9 16 -0.0072 7.9392
0 9 17 0.0507 -16.8957
0 9 18 -0.0171 -3.0723
0 9 19 0.0228 1.7767
0 9 20 0.1036 9.5256
0 9 21 -0.0828 -4.7282
0 10 0 -28.2287 0.0676
0 10 1 26.6609 0.0751
0 10 2 20.9444 -0.0440
0 10 3 -37.5697 0.0357
0 10 4 10.7957 -0.1042
0 10 5 -15.0991 -0.0239
0 10 6 -0.8356 0.0006
0 10 7 65.6442 -0.0316
0 10 8 38.3116 0.0014
0 10 9 -31.2980 -0.0332
0 10 10 -15.8556 0.0295
0 10 11 -14.1799 0.0078
0 10 12 -18.7253 0.0374
0 10 13 34.0453 0.0003
0 10 14 2.1088 -0.0499
0 10 15 -17.3926 -0.0518
0 10 16 -0.8709 -0.0951
0 10 17 4.9368 0.0353
0 10 18 7.1642 -0.0023
0 10 19 -0.1424 -0.0172
0 10 20 -5.5796 -0.1148
0 11 1 0.1171 -1.0691
0 11 2 -0.0530 9.6112
0 11 3 -0.0218 21.8106
0 11 4 0.0098 -46.0721
0 11 5 -0.0936 -63.4438
0 11 6 0.0836 24.2469
0 11 7 0.0092 4.9063
0 11 8 0.0537 34.4778
0 11 9 0.0156 22.1623
0 11 10 0.0084 -26.8034
0 11 11 0.0637 -25.5932
0 11 12 -0.0856 -8.5301
0 11 13 0.0228 25.1423
0 11 14 -0.0521 -2.7393
0 11 15 -0.0104 0.7936
0 11 16 0.0357 -0.3795
0 11 17 0.0237 -6.1121
0 11 18 0.0577 9.4915
0 11 19 -0.1517 9.9659
0 11 20 -0.0512 -4.6386
0 12 0 45.6277 -0.0664
0 12 1 -6.8964 -0.0378
0 12 2 -36.6595 0.0167
0 12 3 4.6938 0.0024
0 12 4 -13.3669 0.0455
0 12 5 2.0375 -0.0095
0 12 6 33.6466 0.0133
0 12 7 -12.2857 0.0243
0 12 8 -40.0669 0.0255
0 12 9 10.9483 0.0563
0 12 10 0.3063 -0.0144
0 12 11 15.1878 -0.0393
0 12 12 16.5961 0.0046
0 12 13 -1.8377 0.0049
0 12 14 -1.4202 -0.0250
0 12 15 -8.4798 0.0532
0 12 16 15.2877 0.0635
0 12 17 1.7234 0.0454
0 12 18 -6.3518 0.0296
0 12 19 3.8784 0.0798
0 13 1 -0.0386 8.4098
0 13 2 0.0645 28.5046
0 13 3 0.0213 -23.1695
0 13 4 -0.0294 18.2449
0 13 5 0.0203 43.9116
0 13 6 -0.0507 -30.6105
0 13 7 -0.0259 -10.4647
0 13 8 -0.0129 -14.3235
0 13 9 -0.0006 -18.9600
0 13 10 -0.0505 7.1605
0 13 11 -0.0471 25.1054
0 13 12 0.0138 1.0457
0 13 13 0.0215 -12.4679
0 13 14 0.0051 -0.0522
0 13 15 -0.0427 -5.3382
0 13 16 0.0310 0.4434
0 13 17 -0.0455 -0.6526
0 13 18 -0.0078 2.2352
0 14 0 -12.1203 -0.0341
0 14 1 -9.2665 -0.0143
0 14 2 37.6645 0.0085
0 14 3 4.5738 0.0110
0 14 4 -22.0574 -0.0166
0 14 5 1.4996 0.0084
0 14 6 -41.8464 -0.0697
0 14 7 -13.8135 -0.0176
0 14 8 50.7545 -0.0390
0 14 9 7.9587 -0.0674
0 14 10 -5.0164 0.0527
0 14 11 -13.0886 0.0166
0 14 12 -15.5355 -0.0059
0 14 13 -16.8864 0.0071
0 14 14 8.0789 -0.0364
0 14 15 12.1286 -0.0290
0 14 16 -9.5253 -0.1008
0 14 17 4.5431 -0.1025
0 15 1 -0.0253 -6.0561
0 15 2 0.0270 -22.6723
0 15 3 0.0008 7.1679
0 15 4 0.0071 24.6635
0 15 5 0.0127 -3.4846
0 15 6 0.0145 -8.7060
0 15 7 0.0403 0.6945
0 15 8 0.0052 -1.0789
0 15 9 -0.0038 -0.1719
0 15 10 0.0995 24.2606
0 15 11 0.0486 2.8051
0 15 12 -0.0335 -13.1942
0 15 13 -0.0459 -5.9115
0 15 14 0.0043 -1.4400
0 15 15 -0.0016 -5.5381
0 15 16 0.0134 7.8757
0 16 0 -25.4158 0.0127
0 16 1 4.9556 0.0343
0 16 2 -2.2725 0.0170
0 16 3 13.0056 -0.0271
0 16 4 24.9546 0.0539
0 16 5 3.1570 0.0203
0 16 6 4.4733 0.0456
0 16 7 -14.0509 0.0032
0 16 8 -4.3261 0.0305
0 16 9 9.7206 0.0496
0 16 10 -5.9439 -0.0150
0 16 11 6.9605 0.0291
0 16 12 -3.8559 0.0796
0 16 13 1.3055 0.0460
0 16 14 7.6896 -0.0155
0 17 1 0.0267 -3.3787
0 17 2 -0.0662 -21.0943
0 17 3 -0.0398 -8.7533
0 17 4 -0.0458 2.0354
0 17 5 -0.0318 18.7323
0 17 6 -0.0141 6.3146
0 17 7 -0.0654 -5.0609
0 17 8 0.0831 -2.1154
0 17 9 0.0257 -9.0797
0 17 10 -0.0542 1.5270
0 17 11 -0.0016 10.4162
0 17 12 -0.0122 -7.1883
0 17 13 -0.0138 -2.0038
0 18 0 -13.3789 0.0705
0 18 1 -7.7741 0.0422
0 18 2 4.4955 -0.1083
0 18 3 -1.1577 0.0758
0 18 4 2.0589 -0.1074
0 18 5 -1.7528 -0.0693
0 18 6 -14.6946 -0.0702
0 18 7 1.4568 -0.0089
0 18 8 10.8877 -0.0576
0 18 9 3.6018 -0.1075
0 18 10 -3.8828 0.0432
0 18 11 -4.9394 -0.0094
0 19 1 -0.0017 8.6279
0 19 2 0.0381 -0.7588
0 19 3 0.0253 -2.8563
0 19 4 0.1318 8.1685
0 19 5 -0.0176 -7.9663
0 19 6 0.0126 -5.8775
0 19 7 0.0302 -4.2911
0 19 8 -0.1182 -4.5353
0 19 9 -0.0528 6.1920
0 20 0 0.7066 -0.2413
0 20 1 -8.8631 -0.0756
0 20 2 3.3772 0.0954
0 20 3 -2.4060 -0.0544
0 20 4 0.1445 0.1819
0 20 5 -0.1766 0.1044
1 0 3 1.0621 105.8108
1 0 4 27.1789 1.6400
1 0 5 -0.5968 -74.5401
1 0 6 13.0928 -0.0651
1 0 7 -1.0304 -20.5903
1 0 8 -10.1650 -2.0514
1 0 9 -0.2952 18.9300
1 0 10 -4.4001 -0.2051
1 0 11 0.4547 12.3868
1 0 12 -22.6540 1.6720
1 0 13 1.0093 32.4630
1 0 14 0.9009 0.0360
1 0 15 0.4356 2.0022
1 0 16 9.4885 -0.7780
1 0 17 -1.2022 -11.7389
1 0 18 -6.8196 0.1560
1 0 19 -0.8672 16.7421
1 0 20 -10.3289 -0.2396
1 0 21 0.9803 11.1446
1 0 22 -1.1942 -0.2122
1 0 23 0.4702 -9.2985
1 1 3 -29.3421 7.3298
1 1 4 55.5381 -16.1331
1 1 5 -58.2352 38.2762
1 1 6 -28.7641 -0.2778
1 1 7 34.2797 -19.6876
1 1 8 0.9912 18.8131
1 1 9 17.1702 30.7760
1 1 10 22.9742 -9.2125
1 1 11 -15.7047 -4.4056
1 1 12 -19.5016 0.2124
1 1 13 20.3243 -19.0100
1 1 14 23.1028 1.8872
1 1 15 -13.6518 26.2949
1 1 16 25.8841 -4.6638
1 1 17 -5.2215 6.8792
1 1 18 -6.3326 6.0797
1 1 19 9.9436 -4.6722
1 1 20 4.8186 -0.5848
1 1 21 -8.6720 -1.3118
1 1 22 -1.4972 -4.2264
1 1 23 -2.6484 0.1964
1 2 1 -5.0772 -123.1212
1 2 2 75.1438 -23.4244
1 2 3 32.4078 -14.7504
1 2 4 -53.3527 52.9242
1 2 5 -13.2626 53.3670
1 2 6 18.8972 21.8860
1 2 7 -5.5862 -66.5865
1 2 8 9.6995 -22.1339
1 2 9 22.9763 43.0750
1 2 10 -23.1860 -15.9020
1 2 11 -17.3131 -18.8368
1 2 12 43.6666 3.5761
1 2 13 -2.7495 -50.9695
1 2 14 -7.9980 -11.2366
1 2 15 18.6004 35.7657
1 2 16 -13.2113 7.0387
1 2 17 -13.7926 -7.5347
1 2 18 13.8598 9.6114
1 2 19 -3.2778 -17.5696
1 2 20 3.0682 -2.9622
1 2 21 2.3224 0.9683
1 2 22 1.1911 5.5350
1 2 23 -1.8857 -2.9197
1 3 0 0.3239 -89.6597
1 3 1 -128.9856 37.3891
1 3 2 89.6045 25.9209
1 3 3 125.0827 5.3356
1 3 4 -36.2771 33.0891
1 3 5 -11.7665 -19.5471
1 3 6 -23.2273 -48.7651
1 3 7 -26.6128 -7.2032
1 3 8 -24.3805 21.8089
1 3 9 40.4311 -23.9278
1 3 10 -8.6260 -1.1459
1 3 11 -61.2422 26.3780
1 3 12 32.6935 -23.4292
1 3 13 5.3340 -3.2505
1 3 14 -24.9550 29.4478
1 3 15 42.1686 -20.6397
1 3 16 -13.3855 -6.8078
1 3 17 -30.3134 4.5728
1 3 18 4.3530 -16.3432
1 3 19 4.6611 -2.2219
1 3 20 -4.0084 12.8125
1 3 21 12.6271 2.0154
1 3 22 -2.1015 -1.7534
1 3 23 -2.8937 -0.7382
1 4 0 0.5470 -11.9969
1 4 1 14.3169 -42.1491
1 4 2 -0.9038 43.9383
1 4 3 -47.1874 -41.8259
1 4 4 -4.1375 23.4044
1 4 5 -1.1755 34.2684
1 4 6 -7.6493 -31.1225
1 4 7 7.0340 7.3484
1 4 8 23.2152 7.3375
1 4 9 -8.6939 -1.4193
1 4 10 -17.0732 -2.3197
1 4 11 17.0500 43.2073
1 4 12 -18.1120 4.9935
1 4 13 -10.2836 -21.2583
1 4 14 16.7212 24.6593
1 4 15 -13.2942 -7.9001
1 4 16 -12.3512 -20.6053
1 4 17 19.7466 17.5556
1 4 18 4.4359 -9.7683
1 4 19 2.9562 -8.3871
1 4 20 -1.2799 10.5693
1 4 21 -4.6615 10.9844
1 4 22 -8.1325 -7.3888
1 4 23 3.8829 1.6253
1 5 0 -0.1061 48.7888
1 5 1 42.5209 -8.5719
1 5 2 -62.4975 -7.2246
1 5 3 -33.9202 -2.6683
1 5 4 -18.2332 -14.1565
1 5 5 41.4126 -9.2937
1 5 6 8.5502 21.5647
1 5 7 3.2100 14.7378
1 5 8 43.4862 -6.5119
1 5 9 -22.3301 17.2786
1 5 10 11.0317 8.0136
1 5 11 35.6742 -26.6930
1 5 12 -24.1063 7.7709
1 5 13 -16.3686 14.8099
1 5 14 2.1913 -18.3751
1 5 15 -21.5242 6.5862
1 5 16 3.5503 2.1091
1 5 17 18.4677 -8.6317
1 5 18 11.8178 11.5193
1 5 19 -1.8597 11.7625
1 5 20 -2.4794 -3.3651
1 5 21 -5.7023 -6.1673
1 5 22 -2.7215 -2.7601
1 5 23 -3.7132 -0.0214
1 6 0 0.0876 68.5025
1 6 1 -10.4897 58.2177
1 6 2 -15.8288 -23.5398
1 6 3 30.5804 11.8359
1 6 4 20.2465 -54.1177
1 6 5 12.4785 -25.9778
1 6 6 -6.5026 -7.0236
1 6 7 5.6336 51.3329
1 6 8 -31.5570 -16.6299
1 6 9 -6.7805 -34.3808
1 6 10 30.1599 29.8256
1 6 11 -12.8217 -45.5684
1 6 12 3.2523 16.1449
1 6 13 15.3431 55.3373
1 6 14 -19.8922 -37.7029
1 6 15 5.6451 -9.5565
1 6 16 20.0496 8.6803
1 6 17 -16.0889 -18.0281
1 6 18 -7.6522 18.3521
1 6 19 -5.1923 13.2455
1 6 20 -0.8525 -6.9752
1 6 21 0.8487 -9.8603
1 6 22 6.2478 2.6259
1 7 0 -0.1888 -6.0686
1 7 1 7.0151 -18.3085
1 7 2 -21.7548 -16.7904
1 7 3 -25.9594 1.9738
1 7 4 47.1111 10.0961
1 7 5 8.8173 21.5649
1 7 6 -3.3631 17.4390
1 7 7 -31.9744 -20.1502
1 7 8 -24.9560 -30.6952
1 7 9 -35.1792 3.3958
1 7 10 31.2922 -8.6473
1 7 11 42.7839 18.0176
1 7 12 -20.5530 17.1633
1 7 13 11.7772 -26.4660
1 7 14 -3.8725 -2.8520
1 7 15 -13.5307 13.0608
1 7 16 29.5063 4.4885
1 7 17 2.6118 9.1537
1 7 18 -26.3222 -6.0828
1 7 19 -3.5810 -16.8796
1 7 20 1.5828 -3.7983
1 7 21 6.5840 6.2055
1 7 22 5.0741 6.0872
1 8 0 0.3027 16.5217
1 8 1 -12.7284 -13.3527
1 8 2 5.0828 -36.1278
1 8 3 25.6837 -2.5269
1 8 4 5.4738 22.9916
1 8 5 -43.2601 19.9525
1 8 6 -9.7603 70.9055
1 8 7 -5.7281 -22.7135
1 8 8 19.2993 -31.6046
1 8 9 32.6657 -26.3752
1 8 10 1.4701 -8.2923
1 8 11 -24.3606 23.1882
1 8 12 -11.5449 5.0676
1 8 13 3.4192 -6.6605
1 8 14 17.8818 -16.6805
1 8 15 10.2770 -5.0376
1 8 16 -10.1088 25.6898
1 8 17 -9.3615 9.5850
1 8 18 -1.0587 -7.8140
1 8 19 13.2017 -9.9903
1 8 20 6.8835 -14.3763
1 8 21 1.2983 3.4380
1 9 0 -0.3391 -5.2641
1 9 1 -13.0474 -32.9128
1 9 2 -20.5798 17.0408
1 9 3 38.5907 9.0122
1 9 4 44.7497 -6.1392
1 9 5 -27.7145 13.7018
1 9 6 -24.5151 -26.0925
1 9 7 5.7222 -27.6445
1 9 8 -24.2833 26.2086
1 9 9 48.3885 17.5808
1 9 10 0.8076 16.8506
1 9 11 -22.1673 -9.0139
1 9 12 -15.7182 -20.0663
1 9 13 -20.9314 -7.1537
1 9 14 25.5024 -0.4482
1 9 15 8.8121 13.1965
1 9 16 -8.1391 2.2077
1 9 17 -1.0436 -14.3715
1 9 18 -15.5791 0.0082
1 9 19 3.7579 4.7359
1 9 20 10.3279 5.9105
1 9 21 -3.0530 4.1361
1 10 0 0.3470 33.2754
1 10 1 -9.2797 -22.3861
1 10 2 2.4792 -2.8405
1 10 3 9.0687 -0.8128
1 10 4 -23.2775 -27.8212
1 10 5 16.1934 2.3732
1 10 6 14.9613 -3.3572
1 10 7 0.2175 -6.5085
1 10 8 -0.5097 9.9656
1 10 9 -12.3955 34.6823
1 10 10 -20.5516 1.8830
1 10 11 1.9637 7.6183
1 10 12 3.1463 -10.5071
1 10 13 9.9742 -7.5084
1 10 14 -6.4595 -1.4542
1 10 15 -8.8622 -0.1123
1 10 16 2.2590 11.8418
1 10 17 -2.7372 -3.6544
1 10 18 3.6648 -3.7415
1 10 19 2.0010 7.9489
1 10 20 -3.6095 -2.7427
1 11 0 -0.4741 9.4959
1 11 1 -1.5390 12.1730
1 11 2 -24.2031 -10.9085
1 11 3 -22.1856 -9.7248
1 11 4 -11.2830 3.8801
1 11 5 35.3322 -3.5380
1 11 6 27.7103 18.1143
1 11 7 8.6729 18.7185
1 11 8 5.9894 -15.0883
1 11 9 -34.1832 -11.2814
1 11 10 5.8270 -8.4275
1 11 11 0.5010 3.1767
1 11 12 11.0582 8.2480
1 11 13 8.8904 9.6119
1 11 14 -3.8209 1.0407
1 11 15 1.5491 -3.0345
1 11 16 1.3530 -2.1152
1 11 17 4.3801 -1.3050
1 11 18 -2.8751 -1.1820
1 11 19 -5.4438 0.0170
1 11 20 3.1263 -3.8226
1 12 0 0.3421 17.4149
1 12 1 9.6490 33.8980
1 12 2 -14.7923 -8.5769
1 12 3 -2.3379 -8.8342
1 12 4 34.0115 -6.5674
1 12 5 -14.6814 -21.7026
1 12 6 -16.2697 10.4358
1 12 7 1.2200 27.7350
1 12 8 -6.1953 -14.2805
1 12 9 10.5133 -20.0675
1 12 10 25.8995 -3.2000
1 12 11 2.0840 -17.8531
1 12 12 -2.3913 14.6322
1 12 13 -5.8301 2.7706
1 12 14 3.6093 2.8267
1 12 15 -4.6555 -2.7418
1 12 16 2.1024 0.0660
1 12 17 3.1325 5.8697
1 12 18 -5.5149 -4.8990
1 12 19 3.1416 2.8529
1 13 0 -0.3085 12.8681
1 13 1 20.6546 -9.3076
1 13 2 -4.9084 -3.9634
1 13 3 -13.4241 15.9387
1 13 4 15.2738 -9.0067
1 13 5 -26.7548 3.2019
1 13 6 -18.6054 1.9731
1 13 7 1.4916 -20.2535
1 13 8 -7.0241 -1.7736
1 13 9 12.4529 9.5603
1 13 10 7.0603 3.5369
1 13 11 3.6318 1.2255
1 13 12 -10.6605 3.8285
1 13 13 2.5786 -4.2688
1 13 14 -2.2008 -5.2872
1 13 15 -1.9677 2.2491
1 13 16 -0.2313 4.7243
1 13 17 3.4965 -2.5371
1 13 18 1.9291 5.0572
1 14 0 0.2839 -12.8262
1 14 1 -6.8991 -2.8203
1 14 2 -1.9533 7.7974
1 14 3 3.0289 28.3816
1 14 4 -14.4448 9.4241
1 14 5 3.7333 3.1561
1 14 6 8.7293 -8.4465
1 14 7 -1.1057 -32.1420
1 14 8 -0.3396 9.6254
1 14 9 -3.8488 13.4528
1 14 10 -11.4854 1.7660
1 14 11 -3.2176 10.2605
1 14 12 -2.5570 -6.4769
1 14 13 3.2589 -0.1822
1 14 14 -3.1974 -7.9509
1 14 15 7.6475 3.1708
1 14 16 2.7057 -5.6990
1 14 17 -2.3791 -5.1866
1 15 0 -0.3897 -3.8793
1 15 1 0.5777 1.2726
1 15 2 26.3455 -0.6505
1 15 3 1.1413 -12.6870
1 15 4 -20.5925 4.6365
1 15 5 6.5511 -2.2595
1 15 6 8.2260 2.3854
1 15 7 0.9807 13.8387
1 15 8 5.7173 -3.8729
1 15 9 -2.9298 -8.5774
1 15 10 -12.0726 1.3094
1 15 11 -1.3518 -0.6828
1 15 12 8.4708 -3.6431
1 15 13 -5.9050 -3.1538
1 15 14 -3.0671 -0.6902
1 15 15 -0.9657 -1.6694
1 15 16 5.0912 -0.7815
1 16 0 0.2197 -24.5446
1 16 1 3.5013 7.9395
1 16 2 2.8659 1.9656
1 16 3 -1.1182 -22.6445
1 16 4 14.4516 11.3022
1 16 5 1.0647 -5.5139
1 16 6 -12.1624 -1.8209
1 16 7 0.1769 35.3531
1 16 8 1.5139 -0.7933
1 16 9 0.2357 -14.0820
1 16 10 11.7036 -6.0618
1 16 11 2.3094 -2.9245
1 16 12 -4.4158 3.9446
1 16 13 -4.9255 4.9701
1 16 14 5.5738 5.8491
1 17 0 -0.1422 3.7433
1 17 1 -4.0881 3.7750
1 17 2 4.3581 -2.0164
1 17 3 -10.0010 10.0638
1 17 4 6.5204 1.6676
1 17 5 25.1578 -1.0637
1 17 6 -6.9320 5.2078
1 17 7 -5.2478 -4.1993
1 17 8 -3.1727 -7.7530
1 17 9 -14.0594 4.8281
1 17 10 7.3004 5.4630
1 17 11 14.3463 2.9087
1 17 12 -0.3072 3.3917
1 17 13 -4.0657 3.5057
1 18 0 0.2501 6.2181
1 18 1 3.6281 2.6479
1 18 2 -6.8844 0.1221
1 18 3 -6.2193 -3.9603
1 18 4 -0.6526 -3.7708
1 18 5 -1.1808 -3.2573
1 18 6 0.8889 -2.3996
1 18 7 2.1518 4.4807
1 18 8 -3.4739 -1.0940
1 18 9 -0.8520 -8.1579
1 18 10 1.5535 3.2575
1 18 11 1.2366 0.8195
1 19 0 -0.2154 3.8509
1 19 1 2.2928 1.0029
1 19 2 -7.7464 -3.0885
1 19 3 -4.3013 -5.2630
1 19 4 -4.7678 -6.2682
1 19 5 -1.4933 -2.4283
1 19 6 2.8504 4.0739
1 19 7 -2.2519 0.6074
1 19 8 4.4560 -3.5553
1 19 9 0.7798 -2.7660
1 20 0 0.0306 6.4584
1 20 1 -3.1352 2.5707
1 20 2 0.8508 1.6603
1 20 3 4.5198 3.2105
1 20 4 3.7687 -3.4218
1 20 5 1.8942 -0.0812
2 0 2 -28.6218 -0.4843
2 0 3 0.6168 -162.8754
2 0 4 -94.1203 1.4709
2 0 5 -1.9413 72.1281
2 0 6 46.2212 0.3287
2 0 7 -0.7274 25.0107
2 0 8 -16.1850 -1.0239
2 0 9 1.4170 -36.6797
2 0 10 16.1575 -0.6015
2 0 11 1.2169 71.8762
2 0 12 27.2225 0.0774
2 0 13 -1.0382 -58.9633
2 0 14 -34.3924 0.6140
2 0 15 -0.9054 -15.5298
2 0 16 10.5552 0.7105
2 0 17 0.2816 41.1067
2 0 18 3.3042 -0.4131
2 0 19 0.2775 -22.5738
2 0 20 -17.7355 -0.8406
2 0 21 0.4208 -9.2162
2 0 22 0.8929 0.6129
2 0 23 0.0974 1.3777
2 1 1 -88.7257 -67.9315
2 1 2 66.2693 102.3407
2 1 3 -6.2336 24.4451
2 1 4 41.4633 -36.7953
2 1 5 58.4939 36.0986
2 1 6 -39.2119 -12.9824
2 1 7 -52.9870 -21.7167
2 1 8 47.4789 11.6759
2 1 9 20.8688 -11.6262
2 1 10 -33.6430 -24.7024
2 1 11 1.4185 2.2936
2 1 12 -7.8955 24.0234
2 1 13 -32.0857 -15.1097
2 1 14 44.0998 3.3273
2 1 15 30.8283 4.2391
2 1 16 -18.1378 -11.0049
2 1 17 -8.6726 11.2547
2 1 18 -14.8667 13.5723
2 1 19 -16.2482 -6.6668
2 1 20 -1.5539 -4.6582
2 1 21 15.3115 7.9156
2 1 22 -3.8149 -4.3869
2 1 23 -5.7340 3.5583
2 2 0 -25.5480 0.2820
2 2 1 58.4230 -56.3044
2 2 2 -14.4355 -29.4512
2 2 3 69.9368 35.8847
2 2 4 12.2710 51.2611
2 2 5 -29.4550 -7.5363
2 2 6 5.6033 -11.3776
2 2 7 -31.3965 -8.3540
2 2 8 -10.7244 -17.9603
2 2 9 13.6461 -14.8037
2 2 10 2.4968 40.5241
2 2 11 -4.7307 -10.3721
2 2 12 -4.8629 -19.3402
2 2 13 6.3423 22.5770
2 2 14 1.3464 -8.0428
2 2 15 18.2799 6.4869
2 2 16 8.1071 26.6355
2 2 17 -9.4464 -2.1715
2 2 18 -4.9120 -6.8769
2 2 19 3.8904 -8.4267
2 2 20 1.9981 -0.5452
2 2 21 5.4877 8.9199
2 2 22 7.2275 1.6841
2 2 23 -7.7371 12.3571
2 3 0 54.9900 0.0633
2 3 1 68.2994 -22.1796
2 3 2 -26.9815 -88.6683
2 3 3 30.9001 32.1722
2 3 4 -40.0465 -3.3920
2 3 5 -42.4876 36.2558
2 3 6 -7.8632 22.9726
2 3 7 23.7766 -13.6706
2 3 8 0.7367 -3.6437
2 3 9 11.8315 -6.8288
2 3 10 34.0060 12.7866
2 3 11 -5.6003 5.7943
2 3 12 -21.2257 -10.1464
2 3 13 26.9832 -4.9319
2 3 14 -18.9695 -18.8300
2 3 15 -10.4935 6.1482
2 3 16 16.5576 9.1473
2 3 17 -10.9480 -2.7914
2 3 18 6.3696 -1.9426
2 3 19 20.2108 -2.7111
2 3 20 5.5208 -4.4395
2 3 21 0.6572 2.6496
2 3 22 -4.1291 1.8222
2 3 23 -4.0444 -3.6908
2 4 0 -64.6485 -0.2536
2 4 1 -16.8312 12.8550
2 4 2 -0.1475 53.7040
2 4 3 -19.3666 -4.7828
2 4 4 46.2076 -43.0135
2 4 5 -9.5002 13.4486
2 4 6 8.1569 -21.5877
2 4 7 -5.2184 -18.0707
2 4 8 -1.2052 5.4151
2 4 9 12.6707 25.3660
2 4 10 -5.1661 -23.9541
2 4 11 1.4090 10.8580
2 4 12 -14.0976 21.6061
2 4 13 -13.1538 -30.6438
2 4 14 2.9672 3.6984
2 4 15 -10.3821 8.9287
2 4 16 4.3611 -39.2532
2 4 17 4.3012 -7.6570
2 4 18 -2.1240 11.3879
2 4 19 -1.9163 2.4126
2 4 20 -0.1687 8.7228
2 4 21 -7.3183 0.8885
2 4 22 -1.4522 -7.2719
2 4 23 3.5538 -8.9872
2 5 0 0.1094 -0.0432
2 5 1 -44.7635 38.9587
2 5 2 -10.3635 4.0267
2 5 3 -18.2250 -22.9287
2 5 4 -1.6093 -4.5429
2 5 5 21.1722 -30.5046
2 5 6 40.9690 18.2742
2 5 7 -22.3923 -13.2908
2 5 8 -13.1545 13.5911
2 5 9 -7.2111 0.4548
2 5 10 -31.6855 -10.0023
2 5 11 -2.7520 20.9591
2 5 12 41.1891 5.8566
2 5 13 -28.9360 7.2470
2 5 14 -14.9421 10.7988
2 5 15 6.0884 -17.2098
2 5 16 -9.0599 -6.7003
2 5 17 15.0248 1.0530
2 5 18 14.3548 0.6253
2 5 19 -17.0882 9.1094
2 5 20 -18.9657 2.3455
2 5 21 -3.9603 -5.5545
2 5 22 3.8821 0.7896
2 6 0 35.4482 -0.1407
2 6 1 -16.1513 3.7211
2 6 2 4.4874 -9.1437
2 6 3 -21.2088 -5.7949
2 6 4 -11.3579 -22.7225
2 6 5 4.8843 10.9688
2 6 6 -4.5397 35.9375
2 6 7 21.3432 23.2371
2 6 8 -21.3081 33.0098
2 6 9 13.8609 -45.7531
2 6 10 2.1707 -19.5957
2 6 11 3.7247 3.8372
2 6 12 28.4001 -1.4071
2 6 13 -9.7385 37.7572
2 6 14 -7.4188 10.2496
2 6 15 5.8234 -31.0203
2 6 16 -14.0653 14.2981
2 6 17 9.7829 13.5645
2 6 18 6.6421 7.0602
2 6 19 -2.4692 5.1894
2 6 20 1.9486 -11.2043
2 6 21 2.9214 -9.2963
2 6 22 0.4369 -0.0161
2 7 0 34.6227 -0.1705
2 7 1 24.5178 -16.2537
2 7 2 -13.7091 3.2418
2 7 3 25.1685 12.2525
2 7 4 10.3518 25.5430
2 7 5 -6.5904 -8.5942
2 7 6 12.8846 -5.5337
2 7 7 -17.2828 5.7782
2 7 8 -24.0900 -24.5107
2 7 9 10.2196 13.4821
2 7 10 23.4838 -15.9541
2 7 11 36.7370 -12.6165
2 7 12 -15.9804 -1.6381
2 7 13 5.4005 -2.5986
2 7 14 1.8578 16.2465
2 7 15 -10.0604 6.2433
2 7 16 16.4501 -1.1834
2 7 17 2.5273 1.0313
2 7 18 -21.8007 -10.3304
2 7 19 2.5889 -2.5209
2 7 20 7.7532 3.1881
2 7 21 6.9847 -0.3414
2 7 22 4.6692 -0.0413
2 8 0 -36.1785 -0.2003
2 8 1 39.1238 -20.7717
2 8 2 19.5998 22.1506
2 8 3 12.6463 16.8459
2 8 4 4.9652 -4.8566
2 8 5 -10.3002 -10.1688
2 8 6 -36.5514 -7.2398
2 8 7 13.6930 -25.3649
2 8 8 16.6725 -19.6654
2 8 9 -35.3587 24.1373
2 8 10 10.7725 -2.9038
2 8 11 -13.0166 -4.9545
2 8 12 -7.3707 12.5993
2 8 13 27.4623 -13.7979
2 8 14 6.4059 -17.2935
2 8 15 -10.5665 18.3565
2 8 16 -5.6978 -6.4527
2 8 17 -8.6562 -9.9725
2 8 18 2.0313 2.6191
2 8 19 0.4215 0.3110
2 8 20 2.8336 -4.0455
2 8 21 -4.4246 4.8006
2 9 0 -3.4231 -0.4222
2 9 1 18.8751 -16.8191
2 9 2 -12.9200 -25.4607
2 9 3 -29.9531 31.1337
2 9 4 -9.2321 13.3053
2 9 5 -20.0692 -13.5302
2 9 6 5.9931 -4.9524
2 9 7 54.7444 18.8427
2 9 8 -12.9934 -6.1615
2 9 9 -17.2122 17.5825
2 9 10 -5.7857 23.0358
2 9 11 -40.4987 -40.4504
2 9 12 18.7445 2.4467
2 9 13 8.7882 7.5082
2 9 14 -15.0461 -9.7965
2 9 15 0.0810 13.9034
2 9 16 4.1476 -2.0581
2 9 17 4.8764 -10.1252
2 9 18 9.3690 2.1522
2 9 19 -0.1874 5.5373
2 9 20 -4.2516 2.3403
2 9 21 -6.5102 -4.8271
2 10 0 1.1482 -0.0404
2 10 1 6.8568 9.8203
2 10 2 -10.3930 6.7262
2 10 3 -15.8295 20.4264
2 10 4 8.9787 -44.1364
2 10 5 -0.4345 -29.7258
2 10 6 23.4767 36.0422
2 10 7 20.6816 19.2162
2 10 8 -2.4856 24.3821
2 10 9 -19.4979 21.8149
2 10 10 -4.4583 -38.0017
2 10 11 5.9027 -15.6169
2 10 12 -6.4040 18.4306
2 10 13 15.1059 3.8072
2 10 14 -8.6204 6.9654
2 10 15 -9.7254 -11.2170
2 10 16 9.6369 -7.3317
2 10 17 5.9724 -0.1685
2 10 18 0.9658 9.6903
2 10 19 -0.7747 5.3318
2 10 20 -6.7200 -6.2004
2 11 0 44.2517 -0.1603
2 11 1 -15.4075 14.4210
2 11 2 -21.9714 16.7010
2 11 3 13.2098 -14.6300
2 11 4 8.3994 -32.5760
2 11 5 12.6891 -16.0475
2 11 6 35.8819 13.4359
2 11 7 -29.5591 2.4758
2 11 8 -32.8884 20.5566
2 11 9 3.8332 -3.9723
2 11 10 18.6278 -15.6748
2 11 11 17.9515 3.1046
2 11 12 7.3129 3.4975
2 11 13 -2.2077 10.5811
2 11 14 -21.8714 -2.9549
2 11 15 -1.6076 -3.0871
2 11 16 8.3953 -0.4633
2 11 17 -4.7765 0.1429
2 11 18 -7.7185 10.4029
2 11 19 0.4204 1.2690
2 12 0 23.4341 -0.1359
2 12 1 -20.2536 2.8237
2 12 2 -10.9642 22.6312
2 12 3 -6.4807 -31.9581
2 12 4 -12.6106 10.0315
2 12 5 10.2103 31.1602
2 12 6 8.6605 -17.6850
2 12 7 -6.5411 -8.2592
2 12 8 -9.4684 -9.8061
2 12 9 11.1017 -26.7923
2 12 10 -1.7080 9.8678
2 12 11 5.4385 14.1033
2 12 12 5.2523 11.5634
2 12 13 -9.9527 -1.9378
2 12 14 4.0538 -2.0171
2 12 15 -0.3311 11.3240
2 12 16 5.0700 -7.0998
2 12 17 -0.8963 3.7672
2 12 18 -2.8545 -0.0921
2 12 19 1.3025 -6.2437
2 13 0 -12.7088 -0.1242
2 13 1 0.2915 6.1024
2 13 2 17.1091 12.6315
2 13 3 -11.2005 -8.0957
2 13 4 -19.8570 14.3458
2 13 5 2.7860 10.1391
2 13 6 -26.9985 -18.3296
2 13 7 17.1553 -5.4248
2 13 8 30.5025 -13.2860
2 13 9 -3.8812 -1.9629
2 13 10 -10.1321 8.8914
2 13 11 -2.5482 7.7790
2 13 12 -4.1677 -6.8935
2 13 13 4.7090 -7.6488
2 13 14 10.1300 -1.9406
2 13 15 5.1378 -3.2465
2 13 16 -3.5776 4.0836
2 13 17 -2.2122 -1.0855
2 13 18 3.5356 -3.0966
2 14 0 -2.0532 -0.1942
2 14 1 3.7540 -3.9027
2 14 2 16.5922 -15.2248
2 14 3 10.1424 26.8202
2 14 4 -10.1607 3.3741
2 14 5 -8.6134 -38.6614
2 14 6 -20.6781 -1.5420
2 14 7 -5.3958 12.3501
2 14 8 24.1886 3.6758
2 14 9 4.0671 25.0177
2 14 10 0.6707 3.5262
2 14 11 -10.2261 -21.5777
2 14 12 -9.2975 -20.3040
2 14 13 0.1760 2.9060
2 14 14 6.3270 -0.7290
2 14 15 4.1688 0.0693
2 14 16 -4.5595 10.2207
2 14 17 2.7664 -2.4335
2 15 0 -8.3044 -0.1637
2 15 1 19.9461 -11.9476
2 15 2 -5.1295 -4.8555
2 15 3 -2.0181 10.5085
2 15 4 16.5916 11.8147
2 15 5 -13.2593 13.3671
2 15 6 7.7066 -7.2097
2 15 7 11.7652 -6.8168
2 15 8 -7.0542 3.2463
2 15 9 -15.2899 0.9135
2 15 10 -4.9685 10.8433
2 15 11 -5.9100 1.4431
2 15 12 -3.7282 -3.2540
2 15 13 10.0492 -3.0944
2 15 14 8.3355 1.5792
2 15 15 -8.1908 1.7097
2 15 16 0.9806 1.5015
2 16 0 -8.0382 -0.2463
2 16 1 2.7905 -9.3539
2 16 2 -0.8400 -4.1905
2 16 3 11.4992 11.4037
2 16 4 4.3940 9.0672
2 16 5 -0.0353 8.5352
2 16 6 7.2728 -2.3170
2 16 7 -11.0003 -6.4926
2 16 8 -3.1710 -3.7273
2 16 9 5.8728 0.8988
2 16 10 -8.5875 10.4521
2 16 11 4.3902 -4.8217
2 16 12 1.8519 -0.9263
2 16 13 -1.6681 0.9190
2 16 14 -1.0802 1.2745
2 17 0 -0.3437 -0.0770
2 17 1 7.8255 2.8294
2 17 2 8.7233 -10.3185
2 17 3 2.8981 -13.4591
2 17 4 -8.5867 -4.1235
2 17 5 -8.8726 5.4019
2 17 6 -13.1128 4.9437
2 17 7 10.4694 0.1304
2 17 8 14.4275 4.3892
2 17 9 -0.6188 -9.2791
2 17 10 -0.9720 -4.3201
2 17 11 1.9459 5.2834
2 17 12 -1.8534 -3.4885
2 17 13 2.2820 -1.0265
2 18 0 -15.6256 -0.3458
2 18 1 -13.1473 -2.7976
2 18 2 3.5167 5.2900
2 18 3 -4.5118 5.5309
2 18 4 8.6921 0.4850
2 18 5 6.8326 -12.7301
2 18 6 -5.7866 -5.5011
2 18 7 -1.7004 0.2564
2 18 8 2.8827 1.3496
2 18 9 2.5165 8.7612
2 18 10 1.2279 -1.3086
2 18 11 -1.1981 -5.2628
2 19 0 -1.2990 -0.1875
2 19 1 -0.1840 7.2770
2 19 2 0.0492 -10.2240
2 19 3 -1.4161 -1.6497
2 19 4 -0.4608 10.9100
2 19 5 -0.7899 -0.4517
2 19 6 7.9240 -2.1198
2 19 7 4.0816 -1.1369
2 19 8 -4.2638 -6.7137
2 20 0 -3.2660 -0.5339
2 20 1 0.5773 -0.6196
2 20 2 4.8020 -6.9903
2 20 3 -0.3430 2.4695
2 20 4 -1.6277 1.1639
2 20 5 -3.4583 2.3743
3 0 1 0.4187 15.1421
3 0 2 -89.8065 0.4477
3 0 3 0.3267 55.8467
3 0 4 -5.9495 0.6671
3 0 5 -0.4127 -12.6798
3 0 6 41.7327 -0.2172
3 0 7 -0.3872 -36.7041
3 0 8 -13.4828 -1.5720
3 0 9 -0.0351 24.8715
3 0 10 -42.8109 -0.0745
3 0 11 0.1285 -20.3053
3 0 12 -7.3972 1.7513
3 0 13 0.4428 -3.4881
3 0 14 1.0761 0.4796
3 0 15 0.1093 22.4003
3 0 16 -0.8820 -1.0244
3 0 17 -0.6634 -2.5716
3 0 18 -6.1831 -0.8278
3 0 19 -0.3310 2.6378
3 0 20 -16.4527 0.4922
3 0 21 0.7190 -6.9960
3 0 22 0.7580 0.7320
3 0 23 0.1100 -0.4840
3 1 0 -0.3321 8.3541
3 1 1 32.0015 -36.8125
3 1 2 125.3585 28.3506
3 1 3 -18.1866 14.8955
3 1 4 -38.9989 -23.8774
3 1 5 -32.0463 30.9066
3 1 6 -23.3432 -20.4704
3 1 7 10.1042 -7.2277
3 1 8 2.4184 51.7386
3 1 9 8.2724 35.2315
3 1 10 -16.4777 -18.9569
3 1 11 -5.0246 -2.6119
3 1 12 27.5181 -13.6255
3 1 13 8.7022 -16.2511
3 1 14 -0.1703 18.7676
3 1 15 1.1449 29.6226
3 1 16 -10.9021 -10.4378
3 1 17 -5.7274 15.9641
3 1 18 1.5076 3.5306
3 1 19 -0.6096 -0.7831
3 1 20 9.5593 0.3882
3 1 21 -1.1008 -2.0083
3 1 22 -1.2664 -8.0408
3 1 23 2.0663 -0.6787
3 2 0 0.5829 -132.0135
3 2 1 17.9755 18.9466
3 2 2 107.6658 19.3993
3 2 3 10.6902 -4.3703
3 2 4 -72.9804 78.6642
3 2 5 -8.8638 -10.9011
3 2 6 31.9971 -26.3929
3 2 7 1.7447 4.2355
3 2 8 25.0215 2.9563
3 2 9 17.9521 -8.7343
3 2 10 -32.0199 0.3411
3 2 11 -12.6198 19.0662
3 2 12 60.2060 -24.7392
3 2 13 -7.0108 -2.3593
3 2 14 -8.5828 16.8139
3 2 15 22.0208 -9.3874
3 2 16 -19.8244 5.5819
3 2 17 -7.4656 0.7241
3 2 18 23.6025 -12.2503
3 2 19 -8.3471 -2.3987
3 2 20 3.5335 7.1624
3 2 21 -0.8888 4.1544
3 2 22 1.0310 5.8697
3 2 23 1.8540 -1.3232
3 3 0 1.1244 -132.3124
3 3 1 -31.4057 57.7312
3 3 2 17.8813 25.9278
3 3 3 13.5393 10.3360
3 3 4 -2.2438 40.6773
3 3 5 27.0502 -33.9391
3 3 6 -15.8581 -63.7392
3 3 7 5.8986 -10.3078
3 3 8 18.0489 21.7624
3 3 9 -4.5384 -30.0825
3 3 10 -9.9672 -0.6997
3 3 11 -5.3200 29.8721
3 3 12 -14.4169 -21.1492
3 3 13 -8.8880 -2.5289
3 3 14 16.8760 32.5944
3 3 15 -1.9183 -34.8393
3 3 16 -4.2843 -12.9596
3 3 17 6.0802 5.4043
3 3 18 5.4813 -11.5532
3 3 19 3.2878 0.8032
3 3 20 -3.8053 17.0537
3 3 21 -3.0208 -3.6720
3 3 22 -6.3312 -1.3358
3 3 23 1.1994 -1.0358
3 4 0 0.2994 46.5057
3 4 1 9.0183 -46.7446
3 4 2 -0.4072 3.7991
3 4 3 -54.3923 -37.4198
3 4 4 -1.0722 -31.4232
3 4 5 -7.2453 12.4457
3 4 6 -15.6719 -0.8952
3 4 7 3.8379 22.0158
3 4 8 16.6613 -1.6323
3 4 9 0.7098 15.0042
3 4 10 -13.0421 3.0515
3 4 11 17.4535 -18.9620
3 4 12 -27.0180 15.9935
3 4 13 -19.2829 -0.3641
3 4 14 9.7751 -12.1240
3 4 15 -11.3818 1.2899
3 4 16 -5.0017 -12.7843
3 4 17 20.9124 -2.7681
3 4 18 3.7475 18.1047
3 4 19 -1.7933 5.1439
3 4 20 -5.5899 -2.0016
3 4 21 -2.1050 -5.1839
3 4 22 -7.2547 -9.0315
3 4 23 2.2607 2.3555
3 5 0 0.2934 78.7021
3 5 1 -13.3796 -22.8438
3 5 2 -33.1453 -7.6943
3 5 3 5.2183 -7.7995
3 5 4 -11.4816 -6.7762
3 5 5 26.4163 -1.3493
3 5 6 17.5537 42.2994
3 5 7 -14.6121 3.8022
3 5 8 -13.0871 -16.5006
3 5 9 -19.9024 21.1583
3 5 10 26.8989 8.2690
3 5 11 12.2164 -19.5010
3 5 12 8.1460 15.9534
3 5 13 3.5945 7.2530
3 5 14 -36.1686 -28.7531
3 5 15 1.1069 14.7994
3 5 16 18.3493 1.6850
3 5 17 -0.1652 -3.1938
3 5 18 0.9315 9.9820
3 5 19 -5.1584 4.2079
3 5 20 -10.0365 -6.9686
3 5 21 5.8886 -2.1792
3 5 22 10.1710 -4.9104
3 6 0 0.3089 11.7245
3 6 1 -17.9762 34.6382
3 6 2 -17.6153 -1.7451
3 6 3 52.5601 8.0722
3 6 4 31.1159 -3.3506
3 6 5 7.2774 4.2666
3 6 6 -20.5306 2.6219
3 6 7 8.9243 9.0706
3 6 8 -35.8207 -14.7032
3 6 9 1.0994 -38.0913
3 6 10 42.4922 -1.0138
3 6 11 -27.0547 10.3192
3 6 12 3.8120 17.6732
3 6 13 26.0689 14.4048
3 6 14 -18.6600 -1.8582
3 6 15 12.9462 -5.6811
3 6 16 16.6219 0.3686
3 6 17 -29.0827 2.6612
3 6 18 -8.3025 -3.9381
3 6 19 1.8045 -6.0747
3 6 20 3.5692 -5.1291
3 6 21 2.3740 3.8080
3 6 22 4.3306 6.2590
3 7 0 0.7628 -32.4384
3 7 1 23.0707 -31.2911
3 7 2 1.3409 -22.8767
3 7 3 -1.1067 8.8708
3 7 4 11.4473 16.3685
3 7 5 -26.4987 31.3132
3 7 6 -9.8287 6.2050
3 7 7 -15.2560 -25.2227
3 7 8 12.2309 -41.3921
3 7 9 16.9373 19.8809
3 7 10 -8.7503 -8.3562
3 7 11 15.1674 12.3372
3 7 12 -12.9604 14.6485
3 7 13 -3.7478 -34.2542
3 7 14 24.9948 5.7524
3 7 15 -12.8414 27.2060
3 7 16 -12.7194 8.4740
3 7 17 -0.8964 1.8410
3 7 18 -6.9548 -7.8774
3 7 19 7.8627 -17.5740
3 7 20 11.0407 1.7282
3 7 21 -4.1625 9.4217
3 7 22 -3.4354 8.9367
3 8 0 0.4548 -18.1329
3 8 1 -18.9430 -26.6251
3 8 2 19.1013 4.1071
3 8 3 34.7555 12.1443
3 8 4 -6.0995 2.1489
3 8 5 -50.6232 14.4920
3 8 6 -7.7832 -6.2790
3 8 7 -3.1197 -25.4413
3 8 8 29.8944 25.2413
3 8 9 28.9632 10.4311
3 8 10 -4.8811 4.0846
3 8 11 -32.7597 -3.4040
3 8 12 -12.1360 -30.1068
3 8 13 13.8626 2.1885
3 8 14 21.2438 6.6990
3 8 15 3.4786 7.6069
3 8 16 -8.8224 10.9090
3 8 17 -10.9696 -12.7400
3 8 18 0.1640 -4.5217
3 8 19 16.6063 6.3726
3 8 20 4.5790 0.6758
3 8 21 -3.3333 0.1243
3 9 0 0.5840 7.3702
3 9 1 -23.1999 -48.3793
3 9 2 16.8898 24.7073
3 9 3 14.6881 1.7122
3 9 4 -11.3482 -9.5744
3 9 5 12.4196 17.6378
3 9 6 18.0781 -26.2580
3 9 7 2.4473 -34.6938
3 9 8 -10.2768 36.8679
3 9 9 -5.7622 14.3493
3 9 10 -21.2470 22.9948
3 9 11 -7.1372 -17.9822
3 9 12 19.5074 -19.2763
3 9 13 4.2616 -9.4144
3 9 14 -0.0513 -12.7786
3 9 15 3.1714 14.7256
3 9 16 -0.1434 -0.9222
3 9 17 2.8007 -18.5783
3 9 18 0.8548 5.2003
3 9 19 -1.2212 4.6696
3 9 20 -6.2646 1.0052
3 9 21 -3.0000 5.6801
3 10 0 0.3508 7.0441
3 10 1 -24.6536 5.8741
3 10 2 -17.6588 -6.7600
3 10 3 28.2184 -22.0890
3 10 4 -14.7048 -3.0956
3 10 5 11.4542 -8.7523
3 10 6 20.1746 15.0651
3 10 7 -7.0243 24.4176
3 10 8 -7.1792 -7.5695
3 10 9 -3.8811 -3.1357
3 10 10 -14.3085 -14.6980
3 10 11 -1.1857 -0.1828
3 10 12 -5.5267 8.6190
3 10 13 11.0636 -2.3806
3 10 14 -12.9210 4.1884
3 10 15 -4.1769 -8.3343
3 10 16 11.3692 -3.4716
3 10 17 -8.0342 8.0190
3 10 18 1.1741 3.2586
3 10 19 6.8440 2.8079
3 10 20 -5.3139 -3.4313
3 11 0 0.5707 20.3877
3 11 1 6.2885 -2.5836
3 11 2 -32.4707 -17.7295
3 11 3 -8.8811 -3.3763
3 11 4 21.8097 -4.1211
3 11 5 -1.2700 15.3430
3 11 6 -8.0597 26.7552
3 11 7 10.1304 6.5934
3 11 8 -7.5444 -23.7732
3 11 9 -2.3418 -3.6081
3 11 10 20.2134 -12.5852
3 11 11 -2.7598 20.0074
3 11 12 -9.3701 14.6735
3 11 13 -0.8061 4.7063
3 11 14 -3.8789 1.4344
3 11 15 -1.0230 5.6918
3 11 16 2.6237 -0.7649
3 11 17 3.3668 -1.8612
3 11 18 -3.4776 -0.8662
3 11 19 -1.1558 -5.5702
3 12 0 0.3963 30.0597
3 12 1 14.8607 -6.1557
3 12 2 -10.3518 1.5321
3 12 3 4.1548 19.8580
3 12 4 30.4271 -21.1460
3 12 5 -25.3129 -1.2519
3 12 6 -18.1280 -1.1562
3 12 7 0.5979 -22.3171
3 12 8 -7.4014 2.7656
3 12 9 24.4649 17.5699
3 12 10 23.7004 7.1263
3 12 11 -4.2052 -4.1702
3 12 12 4.5453 6.7769
3 12 13 -7.3990 -4.6769
3 12 14 6.0962 -8.7599
3 12 15 -6.0371 9.2766
3 12 16 -4.7039 -0.3864
3 12 17 -3.0578 -3.7265
3 12 18 -5.3358 1.7496
3 13 0 0.4556 -1.5147
3 13 1 -0.3550 1.2480
3 13 2 0.6593 2.0836
3 13 3 9.8976 15.8933
3 13 4 -18.5058 -4.9795
3 13 5 -20.4119 -7.8705
3 13 6 17.6631 -8.6869
3 13 7 2.7089 -23.1058
3 13 8 6.7090 7.9565
3 13 9 10.7721 4.6214
3 13 10 -9.6462 2.9610
3 13 11 -12.5133 -6.4277
3 13 12 2.9219 -4.8338
3 13 13 7.6817 -5.9236
3 13 14 -2.0058 2.6467
3 13 15 5.5320 0.5605
3 13 16 3.5177 5.2477
3 13 17 -8.5357 -4.0248
3 13 18 2.9263 4.1064
3 14 0 0.2805 -28.9418
3 14 1 -1.8441 -3.1167
3 14 2 4.2661 8.6194
3 14 3 -15.6843 4.2746
3 14 4 -17.8854 14.2597
3 14 5 14.8097 4.8896
3 14 6 14.6897 -8.5020
3 14 7 2.6671 -9.7807
3 14 8 5.7342 3.1780
3 14 9 -18.4922 0.8872
3 14 10 -16.7462 -2.4660
3 14 11 2.5747 4.7017
3 14 12 0.3669 -8.2527
3 14 13 6.1745 -7.5863
3 14 14 1.2532 5.0215
3 14 15 9.4056 2.8719
3 14 16 3.1670 -1.2416
3 14 17 1.7001 1.4108
3 15 0 0.3692 5.9685
3 15 1 4.2913 13.3162
3 15 2 29.5622 -2.8860
3 15 3 0.8351 -14.4541
3 15 4 -4.0597 3.2469
3 15 5 -5.4919 -8.1962
3 15 6 -17.0947 10.2150
3 15 7 2.9379 30.4836
3 15 8 -0.8762 -7.6029
3 15 9 3.5198 -6.4315
3 15 10 -0.9492 1.2856
3 15 11 -1.4084 -0.3245
3 15 12 -0.2562 -1.9487
3 15 13 -1.0739 0.3437
3 15 14 4.6251 -6.0595
3 15 15 -1.6358 -2.3397
3 16 0 0.1347 -19.0903
3 16 1 5.0402 7.8843
3 16 2 -12.2080 4.1334
3 16 3 -3.8335 0.7232
3 16 4 25.2256 9.6406
3 16 5 3.3487 -6.4316
3 16 6 -20.3206 -1.4153
3 16 7 -1.4846 4.4277
3 16 8 -9.5404 -2.4245
3 16 9 3.9977 4.3489
3 16 10 18.9128 -0.2979
3 16 11 0.2324 -4.5608
3 16 12 -13.2222 2.3476
3 16 13 -8.3020 4.7479
3 16 14 2.6760 -1.9179
3 17 0 0.3992 13.5837
3 17 1 -0.5390 0.7697
3 17 2 -5.9818 -11.6549
3 17 3 -10.4732 7.5362
3 17 4 0.4674 -1.7897
3 17 5 14.1193 2.3329
3 17 6 8.0990 12.2494
3 17 7 -0.4343 -13.7956
3 17 8 -1.0162 -17.1356
3 17 9 -9.2163 0.4289
3 17 10 4.5160 8.6328
3 17 11 1.4550 6.4172
3 17 12 -0.9954 7.3298
3 18 0 0.1486 18.1403
3 18 1 4.4013 -0.9777
3 18 2 -4.1356 -4.3004
3 18 3 -2.2265 -11.6782
3 18 4 5.8242 -10.2703
3 18 5 -1.6781 4.7070
3 18 6 -1.1699 4.7243
3 18 7 0.3019 6.7261
3 18 8 4.2851 -1.3984
3 18 9 2.5579 -3.9231
3 18 10 6.0834 1.2301
3 19 0 0.5217 1.9585
3 19 1 -5.3271 4.1208
3 19 2 -6.7262 -1.4510
3 19 3 9.5013 -2.3009
3 19 4 2.7312 0.4126
3 19 5 -0.3597 -3.4824
3 19 6 -3.8476 2.5712
3 19 7 -5.2006 4.6339
3 19 8 0.4951 -3.9291
3 20 0 0.0237 -2.9187
3 20 1 -3.8564 -0.5855
3 20 2 -0.2114 0.4289
3 20 3 -1.6959 2.7470
3 20 4 1.1230 5.1897
4 0 1 0.9928 90.7752
4 0 2 31.1245 0.4165
4 0 3 -0.5778 -91.5241
4 0 4 -15.7541 0.1104
4 0 5 -1.8072 37.7142
4 0 6 -40.5374 -0.1091
4 0 7 -0.2992 28.7584
4 0 8 32.1443 0.2005
4 0 9 1.5617 -16.9803
4 0 10 -36.2956 -0.2837
4 0 11 1.0126 29.5871
4 0 12 12.4530 -0.1060
4 0 13 -1.3386 -32.4165
4 0 14 32.1130 0.1035
4 0 15 -0.9832 4.6840
4 0 16 -18.2578 0.3513
4 0 17 0.4601 28.7815
4 0 18 -3.8499 -0.1813
4 0 19 0.9304 -30.5993
4 0 20 0.4841 -0.3987
4 0 21 0.0803 -5.9207
4 0 22 2.2332 0.3769
4 0 23 -0.4804 5.0281
4 1 0 27.2107 -0.0800
4 1 1 -72.6948 -74.1459
4 1 2 26.3937 11.1710
4 1 3 -6.7758 111.9280
4 1 4 -4.7960 21.0189
4 1 5 42.0119 16.1641
4 1 6 4.5639 -21.0163
4 1 7 -34.6899 -11.7498
4 1 8 24.3600 -9.2403
4 1 9 15.3654 -1.1900
4 1 10 -15.5735 10.2756
4 1 11 -7.4674 -23.3066
4 1 12 -8.6280 -14.8538
4 1 13 -14.2060 21.3483
4 1 14 19.7396 5.4982
4 1 15 26.7022 4.1385
4 1 16 -5.1337 8.8889
4 1 17 -20.8165 -11.1432
4 1 18 -7.1061 -6.7580
4 1 19 -8.2534 -11.0097
4 1 20 -3.0795 1.3832
4 1 21 14.5489 4.9830
4 1 22 -8.2421 -0.2618
4 1 23 -4.3930 2.7133
4 2 0 51.2494 0.1560
4 2 1 73.7032 -20.3205
4 2 2 -9.8516 26.1334
4 2 3 45.8717 -19.5519
4 2 4 -12.3894 19.9535
4 2 5 -56.0908 11.3296
4 2 6 8.7281 -26.1543
4 2 7 -4.9010 -18.3304
4 2 8 4.8830 11.2749
4 2 9 6.2542 -12.0132
4 2 10 24.3437 26.6427
4 2 11 -16.3907 15.7816
4 2 12 -18.4186 -16.0609
4 2 13 11.4086 -8.5086
4 2 14 -11.2122 0.6396
4 2 15 2.1353 4.1445
4 2 16 4.0339 11.4657
4 2 17 -13.7193 3.4672
4 2 18 2.3853 0.9918
4 2 19 8.1945 -6.0293
4 2 20 6.3959 7.5094
4 2 21 0.8423 8.7835
4 2 22 -12.0165 -6.1437
4 2 23 -4.9803 5.4229
4 3 0 6.5894 -0.1601
4 3 1 24.7402 6.7787
4 3 2 -4.0136 -13.4655
4 3 3 25.1407 -32.6098
4 3 4 -34.8182 -3.2555
4 3 5 -8.5989 15.0424
4 3 6 -14.1254 0.8086
4 3 7 -0.7980 -25.6215
4 3 8 22.1363 10.7781
4 3 9 20.7321 15.6621
4 3 10 -2.7430 16.6687
4 3 11 2.1022 25.2362
4 3 12 -7.9448 1.4117
4 3 13 -4.5773 -38.9454
4 3 14 0.3060 -1.1988
4 3 15 1.5590 5.1134
4 3 16 3.6251 -7.7603
4 3 17 6.6864 13.5990
4 3 18 8.4964 -3.1796
4 3 19 6.1668 5.8314
4 3 20 -4.1711 9.0253
4 3 21 0.1195 1.4537
4 3 22 2.3017 0.1179
4 3 23 -0.3028 -4.7335
4 4 0 -88.2221 -0.4286
4 4 1 -55.0649 0.9702
4 4 2 15.0122 0.0548
4 4 3 -21.3264 5.1820
4 4 4 35.1025 -6.4065
4 4 5 35.3786 16.0411
4 4 6 -4.1427 -23.3720
4 4 7 -2.4936 3.0520
4 4 8 9.8021 -15.4550
4 4 9 19.8228 -3.2840
4 4 10 -34.2715 -1.2560
4 4 11 5.4785 11.0758
4 4 12 6.7019 1.3607
4 4 13 -27.4465 0.7373
4 4 14 16.9251 -5.5618
4 4 15 19.5044 -13.6254
4 4 16 -9.8098 -11.8101
4 4 17 20.6336 -0.2298
4 4 18 3.0895 3.1233
4 4 19 -17.1598 4.7163
4 4 20 -0.0809 -4.8317
4 4 21 -3.1786 -4.7843
4 4 22 4.3275 -0.5567
4 5 0 -5.8199 -0.4029
4 5 1 -17.1415 19.6456
4 5 2 -1.6302 -42.7789
4 5 3 -2.4611 -14.6962
4 5 4 5.9141 4.9275
4 5 5 4.3998 -3.1571
4 5 6 7.5869 17.0953
4 5 7 -26.2706 13.9587
4 5 8 -0.1020 -6.3504
4 5 9 -8.8425 -36.0282
4 5 10 3.7245 -11.5973
4 5 11 9.5920 14.8956
4 5 12 3.6609 -12.0545
4 5 13 -16.0486 29.2782
4 5 14 -3.6488 -1.6428
4 5 15 -5.8899 -32.6867
4 5 16 -0.7959 12.4487
4 5 17 5.5710 9.6643
4 5 18 -6.5655 -3.6598
4 5 19 -6.2919 -0.2600
4 5 20 -0.1285 -8.5054
4 5 21 -2.3390 -12.6194
4 5 22 1.2838 4.6490
4 6 0 33.9983 -0.3973
4 6 1 -6.3938 -3.5001
4 6 2 -7.0058 4.7402
4 6 3 10.1091 8.7038
4 6 4 -7.1767 -7.1073
4 6 5 -2.8465 10.4894
4 6 6 -13.7588 18.5322
4 6 7 -34.0114 -1.7477
4 6 8 -17.6622 20.4925
4 6 9 9.0260 -20.8401
4 6 10 34.3471 -1.7836
4 6 11 15.1721 -5.1969
4 6 12 -6.4542 6.1154
4 6 13 -12.0990 17.0900
4 6 14 -11.1251 7.9869
4 6 15 -8.3127 -2.4127
4 6 16 6.3289 11.1353
4 6 17 -12.7769 -3.7558
4 6 18 -7.5117 -0.9928
4 6 19 1.0837 2.2690
4 6 20 7.1559 -1.9738
4 6 21 9.5510 2.2842
4 6 22 -2.7372 1.8075
4 7 0 27.5399 -0.3257
4 7 1 43.6104 9.4454
4 7 2 -10.3811 32.6807
4 7 3 10.4889 -16.8725
4 7 4 1.2119 22.7065
4 7 5 -25.5837 25.9598
4 7 6 26.0605 -14.4622
4 7 7 15.2871 -11.3624
4 7 8 -21.7377 -19.0511
4 7 9 1.1542 8.3686
4 7 10 -5.0987 8.3923
4 7 11 10.7842 10.3706
4 7 12 9.2614 22.0180
4 7 13 20.2995 -24.6558
4 7 14 -2.8796 5.2343
4 7 15 -10.7057 24.2656
4 7 16 1.3406 -12.6294
4 7 17 2.5637 -0.6434
4 7 18 -1.4335 -1.8006
4 7 19 7.2458 -13.7620
4 7 20 -0.9183 7.4053
4 7 21 0.2839 9.3839
4 8 0 -17.4506 -0.5397
4 8 1 -7.2499 -31.5372
4 8 2 21.7426 21.3760
4 8 3 -4.5639 39.6309
4 8 4 2.5128 -40.1220
4 8 5 11.9814 -30.4730
4 8 6 -11.1358 17.3431
4 8 7 19.4865 -13.1510
4 8 8 16.6769 10.8258
4 8 9 -5.8760 28.9212
4 8 10 -10.0606 -37.8380
4 8 11 -16.0108 -15.0522
4 8 12 10.3774 8.3432
4 8 13 12.6013 -2.3378
4 8 14 -1.0393 -3.1241
4 8 15 16.7991 7.9537
4 8 16 -7.8585 -15.1414
4 8 17 -3.8281 -5.1288
4 8 18 8.1130 9.7808
4 8 19 -0.4564 5.5203
4 8 20 -4.4127 -3.7358
4 8 21 -0.3021 -0.4007
4 9 0 16.8401 -0.6601
4 9 1 4.8966 -10.7918
4 9 2 -34.0913 -29.6961
4 9 3 -15.2135 0.6723
4 9 4 3.0543 -17.5247
4 9 5 -6.3023 -15.9623
4 9 6 29.0441 22.5531
4 9 7 25.6161 17.8471
4 9 8 -43.6932 10.5336
4 9 9 -5.0401 -5.9172
4 9 10 8.0167 -16.0161
4 9 11 -22.9550 -15.6328
4 9 12 20.4872 -7.9681
4 9 13 -5.8449 9.7288
4 9 14 -23.4214 -4.9177
4 9 15 5.8047 -8.0353
4 9 16 15.0428 8.4207
4 9 17 4.0269 6.9657
4 9 18 2.5312 5.8715
4 9 19 -4.8534 3.3104
4 9 20 -5.2143 -5.2475
4 10 0 2.8105 -0.1597
4 10 1 -7.5328 32.9266
4 10 2 -30.2969 2.8043
4 10 3 13.2653 -25.3411
4 10 4 12.5325 -23.5230
4 10 5 9.0886 7.8754
4 10 6 23.8361 25.5908
4 10 7 -30.1315 10.0261
4 10 8 -34.2692 2.9410
4 10 9 -0.3550 -2.2462
4 10 10 8.4067 -20.0904
4 10 11 15.9087 15.6123
4 10 12 -3.9816 23.8556
4 10 13 -8.3723 -10.0540
4 10 14 -3.1201 -2.1112
4 10 15 -4.3379 -12.6914
4 10 16 16.5105 -5.7883
4 10 17 -3.3927 6.9268
4 10 18 -8.1510 6.1579
4 10 19 -0.2693 -2.5897
4 10 20 -1.7302 -7.1212
4 11 0 7.4988 -0.4520
4 11 1 -38.1274 22.3970
4 11 2 6.6637 22.0732
4 11 3 1.9043 -28.1694
4 11 4 5.2478 -10.0527
4 11 5 22.6268 28.2705
4 11 6 -3.8280 -5.2246
4 11 7 -29.0799 -3.2145
4 11 8 2.3985 1.7875
4 11 9 10.3463 -13.4038
4 11 10 15.6688 -0.5210
4 11 11 11.1255 21.0707
4 11 12 -5.6237 10.1988
4 11 13 -9.8141 -9.3723
4 11 14 -8.4978 -1.5693
4 11 15 4.5423 1.7685
4 11 16 -1.8618 -9.2862
4 11 17 -4.6308 -0.9365
4 11 18 -4.9655 4.1119
4 11 19 0.3214 -6.0128
4 12 0 18.7356 -0.1974
4 12 1 -26.4032 -1.3781
4 12 2 10.4658 5.8553
4 12 3 -21.0711 -17.6448
4 12 4 -17.4255 20.9926
4 12 5 12.9314 7.3194
4 12 6 0.1779 -15.5512
4 12 7 12.1267 -2.9199
4 12 8 19.4942 -10.8988
4 12 9 3.8035 -10.9713
4 12 10 -5.8898 16.4175
4 12 11 -7.8292 -1.6089
4 12 12 6.6117 2.2668
4 12 13 -7.8425 4.4573
4 12 14 -3.3561 1.8238
4 12 15 8.5549 11.7542
4 12 16 -8.7066 1.2244
4 12 17 2.2638 0.2946
4 12 18 6.6810 -3.7118
4 13 0 -3.0341 -0.3834
4 13 1 16.4784 9.0495
4 13 2 7.6906 7.5526
4 13 3 -1.1239 -2.3476
4 13 4 -12.7440 -6.3867
4 13 5 -8.1177 -26.3688
4 13 6 -9.0211 0.6080
4 13 7 19.5419 7.4077
4 13 8 12.4023 5.7308
4 13 9 -8.9203 10.2163
4 13 10 -9.1805 -2.9081
4 13 11 -5.6034 -7.4260
4 13 12 1.8056 -3.3668
4 13 13 18.9304 3.3737
4 13 14 6.9302 5.0834
4 13 15 -2.2009 -5.2677
4 13 16 -1.6639 4.0603
4 13 17 -4.8302 3.0091
4 14 0 5.7433 -0.3481
4 14 1 8.1894 -8.6685
4 14 2 -11.5028 -2.8300
4 14 3 10.7834 27.7298
4 14 4 0.8208 -3.7969
4 14 5 -5.9799 -19.1393
4 14 6 5.5301 -8.3595
4 14 7 -6.3101 4.1051
4 14 8 -15.7961 11.6188
4 14 9 -1.3726 21.0847
4 14 10 4.0695 -7.2211
4 14 11 4.4204 -19.7842
4 14 12 -1.1336 -15.5140
4 14 13 6.5000 -2.6128
4 14 14 0.8336 1.5113
4 14 15 -3.3614 6.4652
4 14 16 2.1938 0.9533
4 15 0 -6.3813 -0.3230
4 15 1 12.5788 -17.3606
4 15 2 -0.4748 6.9966
4 15 3 -6.0338 10.7458
4 15 4 -1.9696 0.9745
4 15 5 -6.8215 23.5089
4 15 6 6.6114 -2.9054
4 15 7 9.5798 -11.6679
4 15 8 3.1382 -3.2906
4 15 9 -12.0712 -7.6270
4 15 10 -11.1908 -2.9202
4 15 11 -3.9576 -0.7638
4 15 12 1.4622 3.4127
4 15 13 3.5577 -0.7820
4 15 14 3.6921 -1.5336
4 15 15 -2.0626 5.4283
4 16 0 11.7181 -0.1933
4 16 1 11.7636 1.7334
4 16 2 4.5222 -5.5029
4 16 3 6.9635 -2.1051
4 16 4 -7.9595 12.2151
4 16 5 -10.8305 -3.0023
4 16 6 5.4447 -5.2056
4 16 7 0.9437 4.2466
4 16 8 3.8596 -1.0052
4 16 9 -0.4922 -3.9871
4 16 10 -1.0452 12.9068
4 16 11 -1.6584 0.8942
4 16 12 5.0286 -0.5325
4 16 13 0.2830 3.6115
4 16 14 -3.9869 0.0929
4 17 0 -11.7329 -0.1112
4 17 1 1.0460 4.1972
4 17 2 13.5121 7.3105
4 17 3 -2.0873 2.3331
4 17 4 5.1887 -12.7012
4 17 5 0.8390 -8.6983
4 17 6 -15.5785 4.9650
4 17 7 2.0760 3.5033
4 17 8 11.1956 11.6108
4 17 9 0.5378 5.5526
4 17 10 3.7757 -8.4641
4 17 11 4.6591 -1.7733
4 17 12 -7.1069 3.5484
4 18 0 -6.2135 -0.2638
4 18 1 -9.6479 -7.4257
4 18 2 -6.7742 -8.0337
4 18 3 -5.6960 13.6000
4 18 4 2.4038 9.1652
4 18 5 8.7509 -5.7875
4 18 6 9.1559 -2.4401
4 18 7 -0.3587 -3.5511
4 18 8 -12.9129 -6.3933
4 18 9 0.6225 4.7386
4 18 10 -0.8140 1.5052
4 19 0 -2.1139 -0.2150
4 19 1 16.8595 2.1657
4 19 2 -2.0725 -8.9834
4 19 3 1.6502 -6.4528
4 19 4 -3.9188 4.3043
4 19 5 -11.4188 0.7170
4 19 6 1.7022 1.2515
4 19 7 8.2604 1.2844
4 20 0 -0.7738 -0.1635
4 20 1 6.8117 -5.4968
4 20 2 5.9694 3.0510
5 0 1 -0.5778 17.6594
5 0 2 4.8649 0.3824
5 0 3 0.2906 -7.0844
5 0 4 -47.2141 0.9947
5 0 5 0.3626 -27.9090
5 0 6 42.4195 -0.5458
5 0 7 -0.2650 25.3402
5 0 8 -16.9847 -1.6109
5 0 9 0.1173 -17.5047
5 0 10 -45.8491 -0.0737
5 0 11 0.0558 -42.5309
5 0 12 38.5072 1.7544
5 0 13 -0.2647 10.0030
5 0 14 -1.8052 0.6886
5 0 15 -0.2116 -2.2802
5 0 16 -18.8424 -1.1575
5 0 17 0.5372 1.4363
5 0 18 -11.7576 -1.0785
5 0 19 0.1004 -0.9069
5 0 20 1.7082 0.6851
5 0 21 -0.5914 -15.4148
5 0 22 8.2604 0.9403
5 0 23 -0.0952 5.6357
5 1 1 24.4434 69.8463
5 1 2 81.2840 24.6229
5 1 3 -51.3152 21.9867
5 1 4 -33.4672 -13.8546
5 1 5 22.1263 -35.3206
5 1 6 -33.8386 -21.7351
5 1 7 0.0014 17.1972
5 1 8 -12.5852 39.3859
5 1 9 -28.9927 3.4743
5 1 10 -5.2743 -13.7390
5 1 11 26.1122 17.5391
5 1 12 13.3686 -19.7577
5 1 13 -5.1178 -3.2186
5 1 14 -13.1822 22.5563
5 1 15 -4.0815 -8.5512
5 1 16 -15.6000 0.9725
5 1 17 8.9579 12.3178
5 1 18 -3.3140 -6.3185
5 1 19 -9.1997 5.2185
5 1 20 6.7924 -3.9915
5 1 21 1.6405 5.7747
5 1 22 -1.8349 0.9548
5 1 23 5.1557 -6.4585
5 2 0 0.5890 -53.7835
5 2 1 48.0083 70.0603
5 2 2 6.8562 15.5124
5 2 3 -52.1191 4.9868
5 2 4 -12.5540 50.7069
5 2 5 2.3292 -28.7520
5 2 6 15.1117 -6.9218
5 2 7 25.4279 36.1523
5 2 8 27.5306 -8.3050
5 2 9 -6.5439 -17.9712
5 2 10 -13.6872 11.1318
5 2 11 -3.9713 27.2894
5 2 12 -0.7088 -9.7345
5 2 13 -6.4022 21.0920
5 2 14 9.3929 1.3743
5 2 15 6.9720 -22.4435
5 2 16 -4.0530 5.9872
5 2 17 8.9217 7.8584
5 2 18 13.8668 -8.5615
5 2 19 -5.5234 7.7736
5 2 20 -3.0927 0.2762
5 2 21 -9.4222 0.5966
5 2 22 -1.8062 3.8383
5 3 0 -0.1098 -33.3194
5 3 1 16.7184 9.0389
5 3 2 -18.6001 3.4067
5 3 3 -9.8835 1.0247
5 3 4 14.1886 2.8073
5 3 5 23.1249 -17.0160
5 3 6 2.9795 -16.6932
5 3 7 8.1692 -1.5331
5 3 8 29.5526 6.6948
5 3 9 0.7852 5.6266
5 3 10 -2.5545 7.0415
5 3 11 5.8378 -12.7192
5 3 12 -26.7717 4.5504
5 3 13 -14.4701 -1.3628
5 3 14 24.9358 -3.1112
5 3 15 -2.3201 -6.4875
5 3 16 11.9632 -16.4225
5 3 17 8.4639 4.9552
5 3 18 0.2868 9.5779
5 3 19 -2.8294 5.1238
5 3 20 -2.5631 7.7706
5 3 21 -0.3932 -12.6300
5 3 22 -0.2033 -6.1556
5 4 0 -0.0874 18.8262
5 4 1 -15.9915 -41.0367
5 4 2 19.7861 -11.8252
5 4 3 -7.2551 -22.6777
5 4 4 0.0373 -38.0488
5 4 5 4.5656 14.5405
5 4 6 -7.3631 -16.6031
5 4 7 -14.4759 1.8802
5 4 8 -16.7078 10.1837
5 4 9 5.3792 6.6057
5 4 10 12.6472 7.6550
5 4 11 10.4742 -18.4229
5 4 12 3.2747 -0.1783
5 4 13 -11.2776 -8.9327
5 4 14 -23.8174 -11.7925
5 4 15 7.2922 5.2804
5 4 16 7.8966 -1.4853
5 4 17 2.1851 -0.5698
5 4 18 4.6892 15.3306
5 4 19 -13.3682 -4.8610
5 4 20 -5.4587 -0.3456
5 4 21 10.4135 -4.3970
5 4 22 1.7533 -5.3625
5 5 0 -0.1710 24.6258
5 5 1 -34.3857 12.1388
5 5 2 16.6402 -15.9978
5 5 3 11.1317 -5.0947
5 5 4 -26.5920 17.2284
5 5 5 3.7478 3.7680
5 5 6 13.8218 36.4778
5 5 7 -19.3568 -6.0081
5 5 8 -8.6245 -36.1189
5 5 9 -9.5038 -18.0752
5 5 10 -1.6472 -5.4445
5 5 11 2.7162 27.8028
5 5 12 23.1080 19.5533
5 5 13 5.0764 1.1853
5 5 14 -24.6290 -8.1067
5 5 15 6.0269 -6.3560
5 5 16 -3.8797 2.2819
5 5 17 -5.9347 10.5297
5 5 18 3.6003 -3.6920
5 5 19 -0.3160 -10.8264
5 5 20 -5.4240 -1.5560
5 5 21 6.5441 3.8883
5 5 22 3.4187 3.2334
5 6 0 0.1972 -27.6749
5 6 1 10.2293 24.1924
5 6 2 -20.5631 27.5305
5 6 3 14.3234 7.4888
5 6 4 36.4017 32.1589
5 6 5 -14.0050 -5.1355
5 6 6 -38.7593 -3.8196
5 6 7 9.0847 -1.3293
5 6 8 -7.7862 6.7936
5 6 9 17.5653 -22.6327
5 6 10 27.2826 -13.3692
5 6 11 -10.8236 15.5730
5 6 12 -16.1382 0.1967
5 6 13 5.2755 10.8949
5 6 14 10.0251 26.4238
5 6 15 -3.4404 -8.0976
5 6 16 0.0470 -9.3892
5 6 17 -10.2533 -3.3677
5 6 18 -6.3657 -16.7285
5 6 19 10.5490 1.8845
5 6 20 6.3920 0.9670
5 6 21 -3.1105 3.0975
5 7 0 0.0872 -18.3822
5 7 1 34.9129 -33.0665
5 7 2 11.5248 -1.0734
5 7 3 -8.8892 8.9080
5 7 4 -12.8398 9.2761
5 7 5 -16.5180 12.6984
5 7 6 -3.3048 -12.1134
5 7 7 8.9473 -13.1765
5 7 8 8.2518 -6.8230
5 7 9 14.6393 33.1509
5 7 10 -22.3853 5.8180
5 7 11 9.2349 -23.2457
5 7 12 6.1105 -5.3564
5 7 13 -5.1834 -10.2965
5 7 14 15.2462 -2.2500
5 7 15 -19.4619 25.9615
5 7 16 -21.0170 4.2110
5 7 17 8.1727 -17.4357
5 7 18 4.9700 2.7213
5 7 19 6.2595 2.3124
5 7 20 5.7561 0.3336
5 7 21 -9.8737 6.1221
5 8 0 0.0534 -20.5028
5 8 1 -31.1156 -16.2511
5 8 2 41.6190 5.4557
5 8 3 21.9483 10.0022
5 8 4 -35.2057 -18.0677
5 8 5 5.0936 9.7887
5 8 6 15.2940 -23.9812
5 8 7 -2.4329 -7.2015
5 8 8 18.5548 28.8545
5 8 9 -19.1168 18.1141
5 8 10 -18.0227 -7.0990
5 8 11 -16.3387 -9.3847
5 8 12 9.9784 -16.7909
5 8 13 22.2386 3.4274
5 8 14 -0.2052 9.7315
5 8 15 0.5585 11.2331
5 8 16 3.4667 -2.2939
5 8 17 -7.1281 -6.6469
5 8 18 3.8019 7.1195
5 8 19 6.2666 6.6062
5 8 20 -4.8928 2.8433
5 8 21 -1.3582 -1.2525
5 9 0 0.2383 -14.6098
5 9 1 -33.0252 -13.1875
5 9 2 24.2838 11.0211
5 9 3 24.4842 -22.3501
5 9 4 -20.3262 3.8593
5 9 5 14.2612 9.9389
5 9 6 27.9250 -13.0651
5 9 7 -11.5820 11.1463
5 9 8 -1.2825 11.4233
5 9 9 -9.4660 -11.4933
5 9 10 -10.9411 7.8465
5 9 11 -11.2727 -2.7867
5 9 12 27.7440 -4.6543
5 9 13 11.9288 -3.3521
5 9 14 -12.6361 -1.2661
5 9 15 17.8975 -1.1536
5 9 16 5.8349 -2.1723
5 9 17 -9.3477 2.4380
5 9 18 7.8208 2.1648
5 9 19 -5.0380 -3.8585
5 9 20 -11.0272 0.2850
5 10 0 -0.1106 -26.0258
5 10 1 -5.4072 -13.7456
5 10 2 -33.9126 10.2506
5 10 3 18.4213 -23.0687
5 10 4 13.9955 17.4098
5 10 5 -8.0930 8.8189
5 10 6 -3.1375 1.2688
5 10 7 -4.7778 2.6936
5 10 8 -3.6735 3.5644
5 10 9 17.3372 -13.1160
5 10 10 6.4847 -11.1475
5 10 11 1.9114 2.9776
5 10 12 -16.4031 2.9780
5 10 13 -4.4830 -20.0148
5 10 14 -2.9434 14.0327
5 10 15 -2.9497 -1.5901
5 10 16 2.6360 -12.6171
5 10 17 -2.0349 11.6880
5 10 18 -1.6453 -0.2651
5 10 19 3.1436 -7.2733
5 11 0 0.3154 40.5407
5 11 1 3.8177 -17.1613
5 11 2 -0.6050 -5.1323
5 11 3 -2.4452 17.3464
5 11 4 -5.5621 -23.2826
5 11 5 -16.2434 15.5951
5 11 6 -9.0678 11.9455
5 11 7 5.5600 -31.0814
5 11 8 3.2012 0.0452
5 11 9 12.9344 10.8857
5 11 10 -12.3736 -5.9988
5 11 11 -5.2489 10.5732
5 11 12 -6.2333 10.8058
5 11 13 -5.4007 0.1189
5 11 14 1.7525 -4.4022
5 11 15 -2.9234 8.0730
5 11 16 -10.7439 -4.2434
5 11 17 2.6641 -8.0603
5 11 18 7.0729 2.5184
5 11 19 2.6675 -3.5304
5 12 0 -0.0874 17.6420
5 12 1 0.9306 4.9796
5 12 2 -0.9673 9.0439
5 12 3 6.2249 21.2469
5 12 4 -8.0109 -19.5503
5 12 5 -11.5141 -8.2628
5 12 6 19.5735 -16.9731
5 12 7 -4.6070 -13.3102
5 12 8 -6.8800 19.0615
5 12 9 8.7415 22.8288
5 12 10 -4.5098 8.5026
5 12 11 -4.9312 0.0841
5 12 12 19.4901 -11.5048
5 12 13 1.4854 10.1478
5 12 14 -5.3070 -2.9594
5 12 15 0.3706 5.1785
5 12 16 -1.0133 -3.0206
5 12 17 -8.2468 -8.1872
5 12 18 1.7018 0.3658
5 13 0 0.3395 -32.3861
5 13 1 5.8189 13.8560
5 13 2 -13.6091 7.1449
5 13 3 -1.8298 -6.9170
5 13 4 -8.4771 6.7677
5 13 5 2.0135 -5.4306
5 13 6 21.8273 -10.9204
5 13 7 11.4155 12.9662
5 13 8 5.8763 13.0806
5 13 9 -4.8472 -8.5336
5 13 10 -3.5630 -9.5381
5 13 11 -3.3311 -1.9889
5 13 12 5.9398 -11.5489
5 13 13 8.4573 -1.7123
5 13 14 0.0832 14.7382
5 13 15 -2.2345 1.2196
5 13 16 4.8884 2.4401
5 13 17 -5.8659 4.1652
5 14 0 -0.1755 1.6078
5 14 1 7.2685 -2.9943
5 14 2 21.9163 -7.8522
5 14 3 -22.1722 -3.9520
5 14 4 -9.9094 3.6352
5 14 5 14.6695 1.0002
5 14 6 -4.0105 12.3262
5 14 7 4.6036 -1.6699
5 14 8 6.4467 -12.6071
5 14 9 -11.7640 -2.8413
5 14 10 -13.3401 -4.9967
5 14 11 4.4940 -3.9530
5 14 12 1.4911 5.5975
5 14 13 2.7825 -8.0000
5 14 14 11.4808 4.0134
5 14 15 2.0336 3.4773
5 14 16 -6.1709 4.4303
5 15 0 0.2882 3.0335
5 15 1 -5.4293 20.5942
5 15 2 7.9492 3.7168
5 15 3 11.9873 -0.9668
5 15 4 14.4977 3.0527
5 15 5 -20.5073 -17.0850
5 15 6 -21.9085 -2.5549
5 15 7 -3.6607 7.5475
5 15 8 -8.7826 3.0131
5 15 9 11.8695 3.8344
5 15 10 9.5034 4.3989
5 15 11 -9.2625 -5.5647
5 15 12 -3.4022 -3.6390
5 15 13 2.4117 0.1267
5 15 14 3.6473 -3.7649
5 15 15 1.7123 -2.1426
5 16 0 0.0191 -8.9980
5 16 1 8.8399 -11.2049
5 16 2 -22.6499 1.5762
5 16 3 -13.0063 10.7691
5 16 4 11.0548 7.6918
5 16 5 5.5540 9.8192
5 16 6 0.1263 -1.5597
5 16 7 2.9058 -18.8224
5 16 8 -4.3333 -3.1666
5 16 9 0.6893 11.5264
5 16 10 7.4302 2.8447
5 16 11 -3.2910 2.6173
5 16 12 -5.3221 -4.6811
5 16 13 -2.9443 -3.2993
5 17 0 0.4074 28.2753
5 17 1 -1.0195 -0.7239
5 17 2 1.3679 -16.5277
5 17 3 5.2186 -1.3825
5 17 4 -5.9886 -7.8992
5 17 5 0.8447 5.9701
5 17 6 3.9693 14.1585
5 17 7 2.8587 -1.0011
5 17 8 5.8986 -13.6795
5 17 9 0.7155 -1.1766
5 17 10 -4.8147 1.4055
5 17 11 -4.9475 7.5894
5 18 0 -0.0396 9.5757
5 18 1 -6.0528 -1.0147
5 18 2 -1.3281 -3.3066
5 18 3 9.4123 -6.5237
5 18 4 11.4756 -2.8773
5 18 5 -4.8946 0.2015
5 18 6 -10.0436 1.8994
5 18 7 -4.4744 4.4029
5 18 8 1.4819 0.5058
5 18 9 5.2183 2.1522
5 19 0 0.4664 -11.1251
5 19 1 -3.8222 -2.3639
5 19 2 -7.6134 0.8012
5 19 3 4.2608 2.3248
5 19 4 7.6722 10.1058
5 19 5 -1.2002 -1.2457
5 19 6 -1.0144 -4.3969
6 0 1 1.1293 1.1942
6 0 2 1.8158 0.1378
6 0 3 -0.7889 -9.7444
6 0 4 -14.5174 -1.4089
6 0 5 -1.1680 3.3353
6 0 6 -24.9766 -0.0492
6 0 7 -0.5303 23.9999
6 0 8 14.5519 0.9130
6 0 9 1.0822 -23.2756
6 0 10 -32.5159 0.3658
6 0 11 1.2400 -18.6136
6 0 12 8.7332 -0.2309
6 0 13 -0.9037 13.8316
6 0 14 27.4971 -0.5228
6 0 15 -1.0751 14.4178
6 0 16 -23.5027 -0.2957
6 0 17 -0.1629 11.8269
6 0 18 7.3251 0.2777
6 0 19 1.2133 -22.9024
6 0 20 13.1250 0.5548
6 0 21 0.2293 -0.2161
6 0 22 -5.3769 -0.2255
6 1 1 -25.1191 -1.5127
6 1 2 -12.8801 -16.8105
6 1 3 -3.1832 37.6008
6 1 4 -47.6080 24.5756
6 1 5 16.3299 21.6223
6 1 6 11.0441 -23.9816
6 1 7 -8.6349 -1.3121
6 1 8 24.1192 1.6906
6 1 9 -3.2020 -4.9401
6 1 10 5.7419 12.8973
6 1 11 -1.8557 3.2515
6 1 12 -30.8367 -30.1279
6 1 13 6.1962 8.5459
6 1 14 6.9644 13.6746
6 1 15 9.1960 -1.2189
6 1 16 10.1724 4.6034
6 1 17 -16.3446 -7.2095
6 1 18 -0.0650 -17.5834
6 1 19 -2.8797 -2.8798
6 1 20 1.4398 10.6669
6 1 21 8.0452 -1.6568
6 1 22 -11.2145 -1.2110
6 2 0 0.8472 1.0077
6 2 1 16.1296 25.2236
6 2 2 36.4078 31.1253
6 2 3 2.7012 -29.0304
6 2 4 7.2637 9.3162
6 2 5 -16.0046 -1.4083
6 2 6 -13.4047 -44.7026
6 2 7 -6.9979 -11.4266
6 2 8 36.2465 12.6416
6 2 9 -1.6523 24.2425
6 2 10 -6.4332 33.9179
6 2 11 -4.8472 14.4847
6 2 12 -14.2691 -29.4496
6 2 13 -6.2216 -26.1861
6 2 14 12.2061 -7.7330
6 2 15 -2.5336 1.2042
6 2 16 -12.0179 11.3829
6 2 17 1.7251 -1.0570
6 2 18 2.3220 -0.8314
6 2 19 -3.7015 4.7719
6 2 20 1.0314 7.7822
6 2 21 -1.3232 -2.2785
6 2 22 -9.9017 -5.0535
6 3 0 -53.5923 -0.6074
6 3 1 11.6697 -5.5109
6 3 2 27.0822 -21.6436
6 3 3 -8.7414 -12.8317
6 3 4 2.4397 37.7833
6 3 5 -8.1355 -20.5097
6 3 6 -15.9981 -2.9536
6 3 7 27.6030 -3.9225
6 3 8 33.1848 -8.2502
6 3 9 1.4174 10.9467
6 3 10 -39.5042 35.7464
6 3 11 -9.4768 2.7318
6 3 12 1.2639 -5.4348
6 3 13 -6.6344 -10.9365
6 3 14 30.2438 -3.8223
6 3 15 -7.7187 -6.5702
6 3 16 -10.7529 13.5689
6 3 17 18.4181 10.6402
6 3 18 -5.1496 -2.6717
6 3 19 1.7334 6.4630
6 3 20 -4.8424 1.7409
6 3 21 -10.0193 -3.2608
6 3 22 6.3725 4.8212
6 4 0 -50.4850 0.7932
6 4 1 -3.7031 -29.8059
6 4 2 7.6544 -27.9557
6 4 3 -5.4498 42.7639
6 4 4 16.1917 14.6727
6 4 5 13.7358 -12.7355
6 4 6 -30.1076 2.6019
6 4 7 23.2465 7.0253
6 4 8 6.0746 -6.5429
6 4 9 9.9043 -7.1625
6 4 10 4.2324 3.3332
6 4 11 -1.0614 -11.6108
6 4 12 -13.5082 -3.8991
6 4 13 -2.5142 32.8102
6 4 14 11.8714 0.7922
6 4 15 11.6435 -14.1508
6 4 16 3.0569 14.4004
6 4 17 8.1780 -10.5008
6 4 18 -7.5090 -1.1807
6 4 19 -4.7387 11.0614
6 4 20 9.6573 -13.7392
6 4 21 1.1179 0.2091
6 4 22 2.7635 2.9502
6 5 0 33.5865 -0.1509
6 5 1 14.6483 2.0504
6 5 2 -9.6474 -19.6426
6 5 3 18.6604 2.8249
6 5 4 -12.3656 -0.9286
6 5 5 -8.4501 5.1006
6 5 6 -4.6299 -1.2401
6 5 7 -28.4818 -0.8125
6 5 8 -2.1064 -21.5984
6 5 9 0.7208 -4.1701
6 5 10 34.8409 -10.2514
6 5 11 21.5284 7.9812
6 5 12 -9.4950 1.2617
6 5 13 -0.9432 3.1363
6 5 14 -12.2724 -9.4363
6 5 15 -11.7337 -3.2075
6 5 16 6.5990 -3.7292
6 5 17 -0.6212 0.0826
6 5 18 -8.3803 -5.9074
6 5 19 6.3176 -5.2461
6 5 20 7.3546 -2.7056
6 5 21 -0.5450 -1.3724
6 6 0 25.2840 0.6784
6 6 1 -5.6441 4.8180
6 6 2 -10.9810 25.6744
6 6 3 5.2029 -17.6858
6 6 4 -14.3568 6.1609
6 6 5 -6.2807 27.3098
6 6 6 7.2051 -23.9101
6 6 7 -31.2116 -11.8159
6 6 8 -7.9781 -8.1898
6 6 9 1.2787 -15.8179
6 6 10 13.5117 8.1242
6 6 11 0.4506 9.6948
6 6 12 6.6141 5.3355
6 6 13 -7.5448 -11.2737
6 6 14 -19.4662 5.4157
6 6 15 -4.9363 3.4882
6 6 16 1.1535 -9.9863
6 6 17 -12.7713 1.4380
6 6 18 7.8040 -7.0889
6 6 19 1.0480 -1.3067
6 6 20 -3.3843 9.4785
6 6 21 4.6930 1.9189
6 7 0 -31.5719 -0.1047
6 7 1 15.4433 15.7611
6 7 2 14.9670 39.7191
6 7 3 -3.8723 -21.6919
6 7 4 4.8552 -14.7784
6 7 5 -10.1170 28.1129
6 7 6 -3.6648 3.2696
6 7 7 16.3362 1.5799
6 7 8 10.9653 14.7925
6 7 9 -7.7137 -17.9219
6 7 10 -31.4272 -6.3501
6 7 11 -4.6908 11.9408
6 7 12 11.0438 22.8577
6 7 13 0.5812 -7.3972
6 7 14 11.2199 10.5925
6 7 15 5.5372 7.0587
6 7 16 -17.7811 -11.8239
6 7 17 7.0750 4.3103
6 7 18 10.5365 9.6163
6 7 19 -6.2640 -9.9875
6 7 20 0.6645 6.3411
6 7 21 -2.6481 2.4684
6 8 0 22.3185 0.4568
6 8 1 -36.8492 -28.2979
6 8 2 -0.9956 -38.3959
6 8 3 10.2959 55.3530
6 8 4 5.8131 -11.0915
6 8 5 32.2190 -31.2382
6 8 6 17.3695 34.7137
6 8 7 -25.8529 3.5245
6 8 8 -9.9002 18.8484
6 8 9 18.5345 21.9676
6 8 10 -2.9510 -13.5737
6 8 11 11.4886 -18.7568
6 8 12 10.4599 -12.8616
6 8 13 -10.2339 10.5794
6 8 14 -3.3103 0.4492
6 8 15 19.3127 -3.0761
6 8 16 2.7574 10.9701
6 8 17 -3.4812 0.1734
6 8 18 -1.5140 -1.8012
6 8 19 -4.4879 4.7754
6 8 20 -4.7029 -3.4910
6 9 0 -1.1243 -0.0341
6 9 1 22.9826 5.1584
6 9 2 -22.3036 -26.3716
6 9 3 6.9167 -42.7924
6 9 4 26.1913 -0.3968
6 9 5 -19.1632 22.5578
6 9 6 20.6835 14.0502
6 9 7 7.0503 -0.0248
6 9 8 -34.7525 -3.4094
6 9 9 8.5921 -28.9478
6 9 10 18.9247 -8.7387
6 9 11 -8.4241 22.1907
6 9 12 -5.8705 -14.8691
6 9 13 6.6346 -3.7028
6 9 14 -4.7804 -6.5893
6 9 15 -1.6927 -10.8240
6 9 16 15.1159 10.5747
6 9 17 -7.1839 13.6488
6 9 18 -9.9301 0.7283
6 9 19 6.2031 -3.0303
6 9 20 0.5416 -6.3640
6 10 0 -42.7998 0.5562
6 10 1 -13.7616 21.3386
6 10 2 -1.2068 11.9236
6 10 3 9.5231 -36.8658
6 10 4 11.6075 -4.0802
6 10 5 8.0981 19.2333
6 10 6 -18.1809 -2.5985
6 10 7 -22.5385 -16.5957
6 10 8 -2.7619 -13.8674
6 10 9 7.4803 -5.7036
6 10 10 -1.0919 -1.4489
6 10 11 3.7671 24.3072
6 10 12 -8.4199 17.7776
6 10 13 -13.9011 -19.1215
6 10 14 12.4205 -4.6812
6 10 15 4.5799 6.0886
6 10 16 3.7596 -9.4614
6 10 17 0.2286 0.0952
6 10 18 -4.3220 3.3458
6 10 19 0.7651 -6.7237
6 11 0 0.6477 -0.0718
6 11 1 -52.7992 11.9460
6 11 2 15.3422 -4.8383
6 11 3 -15.3832 4.4043
6 11 4 -14.8405 6.8045
6 11 5 31.1273 2.9268
6 11 6 -19.2324 -8.0082
6 11 7 -14.6409 4.9028
6 11 8 18.1405 -3.6598
6 11 9 10.2259 10.6459
6 11 10 -0.5532 6.6223
6 11 11 1.1487 1.2121
6 11 12 5.0969 4.2287
6 11 13 -18.7956 -6.6943
6 11 14 -5.2660 0.5223
6 11 15 8.9918 0.1134
6 11 16 -10.4256 -3.9217
6 11 17 1.1505 -4.1099
6 11 18 6.9775 -0.7652
6 12 0 23.1113 0.5264
6 12 1 -3.4597 19.8243
6 12 2 1.5862 -7.5523
6 12 3 -17.2191 -24.1348
6 12 4 -9.0260 12.9022
6 12 5 1.9295 -0.8011
6 12 6 16.5874 -0.3524
6 12 7 17.6687 21.0720
6 12 8 3.7566 -1.5332
6 12 9 -7.5456 -11.6484
6 12 10 -0.1987 1.7174
6 12 11 -12.7073 0.2874
6 12 12 8.4869 -6.5862
6 12 13 2.7908 9.1475
6 12 14 -12.5562 6.8251
6 12 15 0.8053 -10.0317
6 12 16 -5.8782 5.4208
6 12 17 -1.2116 6.4559
6 13 0 -12.0533 -0.1314
6 13 1 4.4675 2.2966
6 13 2 0.4503 20.9103
6 13 3 12.2887 -6.5831
6 13 4 10.2318 -19.3281
6 13 5 4.9947 -17.1896
6 13 6 0.6000 3.1743
6 13 7 -10.3385 2.2585
6 13 8 -5.4009 17.4077
6 13 9 -5.6797 -0.2692
6 13 10 0.9352 -12.5706
6 13 11 6.1719 -4.4869
6 13 12 -2.9688 4.9068
6 13 13 9.3852 0.9768
6 13 14 9.1223 10.2913
6 13 15 -0.7373 0.9432
6 13 16 0.5898 -4.8880
6 14 0 18.0997 0.3681
6 14 1 2.4934 -17.1729
6 14 2 -12.8313 -5.4917
6 14 3 1.8218 12.1380
6 14 4 -7.8601 5.8250
6 14 5 2.5380 8.7560
6 14 6 12.3471 -9.6742
6 14 7 -5.0567 -8.9240
6 14 8 -11.5785 1.4459
6 14 9 0.1832 3.3551
6 14 10 -2.4989 6.1602
6 14 11 14.0050 -6.6632
6 14 12 9.3975 -4.2754
6 14 13 1.9609 -6.4398
6 14 14 -1.9043 -1.8935
6 14 15 0.4802 11.1663
6 15 0 1.7201 0.1399
6 15 1 11.9548 -2.2944
6 15 2 4.9168 9.1491
6 15 3 -6.9213 8.5529
6 15 4 -14.4145 -4.6814
6 15 5 -9.6354 6.8772
6 15 6 -0.8326 -0.8868
6 15 7 12.1270 3.2770
6 15 8 14.8605 -4.1078
6 15 9 -2.1699 -6.3782
6 15 10 -8.2909 -6.2939
6 15 11 -7.7923 -0.7807
6 15 12 -2.0971 1.2199
6 15 13 2.4229 5.3469
6 15 14 -0.5498 -1.7660
6 16 0 3.7337 0.3287
6 16 1 12.0740 12.0715
6 16 2 -1.1771 9.2760
6 16 3 -1.0305 -1.9637
6 16 4 -0.9741 -4.6324
6 16 5 -7.4513 -13.3029
6 16 6 -1.8083 -5.8869
6 16 7 3.6854 6.6213
6 16 8 -4.2380 4.6571
6 16 9 -6.1241 1.8556
6 16 10 4.5611 1.4602
6 16 11 -3.2452 2.4722
6 16 12 -2.3483 -0.5380
6 16 13 -0.2986 1.9247
6 17 0 1.1020 0.1978
6 17 1 -13.0960 -9.8633
6 17 2 -1.3563 3.7707
6 17 3 -4.5826 12.5547
6 17 4 3.3707 -7.4062
6 17 5 12.1088 -9.0055
6 17 6 1.4955 8.3264
6 17 7 -8.8960 -3.2287
6 17 8 -2.6417 3.3343
6 17 9 3.7764 6.3481
6 17 10 3.6481 -2.5008
6 17 11 5.2291 -3.9953
6 18 0 14.2000 0.4847
6 18 1 8.0394 -2.9759
6 18 2 -7.5121 -7.3206
6 18 3 1.0513 -3.4094
6 18 4 0.4783 6.8394
6 18 5 -4.3853 6.8500
6 18 6 13.4951 2.4560
6 18 7 4.6680 -1.4349
6 18 8 -6.5514 -4.6237
6 18 9 1.1786 -7.3775
6 19 0 -0.9728 0.0538
6 19 1 13.8882 2.7081
6 19 2 0.2869 9.0219
6 19 3 2.4552 -0.4558
6 19 4 0.9589 -10.4786
6 19 5 -7.0233 1.2643
7 0 1 -0.2166 63.4665
7 0 2 -8.6761 0.0990
7 0 3 -0.9646 -25.2206
7 0 4 35.8266 1.4746
7 0 5 0.1038 -45.0507
7 0 6 5.8916 -0.7501
7 0 7 1.0171 45.7570
7 0 8 -44.7131 -1.3057
7 0 9 0.4723 -38.6984
7 0 10 20.5611 0.1296
7 0 11 -0.2352 -10.3193
7 0 12 26.6617 1.0336
7 0 13 -1.3912 18.1035
7 0 14 3.0082 0.1942
7 0 15 -0.4190 -21.5196
7 0 16 -1.7763 -0.6360
7 0 17 1.7020 -4.2848
7 0 18 -20.4054 -0.5782
7 0 19 0.7745 -3.3929
7 0 20 12.4586 0.1587
7 0 21 -1.6134 1.3360
7 0 22 7.6969 0.3267
7 1 1 15.6050 41.4659
7 1 2 -31.4015 -18.9288
7 1 3 -51.0988 18.0070
7 1 4 9.5139 -18.4910
7 1 5 35.3754 -32.9162
7 1 6 -21.6358 28.6620
7 1 7 1.8994 -21.8406
7 1 8 -0.7524 -8.4958
7 1 9 -32.0814 10.9629
7 1 10 -0.6582 -11.5305
7 1 11 23.3705 26.0143
7 1 12 -22.6734 1.5825
7 1 13 -5.0232 -28.6808
7 1 14 2.5934 -1.0963
7 1 15 -8.7704 -15.8690
7 1 16 -5.7402 13.9068
7 1 17 9.6764 8.9244
7 1 18 -2.8156 -4.2051
7 1 19 -1.7224 2.2861
7 1 20 -2.2651 -10.9448
7 1 21 0.5197 3.7681
7 1 22 -1.0428 6.2499
7 2 0 0.3361 31.5368
7 2 1 10.9388 14.4089
7 2 2 -38.6807 -1.0703
7 2 3 -21.5626 -0.8597
7 2 4 3.7546 -1.4006
7 2 5 -17.3069 -4.9422
7 2 6 4.4657 6.2906
7 2 7 20.2350 30.1879
7 2 8 16.3831 -4.8434
7 2 9 12.2426 5.7837
7 2 10 -10.1487 11.0218
7 2 11 -31.0256 -9.6867
7 2 12 -26.5279 0.1186
7 2 13 -4.6874 11.9203
7 2 14 8.8859 -7.9637
7 2 15 21.6508 -2.0643
7 2 16 1.8167 2.9107
7 2 17 1.9688 7.9325
7 2 18 -1.1327 0.6943
7 2 19 -4.8586 6.8801
7 2 20 -2.6565 -2.6355
7 2 21 -2.6327 -5.4074
7 2 22 0.1402 -3.2168
7 3 0 -0.6884 5.8214
7 3 1 14.5406 -14.7427
7 3 2 7.0812 17.6982
7 3 3 6.8669 -7.6237
7 3 4 1.3567 -0.2167
7 3 5 16.0113 4.7460
7 3 6 10.7611 -24.3864
7 3 7 -5.7515 12.9535
7 3 8 8.6953 15.2139
7 3 9 -0.6638 15.0085
7 3 10 5.1597 21.6314
7 3 11 6.1466 -16.4470
7 3 12 0.8930 -2.6115
7 3 13 -8.6421 -5.1530
7 3 14 2.0811 -5.2477
7 3 15 9.2975 10.7316
7 3 16 8.2787 -9.7329
7 3 17 2.1224 12.6527
7 3 18 -3.4718 2.0790
7 3 19 -12.1969 -1.2467
7 3 20 1.7666 6.2859
7 3 21 6.5629 -8.4462
7 4 0 0.1015 -15.8640
7 4 1 11.0985 4.9141
7 4 2 28.5696 -15.6435
7 4 3 -13.2801 -0.8834
7 4 4 -12.1441 -2.9852
7 4 5 33.2562 9.0624
7 4 6 -7.0610 -8.0617
7 4 7 -8.5448 -11.4356
7 4 8 3.0298 -5.4667
7 4 9 -18.2577 -20.4973
7 4 10 12.0377 12.1493
7 4 11 28.9496 19.4989
7 4 12 7.2635 -2.3924
7 4 13 -3.9477 -4.9592
7 4 14 -15.3185 -6.7204
7 4 15 -1.8220 -11.0989
7 4 16 -0.8816 8.6544
7 4 17 -0.6010 6.4000
7 4 18 8.5972 -2.7495
7 4 19 -14.0029 -7.8559
7 4 20 3.6710 0.1808
7 4 21 5.8213 -1.1792
7 5 0 -0.7182 -0.3834
7 5 1 -17.8724 63.3264
7 5 2 -2.2883 -28.4888
7 5 3 4.7385 7.2122
7 5 4 4.9904 12.0070
7 5 5 -33.2596 -31.3795
7 5 6 -8.4348 28.9970
7 5 7 -8.9287 18.0357
7 5 8 11.9845 -44.9301
7 5 9 20.9245 -37.5646
7 5 10 -4.2584 -3.8715
7 5 11 -4.3009 15.9938
7 5 12 -13.6280 18.6165
7 5 13 -4.3059 26.3830
7 5 14 7.7037 -6.3248
7 5 15 -6.1374 -21.4518
7 5 16 -3.4129 1.7793
7 5 17 1.0635 0.1078
7 5 18 -2.1568 -3.1674
7 5 19 7.6995 0.3100
7 5 20 3.4888 1.1352
7 5 21 -1.4845 -1.0019
7 6 0 -0.0835 -6.9606
7 6 1 25.9392 -25.5099
7 6 2 -32.3733 21.6955
7 6 3 -41.6699 11.5996
7 6 4 54.5251 11.5432
7 6 5 -17.3279 1.8593
7 6 6 -29.9336 -10.4996
7 6 7 6.9341 -28.6858
7 6 8 -18.6644 20.1026
7 6 9 1.4451 18.1631
7 6 10 31.8494 -6.2777
7 6 11 13.3358 -4.0509
7 6 12 -21.0243 -6.8413
7 6 13 -5.2824 0.8202
7 6 14 6.8920 11.4715
7 6 15 -18.3676 8.0738
7 6 16 12.9684 -7.5327
7 6 17 12.1369 -13.7106
7 6 18 -7.4986 -2.0451
7 6 19 10.2137 7.2467
7 6 20 -1.8645 -1.1203
7 6 21 -3.4484 3.0780
7 7 0 -0.6870 14.0503
7 7 1 11.5205 -24.8671
7 7 2 33.0934 -1.5761
7 7 3 7.3265 -0.5781
7 7 4 -37.6577 -0.1832
7 7 5 7.7844 6.4982
7 7 6 13.7877 14.6681
7 7 7 14.4627 -5.8086
7 7 8 -7.3375 0.1305
7 7 9 -2.0075 18.8139
7 7 10 -23.4669 -1.5852
7 7 11 -0.5954 -21.1629
7 7 12 33.6893 2.0092
7 7 13 5.5095 -0.3847
7 7 14 -11.7506 -13.6710
7 7 15 -0.9514 10.8483
7 7 16 -13.4993 1.0654
7 7 17 -1.3264 -13.9095
7 7 18 7.1949 13.4489
7 7 19 0.2228 4.9756
7 7 20 -5.1439 -5.0551
7 8 0 0.0809 -39.9236
7 8 1 -34.1431 20.7175
7 8 2 40.7505 7.3026
7 8 3 40.0849 -3.8357
7 8 4 -37.5101 7.5066
7 8 5 28.2943 -3.8182
7 8 6 8.7356 -12.3784
7 8 7 -7.7894 25.9181
7 8 8 4.7217 7.3266
7 8 9 -12.0860 -5.9270
7 8 10 -21.3285 -19.0873
7 8 11 -12.1920 0.4053
7 8 12 13.3583 -1.6620
7 8 13 8.2567 2.2864
7 8 14 -7.6314 22.2843
7 8 15 9.4893 -0.4560
7 8 16 -1.4368 -8.1210
7 8 17 -9.5906 10.0532
7 8 18 2.3580 -0.9364
7 8 19 -3.0609 -1.9606
7 8 20 -2.9615 4.9808
7 9 0 -0.4842 -50.4074
7 9 1 -8.3290 -5.6592
7 9 2 9.7805 18.9207
7 9 3 -4.1479 -27.4017
7 9 4 5.2705 22.8717
7 9 5 0.3058 13.6629
7 9 6 0.2953 -33.8185
7 9 7 -10.5050 22.6953
7 9 8 3.7135 10.0277
7 9 9 -8.4787 -12.8919
7 9 10 6.4271 6.1960
7 9 11 -1.8062 15.1180
7 9 12 7.8375 -13.3857
7 9 13 3.3286 -5.2333
7 9 14 -0.6977 20.2696
7 9 15 4.7068 -8.1346
7 9 16 0.4391 -1.8671
7 9 17 -1.1372 14.7374
7 9 18 8.2258 -11.7877
7 9 19 -5.3444 -6.5926
7 10 0 -0.1358 -5.0995
7 10 1 10.4913 -24.1781
7 10 2 -4.4697 6.0540
7 10 3 -18.5174 -6.1684
7 10 4 -5.7006 -3.8509
7 10 5 -0.8082 10.8053
7 10 6 0.2120 -7.1447
7 10 7 -3.1100 -16.2784
7 10 8 24.8946 14.2765
7 10 9 3.3309 -0.3547
7 10 10 -3.2879 -2.9053
7 10 11 14.8587 -7.4750
7 10 12 -2.1840 2.0796
7 10 13 -13.2671 -8.8631
7 10 14 12.2512 -2.0222
7 10 15 -4.5160 2.8278
7 10 16 -12.1102 -11.1858
7 10 17 9.6770 -0.0063
7 10 18 3.1109 4.9059
7 10 19 -1.4988 -0.7008
7 11 0 -0.3284 38.2081
7 11 1 -9.3345 14.7094
7 11 2 2.8054 -2.1526
7 11 3 13.0803 14.4051
7 11 4 -22.7249 -30.5675
7 11 5 5.2316 -12.4109
7 11 6 18.5264 -0.4667
7 11 7 -3.1590 -6.8247
7 11 8 -0.9002 10.7015
7 11 9 7.3884 -5.4563
7 11 10 -23.4528 -0.0128
7 11 11 2.1092 -12.9801
7 11 12 4.5704 2.1760
7 11 13 -3.5913 16.8254
7 11 14 -10.3218 -5.4421
7 11 15 3.9671 -3.9856
7 11 16 -1.1668 -2.1972
7 11 17 -0.1854 -9.3901
7 11 18 6.4843 3.5455
7 12 0 0.0214 4.6849
7 12 1 2.4216 9.8099
7 12 2 -22.0744 7.0983
7 12 3 -2.8434 -5.4519
7 12 4 1.2008 -1.9052
7 12 5 6.6043 -2.6457
7 12 6 21.4750 -4.0921
7 12 7 -3.5789 14.5171
7 12 8 -22.3733 12.7998
7 12 9 -12.5609 -4.7273
7 12 10 -5.9306 0.5817
7 12 11 7.5202 11.4409
7 12 12 7.2876 -9.2196
7 12 13 10.1058 6.8698
7 12 14 -13.4277 6.5886
7 12 15 -6.0359 -3.8300
7 12 16 6.4675 -2.0761
7 12 17 -2.4784 1.5521
7 13 0 -0.2131 -11.4007
7 13 1 9.7031 -1.6787
7 13 2 -7.4145 -0.1118
7 13 3 -15.1504 -10.0015
7 13 4 10.3568 6.8905
7 13 5 3.4440 7.0669
7 13 6 -6.6264 11.1921
7 13 7 5.9393 11.6526
7 13 8 3.5429 7.5699
7 13 9 -5.4771 -2.6539
7 13 10 4.5566 -15.3620
7 13 11 2.8264 1.7452
7 13 12 1.2547 -0.9661
7 13 13 -0.6637 -1.0179
7 13 14 8.9578 8.4187
7 13 15 -7.7705 5.1507
7 13 16 -5.0127 -2.1334
7 14 0 0.0823 10.3962
7 14 1 -3.1586 9.1480
7 14 2 25.4111 -12.2930
7 14 3 2.4207 8.6115
7 14 4 -6.1626 -3.9400
7 14 5 -3.6091 -11.7513
7 14 6 -3.3592 4.0095
7 14 7 3.8434 -5.3355
7 14 8 7.2025 -12.2973
7 14 9 6.4826 6.1835
7 14 10 -9.1151 -2.3163
7 14 11 -5.2062 -10.1174
7 14 12 9.8972 2.6566
7 14 13 -3.0683 2.8963
7 14 14 8.3000 1.2687
7 14 15 1.0386 3.9296
7 15 0 -0.1333 -20.0216
7 15 1 2.6822 3.2976
7 15 2 -13.5293 12.9655
7 15 3 -0.6982 5.1345
7 15 4 10.0215 1.8176
7 15 5 -8.7502 -9.6394
7 15 6 -1.3889 -23.7648
7 15 7 3.3105 -9.0495
7 15 8 -5.6225 12.8077
7 15 9 1.1397 6.8105
7 15 10 4.4618 3.0169
7 15 11 -2.4141 -0.0437
7 15 12 1.7277 -8.6988
7 15 13 5.6614 -2.0112
7 16 0 0.2336 17.0188
7 16 1 6.2067 -14.1387
7 16 2 -4.6813 -4.6410
7 16 3 -11.7863 2.6758
7 16 4 -15.3220 0.0728
7 16 5 3.8933 10.1772
7 16 6 8.9135 10.9090
7 16 7 4.5714 -6.3688
7 16 8 5.8613 -1.2635
7 16 9 -2.1911 0.9362
7 16 10 -6.0188 1.2011
7 16 11 0.0364 2.9987
7 16 12 -0.7787 -0.5086
7 17 0 -0.0509 16.2134
7 17 1 -9.5406 6.8284
7 17 2 3.0482 -4.4615
7 17 3 20.3248 -1.6184
7 17 4 4.0117 -2.3135
7 17 5 -8.0657 -1.1265
7 17 6 -6.4426 4.8589
7 17 7 -2.0444 5.4323
7 17 8 0.3653 -3.7447
7 17 9 4.2608 -0.5825
7 17 10 -2.7749 0.2813
7 18 0 0.3897 -12.6149
7 18 1 -2.3003 -8.8651
7 18 2 -3.0153 -0.2310
7 18 3 4.9814 2.7605
7 18 4 9.9281 4.5269
7 18 5 -4.7605 1.8660
7 18 6 -7.4442 -4.5696
7 18 7 -1.3453 -3.6853
7 19 0 -0.1435 -6.7406
7 19 1 0.9342 -7.6378
7 19 2 1.6725 0.1506
7 19 3 -3.1319 3.6965
8 0 1 -0.0609 -20.2040
8 0 2 3.2901 -0.1012
8 0 3 0.2946 -23.9840
8 0 4 -6.2456 -2.4585
8 0 5 -0.0614 5.8371
8 0 6 -21.4277 -0.5540
8 0 7 -0.5745 22.3233
8 0 8 21.0901 0.6914
8 0 9 0.1688 -25.6082
8 0 10 3.0190 1.1192
8 0 11 0.5852 -27.5384
8 0 12 -18.6561 0.2198
8 0 13 0.0188 16.1780
8 0 14 11.5398 -0.8838
8 0 15 -0.5259 11.3107
8 0 16 -13.8733 -1.1367
8 0 17 -0.1196 0.1692
8 0 18 7.0780 0.3334
8 0 19 0.4429 -1.7382
8 0 20 15.4160 1.6805
8 0 21 -0.0867 -3.1565
8 1 1 3.9076 33.3633
8 1 2 -7.5634 -26.4604
8 1 3 -1.2980 -5.0887
8 1 4 -27.2711 22.5342
8 1 5 13.9288 -17.4464
8 1 6 -17.5888 -16.2229
8 1 7 5.4704 -1.2536
8 1 8 35.5416 1.0918
8 1 9 -22.6517 30.5080
8 1 10 -12.0903 17.3593
8 1 11 10.2449 -5.9221
8 1 12 -38.4012 -22.9725
8 1 13 18.4325 -12.1444
8 1 14 18.1116 7.2159
8 1 15 -7.1709 10.8320
8 1 16 15.1668 4.2280
8 1 17 -0.0947 -6.4785
8 1 18 -1.5717 -14.6762
8 1 19 -2.0890 5.0302
8 1 20 1.6740 7.5002
8 1 21 -0.8845 -3.2630
8 2 0 -34.3800 1.9109
8 2 1 13.2932 12.4242
8 2 2 25.1960 -19.2969
8 2 3 -29.6438 34.2701
8 2 4 15.3859 14.8896
8 2 5 -12.9797 -33.5443
8 2 6 -0.0296 -27.9853
8 2 7 39.0796 6.8163
8 2 8 11.0088 -1.2345
8 2 9 -20.9953 35.3946
8 2 10 -33.0012 39.6082
8 2 11 -10.6632 -17.6975
8 2 12 10.7217 -30.5135
8 2 13 15.2745 2.9743
8 2 14 17.5837 -25.3136
8 2 15 -14.7760 3.0071
8 2 16 -9.6010 19.0335
8 2 17 2.7095 -10.7863
8 2 18 -1.7669 2.1975
8 2 19 0.3432 7.8771
8 2 20 -2.9453 -4.9727
8 2 21 -4.2785 -5.2171
8 3 0 -15.0342 -0.3965
8 3 1 34.9502 -31.0243
8 3 2 15.7339 9.6779
8 3 3 -29.8735 38.8084
8 3 4 22.0378 -3.5993
8 3 5 -42.0417 -35.2842
8 3 6 -0.2515 16.3672
8 3 7 49.0646 8.2096
8 3 8 12.2830 9.4476
8 3 9 -10.0248 6.2969
8 3 10 -13.8335 -11.3444
8 3 11 -24.3755 -22.5349
8 3 12 -5.9541 4.2163
8 3 13 5.9156 22.3140
8 3 14 20.0467 -2.2390
8 3 15 -19.9739 -2.8025
8 3 16 -0.8152 6.0706
8 3 17 4.0576 -8.6466
8 3 18 -15.5858 7.5927
8 3 19 8.3136 1.7320
8 3 20 -1.3377 -7.0192
8 3 21 -8.9940 0.1917
8 4 0 47.6742 1.5342
8 4 1 15.2048 -20.1954
8 4 2 -19.5114 10.1752
8 4 3 12.5868 31.0122
8 4 4 -15.5660 1.5207
8 4 5 2.6323 -23.7534
8 4 6 -0.4443 10.5369
8 4 7 0.2129 -21.1185
8 4 8 -19.0844 5.5560
8 4 9 6.5254 16.4474
8 4 10 34.0709 -6.3099
8 4 11 4.7099 -1.3587
8 4 12 -8.3976 3.9846
8 4 13 -2.7923 7.4198
8 4 14 -19.0567 13.2647
8 4 15 1.2461 -0.6383
8 4 16 14.9207 8.1434
8 4 17 -1.0054 -13.3524
8 4 18 -2.6538 0.0334
8 4 19 4.3739 7.3538
8 4 20 0.9877 -4.2927
8 4 21 3.3118 5.7429
8 5 0 39.8989 -0.0779
8 5 1 3.3974 16.5827
8 5 2 -6.0216 10.2585
8 5 3 19.1849 -32.1664
8 5 4 -30.3252 5.9088
8 5 5 4.3250 19.5247
8 5 6 -2.3865 -18.0580
8 5 7 -8.3102 -1.1148
8 5 8 2.5782 -27.3730
8 5 9 16.8915 1.0103
8 5 10 8.9683 8.5878
8 5 11 15.0769 21.6963
8 5 12 10.0777 16.3401
8 5 13 -2.3257 -19.0327
8 5 14 -7.1390 -6.1571
8 5 15 3.5268 -0.1469
8 5 16 -5.9911 -12.9399
8 5 17 8.2325 7.1214
8 5 18 4.9630 -0.2398
8 5 19 3.4618 -3.0963
8 5 20 3.2130 3.4638
8 6 0 -33.1877 1.6428
8 6 1 -16.1317 0.5618
8 6 2 15.4264 19.0537
8 6 3 -10.9755 -21.7638
8 6 4 3.1460 8.1488
8 6 5 8.5508 26.9469
8 6 6 -16.1857 -31.8839
8 6 7 -1.1745 8.1118
8 6 8 23.0536 -9.6191
8 6 9 -8.3640 -22.8412
8 6 10 -2.2574 2.7572
8 6 11 -2.3912 6.9117
8 6 12 -2.6025 -6.7866
8 6 13 -6.0513 -3.6002
8 6 14 1.7205 6.3191
8 6 15 2.5614 -9.7895
8 6 16 -5.5455 -10.5892
8 6 17 1.2129 9.5918
8 6 18 4.5169 -10.1759
8 6 19 -6.8357 4.2835
8 6 20 -1.9002 7.2710
8 7 0 -43.3380 -0.0830
8 7 1 -1.8727 -10.2674
8 7 2 13.9005 -4.0551
8 7 3 4.4333 25.2380
8 7 4 6.6143 -11.0753
8 7 5 3.0974 -8.2266
8 7 6 -20.3240 15.8630
8 7 7 -20.8460 7.0761
8 7 8 17.6743 8.2965
8 7 9 -15.3006 -9.3439
8 7 10 -16.6967 -2.4461
8 7 11 -0.7536 -17.5554
8 7 12 -3.4870 3.2802
8 7 13 -9.9169 17.8599
8 7 14 10.8868 -6.2572
8 7 15 4.4950 1.0525
8 7 16 -13.8794 10.2144
8 7 17 2.5262 -4.8704
8 7 18 6.6235 3.6136
8 7 19 -8.2136 -0.6555
8 7 20 3.3276 -3.1889
8 8 0 47.0871 1.2183
8 8 1 12.5726 -11.3680
8 8 2 -25.0911 -59.8858
8 8 3 21.1889 28.9598
8 8 4 -2.0274 27.4091
8 8 5 -9.5456 0.0918
8 8 6 30.0223 13.8049
8 8 7 -21.6965 -0.9043
8 8 8 -31.7002 0.4343
8 8 9 12.5837 5.9631
8 8 10 10.3686 23.7231
8 8 11 8.9127 -4.3064
8 8 12 -0.0022 -17.2727
8 8 13 9.5635 2.8543
8 8 14 -3.9340 0.7060
8 8 15 -4.4533 2.0735
8 8 16 12.8737 12.9364
8 8 17 -9.7006 -0.3813
8 8 18 -8.0085 -5.5692
8 8 19 7.7829 -1.9058
8 9 0 -37.6907 0.1723
8 9 1 25.1075 1.8511
8 9 2 15.9360 22.6261
8 9 3 5.1723 -31.4470
8 9 4 34.6745 -11.6859
8 9 5 -23.2497 35.4830
8 9 6 -9.1413 -1.9621
8 9 7 19.5116 -17.5316
8 9 8 10.6980 6.6616
8 9 9 12.7351 -12.7790
8 9 10 4.4304 -11.8083
8 9 11 -2.7339 25.9283
8 9 12 -18.7869 -1.5669
8 9 13 10.7239 -16.6939
8 9 14 12.3227 6.0913
8 9 15 -4.3149 7.0837
8 9 16 2.8260 -6.1875
8 9 17 -6.7221 2.1459
8 9 18 -7.1470 4.1312
8 9 19 5.1064 -4.5220
8 10 0 -29.9119 1.0346
8 10 1 -30.5545 0.3178
8 10 2 13.9267 -1.9178
8 10 3 -3.1932 -5.7384
8 10 4 -1.1684 4.0778
8 10 5 22.5061 -12.0498
8 10 6 -15.4601 -2.0511
8 10 7 -9.7074 -18.2341
8 10 8 15.3234 -9.8903
8 10 9 9.7504 7.9442
8 10 10 -17.8648 2.4108
8 10 11 -4.6278 5.5707
8 10 12 10.4288 4.2173
8 10 13 -18.5212 -4.7982
8 10 14 5.2050 -7.2217
8 10 15 12.1677 5.4972
8 10 16 -10.9553 0.5652
8 10 17 5.5032 -2.4113
8 10 18 7.7158 -0.8035
8 11 0 5.8406 0.0502
8 11 1 -32.2681 14.6964
8 11 2 -5.8889 -37.2486
8 11 3 -13.2112 -6.7580
8 11 4 -15.8150 18.2260
8 11 5 20.9506 -11.8788
8 11 6 -6.9041 0.9850
8 11 7 -8.6665 19.9629
8 11 8 -9.5749 -6.2364
8 11 9 6.2437 0.2549
8 11 10 0.4094 8.0061
8 11 11 -1.6933 -2.9048
8 11 12 10.5294 -9.5757
8 11 13 -11.7031 3.6527
8 11 14 -3.8203 1.8523
8 11 15 7.2600 -14.9336
8 11 16 -3.6376 3.5464
8 11 17 1.8604 2.8109
8 12 0 -20.1415 0.9075
8 12 1 5.1126 24.6717
8 12 2 4.5264 0.1862
8 12 3 -2.6639 -31.8563
8 12 4 17.6748 2.7712
8 12 5 -0.9177 17.5788
8 12 6 -5.4901 2.2572
8 12 7 1.3707 22.0343
8 12 8 1.4568 -0.1288
8 12 9 -10.5615 -17.7517
8 12 10 9.6792 -9.2528
8 12 11 0.6045 11.7468
8 12 12 -9.6648 -5.6397
8 12 13 6.3274 -1.2275
8 12 14 2.5014 11.1132
8 12 15 -6.3346 -9.2907
8 12 16 0.9060 0.2832
8 13 0 -2.8980 0.0130
8 13 1 -13.1686 -10.2730
8 13 2 6.2635 4.4142
8 13 3 10.0099 10.0806
8 13 4 9.6516 4.4395
8 13 5 17.7447 -0.5705
8 13 6 -0.6152 -7.2837
8 13 7 -22.1228 -7.3454
8 13 8 7.3957 0.8555
8 13 9 -5.4882 4.3145
8 13 10 -1.9625 6.0880
8 13 11 8.5952 -7.0877
8 13 12 -0.5850 4.2033
8 13 13 -5.4750 0.4323
8 13 14 5.8048 2.6467
8 13 15 0.6398 12.1548
8 14 0 19.6768 0.7348
8 14 1 14.2301 -6.4976
8 14 2 -2.7044 -2.2584
8 14 3 -7.4732 -5.7362
8 14 4 -19.7971 1.7957
8 14 5 -7.4501 5.0123
8 14 6 5.3806 -5.7041
8 14 7 14.2368 -0.4641
8 14 8 5.6617 0.3822
8 14 9 -2.9704 -5.0930
8 14 10 -8.4161 12.7810
8 14 11 0.4412 -3.2561
8 14 12 8.0234 0.3083
8 14 13 6.9522 1.1320
8 14 14 -3.9124 -3.4317
8 15 0 0.5470 -0.0745
8 15 1 -1.0380 4.1695
8 15 2 -5.3303 19.9449
8 15 3 -5.0843 4.7729
8 15 4 -6.6358 -16.4721
8 15 5 -0.4278 -16.5553
8 15 6 1.9468 1.1328
8 15 7 6.8642 7.5024
8 15 8 3.7799 5.9514
8 15 9 3.5684 1.2875
8 15 10 1.1802 -9.5464
8 15 11 -0.7577 -4.0997
8 15 12 -6.9405 -0.9634
8 15 13 2.0896 1.4163
8 16 0 10.3832 0.6209
8 16 1 -6.7838 9.9349
8 16 2 -8.7911 6.4341
8 16 3 -2.1306 -2.9392
8 16 4 6.7479 -8.7382
8 16 5 5.8932 -2.7098
8 16 6 5.3973 0.6236
8 16 7 -4.0906 -1.2631
8 16 8 -10.0378 -0.1602
8 16 9 -2.4834 1.0288
8 16 10 3.7815 -1.7300
8 16 11 -0.2729 5.2645
8 17 0 12.7574 0.1664
8 17 1 -11.0768 -2.5927
8 17 2 -4.8047 -6.7749
8 17 3 0.3461 -1.3955
8 17 4 -2.4347 2.8191
8 17 5 3.2906 10.5446
8 17 6 3.7633 5.8674
8 17 7 -10.0208 -1.2878
8 17 8 -2.2978 -3.5542
8 17 9 4.6472 -0.4021
8 18 0 -1.8775 0.3248
8 18 1 6.9803 2.7826
8 18 2 0.1615 7.1464
8 18 3 6.1826 -10.3769
8 18 4 0.3250 -1.1541
8 18 5 -5.3481 9.1302
8 18 6 -1.3492 -0.8535
9 0 1 -0.1630 -5.5515
9 0 2 -35.5136 0.3378
9 0 3 -1.5043 -5.1867
9 0 4 78.2572 -0.2949
9 0 5 -0.0102 10.3668
9 0 6 -11.0357 -0.0629
9 0 7 1.6439 -16.8237
9 0 8 -24.2204 0.2857
9 0 9 0.4091 -7.5637
9 0 10 23.7184 0.5204
9 0 11 -0.5603 29.4308
9 0 12 -1.5432 -0.4385
9 0 13 -1.3468 -9.5107
9 0 14 22.9308 -0.6144
9 0 15 -0.2900 -5.2396
9 0 16 5.8347 0.3294
9 0 17 1.6346 -3.0603
9 0 18 -12.5306 0.8860
9 0 19 0.8003 -5.2510
9 0 20 7.0701 -0.3031
9 0 21 -1.1493 11.0335
9 1 0 0.3382 30.7625
9 1 1 -11.0534 -31.1105
9 1 2 -32.8618 -32.2805
9 1 3 12.0843 -7.5665
9 1 4 -12.3425 -11.3930
9 1 5 4.0432 -12.3713
9 1 6 17.4873 38.0063
9 1 7 -4.5017 -20.5624
9 1 8 28.1705 -16.0947
9 1 9 5.8903 29.8840
9 1 10 -24.3255 -10.2070
9 1 11 -5.7876 -5.3288
9 1 12 -11.0665 1.9248
9 1 13 -2.3906 -31.1747
9 1 14 23.0006 -5.0213
9 1 15 2.9475 -4.1376
9 1 16 -8.3548 13.9926
9 1 17 -3.5259 5.6685
9 1 18 -2.0292 -1.6415
9 1 19 5.4488 0.9903
9 1 20 -1.1546 -5.6262
9 1 21 2.0984 -2.7833
9 2 0 0.4030 11.9563
9 2 1 -25.2206 -4.9922
9 2 2 -11.9486 12.1225
9 2 3 4.8372 -11.8515
9 2 4 -8.8473 -11.6882
9 2 5 -3.3337 0.6740
9 2 6 -2.1768 -26.2196
9 2 7 15.1636 26.4271
9 2 8 -11.5481 17.8827
9 2 9 2.0798 4.9983
9 2 10 -0.0272 13.6798
9 2 11 -30.4973 -26.2281
9 2 12 -3.9768 -19.0411
9 2 13 -3.4244 1.9943
9 2 14 -8.5500 7.2023
9 2 15 21.6924 5.7598
9 2 16 -2.4871 7.3176
9 2 17 -0.3985 1.3247
9 2 18 -6.7753 -7.5655
9 2 19 -7.2315 -0.8427
9 2 20 2.8209 0.0290
9 2 21 1.4940 -2.8120
9 3 0 -0.0553 24.5110
9 3 1 16.0612 11.7692
9 3 2 14.7234 17.6305
9 3 3 -26.9200 -3.5794
9 3 4 -1.2985 2.2863
9 3 5 21.4432 0.3733
9 3 6 -10.3496 -13.1197
9 3 7 -1.7654 16.7780
9 3 8 0.8662 -5.5822
9 3 9 -28.7792 0.5430
9 3 10 8.9654 19.9049
9 3 11 13.4726 6.3988
9 3 12 -1.1516 6.9432
9 3 13 3.7366 -3.9873
9 3 14 -4.3707 -6.5142
9 3 15 -2.0710 1.2451
9 3 16 -3.1892 -2.1798
9 3 17 4.0404 10.8495
9 3 18 -3.7474 -7.7312
9 3 19 -5.9268 -1.1761
9 3 20 7.5225 0.1358
9 4 0 -0.1466 19.9177
9 4 1 32.7748 30.5446
9 4 2 -19.4127 -30.8349
9 4 3 -9.6550 15.9526
9 4 4 5.1970 6.6187
9 4 5 7.8171 -11.8042
9 4 6 -9.9734 33.0401
9 4 7 1.3013 -6.6543
9 4 8 26.1933 -36.6554
9 4 9 -5.0102 -12.4634
9 4 10 17.8032 14.6373
9 4 11 15.2663 13.3600
9 4 12 -22.1105 16.1274
9 4 13 5.4087 7.1265
9 4 14 0.6899 -19.9119
9 4 15 -6.6646 -8.3885
9 4 16 5.5701 7.2379
9 4 17 0.0142 -0.6223
9 4 18 2.3659 -3.0823
9 4 19 -1.9918 3.3773
9 4 20 4.1161 -4.3170
9 5 0 -0.2180 -2.2444
9 5 1 -3.8288 23.3871
9 5 2 -47.9025 -19.3722
9 5 3 28.7351 21.6413
9 5 4 52.6152 -8.9522
9 5 5 -48.0806 -15.7600
9 5 6 -10.9488 -0.3567
9 5 7 5.5733 -1.7760
9 5 8 -6.3915 -12.8211
9 5 9 41.1078 -6.2410
9 5 10 21.5379 4.4863
9 5 11 -15.1396 -10.3508
9 5 12 -31.9381 9.4982
9 5 13 -1.5502 14.8399
9 5 14 6.9584 -11.9544
9 5 15 -4.6065 2.5039
9 5 16 14.0731 -2.6179
9 5 17 -1.4703 -6.0005
9 5 18 -9.6031 11.7134
9 5 19 7.6018 1.6554
9 5 20 -1.1117 1.0915
9 6 0 -0.1518 23.5187
9 6 1 9.0942 -66.3536
9 6 2 19.3853 -0.1787
9 6 3 -37.3854 10.7494
9 6 4 6.6757 -18.7771
9 6 5 -5.2879 34.0566
9 6 6 3.0526 6.7973
9 6 7 -1.2224 -55.5635
9 6 8 -18.5290 11.5540
9 6 9 -12.9580 31.1433
9 6 10 0.6756 -4.7712
9 6 11 15.8681 6.6875
9 6 12 10.0970 1.6590
9 6 13 -5.2508 -17.7237
9 6 14 -6.8343 -4.2714
9 6 15 -6.8013 15.0596
9 6 16 11.4294 0.4780
9 6 17 2.4787 -5.4342
9 6 18 1.3268 9.4878
9 6 19 1.9134 -3.4235
9 7 0 -0.3181 -19.0474
9 7 1 -23.2661 21.7346
9 7 2 37.0339 8.8980
9 7 3 28.1038 -12.7873
9 7 4 -40.0929 21.7913
9 7 5 -3.8316 -17.0328
9 7 6 12.9157 17.9267
9 7 7 -6.4361 20.2819
9 7 8 -4.1866 2.8733
9 7 9 9.8831 -18.2571
9 7 10 -15.1473 -11.1633
9 7 11 -14.8290 0.5014
9 7 12 32.0428 -4.6843
9 7 13 1.9738 9.7231
9 7 14 -10.9229 2.4612
9 7 15 14.5262 -14.5142
9 7 16 -6.6625 -0.0714
9 7 17 -8.3683 -2.3245
9 7 18 5.8136 -0.9159
9 7 19 -3.3697 1.3161
9 8 0 -0.1013 -57.6156
9 8 1 -0.9082 32.9179
9 8 2 11.7221 15.3567
9 8 3 3.4695 -8.9428
9 8 4 -3.6955 31.4118
9 8 5 26.7467 -12.9682
9 8 6 -15.4596 -24.1883
9 8 7 1.9215 24.8420
9 8 8 -0.3218 0.4178
9 8 9 -4.8185 -16.2867
9 8 10 -4.7334 -11.6903
9 8 11 5.2976 2.8150
9 8 12 -5.2136 -6.0770
9 8 13 -7.7120 -0.4051
9 8 14 5.4769 21.0203
9 8 15 -2.8646 -7.6897
9 8 16 -9.8735 -6.7130
9 8 17 8.0751 11.8333
9 8 18 -2.4084 -9.5384
9 8 19 -1.2729 -0.3812
9 9 0 -0.4664 -11.7735
9 9 1 28.3157 -10.2597
9 9 2 9.3142 3.9290
9 9 3 -39.4166 -11.2816
9 9 4 7.5644 0.5911
9 9 5 14.4204 11.2075
9 9 6 -16.4981 -23.5432
9 9 7 7.2983 12.2178
9 9 8 10.0886 0.4643
9 9 9 -21.9089 6.8771
9 9 10 1.3208 6.6104
9 9 11 18.2354 7.4318
9 9 12 -7.8182 -0.6640
9 9 13 -0.8720 0.5401
9 9 14 5.8118 6.3910
9 9 15 -9.6769 -3.2745
9 9 16 -5.8647 0.5322
9 9 17 9.5731 6.5396
9 9 18 1.8555 -3.6637
9 10 0 -0.0841 29.8313
9 10 1 -5.0091 5.2850
9 10 2 0.4667 -8.7789
9 10 3 -4.1440 2.8402
9 10 4 -14.3249 -13.8882
9 10 5 12.5064 -9.6251
9 10 6 13.5955 14.5082
9 10 7 -12.5459 12.7802
9 10 8 17.8459 2.1193
9 10 9 -4.6406 0.0364
9 10 10 1.5429 7.0964
9 10 11 8.9085 -18.0015
9 10 12 8.5844 8.3265
9 10 13 -9.8483 17.6997
9 10 14 -2.3307 -14.6002
9 10 15 7.0483 -0.6639
9 10 16 -0.1017 -0.2657
9 10 17 0.0644 -8.9106
9 11 0 -0.3325 15.7004
9 11 1 -18.9746 10.8340
9 11 2 -20.0282 -2.2057
9 11 3 13.1065 -6.2433
9 11 4 9.0229 -8.3886
9 11 5 12.4498 -2.5728
9 11 6 15.8957 3.6631
9 11 7 -10.2318 8.8958
9 11 8 -16.8609 0.8986
9 11 9 -5.6412 -28.2607
9 11 10 6.6338 2.2696
9 11 11 6.1839 -3.2341
9 11 12 0.5588 0.3977
9 11 13 1.6413 4.7660
9 11 14 -12.1339 -1.0254
9 11 15 -2.2589 -7.0616
9 11 16 12.1505 -0.4249
9 12 0 -0.0759 0.5447
9 12 1 2.1830 -10.7291
9 12 2 -12.9360 -7.1001
9 12 3 -0.8450 -17.7103
9 12 4 14.2219 -1.1880
9 12 5 -4.5331 12.0622
9 12 6 -4.1590 7.8050
9 12 7 -6.1647 3.5704
9 12 8 -13.3067 -4.0873
9 12 9 -5.0388 -13.9950
9 12 10 -3.2671 -12.1819
9 12 11 9.8074 11.6175
9 12 12 -7.2250 3.2582
9 12 13 4.9029 -3.8028
9 12 14 1.3214 3.3317
9 12 15 -5.9642 -3.0031
9 13 0 -0.4860 -2.3941
9 13 1 4.8075 -4.3082
9 13 2 5.7268 -0.6214
9 13 3 -3.2621 8.5519
9 13 4 2.3366 -1.0078
9 13 5 0.0909 0.8153
9 13 6 -9.6277 8.0395
9 13 7 1.2955 -4.1167
9 13 8 2.0792 8.0742
9 13 9 4.7762 11.3356
9 13 10 -3.2418 -7.3503
9 13 11 4.0818 -2.2398
9 13 12 4.7505 -2.7460
9 13 13 -6.8834 6.2469
9 13 14 3.0623 1.1990
9 14 0 0.1444 2.5541
9 14 1 1.9180 16.4865
9 14 2 5.5897 5.6356
9 14 3 -0.2979 11.1260
9 14 4 -7.4808 -0.8137
9 14 5 2.2516 -15.9393
9 14 6 13.9526 -5.6409
9 14 7 10.8323 6.0337
9 14 8 0.2939 4.9194
9 14 9 2.6561 4.6817
9 14 10 -6.4207 2.9349
9 14 11 -2.9440 -3.4934
9 14 12 9.9192 -2.7099
9 14 13 -3.0405 7.8774
9 15 0 -0.3161 -1.9150
9 15 1 9.4241 -1.7978
9 15 2 -11.1636 4.9605
9 15 3 -20.6454 -6.5303
9 15 4 -1.4007 -6.2288
9 15 5 7.8835 -4.1442
9 15 6 7.3853 -9.0581
9 15 7 4.0040 1.6516
9 15 8 -0.9348 6.0332
9 15 9 -11.9726 -0.8677
9 15 10 1.6180 -0.7316
9 15 11 3.9269 3.7332
9 15 12 -1.5830 -0.6940
9 16 0 0.3315 14.0221
9 16 1 -8.3209 4.8614
9 16 2 0.5757 -9.4198
9 16 3 3.3755 -5.2852
9 16 4 -8.0803 -4.0911
9 16 5 -4.4810 -2.1683
9 16 6 -1.3107 8.6625
9 16 7 -2.9002 5.7315
9 16 8 4.4023 -6.1633
9 16 9 0.2356 -5.1043
9 16 10 -0.4691 -0.1489
9 17 0 -0.5093 -7.6620
9 17 1 -3.6121 -2.5859
9 17 2 -0.4201 6.6522
9 17 3 10.7496 5.7833
9 17 4 10.6470 4.7959
9 17 5 -4.0101 1.7991
9 17 6 -7.0169 -4.5522
9 17 7 0.5627 -5.2794
9 18 0 0.3318 -9.4537
9 18 1 7.3178 -9.4463
9 18 2 5.3530 1.3992
9 18 3 -0.7729 5.2322
9 18 4 -4.2351 3.9060
10 0 1 -0.9110 -29.8165
10 0 2 26.5169 0.1597
10 0 3 0.7405 -1.1998
10 0 4 17.3899 -1.1361
10 0 5 1.0482 -16.7845
10 0 6 -21.2121 -0.5783
10 0 7 -0.0433 10.1686
10 0 8 23.6804 0.4669
10 0 9 -0.8847 18.4883
10 0 10 6.8324 0.8822
10 0 11 -0.6423 -37.9779
10 0 12 -16.6124 0.4192
10 0 13 0.8089 -7.4547
10 0 14 0.7417 -0.7420
10 0 15 0.2130 20.1143
10 0 16 -3.2975 -0.9358
10 0 17 0.1112 -6.0870
10 0 18 0.1971 0.5271
10 0 19 -0.3405 5.3390
10 0 20 4.9594 0.8822
10 1 0 -47.8642 -0.1516
10 1 1 32.0561 -2.0524
10 1 2 -15.4023 -20.9411
10 1 3 -0.6578 9.8152
10 1 4 6.7254 10.8836
10 1 5 -3.9351 -52.9508
10 1 6 17.3793 3.4769
10 1 7 22.2768 3.7906
10 1 8 5.2093 -0.9390
10 1 9 -32.1688 33.0979
10 1 10 -29.7497 7.3884
10 1 11 1.4215 -30.0152
10 1 12 -4.7545 -1.4054
10 1 13 27.3419 -5.4746
10 1 14 8.2040 -1.2864
10 1 15 -11.4478 18.0505
10 1 16 8.7431 0.7572
10 1 17 0.1790 -6.8785
10 1 18 0.4816 -1.8374
10 1 19 2.1246 -0.1011
10 1 20 -1.8995 -1.1086
10 2 0 12.4910 0.1600
10 2 1 28.4220 -0.7147
10 2 2 -23.8828 -11.8108
10 2 3 -25.4423 44.1283
10 2 4 0.9339 -35.4085
10 2 5 -19.2454 -17.8121
10 2 6 23.3309 6.8810
10 2 7 52.8251 15.8342
10 2 8 -28.8575 19.5322
10 2 9 -20.3769 0.7614
10 2 10 -11.3415 -1.5191
10 2 11 -12.0445 -18.9052
10 2 12 17.0170 -8.7152
10 2 13 28.6961 26.5605
10 2 14 -3.4427 -18.2543
10 2 15 -11.9681 -0.1396
10 2 16 4.6596 2.0689
10 2 17 -7.4387 -9.8834
10 2 18 0.4996 7.7353
10 2 19 8.1191 1.9203
10 2 20 -2.2001 -4.7768
10 3 0 43.3882 0.1169
10 3 1 -9.7511 -10.7350
10 3 2 -14.1370 43.3367
10 3 3 -19.5662 32.9423
10 3 4 1.2236 -46.3589
10 3 5 -10.6717 -9.1759
10 3 6 19.4469 16.1119
10 3 7 -0.3160 -3.0593
10 3 8 -11.0434 19.6749
10 3 9 11.1332 12.0199
10 3 10 12.5406 -38.9857
10 3 11 2.5398 -7.6452
10 3 12 -10.1334 6.2025
10 3 13 -10.9990 12.9524
10 3 14 -3.7131 3.8733
10 3 15 -9.2830 2.6259
10 3 16 11.2457 -11.8044
10 3 17 -0.5548 -10.5552
10 3 18 -6.4569 9.3615
10 3 19 3.2204 -1.9937
10 3 20 -2.5403 -4.0267
10 4 0 53.3625 0.5958
10 4 1 -2.9258 26.1172
10 4 2 -11.5554 22.9798
10 4 3 10.7026 -37.3562
10 4 4 -21.2001 19.3404
10 4 5 -0.0503 -2.8559
10 4 6 19.0080 -1.6140
10 4 7 -10.8828 -24.1168
10 4 8 -12.7143 -6.0141
10 4 9 1.2478 5.1682
10 4 10 8.5021 9.8569
10 4 11 3.3451 29.5139
10 4 12 7.9981 2.9413
10 4 13 -13.1553 -16.8706
10 4 14 -16.5113 6.6253
10 4 15 -5.0899 -6.6368
10 4 16 4.2058 5.9818
10 4 17 2.3850 1.6326
10 4 18 2.7397 1.5019
10 4 19 -0.9036 1.7038
10 4 20 -6.5266 0.0855
10 5 0 -15.6241 0.0361
10 5 1 -9.1627 7.8634
10 5 2 23.8719 5.2209
10 5 3 -0.7660 -25.5279
10 5 4 -8.9664 15.8070
10 5 5 8.1915 1.9951
10 5 6 -30.9601 -11.2000
10 5 7 11.7174 13.8014
10 5 8 17.7423 -9.0373
10 5 9 11.6303 -2.4526
10 5 10 -9.3067 14.3193
10 5 11 -5.7633 2.2168
10 5 12 6.0831 14.5976
10 5 13 -8.6195 -2.6507
10 5 14 13.1594 -1.1939
10 5 15 10.0144 -6.5483
10 5 16 -10.7742 -0.2936
10 5 17 10.3534 5.1871
10 5 18 -0.7049 2.8285
10 5 19 -3.0697 2.0957
10 6 0 -33.4745 0.4327
10 6 1 -1.1193 -27.6989
10 6 2 13.4007 -8.3784
10 6 3 -12.2107 27.6565
10 6 4 10.1137 6.2533
10 6 5 14.4501 -2.2928
10 6 6 -20.2124 -9.9831
10 6 7 14.8090 10.7308
10 6 8 16.2247 -12.7724
10 6 9 -15.0213 2.1373
10 6 10 11.7058 -4.8972
10 6 11 5.7503 -14.3215
10 6 12 -10.6707 -8.0268
10 6 13 8.2275 4.7322
10 6 14 4.4287 0.2321
10 6 15 0.5112 -3.4326
10 6 16 3.0713 1.1462
10 6 17 4.4982 2.6143
10 6 18 -3.2617 -7.1384
10 6 19 -2.2794 4.1121
10 7 0 10.3057 -0.0630
10 7 1 25.4504 -15.0534
10 7 2 -14.0316 -14.0727
10 7 3 20.8936 27.7227
10 7 4 -3.2984 -3.3419
10 7 5 -13.8809 -19.0489
10 7 6 7.8985 5.2742
10 7 7 -15.6339 0.7802
10 7 8 -5.1653 -12.5895
10 7 9 -7.6324 1.4543
10 7 10 8.0849 2.1607
10 7 11 -6.6868 -17.4193
10 7 12 -2.9977 -2.6074
10 7 13 10.5788 13.8491
10 7 14 -8.3099 -11.7345
10 7 15 -0.0206 3.5754
10 7 16 -0.9049 5.1423
10 7 17 -8.6537 -5.6362
10 7 18 5.2349 2.3590
10 8 0 26.8263 0.5055
10 8 1 29.4699 6.2059
10 8 2 -16.6193 -3.0988
10 8 3 7.2396 -5.1559
10 8 4 -8.2668 4.8260
10 8 5 -29.9096 25.7388
10 8 6 12.0305 -6.0467
10 8 7 3.2573 -12.2608
10 8 8 -14.3188 11.5331
10 8 9 -1.9745 -0.5424
10 8 10 0.2913 14.6027
10 8 11 0.6955 8.1979
10 8 12 -4.0478 -1.1363
10 8 13 7.8533 -13.4177
10 8 14 -0.7949 7.7797
10 8 15 -12.7794 11.9716
10 8 16 5.7766 -9.5312
10 8 17 -2.1796 -1.1466
10 8 18 -2.2650 -0.7627
10 9 0 -35.9807 0.2024
10 9 1 -15.4402 -3.9552
10 9 2 23.6356 30.8976
10 9 3 -8.7248 8.8265
10 9 4 12.9797 -13.6886
10 9 5 3.9479 13.0192
10 9 6 -11.4638 -0.7839
10 9 7 2.8053 -9.8759
10 9 8 25.3903 15.5641
10 9 9 10.9629 5.9551
10 9 10 -19.2607 -9.8626
10 9 11 2.8759 3.7332
10 9 12 -1.5465 3.3018
10 9 13 -6.3144 -4.2226
10 9 14 9.1189 5.4447
10 9 15 0.7266 2.6544
10 9 16 -7.3233 -3.1609
10 9 17 0.6256 -3.7102
10 10 0 -1.2687 0.3340
10 10 1 -16.1367 0.9308
10 10 2 8.0911 -33.1045
10 10 3 3.0608 -4.6509
10 10 4 -1.3353 18.4104
10 10 5 15.9371 -23.2205
10 10 6 4.1928 5.5143
10 10 7 -8.1223 2.0209
10 10 8 3.0701 -10.1095
10 10 9 7.5185 -4.9416
10 10 10 -6.6391 5.9353
10 10 11 -3.7081 1.4900
10 10 12 13.7068 -11.4690
10 10 13 -6.6508 14.3042
10 10 14 0.0821 -2.8911
10 10 15 6.8049 -11.0059
10 10 16 -6.4999 10.4672
10 11 0 -16.6414 0.0963
10 11 1 0.8979 1.5829
10 11 2 -2.2085 -35.1980
10 11 3 0.0594 -18.4773
10 11 4 12.3657 20.8754
10 11 5 2.7199 1.0037
10 11 6 -18.6689 0.0207
10 11 7 -0.3684 9.5226
10 11 8 -12.8389 -8.8998
10 11 9 -1.3826 -10.8593
10 11 10 12.1923 6.5846
10 11 11 5.9735 3.9190
10 11 12 -4.2427 -9.2263
10 11 13 -1.6412 0.6716
10 11 14 5.0922 6.0765
10 11 15 -2.5995 -5.2657
10 11 16 2.2630 2.0623
10 12 0 -42.4385 0.2788
10 12 1 6.3481 3.6009
10 12 2 11.3739 1.1051
10 12 3 0.3460 -0.4749
10 12 4 17.8640 9.3311
10 12 5 -0.3243 14.8043
10 12 6 -26.6915 -1.6430
10 12 7 0.6053 4.8659
10 12 8 11.7808 -9.6943
10 12 9 -10.4564 2.2881
10 12 10 0.9253 -3.8892
10 12 11 6.7051 -0.8330
10 12 12 -11.8514 2.6295
10 12 13 4.1461 -5.6406
10 12 14 6.7637 2.4481
10 12 15 -5.8719 3.7441
10 13 0 13.5364 -0.0075
10 13 1 -0.7892 -2.2662
10 13 2 4.0544 -10.3960
10 13 3 -2.1470 15.6563
10 13 4 -8.7934 11.8299
10 13 5 6.4872 -7.6115
10 13 6 6.3651 -6.1164
10 13 7 0.7813 3.3820
10 13 8 7.5408 -7.7505
10 13 9 -10.3820 8.7557
10 13 10 -3.9156 11.7799
10 13 11 -3.6805 -14.1890
10 13 12 7.0224 -1.5080
10 13 13 0.2307 5.6233
10 13 14 -5.1393 -3.7955
10 14 0 7.0236 0.1774
10 14 1 2.1294 3.9461
10 14 2 1.1563 14.0630
10 14 3 -8.9953 -11.8436
10 14 4 -5.3609 -20.2994
10 14 5 -2.2038 -10.1205
10 14 6 4.4430 2.9509
10 14 7 12.1443 10.4569
10 14 8 4.7057 11.2816
10 14 9 -6.6597 -3.2467
10 14 10 0.0852 -0.5620
10 14 11 -4.2456 -2.2041
10 14 12 -0.0504 3.9688
10 15 0 6.4658 0.0115
10 15 1 -18.8770 3.7490
10 15 2 -16.9189 5.5863
10 15 3 -1.0180 -6.3898
10 15 4 3.4292 -5.0949
10 15 5 10.6555 -5.8133
10 15 6 10.7299 2.2124
10 15 7 -5.3395 0.5604
10 15 8 -7.8828 4.3913
10 15 9 4.4635 1.6369
10 15 10 2.0823 -1.6178
10 15 11 4.2415 0.4366
10 16 0 0.0805 0.2998
10 16 1 -5.6799 9.0842
10 16 2 -1.0561 -6.0085
10 16 3 3.3745 -10.9708
10 16 4 2.0369 1.4866
10 16 5 2.6739 12.1760
10 16 6 -2.0060 -0.0038
10 16 7 -4.3390 -6.7482
10 16 8 -2.0827 -3.8997
10 17 0 -3.1810 -0.2397
10 17 1 -1.9897 -0.7347
10 17 2 8.9689 -3.9970
10 17 3 2.3946 -1.9800
10 17 4 -3.5923 5.4170
10 17 5 -3.9840 7.0897
10 17 6 -5.5842 -2.5201
11 0 1 -0.6568 -50.2044
11 0 2 9.3755 -0.2214
11 0 3 -0.9212 7.6176
11 0 4 17.5836 -0.8717
11 0 5 0.4716 31.8357
11 0 6 2.6375 0.2973
11 0 7 1.1531 -19.9513
11 0 8 8.2059 1.3396
11 0 9 -0.1563 23.4870
11 0 10 -23.0342 0.2929
11 0 11 -0.6003 8.1805
11 0 12 -5.5202 -1.3948
11 0 13 -0.2746 -7.2437
11 0 14 32.7802 -0.6352
11 0 15 0.0818 11.5015
11 0 16 -7.4550 0.9909
11 0 17 0.2178 -7.0698
11 0 18 -3.3061 0.8262
11 0 19 -0.1567 -0.8827
11 1 0 -0.0309 -13.9193
11 1 1 -14.1868 -23.7987
11 1 2 2.2360 -7.1314
11 1 3 28.7267 -30.2456
11 1 4 -15.3120 7.7231
11 1 5 -6.7005 -10.1742
11 1 6 29.3785 6.2090
11 1 7 -2.1143 18.7988
11 1 8 4.1827 4.1914
11 1 9 9.4716 20.3925
11 1 10 -14.5793 -3.0526
11 1 11 -10.0710 -21.8919
11 1 12 15.5588 -16.5471
11 1 13 1.0891 -5.8414
11 1 14 11.4680 5.7151
11 1 15 2.2886 1.4829
11 1 16 -4.7779 9.5321
11 1 17 -5.2892 -2.2075
11 1 18 -1.8391 -6.2199
11 1 19 6.6229 3.1283
11 2 0 0.2147 0.9631
11 2 1 -20.3826 10.5592
11 2 2 -0.7557 1.2896
11 2 3 -7.2169 -9.1618
11 2 4 2.0826 -13.8857
11 2 5 23.3497 -6.8433
11 2 6 -12.8209 -9.8951
11 2 7 19.5900 5.4515
11 2 8 -15.9494 6.0678
11 2 9 -17.8496 -11.9938
11 2 10 13.0382 2.4712
11 2 11 -13.8175 -2.8738
11 2 12 9.8422 -9.4657
11 2 13 4.7224 -5.4745
11 2 14 -10.5773 6.2711
11 2 15 2.6681 -2.0733
11 2 16 -3.2807 7.1508
11 2 17 4.8345 -0.7111
11 2 18 -1.5104 -7.2054
11 2 19 0.5375 -2.0438
11 3 0 -0.1767 49.5048
11 3 1 5.1460 11.2018
11 3 2 -18.6301 -5.2212
11 3 3 -18.2992 9.2354
11 3 4 15.8989 -8.6514
11 3 5 -2.3904 -9.5352
11 3 6 -19.5645 11.2182
11 3 7 0.4836 -2.3470
11 3 8 5.2147 -25.6105
11 3 9 -8.2872 12.4951
11 3 10 12.7365 4.8676
11 3 11 -1.6490 5.4923
11 3 12 -20.0247 22.9802
11 3 13 5.7545 -9.5345
11 3 14 0.0414 -5.5133
11 3 15 -1.1516 -0.4108
11 3 16 -2.0153 -3.7249
11 3 17 0.3844 1.9407
11 3 18 -4.9212 0.6806
11 3 19 1.1035 1.0966
11 4 0 -0.5063 32.6565
11 4 1 15.3006 -12.0359
11 4 2 -44.0764 -11.8827
11 4 3 20.4520 17.1961
11 4 4 8.2561 4.6707
11 4 5 -37.3686 5.5463
11 4 6 3.2327 22.2630
11 4 7 6.0220 -16.0369
11 4 8 14.7677 -17.5715
11 4 9 16.1388 18.1099
11 4 10 14.7064 14.3350
11 4 11 -16.8386 -3.8155
11 4 12 -19.8887 12.0957
11 4 13 9.4489 -4.0394
11 4 14 -4.4642 -14.8082
11 4 15 4.1119 9.0248
11 4 16 8.3607 1.0282
11 4 17 -7.9454 -2.4489
11 4 18 0.4079 1.6542
11 4 19 0.3978 -0.3142
11 5 0 -0.1661 -18.0897
11 5 1 -3.9131 -27.6071
11 5 2 -12.2481 9.5134
11 5 3 32.9252 21.6140
11 5 4 16.6796 -13.2469
11 5 5 -21.3176 22.6960
11 5 6 5.5280 -22.5029
11 5 7 4.8297 -28.4136
11 5 8 -11.1143 20.6070
11 5 9 21.9567 10.4115
11 5 10 4.8723 3.4170
11 5 11 -12.0198 -10.2024
11 5 12 -5.0077 -2.9979
11 5 13 0.4220 -6.1114
11 5 14 0.3249 -6.7019
11 5 15 6.0690 16.7385
11 5 16 6.4177 -7.0324
11 5 17 -8.2348 -0.3606
11 5 18 -4.1574 6.4855
11 6 0 -0.1681 2.6882
11 6 1 -5.7122 -15.0211
11 6 2 59.9431 -12.5778
11 6 3 -3.2375 -0.6366
11 6 4 -37.1065 -16.7687
11 6 5 2.9651 12.9888
11 6 6 16.5832 8.2780
11 6 7 -12.5768 -18.8759
11 6 8 2.3039 -2.7421
11 6 9 -3.2839 -0.0728
11 6 10 -25.0974 -5.1306
11 6 11 8.5649 17.5834
11 6 12 17.5997 -3.5697
11 6 13 1.5798 -7.3279
11 6 14 -3.4461 -0.9532
11 6 15 0.3019 1.4678
11 6 16 0.6008 7.2289
11 6 17 -2.5269 5.4686
11 6 18 5.1006 0.1571
11 7 0 -0.2953 -50.1826
11 7 1 -7.1269 38.8075
11 7 2 -8.1379 14.1424
11 7 3 -3.3146 -14.4790
11 7 4 8.7437 35.8597
11 7 5 -6.2264 -24.1090
11 7 6 -4.6965 -9.1348
11 7 7 -4.6806 25.0359
11 7 8 0.5091 10.5488
11 7 9 9.0099 -21.0138
11 7 10 10.0808 -4.4815
11 7 11 -4.2567 8.5499
11 7 12 -1.0489 -12.8348
11 7 13 -2.3211 10.7236
11 7 14 4.8079 11.5415
11 7 15 3.4219 -15.0306
11 7 16 -0.0580 3.6966
11 7 17 1.6720 -1.5008
11 7 18 -0.8240 -3.5820
11 8 0 -0.3676 9.3768
11 8 1 19.7396 8.8703
11 8 2 -3.9167 4.1805
11 8 3 -32.3425 2.7729
11 8 4 11.4285 10.4695
11 8 5 19.6566 -9.5906
11 8 6 -19.7946 1.9414
11 8 7 15.2913 -0.9058
11 8 8 5.3611 -7.6646
11 8 9 -10.2647 2.1969
11 8 10 0.4599 1.8208
11 8 11 10.8422 -8.5772
11 8 12 -7.5766 7.4937
11 8 13 -11.6747 -3.0382
11 8 14 10.7763 -2.0035
11 8 15 -7.9638 -2.7553
11 8 16 -6.6837 -3.1072
11 8 17 8.9342 -1.3450
11 9 0 -0.5135 32.9089
11 9 1 14.6848 -5.3483
11 9 2 1.2467 -12.6834
11 9 3 -14.9707 2.4917
11 9 4 0.7693 -17.0386
11 9 5 7.8375 -4.1606
11 9 6 -10.0334 6.3966
11 9 7 4.1176 8.6028
11 9 8 -5.6091 -14.7701
11 9 9 -12.7497 9.9507
11 9 10 2.2450 4.6551
11 9 11 6.5851 -4.7877
11 9 12 -5.0287 9.3836
11 9 13 0.0257 3.1869
11 9 14 -7.1825 -7.7066
11 9 15 -1.9716 -0.8393
11 9 16 0.7055 -0.2918
11 10 0 -0.2033 3.7435
11 10 1 -16.8812 9.9850
11 10 2 -16.0733 -15.1458
11 10 3 20.4477 -0.5362
11 10 4 5.5454 0.9449
11 10 5 1.1390 -0.7084
11 10 6 6.8499 13.3174
11 10 7 -15.1119 16.7173
11 10 8 -7.2094 -13.0810
11 10 9 0.9533 -8.4200
11 10 10 19.7627 4.2186
11 10 11 -2.6220 0.8609
11 10 12 -0.8078 2.6418
11 10 13 0.5334 11.6854
11 10 14 -13.2714 -6.4125
11 10 15 8.3566 -1.2202
11 10 16 6.7653 2.4801
11 11 0 -0.4860 0.9373
11 11 1 -7.1386 -14.0048
11 11 2 -1.3833 -3.7853
11 11 3 10.6944 -7.8332
11 11 4 20.4691 3.7810
11 11 5 3.3861 22.6020
11 11 6 -6.2713 8.6049
11 11 7 -6.4516 -8.6183
11 11 8 -0.8040 -7.9545
11 11 9 0.0954 -18.3169
11 11 10 12.1053 -0.4327
11 11 11 7.5864 9.8572
11 11 12 -4.4653 8.6110
11 11 13 0.6052 -7.8168
11 11 14 5.2015 -1.2450
11 11 15 -5.0482 -0.1495
11 12 0 -0.2713 -5.8589
11 12 1 0.8246 -12.5043
11 12 2 2.8339 2.0691
11 12 3 9.2469 -6.1374
11 12 4 9.2116 1.1815
11 12 5 -10.2027 4.7220
11 12 6 -8.8270 0.9400
11 12 7 -7.7447 -5.2262
11 12 8 -0.0586 2.1417
11 12 9 9.9385 -4.0877
11 12 10 -3.6913 -4.0128
11 12 11 5.0723 -2.4723
11 12 12 -3.9689 0.6656
11 12 13 -3.4688 1.1705
11 12 14 5.5188 0.6236
11 13 0 -0.5336 3.6066
11 13 1 -1.6632 1.0320
11 13 2 -1.6253 -1.0697
11 13 3 -10.1694 9.2537
11 13 4 -10.8144 -5.2744
11 13 5 7.3047 -6.6635
11 13 6 7.9162 5.0257
11 13 7 -1.4769 -1.9597
11 13 8 -6.2803 6.2726
11 13 9 -4.4242 4.4305
11 13 10 -8.4608 0.6895
11 13 11 3.1774 -0.7987
11 13 12 3.4898 -5.6081
11 14 0 -0.1880 14.9070
11 14 1 1.2679 15.0295
11 14 2 -11.4218 -1.4103
11 14 3 -9.6824 -5.4617
11 14 4 3.4395 -8.5611
11 14 5 8.0111 -7.7475
11 14 6 11.1141 4.4746
11 14 7 6.7270 14.5735
11 14 8 -6.9070 2.2124
11 14 9 -5.1907 -2.5882
11 14 10 0.6076 -0.8570
11 14 11 0.1093 1.1346
11 15 0 -0.2998 12.6269
11 15 1 5.2003 1.2304
11 15 2 -9.1137 -6.5553
11 15 3 -3.9434 -9.0849
11 15 4 10.7659 -7.6108
11 15 5 7.4784 -1.6960
11 15 6 -2.4311 5.7508
11 15 7 2.8238 4.0507
11 15 8 0.9518 -5.5546
11 15 9 -4.1538 0.5921
11 16 0 0.0271 -3.6092
11 16 1 -4.5946 1.1164
11 16 2 -3.4409 -2.4220
11 16 3 7.2607 2.4178
11 16 4 3.1653 3.0727
11 16 5 -5.8169 -1.8575
11 16 6 -5.9216 0.1654
11 16 7 0.3756 -0.2191
11 17 0 -0.6083 -3.9126
11 17 1 1.4130 -5.4885
11 17 2 6.1594 6.5833
12 0 0 -5.7592 0.0733
12 0 1 -0.6545 -22.4194
12 0 2 11.5204 0.0294
12 0 3 0.3661 32.4249
12 0 4 25.8290 -0.0102
12 0 5 1.4317 -15.8623
12 0 6 14.1992 -0.2651
12 0 7 0.5285 18.7728
12 0 8 -5.9136 -0.1074
12 0 9 -1.3897 23.6929
12 0 10 -6.3698 0.2271
12 0 11 -1.0709 -29.7874
12 0 12 14.4847 0.4782
12 0 13 1.1865 -5.8667
12 0 14 -6.1345 -0.4027
12 0 15 0.7148 14.1030
12 0 16 -3.9719 -0.6425
12 0 17 -0.5771 -0.4457
12 0 18 5.0886 0.4394
12 1 0 -10.0433 -0.0724
12 1 1 25.8369 -15.9249
12 1 2 -24.9815 4.4400
12 1 3 4.3665 -1.1286
12 1 4 19.2787 -15.7294
12 1 5 -6.0843 -17.9153
12 1 6 30.4188 17.8350
12 1 7 11.5647 12.8291
12 1 8 -21.3678 6.0201
12 1 9 -20.7495 -2.9008
12 1 10 -5.6763 -12.3049
12 1 11 -1.6758 -19.1053
12 1 12 3.9865 10.7753
12 1 13 15.6551 10.6408
12 1 14 -8.4383 1.0245
12 1 15 -2.2056 5.4712
12 1 16 3.1125 -6.3809
12 1 17 -3.2556 -0.6913
12 1 18 1.3310 2.7293
12 2 0 31.0385 -0.4920
12 2 1 -5.8944 1.1211
12 2 2 -33.4061 2.3748
12 2 3 -0.9352 -6.3877
12 2 4 -15.1003 -43.0703
12 2 5 8.6308 8.1353
12 2 6 12.2742 20.9996
12 2 7 6.1554 -3.4083
12 2 8 -26.7737 21.5383
12 2 9 -2.1155 -18.2273
12 2 10 14.2856 -9.9360
12 2 11 3.7553 0.5586
12 2 12 -1.7784 8.0617
12 2 13 8.6011 11.5843
12 2 14 -13.6953 -6.1341
12 2 15 -1.4768 -3.4270
12 2 16 10.2946 -6.5450
12 2 17 -4.0914 -1.2886
12 2 18 -0.6352 7.0967
12 3 0 27.1933 0.5336
12 3 1 -38.4392 20.0851
12 3 2 -10.8052 15.4312
12 3 3 -7.3882 -11.0267
12 3 4 -11.3845 -13.5042
12 3 5 10.3043 8.9436
12 3 6 18.6827 -3.1959
12 3 7 -22.2044 -7.6988
12 3 8 -2.9011 -1.0645
12 3 9 18.7756 7.6481
12 3 10 1.1868 -10.2019
12 3 11 15.6736 10.9193
12 3 12 -7.3535 2.2173
12 3 13 -17.2053 -7.6098
12 3 14 -2.0822 -3.5273
12 3 15 -0.8164 1.6411
12 3 16 11.2223 -5.0652
12 3 17 2.9146 -2.4918
12 3 18 1.1372 3.3025
12 4 0 -13.5772 -0.1459
12 4 1 0.8998 32.0955
12 4 2 17.9766 16.6695
12 4 3 -7.6519 -30.5190
12 4 4 6.7669 11.1510
12 4 5 -9.3143 0.2289
12 4 6 -2.7256 -9.7205
12 4 7 6.2702 -3.3884
12 4 8 10.7583 -5.2655
12 4 9 -4.9582 -5.2753
12 4 10 -10.6363 0.9372
12 4 11 -9.2823 22.1936
12 4 12 7.4485 -3.6408
12 4 13 -4.8880 -3.7853
12 4 14 4.4652 -8.7371
12 4 15 -4.3781 -9.0559
12 4 16 -3.2644 5.6186
12 4 17 -0.8314 5.8974
12 4 18 -0.9653 0.7974
12 5 0 -1.1668 0.5039
12 5 1 -3.1680 -19.9456
12 5 2 11.2704 -10.8117
12 5 3 -6.7153 25.7244
12 5 4 1.4820 10.3138
12 5 5 7.2149 -21.3670
12 5 6 -16.2254 7.2367
12 5 7 6.8185 10.0635
12 5 8 -7.6288 1.9198
12 5 9 5.3490 10.1507
12 5 10 3.0573 5.2358
12 5 11 -8.2996 -18.2745
12 5 12 3.8578 2.6194
12 5 13 -8.1500 9.2947
12 5 14 4.2354 3.0167
12 5 15 6.6249 2.4598
12 5 16 -2.6727 5.4578
12 5 17 1.9237 -1.5823
12 6 0 15.8431 -0.1283
12 6 1 19.6721 -20.7142
12 6 2 -13.1628 -1.4324
12 6 3 4.0335 16.9001
12 6 4 -0.7382 -1.9056
12 6 5 -1.5509 2.7969
12 6 6 4.5655 15.1867
12 6 7 16.5591 -0.1298
12 6 8 -8.5828 -6.3801
12 6 9 -7.4667 6.7577
12 6 10 14.0278 -8.4225
12 6 11 3.3657 -1.2810
12 6 12 -5.4843 7.7965
12 6 13 15.3117 -7.0436
12 6 14 -4.9524 6.4941
12 6 15 -0.8343 0.0871
12 6 16 4.5192 -0.0345
12 6 17 -0.3441 1.5046
12 7 0 14.1355 0.4303
12 7 1 14.9168 4.1251
12 7 2 -14.3569 14.4110
12 7 3 17.8151 -8.3400
12 7 4 -2.0322 -13.5314
12 7 5 -11.2736 -0.6223
12 7 6 12.3343 -9.4068
12 7 7 -5.9243 -5.9017
12 7 8 -4.2017 -2.2302
12 7 9 2.2999 0.9692
12 7 10 6.8478 -4.0111
12 7 11 -8.3264 -1.2990
12 7 12 1.3590 0.6058
12 7 13 6.8363 -2.0682
12 7 14 -8.0577 -2.0358
12 7 15 3.5485 -0.1899
12 7 16 1.1468 -5.4947
12 7 17 -3.1355 0.3378
12 8 0 -3.0835 0.0327
12 8 1 -7.2147 3.3863
12 8 2 1.2805 9.8773
12 8 3 -12.0925 -7.2186
12 8 4 -13.1816 -12.3066
12 8 5 -1.9411 9.9708
12 8 6 -0.2334 -10.3386
12 8 7 -0.8354 -8.7831
12 8 8 7.7529 9.0344
12 8 9 -5.3798 0.6268
12 8 10 -13.3129 1.9034
12 8 11 4.7145 0.3512
12 8 12 6.1760 1.5128
12 8 13 -8.8250 -6.0317
12 8 14 1.9227 -3.3288
12 8 15 -5.4467 6.4706
12 8 16 -2.2099 -6.8309
12 9 0 -10.5270 0.5587
12 9 1 -15.8911 0.1251
12 9 2 8.2356 0.2859
12 9 3 -8.4019 14.7993
12 9 4 0.3562 6.1296
12 9 5 7.3307 -5.5239
12 9 6 -1.4617 1.9462
12 9 7 -3.0933 10.7888
12 9 8 7.3714 4.1956
12 9 9 5.9644 -4.1617
12 9 10 -8.9158 0.2486
12 9 11 2.7543 -1.4666
12 9 12 -0.8388 -2.2917
12 9 13 -3.9907 13.4698
12 9 14 0.3613 1.4486
12 9 15 -1.3071 -7.8782
12 10 0 6.1786 -0.0239
12 10 1 12.2476 4.4302
12 10 2 5.4631 -22.2412
12 10 3 12.5707 0.5671
12 10 4 12.4257 21.1252
12 10 5 -4.2381 -7.2685
12 10 6 -4.1312 4.7477
12 10 7 -3.3015 3.6270
12 10 8 -3.9686 -8.4612
12 10 9 -0.0929 -5.2148
12 10 10 10.1052 5.3502
12 10 11 4.1332 5.7290
12 10 12 -3.6020 -5.4441
12 10 13 1.1947 8.7291
12 10 14 0.0487 1.3890
12 11 0 -17.8036 0.5058
12 11 1 16.5071 -17.0218
12 11 2 7.2802 -13.0158
12 11 3 0.3055 2.4674
12 11 4 12.0806 12.1246
12 11 5 -8.2381 7.7322
12 11 6 -21.2355 1.0126
12 11 7 8.4092 -11.1145
12 11 8 -0.1764 -10.6030
12 11 9 -5.1820 1.7487
12 11 10 8.2187 2.9997
12 11 11 4.9762 -3.3402
12 11 12 -2.1020 2.2902
12 11 13 0.2723 -4.6460
12 11 14 3.7918 1.1415
12 12 0 -27.1290 -0.1086
12 12 1 10.2591 -10.7847
12 12 2 3.4627 2.0577
12 12 3 -0.9351 13.7167
12 12 4 0.3567 1.5516
12 12 5 -5.1911 -7.3430
12 12 6 -10.9948 2.7210
12 12 7 10.1826 1.3471
12 12 8 3.2752 -8.3197
12 12 9 -5.8868 9.0509
12 12 10 -2.1268 -3.7443
12 12 11 -1.9149 -10.6251
12 12 12 1.6775 5.7991
12 13 0 13.8293 0.4279
12 13 1 1.3239 7.1424
12 13 2 -6.1528 -7.7768
12 13 3 -2.4703 4.4191
12 13 4 -3.2980 -3.6215
12 13 5 3.3616 -11.4533
12 13 6 11.2199 3.6547
12 13 7 6.6747 13.2095
12 13 8 -7.9964 0.5572
12 13 9 -8.7221 3.7540
12 13 10 2.4040 -1.0750
12 13 11 -5.0637 -5.0426
12 14 0 1.7725 0.0279
12 14 1 -15.6009 5.8539
12 14 2 -0.5564 4.9053
12 14 3 -4.1452 -8.7765
12 14 4 10.2098 -14.3737
12 14 5 9.6812 -0.1833
12 14 6 4.7763 5.1948
12 14 7 -5.3243 6.5068
12 14 8 -1.7811 7.1072
12 14 9 -3.3652 0.0833
12 15 0 -1.2802 0.4029
12 15 1 -6.2977 4.1167
12 15 2 -5.5631 -7.6816
12 15 3 0.6054 -14.1549
12 15 4 1.0025 7.9946
12 15 5 2.4165 9.6926
12 15 6 4.9837 -0.9832
12 15 7 -3.0809 -4.2519
12 16 0 -12.3422 -0.0984
12 16 1 2.7504 0.8889
12 16 2 6.6401 -0.5530
12 16 3 3.5663 0.8447
12 16 4 -4.3209 2.5746
13 0 1 0.3254 -27.4529
13 0 2 28.1357 -0.7786
13 0 3 -0.4649 -3.7477
13 0 4 -14.2325 -1.1969
13 0 5 -0.0844 17.6309
13 0 6 8.7144 0.8819
13 0 7 0.6410 4.2886
13 0 8 -9.0874 1.7052
13 0 9 -0.4021 13.5932
13 0 10 -26.1854 -0.3907
13 0 11 -0.2504 -16.3404
13 0 12 7.3401 -1.6349
13 0 13 0.3152 5.0468
13 0 14 8.1539 0.1802
13 0 15 0.0239 10.5535
13 0 16 -5.5633 1.1395
13 0 17 -0.4385 -11.5665
13 1 0 -0.2728 -17.9269
13 1 1 -3.9316 -5.9663
13 1 2 10.9507 3.5876
13 1 3 11.3929 -18.4886
13 1 4 6.1932 7.1841
13 1 5 -0.4969 5.5396
13 1 6 10.9689 1.5867
13 1 7 1.8658 12.0232
13 1 8 -8.9138 8.5009
13 1 9 -2.3640 -2.3139
13 1 10 2.0166 -4.3029
13 1 11 -3.0186 6.3089
13 1 12 16.0316 -12.5974
13 1 13 5.8116 1.2904
13 1 14 -3.3189 6.7712
13 1 15 -6.3211 -2.0385
13 1 16 0.2660 3.3079
13 1 17 0.0980 0.2276
13 2 0 -0.0946 6.4327
13 2 1 -15.4424 10.5177
13 2 2 -9.4416 -8.6786
13 2 3 13.0326 6.3404
13 2 4 10.2462 -9.6536
13 2 5 6.0179 -9.6699
13 2 6 -7.1065 7.8683
13 2 7 7.4445 -8.6743
13 2 8 3.7580 -0.0560
13 2 9 3.6518 -2.7547
13 2 10 8.5690 -7.1766
13 2 11 -13.2548 7.9869
13 2 12 2.9046 4.2165
13 2 13 0.1151 -3.2743
13 2 14 4.7205 1.7998
13 2 15 0.8390 -4.3469
13 2 16 -3.5574 -0.9316
13 2 17 0.4794 0.1505
13 3 0 -0.0329 18.4321
13 3 1 -2.3145 -22.5965
13 3 2 -26.1362 -0.0162
13 3 3 -2.2042 8.6988
13 3 4 4.1310 -9.6526
13 3 5 -17.3291 1.8291
13 3 6 2.2291 -6.9021
13 3 7 4.1234 -21.4505
13 3 8 -1.1763 -7.3471
13 3 9 6.5949 29.9450
13 3 10 0.1261 -0.8865
13 3 11 -6.4432 -5.5821
13 3 12 -8.7138 7.1024
13 3 13 -0.6213 -17.5182
13 3 14 -0.5697 3.5334
13 3 15 3.7342 6.1450
13 3 16 -0.0084 -4.2525
13 3 17 -2.0144 -1.2553
13 4 0 -0.0859 7.8089
13 4 1 -0.7632 -22.5701
13 4 2 -0.1086 12.0369
13 4 3 15.2748 1.8595
13 4 4 -25.6846 -5.2618
13 4 5 -26.9939 12.0663
13 4 6 13.1072 -2.8628
13 4 7 7.0953 -8.7269
13 4 8 4.4678 10.6060
13 4 9 5.8860 10.1847
13 4 10 -6.5503 0.0478
13 4 11 -20.2842 -6.4895
13 4 12 5.8600 -0.4234
13 4 13 11.4823 -4.9578
13 4 14 -8.7480 0.7042
13 4 15 7.8037 8.1242
13 4 16 -2.0883 0.2106
13 4 17 -5.5859 -0.1026
13 5 0 0.0392 -23.2030
13 5 1 -1.2631 -1.7338
13 5 2 21.6652 18.4829
13 5 3 14.5670 9.0450
13 5 4 -13.0664 3.8967
13 5 5 10.7949 11.1893
13 5 6 8.8498 -17.3210
13 5 7 -5.5425 -5.9124
13 5 8 -2.3075 19.6673
13 5 9 2.9695 -5.1609
13 5 10 -7.1664 1.3378
13 5 11 -1.2260 -5.5094
13 5 12 10.2584 -4.8414
13 5 13 1.8501 -1.4573
13 5 14 -0.1674 3.2064
13 5 15 3.3220 7.9708
13 5 16 -3.7076 -3.4115
13 6 0 -0.0115 -14.1478
13 6 1 2.4508 20.1769
13 6 2 21.5879 -9.5594
13 6 3 4.9458 -5.1989
13 6 4 -7.5220 4.3616
13 6 5 1.4224 -5.6362
13 6 6 1.8824 -1.0597
13 6 7 -7.3584 9.1830
13 6 8 8.7611 -3.4507
13 6 9 -1.6374 -9.1524
13 6 10 -11.7474 -1.2911
13 6 11 6.1542 12.4998
13 6 12 -2.2292 -4.6804
13 6 13 5.7475 -1.3505
13 6 14 3.9137 2.4982
13 6 15 -7.3196 -2.8628
13 6 16 -0.7690 2.7133
13 7 0 0.1186 -16.6118
13 7 1 6.4210 -4.2992
13 7 2 -24.3647 -0.9380
13 7 3 -26.1308 -1.5870
13 7 4 21.3406 6.8352
13 7 5 -3.4449 -2.2595
13 7 6 -8.3467 -5.5249
13 7 7 5.8930 -0.0838
13 7 8 3.0843 4.7497
13 7 9 -2.0388 6.8132
13 7 10 7.7350 1.0242
13 7 11 1.4478 0.3003
13 7 12 -8.4552 -6.2636
13 7 13 -4.5647 3.5572
13 7 14 4.9641 0.4382
13 7 15 0.7445 0.8003
13 7 16 2.8795 0.9148
13 8 0 0.2915 41.9270
13 8 1 -3.4508 -2.2237
13 8 2 -0.0852 -4.9321
13 8 3 -3.3079 8.3642
13 8 4 -3.0545 -14.5194
13 8 5 1.4607 -12.3615
13 8 6 2.4711 15.9588
13 8 7 7.5340 -5.2835
13 8 8 0.4501 -9.0169
13 8 9 2.8904 6.2573
13 8 10 -0.7113 3.3818
13 8 11 -4.7957 -9.9216
13 8 12 3.2971 8.7274
13 8 13 -4.8853 0.0850
13 8 14 1.7128 -6.5795
13 8 15 2.4876 -0.7281
13 9 0 -0.0684 14.8635
13 9 1 3.5242 -2.8717
13 9 2 -10.2465 -1.8329
13 9 3 11.1664 -1.9762
13 9 4 3.5226 -4.3288
13 9 5 -3.0617 1.8705
13 9 6 -0.7846 2.8786
13 9 7 0.7097 -4.1269
13 9 8 -13.8533 -7.7947
13 9 9 1.4787 -2.8444
13 9 10 10.7521 2.2243
13 9 11 -1.1002 5.1158
13 9 12 -2.6465 4.6201
13 9 13 2.2856 -6.0347
13 9 14 -7.1064 -1.8935
13 10 0 0.2297 -14.7982
13 10 1 -4.2841 -1.2623
13 10 2 -9.1371 -5.4765
13 10 3 16.7168 2.5227
13 10 4 7.2826 10.4496
13 10 5 -11.2713 14.9227
13 10 6 -9.5523 4.8652
13 10 7 -9.2218 -3.1377
13 10 8 0.9078 -10.7447
13 10 9 8.5808 -3.4101
13 10 10 10.0157 0.3242
13 10 11 -2.5645 9.5012
13 10 12 -7.6404 0.9591
13 10 13 -0.0885 -0.8611
13 11 0 -0.1512 -2.4117
13 11 1 -3.8122 -14.4179
13 11 2 18.0429 -0.9048
13 11 3 6.5277 8.5467
13 11 4 4.7218 3.6337
13 11 5 -6.7282 14.9805
13 11 6 -10.7509 1.8002
13 11 7 -7.0562 -11.7824
13 11 8 10.0358 -4.3941
13 11 9 5.7987 0.8098
13 11 10 -2.1542 2.9532
13 11 11 0.4554 2.8644
13 11 12 -2.0178 4.9281
13 12 0 0.2161 -11.6849
13 12 1 0.8326 -9.2967
13 12 2 1.7730 4.4933
13 12 3 2.8931 -2.8414
13 12 4 3.5456 2.7763
13 12 5 -1.2135 -0.3757
13 12 6 3.2442 -6.8254
13 12 7 -3.8910 -3.0281
13 12 8 -3.4112 6.7562
13 12 9 1.7945 -1.4392
13 12 10 2.0329 3.1965
13 12 11 3.1198 -4.4358
13 13 0 -0.1304 12.6933
13 13 1 -5.5030 3.9633
13 13 2 -4.8981 -10.2368
13 13 3 0.7070 -6.6960
13 13 4 -6.3541 -7.4673
13 13 5 8.2361 -1.6428
13 13 6 9.3796 12.4219
13 13 7 -0.2583 3.8306
13 13 8 -4.8209 -3.4030
13 13 9 -3.6381 -5.5636
13 14 0 0.1883 14.0491
13 14 1 -4.8367 1.0147
13 14 2 -14.2650 -2.6801
13 14 3 2.2475 -6.0738
13 14 4 15.7268 -5.9745
13 14 5 2.2416 3.3502
13 14 6 -3.4036 7.6069
13 14 7 0.1432 4.5754
13 15 0 -0.1847 6.7599
13 15 1 0.1295 -6.4775
13 15 2 -5.0100 -2.0583
13 15 3 3.2600 2.3061
13 15 4 7.8981 0.5055
14 0 0 -4.2804 -0.6958
14 0 1 -0.6933 -11.9867
14 0 2 -4.4450 -0.1787
14 0 3 0.2398 19.0404
14 0 4 19.8514 0.8125
14 0 5 1.1683 6.7590
14 0 6 5.5511 0.2417
14 0 7 0.9006 10.4875
14 0 8 -21.2009 -0.6188
14 0 9 -1.1288 -1.7385
14 0 10 3.9478 -0.2665
14 0 11 -1.5594 -11.3976
14 0 12 5.5939 0.4542
14 0 13 1.0587 2.6289
14 0 14 -3.3946 0.3731
14 0 15 0.9671 -2.3612
14 0 16 -1.1119 -0.6429
14 1 0 14.7599 0.0888
14 1 1 -0.7889 -10.0487
14 1 2 0.1362 1.1393
14 1 3 8.1652 -8.5845
14 1 4 12.9054 -8.4252
14 1 5 1.1384 7.0835
14 1 6 9.2861 13.9834
14 1 7 -9.0472 -4.8169
14 1 8 -7.5682 -1.1301
14 1 9 -3.8726 -4.7434
14 1 10 18.1341 -7.2515
14 1 11 -0.8122 0.3915
14 1 12 -4.0261 7.2819
14 1 13 0.4787 -1.3012
14 1 14 -8.3307 -1.3619
14 1 15 2.9314 1.4388
14 1 16 5.3158 -2.6702
14 2 0 14.2597 -0.0670
14 2 1 -13.6678 11.0415
14 2 2 -6.3921 -5.7023
14 2 3 5.2667 -27.9314
14 2 4 -11.0257 -4.2910
14 2 5 7.9436 12.0032
14 2 6 4.0954 5.2491
14 2 7 -6.8241 -7.5175
14 2 8 0.3022 1.9884
14 2 9 6.9793 -8.0930
14 2 10 7.6086 4.2877
14 2 11 -1.9333 10.7170
14 2 12 -4.0006 7.1679
14 2 13 -1.6586 -6.2377
14 2 14 -5.0912 -6.3710
14 2 15 2.2753 2.8308
14 2 16 3.6563 -1.3826
14 3 0 -19.8939 0.4503
14 3 1 -17.2645 19.2016
14 3 2 -2.7116 5.2377
14 3 3 -4.3659 -15.5329
14 3 4 -4.0276 -0.9953
14 3 5 8.2422 3.4059
14 3 6 0.3681 -9.7373
14 3 7 -5.3247 4.5682
14 3 8 5.5154 -0.9546
14 3 9 12.8596 2.8614
14 3 10 -14.2462 1.0902
14 3 11 8.8621 5.9291
14 3 12 -5.3188 2.3208
14 3 13 -4.5329 -4.9951
14 3 14 3.8622 -2.9915
14 3 15 3.1456 2.0566
14 3 16 3.0423 1.8092
14 4 0 -14.3978 -0.0951
14 4 1 -7.7011 1.1411
14 4 2 5.8302 6.6346
14 4 3 -6.6453 11.0550
14 4 4 6.8659 -8.0193
14 4 5 5.0027 -5.5411
14 4 6 -4.8075 1.5200
14 4 7 -1.9432 -0.1116
14 4 8 -0.0790 4.5980
14 4 9 -0.9438 -5.6980
14 4 10 -3.4621 -6.2000
14 4 11 -3.4638 3.5905
14 4 12 2.7255 -6.4355
14 4 13 1.9034 7.0791
14 4 14 2.9607 -4.2224
14 4 15 2.1230 -5.8841
14 4 16 -2.0061 1.0367
14 5 0 36.5893 0.4224
14 5 1 6.1402 -11.0603
14 5 2 -9.7943 -14.6442
14 5 3 3.2895 5.9952
14 5 4 -1.7524 9.7262
14 5 5 -9.2886 2.5500
14 5 6 11.9216 8.1351
14 5 7 -5.4063 -3.2186
14 5 8 -21.5232 -2.0908
14 5 9 1.4396 -3.3266
14 5 10 9.0997 2.6727
14 5 11 -4.2748 -2.7186
14 5 12 7.1238 -4.3273
14 5 13 -7.7747 -1.5086
14 5 14 -3.9920 2.5406
14 5 15 -0.6166 3.5829
14 6 0 -3.4992 -0.0035
14 6 1 8.6669 0.0466
14 6 2 1.8040 16.6609
14 6 3 10.1575 -12.0903
14 6 4 3.3101 -9.0808
14 6 5 -5.3940 15.0466
14 6 6 -4.3459 9.8375
14 6 7 -0.3825 -6.0743
14 6 8 7.1940 4.3440
14 6 9 3.2010 2.7310
14 6 10 -0.2732 -12.7269
14 6 11 -0.7645 9.3878
14 6 12 -4.8223 9.4100
14 6 13 1.7858 -9.0863
14 6 14 3.5798 6.2390
14 6 15 0.4117 -0.9817
14 7 0 -6.7925 0.2075
14 7 1 -10.7410 3.5226
14 7 2 0.9777 3.0841
14 7 3 4.3321 -3.7939
14 7 4 0.4512 -2.3609
14 7 5 12.2867 -2.7731
14 7 6 5.9795 -11.6724
14 7 7 -1.6550 -0.1314
14 7 8 2.1601 1.8496
14 7 9 5.9239 4.3504
14 7 10 -3.9614 4.9839
14 7 11 -0.4185 1.3990
14 7 12 3.6170 -2.9491
14 7 13 -1.1340 0.3130
14 7 14 -1.3883 -1.4405
14 8 0 0.3965 -0.0449
14 8 1 -10.8523 1.4670
14 8 2 -1.7289 -9.8882
14 8 3 -12.6484 -2.2033
14 8 4 -7.9226 -4.3427
14 8 5 5.5345 -7.3208
14 8 6 1.8991 0.0535
14 8 7 2.7295 5.3977
14 8 8 2.8314 -1.6861
14 8 9 -2.9397 -4.3658
14 8 10 -5.2701 4.7330
14 8 11 3.5134 -0.8574
14 8 12 2.8304 -0.1441
14 8 13 -3.9102 2.0443
14 8 14 -1.2479 -7.6701
14 9 0 -2.7909 0.3330
14 9 1 0.4054 5.6399
14 9 2 -5.3774 2.6550
14 9 3 -3.6475 1.8088
14 9 4 4.0562 4.2683
14 9 5 -6.3835 -2.1625
14 9 6 -8.3829 1.5188
14 9 7 0.0955 3.2142
14 9 8 -2.6166 -0.7240
14 9 9 0.7143 -6.9745
14 9 10 9.2985 -2.3464
14 9 11 0.3892 1.0699
14 9 12 -10.9475 0.4112
14 9 13 -1.6350 3.7058
14 10 0 7.5363 -0.0339
14 10 1 11.3058 -0.6124
14 10 2 4.5354 -1.1472
14 10 3 8.1711 7.8228
14 10 4 2.8963 13.1421
14 10 5 -7.9926 2.0184
14 10 6 -4.8616 -0.5707
14 10 7 -1.9005 -10.0123
14 10 8 -2.4095 -10.4776
14 10 9 0.4492 6.9220
14 10 10 5.5540 3.7357
14 10 11 2.5535 2.2909
14 10 12 -0.1897 3.8190
14 11 0 -0.7967 0.1136
14 11 1 12.9019 -16.8405
14 11 2 13.5481 2.3388
14 11 3 0.3885 10.0558
14 11 4 -1.4348 -1.1516
14 11 5 -9.1092 1.9527
14 11 6 -4.9641 4.3336
14 11 7 9.2612 -5.5634
14 11 8 3.0288 -3.2527
14 11 9 -0.6049 4.6955
14 11 10 2.4533 -2.8353
14 11 11 -2.0728 -1.4344
14 12 0 -4.2759 -0.1180
14 12 1 4.3129 -8.8275
14 12 2 -6.2469 3.7655
14 12 3 3.0038 8.6541
14 12 4 2.8125 -5.0120
14 12 5 -1.3153 -8.7854
14 12 6 3.6220 4.4980
14 12 7 3.0405 4.6804
14 12 8 -7.2502 1.4451
14 12 9 -1.1211 0.2227
14 13 0 3.7206 0.2987
14 13 1 -1.1007 7.2612
14 13 2 -12.3010 -7.9568
14 13 3 1.7714 -4.5861
14 13 4 2.7274 -4.0334
14 13 5 6.1982 2.6713
14 13 6 4.5289 5.3727
14 13 7 -2.9280 4.2462
14 14 0 -6.4152 -0.0258
14 14 1 -9.2009 2.2011
14 14 2 2.9250 -3.3872
14 14 3 -0.1607 -5.6137
14 14 4 4.4740 -2.1144
15 0 1 0.5850 -11.0780
15 0 2 26.6859 -0.2683
15 0 3 0.9931 -7.5051
15 0 4 -19.2884 -1.6510
15 0 5 -0.2882 15.9436
15 0 6 2.1348 1.2116
15 0 7 -0.9146 3.4904
15 0 8 -5.9618 1.6365
15 0 9 -0.2611 -4.8251
15 0 10 -12.3858 -0.5571
15 0 11 0.5806 -0.3153
15 0 12 11.1337 -1.4218
15 0 13 0.4848 1.9216
15 0 14 -3.1585 0.1388
15 0 15 -0.6278 1.5157
15 1 0 0.3608 -10.7661
15 1 1 -5.7048 7.4621
15 1 2 4.1277 6.3407
15 1 3 9.9796 4.9697
15 1 4 -4.7146 3.2502
15 1 5 -0.2285 4.9666
15 1 6 -2.1307 -2.6889
15 1 7 -3.7786 0.6199
15 1 8 5.7935 8.5327
15 1 9 0.3244 -3.9492
15 1 10 -5.7570 -6.5905
15 1 11 -0.3540 13.5111
15 1 12 -4.1004 -4.1765
15 1 13 2.4403 3.2591
15 1 14 0.1006 4.0334
15 1 15 -3.5986 -2.4475
15 2 0 -0.3757 -8.6083
15 2 1 -1.7870 0.5150
15 2 2 -15.9737 7.1124
15 2 3 9.3635 3.4199
15 2 4 7.5688 -2.4437
15 2 5 -2.6774 -5.7487
15 2 6 7.6226 -11.7870
15 2 7 0.3097 -5.0781
15 2 8 -0.4687 11.9065
15 2 9 8.8312 4.9425
15 2 10 -0.8166 -0.7926
15 2 11 -4.9143 -3.8800
15 2 12 2.0617 -2.4565
15 2 13 -4.8770 2.7462
15 2 14 3.2228 3.7930
15 2 15 3.2433 -0.6921
15 3 0 0.7084 7.1301
15 3 1 7.1710 -22.2285
15 3 2 3.0708 -1.2804
15 3 3 -15.1722 -6.0092
15 3 4 -14.8035 -11.1896
15 3 5 2.6155 6.9688
15 3 6 19.7522 -0.6541
15 3 7 5.0121 -9.9537
15 3 8 -0.6061 1.7007
15 3 9 -4.7864 10.5462
15 3 10 -10.4803 -5.1573
15 3 11 5.1439 -3.1723
15 3 12 13.6505 1.9820
15 3 13 -0.6982 -12.1702
15 3 14 -1.8554 4.0442
15 3 15 -3.2623 2.1927
15 4 0 0.1611 -4.5612
15 4 1 -12.3059 17.0385
15 4 2 15.1301 7.5653
15 4 3 8.9249 -3.8920
15 4 4 -15.7498 -2.6518
15 4 5 -2.8557 -7.0824
15 4 6 0.6916 -1.8145
15 4 7 -4.4733 15.5030
15 4 8 -0.2533 11.6978
15 4 9 0.1100 -10.1305
15 4 10 -0.9673 -10.9151
15 4 11 -8.8801 -0.5091
15 4 12 8.3812 -2.5213
15 4 13 4.1288 7.1170
15 4 14 -5.7361 6.4536
15 5 0 0.6926 -18.1329
15 5 1 3.7988 5.7650
15 5 2 5.4326 10.7550
15 5 3 -5.1316 3.5172
15 5 4 1.3370 16.1328
15 5 5 10.4519 4.0601
15 5 6 -5.5419 -10.4703
15 5 7 -4.2188 2.6972
15 5 8 -4.1102 3.2168
15 5 9 -5.1683 -5.7687
15 5 10 -1.3901 2.5124
15 5 11 5.6939 -0.0922
15 5 12 2.4943 -2.1801
15 5 13 -0.4191 1.4092
15 5 14 -0.4395 3.8512
15 6 0 0.1519 -9.0732
15 6 1 9.4151 -3.6581
15 6 2 1.2916 -1.6537
15 6 3 2.3584 -2.0311
15 6 4 0.4760 3.1909
15 6 5 -1.2635 -0.4722
15 6 6 -2.4718 -0.8800
15 6 7 2.6490 -0.5831
15 6 8 8.3181 -1.8162
15 6 9 -3.4507 2.1331
15 6 10 -7.9298 -0.8086
15 6 11 4.5652 0.0211
15 6 12 -4.5844 1.2926
15 6 13 3.2269 -4.2927
15 7 0 0.9580 5.5068
15 7 1 -3.6766 -11.8284
15 7 2 -1.0232 -5.1303
15 7 3 -3.5986 0.7913
15 7 4 -4.3087 -12.2657
15 7 5 1.4708 1.0622
15 7 6 7.7499 1.1344
15 7 7 2.5441 -0.2601
15 7 8 1.3178 4.2004
15 7 9 1.7528 7.5649
15 7 10 -0.9675 2.7548
15 7 11 -4.1501 -4.9101
15 7 12 2.4051 -4.3437
15 7 13 -2.3009 2.0349
15 8 0 0.3858 13.8349
15 8 1 -15.0537 6.9269
15 8 2 -5.5025 3.3891
15 8 3 9.1024 -2.5962
15 8 4 -0.1917 -6.4223
15 8 5 -1.2153 -3.4152
15 8 6 9.7397 -0.3333
15 8 7 -2.3964 2.9952
15 8 8 -2.0848 1.8038
15 8 9 3.8432 -1.5049
15 8 10 3.1820 0.8396
15 8 11 -5.1459 3.0097
15 8 12 0.1389 0.2413
15 9 0 0.7254 3.5184
15 9 1 5.4706 -7.6846
15 9 2 -7.9206 4.4535
15 9 3 0.7884 -4.0062
15 9 4 1.5320 1.6994
15 9 5 -3.8943 10.1982
15 9 6 -6.4851 -1.9181
15 9 7 -0.3881 -11.7905
15 9 8 2.4981 -2.6075
15 9 9 1.1016 -3.6622
15 9 10 1.8104 3.3169
15 9 11 1.7881 7.6533
15 10 0 0.2981 -10.5908
15 10 1 2.2906 -4.3593
15 10 2 1.3833 0.5567
15 10 3 11.1835 10.1344
15 10 4 -5.1090 6.1583
15 10 5 -12.1166 3.2174
15 10 6 -8.2805 -4.7809
15 10 7 -4.3382 -6.6104
15 10 8 6.5169 -3.1738
15 10 9 10.0180 1.1661
15 10 10 -1.3427 2.7898
15 11 0 0.4571 -6.8989
15 11 1 -0.8169 -4.1179
15 11 2 16.0444 1.4394
15 11 3 2.9728 9.8122
15 11 4 -6.3157 2.6909
15 11 5 -3.8171 4.5386
15 11 6 1.3567 -5.2030
15 11 7 -1.4418 -5.2372
15 11 8 2.7096 0.3737
15 12 0 0.1902 -7.5930
15 12 1 0.7248 -2.5949
15 12 2 3.5738 2.0978
15 12 3 -1.0450 -6.5255
15 12 4 2.7767 3.0400
15 12 5 2.1369 4.0001
15 12 6 3.6493 -0.1037
15 12 7 -1.1789 0.7051
15 13 0 0.3904 4.5170
15 13 1 -7.8318 2.0954
15 13 2 -2.8932 -5.6804
15 13 3 8.8602 -6.5369
16 0 0 -5.3754 -1.7635
16 0 1 -0.3476 -4.9421
16 0 2 -0.0188 -0.0039
16 0 3 0.1152 24.0777
16 0 4 7.4114 1.6137
16 0 5 0.2701 6.2724
16 0 6 -2.0888 0.5452
16 0 7 0.7938 -8.1029
16 0 8 -4.1865 -0.4102
16 0 9 -0.4079 7.4005
16 0 10 7.7157 -1.1193
16 0 11 -0.9353 -0.2212
16 0 12 -3.5881 -0.1418
16 0 13 0.3095 -3.9667
16 0 14 1.1835 0.9327
16 1 0 16.7067 -0.0368
16 1 1 2.6041 11.4227
16 1 2 2.8193 -9.1295
16 1 3 3.0612 -3.8172
16 1 4 -7.3624 4.9287
16 1 5 -5.7689 2.6040
16 1 6 1.0450 1.4712
16 1 7 -1.3756 -5.0765
16 1 8 1.7964 -3.5445
16 1 9 3.3767 8.3534
16 1 10 2.2631 2.0045
16 1 11 -5.0456 9.3572
16 1 12 1.7745 -0.2560
16 1 13 2.2470 -7.0539
16 1 14 -3.2832 -2.1368
16 2 0 -12.2230 -0.5190
16 2 1 -7.2728 4.0254
16 2 2 6.6873 4.9467
16 2 3 -5.7529 -22.9919
16 2 4 0.4396 1.5614
16 2 5 1.8395 2.1906
16 2 6 -6.0723 -2.7653
16 2 7 3.0972 1.1399
16 2 8 5.9845 3.6086
16 2 9 4.5020 -6.3072
16 2 10 -4.5056 2.4885
16 2 11 -5.9919 2.0539
16 2 12 -1.4760 0.7315
16 2 13 -2.6191 -3.2533
16 3 0 -17.0653 0.2399
16 3 1 -14.6683 -1.8140
16 3 2 1.4213 3.8472
16 3 3 1.8066 -5.2768
16 3 4 6.2508 1.7954
16 3 5 13.4235 -4.5492
16 3 6 -1.5555 -3.0753
16 3 7 -11.4733 3.5822
16 3 8 2.1326 0.0098
16 3 9 3.6024 -3.4335
16 3 10 -5.9979 2.5252
16 3 11 6.1439 -4.0157
16 3 12 -2.8746 1.0353
16 3 13 -3.6503 0.1286
16 4 0 14.9195 -0.6418
16 4 1 -5.0203 -1.2218
16 4 2 -3.8841 -14.7943
16 4 3 6.3851 7.3594
16 4 4 -5.5696 4.3727
16 4 5 5.4403 9.6697
16 4 6 2.5258 0.7662
16 4 7 -9.0850 -2.1681
16 4 8 -0.3026 -2.3627
16 4 9 0.3139 -7.9746
16 4 10 5.2660 1.2371
16 4 11 2.4318 6.6860
16 4 12 0.8589 -5.9257
16 4 13 3.7425 2.9041
16 5 0 0.7863 -0.0116
16 5 1 14.5771 3.5852
16 5 2 3.8223 0.5114
16 5 3 3.4187 -9.0432
16 5 4 0.0799 3.3870
16 5 5 -14.7799 18.1046
16 5 6 -4.2968 -5.9075
16 5 7 0.5930 -2.7013
16 5 8 1.2709 -1.2608
16 5 9 2.6465 -5.0585
16 5 10 -0.8621 1.8572
16 5 11 0.1798 5.9964
16 5 12 1.3544 -4.0411
16 6 0 -21.8663 -0.7758
16 6 1 -5.6183 -5.6387
16 6 2 9.7768 9.5813
16 6 3 2.9349 8.2601
16 6 4 3.0941 0.2681
16 6 5 3.1929 -7.6287
16 6 6 -8.6678 1.2089
16 6 7 -7.0987 -2.2881
16 6 8 10.2334 4.4766
16 6 9 3.1709 7.6556
16 6 10 -8.7743 -1.2210
16 6 11 -0.2374 -2.6145
16 6 12 -5.3681 -0.3859
16 7 0 5.5942 -0.0793
16 7 1 -3.1083 0.3417
16 7 2 -4.2163 -15.2412
16 7 3 -2.6006 -0.9243
16 7 4 1.6467 7.1201
16 7 5 5.5783 -6.0413
16 7 6 7.7449 -0.0694
16 7 7 7.6626 3.3652
16 7 8 -4.8034 -0.4958
16 7 9 -2.6769 -2.0246
16 7 10 -2.0789 9.1901
16 7 11 -2.2747 -0.4665
16 8 0 -0.3942 -0.5168
16 8 1 -3.5109 3.3346
16 8 2 -2.4446 -5.7381
16 8 3 -3.6297 -8.9101
16 8 4 4.1590 -6.7432
16 8 5 -0.7233 -0.9917
16 8 6 -0.0229 4.7611
16 8 7 2.3969 1.0669
16 8 8 0.9212 -2.4226
16 8 9 1.2325 -0.7329
16 8 10 4.8970 -0.0775
16 9 0 -8.0538 -0.1285
16 9 1 -3.3278 3.4144
16 9 2 0.8056 6.6402
16 9 3 -1.2413 -0.2612
16 9 4 1.9442 0.3714
16 9 5 -2.9713 1.8881
16 9 6 -6.8146 -2.4052
16 9 7 -1.2841 -7.7530
16 9 8 1.1168 -1.2928
16 9 9 4.4764 3.0411
16 10 0 7.2048 -0.4982
16 10 1 6.1906 1.7041
16 10 2 3.8113 0.6563
16 10 3 0.4687 7.9738
16 10 4 -8.4281 9.1525
16 10 5 -5.7403 -0.4044
16 10 6 0.7519 -2.6641
16 10 7 2.2954 -4.0678
16 11 0 4.9960 -0.2337
16 11 1 4.6160 -6.9310
16 11 2 5.1764 7.5790
16 11 3 1.0297 7.8988
16 11 4 -1.5523 -5.2984
16 11 5 -3.0433 -2.4490
16 11 6 -3.1759 3.0751
16 12 0 6.0806 -0.3874
16 12 1 0.6999 -5.7922
16 12 2 -7.8886 1.0066
17 0 1 0.4873 6.2050
17 0 2 15.9767 -0.0513
17 0 3 1.8149 -9.9888
17 0 4 -19.9092 -0.0728
17 0 5 -0.2995 -3.9433
17 0 6 -1.7241 0.0414
17 0 7 -1.7805 4.7366
17 0 8 9.6756 0.2058
17 0 9 -0.1207 -9.7780
17 0 10 -8.1785 0.0122
17 0 11 0.7873 -0.5195
17 0 12 2.1019 -0.1039
17 1 0 0.0300 -9.5724
17 1 1 -4.1834 10.1413
17 1 2 -14.2300 7.6247
17 1 3 0.7231 5.2949
17 1 4 -3.0107 4.5736
17 1 5 7.0644 -4.7010
17 1 6 3.4813 -9.2496
17 1 7 -4.6232 3.5805
17 1 8 8.5262 6.1443
17 1 9 -1.4184 -0.7292
17 1 10 -0.7045 -1.7387
17 1 11 3.4471 -1.7049
17 1 12 -4.3555 -1.9744
17 2 0 -0.3911 8.1355
17 2 1 7.4293 -8.8097
17 2 2 -5.4750 4.0905
17 2 3 -9.3458 -1.6121
17 2 4 6.6453 -6.5129
17 2 5 6.5526 9.8515
17 2 6 4.7548 -7.5398
17 2 7 0.3479 3.3169
17 2 8 -7.1499 5.6567
17 2 9 -3.4586 -1.0801
17 2 10 0.9755 2.9191
17 2 11 3.0595 2.8406
17 2 12 4.4216 -1.1857
17 3 0 0.1489 12.7335
17 3 1 2.7587 1.7690
17 3 2 10.5001 -12.8792
17 3 3 0.2727 -7.5830
17 3 4 -8.4698 -5.8379
17 3 5 0.5962 0.5145
17 3 6 4.1313 15.0703
17 3 7 -4.2572 6.7924
17 3 8 -0.5795 -7.7208
17 3 9 0.2771 -5.8108
17 3 10 -6.7627 -5.1311
17 3 11 6.4945 3.2563
17 4 0 -0.0357 -20.9735
17 4 1 -9.3776 16.7596
17 4 2 -4.8834 4.1841
17 4 3 5.8699 3.1144
17 4 4 11.4689 8.7717
17 4 5 1.4514 -10.7278
17 4 6 -10.1420 -3.8239
17 4 7 -5.5914 2.3111
17 4 8 -4.0266 3.8701
17 4 9 0.8931 -8.4825
17 4 10 9.5947 -4.2128
17 4 11 0.4436 -0.7492
17 5 0 0.2237 -2.4012
17 5 1 8.0803 -7.8720
17 5 2 9.5296 4.4367
17 5 3 -15.4470 1.8972
17 5 4 -2.8508 6.8535
17 5 5 2.9217 5.1069
17 5 6 -1.5576 -2.0573
17 5 7 4.0855 -3.7745
17 5 8 1.7711 -3.7472
17 5 9 -5.6169 0.9170
17 5 10 -1.4364 2.8368
17 6 0 0.1277 -2.5043
17 6 1 3.3830 -1.1331
17 6 2 5.5158 3.4897
17 6 3 2.6460 -4.0998
17 6 4 -9.1363 -0.8132
17 6 5 1.2692 -1.5762
17 6 6 3.3443 -0.4607
17 6 7 0.6366 6.4438
17 6 8 4.2577 1.5988
17 6 9 -1.3065 3.4304
17 6 10 -5.7148 -1.2834
17 7 0 0.3668 -0.7052
17 7 1 -7.9093 4.9783
17 7 2 -1.2641 -2.9070
17 7 3 6.4578 -4.4503
17 7 4 -3.0637 -4.2955
17 7 5 7.3932 -0.4282
17 7 6 2.5979 -3.0354
17 7 7 -1.5258 7.1082
17 7 8 -3.4078 3.7127
17 7 9 -0.2022 -1.9565
17 8 0 -0.1255 1.4568
17 8 1 -5.8459 -2.2463
17 8 2 -6.4695 0.6665
17 8 3 -0.8325 -4.7803
17 8 4 7.1966 0.1969
17 8 5 2.4142 3.6078
17 8 6 -1.0786 -2.6216
17 8 7 -1.4219 -0.6914
17 8 8 4.2495 -1.5337
17 9 0 0.4055 5.3946
17 9 1 1.9242 -7.1750
17 9 2 2.0330 1.7479
17 9 3 -0.1857 1.1459
17 9 4 -4.3904 0.2707
17 9 5 -4.5830 0.9987
17 9 6 -2.6195 -0.9946
17 10 0 -0.1237 -7.9961
17 10 1 1.8779 1.7624
17 10 2 2.2947 5.5824
17 10 3 3.7998 5.8356
17 10 4 -8.4768 3.6909
18 0 0 1.0973 -1.6535
18 0 1 0.6521 -2.2581
18 0 2 -10.6879 0.1502
18 0 3 -0.4606 9.3115
18 0 4 -5.8716 1.2756
18 0 5 -0.5030 -8.4053
18 0 6 6.7573 0.3410
18 0 7 0.0613 -7.6047
18 0 8 -2.0802 -0.1859
18 0 9 0.2214 8.6885
18 0 10 -6.7358 -0.6670
18 1 0 3.4934 0.1848
18 1 1 6.8035 15.1247
18 1 2 5.5189 -2.7734
18 1 3 -2.1718 -10.8242
18 1 4 0.4261 -2.6957
18 1 5 -6.3736 -5.7333
18 1 6 2.4669 -0.5841
18 1 7 5.4721 -0.2885
18 1 8 2.4505 3.1406
18 1 9 -0.1096 -0.6293
18 2 0 -9.9208 -0.1188
18 2 1 -13.0435 -3.0060
18 2 2 10.6805 1.1047
18 2 3 -8.3535 2.9351
18 2 4 8.8521 0.7890
18 2 5 5.6995 2.1911
18 2 6 -6.5832 -0.7065
18 2 7 -0.2477 3.2827
18 2 8 5.2699 1.6909
18 2 9 1.0617 -2.2930
18 3 0 -4.5153 -0.1466
18 3 1 -2.5111 -1.9861
18 3 2 -1.7893 -4.4299
18 3 3 5.3786 0.1349
18 3 4 0.4190 13.8604
18 3 5 4.7094 2.3051
18 3 6 -3.9299 -3.4143
18 3 7 -7.0763 2.0401
18 3 8 -0.1067 -7.4920
18 3 9 -0.3005 -0.9548
18 4 0 6.6800 -0.5399
18 4 1 11.4202 -0.1893
18 4 2 -0.1319 -7.8180
18 4 3 6.6931 -4.4276
18 4 4 -10.8769 6.3076
18 4 5 -3.8640 4.0955
18 4 6 -6.6201 -1.7637
18 4 7 0.9541 -1.5582
18 4 8 4.5745 -1.9047
18 5 0 -10.9612 -0.0655
18 5 1 3.9840 -5.7267
18 5 2 8.0625 10.3077
18 5 3 -3.4280 7.0233
18 5 4 3.2845 -6.1330
18 5 5 -4.7535 -1.8943
18 5 6 -4.6069 -4.8748
18 5 7 4.1086 -1.2777
18 5 8 5.6639 2.0689
18 6 0 1.4822 -0.5792
18 6 1 -1.8530 -2.9125
18 6 2 -3.4685 -3.8387
18 6 3 -1.2195 11.5675
18 6 4 3.4580 3.7113
18 6 5 -0.8153 -9.1605
18 6 6 7.0353 1.0261
18 6 7 -0.1308 0.6819
18 7 0 1.3589 0.1182
18 7 1 5.2230 5.0660
18 7 2 -1.2760 -8.5184
18 7 3 0.4191 -5.7104
18 7 4 2.5551 -0.9561
18 7 5 -2.2734 5.0507
18 8 0 -8.0382 -0.4083
18 8 1 -4.7612 -1.2144
18 8 2 3.0806 -1.1228
18 8 3 1.5917 -2.8401
19 0 1 0.8437 5.0153
19 0 2 -1.5879 0.5068
19 0 3 0.6976 -7.4730
19 0 4 -2.6568 0.7468
19 0 5 -0.7963 -7.7877
19 0 6 -2.0934 -0.7251
19 1 0 -0.0118 -1.7060
19 1 1 -2.6918 -3.2984
19 1 2 -12.6778 0.8252
19 1 3 -3.1450 -0.4281
19 1 4 -1.4120 3.8541
19 1 5 6.7785 -0.4675
19 1 6 0.4771 -2.7345
19 2 0 -0.3070 14.7686
19 2 1 0.8228 -5.7177
19 2 2 7.5822 -1.3361
19 2 3 -0.1929 0.2480
19 2 4 1.1130 -5.7038
19 2 5 1.5170 7.0503
19 2 6 -5.3713 2.3587
19 3 0 -0.4092 -3.9248
19 3 1 0.8572 5.3046
19 3 2 0.6429 -3.9065
19 3 3 9.0956 0.8519
19 3 4 4.0155 2.9406
19 3 5 -8.9321 -1.4703
19 4 0 0.0559 -13.9523
19 4 1 1.8320 0.5613
19 4 2 -5.5509 0.5087
19 4 3 -5.3408 6.8833
19 4 4 5.7617 5.1515
19 4 5 2.0430 -0.1538
19 5 0 -0.1119 8.9387
19 5 1 1.9075 1.8576
19 5 2 10.3717 -0.1535
19 5 3 -6.6176 -3.3014
0 0 0 0.0 0.0
;
_shelx_fab_checksum              995
_olex2_submission_special_instructions 'No special instructions were received'
loop_
_space_group_symop_operation_xyz
'x, y, z'
'-x+1/2, -y, z+1/2'
'x+1/2, -y+1/2, -z'
'-x, y+1/2, -z+1/2'
loop_
_atom_site_label
_atom_site_type_symbol
_atom_site_fract_x
_atom_site_fract_y
_atom_site_fract_z
_atom_site_U_iso_or_equiv
_atom_site_adp_type
_atom_site_occupancy
_atom_site_site_symmetry_order
_atom_site_calc_flag
_atom_site_refinement_flags_posn
Ag1 Ag 0.41823(5) -0.00110(6) 0.37733(4) 0.0200(3) Uani 1 1 d .
Ag2 Ag 0.55122(5) 0.00107(6) 0.40349(5) 0.0226(3) Uani 1 1 d .
Ag3 Ag 0.68611(5) 0.00001(6) 0.39855(4) 0.0216(3) Uani 1 1 d .
Ag4 Ag 0.81764(5) -0.01684(5) 0.40778(4) 0.0213(4) Uani 1 1 d .
Ag5 Ag 0.94229(5) 0.03022(5) 0.39952(5) 0.0168(3) Uani 1 1 d .
Ag6 Ag 1.05892(5) -0.00339(6) 0.35036(4) 0.0179(3) Uani 1 1 d .
Ag7 Ag 1.17143(5) -0.03562(5) 0.40431(5) 0.0156(3) Uani 1 1 d .
Ag8 Ag 1.29087(5) 0.02206(5) 0.40421(5) 0.0164(3) Uani 1 1 d .
F1 F 1.1760(4) -0.3983(4) 0.3885(4) 0.042(3) Uani 1 1 d .
F2 F 1.0872(4) -0.3490(4) 0.4052(4) 0.053(3) Uani 1 1 d .
F3 F 1.1641(5) -0.3034(4) 0.3634(4) 0.051(3) Uani 1 1 d .
F4 F 1.1727(5) -0.3244(5) 0.4487(4) 0.053(3) Uani 1 1 d .
F5 F 1.0351(4) -0.1519(4) 0.6535(4) 0.045(3) Uani 1 1 d .
F6 F 1.1016(4) -0.0801(4) 0.6298(3) 0.032(3) Uani 1 1 d .
F7 F 1.0903(4) -0.1633(4) 0.5798(3) 0.039(3) Uiso 1 1 d .
F8 F 1.1365(4) -0.1707(4) 0.6575(4) 0.043(3) Uani 1 1 d .
F9 F 0.8305(7) -0.2287(8) 0.6843(6) 0.132(6) Uani 1 1 d .
F10 F 0.8134(5) -0.2315(5) 0.6044(5) 0.079(4) Uani 1 1 d .
F11 F 0.8329(5) -0.1450(5) 0.6425(6) 0.088(5) Uani 1 1 d .
F12 F 0.9077(4) -0.2111(4) 0.6299(4) 0.052(3) Uani 1 1 d .
F13 F 0.9763(4) 0.1567(4) 0.6629(3) 0.041(3) Uani 1 1 d .
F14 F 1.0196(4) 0.0734(4) 0.6303(3) 0.033(3) Uani 1 1 d .
F15 F 1.0225(4) 0.1590(4) 0.5846(3) 0.036(3) Uiso 1 1 d .
F16 F 1.0799(4) 0.1509(4) 0.6567(3) 0.035(3) Uiso 1 1 d .
F17 F 1.2862(4) 0.1553(4) 0.5950(4) 0.037(2) Uani 1 1 d .
F18 F 1.3002(4) 0.2480(4) 0.5617(3) 0.029(2) Uani 1 1 d .
F19 F 1.3049(4) 0.2332(4) 0.6484(3) 0.039(3) Uani 1 1 d .
F20 F 1.2136(4) 0.2251(4) 0.6072(4) 0.038(3) Uani 1 1 d .
F21 F 1.1700(5) 0.3210(5) 0.3264(4) 0.053(3) Uiso 1 1 d .
F22 F 1.2236(5) 0.2640(4) 0.3813(3) 0.049(3) Uani 1 1 d .
F23 F 1.2423(5) 0.2585(4) 0.2960(3) 0.041(3) Uani 1 1 d .
F24 F 1.2700(4) 0.3404(4) 0.3405(4) 0.046(3) Uani 1 1 d .
C1A C 0.3805(8) 0.2330(8) 0.3800(7) 0.042(5) Uiso 1 1 d .
H1AA H 0.397015 0.231616 0.414079 0.063 Uiso 1 1 calc GR
H1AB H 0.336872 0.227415 0.381301 0.063 Uiso 1 1 calc GR
H1AC H 0.389451 0.270737 0.364820 0.063 Uiso 1 1 calc GR
C1B C 0.4736(9) -0.0743(9) 0.5650(7) 0.048(6) Uiso 1 1 d .
H1BA H 0.468652 -0.102891 0.591907 0.073 Uiso 1 1 calc GR
H1BB H 0.456035 -0.037319 0.575450 0.073 Uiso 1 1 calc GR
H1BC H 0.516431 -0.069038 0.557868 0.073 Uiso 1 1 calc GR
C1C C 0.6449(8) 0.1942(8) 0.3123(7) 0.042(6) Uiso 1 1 d .
H1CA H 0.646830 0.236612 0.311408 0.064 Uiso 1 1 calc GR
H1CB H 0.626752 0.179901 0.281147 0.064 Uiso 1 1 calc GR
H1CC H 0.685620 0.178434 0.315674 0.064 Uiso 1 1 calc GR
C1D C 0.4673(8) -0.1787(8) 0.2873(7) 0.042(6) Uiso 1 1 d .
H1DA H 0.489739 -0.166455 0.257470 0.063 Uiso 1 1 calc GR
H1DB H 0.429007 -0.157881 0.288815 0.063 Uiso 1 1 calc GR
H1DC H 0.459686 -0.220480 0.285574 0.063 Uiso 1 1 calc GR
C1E C 0.6078(8) 0.0445(7) 0.5897(7) 0.046(5) Uiso 1 1 d .
H1EA H 0.607961 0.070365 0.618859 0.070 Uiso 1 1 calc GR
H1EB H 0.627493 0.007905 0.598482 0.070 Uiso 1 1 calc GR
H1EC H 0.566179 0.036792 0.579506 0.070 Uiso 1 1 calc GR
C1F C 0.7423(9) -0.2291(8) 0.3692(7) 0.051(6) Uiso 1 1 d .
H1FA H 0.736527 -0.263480 0.348111 0.076 Uiso 1 1 calc GR
H1FB H 0.722852 -0.235166 0.401815 0.076 Uiso 1 1 calc GR
H1FC H 0.785364 -0.222423 0.374207 0.076 Uiso 1 1 calc GR
C1G C 0.8641(8) 0.1337(7) 0.5612(6) 0.035(5) Uiso 1 1 d .
H1GA H 0.855058 0.145460 0.595748 0.053 Uiso 1 1 calc GR
H1GB H 0.846765 0.161900 0.537723 0.053 Uiso 1 1 calc GR
H1GC H 0.907761 0.132201 0.556470 0.053 Uiso 1 1 calc GR
C1H C 0.7573(9) 0.0927(8) 0.2335(7) 0.057(6) Uiso 1 1 d .
H1HA H 0.780432 0.126096 0.245462 0.086 Uiso 1 1 calc GR
H1HB H 0.715969 0.095367 0.246048 0.086 Uiso 1 1 calc GR
H1HC H 0.756893 0.092536 0.196645 0.086 Uiso 1 1 calc GR
C1I C 0.8972(9) -0.1803(8) 0.4893(7) 0.054(6) Uiso 1 1 d .
H1IA H 0.901869 -0.204576 0.519254 0.081 Uiso 1 1 calc GR
H1IB H 0.916498 -0.199273 0.460539 0.081 Uiso 1 1 calc GR
H1IC H 0.854350 -0.174877 0.482177 0.081 Uiso 1 1 calc GR
C1J C 0.9589(8) 0.0691(8) 0.1947(6) 0.035(5) Uiso 1 1 d .
H1JA H 0.947076 0.094527 0.166838 0.053 Uiso 1 1 calc GR
H1JB H 0.939156 0.031400 0.190820 0.053 Uiso 1 1 calc GR
H1JC H 1.002564 0.063860 0.194340 0.053 Uiso 1 1 calc GR
C1K C 1.0610(8) -0.2144(8) 0.4484(6) 0.034(5) Uiso 1 1 d .
H1KA H 1.053134 -0.256181 0.447018 0.051 Uiso 1 1 calc GR
H1KB H 1.035693 -0.196730 0.474319 0.051 Uiso 1 1 calc GR
H1KC H 1.103388 -0.207783 0.456426 0.051 Uiso 1 1 calc GR
C1L C 1.0408(8) 0.2115(8) 0.4402(6) 0.033(5) Uiso 1 1 d .
H1LA H 1.052318 0.252474 0.438492 0.050 Uiso 1 1 calc GR
H1LB H 1.060449 0.193358 0.469181 0.050 Uiso 1 1 calc GR
H1LC H 0.997114 0.208475 0.443886 0.050 Uiso 1 1 calc GR
C1M C 1.1687(8) -0.0810(7) 0.2015(6) 0.032(5) Uiso 1 1 d .
H1MA H 1.178676 -0.108359 0.174573 0.048 Uiso 1 1 calc GR
H1MB H 1.193129 -0.045944 0.197815 0.048 Uiso 1 1 calc GR
H1MC H 1.126024 -0.070807 0.199423 0.048 Uiso 1 1 calc GR
C1N C 1.1964(8) 0.1802(7) 0.4894(6) 0.034(5) Uiso 1 1 d .
H1NA H 1.179436 0.206997 0.514222 0.050 Uiso 1 1 calc GR
H1NB H 1.183163 0.191565 0.455661 0.050 Uiso 1 1 calc GR
H1NC H 1.240384 0.181654 0.491068 0.050 Uiso 1 1 calc GR
C1O C 1.3515(9) -0.0431(9) 0.2131(8) 0.068(7) Uiso 1 1 d .
H1OA H 1.322081 -0.073235 0.204807 0.102 Uiso 1 1 calc GR
H1OB H 1.383538 -0.059789 0.233784 0.102 Uiso 1 1 calc GR
H1OC H 1.368760 -0.027506 0.182004 0.102 Uiso 1 1 calc GR
C1P C 1.2557(7) -0.1322(7) 0.5614(6) 0.028(5) Uiso 1 1 d .
H1PA H 1.277687 -0.162628 0.543472 0.043 Uiso 1 1 calc GR
H1PB H 1.213253 -0.133335 0.551709 0.043 Uiso 1 1 calc GR
H1PC H 1.259213 -0.138619 0.597747 0.043 Uiso 1 1 calc GR
C2A C 0.4431(7) 0.1973(8) 0.3076(6) 0.026(5) Uiso 1 1 d .
H2A H 0.448699 0.236393 0.297583 0.031 Uiso 1 1 calc R
C2B C 0.4177(7) -0.1487(8) 0.5138(6) 0.027(5) Uiso 1 1 d .
H2B H 0.418494 -0.174724 0.541425 0.033 Uiso 1 1 calc R
C2C C 0.5811(7) 0.2147(7) 0.3881(6) 0.026(5) Uiso 1 1 d .
H2C H 0.586834 0.254980 0.382563 0.031 Uiso 1 1 calc R
C2D C 0.5266(7) -0.2083(8) 0.3641(6) 0.024(5) Uiso 1 1 d .
H2D H 0.520145 -0.247437 0.354487 0.028 Uiso 1 1 calc R
C2E C 0.6684(8) 0.1266(8) 0.5483(7) 0.030(5) Uiso 1 1 d .
H2E H 0.664692 0.148277 0.578480 0.036 Uiso 1 1 calc R
C2F C 0.6892(7) -0.1800(8) 0.2973(6) 0.032(5) Uiso 1 1 d .
H2F H 0.689512 -0.215948 0.280010 0.039 Uiso 1 1 calc R
C2G C 0.8133(7) 0.0420(7) 0.5883(6) 0.029(4) Uiso 1 1 d .
H2G H 0.813812 0.055610 0.621971 0.034 Uiso 1 1 calc R
C2H C 0.8020(7) -0.0079(9) 0.2226(7) 0.043(5) Uiso 1 1 d .
H2H H 0.796639 -0.004358 0.187364 0.051 Uiso 1 1 calc R
C2I C 0.9455(7) -0.1041(7) 0.5452(6) 0.026(5) Uiso 1 1 d .
H2I H 0.942394 -0.131051 0.572038 0.031 Uiso 1 1 calc R
C2J C 0.9194(7) 0.1526(7) 0.2468(6) 0.027(5) Uiso 1 1 d .
H2J H 0.915925 0.173914 0.216450 0.033 Uiso 1 1 calc R
C2K C 1.0314(7) -0.2191(8) 0.3561(6) 0.023(5) Uiso 1 1 d .
H2K H 1.028744 -0.260076 0.358296 0.028 Uiso 1 1 calc R
C2L C 1.0771(7) 0.2136(8) 0.3500(6) 0.028(5) Uiso 1 1 d .
H2L H 1.075861 0.254686 0.351058 0.034 Uiso 1 1 calc R
C2M C 1.1957(7) -0.1679(7) 0.2564(6) 0.023(5) Uiso 1 1 d .
H2M H 1.198669 -0.191564 0.227281 0.028 Uiso 1 1 calc R
C2N C 1.1583(7) 0.1036(7) 0.5473(6) 0.022(5) Uiso 1 1 d .
H2N H 1.157802 0.131508 0.573526 0.026 Uiso 1 1 calc R
C2O C 1.3051(8) 0.0554(8) 0.2193(7) 0.035(5) Uiso 1 1 d .
H2O H 1.310910 0.059702 0.184142 0.043 Uiso 1 1 calc R
C2P C 1.3067(6) -0.0387(6) 0.5846(6) 0.018(4) Uiso 1 1 d .
H2P H 1.308370 -0.051766 0.618432 0.021 Uiso 1 1 calc R
C3A C 0.4695(7) 0.1554(7) 0.2811(6) 0.022(5) Uiso 1 1 d .
H3A H 0.492050 0.163834 0.251641 0.027 Uiso 1 1 calc R
C3B C 0.3915(7) -0.1657(7) 0.4698(6) 0.023(4) Uiso 1 1 d .
H3B H 0.375644 -0.203738 0.466933 0.027 Uiso 1 1 calc R
C3C C 0.5464(8) 0.1967(8) 0.4279(7) 0.033(5) Uiso 1 1 d .
H3C H 0.530544 0.223966 0.451111 0.040 Uiso 1 1 calc R
C3D C 0.5582(7) -0.1979(7) 0.4071(7) 0.021(4) Uiso 1 1 d .
H3D H 0.573164 -0.228267 0.427617 0.025 Uiso 1 1 calc R
C3E C 0.6997(7) 0.1497(7) 0.5100(6) 0.024(5) Uiso 1 1 d .
H3E H 0.717519 0.186882 0.512976 0.029 Uiso 1 1 calc R
C3F C 0.6630(8) -0.1342(8) 0.2740(7) 0.032(5) Uiso 1 1 d .
H3F H 0.645941 -0.137716 0.241429 0.039 Uiso 1 1 calc R
C3G C 0.7880(7) -0.0107(7) 0.5778(5) 0.026(4) Uiso 1 1 d .
H3G H 0.771547 -0.033808 0.603870 0.031 Uiso 1 1 calc R
C3H C 0.8248(9) -0.0570(10) 0.2399(8) 0.056(6) Uiso 1 1 d .
H3H H 0.834537 -0.087677 0.217566 0.068 Uiso 1 1 calc R
C3I C 0.9679(7) -0.0512(7) 0.5546(6) 0.026(5) Uiso 1 1 d .
H3I H 0.980979 -0.040622 0.587358 0.031 Uiso 1 1 calc R
C3J C 0.9042(7) 0.1784(7) 0.2891(6) 0.025(5) Uiso 1 1 d .
H3J H 0.892198 0.217895 0.289322 0.030 Uiso 1 1 calc R
C3K C 1.0202(7) -0.1932(7) 0.3122(6) 0.026(5) Uiso 1 1 d .
H3K H 1.009018 -0.215967 0.283949 0.031 Uiso 1 1 calc R
C3L C 1.0952(7) 0.1863(7) 0.3073(6) 0.026(5) Uiso 1 1 d .
H3L H 1.107657 0.207465 0.278544 0.031 Uiso 1 1 calc R
C3M C 1.2051(7) -0.1912(7) 0.3019(6) 0.020(4) Uiso 1 1 d .
H3M H 1.213830 -0.231260 0.305108 0.024 Uiso 1 1 calc R
C3N C 1.1413(7) 0.0470(7) 0.5580(6) 0.025(5) Uiso 1 1 d .
H3N H 1.130833 0.035504 0.591098 0.030 Uiso 1 1 calc R
C3O C 1.2808(7) 0.1006(7) 0.2462(6) 0.024(5) Uiso 1 1 d .
H3O H 1.270082 0.135882 0.230237 0.029 Uiso 1 1 calc R
C3P C 1.3291(7) 0.0145(7) 0.5739(5) 0.025(4) Uiso 1 1 d .
H3P H 1.346234 0.038455 0.599118 0.030 Uiso 1 1 calc R
C4A C 0.4623(7) 0.0960(7) 0.2992(6) 0.018(4) Uiso 1 1 d .
C4B C 0.3877(7) -0.1269(7) 0.4277(6) 0.020(4) Uiso 1 1 d .
C4C C 0.5346(8) 0.1364(8) 0.4335(7) 0.032(5) Uiso 1 1 d .
C4D C 0.5673(7) -0.1373(7) 0.4192(6) 0.017(4) Uiso 1 1 d .
C4E C 0.7055(7) 0.1161(7) 0.4635(6) 0.023(5) Uiso 1 1 d .
C4F C 0.6623(7) -0.0795(7) 0.3013(6) 0.020(4) Uiso 1 1 d .
C4G C 0.7869(7) -0.0304(7) 0.5261(6) 0.020(4) Uiso 1 1 d .
C4H C 0.8347(8) -0.0630(8) 0.2935(7) 0.036(5) Uiso 1 1 d .
C4I C 0.9714(6) -0.0103(7) 0.5125(5) 0.011(4) Uiso 1 1 d .
C4J C 0.9064(7) 0.1448(7) 0.3356(6) 0.016(4) Uiso 1 1 d .
C4K C 1.0247(7) -0.1307(7) 0.3069(6) 0.013(4) Uiso 1 1 d .
C4L C 1.0947(7) 0.1229(7) 0.3076(6) 0.016(4) Uiso 1 1 d .
C4M C 1.2019(6) -0.1555(6) 0.3454(6) 0.010(4) Uiso 1 1 d .
C4N C 1.1403(6) 0.0066(7) 0.5169(5) 0.015(4) Uiso 1 1 d .
C4O C 1.2722(7) 0.0924(7) 0.2995(6) 0.021(5) Uiso 1 1 d .
C4P C 1.3257(7) 0.0333(7) 0.5212(5) 0.017(4) Uiso 1 1 d .
C5A C 0.4000(7) 0.1275(7) 0.3658(6) 0.021(5) Uiso 1 1 d .
C5B C 0.4421(7) -0.0551(7) 0.4763(6) 0.020(5) Uiso 1 1 d .
C5C C 0.5974(7) 0.1151(7) 0.3632(6) 0.015(4) Uiso 1 1 d .
C5D C 0.5143(7) -0.1060(7) 0.3469(6) 0.012(4) Uiso 1 1 d .
C5E C 0.6457(7) 0.0388(8) 0.5013(6) 0.025(5) Uiso 1 1 d .
C5F C 0.7159(7) -0.1244(7) 0.3706(6) 0.016(4) Uiso 1 1 d .
C5G C 0.8386(7) 0.0565(7) 0.5003(6) 0.019(4) Uiso 1 1 d .
C5H C 0.7918(7) 0.0326(8) 0.3071(6) 0.023(4) Uiso 1 1 d .
C5I C 0.9296(7) -0.0820(8) 0.4576(6) 0.025(5) Uiso 1 1 d .
C5J C 0.9441(7) 0.0624(7) 0.2890(6) 0.015(4) Uiso 1 1 d .
C5K C 1.0533(7) -0.1249(7) 0.3949(7) 0.019(5) Uiso 1 1 d .
C5L C 1.0573(7) 0.1207(7) 0.3901(6) 0.013(5) Uiso 1 1 d .
C5M C 1.1765(7) -0.0738(7) 0.2955(6) 0.016(4) Uiso 1 1 d .
C5N C 1.1772(7) 0.0802(7) 0.4597(6) 0.014(4) Uiso 1 1 d .
C5O C 1.3111(6) -0.0047(8) 0.2943(5) 0.022(4) Uiso 1 1 d .
C5P C 1.2786(7) -0.0552(7) 0.4980(6) 0.016(4) Uiso 1 1 d .
B1 B 1.1506(10) -0.3440(10) 0.4015(9) 0.032(6) Uiso 1 1 d .
B2 B 1.0925(10) -0.1425(10) 0.6293(8) 0.029(6) Uiso 1 1 d .
B3 B 0.8474(11) -0.2016(11) 0.6399(9) 0.035(7) Uiso 1 1 d .
B4 B 1.0241(9) 0.1358(9) 0.6349(7) 0.015(5) Uiso 1 1 d .
B5 B 1.2769(8) 0.2142(9) 0.6035(8) 0.016(5) Uiso 1 1 d .
B6 B 1.2274(10) 0.2965(11) 0.3370(9) 0.033(6) Uiso 1 1 d .
N1A N 0.4281(6) 0.0833(6) 0.3395(5) 0.019(4) Uiso 1 1 d .
N1B N 0.4132(6) -0.0724(5) 0.4338(4) 0.017(3) Uiso 1 1 d .
N1C N 0.5601(5) 0.0975(5) 0.4010(5) 0.020(4) Uiso 1 1 d .
N1D N 0.5457(5) -0.0942(5) 0.3899(5) 0.014(3) Uiso 1 1 d .
N1E N 0.6800(5) 0.0624(5) 0.4618(4) 0.010(3) Uiso 1 1 d .
N1F N 0.6881(5) -0.0761(5) 0.3487(5) 0.017(3) Uiso 1 1 d .
N1G N 0.8127(4) 0.0026(6) 0.4894(4) 0.007(3) Uiso 1 1 d .
N1H N 0.8182(6) -0.0185(6) 0.3253(5) 0.027(4) Uiso 1 1 d .
N1I N 0.9527(5) -0.0265(5) 0.4665(4) 0.014(3) Uiso 1 1 d .
N1J N 0.9275(5) 0.0882(6) 0.3334(4) 0.013(3) Uiso 1 1 d .
N1K N 1.0411(5) -0.0988(5) 0.3491(5) 0.011(3) Uiso 1 1 d .
N1L N 1.0756(5) 0.0918(5) 0.3472(5) 0.014(3) Uiso 1 1 d .
N1M N 1.1869(5) -0.0975(5) 0.3413(4) 0.010(3) Uiso 1 1 d .
N1N N 1.1581(5) 0.0233(5) 0.4692(4) 0.014(3) Uiso 1 1 d .
N1O N 1.2874(5) 0.0407(5) 0.3214(4) 0.013(3) Uiso 1 1 d .
N1P N 1.3010(5) -0.0013(6) 0.4859(4) 0.010(3) Uiso 1 1 d .
N2A N 0.4083(6) 0.1858(6) 0.3488(5) 0.020(3) Uiso 1 1 d .
N2B N 0.4425(6) -0.0953(6) 0.5187(5) 0.025(4) Uiso 1 1 d .
N2C N 0.6076(6) 0.1754(6) 0.3562(5) 0.025(4) Uiso 1 1 d .
N2D N 0.5036(6) -0.1654(6) 0.3337(5) 0.019(4) Uiso 1 1 d .
N2E N 0.6417(6) 0.0733(6) 0.5459(5) 0.035(4) Uiso 1 1 d .
N2F N 0.7153(6) -0.1781(6) 0.3441(5) 0.021(4) Uiso 1 1 d .
N2G N 0.8378(6) 0.0752(6) 0.5513(5) 0.020(4) Uiso 1 1 d .
N2H N 0.7855(6) 0.0383(6) 0.2522(5) 0.037(4) Uiso 1 1 d .
N2I N 0.9269(6) -0.1207(6) 0.4985(5) 0.026(4) Uiso 1 1 d .
N2J N 0.9400(6) 0.0963(6) 0.2441(5) 0.022(4) Uiso 1 1 d .
N2K N 1.0468(5) -0.1878(5) 0.3984(6) 0.021(4) Uiso 1 1 d .
N2L N 1.0601(5) 0.1813(5) 0.3928(5) 0.013(3) Uiso 1 1 d .
N2M N 1.1813(5) -0.1084(6) 0.2514(4) 0.017(3) Uiso 1 1 d .
N2N N 1.1755(6) 0.1202(6) 0.5004(5) 0.024(4) Uiso 1 1 d .
N2O N 1.3209(6) 0.0049(7) 0.2417(5) 0.037(4) Uiso 1 1 d .
N2P N 1.2812(5) -0.0753(5) 0.5486(4) 0.014(3) Uiso 1 1 d .
N3A N 0.4909(5) 0.0506(6) 0.2742(4) 0.021(4) Uiso 1 1 d .
H3AA H 0.486269 0.014873 0.284794 0.025 Uiso 1 1 calc R
H3AB H 0.513413 0.057803 0.247859 0.025 Uiso 1 1 calc R
N3B N 0.3613(6) -0.1399(6) 0.3851(5) 0.026(4) Uiso 1 1 d .
H3BA H 0.359931 -0.114350 0.360695 0.031 Uiso 1 1 calc R
H3BB H 0.345060 -0.174269 0.380940 0.031 Uiso 1 1 calc R
N3C N 0.5002(6) 0.1157(7) 0.4719(5) 0.045(5) Uiso 1 1 d .
H3CA H 0.494771 0.078259 0.475320 0.054 Uiso 1 1 calc R
H3CB H 0.483420 0.139888 0.493152 0.054 Uiso 1 1 calc R
N3D N 0.5974(5) -0.1229(6) 0.4618(4) 0.021(4) Uiso 1 1 d .
H3DA H 0.602447 -0.086343 0.469763 0.026 Uiso 1 1 calc R
H3DB H 0.611808 -0.150210 0.481402 0.026 Uiso 1 1 calc R
N3E N 0.7351(6) 0.1356(6) 0.4244(5) 0.028(4) Uiso 1 1 d .
H3EA H 0.738497 0.114127 0.397314 0.033 Uiso 1 1 calc R
H3EB H 0.751650 0.170148 0.425309 0.033 Uiso 1 1 calc R
N3F N 0.6375(5) -0.0313(6) 0.2814(5) 0.025(4) Uiso 1 1 d .
H3FA H 0.637920 0.001274 0.298410 0.030 Uiso 1 1 calc R
H3FB H 0.620996 -0.032587 0.251470 0.030 Uiso 1 1 calc R
N3G N 0.7625(6) -0.0824(6) 0.5138(5) 0.027(4) Uiso 1 1 d .
H3GA H 0.763424 -0.094467 0.482493 0.033 Uiso 1 1 calc R
H3GB H 0.745813 -0.103970 0.537099 0.033 Uiso 1 1 calc R
N3H N 0.8561(6) -0.1109(7) 0.3136(6) 0.043(4) Uiso 1 1 d .
H3HA H 0.859557 -0.113931 0.346330 0.051 Uiso 1 1 calc R
H3HB H 0.866874 -0.139878 0.294152 0.051 Uiso 1 1 calc R
N3I N 0.9927(5) 0.0433(6) 0.5201(5) 0.022(4) Uiso 1 1 d .
H3IA H 0.994485 0.067986 0.495090 0.026 Uiso 1 1 calc R
H3IB H 1.004832 0.053695 0.550210 0.026 Uiso 1 1 calc R
N3J N 0.8892(6) 0.1668(6) 0.3802(5) 0.023(4) Uiso 1 1 d .
H3JA H 0.891430 0.145438 0.407491 0.028 Uiso 1 1 calc R
H3JB H 0.875830 0.202512 0.382098 0.028 Uiso 1 1 calc R
N3K N 1.0129(6) -0.1030(6) 0.2647(5) 0.026(4) Uiso 1 1 d .
H3KA H 1.015487 -0.065098 0.263562 0.032 Uiso 1 1 calc R
H3KB H 1.002558 -0.122546 0.237756 0.032 Uiso 1 1 calc R
N3L N 1.1130(5) 0.0942(6) 0.2658(5) 0.024(4) Uiso 1 1 d .
H3LA H 1.112257 0.056131 0.265046 0.029 Uiso 1 1 calc R
H3LB H 1.125672 0.113600 0.239450 0.029 Uiso 1 1 calc R
N3M N 1.2119(5) -0.1775(5) 0.3920(4) 0.016(3) Uiso 1 1 d .
H3MA H 1.208819 -0.155083 0.418563 0.019 Uiso 1 1 calc R
H3MB H 1.221531 -0.214178 0.395643 0.019 Uiso 1 1 calc R
N3N N 1.1211(5) -0.0484(5) 0.5231(5) 0.017(3) Uiso 1 1 d .
H3NA H 1.120143 -0.072163 0.497390 0.021 Uiso 1 1 calc R
H3NB H 1.109571 -0.060340 0.552918 0.021 Uiso 1 1 calc R
N3O N 1.2498(6) 0.1351(6) 0.3268(5) 0.028(4) Uiso 1 1 d .
H3OA H 1.244496 0.130408 0.359217 0.033 Uiso 1 1 calc R
H3OB H 1.240213 0.168067 0.312456 0.033 Uiso 1 1 calc R
N3P N 1.3472(6) 0.0862(6) 0.5091(5) 0.024(4) Uiso 1 1 d .
H3PA H 1.345312 0.098536 0.477958 0.029 Uiso 1 1 calc R
H3PB H 1.363201 0.108270 0.532470 0.029 Uiso 1 1 calc R
O1A O 0.3680(4) 0.1192(4) 0.4044(4) 0.021(3) Uiso 1 1 d .
O1B O 0.4666(4) -0.0059(5) 0.4827(3) 0.027(3) Uiso 1 1 d .
O1C O 0.6221(5) 0.0805(5) 0.3323(4) 0.030(3) Uiso 1 1 d .
O1D O 0.4914(5) -0.0679(5) 0.3180(4) 0.023(3) Uiso 1 1 d .
O1E O 0.6188(5) -0.0085(5) 0.4979(4) 0.031(3) Uiso 1 1 d .
O1F O 0.7424(5) -0.1214(4) 0.4122(4) 0.025(3) Uiso 1 1 d .
O1G O 0.8614(5) 0.0881(5) 0.4667(4) 0.023(3) Uiso 1 1 d .
O1H O 0.7734(5) 0.0725(5) 0.3333(4) 0.029(3) Uiso 1 1 d .
O1I O 0.9100(5) -0.0978(4) 0.4150(4) 0.025(3) Uiso 1 1 d .
O1J O 0.9642(4) 0.0115(5) 0.2854(4) 0.024(3) Uiso 1 1 d .
O1K O 1.0708(5) -0.0981(5) 0.4329(4) 0.018(3) Uiso 1 1 d .
O1L O 1.0396(5) 0.0931(5) 0.4290(4) 0.019(3) Uiso 1 1 d .
O1M O 1.1608(4) -0.0208(5) 0.2897(4) 0.022(3) Uiso 1 1 d .
O1N O 1.1957(4) 0.0953(4) 0.4179(4) 0.019(3) Uiso 1 1 d .
O1O O 1.3282(5) -0.0515(5) 0.3132(4) 0.025(3) Uiso 1 1 d .
O1P O 1.2567(4) -0.0888(4) 0.4647(3) 0.012(3) Uiso 1 1 d .
loop_
_atom_site_aniso_label
_atom_site_aniso_U_11
_atom_site_aniso_U_22
_atom_site_aniso_U_33
_atom_site_aniso_U_23
_atom_site_aniso_U_13
_atom_site_aniso_U_12
Ag1 0.0129(7) 0.0176(8) 0.0293(7) 0.0097(7) 0.0019(5) -0.0003(7)
Ag2 0.0151(7) 0.0109(7) 0.0418(8) -0.0009(10) -0.0016(6) -0.0004(6)
Ag3 0.0135(7) 0.0228(8) 0.0286(7) -0.0125(8) -0.0036(6) 0.0016(7)
Ag4 0.0131(7) 0.0362(10) 0.0145(7) -0.0015(7) 0.0001(6) -0.0032(6)
Ag5 0.0117(7) 0.0176(7) 0.0212(8) 0.0086(7) 0.0004(6) -0.0007(6)
Ag6 0.0146(7) 0.0111(7) 0.0279(7) 0.0000(8) -0.0002(6) -0.0015(6)
Ag7 0.0129(7) 0.0157(8) 0.0182(7) -0.0063(7) 0.0011(7) 0.0010(6)
Ag8 0.0151(7) 0.0206(8) 0.0134(7) 0.0025(7) 0.0013(6) -0.0006(6)
F1 0.050(7) 0.019(6) 0.057(7) 0.005(5) 0.011(6) 0.015(5)
F2 0.042(7) 0.033(7) 0.085(8) -0.007(7) 0.012(7) -0.006(5)
F3 0.085(9) 0.030(7) 0.036(7) 0.016(5) 0.007(6) -0.006(6)
F4 0.059(8) 0.055(8) 0.046(7) -0.010(6) -0.021(6) 0.016(6)
F5 0.038(7) 0.024(7) 0.074(8) 0.001(6) 0.012(6) 0.004(5)
F6 0.050(7) 0.012(6) 0.035(6) 0.002(5) 0.002(5) -0.008(5)
F8 0.042(7) 0.039(7) 0.047(7) -0.003(6) -0.010(5) 0.012(5)
F9 0.085(12) 0.195(18) 0.116(12) 0.073(12) 0.046(10) -0.008(11)
F10 0.047(8) 0.063(8) 0.127(11) -0.036(9) -0.004(8) 0.000(6)
F11 0.039(8) 0.022(8) 0.204(15) -0.032(8) 0.013(8) 0.013(6)
F12 0.019(6) 0.034(7) 0.102(9) 0.018(6) 0.020(6) 0.003(5)
F13 0.038(7) 0.053(8) 0.031(7) -0.005(6) -0.005(5) 0.018(6)
F14 0.041(7) 0.022(7) 0.037(6) -0.002(5) 0.006(5) -0.008(5)
F17 0.042(6) 0.018(6) 0.050(7) 0.002(6) 0.001(6) 0.002(5)
F18 0.031(6) 0.030(6) 0.025(6) 0.004(5) 0.000(5) -0.001(5)
F19 0.061(8) 0.034(7) 0.022(6) -0.004(5) -0.020(5) -0.021(5)
F20 0.026(6) 0.041(6) 0.047(7) -0.011(5) 0.007(5) 0.004(5)
F22 0.083(9) 0.035(7) 0.028(7) 0.002(5) 0.018(5) 0.002(6)
F23 0.067(8) 0.024(6) 0.032(6) 0.004(5) 0.002(5) 0.001(5)
F24 0.054(8) 0.039(7) 0.044(7) 0.007(6) -0.006(6) -0.026(6)
loop_
_atom_type_symbol
_atom_type_description
_atom_type_scat_dispersion_real
_atom_type_scat_dispersion_imag
_atom_type_scat_source
C C 0.0033 0.0016 'International Tables Vol C Tables 4.2.6.8 and 6.1.1.4'
H H 0.0000 0.0000 'International Tables Vol C Tables 4.2.6.8 and 6.1.1.4'
B B 0.0013 0.0007 'International Tables Vol C Tables 4.2.6.8 and 6.1.1.4'
N N 0.0061 0.0033 'International Tables Vol C Tables 4.2.6.8 and 6.1.1.4'
O O 0.0106 0.0060 'International Tables Vol C Tables 4.2.6.8 and 6.1.1.4'
F F 0.0171 0.0103 'International Tables Vol C Tables 4.2.6.8 and 6.1.1.4'
Ag Ag -0.8971 1.1015 'International Tables Vol C Tables 4.2.6.8 and 6.1.1.4'
loop_
_geom_angle_atom_site_label_1
_geom_angle_atom_site_label_2
_geom_angle_atom_site_label_3
_geom_angle
_geom_angle_site_symmetry_1
_geom_angle_site_symmetry_3
Ag8 Ag1 Ag2 150.49(5) 1_455 .
N1A Ag1 Ag2 89.6(3) . .
N1A Ag1 Ag8 92.6(3) . 1_455
N1A Ag1 N1B 164.7(5) . .
N1B Ag1 Ag2 84.7(3) . .
N1B Ag1 Ag8 85.6(3) . 1_455
Ag3 Ag2 Ag1 164.20(6) . .
N1C Ag2 Ag1 95.5(3) . .
N1C Ag2 Ag3 85.3(3) . .
N1D Ag2 Ag1 83.8(3) . .
N1D Ag2 Ag3 92.3(3) . .
N1D Ag2 N1C 168.9(4) . .
Ag4 Ag3 Ag2 169.85(6) . .
N1E Ag3 Ag2 84.3(3) . .
N1E Ag3 Ag4 94.8(3) . .
N1F Ag3 Ag2 93.0(3) . .
N1F Ag3 Ag4 85.7(3) . .
N1F Ag3 N1E 167.4(5) . .
Ag3 Ag4 Ag5 149.71(6) . .
N1G Ag4 Ag3 90.3(3) . .
N1G Ag4 Ag5 92.6(3) . .
N1H Ag4 Ag3 85.7(3) . .
N1H Ag4 Ag5 85.8(3) . .
N1H Ag4 N1G 169.0(5) . .
Ag4 Ag5 Ag6 137.68(6) . .
N1I Ag5 Ag4 79.8(3) . .
N1I Ag5 Ag6 96.1(3) . .
N1I Ag5 N1J 177.3(4) . .
N1J Ag5 Ag4 98.0(3) . .
N1J Ag5 Ag6 86.5(3) . .
Ag7 Ag6 Ag5 125.44(5) . .
N1K Ag6 Ag5 96.2(3) . .
N1K Ag6 Ag7 84.9(3) . .
N1L Ag6 Ag5 84.6(3) . .
N1L Ag6 Ag7 97.1(3) . .
N1L Ag6 N1K 176.9(4) . .
Ag8 Ag7 Ag6 129.71(5) . .
N1M Ag7 Ag6 85.8(3) . .
N1M Ag7 Ag8 98.5(3) . .
N1N Ag7 Ag6 96.3(3) . .
N1N Ag7 Ag8 81.1(3) . .
N1N Ag7 N1M 177.5(4) . .
Ag1 Ag8 Ag7 140.57(5) 1_655 .
N1O Ag8 Ag1 80.3(3) . 1_655
N1O Ag8 Ag7 93.2(3) . .
N1O Ag8 N1P 175.3(4) . .
N1P Ag8 Ag1 95.4(3) . 1_655
N1P Ag8 Ag7 88.9(3) . .
C3A C2A N2A 122.3(17) . .
N2B C2B C3B 121.2(16) . .
C3C C2C N2C 121.1(16) . .
C3D C2D N2D 123.9(16) . .
C3E C2E N2E 123.1(17) . .
C3F C2F N2F 124.9(17) . .
N2G C2G C3G 121.2(15) . .
C3H C2H N2H 124.6(18) . .
C3I C2I N2I 122.6(16) . .
C3J C2J N2J 123.9(16) . .
C3K C2K N2K 121.7(16) . .
C3L C2L N2L 120.5(16) . .
C3M C2M N2M 120.5(15) . .
N2N C2N C3N 121.9(16) . .
N2O C2O C3O 121.7(17) . .
C3P C2P N2P 123.5(15) . .
C2A C3A C4A 117.1(16) . .
C2B C3B C4B 121.0(16) . .
C2C C3C C4C 118.7(17) . .
C2D C3D C4D 115.4(15) . .
C2E C3E C4E 118.4(16) . .
C2F C3F C4F 116.9(16) . .
C2G C3G C4G 118.7(15) . .
C2H C3H C4H 119(2) . .
C2I C3I C4I 117.5(16) . .
C2J C3J C4J 118.2(16) . .
C2K C3K C4K 121.0(17) . .
C2L C3L C4L 117.2(16) . .
C2M C3M C4M 119.7(16) . .
C2N C3N C4N 117.4(15) . .
C2O C3O C4O 117.7(16) . .
C2P C3P C4P 116.7(15) . .
N1A C4A C3A 122.0(15) . .
N1A C4A N3A 118.2(14) . .
N3A C4A C3A 119.7(14) . .
N1B C4B C3B 116.7(14) . .
N3B C4B C3B 123.8(16) . .
N3B C4B N1B 119.4(15) . .
N1C C4C C3C 119.8(16) . .
N3C C4C C3C 121.6(17) . .
N3C C4C N1C 118.5(17) . .
N1D C4D C3D 122.1(14) . .
N1D C4D N3D 118.4(14) . .
N3D C4D C3D 119.5(15) . .
N1E C4E C3E 118.2(14) . .
N3E C4E C3E 122.2(16) . .
N3E C4E N1E 119.6(15) . .
N1F C4F C3F 119.7(15) . .
N3F C4F C3F 121.6(15) . .
N3F C4F N1F 118.7(14) . .
N1G C4G C3G 119.7(14) . .
N3G C4G C3G 120.9(14) . .
N3G C4G N1G 119.3(14) . .
N1H C4H C3H 119.4(18) . .
N3H C4H C3H 122.3(18) . .
N3H C4H N1H 118.2(17) . .
N1I C4I C3I 119.9(14) . .
N3I C4I C3I 119.7(14) . .
N3I C4I N1I 120.3(13) . .
N1J C4J C3J 118.4(14) . .
N3J C4J C3J 122.4(15) . .
N3J C4J N1J 119.1(14) . .
N1K C4K C3K 117.7(14) . .
N3K C4K C3K 123.3(15) . .
N3K C4K N1K 118.9(14) . .
N1L C4L C3L 122.7(14) . .
N1L C4L N3L 118.5(14) . .
N3L C4L C3L 118.8(14) . .
N1M C4M C3M 120.5(14) . .
N3M C4M C3M 121.2(14) . .
N3M C4M N1M 118.3(13) . .
N1N C4N C3N 120.7(15) . .
N3N C4N C3N 121.5(14) . .
N3N C4N N1N 117.8(13) . .
N1O C4O C3O 120.0(15) . .
N3O C4O C3O 119.5(15) . .
N3O C4O N1O 120.5(15) . .
N1P C4P C3P 120.6(15) . .
N3P C4P C3P 118.4(14) . .
N3P C4P N1P 121.0(14) . .
N1A C5A N2A 118.2(14) . .
O1A C5A N1A 123.6(15) . .
O1A C5A N2A 118.2(14) . .
N1B C5B N2B 117.2(14) . .
O1B C5B N1B 125.2(15) . .
O1B C5B N2B 117.5(14) . .
N1C C5C N2C 119.0(13) . .
O1C C5C N1C 123.5(14) . .
O1C C5C N2C 117.5(14) . .
N1D C5D N2D 118.7(14) . .
O1D C5D N1D 125.0(15) . .
O1D C5D N2D 116.3(13) . .
N1E C5E N2E 115.9(14) . .
O1E C5E N1E 122.9(15) . .
O1E C5E N2E 121.1(15) . .
N1F C5F N2F 118.9(14) . .
O1F C5F N1F 122.0(14) . .
O1F C5F N2F 119.1(14) . .
N1G C5G N2G 117.5(13) . .
O1G C5G N1G 122.2(14) . .
O1G C5G N2G 120.3(14) . .
N1H C5H N2H 117.2(15) . .
O1H C5H N1H 125.0(15) . .
O1H C5H N2H 117.8(15) . .
N1I C5I N2I 117.8(14) . .
O1I C5I N1I 122.8(15) . .
O1I C5I N2I 119.4(15) . .
N1J C5J N2J 117.7(14) . .
O1J C5J N1J 124.3(14) . .
O1J C5J N2J 117.9(14) . .
N1K C5K N2K 117.9(14) . .
O1K C5K N1K 123.9(14) . .
O1K C5K N2K 118.2(15) . .
N1L C5L N2L 120.7(14) . .
O1L C5L N1L 121.3(14) . .
O1L C5L N2L 118.0(14) . .
N1M C5M N2M 120.0(13) . .
O1M C5M N1M 122.7(14) . .
O1M C5M N2M 117.3(13) . .
N1N C5N N2N 117.5(13) . .
O1N C5N N1N 121.8(14) . .
O1N C5N N2N 120.8(14) . .
N1O C5O N2O 116.9(15) . .
O1O C5O N1O 124.3(13) . .
O1O C5O N2O 118.6(15) . .
N1P C5P N2P 119.9(13) . .
O1P C5P N1P 121.8(14) . .
O1P C5P N2P 118.3(14) . .
F1 B1 F2 109.9(16) . .
F3 B1 F1 109.0(17) . .
F3 B1 F2 108.4(17) . .
F4 B1 F1 111.0(17) . .
F4 B1 F2 108.0(17) . .
F4 B1 F3 110.5(16) . .
F6 B2 F5 105.6(15) . .
F7 B2 F5 109.7(16) . .
F7 B2 F6 110.6(16) . .
F8 B2 F5 108.0(16) . .
F8 B2 F6 111.0(16) . .
F8 B2 F7 111.7(16) . .
F10 B3 F9 102.1(19) . .
F11 B3 F9 109(2) . .
F11 B3 F10 112.6(19) . .
F11 B3 F12 113.2(19) . .
F12 B3 F9 110.7(19) . .
F12 B3 F10 108.4(18) . .
F13 B4 F14 109.8(15) . .
F13 B4 F15 110.5(14) . .
F13 B4 F16 111.5(15) . .
F15 B4 F14 106.8(14) . .
F16 B4 F14 110.0(14) . .
F16 B4 F15 108.1(14) . .
F17 B5 F18 110.2(15) . .
F17 B5 F19 112.0(15) . .
F17 B5 F20 109.2(14) . .
F19 B5 F18 108.8(14) . .
F19 B5 F20 108.6(15) . .
F20 B5 F18 108.0(14) . .
F21 B6 F23 107.4(16) . .
F22 B6 F21 109.1(16) . .
F22 B6 F23 109.0(17) . .
F24 B6 F21 109.6(17) . .
F24 B6 F22 112.0(17) . .
F24 B6 F23 109.7(17) . .
C4A N1A Ag1 127.8(11) . .
C4A N1A C5A 119.7(14) . .
C5A N1A Ag1 112.0(10) . .
C4B N1B Ag1 127.6(10) . .
C5B N1B Ag1 108.6(10) . .
C5B N1B C4B 123.8(13) . .
C4C N1C Ag2 126.6(12) . .
C5C N1C Ag2 111.8(10) . .
C5C N1C C4C 121.5(14) . .
C4D N1D Ag2 127.8(10) . .
C4D N1D C5D 121.1(13) . .
C5D N1D Ag2 111.1(10) . .
C4E N1E Ag3 126.2(10) . .
C4E N1E C5E 123.4(13) . .
C5E N1E Ag3 110.4(10) . .
C4F N1F Ag3 125.7(10) . .
C4F N1F C5F 121.0(13) . .
C5F N1F Ag3 113.2(10) . .
C4G N1G Ag4 127.4(10) . .
C4G N1G C5G 121.4(12) . .
C5G N1G Ag4 111.2(9) . .
C4H N1H Ag4 128.8(12) . .
C4H N1H C5H 121.6(14) . .
C5H N1H Ag4 109.2(10) . .
C4I N1I Ag5 126.6(10) . .
C4I N1I C5I 121.5(13) . .
C5I N1I Ag5 111.4(10) . .
C4J N1J Ag5 125.5(10) . .
C5J N1J Ag5 112.3(10) . .
C5J N1J C4J 122.2(13) . .
C4K N1K Ag6 125.4(10) . .
C5K N1K Ag6 112.3(10) . .
C5K N1K C4K 122.1(13) . .
C4L N1L Ag6 127.4(10) . .
C4L N1L C5L 118.9(13) . .
C5L N1L Ag6 113.3(10) . .
C4M N1M Ag7 126.7(10) . .
C5M N1M Ag7 112.9(10) . .
C5M N1M C4M 120.3(13) . .
C4N N1N Ag7 125.5(10) . .
C4N N1N C5N 120.9(13) . .
C5N N1N Ag7 113.1(9) . .
C4O N1O Ag8 126.4(10) . .
C4O N1O C5O 122.3(13) . .
C5O N1O Ag8 110.7(10) . .
C4P N1P Ag8 124.7(10) . .
C4P N1P C5P 121.4(12) . .
C5P N1P Ag8 113.9(9) . .
C2A N2A C1A 122.4(14) . .
C2A N2A C5A 120.6(14) . .
C5A N2A C1A 116.9(13) . .
C2B N2B C1B 124.3(14) . .
C2B N2B C5B 120.0(14) . .
C5B N2B C1B 115.7(14) . .
C2C N2C C1C 121.8(14) . .
C2C N2C C5C 119.7(13) . .
C5C N2C C1C 118.4(13) . .
C2D N2D C1D 122.2(14) . .
C2D N2D C5D 118.8(13) . .
C5D N2D C1D 119.0(13) . .
C2E N2E C1E 124.5(15) . .
C2E N2E C5E 120.8(15) . .
C5E N2E C1E 114.6(14) . .
C2F N2F C1F 123.7(14) . .
C2F N2F C5F 118.5(14) . .
C5F N2F C1F 117.8(13) . .
C2G N2G C1G 122.6(13) . .
C2G N2G C5G 121.5(14) . .
C5G N2G C1G 115.9(13) . .
C2H N2H C1H 125.2(15) . .
C2H N2H C5H 118.2(15) . .
C5H N2H C1H 116.4(14) . .
C2I N2I C1I 121.6(14) . .
C2I N2I C5I 120.8(15) . .
C5I N2I C1I 117.4(14) . .
C2J N2J C1J 121.8(14) . .
C2J N2J C5J 119.4(14) . .
C5J N2J C1J 118.8(13) . .
C2K N2K C1K 124.1(13) . .
C2K N2K C5K 119.5(14) . .
C5K N2K C1K 116.3(13) . .
C2L N2L C1L 120.5(13) . .
C5L N2L C1L 119.5(13) . .
C5L N2L C2L 119.9(13) . .
C2M N2M C1M 122.3(13) . .
C2M N2M C5M 119.0(12) . .
C5M N2M C1M 118.6(13) . .
C2N N2N C1N 121.9(14) . .
C2N N2N C5N 121.6(14) . .
C5N N2N C1N 116.5(13) . .
C2O N2O C1O 121.8(14) . .
C2O N2O C5O 121.4(15) . .
C5O N2O C1O 116.7(15) . .
C2P N2P C1P 122.4(13) . .
C2P N2P C5P 117.8(13) . .
C5P N2P C1P 119.7(12) . .
loop_
_geom_bond_atom_site_label_1
_geom_bond_atom_site_label_2
_geom_bond_distance
_geom_bond_site_symmetry_2
Ag1 Ag2 2.9786(16) .
Ag1 Ag8 2.9107(16) 1_455
Ag1 N1A 2.158(13) .
Ag1 N1B 2.186(12) .
Ag2 Ag3 2.9433(16) .
Ag2 N1C 2.190(12) .
Ag2 N1D 2.186(12) .
Ag3 Ag4 2.9025(16) .
Ag3 N1E 2.173(12) .
Ag3 N1F 2.157(12) .
Ag4 Ag5 2.9261(17) .
Ag4 N1G 2.175(10) .
Ag4 N1H 2.149(12) .
Ag5 Ag6 2.9467(16) .
Ag5 N1I 2.178(11) .
Ag5 N1J 2.188(12) .
Ag6 Ag7 2.9195(17) .
Ag6 N1K 2.193(12) .
Ag6 N1L 2.184(12) .
Ag7 Ag8 2.9120(17) .
Ag7 N1M 2.185(12) .
Ag7 N1N 2.173(11) .
Ag8 N1O 2.200(11) .
Ag8 N1P 2.206(10) .
F1 B1 1.39(2) .
F2 B1 1.39(2) .
F3 B1 1.38(2) .
F4 B1 1.39(2) .
F5 B2 1.42(2) .
F6 B2 1.42(2) .
F7 B2 1.37(2) .
F8 B2 1.37(2) .
F9 B3 1.36(2) .
F10 B3 1.36(2) .
F11 B3 1.32(3) .
F12 B3 1.36(2) .
F13 B4 1.36(2) .
F14 B4 1.42(2) .
F15 B4 1.41(2) .
F16 B4 1.38(2) .
F17 B5 1.37(2) .
F18 B5 1.42(2) .
F19 B5 1.39(2) .
F20 B5 1.404(19) .
F21 B6 1.40(2) .
F22 B6 1.37(2) .
F23 B6 1.41(2) .
F24 B6 1.36(2) .
C1A N2A 1.47(2) .
C1B N2B 1.46(2) .
C1C N2C 1.47(2) .
C1D N2D 1.47(2) .
C1E N2E 1.51(2) .
C1F N2F 1.45(2) .
C1G N2G 1.464(19) .
C1H N2H 1.46(2) .
C1I N2I 1.51(2) .
C1J N2J 1.485(19) .
C1K N2K 1.47(2) .
C1L N2L 1.475(19) .
C1M N2M 1.468(18) .
C1N N2N 1.461(19) .
C1O N2O 1.48(2) .
C1P N2P 1.441(18) .
C2A C3A 1.31(2) .
C2A N2A 1.339(18) .
C2B C3B 1.34(2) .
C2B N2B 1.329(19) .
C2C C3C 1.35(2) .
C2C N2C 1.349(18) .
C2D C3D 1.34(2) .
C2D N2D 1.349(19) .
C2E C3E 1.32(2) .
C2E N2E 1.34(2) .
C2F C3F 1.33(2) .
C2F N2F 1.348(19) .
C2G C3G 1.34(2) .
C2G N2G 1.333(18) .
C2H C3H 1.30(2) .
C2H N2H 1.35(2) .
C2I C3I 1.32(2) .
C2I N2I 1.335(18) .
C2J C3J 1.29(2) .
C2J N2J 1.352(19) .
C2K C3K 1.31(2) .
C2K N2K 1.351(19) .
C2L C3L 1.33(2) .
C2L N2L 1.383(19) .
C2M C3M 1.313(19) .
C2M N2M 1.387(18) .
C2N C3N 1.36(2) .
C2N N2N 1.334(18) .
C2O C3O 1.35(2) .
C2O N2O 1.33(2) .
C2P C3P 1.329(19) .
C2P N2P 1.371(17) .
C3A C4A 1.43(2) .
C3B C4B 1.41(2) .
C3C C4C 1.40(2) .
C3D C4D 1.42(2) .
C3E C4E 1.44(2) .
C3F C4F 1.43(2) .
C3G C4G 1.420(19) .
C3H C4H 1.42(2) .
C3I C4I 1.44(2) .
C3J C4J 1.43(2) .
C3K C4K 1.42(2) .
C3L C4L 1.43(2) .
C3M C4M 1.39(2) .
C3N C4N 1.41(2) .
C3O C4O 1.41(2) .
C3P C4P 1.439(19) .
C4A N1A 1.318(18) .
C4A N3A 1.367(18) .
C4B N1B 1.360(18) .
C4B N3B 1.286(18) .
C4C N1C 1.34(2) .
C4C N3C 1.33(2) .
C4D N1D 1.326(18) .
C4D N3D 1.330(17) .
C4E N1E 1.337(18) .
C4E N3E 1.285(18) .
C4F N1F 1.360(18) .
C4F N3F 1.321(18) .
C4G N1G 1.336(17) .
C4G N3G 1.330(18) .
C4H N1H 1.35(2) .
C4H N3H 1.29(2) .
C4I N1I 1.319(16) .
C4I N3I 1.312(18) .
C4J N1J 1.361(18) .
C4J N3J 1.320(17) .
C4K N1K 1.362(17) .
C4K N3K 1.290(17) .
C4L N1L 1.317(17) .
C4L N3L 1.330(17) .
C4M N1M 1.354(17) .
C4M N3M 1.333(17) .
C4N N1N 1.355(17) .
C4N N3N 1.321(18) .
C4O N1O 1.342(18) .
C4O N3O 1.294(18) .
C4P N1P 1.322(17) .
C4P N3P 1.323(18) .
C5A N1A 1.359(18) .
C5A N2A 1.403(18) .
C5A O1A 1.238(17) .
C5B N1B 1.332(18) .
C5B N2B 1.432(18) .
C5B O1B 1.246(17) .
C5C N1C 1.338(18) .
C5C N2C 1.392(18) .
C5C O1C 1.245(16) .
C5D N1D 1.340(18) .
C5D N2D 1.407(18) .
C5D O1D 1.249(16) .
C5E N1E 1.381(19) .
C5E N2E 1.40(2) .
C5E O1E 1.224(18) .
C5F N1F 1.371(18) .
C5F N2F 1.396(18) .
C5F O1F 1.230(16) .
C5G N1G 1.373(18) .
C5G N2G 1.396(18) .
C5G O1G 1.235(17) .
C5H N1H 1.376(19) .
C5H N2H 1.443(19) .
C5H O1H 1.202(17) .
C5I N1I 1.370(19) .
C5I N2I 1.381(19) .
C5I O1I 1.242(17) .
C5J N1J 1.346(18) .
C5J N2J 1.401(18) .
C5J O1J 1.236(17) .
C5K N1K 1.36(2) .
C5K N2K 1.433(18) .
C5K O1K 1.221(17) .
C5L N1L 1.354(18) .
C5L N2L 1.373(17) .
C5L O1L 1.252(16) .
C5M N1M 1.328(17) .
C5M N2M 1.395(18) .
C5M O1M 1.256(16) .
C5N N1N 1.375(18) .
C5N N2N 1.392(18) .
C5N O1N 1.210(15) .
C5O N1O 1.349(18) .
C5O N2O 1.405(17) .
C5O O1O 1.226(18) .
C5P N1P 1.349(18) .
C5P N2P 1.396(17) .
C5P O1P 1.248(16) .
loop_
_smtbx_masks_void_nr
_smtbx_masks_void_average_x
_smtbx_masks_void_average_y
_smtbx_masks_void_average_z
_smtbx_masks_void_volume
_smtbx_masks_void_count_electrons
1 0.074 -0.008 0.132 188.3 85.4
2 -0.074 0.492 0.368 188.3 86.5
3 0.098 0.461 0.817 39.5 16.9
4 0.168 0.178 0.739 10.2 0.0
5 0.230 0.755 0.506 21.8 1.4
6 0.270 0.245 0.006 21.8 1.4
7 0.426 0.008 0.632 188.3 85.7
8 0.332 0.822 0.239 10.2 0.0
9 0.402 0.539 0.317 39.5 16.8
10 0.574 0.508 0.868 188.3 86.2
11 0.598 0.039 0.183 39.5 16.7
12 0.668 0.322 0.261 10.2 0.0
13 0.730 0.745 0.494 21.8 1.4
14 0.770 0.255 -0.006 21.8 1.4
15 0.832 0.678 0.761 10.2 0.0
16 0.902 0.961 0.683 39.5 16.5
