#------------------------------------------------------------------------------
#$Date: 2018-10-31 01:27:16 +0200 (Wed, 31 Oct 2018) $
#$Revision: 211710 $
#$URL: file:///home/coder/svn-repositories/cod/cif/1/55/01/1550156.cif $
#------------------------------------------------------------------------------
#
# This file is available in the Crystallography Open Database (COD),
# http://www.crystallography.net/
#
# All data on this site have been placed in the public domain by the
# contributors.
#
data_1550156
loop_
_publ_author_name
'Lu, Xing'
'Shen, Wangqiang'
'Bao, Lipiao'
'Hu, Shuaifeng'
'Yang, Le'
'Jin, Peng'
'Xie, Yun-Peng'
'Akasaka, Takeshi'
_publ_section_title
;
 Crystallographic Characterization of Lu2C2n (2n = 76-90): Cluster
 Selection by Cage Size
;
_journal_name_full               'Chemical Science'
_journal_paper_doi               10.1039/C8SC03886D
_journal_year                    2019
_chemical_formula_moiety         'Lu2 C84, C36 H44 N4 Ni, C6 H6 '
_chemical_formula_sum            'C126 H50 Lu2 N4 Ni'
_chemical_formula_weight         2028.35
_chemical_name_common            'Lu2@C2v-C84 Ni(OEP)'
_chemical_name_systematic        'Lu2@C2v-C84 Ni(OEP)'
_space_group_crystal_system      monoclinic
_space_group_IT_number           12
_space_group_name_Hall           '-C 2y'
_space_group_name_H-M_alt        'C 1 2/m 1'
_symmetry_space_group_name_Hall  '-C 2y'
_symmetry_space_group_name_H-M   'C 1 2/m 1'
_atom_sites_solution_hydrogens   geom
_audit_creation_method           SHELXL-2014/7
_audit_update_record
;
2017-10-26 deposited with the CCDC.
2018-10-29 downloaded from the CCDC.
;
_cell_angle_alpha                90.000(5)
_cell_angle_beta                 94.510(5)
_cell_angle_gamma                90.000(5)
_cell_formula_units_Z            4
_cell_length_a                   25.410(5)
_cell_length_b                   15.110(5)
_cell_length_c                   19.917(5)
_cell_measurement_reflns_used    9835
_cell_measurement_temperature    100(2)
_cell_measurement_theta_max      23.133
_cell_measurement_theta_min      2.325
_cell_volume                     7623(4)
_computing_structure_refinement  'SHELXL-2014/7 (Sheldrick, 2014)'
_diffrn_ambient_temperature      100(2)
_diffrn_measured_fraction_theta_full 0.974
_diffrn_measured_fraction_theta_max 0.974
_diffrn_measurement_device_type  'CCD MX300-HE'
_diffrn_measurement_method       'phi scans'
_diffrn_radiation_type           synchrotron
_diffrn_radiation_wavelength     0.6525
_diffrn_reflns_av_R_equivalents  0.0504
_diffrn_reflns_av_unetI/netI     0.0303
_diffrn_reflns_Laue_measured_fraction_full 0.974
_diffrn_reflns_Laue_measured_fraction_max 0.974
_diffrn_reflns_limit_h_max       29
_diffrn_reflns_limit_h_min       -29
_diffrn_reflns_limit_k_max       18
_diffrn_reflns_limit_k_min       -18
_diffrn_reflns_limit_l_max       23
_diffrn_reflns_limit_l_min       -23
_diffrn_reflns_number            51276
_diffrn_reflns_point_group_measured_fraction_full 0.974
_diffrn_reflns_point_group_measured_fraction_max 0.974
_diffrn_reflns_theta_full        23.048
_diffrn_reflns_theta_max         23.133
_diffrn_reflns_theta_min         1.687
_diffrn_source                   'SSRF, Beamline BL17B'
_exptl_absorpt_coefficient_mu    2.339
_exptl_absorpt_correction_T_max  0.7449
_exptl_absorpt_correction_T_min  0.5218
_exptl_absorpt_correction_type   multi-scan
_exptl_crystal_colour            Black
_exptl_crystal_density_diffrn    1.767
_exptl_crystal_description       Block
_exptl_crystal_F_000             4016
_exptl_crystal_size_max          0.120
_exptl_crystal_size_mid          0.080
_exptl_crystal_size_min          0.070
_refine_diff_density_max         1.015
_refine_diff_density_min         -1.434
_refine_diff_density_rms         0.118
_refine_ls_extinction_method     none
_refine_ls_goodness_of_fit_ref   1.068
_refine_ls_hydrogen_treatment    constr
_refine_ls_matrix_type           full
_refine_ls_number_parameters     866
_refine_ls_number_reflns         7072
_refine_ls_number_restraints     864
_refine_ls_restrained_S_all      1.131
_refine_ls_R_factor_all          0.0890
_refine_ls_R_factor_gt           0.0818
_refine_ls_shift/su_max          0.000
_refine_ls_shift/su_mean         0.000
_refine_ls_structure_factor_coef Fsqd
_refine_ls_weighting_details
'w=1/[\s^2^(Fo^2^)+(0.1486P)^2^+43.3856P] where P=(Fo^2^+2Fc^2^)/3'
_refine_ls_weighting_scheme      calc
_refine_ls_wR_factor_gt          0.2353
_refine_ls_wR_factor_ref         0.2438
_reflns_Friedel_coverage         0.000
_reflns_number_gt                6280
_reflns_number_total             7072
_reflns_threshold_expression     'I > 2\s(I)'
_cod_data_source_file            c8sc03886d2.cif
_cod_data_source_block           Lu2@C2v-C84
_cod_depositor_comments
;
The following automatic conversions were performed:

'_exptl_absorpt_correction_type' value 'Multi-scan' changed to
'multi-scan' according to
/home/data/users/saulius/crontab/automatic-downloads/rss-feeds/RSC/lib/dictionaries/cif_core.dic
dictionary named 'cif_core.dic' version 2.4.2 from 2011-04-26.

Automatic conversion script
Id: cif_fix_values 4973 2017-02-22 13:04:09Z antanas 
;
_cod_database_code               1550156
_shelx_shelxl_version_number     2014/7
_shelx_space_group_comment
;
The symmetry employed for this shelxl refinement is uniquely defined
by the following loop, which should always be used as a source of
symmetry information in preference to the above space-group names.
They are only intended as comments.
;
_shelx_estimated_absorpt_t_min   0.799
_shelx_estimated_absorpt_t_max   0.849
_shelx_res_file
;

    11_sq.res created by SHELXL-2014/7


TITL                                      11 in C2/m
CELL   0.65250     25.410   15.110   19.917   90.000   94.510   90.000
ZERR         4      0.005    0.005    0.005    0.005    0.005    0.005
LATT  7
SYMM -X,Y,-Z
SFAC    C   H   N   NI  LU
DISP $C  0.00267  0.00139 9.80188!source kissel
DISP $H -0.00002  0.00000 0.620402!source kissel
DISP $N  0.00529  0.00282 16.2901!source kissel
DISP $Ni  0.34362  0.96224 3663.38!source kissel
DISP $Lu -0.29216  5.14255 19794.9!source kissel
UNIT 504 200 16 4 8
LIST 6 ! automatically inserted. Change 6 to 4 for CHECKCIF!!
MERG      2
SIMU 0.020 C1 > C84
SIMU 0.020 LU6 > LU15
ACTA
L.S.      10
FMAP      2
PLAN     10
ABIN
WGHT    0.148600   43.385601
FVAR       0.09408
PART 1
LU1   5    0.266037    0.043053    0.146496    10.15166    0.04600    0.05460 =
         0.09768    0.01192    0.04618   -0.00052
LU2   5    0.189470    0.040851    0.274497    10.15078    0.06392    0.07703 =
         0.04112   -0.02709    0.02335   -0.01494
LU3   5    0.159488    0.088428    0.229957    10.13527    0.06574    0.04891 =
         0.04237   -0.00704    0.02036   -0.00559
LU4   5    0.147424    0.116454    0.196222    10.11173    0.04950    0.04928 =
         0.11346    0.02245    0.00507    0.00678
LU5   5    0.171795    0.110329    0.144834    10.07867    0.06205    0.02981 =
         0.04531    0.01118    0.01126    0.01503
LU6   5    0.199643    0.111377    0.133255    10.07752    0.11635    0.06494 =
         0.05593    0.03389    0.01317   -0.00645
LU7   5    0.190572    0.000000    0.085155    10.03320    0.05891    0.08055 =
         0.02242    0.00000    0.00446    0.00000
LU8   5    0.131122    0.055671    0.192771    10.06314    0.05815    0.08503 =
         0.09051   -0.00007    0.02196    0.03567
LU9   5    0.252585    0.044614    0.125908    10.05636    0.05006    0.07463 =
         0.01201   -0.00403    0.00324   -0.02906
LU10  5    0.237599    0.000000    0.105109    10.01814    0.09296    0.10073 =
         0.05692    0.00000    0.04449    0.00000
LU11  5    0.200360    0.133687    0.186880    10.03250    0.18736    0.06246 =
         0.11730   -0.00574    0.00240   -0.01078
LU12  5    0.171232    0.116161    0.243808    10.03117    0.15946    0.06935 =
         0.10256    0.00328    0.02259   -0.04134
LU13  5    0.210165   -0.058846    0.103784    10.02923    0.12429    0.09835 =
         0.04782   -0.01603    0.00682    0.00589
LU14  5    0.252980    0.084766    0.167819    10.02282    0.10984    0.10097 =
         0.08639    0.00389    0.03540   -0.02709
LU15  5    0.275094    0.000000    0.207811    10.00781    0.08408    0.12431 =
         0.06256    0.00000    0.01422    0.00000
PART -1 10.5
AFIX   6
C1    1    0.102007    0.015115    0.330165    10.50000    0.07468    0.19843 =
         0.09840    0.04789    0.05805    0.05378
C2    1    0.138832   -0.047681    0.361379    10.50000    0.08726    0.12980 =
         0.08392    0.01585    0.04357    0.01149
C3    1    0.143501   -0.148040    0.336187    10.50000    0.09676    0.10981 =
         0.10354    0.05681    0.03416    0.00643
C4    1    0.108372   -0.177025    0.287242    10.50000    0.09766    0.12928 =
         0.14592    0.06296    0.04311   -0.00174
C5    1    0.075491   -0.107218    0.269310    10.50000    0.07361    0.16841 =
         0.18545    0.08356    0.07882    0.00479
C6    1    0.050413   -0.104920    0.209287    10.50000    0.06129    0.16909 =
         0.17940    0.03232    0.03447   -0.00445
C7    1    0.036721   -0.022871    0.187658    10.50000    0.03645    0.15013 =
         0.17149    0.00838    0.03020    0.00328
C8    1    0.052755    0.035839    0.236370    10.50000    0.08238    0.17956 =
         0.17796    0.08151    0.06066    0.05116
C9    1    0.070060   -0.023618    0.286123    10.50000    0.10785    0.20952 =
         0.17748    0.06836    0.08275    0.02978
C10   1    0.119255    0.096830    0.338319    10.50000    0.09585    0.16573 =
         0.07706    0.00392    0.04179    0.04002
C11   1    0.166199    0.088915    0.374687    10.50000    0.07591    0.08413 =
         0.03409   -0.02629    0.01297    0.00754
C12   1    0.178414    0.004027    0.388059    10.50000    0.09391    0.11821 =
         0.05475   -0.01082    0.03449    0.00555
C13   1    0.230304   -0.029902    0.394583    10.50000    0.11076    0.10815 =
         0.04833   -0.00149   -0.00086    0.01682
C14   1    0.240970   -0.114412    0.378469    10.50000    0.11933    0.08288 =
         0.05578    0.01511    0.01122    0.01832
C15   1    0.194538   -0.159410    0.351511    10.50000    0.11712    0.11088 =
         0.10271    0.06727   -0.00352   -0.00287
C16   1    0.210960   -0.225499    0.305982    10.50000    0.12254    0.09949 =
         0.11153    0.07098   -0.01135    0.00301
C17   1    0.172802   -0.266810    0.236161    10.50000    0.10892    0.06197 =
         0.11783    0.03633   -0.00111   -0.00052
C18   1    0.113832   -0.230354    0.235720    10.50000    0.10658    0.09094 =
         0.12575    0.02460    0.02051   -0.01480
C19   1    0.095740   -0.219682    0.174542    10.50000    0.09514    0.10578 =
         0.14489   -0.02214   -0.00697   -0.01366
C20   1    0.057396   -0.167092    0.168635    10.50000    0.05651    0.11758 =
         0.17771   -0.02957    0.00578   -0.01834
C21   1    0.057850   -0.135328    0.098990    10.50000    0.07987    0.12910 =
         0.12674   -0.06668   -0.01815   -0.01768
C22   1    0.046446   -0.042145    0.078745    10.50000    0.06994    0.14329 =
         0.12369   -0.06412   -0.04464    0.00490
C23   1    0.035226    0.022444    0.127517    10.50000    0.03955    0.11980 =
         0.15117   -0.06213   -0.01804    0.01337
C24   1    0.047546    0.093406    0.117371    10.50000    0.04636    0.08317 =
         0.15344    0.02078   -0.02760    0.02821
C25   1    0.066666    0.158865    0.174292    10.50000    0.04417    0.10192 =
         0.16432    0.05198    0.01043    0.04497
C26   1    0.064230    0.122183    0.235553    10.50000    0.06157    0.16225 =
         0.11676    0.03877    0.00305    0.06458
C27   1    0.101502    0.148012    0.286205    10.50000    0.09444    0.16122 =
         0.10859    0.00233   -0.00520    0.05617
C28   1    0.130749    0.209959    0.286888    10.50000    0.08819    0.07116 =
         0.08495   -0.02611   -0.01882    0.03204
C29   1    0.181575    0.218977    0.313091    10.50000    0.07110    0.06929 =
         0.07801   -0.03665    0.00855   -0.00256
C30   1    0.206800    0.161964    0.363425    10.50000    0.08705    0.07959 =
         0.06457   -0.04340    0.00266   -0.01569
C31   1    0.253305    0.132052    0.368239    10.50000    0.07168    0.07536 =
         0.05391   -0.02158    0.01739   -0.02574
C32   1    0.269974    0.038820    0.390140    10.50000    0.07848    0.12763 =
         0.05080   -0.02077   -0.04178    0.02283
C33   1    0.320697    0.023882    0.356422    10.50000    0.09144    0.12512 =
         0.08658   -0.03064   -0.06899    0.03114
C34   1    0.326104   -0.076862    0.338706    10.50000    0.07996    0.15756 =
         0.07738   -0.00265   -0.03954    0.05787
C35   1    0.286762   -0.140778    0.347420    10.50000    0.12247    0.11011 =
         0.06437    0.02735   -0.02398    0.03431
C36   1    0.265746   -0.208554    0.301092    10.50000    0.16041    0.12074 =
         0.12986    0.05286   -0.01571    0.03790
C37   1    0.294097   -0.218525    0.253205    10.50000    0.13868    0.09730 =
         0.17417    0.06035   -0.00406    0.05142
C38   1    0.258606   -0.252114    0.194106    10.50000    0.08595    0.04080 =
         0.11535    0.01197   -0.02502    0.03681
C39   1    0.203271   -0.270912    0.175050    10.50000    0.09924    0.03173 =
         0.07395   -0.00056   -0.00998    0.01557
C40   1    0.178116   -0.245315    0.106299    10.50000    0.09296    0.05352 =
         0.06870   -0.02460   -0.01256    0.03190
C41   1    0.123127   -0.224229    0.104134    10.50000    0.09659    0.08072 =
         0.07342   -0.03254   -0.01578    0.00317
C42   1    0.095186   -0.173491    0.065999    10.50000    0.11170    0.10126 =
         0.07679   -0.03603   -0.03192   -0.00375
C43   1    0.111958   -0.129217    0.018556    10.50000    0.15825    0.10533 =
         0.04468   -0.01983   -0.04348   -0.00052
C44   1    0.107050   -0.035076    0.001247    10.50000    0.15459    0.11557 =
         0.05848   -0.01134   -0.05296    0.01382
C45   1    0.072238    0.011883    0.028956    10.50000    0.11737    0.10808 =
         0.10883   -0.02682   -0.07582    0.01468
C46   1    0.072382    0.088714    0.051283    10.50000    0.08990    0.07211 =
         0.13451    0.00457   -0.07634    0.00278
C47   1    0.116800    0.147862    0.039733    10.50000    0.12492    0.09460 =
         0.09499    0.03086   -0.07307   -0.00825
C48   1    0.130283    0.228973    0.090375    10.50000    0.13542    0.08288 =
         0.11866    0.04692   -0.01460    0.01335
C49   1    0.106047    0.230960    0.154513    10.50000    0.11093    0.10418 =
         0.13342    0.03414    0.01544    0.05201
C50   1    0.133514    0.253585    0.213202    10.50000    0.10720    0.05589 =
         0.12514   -0.02347   -0.02410    0.04039
C51   1    0.189141    0.274079    0.206540    10.50000    0.13189    0.03055 =
         0.11481   -0.00515    0.00632    0.00591
C52   1    0.215620    0.250549    0.275804    10.50000    0.07994    0.02432 =
         0.08234   -0.01639   -0.01411   -0.00890
C53   1    0.263970    0.233957    0.270539    10.50000    0.05194    0.03272 =
         0.05580   -0.02726    0.01339   -0.02812
C54   1    0.293100    0.171260    0.319102    10.50000    0.05520    0.08680 =
         0.11863   -0.05844   -0.04892   -0.01014
C55   1    0.333393    0.101897    0.310826    10.50000    0.07268    0.13459 =
         0.12162   -0.02810   -0.03568   -0.04156
C56   1    0.347786    0.106977    0.249775    10.50000    0.07007    0.12877 =
         0.12907   -0.00966   -0.00466   -0.05998
C57   1    0.364894    0.015075    0.243395    10.50000    0.02355    0.11047 =
         0.15516    0.02165    0.00172   -0.01415
C58   1    0.353486   -0.074159    0.276524    10.50000    0.03688    0.13149 =
         0.09142    0.03933    0.00303    0.02522
C59   1    0.337214   -0.156891    0.239136    10.50000    0.05655    0.06780 =
         0.14918    0.03639    0.00040    0.02563
C60   1    0.332636   -0.153053    0.162304    10.50000    0.07262    0.08056 =
         0.18244   -0.03182    0.00898    0.03529
C61   1    0.290349   -0.216769    0.137528    10.50000    0.07982    0.09005 =
         0.16483   -0.02892    0.01174    0.05138
C62   1    0.266928   -0.180034    0.072669    10.50000    0.10042    0.14376 =
         0.12380   -0.09446    0.02144    0.03015
C63   1    0.207294   -0.207483    0.059460    10.50000    0.13691    0.11128 =
         0.08365   -0.05522    0.04899    0.01393
C64   1    0.180544   -0.153068    0.016268    10.50000    0.16069    0.10694 =
         0.01816   -0.02217    0.02329   -0.01092
C65   1    0.188954   -0.067006   -0.015979    10.50000    0.16364    0.17148 =
         0.02938   -0.01559    0.00251   -0.01515
C66   1    0.152578    0.016936   -0.016453    10.50000    0.18217    0.12832 =
         0.03432    0.01200   -0.02859    0.00150
C67   1    0.158200    0.117794    0.003538    10.50000    0.15218    0.10584 =
         0.03004    0.01755   -0.03963    0.00057
C68   1    0.217962    0.113701    0.008045    10.50000    0.18832    0.13478 =
         0.04603    0.03494    0.00230   -0.06719
C69   1    0.231172    0.184728    0.051041    10.50000    0.20773    0.12900 =
         0.10709    0.03916    0.02264   -0.07966
C70   1    0.192070    0.238501    0.081180    10.50000    0.17477    0.07082 =
         0.11334    0.04902    0.04261   -0.01796
C71   1    0.216208    0.265371    0.147364    10.50000    0.16008    0.04735 =
         0.11890    0.01040    0.01724   -0.03023
C72   1    0.269712    0.235145    0.152673    10.50000    0.17392    0.07590 =
         0.08165   -0.01271    0.06047   -0.09031
C73   1    0.296803    0.214997    0.211858    10.50000    0.12858    0.09000 =
         0.09500   -0.01961    0.01821   -0.06194
C74   1    0.335916    0.154601    0.198897    10.50000    0.10469    0.09479 =
         0.11379   -0.04754    0.05080   -0.07053
C75   1    0.347105    0.096488    0.146635    10.50000    0.10827    0.13728 =
         0.15999   -0.04283    0.07801   -0.06484
C76   1    0.362843    0.006707    0.166447    10.50000    0.05496    0.11069 =
         0.16386   -0.01977    0.04545   -0.02404
C77   1    0.348683   -0.071883    0.126718    10.50000    0.07648    0.14189 =
         0.15164   -0.04692    0.05981    0.00623
C78   1    0.317400   -0.059652    0.066479    10.50000    0.15538    0.21200 =
         0.10969   -0.03308    0.10647   -0.00647
C79   1    0.270986   -0.107966    0.030356    10.50000    0.14587    0.19664 =
         0.08762   -0.07152    0.06726    0.01218
C80   1    0.237331   -0.037139   -0.004119    10.50000    0.16144    0.22131 =
         0.04560   -0.03424    0.04196   -0.04971
C81   1    0.261880    0.050936    0.009687    10.50000    0.17473    0.20650 =
         0.07086   -0.02011    0.06303   -0.07416
C82   1    0.314013    0.032353    0.045694    10.50000    0.17271    0.20427 =
         0.10237   -0.05702    0.11212   -0.04315
C83   1    0.315490    0.113533    0.085380    10.50000    0.17301    0.16306 =
         0.14568   -0.01333    0.08323   -0.08855
C84   1    0.280941    0.189647    0.092340    10.50000    0.18619    0.11409 =
         0.09025   -0.01936    0.05681   -0.11355
AFIX   0
PART 0
PART 2
NI1A  4    0.019079    0.000000    0.418678    10.50000    0.01718    0.01670 =
         0.02057    0.00000   -0.00385    0.00000
C1A   1   -0.089894    0.146466    0.157228    11.00000    0.04318    0.04342 =
         0.02919    0.00757   -0.00872    0.00320
AFIX 137
H1AA  2   -0.074947    0.099607    0.132307    11.00000   -1.50000
H1AB  2   -0.062054    0.180111    0.180466    11.00000   -1.50000
H1AC  2   -0.110547    0.184435    0.126810    11.00000   -1.50000
AFIX   0
N2A   3    0.020306    0.129878    0.417137    11.00000    0.01900    0.01996 =
         0.02407    0.00069   -0.00454   -0.00079
C2A   1   -0.125196    0.106987    0.208429    11.00000    0.03152    0.03572 =
         0.03309    0.00328   -0.01198    0.00274
AFIX  23
H2AA  2   -0.139971    0.154639    0.233627    11.00000   -1.20000
H2AB  2   -0.154250    0.075648    0.184512    11.00000   -1.20000
AFIX   0
N3A   3    0.076319    0.000000    0.490400    10.50000    0.01836    0.01787 =
         0.02466    0.00000   -0.00071    0.00000
C4A   1   -0.059158    0.072183    0.311608    11.00000    0.01866    0.02611 =
         0.02286    0.00234   -0.00263    0.00194
C5A   1   -0.048088    0.158656    0.326765    11.00000    0.02351    0.02663 =
         0.02667    0.00573   -0.00507    0.00446
AFIX  43
H5A   2   -0.067391    0.201906    0.302446    11.00000   -1.20000
AFIX   0
C6A   1   -0.010366    0.186081    0.375504    11.00000    0.02154    0.02151 =
         0.03083    0.00288   -0.00216    0.00168
C7A   1    0.003309    0.277363    0.388541    11.00000    0.02632    0.02218 =
         0.04037    0.00305   -0.00458   -0.00059
C8A   1   -0.020973    0.353872    0.349889    11.00000    0.03885    0.02114 =
         0.05992    0.00686   -0.01499   -0.00186
AFIX  23
H8AA  2   -0.014678    0.407568    0.375984    11.00000   -1.20000
H8AB  2   -0.058843    0.345041    0.343427    11.00000   -1.20000
AFIX   0
C9A   1    0.001179    0.365516    0.280945    11.00000    0.05285    0.04121 =
         0.06990    0.02994   -0.00819   -0.00470
AFIX 137
H9AA  2   -0.006780    0.313937    0.253887    11.00000   -1.50000
H9AB  2    0.038749    0.373314    0.286970    11.00000   -1.50000
H9AC  2   -0.014573    0.416583    0.258848    11.00000   -1.50000
AFIX   0
C10A  1    0.042637    0.277005    0.439411    11.00000    0.02628    0.02064 =
         0.03918   -0.00046   -0.00263   -0.00108
C11A  1    0.072710    0.353853    0.471385    11.00000    0.03101    0.02103 =
         0.05934   -0.00068   -0.00898   -0.00330
AFIX  23
H11A  2    0.077350    0.344432    0.519662    11.00000   -1.20000
H11B  2    0.052055    0.407363    0.463497    11.00000   -1.20000
AFIX   0
C12A  1    0.126385    0.366966    0.444671    11.00000    0.03806    0.03315 =
         0.07307    0.00301   -0.00408   -0.01586
AFIX 137
H12A  2    0.121994    0.380816    0.397522    11.00000   -1.50000
H12B  2    0.146722    0.313668    0.451103    11.00000   -1.50000
H12C  2    0.144441    0.414722    0.468466    11.00000   -1.50000
AFIX   0
C13A  1    0.052677    0.185894    0.456523    11.00000    0.02022    0.02120 =
         0.03083   -0.00090   -0.00115   -0.00222
C14A  1    0.090602    0.158458    0.505026    11.00000    0.02176    0.02520 =
         0.02524   -0.00362   -0.00161   -0.00496
AFIX  43
H14A  2    0.109672    0.201724    0.529624    11.00000   -1.20000
AFIX   0
C15A  1    0.102220    0.071866    0.519597    11.00000    0.01982    0.02527 =
         0.02217   -0.00281   -0.00244   -0.00301
C16A  1    0.144600    0.044690    0.567683    11.00000    0.01688    0.03043 =
         0.02325   -0.00070   -0.00317   -0.00137
C17A  1    0.182635    0.106958    0.604818    11.00000    0.02251    0.03743 =
         0.02768   -0.00401   -0.00604   -0.00306
AFIX  23
H17A  2    0.198215    0.077955    0.645048    11.00000   -1.20000
H17B  2    0.163599    0.158596    0.618754    11.00000   -1.20000
AFIX   0
C18A  1    0.226379    0.136380    0.561712    11.00000    0.02794    0.05254 =
         0.04615   -0.01020   -0.00167   -0.01628
AFIX 137
H18A  2    0.245541    0.085497    0.548169    11.00000   -1.50000
H18B  2    0.249979    0.175526    0.587325    11.00000   -1.50000
H18C  2    0.211187    0.166659    0.522476    11.00000   -1.50000
AFIX   0
C3A   1   -0.096023    0.044506    0.256797    11.00000    0.02121    0.03211 =
         0.02653    0.00232   -0.00475    0.00005
N1A   3   -0.035926    0.000000    0.344587    10.50000    0.02199    0.02291 =
         0.02390    0.00000   -0.00251    0.00000
PART 0
PART 3
C1B   1    0.125903    0.500000    0.195867    10.50000    0.05545    0.11311 =
         0.07421    0.00000   -0.02193    0.00000
AFIX  43
H1B   2    0.090088    0.500000    0.182009    10.50000   -1.20000
AFIX   0
C2B   1    0.141209    0.500000    0.262898    10.50000    0.04690    0.05250 =
         0.05601    0.00000    0.00676    0.00000
AFIX  43
H2B   2    0.116061    0.500000    0.294394    10.50000   -1.20000
AFIX   0
C3B   1    0.193357    0.500000    0.283466    10.50000    0.05199    0.04324 =
         0.03581    0.00000   -0.00297    0.00000
AFIX  43
H3B   2    0.204070    0.500000    0.329202    10.50000   -1.20000
AFIX   0
C4B   1    0.230855    0.500000    0.236176    10.50000    0.04802    0.04472 =
         0.03818    0.00000    0.00237    0.00000
AFIX  43
H4B   2    0.266527    0.500000    0.250796    10.50000   -1.20000
AFIX   0
C5B   1    0.216330    0.500000    0.168966    10.50000    0.07499    0.04354 =
         0.03069    0.00000    0.00658    0.00000
AFIX  43
H5B   2    0.241763    0.500000    0.137842    10.50000   -1.20000
AFIX   0
C6B   1    0.162783    0.500000    0.147388    10.50000    0.08066    0.09842 =
         0.04476    0.00000   -0.02267    0.00000
AFIX  43
H6B   2    0.151847    0.500000    0.101717    10.50000   -1.20000
PART 0
AFIX   0
HKLF      4

REM                                       11 in C2/m
REM R1 =  0.0818 for    6280 Fo > 4sig(Fo)  and  0.0890 for all    7072 data
REM    866 parameters refined using    864 restraints

END

WGHT      0.1497     43.3085

REM Highest difference peak  1.015,  deepest hole -1.434,  1-sigma level  0.118
Q1    1   0.3091  0.1824  0.2907  11.00000  0.05    1.01
Q2    1   0.0930  0.0426  0.3109  11.00000  0.05    0.99
Q3    1   0.2197  0.0883  0.2668  11.00000  0.05    0.82
Q4    1   0.1992  0.0000 -0.0195  10.50000  0.05    0.77
Q5    1   0.2655 -0.1475  0.0495  11.00000  0.05    0.76
Q6    1   0.3209  0.0000  0.0576  10.50000  0.05    0.72
Q7    1   0.1453  0.2665  0.1745  11.00000  0.05    0.71
Q8    1   0.3492  0.0000  0.3185  10.50000  0.05    0.69
Q9    1   0.2972 -0.2141  0.1634  11.00000  0.05    0.63
Q10   1   0.2388  0.1166  0.2027  11.00000  0.05    0.63
;
_shelx_res_checksum              85534
_shelx_fab_file
;
    6    0    0      9.20      0.00
    8    0    0     -6.29      0.00
   10    0    0    -14.04      0.00
   12    0    0    -15.19      0.00
   14    0    0    -11.48      0.00
    3    1    0    -27.99      0.00
    7    1    0      2.18      0.00
    9    1    0      9.49      0.00
   11    1    0     11.69      0.00
   13    1    0      9.58      0.00
   15    1    0      5.84      0.00
   17    1    0      3.55      0.00
   19    1    0      2.86      0.00
    2    2    0     -7.70      0.00
    4    2    0     -8.07      0.00
    6    2    0     -7.14      0.00
    8    2    0     -5.21      0.00
   10    2    0     -2.99      0.00
   12    2    0     -0.62      0.00
   14    2    0      1.23      0.00
   16    2    0      1.43      0.00
   18    2    0      0.37      0.00
   20    2    0     -0.21      0.00
   22    2    0      0.18      0.00
   24    2    0      0.36      0.00
    1    3    0     36.59      0.00
    5    3    0     17.93      0.00
    7    3    0      5.40      0.00
    9    3    0     -4.28      0.00
   11    3    0     -9.21      0.00
   13    3    0     -9.73      0.00
   15    3    0     -7.59      0.00
   17    3    0     -4.72      0.00
   19    3    0     -2.56      0.00
   21    3    0     -1.60      0.00
   23    3    0     -1.31      0.00
   25    3    0     -0.84      0.00
   27    3    0     -0.18      0.00
    0    4    0    -30.92      0.00
    2    4    0    -27.50      0.00
    4    4    0    -18.07      0.00
    6    4    0     -5.29      0.00
    8    4    0      6.43      0.00
   10    4    0     12.84      0.00
   12    4    0     12.87      0.00
   14    4    0      9.32      0.00
   16    4    0      5.80      0.00
   18    4    0      3.64      0.00
   20    4    0      2.36      0.00
   22    4    0      1.53      0.00
   24    4    0      1.03      0.00
   26    4    0      0.63      0.00
   28    4    0      0.26      0.00
    1    5    0      5.92      0.00
    5    5    0     -1.31      0.00
    7    5    0     -6.23      0.00
    9    5    0     -8.98      0.00
   11    5    0     -8.07      0.00
   13    5    0     -4.74      0.00
   15    5    0     -1.79      0.00
   17    5    0     -0.67      0.00
   19    5    0     -0.72      0.00
   21    5    0     -0.87      0.00
   23    5    0     -0.70      0.00
   25    5    0     -0.28      0.00
   27    5    0      0.09      0.00
   29    5    0      0.08      0.00
    0    6    0     11.87      0.00
    2    6    0     11.32      0.00
    4    6    0      9.56      0.00
    6    6    0      6.64      0.00
    8    6    0      3.17      0.00
   10    6    0     -0.06      0.00
   12    6    0     -2.46      0.00
   14    6    0     -3.67      0.00
   16    6    0     -3.63      0.00
   18    6    0     -2.64      0.00
   20    6    0     -1.26      0.00
   22    6    0     -0.18      0.00
   24    6    0     -0.01      0.00
   26    6    0     -0.50      0.00
   28    6    0     -0.62      0.00
    1    7    0    -14.98      0.00
    3    7    0    -11.73      0.00
    5    7    0     -6.19      0.00
    7    7    0     -0.14      0.00
    9    7    0      4.45      0.00
   11    7    0      6.55      0.00
   13    7    0      6.48      0.00
   15    7    0      5.30      0.00
   17    7    0      3.96      0.00
   19    7    0      2.77      0.00
   21    7    0      1.67      0.00
   23    7    0      0.86      0.00
   25    7    0      0.59      0.00
   27    7    0      0.56      0.00
    0    8    0     10.07      0.00
    2    8    0      8.33      0.00
    4    8    0      4.21      0.00
    6    8    0     -0.16      0.00
    8    8    0     -3.34      0.00
   10    8    0     -4.97      0.00
   12    8    0     -5.14      0.00
   14    8    0     -4.09      0.00
   16    8    0     -2.62      0.00
   18    8    0     -1.71      0.00
   20    8    0     -1.66      0.00
   22    8    0     -1.78      0.00
   24    8    0     -1.34      0.00
   26    8    0     -0.52      0.00
    1    9    0     -3.10      0.00
    3    9    0     -1.59      0.00
    5    9    0     -0.03      0.00
    7    9    0      0.72      0.00
    9    9    0      1.02      0.00
   11    9    0      1.30      0.00
   13    9    0      1.28      0.00
   15    9    0      0.72      0.00
   17    9    0      0.09      0.00
   19    9    0      0.12      0.00
   21    9    0      0.86      0.00
   23    9    0      1.38      0.00
   25    9    0      0.96      0.00
    0   10    0     -1.67      0.00
    2   10    0     -1.63      0.00
    4   10    0     -1.24      0.00
    6   10    0     -0.34      0.00
    8   10    0      0.60      0.00
   10   10    0      1.10      0.00
   12   10    0      1.19      0.00
   14   10    0      1.01      0.00
   16   10    0      0.75      0.00
   18   10    0      0.68      0.00
   20   10    0      0.66      0.00
   22   10    0      0.29      0.00
   24   10    0     -0.23      0.00
    1   11    0      4.50      0.00
    3   11    0      3.62      0.00
    5   11    0      2.11      0.00
    7   11    0      0.56      0.00
    9   11    0     -0.58      0.00
   11   11    0     -1.35      0.00
   13   11    0     -1.69      0.00
   15   11    0     -1.46      0.00
   17   11    0     -1.08      0.00
   19   11    0     -1.17      0.00
   21   11    0     -1.39      0.00
   23   11    0     -1.00      0.00
    0   12    0     -4.77      0.00
    2   12    0     -4.32      0.00
    4   12    0     -3.15      0.00
    6   12    0     -1.73      0.00
    8   12    0     -0.59      0.00
   10   12    0      0.21      0.00
   12   12    0      0.91      0.00
   14   12    0      1.45      0.00
   16   12    0      1.63      0.00
   18   12    0      1.50      0.00
   20   12    0      1.22      0.00
   22   12    0      0.74      0.00
    1   13    0      1.84      0.00
    3   13    0      1.40      0.00
    5   13    0      0.90      0.00
    7   13    0      0.55      0.00
    9   13    0      0.20      0.00
   11   13    0     -0.26      0.00
   13   13    0     -0.82      0.00
   15   13    0     -1.27      0.00
   17   13    0     -1.32      0.00
   19   13    0     -0.76      0.00
   21   13    0      0.13      0.00
    0   14    0      1.53      0.00
    2   14    0      1.56      0.00
    4   14    0      1.29      0.00
    6   14    0      0.54      0.00
    8   14    0      0.01      0.00
   10   14    0      0.19      0.00
   12   14    0      0.50      0.00
   14   14    0      0.40      0.00
   16   14    0      0.08      0.00
   18   14    0     -0.22      0.00
    1   15    0     -2.48      0.00
    3   15    0     -2.30      0.00
    5   15    0     -1.42      0.00
    7   15    0     -0.29      0.00
    9   15    0      0.11      0.00
   11   15    0     -0.02      0.00
   13   15    0      0.26      0.00
   15   15    0      0.92      0.00
   17   15    0      1.15      0.00
    0   16    0      0.94      0.00
    2   16    0      1.07      0.00
    4   16    0      1.02      0.00
    6   16    0      0.45      0.00
    8   16    0     -0.19      0.00
   10   16    0     -0.51      0.00
   12   16    0     -0.81      0.00
   14   16    0     -1.16      0.00
    1   17    0      0.51      0.00
    3   17    0      0.06      0.00
    5   17    0     -0.28      0.00
    7   17    0     -0.18      0.00
    9   17    0      0.19      0.00
    0   18    0     -0.73      0.00
    2   18    0     -0.46      0.00
    4   18    0      0.05      0.00
  -14    0    1    -13.30      0.00
  -12    0    1    -18.35      0.00
   -8    0    1     -7.10      0.00
   -6    0    1      7.09      0.00
   -2    0    1     46.35      0.00
    4    0    1     35.29      0.00
    6    0    1     16.08      0.00
   10    0    1     -9.33      0.00
   12    0    1    -12.05      0.00
   14    0    1     -8.99      0.00
   16    0    1     -4.95      0.00
  -19    1    1      1.24      0.00
  -17    1    1      2.39      0.00
  -15    1    1      6.25      0.00
  -13    1    1     11.40      0.00
  -11    1    1     13.08      0.00
   -9    1    1      8.99      0.00
   -7    1    1      0.84      0.00
    3    1    1    -25.53      0.00
    5    1    1    -13.96      0.00
    9    1    1      5.63      0.00
   11    1    1      9.73      0.00
   13    1    1      8.34      0.00
   15    1    1      4.50      0.00
   17    1    1      2.30      0.00
   19    1    1      2.22      0.00
   21    1    1      2.27      0.00
  -24    2    1      0.36      0.00
  -22    2    1      0.30      0.00
  -20    2    1      0.23      0.00
  -18    2    1      0.97      0.00
  -16    2    1      1.65      0.00
  -14    2    1      1.06      0.00
  -12    2    1     -0.06      0.00
  -10    2    1     -0.18      0.00
   -8    2    1      0.13      0.00
   -6    2    1     -1.13      0.00
   -4    2    1     -4.66      0.00
   -2    2    1     -9.20      0.00
    0    2    1    -12.76      0.00
    2    2    1    -13.44      0.00
    4    2    1    -10.78      0.00
    8    2    1     -4.86      0.00
   10    2    1     -4.15      0.00
   12    2    1     -2.55      0.00
   14    2    1      0.07      0.00
   16    2    1      1.40      0.00
   18    2    1      0.68      0.00
   20    2    1     -0.28      0.00
   22    2    1     -0.23      0.00
   24    2    1      0.07      0.00
  -27    3    1     -0.35      0.00
  -25    3    1     -0.69      0.00
  -23    3    1     -0.66      0.00
  -21    3    1     -0.88      0.00
  -19    3    1     -2.27      0.00
  -17    3    1     -4.81      0.00
  -15    3    1     -7.76      0.00
  -13    3    1    -10.44      0.00
  -11    3    1    -11.88      0.00
   -9    3    1    -10.12      0.00
   -7    3    1     -2.99      0.00
   -5    3    1      9.78      0.00
   -3    3    1     25.11      0.00
    1    3    1     40.55      0.00
    3    3    1     33.76      0.00
    5    3    1     20.70      0.00
    7    3    1      7.64      0.00
    9    3    1     -1.20      0.00
   11    3    1     -5.43      0.00
   13    3    1     -6.62      0.00
   15    3    1     -5.94      0.00
   17    3    1     -4.10      0.00
   19    3    1     -2.21      0.00
   21    3    1     -1.30      0.00
   23    3    1     -1.19      0.00
   25    3    1     -0.90      0.00
   27    3    1     -0.14      0.00
  -28    4    1      0.84      0.00
  -26    4    1      1.06      0.00
  -24    4    1      0.63      0.00
  -22    4    1      0.44      0.00
  -20    4    1      1.50      0.00
  -18    4    1      3.57      0.00
  -16    4    1      6.07      0.00
  -14    4    1      9.29      0.00
  -12    4    1     13.07      0.00
  -10    4    1     14.91      0.00
   -8    4    1     11.23      0.00
   -6    4    1      0.78      0.00
   -4    4    1    -13.70      0.00
   -2    4    1    -26.64      0.00
    0    4    1    -32.68      0.00
    4    4    1    -19.25      0.00
    6    4    1     -6.09      0.00
    8    4    1      4.96      0.00
   10    4    1     10.61      0.00
   12    4    1     10.70      0.00
   14    4    1      7.82      0.00
   16    4    1      4.85      0.00
   18    4    1      2.92      0.00
   20    4    1      1.94      0.00
   22    4    1      1.53      0.00
   24    4    1      1.21      0.00
   26    4    1      0.58      0.00
   28    4    1     -0.14      0.00
  -29    5    1     -0.54      0.00
  -27    5    1     -0.70      0.00
  -25    5    1     -0.52      0.00
  -23    5    1     -0.09      0.00
  -21    5    1     -0.07      0.00
  -19    5    1     -0.59      0.00
  -17    5    1     -1.13      0.00
  -15    5    1     -1.85      0.00
  -13    5    1     -3.69      0.00
  -11    5    1     -6.48      0.00
   -9    5    1     -8.12      0.00
   -7    5    1     -6.47      0.00
   -5    5    1     -1.44      0.00
   -3    5    1      4.59      0.00
   -1    5    1      8.23      0.00
    1    5    1      7.38      0.00
    3    5    1      2.59      0.00
    5    5    1     -3.70      0.00
    7    5    1     -8.76      0.00
    9    5    1    -10.59      0.00
   11    5    1     -8.84      0.00
   13    5    1     -5.17      0.00
   15    5    1     -1.99      0.00
   17    5    1     -0.47      0.00
   19    5    1     -0.30      0.00
   21    5    1     -0.73      0.00
   23    5    1     -0.97      0.00
   25    5    1     -0.47      0.00
   27    5    1      0.41      0.00
   29    5    1      0.76      0.00
  -28    6    1      0.02      0.00
  -26    6    1     -0.02      0.00
  -24    6    1     -0.09      0.00
  -22    6    1     -0.58      0.00
  -20    6    1     -1.40      0.00
  -18    6    1     -2.32      0.00
  -16    6    1     -3.28      0.00
  -14    6    1     -4.11      0.00
  -12    6    1     -4.22      0.00
  -10    6    1     -3.00      0.00
   -8    6    1     -0.34      0.00
   -6    6    1      2.98      0.00
   -4    6    1      5.73      0.00
   -2    6    1      7.58      0.00
    0    6    1      9.33      0.00
    2    6    1     11.35      0.00
    4    6    1     12.47      0.00
    6    6    1     11.17      0.00
    8    6    1      7.43      0.00
   10    6    1      2.89      0.00
   12    6    1     -0.57      0.00
   14    6    1     -2.23      0.00
   16    6    1     -2.60      0.00
   18    6    1     -2.27      0.00
   20    6    1     -1.30      0.00
   22    6    1     -0.07      0.00
   24    6    1      0.33      0.00
   26    6    1     -0.41      0.00
   28    6    1     -1.12      0.00
  -27    7    1      0.26      0.00
  -25    7    1      0.42      0.00
  -23    7    1      1.02      0.00
  -21    7    1      2.00      0.00
  -19    7    1      2.92      0.00
  -17    7    1      3.79      0.00
  -15    7    1      5.07      0.00
  -13    7    1      6.78      0.00
  -11    7    1      7.95      0.00
   -9    7    1      7.05      0.00
   -7    7    1      3.30      0.00
   -5    7    1     -2.41      0.00
   -3    7    1     -8.06      0.00
   -1    7    1    -12.01      0.00
    1    7    1    -13.65      0.00
    3    7    1    -12.69      0.00
    5    7    1     -9.01      0.00
    7    7    1     -3.44      0.00
    9    7    1      1.95      0.00
   11    7    1      4.98      0.00
   13    7    1      5.16      0.00
   15    7    1      3.87      0.00
   17    7    1      2.74      0.00
   19    7    1      2.09      0.00
   21    7    1      1.33      0.00
   23    7    1      0.49      0.00
   25    7    1      0.23      0.00
   27    7    1      0.59      0.00
  -26    8    1     -0.37      0.00
  -24    8    1     -1.32      0.00
  -22    8    1     -2.27      0.00
  -20    8    1     -2.42      0.00
  -18    8    1     -2.08      0.00
  -16    8    1     -2.30      0.00
  -14    8    1     -3.51      0.00
  -12    8    1     -4.89      0.00
  -10    8    1     -5.32      0.00
   -8    8    1     -4.15      0.00
   -6    8    1     -1.29      0.00
   -4    8    1      2.81      0.00
   -2    8    1      6.80      0.00
    0    8    1      8.81      0.00
    2    8    1      7.82      0.00
    4    8    1      4.39      0.00
    6    8    1      0.17      0.00
    8    8    1     -3.28      0.00
   10    8    1     -5.03      0.00
   12    8    1     -4.87      0.00
   14    8    1     -3.33      0.00
   16    8    1     -1.60      0.00
   18    8    1     -0.73      0.00
   20    8    1     -0.84      0.00
   22    8    1     -1.10      0.00
   24    8    1     -0.80      0.00
   26    8    1     -0.21      0.00
  -25    9    1      0.86      0.00
  -23    9    1      1.65      0.00
  -21    9    1      1.67      0.00
  -19    9    1      0.88      0.00
  -17    9    1      0.10      0.00
  -15    9    1      0.03      0.00
  -13    9    1      0.43      0.00
  -11    9    1      0.59      0.00
   -9    9    1      0.30      0.00
   -7    9    1     -0.19      0.00
   -5    9    1     -1.01      0.00
   -3    9    1     -2.34      0.00
   -1    9    1     -3.39      0.00
    1    9    1     -2.90      0.00
    3    9    1     -0.87      0.00
    5    9    1      1.35      0.00
    7    9    1      2.60      0.00
    9    9    1      2.74      0.00
   11    9    1      2.20      0.00
   13    9    1      1.31      0.00
   15    9    1      0.35      0.00
   17    9    1     -0.35      0.00
   19    9    1     -0.38      0.00
   21    9    1      0.24      0.00
   23    9    1      0.74      0.00
   25    9    1      0.44      0.00
  -24   10    1     -0.19      0.00
  -22   10    1      0.08      0.00
  -20   10    1      0.26      0.00
  -18   10    1      0.51      0.00
  -16   10    1      1.08      0.00
  -14   10    1      1.73      0.00
  -12   10    1      2.10      0.00
  -10   10    1      2.09      0.00
   -8   10    1      1.73      0.00
   -6   10    1      1.04      0.00
   -4   10    1      0.38      0.00
   -2   10    1     -0.08      0.00
    0   10    1     -0.67      0.00
    2   10    1     -1.52      0.00
    4   10    1     -2.16      0.00
    6   10    1     -2.16      0.00
    8   10    1     -1.58      0.00
   10   10    1     -0.60      0.00
   12   10    1      0.44      0.00
   14   10    1      0.94      0.00
   16   10    1      0.75      0.00
   18   10    1      0.48      0.00
   20   10    1      0.45      0.00
   22   10    1      0.37      0.00
   24   10    1      0.15      0.00
  -23   11    1     -1.34      0.00
  -21   11    1     -1.61      0.00
  -19   11    1     -1.22      0.00
  -17   11    1     -1.14      0.00
  -15   11    1     -1.76      0.00
  -13   11    1     -2.34      0.00
  -11   11    1     -2.20      0.00
   -9   11    1     -1.35      0.00
   -7   11    1     -0.10      0.00
   -5   11    1      1.27      0.00
   -3   11    1      2.37      0.00
   -1   11    1      3.07      0.00
    1   11    1      3.39      0.00
    3   11    1      3.24      0.00
    5   11    1      2.64      0.00
    7   11    1      1.90      0.00
    9   11    1      1.04      0.00
   11   11    1     -0.14      0.00
   13   11    1     -1.18      0.00
   15   11    1     -1.29      0.00
   17   11    1     -0.74      0.00
   19   11    1     -0.55      0.00
   21   11    1     -0.85      0.00
   23   11    1     -0.86      0.00
  -22   12    1      1.22      0.00
  -20   12    1      1.32      0.00
  -18   12    1      1.33      0.00
  -16   12    1      1.53      0.00
  -14   12    1      1.69      0.00
  -12   12    1      1.38      0.00
  -10   12    1      0.54      0.00
   -8   12    1     -0.64      0.00
   -6   12    1     -1.93      0.00
   -4   12    1     -3.02      0.00
   -2   12    1     -3.60      0.00
    0   12    1     -3.64      0.00
    2   12    1     -3.24      0.00
    4   12    1     -2.56      0.00
    6   12    1     -1.88      0.00
    8   12    1     -1.34      0.00
   10   12    1     -0.69      0.00
   12   12    1      0.27      0.00
   14   12    1      1.14      0.00
   16   12    1      1.44      0.00
   18   12    1      1.27      0.00
   20   12    1      0.98      0.00
   22   12    1      0.62      0.00
  -21   13    1      0.11      0.00
  -19   13    1     -0.30      0.00
  -17   13    1     -0.75      0.00
  -15   13    1     -0.98      0.00
  -13   13    1     -0.82      0.00
  -11   13    1     -0.19      0.00
   -9   13    1      0.71      0.00
   -7   13    1      1.43      0.00
   -5   13    1      1.74      0.00
   -3   13    1      1.73      0.00
   -1   13    1      1.47      0.00
    1   13    1      0.95      0.00
    3   13    1      0.43      0.00
    5   13    1      0.24      0.00
    7   13    1      0.33      0.00
    9   13    1      0.31      0.00
   11   13    1     -0.06      0.00
   13   13    1     -0.68      0.00
   15   13    1     -1.28      0.00
   17   13    1     -1.52      0.00
   19   13    1     -1.14      0.00
   21   13    1     -0.33      0.00
  -18   14    1     -0.94      0.00
  -16   14    1     -0.67      0.00
  -14   14    1     -0.13      0.00
  -12   14    1      0.12      0.00
  -10   14    1     -0.39      0.00
   -8   14    1     -0.95      0.00
   -6   14    1     -0.65      0.00
   -4   14    1      0.28      0.00
   -2   14    1      1.09      0.00
    0   14    1      1.75      0.00
    2   14    1      2.30      0.00
    4   14    1      2.20      0.00
    6   14    1      1.32      0.00
    8   14    1      0.53      0.00
   10   14    1      0.47      0.00
   12   14    1      0.70      0.00
   14   14    1      0.68      0.00
   16   14    1      0.50      0.00
   18   14    1      0.32      0.00
  -17   15    1      1.71      0.00
  -15   15    1      1.51      0.00
  -13   15    1      0.77      0.00
  -11   15    1      0.46      0.00
   -9   15    1      0.70      0.00
   -7   15    1      0.45      0.00
   -5   15    1     -0.59      0.00
   -3   15    1     -1.58      0.00
   -1   15    1     -2.14      0.00
    1   15    1     -2.66      0.00
    3   15    1     -2.88      0.00
    5   15    1     -2.16      0.00
    7   15    1     -0.99      0.00
    9   15    1     -0.42      0.00
   11   15    1     -0.38      0.00
   13   15    1     -0.03      0.00
   15   15    1      0.60      0.00
   17   15    1      0.81      0.00
  -14   16    1     -1.34      0.00
  -12   16    1     -1.10      0.00
  -10   16    1     -0.82      0.00
   -8   16    1     -0.35      0.00
   -6   16    1      0.42      0.00
   -4   16    1      0.91      0.00
   -2   16    1      0.82      0.00
    0   16    1      0.75      0.00
    2   16    1      1.06      0.00
    4   16    1      1.20      0.00
    6   16    1      0.79      0.00
    8   16    1      0.27      0.00
   10   16    1     -0.09      0.00
   12   16    1     -0.62      0.00
   14   16    1     -1.19      0.00
   -9   17    1      0.21      0.00
   -7   17    1     -0.61      0.00
   -5   17    1     -0.87      0.00
   -3   17    1     -0.25      0.00
   -1   17    1      0.62      0.00
    1   17    1      0.87      0.00
    3   17    1      0.45      0.00
    5   17    1     -0.05      0.00
    7   17    1     -0.26      0.00
    9   17    1     -0.12      0.00
   -4   18    1      0.64      0.00
   -2   18    1     -0.33      0.00
    0   18    1     -1.08      0.00
    2   18    1     -1.02      0.00
    4   18    1     -0.39      0.00
  -16    0    2     -3.50      0.00
  -14    0    2    -10.22      0.00
  -12    0    2    -16.48      0.00
  -10    0    2    -17.95      0.00
   -8    0    2    -13.98      0.00
   -6    0    2     -4.25      0.00
    2    0    2     46.38      0.00
    8    0    2      3.76      0.00
   12    0    2     -7.69      0.00
   14    0    2     -5.83      0.00
   16    0    2     -2.66      0.00
   18    0    2     -0.75      0.00
  -21    1    2     -0.83      0.00
  -19    1    2     -0.25      0.00
  -17    1    2      0.78      0.00
  -15    1    2      3.91      0.00
  -13    1    2      8.58      0.00
  -11    1    2     11.70      0.00
   -7    1    2      7.62      0.00
   -5    1    2     -0.96      0.00
   -3    1    2    -14.05      0.00
   -1    1    2    -25.71      0.00
    3    1    2    -22.40      0.00
    5    1    2    -12.69      0.00
    7    1    2     -3.78      0.00
    9    1    2      3.22      0.00
   11    1    2      6.96      0.00
   13    1    2      6.39      0.00
   15    1    2      3.39      0.00
   17    1    2      1.01      0.00
   19    1    2      0.15      0.00
   21    1    2      0.07      0.00
  -24    2    2      0.57      0.00
  -22    2    2      0.59      0.00
  -20    2    2      0.07      0.00
  -18    2    2      0.31      0.00
  -16    2    2      1.55      0.00
  -14    2    2      2.75      0.00
  -12    2    2      3.04      0.00
  -10    2    2      2.03      0.00
   -8    2    2     -0.26      0.00
   -6    2    2     -2.89      0.00
   -4    2    2     -4.88      0.00
   -2    2    2     -6.88      0.00
    0    2    2     -9.97      0.00
    2    2    2    -12.68      0.00
    4    2    2    -12.28      0.00
    6    2    2     -9.11      0.00
    8    2    2     -6.32      0.00
   10    2    2     -5.20      0.00
   12    2    2     -4.05      0.00
   14    2    2     -1.92      0.00
   16    2    2     -0.11      0.00
   18    2    2      0.47      0.00
   20    2    2      0.51      0.00
   22    2    2      0.62      0.00
   24    2    2      0.53      0.00
  -27    3    2     -0.46      0.00
  -25    3    2     -0.55      0.00
  -23    3    2     -0.15      0.00
  -21    3    2      0.40      0.00
  -19    3    2     -0.07      0.00
  -17    3    2     -2.54      0.00
  -15    3    2     -7.01      0.00
  -13    3    2    -12.03      0.00
  -11    3    2    -14.75      0.00
   -9    3    2    -12.52      0.00
   -7    3    2     -4.89      0.00
   -5    3    2      6.26      0.00
   -3    3    2     18.34      0.00
   -1    3    2     28.57      0.00
    1    3    2     33.67      0.00
    3    3    2     31.13      0.00
    5    3    2     21.95      0.00
    7    3    2     10.77      0.00
    9    3    2      2.36      0.00
   11    3    2     -1.71      0.00
   13    3    2     -2.67      0.00
   15    3    2     -2.29      0.00
   17    3    2     -1.57      0.00
   19    3    2     -1.13      0.00
   21    3    2     -1.19      0.00
   23    3    2     -1.36      0.00
   25    3    2     -1.15      0.00
   27    3    2     -0.62      0.00
  -28    4    2      1.39      0.00
  -26    4    2      1.40      0.00
  -24    4    2      0.49      0.00
  -22    4    2     -0.56      0.00
  -20    4    2     -0.51      0.00
  -18    4    2      1.12      0.00
  -16    4    2      4.33      0.00
  -14    4    2      9.07      0.00
  -12    4    2     13.93      0.00
  -10    4    2     15.69      0.00
   -8    4    2     11.58      0.00
   -6    4    2      1.94      0.00
   -4    4    2     -9.97      0.00
   -2    4    2    -20.00      0.00
    0    4    2    -25.00      0.00
    2    4    2    -23.73      0.00
    4    4    2    -16.90      0.00
    8    4    2      2.63      0.00
   10    4    2      7.94      0.00
   12    4    2      7.95      0.00
   14    4    2      4.92      0.00
   16    4    2      2.05      0.00
   18    4    2      0.87      0.00
   20    4    2      1.02      0.00
   22    4    2      1.45      0.00
   24    4    2      1.44      0.00
   26    4    2      0.97      0.00
   28    4    2      0.47      0.00
  -29    5    2     -1.28      0.00
  -27    5    2     -1.37      0.00
  -25    5    2     -0.89      0.00
  -23    5    2     -0.05      0.00
  -21    5    2      0.44      0.00
  -19    5    2      0.29      0.00
  -17    5    2     -0.34      0.00
  -15    5    2     -1.64      0.00
  -13    5    2     -3.78      0.00
  -11    5    2     -5.71      0.00
   -9    5    2     -5.70      0.00
   -7    5    2     -3.07      0.00
   -5    5    2      1.08      0.00
   -3    5    2      4.62      0.00
   -1    5    2      5.65      0.00
    1    5    2      3.67      0.00
    3    5    2     -0.49      0.00
    5    5    2     -5.45      0.00
    7    5    2     -9.64      0.00
    9    5    2    -11.24      0.00
   11    5    2     -9.27      0.00
   13    5    2     -5.03      0.00
   15    5    2     -1.16      0.00
   17    5    2      0.68      0.00
   19    5    2      0.55      0.00
   21    5    2     -0.50      0.00
   23    5    2     -1.19      0.00
   25    5    2     -0.88      0.00
   27    5    2     -0.15      0.00
   29    5    2      0.13      0.00
  -28    6    2      0.61      0.00
  -26    6    2      0.27      0.00
  -24    6    2      0.17      0.00
  -22    6    2      0.02      0.00
  -20    6    2     -0.53      0.00
  -18    6    2     -1.54      0.00
  -16    6    2     -2.63      0.00
  -14    6    2     -3.49      0.00
  -12    6    2     -4.30      0.00
  -10    6    2     -5.08      0.00
   -8    6    2     -4.96      0.00
   -6    6    2     -3.01      0.00
   -4    6    2      0.52      0.00
   -2    6    2      4.54      0.00
    0    6    2      8.31      0.00
    2    6    2     11.42      0.00
    4    6    2     13.24      0.00
    6    6    2     12.91      0.00
    8    6    2     10.10      0.00
   10    6    2      5.68      0.00
   12    6    2      1.48      0.00
   14    6    2     -1.11      0.00
   16    6    2     -2.08      0.00
   18    6    2     -2.02      0.00
   20    6    2     -1.15      0.00
   22    6    2      0.10      0.00
   24    6    2      0.62      0.00
   26    6    2      0.08      0.00
   28    6    2     -0.52      0.00
  -27    7    2      0.29      0.00
  -25    7    2      0.47      0.00
  -23    7    2      0.45      0.00
  -21    7    2      0.66      0.00
  -19    7    2      1.37      0.00
  -17    7    2      2.59      0.00
  -15    7    2      4.20      0.00
  -13    7    2      6.13      0.00
  -11    7    2      8.13      0.00
   -9    7    2      9.08      0.00
   -7    7    2      7.40      0.00
   -5    7    2      2.71      0.00
   -3    7    2     -3.32      0.00
   -1    7    2     -8.30      0.00
    1    7    2    -10.83      0.00
    3    7    2    -10.83      0.00
    5    7    2     -8.64      0.00
    7    7    2     -4.81      0.00
    9    7    2     -0.48      0.00
   11    7    2      2.64      0.00
   13    7    2      3.49      0.00
   15    7    2      2.66      0.00
   17    7    2      1.66      0.00
   19    7    2      1.17      0.00
   21    7    2      0.77      0.00
   23    7    2      0.22      0.00
   25    7    2     -0.07      0.00
   27    7    2      0.07      0.00
  -26    8    2     -0.77      0.00
  -24    8    2     -1.24      0.00
  -22    8    2     -1.46      0.00
  -20    8    2     -1.22      0.00
  -18    8    2     -1.01      0.00
  -16    8    2     -1.61      0.00
  -14    8    2     -3.05      0.00
  -12    8    2     -4.53      0.00
  -10    8    2     -5.21      0.00
   -8    8    2     -4.66      0.00
   -6    8    2     -2.58      0.00
   -4    8    2      0.83      0.00
   -2    8    2      4.29      0.00
    0    8    2      5.91      0.00
    2    8    2      4.85      0.00
    4    8    2      2.02      0.00
    6    8    2     -0.98      0.00
    8    8    2     -3.06      0.00
   10    8    2     -3.90      0.00
   12    8    2     -3.55      0.00
   14    8    2     -2.24      0.00
   16    8    2     -0.65      0.00
   18    8    2      0.26      0.00
   20    8    2      0.07      0.00
   22    8    2     -0.53      0.00
   24    8    2     -0.50      0.00
   26    8    2      0.16      0.00
  -25    9    2      1.29      0.00
  -23    9    2      1.50      0.00
  -21    9    2      1.02      0.00
  -19    9    2      0.11      0.00
  -17    9    2     -0.39      0.00
  -15    9    2     -0.03      0.00
  -13    9    2      0.54      0.00
  -11    9    2      0.33      0.00
   -9    9    2     -0.69      0.00
   -7    9    2     -1.78      0.00
   -5    9    2     -2.60      0.00
   -3    9    2     -3.15      0.00
   -1    9    2     -2.88      0.00
    1    9    2     -1.13      0.00
    3    9    2      1.52      0.00
    5    9    2      3.53      0.00
    7    9    2      3.92      0.00
    9    9    2      2.97      0.00
   11    9    2      1.59      0.00
   13    9    2      0.48      0.00
   15    9    2     -0.28      0.00
   17    9    2     -0.79      0.00
   19    9    2     -0.77      0.00
   21    9    2     -0.06      0.00
   23    9    2      0.57      0.00
   25    9    2      0.23      0.00
  -24   10    2     -0.59      0.00
  -22   10    2      0.40      0.00
  -20   10    2      1.11      0.00
  -18   10    2      1.23      0.00
  -16   10    2      1.11      0.00
  -14   10    2      1.20      0.00
  -12   10    2      1.81      0.00
  -10   10    2      2.87      0.00
   -8   10    2      3.78      0.00
   -6   10    2      3.92      0.00
   -4   10    2      3.21      0.00
   -2   10    2      1.74      0.00
    0   10    2     -0.41      0.00
    2   10    2     -2.56      0.00
    4   10    2     -3.67      0.00
    6   10    2     -3.38      0.00
    8   10    2     -2.19      0.00
   10   10    2     -0.61      0.00
   12   10    2      0.78      0.00
   14   10    2      1.28      0.00
   16   10    2      0.85      0.00
   18   10    2      0.25      0.00
   20   10    2     -0.07      0.00
   22   10    2     -0.23      0.00
   24   10    2     -0.19      0.00
  -23   11    2     -1.42      0.00
  -21   11    2     -2.52      0.00
  -19   11    2     -2.38      0.00
  -17   11    2     -1.64      0.00
  -15   11    2     -1.34      0.00
  -13   11    2     -1.69      0.00
  -11   11    2     -2.32      0.00
   -9   11    2     -2.72      0.00
   -7   11    2     -2.46      0.00
   -5   11    2     -1.47      0.00
   -3   11    2      0.03      0.00
   -1   11    2      1.79      0.00
    1   11    2      3.29      0.00
    3   11    2      3.75      0.00
    5   11    2      3.10      0.00
    7   11    2      2.07      0.00
    9   11    2      1.08      0.00
   11   11    2     -0.08      0.00
   13   11    2     -1.09      0.00
   15   11    2     -1.18      0.00
   17   11    2     -0.44      0.00
   19   11    2      0.12      0.00
   21   11    2      0.15      0.00
   23   11    2      0.06      0.00
  -22   12    2      1.93      0.00
  -20   12    2      2.41      0.00
  -18   12    2      2.11      0.00
  -16   12    2      1.55      0.00
  -14   12    2      1.18      0.00
  -12   12    2      1.05      0.00
  -10   12    2      0.96      0.00
   -8   12    2      0.57      0.00
   -6   12    2     -0.31      0.00
   -4   12    2     -1.51      0.00
   -2   12    2     -2.66      0.00
    0   12    2     -3.41      0.00
    2   12    2     -3.42      0.00
    4   12    2     -2.68      0.00
    6   12    2     -1.73      0.00
    8   12    2     -1.08      0.00
   10   12    2     -0.59      0.00
   12   12    2      0.15      0.00
   14   12    2      0.95      0.00
   16   12    2      1.32      0.00
   18   12    2      1.16      0.00
   20   12    2      0.69      0.00
   22   12    2      0.10      0.00
  -21   13    2     -0.59      0.00
  -19   13    2     -0.88      0.00
  -17   13    2     -0.88      0.00
  -15   13    2     -0.70      0.00
  -13   13    2     -0.45      0.00
  -11   13    2     -0.04      0.00
   -9   13    2      0.53      0.00
   -7   13    2      1.06      0.00
   -5   13    2      1.46      0.00
   -3   13    2      1.76      0.00
   -1   13    2      1.81      0.00
    1   13    2      1.41      0.00
    3   13    2      0.70      0.00
    5   13    2      0.16      0.00
    7   13    2     -0.01      0.00
    9   13    2     -0.06      0.00
   11   13    2     -0.28      0.00
   13   13    2     -0.82      0.00
   15   13    2     -1.53      0.00
   17   13    2     -1.99      0.00
   19   13    2     -1.72      0.00
  -18   14    2     -0.83      0.00
  -16   14    2     -0.82      0.00
  -14   14    2     -0.38      0.00
  -12   14    2     -0.07      0.00
  -10   14    2     -0.52      0.00
   -8   14    2     -1.18      0.00
   -6   14    2     -1.17      0.00
   -4   14    2     -0.58      0.00
   -2   14    2      0.09      0.00
    0   14    2      0.89      0.00
    2   14    2      1.79      0.00
    4   14    2      2.11      0.00
    6   14    2      1.56      0.00
    8   14    2      0.90      0.00
   10   14    2      0.81      0.00
   12   14    2      1.08      0.00
   14   14    2      1.31      0.00
   16   14    2      1.42      0.00
   18   14    2      1.31      0.00
  -17   15    2      1.64      0.00
  -15   15    2      1.41      0.00
  -13   15    2      0.61      0.00
  -11   15    2      0.33      0.00
   -9   15    2      0.78      0.00
   -7   15    2      0.92      0.00
   -5   15    2      0.31      0.00
   -3   15    2     -0.46      0.00
   -1   15    2     -1.20      0.00
    1   15    2     -2.14      0.00
    3   15    2     -2.75      0.00
    5   15    2     -2.27      0.00
    7   15    2     -1.20      0.00
    9   15    2     -0.64      0.00
   11   15    2     -0.66      0.00
   13   15    2     -0.62      0.00
   15   15    2     -0.37      0.00
  -14   16    2     -0.64      0.00
  -12   16    2     -0.46      0.00
  -10   16    2     -0.53      0.00
   -8   16    2     -0.45      0.00
   -6   16    2     -0.03      0.00
   -4   16    2      0.27      0.00
   -2   16    2      0.27      0.00
    0   16    2      0.51      0.00
    2   16    2      1.07      0.00
    4   16    2      1.21      0.00
    6   16    2      0.71      0.00
    8   16    2      0.23      0.00
   10   16    2      0.02      0.00
   12   16    2     -0.26      0.00
   14   16    2     -0.56      0.00
   -9   17    2      0.07      0.00
   -7   17    2     -0.42      0.00
   -5   17    2     -0.61      0.00
   -3   17    2     -0.12      0.00
   -1   17    2      0.50      0.00
    1   17    2      0.60      0.00
    3   17    2      0.37      0.00
    5   17    2      0.22      0.00
    7   17    2      0.12      0.00
    9   17    2      0.05      0.00
   -2   18    2     -0.19      0.00
    0   18    2     -0.72      0.00
    2   18    2     -0.77      0.00
  -18    0    3      4.85      0.00
  -16    0    3      0.80      0.00
  -14    0    3     -8.49      0.00
  -12    0    3    -17.38      0.00
   -8    0    3    -16.45      0.00
   -2    0    3     20.62      0.00
    0    0    3     32.39      0.00
    2    0    3     33.30      0.00
    4    0    3     24.82      0.00
    6    0    3     13.21      0.00
    8    0    3      3.54      0.00
   10    0    3     -1.37      0.00
   12    0    3     -0.98      0.00
   14    0    3      1.97      0.00
   16    0    3      3.66      0.00
   18    0    3      3.19      0.00
   20    0    3      2.04      0.00
  -23    1    3     -1.73      0.00
  -21    1    3     -2.76      0.00
  -19    1    3     -3.67      0.00
  -17    1    3     -2.77      0.00
  -15    1    3      2.04      0.00
  -13    1    3      8.88      0.00
  -11    1    3     12.96      0.00
   -9    1    3     12.39      0.00
   -7    1    3      8.58      0.00
   -3    1    3     -7.70      0.00
   -1    1    3    -16.32      0.00
    1    1    3    -18.80      0.00
    3    1    3    -14.70      0.00
    7    1    3     -1.48      0.00
    9    1    3      2.78      0.00
   11    1    3      3.44      0.00
   13    1    3      0.79      0.00
   15    1    3     -2.09      0.00
   17    1    3     -2.74      0.00
   19    1    3     -1.86      0.00
   21    1    3     -1.02      0.00
   23    1    3     -0.40      0.00
  -26    2    3     -0.56      0.00
  -24    2    3     -0.06      0.00
  -22    2    3      0.22      0.00
  -20    2    3      0.47      0.00
  -18    2    3      0.94      0.00
  -16    2    3      1.16      0.00
  -14    2    3      1.08      0.00
  -12    2    3      1.47      0.00
  -10    2    3      2.25      0.00
   -8    2    3      2.18      0.00
   -6    2    3      0.84      0.00
   -4    2    3     -1.17      0.00
   -2    2    3     -4.15      0.00
    0    2    3     -8.60      0.00
    2    2    3    -12.71      0.00
    6    2    3    -11.57      0.00
    8    2    3     -8.87      0.00
   10    2    3     -6.45      0.00
   12    2    3     -3.42      0.00
   14    2    3     -0.23      0.00
   16    2    3      1.25      0.00
   18    2    3      0.81      0.00
   20    2    3      0.13      0.00
   22    2    3      0.18      0.00
   24    2    3      0.40      0.00
   26    2    3      0.22      0.00
  -27    3    3     -0.45      0.00
  -25    3    3     -0.05      0.00
  -23    3    3      1.12      0.00
  -21    3    3      2.15      0.00
  -19    3    3      1.97      0.00
  -17    3    3      0.13      0.00
  -15    3    3     -3.53      0.00
  -13    3    3     -8.68      0.00
  -11    3    3    -13.37      0.00
   -9    3    3    -14.48      0.00
   -7    3    3    -10.27      0.00
   -5    3    3     -1.58      0.00
   -3    3    3      9.20      0.00
   -1    3    3     19.27      0.00
    1    3    3     25.53      0.00
    3    3    3     25.72      0.00
    5    3    3     20.43      0.00
    7    3    3     12.87      0.00
    9    3    3      6.17      0.00
   11    3    3      1.54      0.00
   13    3    3     -0.95      0.00
   15    3    3     -1.36      0.00
   17    3    3     -0.34      0.00
   19    3    3      0.63      0.00
   21    3    3      0.48      0.00
   23    3    3     -0.37      0.00
   25    3    3     -0.83      0.00
   27    3    3     -0.59      0.00
  -28    4    3      1.58      0.00
  -26    4    3      1.72      0.00
  -24    4    3      0.08      0.00
  -22    4    3     -2.16      0.00
  -20    4    3     -3.05      0.00
  -18    4    3     -1.88      0.00
  -16    4    3      1.08      0.00
  -14    4    3      5.68      0.00
  -12    4    3     11.07      0.00
  -10    4    3     14.66      0.00
   -8    4    3     13.48      0.00
   -6    4    3      6.71      0.00
   -4    4    3     -3.27      0.00
   -2    4    3    -12.19      0.00
    0    4    3    -16.60      0.00
    2    4    3    -15.83      0.00
    4    4    3    -11.48      0.00
    6    4    3     -5.54      0.00
    8    4    3      0.29      0.00
   10    4    3      4.37      0.00
   12    4    3      5.47      0.00
   14    4    3      3.82      0.00
   16    4    3      1.06      0.00
   18    4    3     -0.85      0.00
   20    4    3     -0.93      0.00
   22    4    3      0.16      0.00
   24    4    3      0.99      0.00
   26    4    3      0.94      0.00
   28    4    3      0.52      0.00
  -29    5    3     -1.39      0.00
  -27    5    3     -2.17      0.00
  -25    5    3     -1.58      0.00
  -23    5    3      0.13      0.00
  -21    5    3      1.50      0.00
  -19    5    3      1.64      0.00
  -17    5    3      0.81      0.00
  -15    5    3     -0.62      0.00
  -13    5    3     -2.50      0.00
  -11    5    3     -4.16      0.00
   -9    5    3     -4.45      0.00
   -7    5    3     -2.61      0.00
   -5    5    3      0.79      0.00
   -3    5    3      3.65      0.00
   -1    5    3      3.61      0.00
    1    5    3      0.25      0.00
    3    5    3     -4.41      0.00
    5    5    3     -8.11      0.00
    7    5    3     -9.99      0.00
    9    5    3    -10.01      0.00
   11    5    3     -8.23      0.00
   13    5    3     -5.13      0.00
   15    5    3     -1.71      0.00
   17    5    3      0.81      0.00
   19    5    3      1.46      0.00
   21    5    3      0.36      0.00
   23    5    3     -0.93      0.00
   25    5    3     -1.02      0.00
   27    5    3     -0.31      0.00
  -28    6    3      1.31      0.00
  -26    6    3      1.35      0.00
  -24    6    3      0.91      0.00
  -22    6    3      0.36      0.00
  -20    6    3     -0.09      0.00
  -18    6    3     -0.61      0.00
  -16    6    3     -1.30      0.00
  -14    6    3     -2.21      0.00
  -12    6    3     -3.64      0.00
  -10    6    3     -5.53      0.00
   -8    6    3     -6.85      0.00
   -6    6    3     -6.41      0.00
   -4    6    3     -3.90      0.00
   -2    6    3      0.26      0.00
    0    6    3      5.37      0.00
    2    6    3     10.28      0.00
    4    6    3     13.33      0.00
    6    6    3     13.34      0.00
    8    6    3     10.43      0.00
   10    6    3      6.14      0.00
   12    6    3      2.46      0.00
   14    6    3      0.32      0.00
   16    6    3     -0.83      0.00
   18    6    3     -1.41      0.00
   20    6    3     -0.98      0.00
   22    6    3      0.28      0.00
   24    6    3      0.95      0.00
   26    6    3      0.34      0.00
   28    6    3     -0.43      0.00
  -27    7    3     -0.56      0.00
  -25    7    3     -0.49      0.00
  -23    7    3     -0.31      0.00
  -21    7    3     -0.19      0.00
  -19    7    3      0.04      0.00
  -17    7    3      0.71      0.00
  -15    7    3      2.03      0.00
  -13    7    3      4.09      0.00
  -11    7    3      6.74      0.00
   -9    7    3      9.08      0.00
   -7    7    3      9.54      0.00
   -5    7    3      7.17      0.00
   -3    7    3      2.64      0.00
   -1    7    3     -2.33      0.00
    1    7    3     -6.19      0.00
    3    7    3     -8.00      0.00
    5    7    3     -7.36      0.00
    7    7    3     -4.56      0.00
    9    7    3     -0.88      0.00
   11    7    3      1.77      0.00
   13    7    3      2.29      0.00
   15    7    3      1.37      0.00
   17    7    3      0.51      0.00
   19    7    3      0.20      0.00
   21    7    3     -0.08      0.00
   23    7    3     -0.47      0.00
   25    7    3     -0.45      0.00
   27    7    3      0.03      0.00
  -26    8    3      0.04      0.00
  -24    8    3     -0.43      0.00
  -22    8    3     -0.97      0.00
  -20    8    3     -0.85      0.00
  -18    8    3     -0.29      0.00
  -16    8    3     -0.34      0.00
  -14    8    3     -1.46      0.00
  -12    8    3     -2.99      0.00
  -10    8    3     -4.11      0.00
   -8    8    3     -4.48      0.00
   -6    8    3     -3.92      0.00
   -4    8    3     -2.27      0.00
   -2    8    3     -0.03      0.00
    0    8    3      1.60      0.00
    2    8    3      1.63      0.00
    4    8    3      0.13      0.00
    6    8    3     -1.95      0.00
    8    8    3     -3.44      0.00
   10    8    3     -3.71      0.00
   12    8    3     -2.86      0.00
   14    8    3     -1.43      0.00
   16    8    3      0.03      0.00
   18    8    3      0.96      0.00
   20    8    3      1.03      0.00
   22    8    3      0.54      0.00
   24    8    3      0.23      0.00
   26    8    3      0.31      0.00
  -25    9    3      0.58      0.00
  -23    9    3      1.20      0.00
  -21    9    3      1.37      0.00
  -19    9    3      0.67      0.00
  -17    9    3     -0.23      0.00
  -15    9    3     -0.43      0.00
  -13    9    3     -0.14      0.00
  -11    9    3     -0.42      0.00
   -9    9    3     -1.45      0.00
   -7    9    3     -2.40      0.00
   -5    9    3     -2.71      0.00
   -3    9    3     -2.42      0.00
   -1    9    3     -1.50      0.00
    1    9    3      0.20      0.00
    3    9    3      2.31      0.00
    5    9    3      3.91      0.00
    7    9    3      4.20      0.00
    9    9    3      3.06      0.00
   11    9    3      1.30      0.00
   13    9    3      0.06      0.00
   15    9    3     -0.42      0.00
   17    9    3     -0.70      0.00
   19    9    3     -0.89      0.00
   21    9    3     -0.62      0.00
   23    9    3     -0.14      0.00
   25    9    3     -0.15      0.00
  -24   10    3     -0.36      0.00
  -22   10    3      0.02      0.00
  -20   10    3      0.33      0.00
  -18   10    3      0.51      0.00
  -16   10    3      0.71      0.00
  -14   10    3      1.10      0.00
  -12   10    3      2.00      0.00
  -10   10    3      3.41      0.00
   -8   10    3      4.70      0.00
   -6   10    3      5.14      0.00
   -4   10    3      4.51      0.00
   -2   10    3      2.84      0.00
    0   10    3      0.41      0.00
    2   10    3     -1.82      0.00
    4   10    3     -2.89      0.00
    6   10    3     -2.70      0.00
    8   10    3     -1.74      0.00
   10   10    3     -0.41      0.00
   12   10    3      0.71      0.00
   14   10    3      0.84      0.00
   16   10    3      0.07      0.00
   18   10    3     -0.57      0.00
   20   10    3     -0.58      0.00
   22   10    3     -0.33      0.00
   24   10    3     -0.09      0.00
  -23   11    3     -1.32      0.00
  -21   11    3     -2.13      0.00
  -19   11    3     -1.93      0.00
  -17   11    3     -1.26      0.00
  -15   11    3     -1.04      0.00
  -13   11    3     -1.60      0.00
  -11   11    3     -2.62      0.00
   -9   11    3     -3.45      0.00
   -7   11    3     -3.57      0.00
   -5   11    3     -2.92      0.00
   -3   11    3     -1.61      0.00
   -1   11    3      0.20      0.00
    1   11    3      1.87      0.00
    3   11    3      2.43      0.00
    5   11    3      1.80      0.00
    7   11    3      0.98      0.00
    9   11    3      0.52      0.00
   11   11    3      0.13      0.00
   13   11    3     -0.13      0.00
   15   11    3      0.24      0.00
   17   11    3      0.99      0.00
   19   11    3      1.25      0.00
   21   11    3      0.82      0.00
   23   11    3      0.36      0.00
  -22   12    3      2.02      0.00
  -20   12    3      2.33      0.00
  -18   12    3      1.94      0.00
  -16   12    3      1.38      0.00
  -14   12    3      1.13      0.00
  -12   12    3      1.21      0.00
  -10   12    3      1.33      0.00
   -8   12    3      1.13      0.00
   -6   12    3      0.48      0.00
   -4   12    3     -0.49      0.00
   -2   12    3     -1.57      0.00
    0   12    3     -2.40      0.00
    2   12    3     -2.48      0.00
    4   12    3     -1.68      0.00
    6   12    3     -0.68      0.00
    8   12    3     -0.26      0.00
   10   12    3     -0.40      0.00
   12   12    3     -0.56      0.00
   14   12    3     -0.54      0.00
   16   12    3     -0.39      0.00
   18   12    3     -0.13      0.00
   20   12    3      0.12      0.00
   22   12    3      0.05      0.00
  -21   13    3     -0.81      0.00
  -19   13    3     -0.85      0.00
  -17   13    3     -0.74      0.00
  -15   13    3     -0.62      0.00
  -13   13    3     -0.49      0.00
  -11   13    3     -0.11      0.00
   -9   13    3      0.53      0.00
   -7   13    3      1.09      0.00
   -5   13    3      1.43      0.00
   -3   13    3      1.66      0.00
   -1   13    3      1.72      0.00
    1   13    3      1.32      0.00
    3   13    3      0.51      0.00
    5   13    3     -0.25      0.00
    7   13    3     -0.59      0.00
    9   13    3     -0.51      0.00
   11   13    3     -0.23      0.00
   13   13    3     -0.05      0.00
   15   13    3     -0.29      0.00
   17   13    3     -0.89      0.00
   19   13    3     -1.29      0.00
  -18   14    3     -0.80      0.00
  -16   14    3     -0.90      0.00
  -14   14    3     -0.49      0.00
  -12   14    3     -0.22      0.00
  -10   14    3     -0.75      0.00
   -8   14    3     -1.55      0.00
   -6   14    3     -1.71      0.00
   -4   14    3     -1.23      0.00
   -2   14    3     -0.59      0.00
    0   14    3      0.27      0.00
    2   14    3      1.30      0.00
    4   14    3      1.88      0.00
    6   14    3      1.68      0.00
    8   14    3      1.24      0.00
   10   14    3      1.03      0.00
   12   14    3      0.96      0.00
   14   14    3      0.89      0.00
   16   14    3      0.93      0.00
   18   14    3      1.01      0.00
  -17   15    3      1.45      0.00
  -15   15    3      1.34      0.00
  -13   15    3      0.70      0.00
  -11   15    3      0.56      0.00
   -9   15    3      1.08      0.00
   -7   15    3      1.31      0.00
   -5   15    3      0.87      0.00
   -3   15    3      0.24      0.00
   -1   15    3     -0.49      0.00
    1   15    3     -1.52      0.00
    3   15    3     -2.27      0.00
    5   15    3     -2.05      0.00
    7   15    3     -1.29      0.00
    9   15    3     -0.86      0.00
   11   15    3     -0.82      0.00
   13   15    3     -0.70      0.00
   15   15    3     -0.41      0.00
  -14   16    3     -0.38      0.00
  -12   16    3     -0.46      0.00
  -10   16    3     -0.74      0.00
   -8   16    3     -0.65      0.00
   -6   16    3     -0.13      0.00
   -4   16    3      0.17      0.00
   -2   16    3      0.12      0.00
    0   16    3      0.35      0.00
    2   16    3      0.85      0.00
    4   16    3      0.92      0.00
    6   16    3      0.50      0.00
    8   16    3      0.27      0.00
   10   16    3      0.31      0.00
   12   16    3      0.14      0.00
   -9   17    3      0.34      0.00
   -7   17    3     -0.38      0.00
   -5   17    3     -0.86      0.00
   -3   17    3     -0.52      0.00
   -1   17    3      0.11      0.00
    1   17    3      0.39      0.00
    3   17    3      0.48      0.00
    5   17    3      0.60      0.00
    7   17    3      0.43      0.00
    9   17    3     -0.03      0.00
   -2   18    3      0.31      0.00
    0   18    3     -0.34      0.00
  -20    0    4      6.20      0.00
  -18    0    4      7.27      0.00
  -16    0    4      4.09      0.00
  -14    0    4     -4.72      0.00
  -12    0    4    -14.33      0.00
  -10    0    4    -18.85      0.00
   -2    0    4      9.75      0.00
    0    0    4     16.79      0.00
    2    0    4     17.53      0.00
    4    0    4     14.44      0.00
    6    0    4     10.59      0.00
   10    0    4      4.01      0.00
   12    0    4      3.40      0.00
   14    0    4      4.48      0.00
   16    0    4      5.38      0.00
   18    0    4      5.31      0.00
   20    0    4      4.51      0.00
   22    0    4      2.90      0.00
  -23    1    4     -2.31      0.00
  -21    1    4     -3.63      0.00
  -19    1    4     -4.77      0.00
  -17    1    4     -4.24      0.00
  -15    1    4      0.10      0.00
  -13    1    4      6.73      0.00
  -11    1    4     11.32      0.00
   -9    1    4     11.72      0.00
   -7    1    4      8.73      0.00
   -5    1    4      3.13      0.00
   -3    1    4     -3.71      0.00
   -1    1    4     -8.20      0.00
    1    1    4     -7.95      0.00
    3    1    4     -5.24      0.00
    5    1    4     -3.50      0.00
    7    1    4     -2.72      0.00
    9    1    4     -1.47      0.00
   11    1    4     -0.48      0.00
   13    1    4     -1.06      0.00
   15    1    4     -2.50      0.00
   17    1    4     -3.38      0.00
   19    1    4     -3.38      0.00
   21    1    4     -2.65      0.00
   23    1    4     -1.28      0.00
  -26    2    4     -0.69      0.00
  -24    2    4     -0.35      0.00
  -22    2    4     -0.31      0.00
  -20    2    4     -0.48      0.00
  -18    2    4     -0.62      0.00
  -16    2    4     -0.79      0.00
  -14    2    4     -0.56      0.00
  -12    2    4      0.84      0.00
  -10    2    4      2.86      0.00
   -8    2    4      4.11      0.00
   -6    2    4      4.25      0.00
   -4    2    4      3.28      0.00
   -2    2    4     -0.21      0.00
    0    2    4     -6.75      0.00
    2    2    4    -12.76      0.00
    4    2    4    -13.66      0.00
    6    2    4     -9.83      0.00
    8    2    4     -5.84      0.00
   10    2    4     -4.28      0.00
   12    2    4     -3.77      0.00
   14    2    4     -2.63      0.00
   16    2    4     -1.17      0.00
   18    2    4     -0.19      0.00
   20    2    4      0.17      0.00
   22    2    4      0.12      0.00
   24    2    4     -0.09      0.00
   26    2    4     -0.18      0.00
  -29    3    4     -0.15      0.00
  -27    3    4     -0.08      0.00
  -25    3    4      0.50      0.00
  -23    3    4      2.09      0.00
  -21    3    4      4.09      0.00
  -19    3    4      5.35      0.00
  -17    3    4      4.75      0.00
  -15    3    4      1.36      0.00
  -13    3    4     -4.77      0.00
  -11    3    4    -11.39      0.00
   -9    3    4    -15.11      0.00
   -7    3    4    -14.13      0.00
   -5    3    4     -8.91      0.00
   -3    3    4     -0.61      0.00
   -1    3    4      9.11      0.00
    1    3    4     16.87      0.00
    3    3    4     18.96      0.00
    5    3    4     15.01      0.00
    7    3    4      8.83      0.00
    9    3    4      4.57      0.00
   11    3    4      3.19      0.00
   13    3    4      3.17      0.00
   15    3    4      3.17      0.00
   17    3    4      2.88      0.00
   19    3    4      2.34      0.00
   21    3    4      1.61      0.00
   23    3    4      0.85      0.00
   25    3    4      0.19      0.00
   27    3    4     -0.28      0.00
   29    3    4     -0.43      0.00
  -28    4    4      0.97      0.00
  -26    4    4      1.13      0.00
  -24    4    4     -0.42      0.00
  -22    4    4     -3.26      0.00
  -20    4    4     -5.63      0.00
  -18    4    4     -6.03      0.00
  -16    4    4     -3.66      0.00
  -14    4    4      1.46      0.00
  -12    4    4      7.90      0.00
  -10    4    4     12.94      0.00
   -8    4    4     14.15      0.00
   -6    4    4     10.78      0.00
   -4    4    4      4.07      0.00
   -2    4    4     -3.16      0.00
    0    4    4     -7.70      0.00
    2    4    4     -7.91      0.00
    4    4    4     -4.61      0.00
    6    4    4     -0.19      0.00
    8    4    4      2.94      0.00
   10    4    4      3.55      0.00
   12    4    4      2.01      0.00
   14    4    4     -0.34      0.00
   16    4    4     -2.24      0.00
   18    4    4     -2.93      0.00
   20    4    4     -2.35      0.00
   22    4    4     -1.16      0.00
   24    4    4     -0.22      0.00
   26    4    4      0.31      0.00
   28    4    4      0.68      0.00
  -29    5    4     -0.82      0.00
  -27    5    4     -1.60      0.00
  -25    5    4     -1.41      0.00
  -23    5    4      0.01      0.00
  -21    5    4      1.78      0.00
  -19    5    4      2.85      0.00
  -17    5    4      2.57      0.00
  -15    5    4      0.84      0.00
  -13    5    4     -1.55      0.00
  -11    5    4     -3.24      0.00
   -9    5    4     -3.47      0.00
   -7    5    4     -2.41      0.00
   -5    5    4     -0.58      0.00
   -3    5    4      0.93      0.00
   -1    5    4      0.50      0.00
    1    5    4     -2.61      0.00
    3    5    4     -7.22      0.00
    5    5    4    -11.06      0.00
    7    5    4    -12.38      0.00
    9    5    4    -10.69      0.00
   11    5    4     -6.93      0.00
   13    5    4     -2.91      0.00
   15    5    4      0.11      0.00
   17    5    4      1.78      0.00
   19    5    4      2.02      0.00
   21    5    4      1.03      0.00
   23    5    4     -0.10      0.00
   25    5    4     -0.43      0.00
   27    5    4     -0.35      0.00
  -28    6    4      0.85      0.00
  -26    6    4      1.16      0.00
  -24    6    4      1.31      0.00
  -22    6    4      1.43      0.00
  -20    6    4      1.33      0.00
  -18    6    4      0.83      0.00
  -16    6    4      0.25      0.00
  -14    6    4     -0.40      0.00
  -12    6    4     -1.98      0.00
  -10    6    4     -4.84      0.00
   -8    6    4     -7.56      0.00
   -6    6    4     -8.18      0.00
   -4    6    4     -6.13      0.00
   -2    6    4     -2.19      0.00
    0    6    4      2.66      0.00
    2    6    4      7.58      0.00
    4    6    4     11.42      0.00
    6    6    4     12.76      0.00
    8    6    4     10.71      0.00
   10    6    4      6.27      0.00
   12    6    4      2.04      0.00
   14    6    4     -0.11      0.00
   16    6    4     -0.67      0.00
   18    6    4     -0.80      0.00
   20    6    4     -0.58      0.00
   22    6    4      0.12      0.00
   24    6    4      0.55      0.00
   26    6    4      0.29      0.00
  -27    7    4     -0.15      0.00
  -25    7    4     -0.51      0.00
  -23    7    4     -1.24      0.00
  -21    7    4     -2.10      0.00
  -19    7    4     -2.47      0.00
  -17    7    4     -1.95      0.00
  -15    7    4     -0.60      0.00
  -13    7    4      1.59      0.00
  -11    7    4      4.80      0.00
   -9    7    4      8.37      0.00
   -7    7    4     10.49      0.00
   -5    7    4      9.70      0.00
   -3    7    4      6.40      0.00
   -1    7    4      2.28      0.00
    1    7    4     -1.19      0.00
    3    7    4     -3.42      0.00
    5    7    4     -4.14      0.00
    7    7    4     -3.08      0.00
    9    7    4     -0.66      0.00
   11    7    4      1.53      0.00
   13    7    4      1.94      0.00
   15    7    4      0.71      0.00
   17    7    4     -0.56      0.00
   19    7    4     -0.84      0.00
   21    7    4     -0.57      0.00
   23    7    4     -0.38      0.00
   25    7    4     -0.28      0.00
   27    7    4     -0.12      0.00
  -26    8    4     -0.37      0.00
  -24    8    4     -0.13      0.00
  -22    8    4      0.19      0.00
  -20    8    4      0.83      0.00
  -18    8    4      1.47      0.00
  -16    8    4      1.28      0.00
  -14    8    4     -0.05      0.00
  -12    8    4     -1.92      0.00
  -10    8    4     -3.59      0.00
   -8    8    4     -4.64      0.00
   -6    8    4     -4.79      0.00
   -4    8    4     -3.93      0.00
   -2    8    4     -2.59      0.00
    0    8    4     -1.71      0.00
    2    8    4     -1.85      0.00
    4    8    4     -2.81      0.00
    6    8    4     -3.92      0.00
    8    8    4     -4.36      0.00
   10    8    4     -3.71      0.00
   12    8    4     -2.19      0.00
   14    8    4     -0.36      0.00
   16    8    4      1.22      0.00
   18    8    4      1.98      0.00
   20    8    4      1.61      0.00
   22    8    4      0.63      0.00
   24    8    4      0.09      0.00
   26    8    4      0.24      0.00
  -25    9    4      0.81      0.00
  -23    9    4      0.86      0.00
  -21    9    4      0.71      0.00
  -19    9    4      0.11      0.00
  -17    9    4     -0.50      0.00
  -15    9    4     -0.39      0.00
  -13    9    4      0.20      0.00
  -11    9    4      0.24      0.00
   -9    9    4     -0.65      0.00
   -7    9    4     -1.85      0.00
   -5    9    4     -2.66      0.00
   -3    9    4     -2.65      0.00
   -1    9    4     -1.51      0.00
    1    9    4      0.60      0.00
    3    9    4      2.95      0.00
    5    9    4      4.59      0.00
    7    9    4      4.78      0.00
    9    9    4      3.24      0.00
   11    9    4      0.78      0.00
   13    9    4     -1.12      0.00
   15    9    4     -1.78      0.00
   17    9    4     -1.69      0.00
   19    9    4     -1.22      0.00
   21    9    4     -0.41      0.00
   23    9    4      0.24      0.00
   25    9    4      0.08      0.00
  -24   10    4     -0.65      0.00
  -22   10    4      0.00      0.00
  -20   10    4      0.42      0.00
  -18   10    4      0.40      0.00
  -16   10    4      0.16      0.00
  -14   10    4      0.10      0.00
  -12   10    4      0.73      0.00
  -10   10    4      2.15      0.00
   -8   10    4      3.83      0.00
   -6   10    4      5.16      0.00
   -4   10    4      5.66      0.00
   -2   10    4      4.75      0.00
    0   10    4      2.40      0.00
    2   10    4     -0.29      0.00
    4   10    4     -1.99      0.00
    6   10    4     -2.36      0.00
    8   10    4     -1.70      0.00
   10   10    4     -0.25      0.00
   12   10    4      1.27      0.00
   14   10    4      1.73      0.00
   16   10    4      0.90      0.00
   18   10    4     -0.32      0.00
   20   10    4     -1.10      0.00
   22   10    4     -1.22      0.00
   24   10    4     -0.74      0.00
  -23   11    4     -0.91      0.00
  -21   11    4     -2.06      0.00
  -19   11    4     -2.05      0.00
  -17   11    4     -1.15      0.00
  -15   11    4     -0.43      0.00
  -13   11    4     -0.63      0.00
  -11   11    4     -1.63      0.00
   -9   11    4     -2.75      0.00
   -7   11    4     -3.50      0.00
   -5   11    4     -3.84      0.00
   -3   11    4     -3.55      0.00
   -1   11    4     -2.25      0.00
    1   11    4     -0.40      0.00
    3   11    4      0.80      0.00
    5   11    4      0.96      0.00
    7   11    4      0.78      0.00
    9   11    4      0.67      0.00
   11   11    4      0.34      0.00
   13   11    4     -0.06      0.00
   15   11    4      0.16      0.00
   17   11    4      1.02      0.00
   19   11    4      1.73      0.00
   21   11    4      1.75      0.00
   23   11    4      1.23      0.00
  -22   12    4      1.93      0.00
  -20   12    4      2.55      0.00
  -18   12    4      2.18      0.00
  -16   12    4      1.39      0.00
  -14   12    4      0.89      0.00
  -12   12    4      0.90      0.00
  -10   12    4      1.10      0.00
   -8   12    4      1.16      0.00
   -6   12    4      1.03      0.00
   -4   12    4      0.74      0.00
   -2   12    4      0.15      0.00
    0   12    4     -0.65      0.00
    2   12    4     -1.12      0.00
    4   12    4     -0.97      0.00
    6   12    4     -0.65      0.00
    8   12    4     -0.73      0.00
   10   12    4     -1.08      0.00
   12   12    4     -1.21      0.00
   14   12    4     -1.09      0.00
   16   12    4     -0.88      0.00
   18   12    4     -0.65      0.00
   20   12    4     -0.44      0.00
  -21   13    4     -1.09      0.00
  -19   13    4     -1.17      0.00
  -17   13    4     -0.91      0.00
  -15   13    4     -0.70      0.00
  -13   13    4     -0.60      0.00
  -11   13    4     -0.27      0.00
   -9   13    4      0.35      0.00
   -7   13    4      0.87      0.00
   -5   13    4      1.07      0.00
   -3   13    4      1.12      0.00
   -1   13    4      1.10      0.00
    1   13    4      0.80      0.00
    3   13    4      0.29      0.00
    5   13    4     -0.02      0.00
    7   13    4      0.09      0.00
    9   13    4      0.42      0.00
   11   13    4      0.67      0.00
   13   13    4      0.66      0.00
   15   13    4      0.27      0.00
   17   13    4     -0.43      0.00
   19   13    4     -0.99      0.00
  -18   14    4     -0.54      0.00
  -16   14    4     -0.79      0.00
  -14   14    4     -0.41      0.00
  -12   14    4     -0.04      0.00
  -10   14    4     -0.47      0.00
   -8   14    4     -1.35      0.00
   -6   14    4     -1.81      0.00
   -4   14    4     -1.66      0.00
   -2   14    4     -1.13      0.00
    0   14    4     -0.17      0.00
    2   14    4      0.96      0.00
    4   14    4      1.52      0.00
    6   14    4      1.16      0.00
    8   14    4      0.46      0.00
   10   14    4      0.07      0.00
   12   14    4      0.09      0.00
   14   14    4      0.37      0.00
   16   14    4      0.75      0.00
   18   14    4      0.99      0.00
  -15   15    4      1.27      0.00
  -13   15    4      0.58      0.00
  -11   15    4      0.29      0.00
   -9   15    4      0.73      0.00
   -7   15    4      1.22      0.00
   -5   15    4      1.36      0.00
   -3   15    4      1.19      0.00
   -1   15    4      0.48      0.00
    1   15    4     -0.87      0.00
    3   15    4     -1.96      0.00
    5   15    4     -1.92      0.00
    7   15    4     -1.06      0.00
    9   15    4     -0.31      0.00
   11   15    4     -0.03      0.00
   13   15    4     -0.08      0.00
   15   15    4     -0.25      0.00
  -14   16    4     -0.25      0.00
  -12   16    4     -0.13      0.00
  -10   16    4     -0.28      0.00
   -8   16    4     -0.28      0.00
   -6   16    4     -0.14      0.00
   -4   16    4     -0.35      0.00
   -2   16    4     -0.62      0.00
    0   16    4     -0.16      0.00
    2   16    4      0.78      0.00
    4   16    4      1.17      0.00
    6   16    4      0.79      0.00
    8   16    4      0.31      0.00
   10   16    4      0.00      0.00
   12   16    4     -0.29      0.00
   -9   17    4     -0.06      0.00
   -7   17    4     -0.62      0.00
   -5   17    4     -0.80      0.00
   -3   17    4     -0.22      0.00
   -1   17    4      0.33      0.00
    1   17    4      0.25      0.00
    3   17    4      0.00      0.00
    5   17    4      0.04      0.00
    7   17    4      0.07      0.00
    9   17    4     -0.11      0.00
  -22    0    5      4.53      0.00
  -20    0    5      7.56      0.00
  -18    0    5     10.26      0.00
  -16    0    5      8.85      0.00
  -14    0    5      1.54      0.00
  -12    0    5     -7.84      0.00
  -10    0    5    -14.42      0.00
   -4    0    5     -8.67      0.00
   -2    0    5      0.84      0.00
    0    0    5      8.25      0.00
    2    0    5     10.05      0.00
    4    0    5      7.38      0.00
    6    0    5      3.52      0.00
    8    0    5      1.30      0.00
   10    0    5      2.43      0.00
   12    0    5      6.13      0.00
   14    0    5      9.08      0.00
   16    0    5      8.98      0.00
   18    0    5      6.97      0.00
   20    0    5      5.07      0.00
   22    0    5      3.46      0.00
  -25    1    5     -0.14      0.00
  -23    1    5     -1.74      0.00
  -21    1    5     -3.71      0.00
  -19    1    5     -6.11      0.00
  -17    1    5     -6.88      0.00
  -15    1    5     -3.71      0.00
  -13    1    5      2.10      0.00
  -11    1    5      7.00      0.00
   -9    1    5      9.55      0.00
   -3    1    5      1.74      0.00
   -1    1    5     -3.59      0.00
    1    1    5     -4.81      0.00
    3    1    5     -2.32      0.00
    5    1    5      0.79      0.00
    7    1    5      2.48      0.00
    9    1    5      1.97      0.00
   11    1    5     -0.78      0.00
   13    1    5     -4.15      0.00
   15    1    5     -5.71      0.00
   17    1    5     -5.04      0.00
   19    1    5     -3.74      0.00
   21    1    5     -2.75      0.00
   23    1    5     -1.70      0.00
   25    1    5     -0.53      0.00
  -26    2    5     -1.04      0.00
  -24    2    5     -1.40      0.00
  -22    2    5     -1.62      0.00
  -20    2    5     -1.36      0.00
  -18    2    5     -0.97      0.00
  -16    2    5     -1.02      0.00
  -14    2    5     -0.64      0.00
  -12    2    5      1.39      0.00
  -10    2    5      3.93      0.00
   -8    2    5      4.69      0.00
   -6    2    5      3.84      0.00
   -4    2    5      3.16      0.00
   -2    2    5      2.16      0.00
    0    2    5     -1.15      0.00
    2    2    5     -6.11      0.00
    4    2    5     -9.58      0.00
    6    2    5    -10.01      0.00
    8    2    5     -8.49      0.00
   10    2    5     -6.22      0.00
   12    2    5     -3.69      0.00
   14    2    5     -1.71      0.00
   16    2    5     -0.95      0.00
   18    2    5     -0.90      0.00
   20    2    5     -0.71      0.00
   22    2    5     -0.36      0.00
   24    2    5     -0.19      0.00
   26    2    5     -0.18      0.00
  -29    3    5      0.09      0.00
  -27    3    5      0.38      0.00
  -25    3    5      1.57      0.00
  -23    3    5      3.77      0.00
  -21    3    5      6.06      0.00
  -19    3    5      7.52      0.00
  -17    3    5      7.46      0.00
  -15    3    5      4.69      0.00
  -13    3    5     -1.59      0.00
  -11    3    5     -9.36      0.00
   -9    3    5    -14.51      0.00
   -7    3    5    -14.68      0.00
   -5    3    5    -11.00      0.00
   -3    3    5     -5.78      0.00
   -1    3    5     -0.29      0.00
    1    3    5      4.59      0.00
    3    3    5      7.62      0.00
    5    3    5      8.32      0.00
    7    3    5      7.59      0.00
    9    3    5      6.52      0.00
   11    3    5      5.45      0.00
   13    3    5      4.63      0.00
   15    3    5      4.40      0.00
   17    3    5      4.49      0.00
   19    3    5      4.07      0.00
   21    3    5      2.92      0.00
   23    3    5      1.64      0.00
   25    3    5      0.69      0.00
   27    3    5      0.05      0.00
  -28    4    5      0.20      0.00
  -26    4    5      0.06      0.00
  -24    4    5     -1.74      0.00
  -22    4    5     -4.76      0.00
  -20    4    5     -7.45      0.00
  -18    4    5     -8.46      0.00
  -16    4    5     -6.70      0.00
  -14    4    5     -1.69      0.00
  -12    4    5      5.29      0.00
  -10    4    5     11.29      0.00
   -8    4    5     13.58      0.00
   -6    4    5     11.55      0.00
   -4    4    5      7.04      0.00
   -2    4    5      3.06      0.00
    0    4    5      1.71      0.00
    2    4    5      2.68      0.00
    4    4    5      3.91      0.00
    6    4    5      3.84      0.00
    8    4    5      2.53      0.00
   10    4    5      0.90      0.00
   12    4    5     -0.55      0.00
   14    4    5     -2.07      0.00
   16    4    5     -3.70      0.00
   18    4    5     -4.54      0.00
   20    4    5     -3.79      0.00
   22    4    5     -2.11      0.00
   24    4    5     -0.80      0.00
   26    4    5     -0.15      0.00
   28    4    5      0.39      0.00
  -29    5    5     -0.07      0.00
  -27    5    5     -0.74      0.00
  -25    5    5     -0.51      0.00
  -23    5    5      0.72      0.00
  -21    5    5      2.21      0.00
  -19    5    5      3.22      0.00
  -17    5    5      3.02      0.00
  -15    5    5      1.17      0.00
  -13    5    5     -1.61      0.00
  -11    5    5     -3.59      0.00
   -9    5    5     -3.68      0.00
   -7    5    5     -2.17      0.00
   -5    5    5     -0.23      0.00
   -3    5    5      0.35      0.00
   -1    5    5     -1.93      0.00
    1    5    5     -6.63      0.00
    3    5    5    -11.20      0.00
    5    5    5    -13.14      0.00
    7    5    5    -11.85      0.00
    9    5    5     -8.47      0.00
   11    5    5     -4.67      0.00
   13    5    5     -1.55      0.00
   15    5    5      0.83      0.00
   17    5    5      2.51      0.00
   19    5    5      2.80      0.00
   21    5    5      1.53      0.00
   23    5    5      0.10      0.00
   25    5    5     -0.26      0.00
   27    5    5     -0.15      0.00
  -28    6    5      0.43      0.00
  -26    6    5      0.79      0.00
  -24    6    5      1.05      0.00
  -22    6    5      1.69      0.00
  -20    6    5      2.40      0.00
  -18    6    5      2.60      0.00
  -16    6    5      2.44      0.00
  -14    6    5      2.12      0.00
  -12    6    5      0.81      0.00
  -10    6    5     -2.25      0.00
   -8    6    5     -6.16      0.00
   -6    6    5     -8.75      0.00
   -4    6    5     -8.40      0.00
   -2    6    5     -4.87      0.00
    0    6    5      0.62      0.00
    2    6    5      6.02      0.00
    4    6    5      9.49      0.00
    6    6    5     10.14      0.00
    8    6    5      8.07      0.00
   10    6    5      4.49      0.00
   12    6    5      1.35      0.00
   14    6    5     -0.22      0.00
   16    6    5     -0.77      0.00
   18    6    5     -0.93      0.00
   20    6    5     -0.48      0.00
   22    6    5      0.44      0.00
   24    6    5      0.77      0.00
   26    6    5      0.27      0.00
  -27    7    5     -0.20      0.00
  -25    7    5     -0.60      0.00
  -23    7    5     -1.54      0.00
  -21    7    5     -3.08      0.00
  -19    7    5     -4.35      0.00
  -17    7    5     -4.44      0.00
  -15    7    5     -3.29      0.00
  -13    7    5     -1.20      0.00
  -11    7    5      1.89      0.00
   -9    7    5      5.82      0.00
   -7    7    5      9.34      0.00
   -5    7    5     10.80      0.00
   -3    7    5      9.49      0.00
   -1    7    5      6.25      0.00
    1    7    5      2.75      0.00
    3    7    5      0.34      0.00
    5    7    5     -0.57      0.00
    7    7    5     -0.17      0.00
    9    7    5      0.90      0.00
   11    7    5      1.72      0.00
   13    7    5      1.53      0.00
   15    7    5      0.50      0.00
   17    7    5     -0.49      0.00
   19    7    5     -0.97      0.00
   21    7    5     -1.05      0.00
   23    7    5     -0.87      0.00
   25    7    5     -0.40      0.00
  -26    8    5     -0.01      0.00
  -24    8    5      0.24      0.00
  -22    8    5      0.67      0.00
  -20    8    5      1.57      0.00
  -18    8    5      2.45      0.00
  -16    8    5      2.30      0.00
  -14    8    5      0.89      0.00
  -12    8    5     -0.99      0.00
  -10    8    5     -2.55      0.00
   -8    8    5     -3.71      0.00
   -6    8    5     -4.56      0.00
   -4    8    5     -4.92      0.00
   -2    8    5     -4.80      0.00
    0    8    5     -4.53      0.00
    2    8    5     -4.58      0.00
    4    8    5     -5.11      0.00
    6    8    5     -5.59      0.00
    8    8    5     -5.10      0.00
   10    8    5     -3.34      0.00
   12    8    5     -1.18      0.00
   14    8    5      0.42      0.00
   16    8    5      1.32      0.00
   18    8    5      1.78      0.00
   20    8    5      1.68      0.00
   22    8    5      0.99      0.00
   24    8    5      0.31      0.00
   26    8    5      0.06      0.00
  -25    9    5      0.26      0.00
  -23    9    5      0.61      0.00
  -21    9    5      0.83      0.00
  -19    9    5      0.54      0.00
  -17    9    5      0.20      0.00
  -15    9    5      0.57      0.00
  -13    9    5      1.34      0.00
  -11    9    5      1.38      0.00
   -9    9    5      0.24      0.00
   -7    9    5     -1.38      0.00
   -5    9    5     -2.52      0.00
   -3    9    5     -2.47      0.00
   -1    9    5     -1.07      0.00
    1    9    5      1.16      0.00
    3    9    5      3.28      0.00
    5    9    5      4.50      0.00
    7    9    5      4.17      0.00
    9    9    5      2.04      0.00
   11    9    5     -0.81      0.00
   13    9    5     -2.50      0.00
   15    9    5     -2.40      0.00
   17    9    5     -1.58      0.00
   19    9    5     -0.92      0.00
   21    9    5     -0.30      0.00
   23    9    5      0.21      0.00
   25    9    5      0.21      0.00
  -24   10    5     -0.45      0.00
  -22   10    5     -0.51      0.00
  -20   10    5     -0.58      0.00
  -18   10    5     -0.86      0.00
  -16   10    5     -1.41      0.00
  -14   10    5     -1.83      0.00
  -12   10    5     -1.39      0.00
  -10   10    5      0.18      0.00
   -8   10    5      2.44      0.00
   -6   10    5      4.68      0.00
   -4   10    5      6.07      0.00
   -2   10    5      5.66      0.00
    0   10    5      3.38      0.00
    2   10    5      0.61      0.00
    4   10    5     -1.02      0.00
    6   10    5     -1.11      0.00
    8   10    5     -0.04      0.00
   10   10    5      1.61      0.00
   12   10    5      2.78      0.00
   14   10    5      2.47      0.00
   16   10    5      0.92      0.00
   18   10    5     -0.64      0.00
   20   10    5     -1.46      0.00
   22   10    5     -1.51      0.00
   24   10    5     -0.97      0.00
  -23   11    5     -0.36      0.00
  -21   11    5     -0.95      0.00
  -19   11    5     -0.86      0.00
  -17   11    5     -0.01      0.00
  -15   11    5      0.89      0.00
  -13   11    5      0.99      0.00
  -11   11    5      0.07      0.00
   -9   11    5     -1.42      0.00
   -7   11    5     -3.03      0.00
   -5   11    5     -4.44      0.00
   -3   11    5     -4.94      0.00
   -1   11    5     -3.80      0.00
    1   11    5     -1.61      0.00
    3   11    5     -0.02      0.00
    5   11    5      0.19      0.00
    7   11    5     -0.30      0.00
    9   11    5     -0.71      0.00
   11   11    5     -0.83      0.00
   13   11    5     -0.49      0.00
   15   11    5      0.47      0.00
   17   11    5      1.64      0.00
   19   11    5      2.29      0.00
   21   11    5      2.14      0.00
  -22   12    5      1.08      0.00
  -20   12    5      1.55      0.00
  -18   12    5      1.41      0.00
  -16   12    5      0.85      0.00
  -14   12    5      0.38      0.00
  -12   12    5      0.24      0.00
  -10   12    5      0.43      0.00
   -8   12    5      0.94      0.00
   -6   12    5      1.73      0.00
   -4   12    5      2.30      0.00
   -2   12    5      1.93      0.00
    0   12    5      0.61      0.00
    2   12    5     -0.69      0.00
    4   12    5     -1.09      0.00
    6   12    5     -0.80      0.00
    8   12    5     -0.56      0.00
   10   12    5     -0.71      0.00
   12   12    5     -1.11      0.00
   14   12    5     -1.61      0.00
   16   12    5     -1.89      0.00
   18   12    5     -1.67      0.00
   20   12    5     -1.07      0.00
  -19   13    5     -0.64      0.00
  -17   13    5     -0.70      0.00
  -15   13    5     -0.78      0.00
  -13   13    5     -0.71      0.00
  -11   13    5     -0.23      0.00
   -9   13    5      0.39      0.00
   -7   13    5      0.47      0.00
   -5   13    5     -0.01      0.00
   -3   13    5     -0.34      0.00
   -1   13    5     -0.05      0.00
    1   13    5      0.52      0.00
    3   13    5      0.89      0.00
    5   13    5      1.01      0.00
    7   13    5      1.03      0.00
    9   13    5      1.03      0.00
   11   13    5      1.06      0.00
   13   13    5      1.17      0.00
   15   13    5      1.14      0.00
   17   13    5      0.66      0.00
   19   13    5     -0.11      0.00
  -18   14    5     -0.56      0.00
  -16   14    5     -0.56      0.00
  -14   14    5     -0.14      0.00
  -12   14    5      0.06      0.00
  -10   14    5     -0.55      0.00
   -8   14    5     -1.37      0.00
   -6   14    5     -1.54      0.00
   -4   14    5     -1.09      0.00
   -2   14    5     -0.54      0.00
    0   14    5     -0.02      0.00
    2   14    5      0.39      0.00
    4   14    5      0.37      0.00
    6   14    5     -0.10      0.00
    8   14    5     -0.57      0.00
   10   14    5     -0.68      0.00
   12   14    5     -0.50      0.00
   14   14    5     -0.20      0.00
   16   14    5      0.13      0.00
  -15   15    5      1.00      0.00
  -13   15    5      0.48      0.00
  -11   15    5      0.44      0.00
   -9   15    5      1.02      0.00
   -7   15    5      1.49      0.00
   -5   15    5      1.50      0.00
   -3   15    5      1.16      0.00
   -1   15    5      0.40      0.00
    1   15    5     -0.67      0.00
    3   15    5     -1.30      0.00
    5   15    5     -1.00      0.00
    7   15    5     -0.23      0.00
    9   15    5      0.33      0.00
   11   15    5      0.48      0.00
   13   15    5      0.29      0.00
   15   15    5     -0.03      0.00
  -12   16    5     -0.13      0.00
  -10   16    5     -0.51      0.00
   -8   16    5     -0.68      0.00
   -6   16    5     -0.55      0.00
   -4   16    5     -0.54      0.00
   -2   16    5     -0.45      0.00
    0   16    5      0.21      0.00
    2   16    5      0.97      0.00
    4   16    5      0.98      0.00
    6   16    5      0.36      0.00
    8   16    5     -0.13      0.00
   10   16    5     -0.31      0.00
   12   16    5     -0.42      0.00
   -9   17    5      0.22      0.00
   -7   17    5     -0.18      0.00
   -5   17    5     -0.49      0.00
   -3   17    5     -0.36      0.00
   -1   17    5     -0.34      0.00
    1   17    5     -0.62      0.00
    3   17    5     -0.57      0.00
    5   17    5      0.00      0.00
    7   17    5      0.41      0.00
  -24    0    6      3.68      0.00
  -22    0    6      6.26      0.00
  -20    0    6      9.31      0.00
  -18    0    6     12.34      0.00
  -16    0    6     11.67      0.00
  -14    0    6      4.94      0.00
  -12    0    6     -4.91      0.00
  -10    0    6    -12.72      0.00
   -8    0    6    -15.67      0.00
   -4    0    6     -7.83      0.00
   -2    0    6     -2.20      0.00
    0    0    6      0.05      0.00
    2    0    6     -0.70      0.00
    4    0    6     -1.69      0.00
    6    0    6     -1.54      0.00
    8    0    6     -0.30      0.00
   10    0    6      2.44      0.00
   12    0    6      6.44      0.00
   14    0    6      9.58      0.00
   16    0    6     10.00      0.00
   18    0    6      8.18      0.00
   20    0    6      5.61      0.00
   22    0    6      3.10      0.00
   24    0    6      1.20      0.00
  -27    1    6      0.08      0.00
  -25    1    6     -1.53      0.00
  -23    1    6     -3.18      0.00
  -21    1    6     -4.98      0.00
  -19    1    6     -7.41      0.00
  -17    1    6     -8.52      0.00
  -15    1    6     -5.58      0.00
  -13    1    6      0.67      0.00
  -11    1    6      6.55      0.00
   -9    1    6      9.48      0.00
   -7    1    6      8.91      0.00
   -5    1    6      5.28      0.00
   -3    1    6      0.84      0.00
   -1    1    6     -0.79      0.00
    1    1    6      1.38      0.00
    3    1    6      4.31      0.00
    5    1    6      5.12      0.00
    7    1    6      3.94      0.00
    9    1    6      1.78      0.00
   11    1    6     -1.20      0.00
   13    1    6     -4.30      0.00
   15    1    6     -5.99      0.00
   17    1    6     -5.75      0.00
   19    1    6     -4.40      0.00
   21    1    6     -2.69      0.00
   23    1    6     -1.12      0.00
   25    1    6     -0.24      0.00
   27    1    6     -0.07      0.00
  -28    2    6      0.05      0.00
  -26    2    6      0.13      0.00
  -24    2    6     -0.28      0.00
  -22    2    6     -1.00      0.00
  -20    2    6     -1.13      0.00
  -18    2    6     -0.92      0.00
  -16    2    6     -1.49      0.00
  -14    2    6     -2.41      0.00
  -12    2    6     -1.86      0.00
  -10    2    6      0.50      0.00
   -8    2    6      3.30      0.00
   -6    2    6      5.75      0.00
   -4    2    6      7.27      0.00
   -2    2    6      5.99      0.00
    0    2    6      0.90      0.00
    2    2    6     -5.26      0.00
    4    2    6     -8.47      0.00
    6    2    6     -8.06      0.00
    8    2    6     -6.39      0.00
   10    2    6     -5.04      0.00
   12    2    6     -3.82      0.00
   14    2    6     -2.56      0.00
   16    2    6     -1.53      0.00
   18    2    6     -0.91      0.00
   20    2    6     -0.72      0.00
   22    2    6     -0.86      0.00
   24    2    6     -0.86      0.00
   26    2    6     -0.41      0.00
   28    2    6      0.03      0.00
  -29    3    6     -0.12      0.00
  -27    3    6     -0.10      0.00
  -25    3    6      0.96      0.00
  -23    3    6      3.40      0.00
  -21    3    6      6.17      0.00
  -19    3    6      8.15      0.00
  -17    3    6      8.90      0.00
  -15    3    6      7.71      0.00
  -13    3    6      3.55      0.00
  -11    3    6     -3.08      0.00
   -9    3    6     -9.68      0.00
   -7    3    6    -13.87      0.00
   -5    3    6    -14.70      0.00
   -3    3    6    -12.05      0.00
   -1    3    6     -6.64      0.00
    1    3    6     -0.84      0.00
    3    3    6      2.54      0.00
    5    3    6      3.08      0.00
    7    3    6      2.99      0.00
    9    3    6      4.00      0.00
   11    3    6      5.56      0.00
   13    3    6      6.36      0.00
   15    3    6      6.13      0.00
   17    3    6      5.30      0.00
   19    3    6      4.24      0.00
   21    3    6      3.22      0.00
   23    3    6      2.31      0.00
   25    3    6      1.31      0.00
   27    3    6      0.23      0.00
  -28    4    6     -0.10      0.00
  -26    4    6     -0.22      0.00
  -24    4    6     -1.79      0.00
  -22    4    6     -4.64      0.00
  -20    4    6     -7.55      0.00
  -18    4    6     -9.15      0.00
  -16    4    6     -8.38      0.00
  -14    4    6     -4.88      0.00
  -12    4    6      0.52      0.00
  -10    4    6      6.20      0.00
   -8    4    6     10.57      0.00
   -6    4    6     12.43      0.00
   -4    4    6     11.33      0.00
   -2    4    6      8.44      0.00
    0    4    6      6.21      0.00
    2    4    6      6.28      0.00
    4    4    6      7.70      0.00
    6    4    6      7.87      0.00
    8    4    6      5.25      0.00
   10    4    6      0.96      0.00
   12    4    6     -2.61      0.00
   14    4    6     -4.38      0.00
   16    4    6     -4.90      0.00
   18    4    6     -4.70      0.00
   20    4    6     -3.77      0.00
   22    4    6     -2.43      0.00
   24    4    6     -1.32      0.00
   26    4    6     -0.47      0.00
   28    4    6      0.35      0.00
  -27    5    6      0.06      0.00
  -25    5    6      0.06      0.00
  -23    5    6      0.71      0.00
  -21    5    6      1.72      0.00
  -19    5    6      2.58      0.00
  -17    5    6      2.48      0.00
  -15    5    6      0.95      0.00
  -13    5    6     -1.10      0.00
  -11    5    6     -2.23      0.00
   -9    5    6     -2.27      0.00
   -7    5    6     -2.00      0.00
   -5    5    6     -1.80      0.00
   -3    5    6     -1.93      0.00
   -1    5    6     -3.29      0.00
    1    5    6     -6.51      0.00
    3    5    6    -10.57      0.00
    5    5    6    -13.08      0.00
    7    5    6    -12.08      0.00
    9    5    6     -7.79      0.00
   11    5    6     -2.70      0.00
   13    5    6      0.71      0.00
   15    5    6      2.13      0.00
   17    5    6      2.59      0.00
   19    5    6      2.38      0.00
   21    5    6      1.32      0.00
   23    5    6      0.21      0.00
   25    5    6     -0.14      0.00
   27    5    6     -0.17      0.00
  -28    6    6     -0.34      0.00
  -26    6    6      0.14      0.00
  -24    6    6      0.86      0.00
  -22    6    6      2.12      0.00
  -20    6    6      3.47      0.00
  -18    6    6      4.28      0.00
  -16    6    6      4.65      0.00
  -14    6    6      4.52      0.00
  -12    6    6      2.96      0.00
  -10    6    6     -0.52      0.00
   -8    6    6     -4.63      0.00
   -6    6    6     -7.35      0.00
   -4    6    6     -7.59      0.00
   -2    6    6     -5.41      0.00
    0    6    6     -1.57      0.00
    2    6    6      2.75      0.00
    4    6    6      6.21      0.00
    6    6    6      7.52      0.00
    8    6    6      5.96      0.00
   10    6    6      2.47      0.00
   12    6    6     -0.51      0.00
   14    6    6     -1.43      0.00
   16    6    6     -0.99      0.00
   18    6    6     -0.43      0.00
   20    6    6      0.11      0.00
   22    6    6      0.74      0.00
   24    6    6      0.86      0.00
   26    6    6      0.37      0.00
  -27    7    6      0.30      0.00
  -25    7    6     -0.48      0.00
  -23    7    6     -1.88      0.00
  -21    7    6     -3.85      0.00
  -19    7    6     -5.59      0.00
  -17    7    6     -6.27      0.00
  -15    7    6     -5.68      0.00
  -13    7    6     -3.81      0.00
  -11    7    6     -0.62      0.00
   -9    7    6      3.53      0.00
   -7    7    6      7.40      0.00
   -5    7    6      9.66      0.00
   -3    7    6      9.74      0.00
   -1    7    6      8.08      0.00
    1    7    6      5.67      0.00
    3    7    6      3.47      0.00
    5    7    6      2.14      0.00
    7    7    6      1.95      0.00
    9    7    6      2.60      0.00
   11    7    6      3.08      0.00
   13    7    6      2.43      0.00
   15    7    6      0.80      0.00
   17    7    6     -0.76      0.00
   19    7    6     -1.49      0.00
   21    7    6     -1.47      0.00
   23    7    6     -1.05      0.00
   25    7    6     -0.48      0.00
  -26    8    6     -0.05      0.00
  -24    8    6      0.68      0.00
  -22    8    6      1.33      0.00
  -20    8    6      2.08      0.00
  -18    8    6      2.79      0.00
  -16    8    6      2.80      0.00
  -14    8    6      1.77      0.00
  -12    8    6      0.08      0.00
  -10    8    6     -1.64      0.00
   -8    8    6     -3.09      0.00
   -6    8    6     -4.20      0.00
   -4    8    6     -5.00      0.00
   -2    8    6     -5.54      0.00
    0    8    6     -5.78      0.00
    2    8    6     -5.74      0.00
    4    8    6     -5.75      0.00
    6    8    6     -5.85      0.00
    8    8    6     -5.39      0.00
   10    8    6     -3.79      0.00
   12    8    6     -1.53      0.00
   14    8    6      0.44      0.00
   16    8    6      1.69      0.00
   18    8    6      2.22      0.00
   20    8    6      1.95      0.00
   22    8    6      1.08      0.00
   24    8    6      0.32      0.00
  -25    9    6     -0.13      0.00
  -23    9    6      0.02      0.00
  -21    9    6      0.62      0.00
  -19    9    6      1.11      0.00
  -17    9    6      1.33      0.00
  -15    9    6      1.66      0.00
  -13    9    6      2.06      0.00
  -11    9    6      2.01      0.00
   -9    9    6      1.27      0.00
   -7    9    6      0.06      0.00
   -5    9    6     -1.08      0.00
   -3    9    6     -1.41      0.00
   -1    9    6     -0.60      0.00
    1    9    6      0.80      0.00
    3    9    6      2.06      0.00
    5    9    6      2.84      0.00
    7    9    6      2.76      0.00
    9    9    6      1.24      0.00
   11    9    6     -1.22      0.00
   13    9    6     -2.99      0.00
   15    9    6     -3.18      0.00
   17    9    6     -2.42      0.00
   19    9    6     -1.43      0.00
   21    9    6     -0.41      0.00
   23    9    6      0.27      0.00
  -24   10    6     -0.18      0.00
  -22   10    6     -0.58      0.00
  -20   10    6     -1.37      0.00
  -18   10    6     -2.36      0.00
  -16   10    6     -3.18      0.00
  -14   10    6     -3.35      0.00
  -12   10    6     -2.57      0.00
  -10   10    6     -1.08      0.00
   -8   10    6      0.64      0.00
   -6   10    6      2.48      0.00
   -4   10    6      4.11      0.00
   -2   10    6      4.67      0.00
    0   10    6      3.75      0.00
    2   10    6      2.26      0.00
    4   10    6      1.27      0.00
    6   10    6      1.03      0.00
    8   10    6      1.48      0.00
   10   10    6      2.53      0.00
   12   10    6      3.46      0.00
   14   10    6      3.30      0.00
   16   10    6      2.00      0.00
   18   10    6      0.37      0.00
   20   10    6     -0.91      0.00
   22   10    6     -1.41      0.00
  -23   11    6      0.03      0.00
  -21   11    6     -0.09      0.00
  -19   11    6      0.42      0.00
  -17   11    6      1.42      0.00
  -15   11    6      2.09      0.00
  -13   11    6      1.72      0.00
  -11   11    6      0.51      0.00
   -9   11    6     -0.78      0.00
   -7   11    6     -1.87      0.00
   -5   11    6     -3.00      0.00
   -3   11    6     -3.84      0.00
   -1   11    6     -3.65      0.00
    1   11    6     -2.60      0.00
    3   11    6     -1.73      0.00
    5   11    6     -1.50      0.00
    7   11    6     -1.48      0.00
    9   11    6     -1.36      0.00
   11   11    6     -1.21      0.00
   13   11    6     -0.89      0.00
   15   11    6     -0.19      0.00
   17   11    6      0.78      0.00
   19   11    6      1.56      0.00
   21   11    6      1.78      0.00
  -22   12    6      0.39      0.00
  -20   12    6      0.65      0.00
  -18   12    6      0.48      0.00
  -16   12    6      0.22      0.00
  -14   12    6      0.34      0.00
  -12   12    6      0.77      0.00
  -10   12    6      1.13      0.00
   -8   12    6      1.34      0.00
   -6   12    6      1.68      0.00
   -4   12    6      2.03      0.00
   -2   12    6      1.84      0.00
    0   12    6      0.97      0.00
    2   12    6      0.09      0.00
    4   12    6     -0.32      0.00
    6   12    6     -0.50      0.00
    8   12    6     -0.81      0.00
   10   12    6     -1.16      0.00
   12   12    6     -1.39      0.00
   14   12    6     -1.57      0.00
   16   12    6     -1.65      0.00
   18   12    6     -1.41      0.00
   20   12    6     -0.90      0.00
  -19   13    6     -0.28      0.00
  -17   13    6     -0.50      0.00
  -15   13    6     -1.00      0.00
  -13   13    6     -1.51      0.00
  -11   13    6     -1.45      0.00
   -9   13    6     -0.87      0.00
   -7   13    6     -0.46      0.00
   -5   13    6     -0.48      0.00
   -3   13    6     -0.45      0.00
   -1   13    6     -0.03      0.00
    1   13    6      0.52      0.00
    3   13    6      0.94      0.00
    5   13    6      1.36      0.00
    7   13    6      1.84      0.00
    9   13    6      2.11      0.00
   11   13    6      1.98      0.00
   13   13    6      1.64      0.00
   15   13    6      1.29      0.00
   17   13    6      0.76      0.00
   19   13    6      0.02      0.00
  -18   14    6     -0.33      0.00
  -16   14    6     -0.19      0.00
  -14   14    6      0.40      0.00
  -12   14    6      0.85      0.00
  -10   14    6      0.52      0.00
   -8   14    6     -0.25      0.00
   -6   14    6     -0.80      0.00
   -4   14    6     -0.98      0.00
   -2   14    6     -0.95      0.00
    0   14    6     -0.67      0.00
    2   14    6     -0.31      0.00
    4   14    6     -0.31      0.00
    6   14    6     -0.81      0.00
    8   14    6     -1.35      0.00
   10   14    6     -1.49      0.00
   12   14    6     -1.13      0.00
   14   14    6     -0.52      0.00
   16   14    6      0.02      0.00
  -15   15    6      0.65      0.00
  -13   15    6      0.25      0.00
  -11   15    6      0.07      0.00
   -9   15    6      0.34      0.00
   -7   15    6      0.78      0.00
   -5   15    6      1.27      0.00
   -3   15    6      1.62      0.00
   -1   15    6      1.33      0.00
    1   15    6      0.39      0.00
    3   15    6     -0.41      0.00
    5   15    6     -0.51      0.00
    7   15    6     -0.12      0.00
    9   15    6      0.33      0.00
   11   15    6      0.59      0.00
   13   15    6      0.47      0.00
  -12   16    6     -0.25      0.00
  -10   16    6     -0.36      0.00
   -8   16    6     -0.22      0.00
   -6   16    6     -0.14      0.00
   -4   16    6     -0.58      0.00
   -2   16    6     -1.02      0.00
    0   16    6     -0.68      0.00
    2   16    6      0.12      0.00
    4   16    6      0.56      0.00
    6   16    6      0.54      0.00
    8   16    6      0.41      0.00
   10   16    6      0.16      0.00
   -7   17    6     -0.57      0.00
   -5   17    6     -0.84      0.00
   -3   17    6     -0.37      0.00
   -1   17    6      0.06      0.00
    1   17    6     -0.04      0.00
    3   17    6     -0.22      0.00
    5   17    6     -0.13      0.00
    7   17    6     -0.12      0.00
  -26    0    7      0.81      0.00
  -24    0    7      3.70      0.00
  -22    0    7      6.46      0.00
  -20    0    7      9.11      0.00
  -18    0    7     11.34      0.00
  -16    0    7     11.15      0.00
  -14    0    7      7.41      0.00
  -12    0    7      1.47      0.00
  -10    0    7     -4.86      0.00
   -8    0    7    -10.38      0.00
   -6    0    7    -13.22      0.00
   -4    0    7    -11.95      0.00
   -2    0    7     -8.30      0.00
    0    0    7     -5.66      0.00
    2    0    7     -5.17      0.00
    4    0    7     -5.47      0.00
    6    0    7     -5.02      0.00
    8    0    7     -2.75      0.00
   10    0    7      1.72      0.00
   12    0    7      6.85      0.00
   14    0    7      9.83      0.00
   16    0    7      9.69      0.00
   18    0    7      7.86      0.00
   20    0    7      5.72      0.00
   22    0    7      3.50      0.00
   24    0    7      1.51      0.00
   26    0    7      0.33      0.00
  -27    1    7     -0.08      0.00
  -25    1    7     -1.65      0.00
  -23    1    7     -3.34      0.00
  -21    1    7     -4.93      0.00
  -19    1    7     -6.64      0.00
  -17    1    7     -7.31      0.00
  -15    1    7     -5.60      0.00
  -13    1    7     -2.35      0.00
  -11    1    7      0.98      0.00
   -9    1    7      4.24      0.00
   -7    1    7      7.04      0.00
   -5    1    7      7.60      0.00
   -3    1    7      5.65      0.00
   -1    1    7      3.80      0.00
    1    1    7      4.17      0.00
    3    1    7      5.80      0.00
    5    1    7      6.60      0.00
    7    1    7      5.51      0.00
    9    1    7      2.40      0.00
   11    1    7     -1.84      0.00
   13    1    7     -5.14      0.00
   15    1    7     -6.04      0.00
   17    1    7     -5.27      0.00
   19    1    7     -4.19      0.00
   21    1    7     -3.01      0.00
   23    1    7     -1.58      0.00
   25    1    7     -0.40      0.00
   27    1    7      0.14      0.00
  -28    2    7      0.55      0.00
  -26    2    7      0.55      0.00
  -24    2    7     -0.03      0.00
  -22    2    7     -1.03      0.00
  -20    2    7     -1.66      0.00
  -18    2    7     -2.12      0.00
  -16    2    7     -3.00      0.00
  -14    2    7     -3.21      0.00
  -12    2    7     -1.23      0.00
  -10    2    7      1.91      0.00
   -8    2    7      3.77      0.00
   -6    2    7      3.99      0.00
   -4    2    7      3.91      0.00
   -2    2    7      3.31      0.00
    0    2    7      0.88      0.00
    2    2    7     -2.79      0.00
    4    2    7     -5.51      0.00
    6    2    7     -6.12      0.00
    8    2    7     -5.12      0.00
   10    2    7     -3.45      0.00
   12    2    7     -2.10      0.00
   14    2    7     -1.72      0.00
   16    2    7     -1.84      0.00
   18    2    7     -1.44      0.00
   20    2    7     -0.57      0.00
   22    2    7     -0.18      0.00
   24    2    7     -0.38      0.00
   26    2    7     -0.54      0.00
   28    2    7     -0.46      0.00
  -29    3    7     -0.82      0.00
  -27    3    7     -0.49      0.00
  -25    3    7      0.94      0.00
  -23    3    7      3.54      0.00
  -21    3    7      6.36      0.00
  -19    3    7      8.66      0.00
  -17    3    7     10.12      0.00
  -15    3    7      9.62      0.00
  -13    3    7      5.65      0.00
  -11    3    7     -1.18      0.00
   -9    3    7     -7.71      0.00
   -7    3    7    -11.23      0.00
   -5    3    7    -11.57      0.00
   -3    3    7     -9.83      0.00
   -1    3    7     -6.92      0.00
    1    3    7     -3.85      0.00
    3    3    7     -1.77      0.00
    5    3    7     -0.78      0.00
    7    3    7      0.16      0.00
    9    3    7      1.72      0.00
   11    3    7      3.54      0.00
   13    3    7      5.09      0.00
   15    3    7      6.01      0.00
   17    3    7      5.76      0.00
   19    3    7      4.23      0.00
   21    3    7      2.41      0.00
   23    3    7      1.39      0.00
   25    3    7      1.04      0.00
   27    3    7      0.64      0.00
  -28    4    7      0.23      0.00
  -26    4    7     -0.74      0.00
  -24    4    7     -2.63      0.00
  -22    4    7     -5.05      0.00
  -20    4    7     -7.42      0.00
  -18    4    7     -9.14      0.00
  -16    4    7     -9.07      0.00
  -14    4    7     -6.17      0.00
  -12    4    7     -0.95      0.00
  -10    4    7      4.57      0.00
   -8    4    7      8.37      0.00
   -6    4    7      9.61      0.00
   -4    4    7      8.77      0.00
   -2    4    7      7.29      0.00
    0    4    7      6.78      0.00
    2    4    7      7.77      0.00
    4    4    7      9.15      0.00
    6    4    7      8.95      0.00
    8    4    7      6.20      0.00
   10    4    7      1.98      0.00
   12    4    7     -1.78      0.00
   14    4    7     -4.16      0.00
   16    4    7     -5.17      0.00
   18    4    7     -4.76      0.00
   20    4    7     -3.09      0.00
   22    4    7     -1.32      0.00
   24    4    7     -0.57      0.00
   26    4    7     -0.46      0.00
  -27    5    7      0.66      0.00
  -25    5    7      1.52      0.00
  -23    5    7      1.99      0.00
  -21    5    7      1.96      0.00
  -19    5    7      1.92      0.00
  -17    5    7      1.63      0.00
  -15    5    7      0.23      0.00
  -13    5    7     -1.95      0.00
  -11    5    7     -3.34      0.00
   -9    5    7     -3.11      0.00
   -7    5    7     -1.80      0.00
   -5    5    7     -0.49      0.00
   -3    5    7     -0.28      0.00
   -1    5    7     -1.95      0.00
    1    5    7     -5.23      0.00
    3    5    7     -8.74      0.00
    5    5    7    -10.69      0.00
    7    5    7     -9.86      0.00
    9    5    7     -6.48      0.00
   11    5    7     -2.33      0.00
   13    5    7      0.75      0.00
   15    5    7      2.35      0.00
   17    5    7      2.84      0.00
   19    5    7      2.12      0.00
   21    5    7      0.48      0.00
   23    5    7     -0.67      0.00
   25    5    7     -0.49      0.00
   27    5    7      0.02      0.00
  -28    6    7     -0.53      0.00
  -26    6    7     -1.02      0.00
  -24    6    7     -0.73      0.00
  -22    6    7      1.11      0.00
  -20    6    7      3.65      0.00
  -18    6    7      5.48      0.00
  -16    6    7      6.38      0.00
  -14    6    7      6.64      0.00
  -12    6    7      5.62      0.00
  -10    6    7      2.61      0.00
   -8    6    7     -1.73      0.00
   -6    6    7     -5.61      0.00
   -4    6    7     -7.30      0.00
   -2    6    7     -6.17      0.00
    0    6    7     -3.04      0.00
    2    6    7      0.38      0.00
    4    6    7      2.79      0.00
    6    6    7      3.67      0.00
    8    6    7      2.90      0.00
   10    6    7      0.93      0.00
   12    6    7     -0.92      0.00
   14    6    7     -1.67      0.00
   16    6    7     -1.49      0.00
   18    6    7     -0.79      0.00
   20    6    7      0.36      0.00
   22    6    7      1.35      0.00
   24    6    7      1.24      0.00
   26    6    7      0.30      0.00
  -27    7    7      0.69      0.00
  -25    7    7      0.48      0.00
  -23    7    7     -0.93      0.00
  -21    7    7     -3.55      0.00
  -19    7    7     -6.18      0.00
  -17    7    7     -7.53      0.00
  -15    7    7     -7.27      0.00
  -13    7    7     -5.70      0.00
  -11    7    7     -2.96      0.00
   -9    7    7      0.70      0.00
   -7    7    7      4.53      0.00
   -5    7    7      7.42      0.00
   -3    7    7      8.55      0.00
   -1    7    7      7.94      0.00
    1    7    7      6.48      0.00
    3    7    7      5.23      0.00
    5    7    7      4.57      0.00
    7    7    7      4.26      0.00
    9    7    7      3.95      0.00
   11    7    7      3.41      0.00
   13    7    7      2.51      0.00
   15    7    7      1.29      0.00
   17    7    7     -0.01      0.00
   19    7    7     -1.08      0.00
   21    7    7     -1.57      0.00
   23    7    7     -1.24      0.00
   25    7    7     -0.37      0.00
  -26    8    7     -0.17      0.00
  -24    8    7      0.42      0.00
  -22    8    7      1.29      0.00
  -20    8    7      2.36      0.00
  -18    8    7      3.19      0.00
  -16    8    7      3.08      0.00
  -14    8    7      1.88      0.00
  -12    8    7      0.19      0.00
  -10    8    7     -1.33      0.00
   -8    8    7     -2.39      0.00
   -6    8    7     -3.11      0.00
   -4    8    7     -3.76      0.00
   -2    8    7     -4.52      0.00
    0    8    7     -5.23      0.00
    2    8    7     -5.68      0.00
    4    8    7     -5.99      0.00
    6    8    7     -6.06      0.00
    8    8    7     -5.26      0.00
   10    8    7     -3.29      0.00
   12    8    7     -1.06      0.00
   14    8    7      0.42      0.00
   16    8    7      1.19      0.00
   18    8    7      1.67      0.00
   20    8    7      1.69      0.00
   22    8    7      1.03      0.00
   24    8    7      0.16      0.00
  -25    9    7     -0.40      0.00
  -23    9    7     -0.26      0.00
  -21    9    7      0.33      0.00
  -19    9    7      1.03      0.00
  -17    9    7      1.79      0.00
  -15    9    7      2.73      0.00
  -13    9    7      3.54      0.00
  -11    9    7      3.69      0.00
   -9    9    7      2.95      0.00
   -7    9    7      1.46      0.00
   -5    9    7     -0.25      0.00
   -3    9    7     -1.23      0.00
   -1    9    7     -0.89      0.00
    1    9    7      0.24      0.00
    3    9    7      1.28      0.00
    5    9    7      1.82      0.00
    7    9    7      1.48      0.00
    9    9    7     -0.17      0.00
   11    9    7     -2.42      0.00
   13    9    7     -3.68      0.00
   15    9    7     -3.40      0.00
   17    9    7     -2.44      0.00
   19    9    7     -1.47      0.00
   21    9    7     -0.46      0.00
   23    9    7      0.37      0.00
  -24   10    7      0.09      0.00
  -22   10    7     -0.53      0.00
  -20   10    7     -1.53      0.00
  -18   10    7     -2.85      0.00
  -16   10    7     -4.21      0.00
  -14   10    7     -4.96      0.00
  -12   10    7     -4.60      0.00
  -10   10    7     -3.33      0.00
   -8   10    7     -1.61      0.00
   -6   10    7      0.52      0.00
   -4   10    7      2.72      0.00
   -2   10    7      3.98      0.00
    0   10    7      3.77      0.00
    2   10    7      2.86      0.00
    4   10    7      2.25      0.00
    6   10    7      2.29      0.00
    8   10    7      2.98      0.00
   10   10    7      4.05      0.00
   12   10    7      4.63      0.00
   14   10    7      4.02      0.00
   16   10    7      2.57      0.00
   18   10    7      1.01      0.00
   20   10    7     -0.33      0.00
   22   10    7     -1.15      0.00
  -23   11    7      0.21      0.00
  -21   11    7      0.39      0.00
  -19   11    7      0.98      0.00
  -17   11    7      2.01      0.00
  -15   11    7      2.86      0.00
  -13   11    7      2.81      0.00
  -11   11    7      1.91      0.00
   -9   11    7      0.75      0.00
   -7   11    7     -0.50      0.00
   -5   11    7     -2.00      0.00
   -3   11    7     -3.29      0.00
   -1   11    7     -3.54      0.00
    1   11    7     -2.87      0.00
    3   11    7     -2.23      0.00
    5   11    7     -2.09      0.00
    7   11    7     -2.21      0.00
    9   11    7     -2.27      0.00
   11   11    7     -2.12      0.00
   13   11    7     -1.59      0.00
   15   11    7     -0.76      0.00
   17   11    7      0.09      0.00
   19   11    7      0.81      0.00
   21   11    7      1.24      0.00
  -20   12    7      0.14      0.00
  -18   12    7      0.08      0.00
  -16   12    7      0.06      0.00
  -14   12    7      0.29      0.00
  -12   12    7      0.62      0.00
  -10   12    7      0.75      0.00
   -8   12    7      0.91      0.00
   -6   12    7      1.52      0.00
   -4   12    7      2.28      0.00
   -2   12    7      2.35      0.00
    0   12    7      1.50      0.00
    2   12    7      0.45      0.00
    4   12    7     -0.22      0.00
    6   12    7     -0.62      0.00
    8   12    7     -0.98      0.00
   10   12    7     -1.22      0.00
   12   12    7     -1.31      0.00
   14   12    7     -1.35      0.00
   16   12    7     -1.32      0.00
   18   12    7     -1.06      0.00
   20   12    7     -0.62      0.00
  -19   13    7     -0.11      0.00
  -17   13    7     -0.57      0.00
  -15   13    7     -1.42      0.00
  -13   13    7     -2.08      0.00
  -11   13    7     -1.87      0.00
   -9   13    7     -1.05      0.00
   -7   13    7     -0.61      0.00
   -5   13    7     -0.89      0.00
   -3   13    7     -1.17      0.00
   -1   13    7     -0.80      0.00
    1   13    7      0.02      0.00
    3   13    7      0.88      0.00
    5   13    7      1.73      0.00
    7   13    7      2.53      0.00
    9   13    7      2.91      0.00
   11   13    7      2.61      0.00
   13   13    7      1.92      0.00
   15   13    7      1.28      0.00
   17   13    7      0.71      0.00
  -18   14    7     -0.15      0.00
  -16   14    7      0.32      0.00
  -14   14    7      1.13      0.00
  -12   14    7      1.49      0.00
  -10   14    7      0.88      0.00
   -8   14    7     -0.12      0.00
   -6   14    7     -0.71      0.00
   -4   14    7     -0.76      0.00
   -2   14    7     -0.57      0.00
    0   14    7     -0.31      0.00
    2   14    7     -0.20      0.00
    4   14    7     -0.52      0.00
    6   14    7     -1.25      0.00
    8   14    7     -1.93      0.00
   10   14    7     -2.08      0.00
   12   14    7     -1.55      0.00
   14   14    7     -0.69      0.00
   16   14    7      0.01      0.00
  -15   15    7      0.11      0.00
  -13   15    7     -0.33      0.00
  -11   15    7     -0.31      0.00
   -9   15    7      0.25      0.00
   -7   15    7      0.96      0.00
   -5   15    7      1.60      0.00
   -3   15    7      1.85      0.00
   -1   15    7      1.36      0.00
    1   15    7      0.37      0.00
    3   15    7     -0.35      0.00
    5   15    7     -0.44      0.00
    7   15    7     -0.13      0.00
    9   15    7      0.29      0.00
   11   15    7      0.60      0.00
   13   15    7      0.50      0.00
  -12   16    7      0.10      0.00
  -10   16    7     -0.19      0.00
   -8   16    7     -0.43      0.00
   -6   16    7     -0.71      0.00
   -4   16    7     -1.21      0.00
   -2   16    7     -1.39      0.00
    0   16    7     -0.75      0.00
    2   16    7      0.19      0.00
    4   16    7      0.71      0.00
    6   16    7      0.83      0.00
    8   16    7      0.77      0.00
   10   16    7      0.43      0.00
   -5   17    7     -0.10      0.00
   -3   17    7      0.23      0.00
   -1   17    7      0.27      0.00
    1   17    7     -0.17      0.00
    3   17    7     -0.53      0.00
    5   17    7     -0.52      0.00
  -28    0    8     -1.03      0.00
  -26    0    8      0.83      0.00
  -24    0    8      3.60      0.00
  -22    0    8      6.06      0.00
  -20    0    8      8.53      0.00
  -18    0    8     10.88      0.00
  -16    0    8     11.23      0.00
  -14    0    8      8.24      0.00
  -10    0    8     -3.50      0.00
   -8    0    8     -8.90      0.00
   -6    0    8    -11.51      0.00
   -4    0    8    -10.74      0.00
   -2    0    8     -8.50      0.00
    0    0    8     -6.89      0.00
    2    0    8     -6.00      0.00
    4    0    8     -5.18      0.00
    6    0    8     -4.39      0.00
    8    0    8     -2.99      0.00
   10    0    8      0.29      0.00
   12    0    8      4.98      0.00
   14    0    8      8.69      0.00
   16    0    8      9.68      0.00
   18    0    8      8.10      0.00
   20    0    8      5.03      0.00
   22    0    8      1.89      0.00
   24    0    8      0.12      0.00
   26    0    8     -0.03      0.00
  -29    1    8      0.70      0.00
  -27    1    8     -0.22      0.00
  -25    1    8     -2.03      0.00
  -23    1    8     -3.46      0.00
  -21    1    8     -4.64      0.00
  -19    1    8     -6.27      0.00
  -17    1    8     -7.31      0.00
  -15    1    8     -6.10      0.00
  -13    1    8     -2.88      0.00
  -11    1    8      0.95      0.00
   -9    1    8      4.53      0.00
   -7    1    8      6.92      0.00
   -5    1    8      7.05      0.00
   -3    1    8      5.53      0.00
   -1    1    8      4.42      0.00
    1    1    8      4.49      0.00
    3    1    8      4.78      0.00
    5    1    8      4.70      0.00
    7    1    8      4.18      0.00
    9    1    8      2.48      0.00
   11    1    8     -0.79      0.00
   13    1    8     -4.25      0.00
   15    1    8     -6.06      0.00
   17    1    8     -5.81      0.00
   19    1    8     -4.15      0.00
   21    1    8     -1.87      0.00
   23    1    8     -0.08      0.00
   25    1    8      0.40      0.00
   27    1    8      0.05      0.00
  -28    2    8      0.70      0.00
  -26    2    8      1.44      0.00
  -24    2    8      1.01      0.00
  -22    2    8     -0.47      0.00
  -20    2    8     -1.48      0.00
  -18    2    8     -1.68      0.00
  -16    2    8     -2.19      0.00
  -14    2    8     -3.05      0.00
  -12    2    8     -2.94      0.00
  -10    2    8     -1.58      0.00
   -8    2    8      0.05      0.00
   -6    2    8      1.50      0.00
   -4    2    8      2.65      0.00
   -2    2    8      2.66      0.00
    0    2    8      1.08      0.00
    2    2    8     -0.89      0.00
    4    2    8     -2.03      0.00
    6    2    8     -2.56      0.00
    8    2    8     -2.91      0.00
   10    2    8     -2.66      0.00
   12    2    8     -1.72      0.00
   14    2    8     -0.87      0.00
   16    2    8     -0.59      0.00
   18    2    8     -0.62      0.00
   20    2    8     -0.81      0.00
   22    2    8     -1.16      0.00
   24    2    8     -1.19      0.00
   26    2    8     -0.67      0.00
  -29    3    8     -0.89      0.00
  -27    3    8     -1.32      0.00
  -25    3    8     -0.35      0.00
  -23    3    8      2.41      0.00
  -21    3    8      5.55      0.00
  -19    3    8      7.65      0.00
  -17    3    8      8.64      0.00
  -15    3    8      8.62      0.00
  -13    3    8      6.87      0.00
  -11    3    8      3.09      0.00
   -9    3    8     -1.59      0.00
   -7    3    8     -5.56      0.00
   -5    3    8     -7.79      0.00
   -3    3    8     -7.87      0.00
   -1    3    8     -6.24      0.00
    1    3    8     -4.46      0.00
    3    3    8     -3.89      0.00
    5    3    8     -3.85      0.00
    7    3    8     -2.64      0.00
    9    3    8     -0.05      0.00
   11    3    8      2.45      0.00
   13    3    8      3.81      0.00
   15    3    8      4.24      0.00
   17    3    8      4.06      0.00
   19    3    8      3.34      0.00
   21    3    8      2.42      0.00
   23    3    8      1.71      0.00
   25    3    8      1.05      0.00
   27    3    8      0.32      0.00
  -28    4    8      0.74      0.00
  -26    4    8      0.02      0.00
  -24    4    8     -1.98      0.00
  -22    4    8     -4.51      0.00
  -20    4    8     -6.56      0.00
  -18    4    8     -7.56      0.00
  -16    4    8     -7.23      0.00
  -14    4    8     -5.48      0.00
  -12    4    8     -2.76      0.00
  -10    4    8      0.28      0.00
   -8    4    8      3.08      0.00
   -6    4    8      5.07      0.00
   -4    4    8      5.78      0.00
   -2    4    8      5.51      0.00
    0    4    8      5.55      0.00
    2    4    8      6.93      0.00
    4    4    8      8.89      0.00
    6    4    8      9.18      0.00
    8    4    8      6.44      0.00
   10    4    8      2.08      0.00
   12    4    8     -1.34      0.00
   14    4    8     -2.90      0.00
   16    4    8     -3.37      0.00
   18    4    8     -3.23      0.00
   20    4    8     -2.35      0.00
   22    4    8     -1.16      0.00
   24    4    8     -0.38      0.00
   26    4    8      0.03      0.00
  -27    5    8      0.42      0.00
  -25    5    8      1.56      0.00
  -23    5    8      2.36      0.00
  -21    5    8      2.19      0.00
  -19    5    8      1.37      0.00
  -17    5    8      0.10      0.00
  -15    5    8     -1.60      0.00
  -13    5    8     -2.96      0.00
  -11    5    8     -2.91      0.00
   -9    5    8     -1.57      0.00
   -7    5    8      0.00      0.00
   -5    5    8      0.96      0.00
   -3    5    8      0.86      0.00
   -1    5    8     -0.64      0.00
    1    5    8     -3.41      0.00
    3    5    8     -6.53      0.00
    5    5    8     -8.39      0.00
    7    5    8     -7.64      0.00
    9    5    8     -4.49      0.00
   11    5    8     -1.05      0.00
   13    5    8      0.86      0.00
   15    5    8      1.44      0.00
   17    5    8      1.66      0.00
   19    5    8      1.41      0.00
   21    5    8      0.34      0.00
   23    5    8     -0.71      0.00
   25    5    8     -0.89      0.00
  -26    6    8     -1.24      0.00
  -24    6    8     -1.33      0.00
  -22    6    8      0.17      0.00
  -20    6    8      2.91      0.00
  -18    6    8      5.65      0.00
  -16    6    8      7.70      0.00
  -14    6    8      8.54      0.00
  -12    6    8      7.36      0.00
  -10    6    8      4.02      0.00
   -8    6    8     -0.31      0.00
   -6    6    8     -3.99      0.00
   -4    6    8     -5.85      0.00
   -2    6    8     -5.43      0.00
    0    6    8     -3.25      0.00
    2    6    8     -0.62      0.00
    4    6    8      1.18      0.00
    6    6    8      1.53      0.00
    8    6    8      0.44      0.00
   10    6    8     -1.24      0.00
   12    6    8     -2.16      0.00
   14    6    8     -1.90      0.00
   16    6    8     -1.27      0.00
   18    6    8     -0.74      0.00
   20    6    8      0.03      0.00
   22    6    8      0.96      0.00
   24    6    8      1.24      0.00
   26    6    8      0.74      0.00
  -27    7    8      0.83      0.00
  -25    7    8      0.59      0.00
  -23    7    8     -0.55      0.00
  -21    7    8     -2.80      0.00
  -19    7    8     -5.46      0.00
  -17    7    8     -7.51      0.00
  -15    7    8     -8.21      0.00
  -13    7    8     -7.20      0.00
  -11    7    8     -4.58      0.00
   -9    7    8     -1.12      0.00
   -7    7    8      2.17      0.00
   -5    7    8      4.64      0.00
   -3    7    8      6.00      0.00
   -1    7    8      6.14      0.00
    1    7    8      5.41      0.00
    3    7    8      4.60      0.00
    5    7    8      4.36      0.00
    7    7    8      4.65      0.00
    9    7    8      4.87      0.00
   11    7    8      4.43      0.00
   13    7    8      3.25      0.00
   15    7    8      1.81      0.00
   17    7    8      0.60      0.00
   19    7    8     -0.26      0.00
   21    7    8     -0.79      0.00
   23    7    8     -0.86      0.00
   25    7    8     -0.51      0.00
  -26    8    8      0.07      0.00
  -24    8    8      0.88      0.00
  -22    8    8      1.54      0.00
  -20    8    8      2.09      0.00
  -18    8    8      2.58      0.00
  -16    8    8      2.66      0.00
  -14    8    8      1.96      0.00
  -12    8    8      0.61      0.00
  -10    8    8     -0.84      0.00
   -8    8    8     -1.76      0.00
   -6    8    8     -2.06      0.00
   -4    8    8     -2.31      0.00
   -2    8    8     -3.00      0.00
    0    8    8     -3.80      0.00
    2    8    8     -4.18      0.00
    4    8    8     -4.29      0.00
    6    8    8     -4.43      0.00
    8    8    8     -4.16      0.00
   10    8    8     -2.97      0.00
   12    8    8     -1.33      0.00
   14    8    8     -0.11      0.00
   16    8    8      0.50      0.00
   18    8    8      0.81      0.00
   20    8    8      0.82      0.00
   22    8    8      0.49      0.00
   24    8    8      0.14      0.00
  -25    9    8     -1.09      0.00
  -23    9    8     -1.15      0.00
  -21    9    8     -0.22      0.00
  -19    9    8      1.21      0.00
  -17    9    8      2.58      0.00
  -15    9    8      3.64      0.00
  -13    9    8      4.19      0.00
  -11    9    8      4.15      0.00
   -9    9    8      3.54      0.00
   -7    9    8      2.31      0.00
   -5    9    8      0.70      0.00
   -3    9    8     -0.43      0.00
   -1    9    8     -0.51      0.00
    1    9    8     -0.09      0.00
    3    9    8      0.11      0.00
    5    9    8      0.08      0.00
    7    9    8     -0.30      0.00
    9    9    8     -1.43      0.00
   11    9    8     -2.96      0.00
   13    9    8     -3.68      0.00
   15    9    8     -3.16      0.00
   17    9    8     -2.10      0.00
   19    9    8     -1.07      0.00
   21    9    8     -0.16      0.00
   23    9    8      0.33      0.00
  -24   10    8      0.79      0.00
  -22   10    8      0.10      0.00
  -20   10    8     -1.37      0.00
  -18   10    8     -3.31      0.00
  -16   10    8     -5.07      0.00
  -14   10    8     -5.79      0.00
  -12   10    8     -5.13      0.00
  -10   10    8     -3.76      0.00
   -8   10    8     -2.35      0.00
   -6   10    8     -0.83      0.00
   -4   10    8      0.82      0.00
   -2   10    8      2.01      0.00
    0   10    8      2.44      0.00
    2   10    8      2.59      0.00
    4   10    8      2.88      0.00
    6   10    8      3.35      0.00
    8   10    8      4.06      0.00
   10   10    8      4.90      0.00
   12   10    8      5.14      0.00
   14   10    8      4.29      0.00
   16   10    8      2.78      0.00
   18   10    8      1.23      0.00
   20   10    8     -0.10      0.00
   22   10    8     -0.84      0.00
  -21   11    8      0.35      0.00
  -19   11    8      1.26      0.00
  -17   11    8      2.55      0.00
  -15   11    8      3.36      0.00
  -13   11    8      2.97      0.00
  -11   11    8      1.70      0.00
   -9   11    8      0.49      0.00
   -7   11    8     -0.36      0.00
   -5   11    8     -1.17      0.00
   -3   11    8     -1.86      0.00
   -1   11    8     -2.05      0.00
    1   11    8     -1.91      0.00
    3   11    8     -1.94      0.00
    5   11    8     -2.20      0.00
    7   11    8     -2.50      0.00
    9   11    8     -2.72      0.00
   11   11    8     -2.65      0.00
   13   11    8     -2.10      0.00
   15   11    8     -1.22      0.00
   17   11    8     -0.37      0.00
   19   11    8      0.35      0.00
   21   11    8      0.82      0.00
  -20   12    8     -0.03      0.00
  -18   12    8     -0.23      0.00
  -16   12    8     -0.24      0.00
  -14   12    8      0.33      0.00
  -12   12    8      1.15      0.00
  -10   12    8      1.61      0.00
   -8   12    8      1.70      0.00
   -6   12    8      1.92      0.00
   -4   12    8      2.20      0.00
   -2   12    8      1.95      0.00
    0   12    8      1.06      0.00
    2   12    8      0.12      0.00
    4   12    8     -0.51      0.00
    6   12    8     -0.95      0.00
    8   12    8     -1.24      0.00
   10   12    8     -1.24      0.00
   12   12    8     -1.04      0.00
   14   12    8     -0.89      0.00
   16   12    8     -0.84      0.00
   18   12    8     -0.72      0.00
  -19   13    8     -0.10      0.00
  -17   13    8     -0.54      0.00
  -15   13    8     -1.52      0.00
  -13   13    8     -2.53      0.00
  -11   13    8     -2.68      0.00
   -9   13    8     -2.00      0.00
   -7   13    8     -1.42      0.00
   -5   13    8     -1.44      0.00
   -3   13    8     -1.53      0.00
   -1   13    8     -1.06      0.00
    1   13    8     -0.07      0.00
    3   13    8      1.05      0.00
    5   13    8      2.18      0.00
    7   13    8      3.13      0.00
    9   13    8      3.39      0.00
   11   13    8      2.74      0.00
   13   13    8      1.64      0.00
   15   13    8      0.81      0.00
   17   13    8      0.38      0.00
  -16   14    8      0.69      0.00
  -14   14    8      1.57      0.00
  -12   14    8      2.01      0.00
  -10   14    8      1.54      0.00
   -8   14    8      0.59      0.00
   -6   14    8     -0.07      0.00
   -4   14    8     -0.23      0.00
   -2   14    8     -0.11      0.00
    0   14    8     -0.01      0.00
    2   14    8     -0.25      0.00
    4   14    8     -0.94      0.00
    6   14    8     -1.82      0.00
    8   14    8     -2.37      0.00
   10   14    8     -2.18      0.00
   12   14    8     -1.26      0.00
   14   14    8     -0.19      0.00
  -13   15    8     -0.72      0.00
  -11   15    8     -0.64      0.00
   -9   15    8     -0.15      0.00
   -7   15    8      0.49      0.00
   -5   15    8      1.13      0.00
   -3   15    8      1.41      0.00
   -1   15    8      1.03      0.00
    1   15    8      0.38      0.00
    3   15    8      0.08      0.00
    5   15    8      0.18      0.00
    7   15    8      0.26      0.00
    9   15    8      0.23      0.00
   11   15    8      0.12      0.00
   13   15    8     -0.17      0.00
  -10   16    8     -0.13      0.00
   -8   16    8     -0.32      0.00
   -6   16    8     -0.54      0.00
   -4   16    8     -0.95      0.00
   -2   16    8     -1.08      0.00
    0   16    8     -0.65      0.00
    2   16    8     -0.16      0.00
    4   16    8      0.06      0.00
    6   16    8      0.30      0.00
    8   16    8      0.67      0.00
   -3   17    8      0.05      0.00
   -1   17    8      0.10      0.00
    1   17    8     -0.04      0.00
    3   17    8     -0.05      0.00
  -28    0    9     -1.79      0.00
  -26    0    9     -0.79      0.00
  -24    0    9      1.77      0.00
  -22    0    9      4.58      0.00
  -20    0    9      6.93      0.00
  -18    0    9      8.12      0.00
  -16    0    9      7.45      0.00
  -14    0    9      5.39      0.00
  -12    0    9      2.91      0.00
   -8    0    9     -3.34      0.00
   -6    0    9     -5.74      0.00
   -4    0    9     -6.23      0.00
   -2    0    9     -5.89      0.00
    0    0    9     -5.97      0.00
    2    0    9     -6.18      0.00
    4    0    9     -5.71      0.00
    6    0    9     -4.29      0.00
    8    0    9     -1.63      0.00
   10    0    9      2.01      0.00
   12    0    9      5.16      0.00
   14    0    9      6.55      0.00
   16    0    9      6.55      0.00
   18    0    9      5.90      0.00
   20    0    9      4.33      0.00
   22    0    9      1.95      0.00
   24    0    9      0.07      0.00
   26    0    9     -0.50      0.00
  -29    1    9      1.04      0.00
  -27    1    9      0.87      0.00
  -25    1    9     -0.68      0.00
  -23    1    9     -2.47      0.00
  -21    1    9     -3.90      0.00
  -19    1    9     -4.82      0.00
  -17    1    9     -4.58      0.00
  -15    1    9     -3.11      0.00
  -13    1    9     -1.49      0.00
  -11    1    9     -0.28      0.00
   -9    1    9      1.14      0.00
   -7    1    9      2.68      0.00
   -5    1    9      3.29      0.00
   -3    1    9      3.09      0.00
   -1    1    9      3.37      0.00
    1    1    9      4.37      0.00
    3    1    9      5.02      0.00
    5    1    9      4.60      0.00
    7    1    9      3.02      0.00
    9    1    9      0.35      0.00
   11    1    9     -2.47      0.00
   13    1    9     -3.99      0.00
   15    1    9     -4.01      0.00
   17    1    9     -3.58      0.00
   19    1    9     -3.03      0.00
   21    1    9     -1.82      0.00
   23    1    9     -0.27      0.00
   25    1    9      0.58      0.00
   27    1    9      0.58      0.00
  -28    2    9      0.14      0.00
  -26    2    9      0.84      0.00
  -24    2    9      1.01      0.00
  -22    2    9      0.18      0.00
  -20    2    9     -0.98      0.00
  -18    2    9     -2.19      0.00
  -16    2    9     -3.62      0.00
  -14    2    9     -4.43      0.00
  -12    2    9     -3.51      0.00
  -10    2    9     -1.37      0.00
   -8    2    9      0.59      0.00
   -6    2    9      1.94      0.00
   -4    2    9      2.73      0.00
   -2    2    9      2.33      0.00
    0    2    9      0.51      0.00
    2    2    9     -1.46      0.00
    4    2    9     -2.21      0.00
    6    2    9     -1.76      0.00
    8    2    9     -0.78      0.00
   10    2    9      0.18      0.00
   12    2    9      0.39      0.00
   14    2    9     -0.43      0.00
   16    2    9     -1.32      0.00
   18    2    9     -1.25      0.00
   20    2    9     -0.65      0.00
   22    2    9     -0.54      0.00
   24    2    9     -0.82      0.00
   26    2    9     -0.84      0.00
  -27    3    9     -1.21      0.00
  -25    3    9     -0.68      0.00
  -23    3    9      1.24      0.00
  -21    3    9      3.85      0.00
  -19    3    9      6.26      0.00
  -17    3    9      8.10      0.00
  -15    3    9      8.82      0.00
  -13    3    9      7.49      0.00
  -11    3    9      4.12      0.00
   -9    3    9      0.10      0.00
   -7    3    9     -3.18      0.00
   -5    3    9     -5.15      0.00
   -3    3    9     -5.52      0.00
   -1    3    9     -4.26      0.00
    1    3    9     -2.52      0.00
    3    3    9     -1.87      0.00
    5    3    9     -2.42      0.00
    7    3    9     -2.81      0.00
    9    3    9     -2.08      0.00
   11    3    9     -0.43      0.00
   13    3    9      1.56      0.00
   15    3    9      3.22      0.00
   17    3    9      3.62      0.00
   19    3    9      2.56      0.00
   21    3    9      1.19      0.00
   23    3    9      0.63      0.00
   25    3    9      0.63      0.00
  -28    4    9      1.07      0.00
  -26    4    9      0.22      0.00
  -24    4    9     -1.55      0.00
  -22    4    9     -3.48      0.00
  -20    4    9     -5.10      0.00
  -18    4    9     -6.27      0.00
  -16    4    9     -6.57      0.00
  -14    4    9     -5.48      0.00
  -12    4    9     -3.24      0.00
  -10    4    9     -0.77      0.00
   -8    4    9      1.14      0.00
   -6    4    9      2.31      0.00
   -4    4    9      2.88      0.00
   -2    4    9      2.98      0.00
    0    4    9      2.98      0.00
    2    4    9      3.58      0.00
    4    4    9      4.93      0.00
    6    4    9      5.98      0.00
    8    4    9      5.37      0.00
   10    4    9      3.14      0.00
   12    4    9      0.58      0.00
   14    4    9     -1.39      0.00
   16    4    9     -2.42      0.00
   18    4    9     -2.19      0.00
   20    4    9     -0.89      0.00
   22    4    9      0.29      0.00
   24    4    9      0.49      0.00
   26    4    9      0.25      0.00
  -27    5    9      0.20      0.00
  -25    5    9      1.85      0.00
  -23    5    9      2.76      0.00
  -21    5    9      2.25      0.00
  -19    5    9      1.09      0.00
  -17    5    9     -0.17      0.00
  -15    5    9     -1.66      0.00
  -13    5    9     -3.00      0.00
  -11    5    9     -3.20      0.00
   -9    5    9     -1.94      0.00
   -7    5    9      0.03      0.00
   -5    5    9      1.52      0.00
   -3    5    9      1.68      0.00
   -1    5    9      0.49      0.00
    1    5    9     -1.33      0.00
    3    5    9     -3.05      0.00
    5    5    9     -4.18      0.00
    7    5    9     -4.18      0.00
    9    5    9     -2.87      0.00
   11    5    9     -1.05      0.00
   13    5    9      0.25      0.00
   15    5    9      0.94      0.00
   17    5    9      1.15      0.00
   19    5    9      0.54      0.00
   21    5    9     -0.72      0.00
   23    5    9     -1.47      0.00
   25    5    9     -1.18      0.00
  -26    6    9     -1.54      0.00
  -24    6    9     -2.25      0.00
  -22    6    9     -0.96      0.00
  -20    6    9      1.89      0.00
  -18    6    9      4.85      0.00
  -16    6    9      7.16      0.00
  -14    6    9      8.41      0.00
  -12    6    9      7.90      0.00
  -10    6    9      5.37      0.00
   -8    6    9      1.69      0.00
   -6    6    9     -1.72      0.00
   -4    6    9     -3.65      0.00
   -2    6    9     -3.61      0.00
    0    6    9     -2.25      0.00
    2    6    9     -0.93      0.00
    4    6    9     -0.43      0.00
    6    6    9     -0.71      0.00
    8    6    9     -1.45      0.00
   10    6    9     -2.24      0.00
   12    6    9     -2.53      0.00
   14    6    9     -2.22      0.00
   16    6    9     -1.67      0.00
   18    6    9     -0.92      0.00
   20    6    9      0.22      0.00
   22    6    9      1.23      0.00
   24    6    9      1.32      0.00
  -25    7    9      1.14      0.00
  -23    7    9      0.35      0.00
  -21    7    9     -1.77      0.00
  -19    7    9     -4.40      0.00
  -17    7    9     -6.54      0.00
  -15    7    9     -7.59      0.00
  -13    7    9     -7.15      0.00
  -11    7    9     -5.22      0.00
   -9    7    9     -2.53      0.00
   -7    7    9     -0.09      0.00
   -5    7    9      1.61      0.00
   -3    7    9      2.58      0.00
   -1    7    9      2.93      0.00
    1    7    9      2.96      0.00
    3    7    9      3.13      0.00
    5    7    9      3.68      0.00
    7    7    9      4.37      0.00
    9    7    9      4.72      0.00
   11    7    9      4.48      0.00
   13    7    9      3.78      0.00
   15    7    9      2.81      0.00
   17    7    9      1.64      0.00
   19    7    9      0.38      0.00
   21    7    9     -0.56      0.00
   23    7    9     -0.75      0.00
  -24    8    9      0.63      0.00
  -22    8    9      1.33      0.00
  -20    8    9      1.88      0.00
  -18    8    9      2.17      0.00
  -16    8    9      2.06      0.00
  -14    8    9      1.41      0.00
  -12    8    9      0.29      0.00
  -10    8    9     -0.86      0.00
   -8    8    9     -1.37      0.00
   -6    8    9     -1.04      0.00
   -4    8    9     -0.56      0.00
   -2    8    9     -0.71      0.00
    0    8    9     -1.40      0.00
    2    8    9     -1.99      0.00
    4    8    9     -2.36      0.00
    6    8    9     -2.65      0.00
    8    8    9     -2.62      0.00
   10    8    9     -2.05      0.00
   12    8    9     -1.37      0.00
   14    8    9     -1.03      0.00
   16    8    9     -0.75      0.00
   18    8    9     -0.18      0.00
   20    8    9      0.31      0.00
   22    8    9      0.32      0.00
  -23    9    9     -1.42      0.00
  -21    9    9     -0.76      0.00
  -19    9    9      0.65      0.00
  -17    9    9      2.38      0.00
  -15    9    9      3.91      0.00
  -13    9    9      4.76      0.00
  -11    9    9      4.81      0.00
   -9    9    9      4.22      0.00
   -7    9    9      2.97      0.00
   -5    9    9      1.28      0.00
   -3    9    9     -0.05      0.00
   -1    9    9     -0.49      0.00
    1    9    9     -0.54      0.00
    3    9    9     -0.80      0.00
    5    9    9     -1.19      0.00
    7    9    9     -1.70      0.00
    9    9    9     -2.52      0.00
   11    9    9     -3.25      0.00
   13    9    9     -3.09      0.00
   15    9    9     -2.16      0.00
   17    9    9     -1.27      0.00
   19    9    9     -0.68      0.00
   21    9    9     -0.14      0.00
   23    9    9      0.23      0.00
  -22   10    9      0.62      0.00
  -20   10    9     -0.56      0.00
  -18   10    9     -2.48      0.00
  -16   10    9     -4.60      0.00
  -14   10    9     -5.83      0.00
  -12   10    9     -5.57      0.00
  -10   10    9     -4.36      0.00
   -8   10    9     -3.01      0.00
   -6   10    9     -1.72      0.00
   -4   10    9     -0.51      0.00
   -2   10    9      0.35      0.00
    0   10    9      0.97      0.00
    2   10    9      1.80      0.00
    4   10    9      2.84      0.00
    6   10    9      3.79      0.00
    8   10    9      4.61      0.00
   10   10    9      5.14      0.00
   12   10    9      4.82      0.00
   14   10    9      3.58      0.00
   16   10    9      2.17      0.00
   18   10    9      1.07      0.00
   20   10    9      0.15      0.00
  -21   11    9     -0.09      0.00
  -19   11    9      0.58      0.00
  -17   11    9      1.86      0.00
  -15   11    9      2.97      0.00
  -13   11    9      2.97      0.00
  -11   11    9      1.93      0.00
   -9   11    9      0.69      0.00
   -7   11    9     -0.21      0.00
   -5   11    9     -0.72      0.00
   -3   11    9     -0.79      0.00
   -1   11    9     -0.54      0.00
    1   11    9     -0.56      0.00
    3   11    9     -1.18      0.00
    5   11    9     -2.04      0.00
    7   11    9     -2.68      0.00
    9   11    9     -2.92      0.00
   11   11    9     -2.58      0.00
   13   11    9     -1.67      0.00
   15   11    9     -0.74      0.00
   17   11    9     -0.22      0.00
   19   11    9      0.08      0.00
  -20   12    9      0.31      0.00
  -18   12    9      0.16      0.00
  -16   12    9      0.01      0.00
  -14   12    9      0.32      0.00
  -12   12    9      0.98      0.00
  -10   12    9      1.50      0.00
   -8   12    9      1.80      0.00
   -6   12    9      2.11      0.00
   -4   12    9      2.17      0.00
   -2   12    9      1.49      0.00
    0   12    9      0.38      0.00
    2   12    9     -0.38      0.00
    4   12    9     -0.57      0.00
    6   12    9     -0.64      0.00
    8   12    9     -0.82      0.00
   10   12    9     -1.05      0.00
   12   12    9     -1.22      0.00
   14   12    9     -1.27      0.00
   16   12    9     -1.07      0.00
   18   12    9     -0.65      0.00
  -17   13    9     -0.63      0.00
  -15   13    9     -1.38      0.00
  -13   13    9     -2.21      0.00
  -11   13    9     -2.40      0.00
   -9   13    9     -1.96      0.00
   -7   13    9     -1.64      0.00
   -5   13    9     -1.75      0.00
   -3   13    9     -1.70      0.00
   -1   13    9     -1.02      0.00
    1   13    9     -0.01      0.00
    3   13    9      0.85      0.00
    5   13    9      1.58      0.00
    7   13    9      2.34      0.00
    9   13    9      2.82      0.00
   11   13    9      2.64      0.00
   13   13    9      1.90      0.00
   15   13    9      1.12      0.00
   17   13    9      0.52      0.00
  -16   14    9      0.67      0.00
  -14   14    9      1.37      0.00
  -12   14    9      1.73      0.00
  -10   14    9      1.41      0.00
   -8   14    9      0.80      0.00
   -6   14    9      0.37      0.00
   -4   14    9      0.19      0.00
   -2   14    9      0.08      0.00
    0   14    9     -0.03      0.00
    2   14    9     -0.20      0.00
    4   14    9     -0.49      0.00
    6   14    9     -0.97      0.00
    8   14    9     -1.49      0.00
   10   14    9     -1.65      0.00
   12   14    9     -1.20      0.00
   14   14    9     -0.45      0.00
  -13   15    9     -0.58      0.00
  -11   15    9     -0.55      0.00
   -9   15    9     -0.38      0.00
   -7   15    9     -0.05      0.00
   -5   15    9      0.53      0.00
   -3   15    9      1.07      0.00
   -1   15    9      1.09      0.00
    1   15    9      0.67      0.00
    3   15    9      0.20      0.00
    5   15    9     -0.18      0.00
    7   15    9     -0.47      0.00
    9   15    9     -0.50      0.00
   11   15    9     -0.29      0.00
   -8   16    9      0.09      0.00
   -6   16    9     -0.03      0.00
   -4   16    9     -0.62      0.00
   -2   16    9     -1.12      0.00
    0   16    9     -1.09      0.00
    2   16    9     -0.70      0.00
    4   16    9     -0.16      0.00
    6   16    9      0.59      0.00
    8   16    9      1.22      0.00
  -28    0   10     -1.82      0.00
  -26    0   10     -1.48      0.00
  -24    0   10     -0.13      0.00
  -22    0   10      1.74      0.00
  -20    0   10      3.99      0.00
  -18    0   10      5.68      0.00
  -16    0   10      5.69      0.00
  -14    0   10      4.33      0.00
  -12    0   10      2.80      0.00
  -10    0   10      1.38      0.00
   -8    0   10     -0.13      0.00
   -6    0   10     -1.46      0.00
   -4    0   10     -2.46      0.00
   -2    0   10     -3.27      0.00
    0    0   10     -3.46      0.00
    2    0   10     -2.60      0.00
    4    0   10     -1.56      0.00
    6    0   10     -1.16      0.00
    8    0   10     -0.50      0.00
   10    0   10      1.39      0.00
   12    0   10      3.60      0.00
   14    0   10      4.73      0.00
   16    0   10      4.75      0.00
   18    0   10      3.99      0.00
   20    0   10      2.35      0.00
   22    0   10      0.36      0.00
   24    0   10     -0.69      0.00
   26    0   10     -0.60      0.00
  -27    1   10      1.13      0.00
  -25    1   10      0.18      0.00
  -23    1   10     -0.86      0.00
  -21    1   10     -1.92      0.00
  -19    1   10     -3.01      0.00
  -17    1   10     -3.29      0.00
  -15    1   10     -2.42      0.00
  -13    1   10     -1.37      0.00
  -11    1   10     -0.85      0.00
   -9    1   10     -0.49      0.00
   -7    1   10      0.02      0.00
   -5    1   10      0.56      0.00
   -3    1   10      1.28      0.00
   -1    1   10      2.10      0.00
    1    1   10      2.24      0.00
    3    1   10      1.55      0.00
    5    1   10      1.02      0.00
    7    1   10      0.88      0.00
    9    1   10      0.07      0.00
   11    1   10     -1.59      0.00
   13    1   10     -2.86      0.00
   15    1   10     -3.02      0.00
   17    1   10     -2.51      0.00
   19    1   10     -1.56      0.00
   21    1   10     -0.21      0.00
   23    1   10      0.81      0.00
   25    1   10      0.86      0.00
  -28    2   10     -0.10      0.00
  -26    2   10      0.82      0.00
  -24    2   10      1.15      0.00
  -22    2   10      0.37      0.00
  -20    2   10     -0.76      0.00
  -18    2   10     -1.78      0.00
  -16    2   10     -2.84      0.00
  -14    2   10     -3.43      0.00
  -12    2   10     -2.74      0.00
  -10    2   10     -1.07      0.00
   -8    2   10      0.58      0.00
   -6    2   10      1.64      0.00
   -4    2   10      1.86      0.00
   -2    2   10      1.03      0.00
    0    2   10     -0.14      0.00
    2    2   10     -0.47      0.00
    4    2   10      0.04      0.00
    6    2   10      0.28      0.00
    8    2   10      0.03      0.00
   10    2   10      0.04      0.00
   12    2   10      0.32      0.00
   14    2   10      0.13      0.00
   16    2   10     -0.57      0.00
   18    2   10     -1.12      0.00
   20    2   10     -1.35      0.00
   22    2   10     -1.43      0.00
   24    2   10     -1.20      0.00
   26    2   10     -0.70      0.00
  -27    3   10     -1.39      0.00
  -25    3   10     -1.57      0.00
  -23    3   10     -0.20      0.00
  -21    3   10      2.15      0.00
  -19    3   10      4.39      0.00
  -17    3   10      6.01      0.00
  -15    3   10      6.70      0.00
  -13    3   10      5.94      0.00
  -11    3   10      3.77      0.00
   -9    3   10      1.12      0.00
   -7    3   10     -0.97      0.00
   -5    3   10     -2.05      0.00
   -3    3   10     -1.99      0.00
   -1    3   10     -1.15      0.00
    1    3   10     -0.65      0.00
    3    3   10     -1.32      0.00
    5    3   10     -2.39      0.00
    7    3   10     -2.45      0.00
    9    3   10     -1.46      0.00
   11    3   10     -0.40      0.00
   13    3   10      0.38      0.00
   15    3   10      1.23      0.00
   17    3   10      1.89      0.00
   19    3   10      1.82      0.00
   21    3   10      1.26      0.00
   23    3   10      0.82      0.00
   25    3   10      0.52      0.00
  -26    4   10      1.07      0.00
  -24    4   10     -0.23      0.00
  -22    4   10     -2.03      0.00
  -20    4   10     -3.55      0.00
  -18    4   10     -4.47      0.00
  -16    4   10     -4.64      0.00
  -14    4   10     -3.97      0.00
  -12    4   10     -2.63      0.00
  -10    4   10     -1.24      0.00
   -8    4   10     -0.41      0.00
   -6    4   10     -0.31      0.00
   -4    4   10     -0.56      0.00
   -2    4   10     -0.58      0.00
    0    4   10      0.02      0.00
    2    4   10      1.38      0.00
    4    4   10      3.03      0.00
    6    4   10      3.83      0.00
    8    4   10      3.12      0.00
   10    4   10      1.71      0.00
   12    4   10      0.77      0.00
   14    4   10      0.27      0.00
   16    4   10     -0.30      0.00
   18    4   10     -0.63      0.00
   20    4   10     -0.25      0.00
   22    4   10      0.33      0.00
   24    4   10      0.46      0.00
  -27    5   10     -0.38      0.00
  -25    5   10      0.99      0.00
  -23    5   10      2.18      0.00
  -21    5   10      2.13      0.00
  -19    5   10      1.07      0.00
  -17    5   10     -0.41      0.00
  -15    5   10     -1.98      0.00
  -13    5   10     -3.07      0.00
  -11    5   10     -3.03      0.00
   -9    5   10     -1.72      0.00
   -7    5   10      0.39      0.00
   -5    5   10      2.35      0.00
   -3    5   10      3.03      0.00
   -1    5   10      1.98      0.00
    1    5   10     -0.05      0.00
    3    5   10     -1.80      0.00
    5    5   10     -2.43      0.00
    7    5   10     -1.74      0.00
    9    5   10     -0.43      0.00
   11    5   10      0.28      0.00
   13    5   10     -0.01      0.00
   15    5   10     -0.37      0.00
   17    5   10     -0.21      0.00
   19    5   10     -0.17      0.00
   21    5   10     -0.70      0.00
   23    5   10     -1.15      0.00
   25    5   10     -1.02      0.00
  -26    6   10     -1.00      0.00
  -24    6   10     -2.00      0.00
  -22    6   10     -1.49      0.00
  -20    6   10      0.61      0.00
  -18    6   10      3.37      0.00
  -16    6   10      5.94      0.00
  -14    6   10      7.55      0.00
  -12    6   10      7.37      0.00
  -10    6   10      5.36      0.00
   -8    6   10      2.42      0.00
   -6    6   10     -0.35      0.00
   -4    6   10     -2.07      0.00
   -2    6   10     -2.18      0.00
    0    6   10     -1.00      0.00
    2    6   10      0.21      0.00
    4    6   10      0.33      0.00
    6    6   10     -0.81      0.00
    8    6   10     -2.45      0.00
   10    6   10     -3.44      0.00
   12    6   10     -3.07      0.00
   14    6   10     -1.93      0.00
   16    6   10     -1.08      0.00
   18    6   10     -0.66      0.00
   20    6   10     -0.08      0.00
   22    6   10      0.64      0.00
   24    6   10      0.89      0.00
  -25    7   10      0.91      0.00
  -23    7   10      0.59      0.00
  -21    7   10     -0.78      0.00
  -19    7   10     -2.77      0.00
  -17    7   10     -4.80      0.00
  -15    7   10     -6.25      0.00
  -13    7   10     -6.34      0.00
  -11    7   10     -4.89      0.00
   -9    7   10     -2.80      0.00
   -7    7   10     -1.25      0.00
   -5    7   10     -0.51      0.00
   -3    7   10     -0.19      0.00
   -1    7   10     -0.04      0.00
    1    7   10      0.06      0.00
    3    7   10      0.45      0.00
    5    7   10      1.51      0.00
    7    7   10      3.01      0.00
    9    7   10      4.16      0.00
   11    7   10      4.33      0.00
   13    7   10      3.68      0.00
   15    7   10      2.78      0.00
   17    7   10      1.91      0.00
   19    7   10      1.02      0.00
   21    7   10      0.20      0.00
   23    7   10     -0.22      0.00
  -24    8   10      0.72      0.00
  -22    8   10      1.19      0.00
  -20    8   10      1.35      0.00
  -18    8   10      1.33      0.00
  -16    8   10      1.22      0.00
  -14    8   10      0.85      0.00
  -12    8   10      0.01      0.00
  -10    8   10     -0.98      0.00
   -8    8   10     -1.23      0.00
   -6    8   10     -0.37      0.00
   -4    8   10      0.82      0.00
   -2    8   10      1.25      0.00
    0    8   10      0.89      0.00
    2    8   10      0.34      0.00
    4    8   10     -0.20      0.00
    6    8   10     -0.83      0.00
    8    8   10     -1.26      0.00
   10    8   10     -1.21      0.00
   12    8   10     -1.02      0.00
   14    8   10     -1.10      0.00
   16    8   10     -1.21      0.00
   18    8   10     -0.97      0.00
   20    8   10     -0.55      0.00
   22    8   10     -0.26      0.00
  -23    9   10     -1.68      0.00
  -21    9   10     -1.09      0.00
  -19    9   10      0.34      0.00
  -17    9   10      2.12      0.00
  -15    9   10      3.65      0.00
  -13    9   10      4.49      0.00
  -11    9   10      4.66      0.00
   -9    9   10      4.26      0.00
   -7    9   10      3.13      0.00
   -5    9   10      1.46      0.00
   -3    9   10      0.05      0.00
   -1    9   10     -0.58      0.00
    1    9   10     -0.85      0.00
    3    9   10     -1.21      0.00
    5    9   10     -1.58      0.00
    7    9   10     -2.01      0.00
    9    9   10     -2.73      0.00
   11    9   10     -3.27      0.00
   13    9   10     -2.89      0.00
   15    9   10     -1.74      0.00
   17    9   10     -0.64      0.00
   19    9   10      0.05      0.00
   21    9   10      0.40      0.00
  -22   10   10      1.05      0.00
  -20   10   10      0.08      0.00
  -18   10   10     -1.68      0.00
  -16   10   10     -3.69      0.00
  -14   10   10     -4.93      0.00
  -12   10   10     -4.89      0.00
  -10   10   10     -4.03      0.00
   -8   10   10     -3.01      0.00
   -6   10   10     -1.99      0.00
   -4   10   10     -1.13      0.00
   -2   10   10     -0.61      0.00
    0   10   10     -0.14      0.00
    2   10   10      0.69      0.00
    4   10   10      1.73      0.00
    6   10   10      2.70      0.00
    8   10   10      3.70      0.00
   10   10   10      4.49      0.00
   12   10   10      4.37      0.00
   14   10   10      3.23      0.00
   16   10   10      1.82      0.00
   18   10   10      0.66      0.00
   20   10   10     -0.18      0.00
  -21   11   10     -0.40      0.00
  -19   11   10      0.09      0.00
  -17   11   10      1.19      0.00
  -15   11   10      2.16      0.00
  -13   11   10      2.19      0.00
  -11   11   10      1.43      0.00
   -9   11   10      0.54      0.00
   -7   11   10     -0.14      0.00
   -5   11   10     -0.52      0.00
   -3   11   10     -0.40      0.00
   -1   11   10      0.11      0.00
    1   11   10      0.36      0.00
    3   11   10      0.03      0.00
    5   11   10     -0.61      0.00
    7   11   10     -1.37      0.00
    9   11   10     -2.05      0.00
   11   11   10     -2.18      0.00
   13   11   10     -1.54      0.00
   15   11   10     -0.69      0.00
   17   11   10     -0.14      0.00
   19   11   10      0.19      0.00
  -20   12   10      0.31      0.00
  -18   12   10      0.19      0.00
  -16   12   10      0.09      0.00
  -14   12   10      0.51      0.00
  -12   12   10      1.18      0.00
  -10   12   10      1.51      0.00
   -8   12   10      1.56      0.00
   -6   12   10      1.82      0.00
   -4   12   10      2.09      0.00
   -2   12   10      1.72      0.00
    0   12   10      0.67      0.00
    2   12   10     -0.42      0.00
    4   12   10     -1.11      0.00
    6   12   10     -1.41      0.00
    8   12   10     -1.39      0.00
   10   12   10     -1.19      0.00
   12   12   10     -1.08      0.00
   14   12   10     -1.06      0.00
   16   12   10     -0.88      0.00
   18   12   10     -0.54      0.00
  -17   13   10     -0.22      0.00
  -15   13   10     -1.02      0.00
  -13   13   10     -2.02      0.00
  -11   13   10     -2.27      0.00
   -9   13   10     -1.64      0.00
   -7   13   10     -1.11      0.00
   -5   13   10     -1.36      0.00
   -3   13   10     -1.90      0.00
   -1   13   10     -1.85      0.00
    1   13   10     -0.98      0.00
    3   13   10      0.27      0.00
    5   13   10      1.47      0.00
    7   13   10      2.41      0.00
    9   13   10      2.79      0.00
   11   13   10      2.46      0.00
   13   13   10      1.64      0.00
   15   13   10      0.83      0.00
  -14   14   10      1.17      0.00
  -12   14   10      1.74      0.00
  -10   14   10      1.39      0.00
   -8   14   10      0.51      0.00
   -6   14   10     -0.07      0.00
   -4   14   10      0.09      0.00
   -2   14   10      0.68      0.00
    0   14   10      1.05      0.00
    2   14   10      0.82      0.00
    4   14   10      0.10      0.00
    6   14   10     -0.80      0.00
    8   14   10     -1.54      0.00
   10   14   10     -1.69      0.00
   12   14   10     -1.09      0.00
  -11   15   10     -0.92      0.00
   -9   15   10     -0.59      0.00
   -7   15   10      0.05      0.00
   -5   15   10      0.69      0.00
   -3   15   10      0.83      0.00
   -1   15   10      0.33      0.00
    1   15   10     -0.26      0.00
    3   15   10     -0.42      0.00
    5   15   10     -0.29      0.00
    7   15   10     -0.13      0.00
    9   15   10     -0.01      0.00
   -8   16   10      0.29      0.00
   -6   16   10     -0.22      0.00
   -4   16   10     -0.78      0.00
   -2   16   10     -0.84      0.00
    0   16   10     -0.42      0.00
    2   16   10     -0.10      0.00
    4   16   10     -0.02      0.00
  -28    0   11     -1.76      0.00
  -26    0   11     -2.15      0.00
  -24    0   11     -1.88      0.00
  -22    0   11     -0.85      0.00
  -20    0   11      1.14      0.00
  -18    0   11      3.22      0.00
  -16    0   11      4.09      0.00
  -14    0   11      3.62      0.00
  -12    0   11      2.50      0.00
  -10    0   11      1.36      0.00
   -8    0   11      0.91      0.00
   -6    0   11      1.53      0.00
   -4    0   11      2.27      0.00
   -2    0   11      1.90      0.00
    0    0   11      0.71      0.00
    2    0   11     -0.25      0.00
    4    0   11     -0.85      0.00
    6    0   11     -1.01      0.00
    8    0   11     -0.03      0.00
   10    0   11      1.81      0.00
   12    0   11      2.82      0.00
   14    0   11      2.50      0.00
   16    0   11      2.14      0.00
   18    0   11      2.17      0.00
   20    0   11      1.48      0.00
   22    0   11      0.02      0.00
   24    0   11     -0.85      0.00
   26    0   11     -0.59      0.00
  -27    1   11      1.45      0.00
  -25    1   11      1.17      0.00
  -23    1   11      0.67      0.00
  -21    1   11     -0.17      0.00
  -19    1   11     -1.34      0.00
  -17    1   11     -2.08      0.00
  -15    1   11     -1.98      0.00
  -13    1   11     -1.49      0.00
  -11    1   11     -1.02      0.00
   -9    1   11     -0.76      0.00
   -7    1   11     -1.23      0.00
   -5    1   11     -2.30      0.00
   -3    1   11     -2.67      0.00
   -1    1   11     -1.63      0.00
    1    1   11     -0.11      0.00
    3    1   11      0.84      0.00
    5    1   11      1.17      0.00
    7    1   11      0.77      0.00
    9    1   11     -0.49      0.00
   11    1   11     -1.66      0.00
   13    1   11     -1.68      0.00
   15    1   11     -1.09      0.00
   17    1   11     -0.94      0.00
   19    1   11     -0.83      0.00
   21    1   11      0.02      0.00
   23    1   11      0.93      0.00
   25    1   11      0.90      0.00
  -28    2   11     -0.42      0.00
  -26    2   11      0.30      0.00
  -24    2   11      0.88      0.00
  -22    2   11      0.63      0.00
  -20    2   11     -0.16      0.00
  -18    2   11     -1.10      0.00
  -16    2   11     -1.94      0.00
  -14    2   11     -2.17      0.00
  -12    2   11     -1.56      0.00
  -10    2   11     -0.62      0.00
   -8    2   11      0.37      0.00
   -6    2   11      1.66      0.00
   -4    2   11      2.77      0.00
   -2    2   11      2.47      0.00
    0    2   11      0.71      0.00
    2    2   11     -0.95      0.00
    4    2   11     -1.37      0.00
    6    2   11     -0.87      0.00
    8    2   11     -0.15      0.00
   10    2   11      0.36      0.00
   12    2   11      0.25      0.00
   14    2   11     -0.44      0.00
   16    2   11     -0.95      0.00
   18    2   11     -0.88      0.00
   20    2   11     -0.82      0.00
   22    2   11     -1.10      0.00
   24    2   11     -1.13      0.00
  -27    3   11     -0.98      0.00
  -25    3   11     -1.72      0.00
  -23    3   11     -1.37      0.00
  -21    3   11      0.14      0.00
  -19    3   11      2.13      0.00
  -17    3   11      3.83      0.00
  -15    3   11      4.58      0.00
  -13    3   11      4.05      0.00
  -11    3   11      2.69      0.00
   -9    3   11      1.35      0.00
   -7    3   11      0.29      0.00
   -5    3   11     -0.68      0.00
   -3    3   11     -1.11      0.00
   -1    3   11     -0.38      0.00
    1    3   11      0.94      0.00
    3    3   11      1.41      0.00
    5    3   11      0.66      0.00
    7    3   11     -0.31      0.00
    9    3   11     -0.62      0.00
   11    3   11     -0.33      0.00
   13    3   11      0.27      0.00
   15    3   11      0.88      0.00
   17    3   11      1.00      0.00
   19    3   11      0.57      0.00
   21    3   11      0.26      0.00
   23    3   11      0.42      0.00
   25    3   11      0.47      0.00
  -26    4   11      1.23      0.00
  -24    4   11      0.76      0.00
  -22    4   11     -0.36      0.00
  -20    4   11     -1.63      0.00
  -18    4   11     -2.65      0.00
  -16    4   11     -3.03      0.00
  -14    4   11     -2.67      0.00
  -12    4   11     -1.87      0.00
  -10    4   11     -1.25      0.00
   -8    4   11     -1.25      0.00
   -6    4   11     -1.64      0.00
   -4    4   11     -1.86      0.00
   -2    4   11     -1.72      0.00
    0    4   11     -1.50      0.00
    2    4   11     -1.17      0.00
    4    4   11     -0.43      0.00
    6    4   11      0.38      0.00
    8    4   11      0.67      0.00
   10    4   11      0.51      0.00
   12    4   11      0.41      0.00
   14    4   11      0.42      0.00
   16    4   11      0.39      0.00
   18    4   11      0.61      0.00
   20    4   11      1.03      0.00
   22    4   11      1.00      0.00
   24    4   11      0.45      0.00
  -25    5   11      0.35      0.00
  -23    5   11      1.33      0.00
  -21    5   11      1.54      0.00
  -19    5   11      0.97      0.00
  -17    5   11     -0.13      0.00
  -15    5   11     -1.48      0.00
  -13    5   11     -2.43      0.00
  -11    5   11     -2.36      0.00
   -9    5   11     -1.13      0.00
   -7    5   11      0.78      0.00
   -5    5   11      2.46      0.00
   -3    5   11      2.92      0.00
   -1    5   11      2.04      0.00
    1    5   11      0.70      0.00
    3    5   11     -0.18      0.00
    5    5   11     -0.29      0.00
    7    5   11      0.30      0.00
    9    5   11      1.07      0.00
   11    5   11      1.20      0.00
   13    5   11      0.45      0.00
   15    5   11     -0.42      0.00
   17    5   11     -0.91      0.00
   19    5   11     -1.21      0.00
   21    5   11     -1.37      0.00
   23    5   11     -1.10      0.00
  -26    6   11     -0.54      0.00
  -24    6   11     -1.60      0.00
  -22    6   11     -1.62      0.00
  -20    6   11     -0.39      0.00
  -18    6   11      1.55      0.00
  -16    6   11      3.77      0.00
  -14    6   11      5.52      0.00
  -12    6   11      5.80      0.00
  -10    6   11      4.40      0.00
   -8    6   11      2.17      0.00
   -6    6   11      0.20      0.00
   -4    6   11     -0.76      0.00
   -2    6   11     -0.48      0.00
    0    6   11      0.51      0.00
    2    6   11      1.19      0.00
    4    6   11      0.85      0.00
    6    6   11     -0.51      0.00
    8    6   11     -2.28      0.00
   10    6   11     -3.46      0.00
   12    6   11     -3.31      0.00
   14    6   11     -2.18      0.00
   16    6   11     -0.96      0.00
   18    6   11     -0.11      0.00
   20    6   11      0.45      0.00
   22    6   11      0.67      0.00
   24    6   11      0.53      0.00
  -25    7   11      0.72      0.00
  -23    7   11      0.79      0.00
  -21    7   11      0.09      0.00
  -19    7   11     -1.10      0.00
  -17    7   11     -2.57      0.00
  -15    7   11     -4.04      0.00
  -13    7   11     -4.68      0.00
  -11    7   11     -3.93      0.00
   -9    7   11     -2.45      0.00
   -7    7   11     -1.49      0.00
   -5    7   11     -1.51      0.00
   -3    7   11     -2.00      0.00
   -1    7   11     -2.36      0.00
    1    7   11     -2.30      0.00
    3    7   11     -1.69      0.00
    5    7   11     -0.43      0.00
    7    7   11      1.24      0.00
    9    7   11      2.76      0.00
   11    7   11      3.56      0.00
   13    7   11      3.52      0.00
   15    7   11      2.87      0.00
   17    7   11      1.88      0.00
   19    7   11      0.84      0.00
   21    7   11      0.16      0.00
   23    7   11     -0.04      0.00
  -24    8   11      0.50      0.00
  -22    8   11      0.75      0.00
  -20    8   11      0.69      0.00
  -18    8   11      0.42      0.00
  -16    8   11      0.24      0.00
  -14    8   11      0.14      0.00
  -12    8   11     -0.23      0.00
  -10    8   11     -0.82      0.00
   -8    8   11     -0.91      0.00
   -6    8   11      0.01      0.00
   -4    8   11      1.39      0.00
   -2    8   11      2.22      0.00
    0    8   11      2.27      0.00
    2    8   11      1.93      0.00
    4    8   11      1.37      0.00
    6    8   11      0.65      0.00
    8    8   11      0.03      0.00
   10    8   11     -0.34      0.00
   12    8   11     -0.73      0.00
   14    8   11     -1.25      0.00
   16    8   11     -1.50      0.00
   18    8   11     -1.20      0.00
   20    8   11     -0.72      0.00
   22    8   11     -0.42      0.00
  -23    9   11     -1.43      0.00
  -21    9   11     -1.02      0.00
  -19    9   11      0.12      0.00
  -17    9   11      1.64      0.00
  -15    9   11      2.98      0.00
  -13    9   11      3.71      0.00
  -11    9   11      3.80      0.00
   -9    9   11      3.41      0.00
   -7    9   11      2.53      0.00
   -5    9   11      1.36      0.00
   -3    9   11      0.48      0.00
   -1    9   11      0.03      0.00
    1    9   11     -0.44      0.00
    3    9   11     -1.06      0.00
    5    9   11     -1.54      0.00
    7    9   11     -1.93      0.00
    9    9   11     -2.46      0.00
   11    9   11     -2.76      0.00
   13    9   11     -2.25      0.00
   15    9   11     -1.19      0.00
   17    9   11     -0.24      0.00
   19    9   11      0.36      0.00
   21    9   11      0.64      0.00
  -22   10   11      1.03      0.00
  -20   10   11      0.48      0.00
  -18   10   11     -0.73      0.00
  -16   10   11     -2.37      0.00
  -14   10   11     -3.58      0.00
  -12   10   11     -3.75      0.00
  -10   10   11     -3.11      0.00
   -8   10   11     -2.22      0.00
   -6   10   11     -1.53      0.00
   -4   10   11     -1.40      0.00
   -2   10   11     -1.72      0.00
    0   10   11     -1.68      0.00
    2   10   11     -0.80      0.00
    4   10   11      0.45      0.00
    6   10   11      1.54      0.00
    8   10   11      2.56      0.00
   10   10   11      3.35      0.00
   12   10   11      3.34      0.00
   14   10   11      2.50      0.00
   16   10   11      1.42      0.00
   18   10   11      0.44      0.00
   20   10   11     -0.34      0.00
  -19   11   11     -0.44      0.00
  -17   11   11      0.24      0.00
  -15   11   11      1.16      0.00
  -13   11   11      1.51      0.00
  -11   11   11      1.13      0.00
   -9   11   11      0.36      0.00
   -7   11   11     -0.43      0.00
   -5   11   11     -0.71      0.00
   -3   11   11     -0.07      0.00
   -1   11   11      1.03      0.00
    1   11   11      1.59      0.00
    3   11   11      1.29      0.00
    5   11   11      0.55      0.00
    7   11   11     -0.36      0.00
    9   11   11     -1.26      0.00
   11   11   11     -1.60      0.00
   13   11   11     -1.16      0.00
   15   11   11     -0.50      0.00
   17   11   11     -0.09      0.00
  -18   12   11      0.50      0.00
  -16   12   11      0.38      0.00
  -14   12   11      0.38      0.00
  -12   12   11      0.56      0.00
  -10   12   11      0.74      0.00
   -8   12   11      1.09      0.00
   -6   12   11      1.75      0.00
   -4   12   11      2.15      0.00
   -2   12   11      1.63      0.00
    0   12   11      0.40      0.00
    2   12   11     -0.78      0.00
    4   12   11     -1.47      0.00
    6   12   11     -1.63      0.00
    8   12   11     -1.32      0.00
   10   12   11     -0.91      0.00
   12   12   11     -0.79      0.00
   14   12   11     -0.88      0.00
   16   12   11     -0.77      0.00
  -17   13   11     -0.21      0.00
  -15   13   11     -0.57      0.00
  -13   13   11     -0.95      0.00
  -11   13   11     -0.91      0.00
   -9   13   11     -0.56      0.00
   -7   13   11     -0.61      0.00
   -5   13   11     -1.33      0.00
   -3   13   11     -2.06      0.00
   -1   13   11     -2.00      0.00
    1   13   11     -1.11      0.00
    3   13   11      0.07      0.00
    5   13   11      1.07      0.00
    7   13   11      1.73      0.00
    9   13   11      1.97      0.00
   11   13   11      1.75      0.00
   13   13   11      1.25      0.00
   15   13   11      0.70      0.00
  -14   14   11      0.42      0.00
  -12   14   11      0.49      0.00
  -10   14   11      0.20      0.00
   -8   14   11     -0.10      0.00
   -6   14   11     -0.01      0.00
   -4   14   11      0.49      0.00
   -2   14   11      1.01      0.00
    0   14   11      1.15      0.00
    2   14   11      0.84      0.00
    4   14   11      0.34      0.00
    6   14   11     -0.22      0.00
    8   14   11     -0.79      0.00
   10   14   11     -1.05      0.00
   12   14   11     -0.71      0.00
  -11   15   11      0.08      0.00
   -9   15   11     -0.01      0.00
   -7   15   11     -0.11      0.00
   -5   15   11      0.00      0.00
   -3   15   11      0.15      0.00
   -1   15   11      0.11      0.00
    1   15   11     -0.03      0.00
    3   15   11     -0.15      0.00
    5   15   11     -0.29      0.00
    7   15   11     -0.35      0.00
    9   15   11     -0.25      0.00
   -4   16   11      0.05      0.00
   -2   16   11     -0.37      0.00
    0   16   11     -0.52      0.00
    2   16   11     -0.55      0.00
  -26    0   12     -1.64      0.00
  -24    0   12     -2.12      0.00
  -22    0   12     -1.87      0.00
  -20    0   12     -0.37      0.00
  -18    0   12      1.51      0.00
  -16    0   12      2.42      0.00
  -14    0   12      2.12      0.00
  -12    0   12      1.39      0.00
  -10    0   12      1.10      0.00
   -8    0   12      1.77      0.00
   -6    0   12      2.90      0.00
   -4    0   12      3.11      0.00
   -2    0   12      2.21      0.00
    0    0   12      1.66      0.00
    2    0   12      1.93      0.00
    4    0   12      1.56      0.00
    6    0   12      0.24      0.00
    8    0   12     -0.09      0.00
   10    0   12      1.30      0.00
   12    0   12      2.52      0.00
   14    0   12      2.20      0.00
   16    0   12      1.26      0.00
   18    0   12      0.62      0.00
   20    0   12      0.02      0.00
   22    0   12     -0.46      0.00
   24    0   12     -0.32      0.00
  -27    1   12      0.95      0.00
  -25    1   12      1.08      0.00
  -23    1   12      1.00      0.00
  -21    1   12      0.32      0.00
  -19    1   12     -0.75      0.00
  -17    1   12     -1.28      0.00
  -15    1   12     -0.99      0.00
  -13    1   12     -0.58      0.00
  -11    1   12     -0.64      0.00
   -9    1   12     -1.29      0.00
   -7    1   12     -2.35      0.00
   -5    1   12     -3.06      0.00
   -3    1   12     -2.60      0.00
   -1    1   12     -1.53      0.00
    1    1   12     -1.08      0.00
    3    1   12     -1.02      0.00
    5    1   12     -0.34      0.00
    7    1   12      0.37      0.00
    9    1   12     -0.14      0.00
   11    1   12     -1.35      0.00
   13    1   12     -1.63      0.00
   15    1   12     -0.91      0.00
   17    1   12     -0.20      0.00
   19    1   12      0.28      0.00
   21    1   12      0.72      0.00
   23    1   12      0.72      0.00
   25    1   12      0.18      0.00
  -26    2   12      0.29      0.00
  -24    2   12      1.00      0.00
  -22    2   12      1.44      0.00
  -20    2   12      1.32      0.00
  -18    2   12      0.37      0.00
  -16    2   12     -1.13      0.00
  -14    2   12     -2.00      0.00
  -12    2   12     -1.41      0.00
  -10    2   12      0.03      0.00
   -8    2   12      1.34      0.00
   -6    2   12      2.08      0.00
   -4    2   12      2.02      0.00
   -2    2   12      1.06      0.00
    0    2   12     -0.21      0.00
    2    2   12     -0.86      0.00
    4    2   12     -0.88      0.00
    6    2   12     -0.81      0.00
    8    2   12     -0.62      0.00
   10    2   12     -0.08      0.00
   12    2   12      0.29      0.00
   14    2   12      0.01      0.00
   16    2   12     -0.58      0.00
   18    2   12     -0.91      0.00
   20    2   12     -1.00      0.00
   22    2   12     -0.92      0.00
   24    2   12     -0.50      0.00
  -27    3   12     -0.74      0.00
  -25    3   12     -1.76      0.00
  -23    3   12     -2.44      0.00
  -21    3   12     -2.21      0.00
  -19    3   12     -0.88      0.00
  -17    3   12      1.25      0.00
  -15    3   12      3.12      0.00
  -13    3   12      3.45      0.00
  -11    3   12      2.16      0.00
   -9    3   12      0.53      0.00
   -7    3   12     -0.25      0.00
   -5    3   12     -0.06      0.00
   -3    3   12      0.73      0.00
   -1    3   12      1.76      0.00
    1    3   12      2.47      0.00
    3    3   12      2.34      0.00
    5    3   12      1.63      0.00
    7    3   12      1.04      0.00
    9    3   12      0.65      0.00
   11    3   12      0.20      0.00
   13    3   12     -0.09      0.00
   15    3   12      0.13      0.00
   17    3   12      0.46      0.00
   19    3   12      0.34      0.00
   21    3   12     -0.02      0.00
   23    3   12     -0.13      0.00
  -26    4   12      1.11      0.00
  -24    4   12      1.49      0.00
  -22    4   12      1.46      0.00
  -20    4   12      0.92      0.00
  -18    4   12     -0.14      0.00
  -16    4   12     -1.45      0.00
  -14    4   12     -2.36      0.00
  -12    4   12     -2.29      0.00
  -10    4   12     -1.46      0.00
   -8    4   12     -0.96      0.00
   -6    4   12     -1.52      0.00
   -4    4   12     -2.69      0.00
   -2    4   12     -3.48      0.00
    0    4   12     -3.40      0.00
    2    4   12     -2.62      0.00
    4    4   12     -1.68      0.00
    6    4   12     -1.20      0.00
    8    4   12     -1.17      0.00
   10    4   12     -0.84      0.00
   12    4   12      0.08      0.00
   14    4   12      0.81      0.00
   16    4   12      0.84      0.00
   18    4   12      0.80      0.00
   20    4   12      1.15      0.00
   22    4   12      1.31      0.00
   24    4   12      0.84      0.00
  -25    5   12     -0.02      0.00
  -23    5   12      0.33      0.00
  -21    5   12      0.24      0.00
  -19    5   12     -0.09      0.00
  -17    5   12     -0.40      0.00
  -15    5   12     -0.56      0.00
  -13    5   12     -0.57      0.00
  -11    5   12     -0.48      0.00
   -9    5   12     -0.18      0.00
   -7    5   12      0.74      0.00
   -5    5   12      2.18      0.00
   -3    5   12      3.17      0.00
   -1    5   12      2.83      0.00
    1    5   12      1.48      0.00
    3    5   12      0.26      0.00
    5    5   12      0.09      0.00
    7    5   12      0.98      0.00
    9    5   12      1.87      0.00
   11    5   12      1.61      0.00
   13    5   12      0.36      0.00
   15    5   12     -0.69      0.00
   17    5   12     -1.05      0.00
   19    5   12     -1.26      0.00
   21    5   12     -1.49      0.00
   23    5   12     -1.28      0.00
  -24    6   12     -1.22      0.00
  -22    6   12     -1.19      0.00
  -20    6   12     -0.38      0.00
  -18    6   12      0.72      0.00
  -16    6   12      1.87      0.00
  -14    6   12      2.77      0.00
  -12    6   12      2.94      0.00
  -10    6   12      2.31      0.00
   -8    6   12      1.30      0.00
   -6    6   12      0.32      0.00
   -4    6   12     -0.22      0.00
   -2    6   12      0.04      0.00
    0    6   12      1.00      0.00
    2    6   12      1.90      0.00
    4    6   12      1.86      0.00
    6    6   12      0.57      0.00
    8    6   12     -1.34      0.00
   10    6   12     -2.64      0.00
   12    6   12     -2.58      0.00
   14    6   12     -1.64      0.00
   16    6   12     -0.68      0.00
   18    6   12      0.03      0.00
   20    6   12      0.59      0.00
   22    6   12      0.85      0.00
  -23    7   12      0.89      0.00
  -21    7   12      0.35      0.00
  -19    7   12     -0.37      0.00
  -17    7   12     -1.11      0.00
  -15    7   12     -1.94      0.00
  -13    7   12     -2.42      0.00
  -11    7   12     -2.12      0.00
   -9    7   12     -1.42      0.00
   -7    7   12     -1.18      0.00
   -5    7   12     -1.71      0.00
   -3    7   12     -2.58      0.00
   -1    7   12     -3.27      0.00
    1    7   12     -3.50      0.00
    3    7   12     -3.09      0.00
    5    7   12     -1.96      0.00
    7    7   12     -0.35      0.00
    9    7   12      1.14      0.00
   11    7   12      2.07      0.00
   13    7   12      2.40      0.00
   15    7   12      2.29      0.00
   17    7   12      1.72      0.00
   19    7   12      0.80      0.00
   21    7   12     -0.01      0.00
  -22    8   12      0.38      0.00
  -20    8   12      0.44      0.00
  -18    8   12      0.17      0.00
  -16    8   12     -0.10      0.00
  -14    8   12     -0.21      0.00
  -12    8   12     -0.42      0.00
  -10    8   12     -0.76      0.00
   -8    8   12     -0.67      0.00
   -6    8   12      0.26      0.00
   -4    8   12      1.55      0.00
   -2    8   12      2.43      0.00
    0    8   12      2.67      0.00
    2    8   12      2.45      0.00
    4    8   12      1.87      0.00
    6    8   12      1.14      0.00
    8    8   12      0.65      0.00
   10    8   12      0.45      0.00
   12    8   12      0.03      0.00
   14    8   12     -0.78      0.00
   16    8   12     -1.43      0.00
   18    8   12     -1.37      0.00
   20    8   12     -0.80      0.00
  -21    9   12     -0.87      0.00
  -19    9   12     -0.21      0.00
  -17    9   12      0.80      0.00
  -15    9   12      1.68      0.00
  -13    9   12      2.17      0.00
  -11    9   12      2.34      0.00
   -9    9   12      2.20      0.00
   -7    9   12      1.63      0.00
   -5    9   12      0.90      0.00
   -3    9   12      0.54      0.00
   -1    9   12      0.51      0.00
    1    9   12      0.32      0.00
    3    9   12     -0.10      0.00
    5    9   12     -0.48      0.00
    7    9   12     -0.96      0.00
    9    9   12     -1.72      0.00
   11    9   12     -2.23      0.00
   13    9   12     -1.87      0.00
   15    9   12     -0.87      0.00
   17    9   12      0.07      0.00
   19    9   12      0.61      0.00
  -20   10   12      0.59      0.00
  -18   10   12     -0.04      0.00
  -16   10   12     -0.92      0.00
  -14   10   12     -1.56      0.00
  -12   10   12     -1.73      0.00
  -10   10   12     -1.58      0.00
   -8   10   12     -1.23      0.00
   -6   10   12     -0.89      0.00
   -4   10   12     -1.12      0.00
   -2   10   12     -1.95      0.00
    0   10   12     -2.53      0.00
    2   10   12     -2.22      0.00
    4   10   12     -1.31      0.00
    6   10   12     -0.21      0.00
    8   10   12      1.07      0.00
   10   10   12      2.17      0.00
   12   10   12      2.44      0.00
   14   10   12      1.89      0.00
   16   10   12      1.08      0.00
   18   10   12      0.25      0.00
  -19   11   12     -0.45      0.00
  -17   11   12     -0.27      0.00
  -15   11   12      0.03      0.00
  -13   11   12      0.13      0.00
  -11   11   12      0.12      0.00
   -9   11   12     -0.01      0.00
   -7   11   12     -0.42      0.00
   -5   11   12     -0.73      0.00
   -3   11   12     -0.20      0.00
   -1   11   12      1.04      0.00
    1   11   12      2.07      0.00
    3   11   12      2.34      0.00
    5   11   12      1.88      0.00
    7   11   12      0.78      0.00
    9   11   12     -0.55      0.00
   11   11   12     -1.24      0.00
   13   11   12     -0.99      0.00
   15   11   12     -0.45      0.00
   17   11   12     -0.12      0.00
  -18   12   12      0.22      0.00
  -16   12   12      0.37      0.00
  -14   12   12      0.64      0.00
  -12   12   12      0.76      0.00
  -10   12   12      0.49      0.00
   -8   12   12      0.38      0.00
   -6   12   12      0.98      0.00
   -4   12   12      1.78      0.00
   -2   12   12      1.77      0.00
    0   12   12      0.74      0.00
    2   12   12     -0.67      0.00
    4   12   12     -1.72      0.00
    6   12   12     -1.90      0.00
    8   12   12     -1.23      0.00
   10   12   12     -0.43      0.00
   12   12   12     -0.24      0.00
   14   12   12     -0.49      0.00
  -15   13   12     -0.14      0.00
  -13   13   12     -0.65      0.00
  -11   13   12     -0.53      0.00
   -9   13   12      0.14      0.00
   -7   13   12      0.37      0.00
   -5   13   12     -0.45      0.00
   -3   13   12     -1.67      0.00
   -1   13   12     -2.14      0.00
    1   13   12     -1.47      0.00
    3   13   12     -0.25      0.00
    5   13   12      0.72      0.00
    7   13   12      1.13      0.00
    9   13   12      1.11      0.00
   11   13   12      0.92      0.00
   13   13   12      0.71      0.00
  -12   14   12      0.31      0.00
  -10   14   12      0.00      0.00
   -8   14   12     -0.56      0.00
   -6   14   12     -0.68      0.00
   -4   14   12     -0.06      0.00
   -2   14   12      0.80      0.00
    0   14   12      1.15      0.00
    2   14   12      0.93      0.00
    4   14   12      0.59      0.00
    6   14   12      0.31      0.00
    8   14   12     -0.09      0.00
   10   14   12     -0.43      0.00
   -9   15   12     -0.17      0.00
   -7   15   12     -0.02      0.00
   -5   15   12      0.23      0.00
   -3   15   12      0.33      0.00
   -1   15   12      0.24      0.00
    1   15   12      0.12      0.00
    3   15   12     -0.10      0.00
    5   15   12     -0.47      0.00
  -26    0   13     -0.58      0.00
  -24    0   13     -1.69      0.00
  -22    0   13     -3.09      0.00
  -20    0   13     -3.29      0.00
  -18    0   13     -1.63      0.00
  -16    0   13      1.02      0.00
  -14    0   13      2.91      0.00
  -12    0   13      2.68      0.00
  -10    0   13      0.93      0.00
   -8    0   13     -0.03      0.00
   -6    0   13      0.86      0.00
   -4    0   13      2.11      0.00
   -2    0   13      2.39      0.00
    0    0   13      2.41      0.00
    2    0   13      2.56      0.00
    4    0   13      1.88      0.00
    6    0   13      0.45      0.00
    8    0   13      0.05      0.00
   10    0   13      1.05      0.00
   12    0   13      1.72      0.00
   14    0   13      1.40      0.00
   16    0   13      1.04      0.00
   18    0   13      0.87      0.00
   20    0   13      0.11      0.00
   22    0   13     -0.85      0.00
   24    0   13     -0.91      0.00
  -25    1   13      0.45      0.00
  -23    1   13      1.36      0.00
  -21    1   13      2.08      0.00
  -19    1   13      1.73      0.00
  -17    1   13      0.35      0.00
  -15    1   13     -1.33      0.00
  -13    1   13     -2.21      0.00
  -11    1   13     -1.67      0.00
   -9    1   13     -0.60      0.00
   -7    1   13     -0.56      0.00
   -5    1   13     -1.57      0.00
   -3    1   13     -2.24      0.00
   -1    1   13     -2.07      0.00
    1    1   13     -1.74      0.00
    3    1   13     -1.30      0.00
    5    1   13     -0.41      0.00
    7    1   13      0.16      0.00
    9    1   13     -0.31      0.00
   11    1   13     -0.99      0.00
   13    1   13     -0.86      0.00
   15    1   13     -0.48      0.00
   17    1   13     -0.51      0.00
   19    1   13     -0.27      0.00
   21    1   13      0.62      0.00
   23    1   13      1.17      0.00
  -26    2   13      0.61      0.00
  -24    2   13      0.90      0.00
  -22    2   13      0.77      0.00
  -20    2   13      0.40      0.00
  -18    2   13     -0.04      0.00
  -16    2   13     -0.27      0.00
  -14    2   13      0.04      0.00
  -12    2   13      0.66      0.00
  -10    2   13      0.88      0.00
   -8    2   13      0.70      0.00
   -6    2   13      0.81      0.00
   -4    2   13      1.27      0.00
   -2    2   13      1.21      0.00
    0    2   13      0.31      0.00
    2    2   13     -0.75      0.00
    4    2   13     -1.26      0.00
    6    2   13     -1.06      0.00
    8    2   13     -0.46      0.00
   10    2   13     -0.02      0.00
   12    2   13     -0.17      0.00
   14    2   13     -0.53      0.00
   16    2   13     -0.41      0.00
   18    2   13     -0.04      0.00
   20    2   13     -0.23      0.00
   22    2   13     -0.86      0.00
   24    2   13     -0.96      0.00
  -25    3   13     -1.66      0.00
  -23    3   13     -2.24      0.00
  -21    3   13     -2.09      0.00
  -19    3   13     -1.26      0.00
  -17    3   13     -0.07      0.00
  -15    3   13      0.86      0.00
  -13    3   13      1.01      0.00
  -11    3   13      0.57      0.00
   -9    3   13      0.27      0.00
   -7    3   13      0.39      0.00
   -5    3   13      0.55      0.00
   -3    3   13      0.72      0.00
   -1    3   13      1.40      0.00
    1    3   13      2.46      0.00
    3    3   13      2.98      0.00
    5    3   13      2.50      0.00
    7    3   13      1.60      0.00
    9    3   13      0.97      0.00
   11    3   13      0.70      0.00
   13    3   13      0.60      0.00
   15    3   13      0.43      0.00
   17    3   13      0.01      0.00
   19    3   13     -0.44      0.00
   21    3   13     -0.38      0.00
   23    3   13      0.12      0.00
  -26    4   13      1.01      0.00
  -24    4   13      1.59      0.00
  -22    4   13      1.63      0.00
  -20    4   13      1.13      0.00
  -18    4   13      0.46      0.00
  -16    4   13     -0.17      0.00
  -14    4   13     -0.76      0.00
  -12    4   13     -1.21      0.00
  -10    4   13     -1.43      0.00
   -8    4   13     -1.61      0.00
   -6    4   13     -2.00      0.00
   -4    4   13     -2.51      0.00
   -2    4   13     -2.95      0.00
    0    4   13     -3.24      0.00
    2    4   13     -3.12      0.00
    4    4   13     -2.52      0.00
    6    4   13     -1.94      0.00
    8    4   13     -1.75      0.00
   10    4   13     -1.51      0.00
   12    4   13     -0.78      0.00
   14    4   13      0.09      0.00
   16    4   13      0.67      0.00
   18    4   13      1.14      0.00
   20    4   13      1.46      0.00
   22    4   13      1.15      0.00
  -25    5   13     -0.25      0.00
  -23    5   13     -0.05      0.00
  -21    5   13      0.20      0.00
  -19    5   13      0.30      0.00
  -17    5   13      0.08      0.00
  -15    5   13     -0.23      0.00
  -13    5   13     -0.12      0.00
  -11    5   13      0.47      0.00
   -9    5   13      1.17      0.00
   -7    5   13      1.79      0.00
   -5    5   13      2.33      0.00
   -3    5   13      2.58      0.00
   -1    5   13      2.28      0.00
    1    5   13      1.47      0.00
    3    5   13      0.54      0.00
    5    5   13      0.16      0.00
    7    5   13      0.73      0.00
    9    5   13      1.67      0.00
   11    5   13      1.83      0.00
   13    5   13      0.93      0.00
   15    5   13     -0.28      0.00
   17    5   13     -1.17      0.00
   19    5   13     -1.66      0.00
   21    5   13     -1.58      0.00
  -24    6   13     -0.90      0.00
  -22    6   13     -1.14      0.00
  -20    6   13     -1.01      0.00
  -18    6   13     -0.60      0.00
  -16    6   13      0.15      0.00
  -14    6   13      0.97      0.00
  -12    6   13      1.18      0.00
  -10    6   13      0.62      0.00
   -8    6   13     -0.18      0.00
   -6    6   13     -0.62      0.00
   -4    6   13     -0.41      0.00
   -2    6   13      0.38      0.00
    0    6   13      1.40      0.00
    2    6   13      2.23      0.00
    4    6   13      2.44      0.00
    6    6   13      1.67      0.00
    8    6   13      0.05      0.00
   10    6   13     -1.54      0.00
   12    6   13     -2.14      0.00
   14    6   13     -1.60      0.00
   16    6   13     -0.45      0.00
   18    6   13      0.62      0.00
   20    6   13      1.11      0.00
   22    6   13      0.86      0.00
  -23    7   13      0.94      0.00
  -21    7   13      0.78      0.00
  -19    7   13      0.58      0.00
  -17    7   13      0.30      0.00
  -15    7   13     -0.35      0.00
  -13    7   13     -1.03      0.00
  -11    7   13     -1.12      0.00
   -9    7   13     -0.67      0.00
   -7    7   13     -0.43      0.00
   -5    7   13     -0.94      0.00
   -3    7   13     -2.03      0.00
   -1    7   13     -3.13      0.00
    1    7   13     -3.76      0.00
    3    7   13     -3.68      0.00
    5    7   13     -2.91      0.00
    7    7   13     -1.62      0.00
    9    7   13     -0.16      0.00
   11    7   13      1.10      0.00
   13    7   13      1.85      0.00
   15    7   13      1.84      0.00
   17    7   13      1.09      0.00
   19    7   13      0.13      0.00
   21    7   13     -0.37      0.00
  -22    8   13      0.06      0.00
  -20    8   13      0.06      0.00
  -18    8   13     -0.22      0.00
  -16    8   13     -0.37      0.00
  -14    8   13     -0.17      0.00
  -12    8   13      0.06      0.00
  -10    8   13      0.03      0.00
   -8    8   13      0.00      0.00
   -6    8   13      0.35      0.00
   -4    8   13      0.97      0.00
   -2    8   13      1.57      0.00
    0    8   13      2.05      0.00
    2    8   13      2.25      0.00
    4    8   13      1.95      0.00
    6    8   13      1.29      0.00
    8    8   13      0.74      0.00
   10    8   13      0.39      0.00
   12    8   13     -0.09      0.00
   14    8   13     -0.74      0.00
   16    8   13     -1.09      0.00
   18    8   13     -0.86      0.00
   20    8   13     -0.41      0.00
  -21    9   13     -0.68      0.00
  -19    9   13     -0.29      0.00
  -17    9   13      0.27      0.00
  -15    9   13      0.59      0.00
  -13    9   13      0.55      0.00
  -11    9   13      0.39      0.00
   -9    9   13      0.28      0.00
   -7    9   13      0.21      0.00
   -5    9   13      0.42      0.00
   -3    9   13      1.01      0.00
   -1    9   13      1.48      0.00
    1    9   13      1.28      0.00
    3    9   13      0.69      0.00
    5    9   13      0.28      0.00
    7    9   13      0.00      0.00
    9    9   13     -0.45      0.00
   11    9   13     -0.82      0.00
   13    9   13     -0.77      0.00
   15    9   13     -0.45      0.00
   17    9   13     -0.08      0.00
   19    9   13      0.29      0.00
  -20   10   13      0.58      0.00
  -18   10   13      0.32      0.00
  -16   10   13      0.00      0.00
  -14   10   13     -0.07      0.00
  -12   10   13      0.11      0.00
  -10   10   13      0.30      0.00
   -8   10   13      0.39      0.00
   -6   10   13      0.14      0.00
   -4   10   13     -0.86      0.00
   -2   10   13     -2.33      0.00
    0   10   13     -3.17      0.00
    2   10   13     -2.90      0.00
    4   10   13     -2.06      0.00
    6   10   13     -1.18      0.00
    8   10   13     -0.26      0.00
   10   10   13      0.51      0.00
   12   10   13      0.86      0.00
   14   10   13      0.94      0.00
   16   10   13      0.90      0.00
   18   10   13      0.48      0.00
  -19   11   13     -0.45      0.00
  -17   11   13     -0.54      0.00
  -15   11   13     -0.56      0.00
  -13   11   13     -0.64      0.00
  -11   11   13     -0.65      0.00
   -9   11   13     -0.65      0.00
   -7   11   13     -0.80      0.00
   -5   11   13     -0.76      0.00
   -3   11   13     -0.01      0.00
   -1   11   13      1.14      0.00
    1   11   13      1.90      0.00
    3   11   13      2.11      0.00
    5   11   13      1.93      0.00
    7   11   13      1.29      0.00
    9   11   13      0.31      0.00
   11   11   13     -0.33      0.00
   13   11   13     -0.42      0.00
   15   11   13     -0.41      0.00
  -16   12   13      0.41      0.00
  -14   12   13      0.54      0.00
  -12   12   13      0.44      0.00
  -10   12   13      0.04      0.00
   -8   12   13     -0.14      0.00
   -6   12   13      0.32      0.00
   -4   12   13      1.03      0.00
   -2   12   13      1.32      0.00
    0   12   13      1.00      0.00
    2   12   13      0.22      0.00
    4   12   13     -0.76      0.00
    6   12   13     -1.36      0.00
    8   12   13     -1.14      0.00
   10   12   13     -0.48      0.00
   12   12   13     -0.14      0.00
   14   12   13     -0.17      0.00
  -13   13   13     -0.02      0.00
  -11   13   13      0.31      0.00
   -9   13   13      0.97      0.00
   -7   13   13      1.23      0.00
   -5   13   13      0.57      0.00
   -3   13   13     -0.70      0.00
   -1   13   13     -1.71      0.00
    1   13   13     -1.88      0.00
    3   13   13     -1.22      0.00
    5   13   13     -0.25      0.00
    7   13   13      0.47      0.00
    9   13   13      0.72      0.00
   11   13   13      0.59      0.00
  -10   14   13     -0.66      0.00
   -8   14   13     -1.16      0.00
   -6   14   13     -1.34      0.00
   -4   14   13     -0.82      0.00
   -2   14   13      0.16      0.00
    0   14   13      0.94      0.00
    2   14   13      1.24      0.00
    4   14   13      1.21      0.00
    6   14   13      0.92      0.00
    8   14   13      0.30      0.00
   -5   15   13      0.50      0.00
   -3   15   13      0.58      0.00
   -1   15   13      0.40      0.00
    1   15   13      0.09      0.00
    3   15   13     -0.37      0.00
  -26    0   14     -0.61      0.00
  -24    0   14     -1.14      0.00
  -22    0   14     -2.00      0.00
  -20    0   14     -2.40      0.00
  -18    0   14     -1.80      0.00
  -16    0   14     -0.27      0.00
  -14    0   14      1.20      0.00
  -12    0   14      1.34      0.00
  -10    0   14      0.28      0.00
   -8    0   14     -0.37      0.00
   -6    0   14     -0.08      0.00
   -4    0   14     -0.04      0.00
   -2    0   14     -0.32      0.00
    0    0   14      0.52      0.00
    2    0   14      2.24      0.00
    4    0   14      2.58      0.00
    6    0   14      1.22      0.00
    8    0   14      0.42      0.00
   10    0   14      1.16      0.00
   12    0   14      1.86      0.00
   14    0   14      1.52      0.00
   16    0   14      0.82      0.00
   18    0   14      0.21      0.00
   20    0   14     -0.55      0.00
   22    0   14     -1.02      0.00
  -25    1   14      0.50      0.00
  -23    1   14      0.86      0.00
  -21    1   14      1.09      0.00
  -19    1   14      0.94      0.00
  -17    1   14      0.45      0.00
  -15    1   14     -0.32      0.00
  -13    1   14     -0.95      0.00
  -11    1   14     -0.93      0.00
   -9    1   14     -0.57      0.00
   -7    1   14     -0.50      0.00
   -5    1   14     -0.48      0.00
   -3    1   14     -0.09      0.00
   -1    1   14     -0.07      0.00
    1    1   14     -1.03      0.00
    3    1   14     -1.81      0.00
    5    1   14     -1.29      0.00
    7    1   14     -0.49      0.00
    9    1   14     -0.76      0.00
   11    1   14     -1.39      0.00
   13    1   14     -1.19      0.00
   15    1   14     -0.48      0.00
   17    1   14     -0.05      0.00
   19    1   14      0.36      0.00
   21    1   14      0.92      0.00
   23    1   14      1.01      0.00
  -24    2   14      0.42      0.00
  -22    2   14      0.99      0.00
  -20    2   14      1.53      0.00
  -18    2   14      1.38      0.00
  -16    2   14      0.48      0.00
  -14    2   14     -0.17      0.00
  -12    2   14      0.18      0.00
  -10    2   14      1.05      0.00
   -8    2   14      1.50      0.00
   -6    2   14      1.22      0.00
   -4    2   14      0.57      0.00
   -2    2   14      0.02      0.00
    0    2   14     -0.16      0.00
    2    2   14     -0.16      0.00
    4    2   14     -0.27      0.00
    6    2   14     -0.29      0.00
    8    2   14      0.18      0.00
   10    2   14      0.72      0.00
   12    2   14      0.53      0.00
   14    2   14     -0.25      0.00
   16    2   14     -0.73      0.00
   18    2   14     -0.69      0.00
   20    2   14     -0.68      0.00
   22    2   14     -0.82      0.00
  -25    3   14     -0.77      0.00
  -23    3   14     -1.71      0.00
  -21    3   14     -2.62      0.00
  -19    3   14     -2.87      0.00
  -17    3   14     -1.90      0.00
  -15    3   14     -0.17      0.00
  -13    3   14      0.93      0.00
  -11    3   14      0.63      0.00
   -9    3   14     -0.30      0.00
   -7    3   14     -0.61      0.00
   -5    3   14     -0.08      0.00
   -3    3   14      0.70      0.00
   -1    3   14      1.37      0.00
    1    3   14      1.82      0.00
    3    3   14      1.94      0.00
    5    3   14      1.67      0.00
    7    3   14      1.15      0.00
    9    3   14      0.55      0.00
   11    3   14      0.11      0.00
   13    3   14      0.12      0.00
   15    3   14      0.53      0.00
   17    3   14      0.76      0.00
   19    3   14      0.49      0.00
   21    3   14      0.11      0.00
  -24    4   14      0.96      0.00
  -22    4   14      1.73      0.00
  -20    4   14      2.14      0.00
  -18    4   14      1.95      0.00
  -16    4   14      0.96      0.00
  -14    4   14     -0.58      0.00
  -12    4   14     -1.79      0.00
  -10    4   14     -1.98      0.00
   -8    4   14     -1.53      0.00
   -6    4   14     -1.34      0.00
   -4    4   14     -1.72      0.00
   -2    4   14     -2.33      0.00
    0    4   14     -2.62      0.00
    2    4   14     -2.33      0.00
    4    4   14     -1.72      0.00
    6    4   14     -1.44      0.00
    8    4   14     -1.50      0.00
   10    4   14     -1.20      0.00
   12    4   14     -0.33      0.00
   14    4   14      0.25      0.00
   16    4   14      0.15      0.00
   18    4   14      0.05      0.00
   20    4   14      0.43      0.00
   22    4   14      0.73      0.00
  -23    5   14     -0.05      0.00
  -21    5   14     -0.41      0.00
  -19    5   14     -0.58      0.00
  -17    5   14     -0.44      0.00
  -15    5   14      0.17      0.00
  -13    5   14      1.22      0.00
  -11    5   14      2.17      0.00
   -9    5   14      2.46      0.00
   -7    5   14      2.25      0.00
   -5    5   14      2.04      0.00
   -3    5   14      1.98      0.00
   -1    5   14      1.74      0.00
    1    5   14      1.01      0.00
    3    5   14      0.03      0.00
    5    5   14     -0.42      0.00
    7    5   14      0.13      0.00
    9    5   14      0.94      0.00
   11    5   14      0.95      0.00
   13    5   14      0.25      0.00
   15    5   14     -0.32      0.00
   17    5   14     -0.54      0.00
   19    5   14     -0.78      0.00
   21    5   14     -0.99      0.00
  -24    6   14     -1.01      0.00
  -22    6   14     -0.89      0.00
  -20    6   14     -0.50      0.00
  -18    6   14     -0.31      0.00
  -16    6   14     -0.37      0.00
  -14    6   14     -0.59      0.00
  -12    6   14     -0.92      0.00
  -10    6   14     -1.28      0.00
   -8    6   14     -1.44      0.00
   -6    6   14     -1.28      0.00
   -4    6   14     -0.71      0.00
   -2    6   14      0.26      0.00
    0    6   14      1.41      0.00
    2    6   14      2.37      0.00
    4    6   14      2.73      0.00
    6    6   14      2.23      0.00
    8    6   14      1.05      0.00
   10    6   14     -0.09      0.00
   12    6   14     -0.67      0.00
   14    6   14     -0.70      0.00
   16    6   14     -0.32      0.00
   18    6   14      0.30      0.00
   20    6   14      0.81      0.00
  -23    7   14      1.07      0.00
  -21    7   14      0.69      0.00
  -19    7   14      0.33      0.00
  -17    7   14      0.25      0.00
  -15    7   14      0.22      0.00
  -13    7   14      0.12      0.00
  -11    7   14      0.11      0.00
   -9    7   14      0.22      0.00
   -7    7   14      0.21      0.00
   -5    7   14     -0.25      0.00
   -3    7   14     -1.22      0.00
   -1    7   14     -2.42      0.00
    1    7   14     -3.31      0.00
    3    7   14     -3.45      0.00
    5    7   14     -2.83      0.00
    7    7   14     -1.88      0.00
    9    7   14     -0.99      0.00
   11    7   14     -0.22      0.00
   13    7   14      0.54      0.00
   15    7   14      1.04      0.00
   17    7   14      0.87      0.00
   19    7   14      0.16      0.00
  -22    8   14     -0.20      0.00
  -20    8   14      0.08      0.00
  -18    8   14      0.14      0.00
  -16    8   14      0.19      0.00
  -14    8   14      0.35      0.00
  -12    8   14      0.44      0.00
  -10    8   14      0.36      0.00
   -8    8   14      0.33      0.00
   -6    8   14      0.48      0.00
   -4    8   14      0.68      0.00
   -2    8   14      0.91      0.00
    0    8   14      1.22      0.00
    2    8   14      1.40      0.00
    4    8   14      1.10      0.00
    6    8   14      0.51      0.00
    8    8   14      0.25      0.00
   10    8   14      0.38      0.00
   12    8   14      0.33      0.00
   14    8   14     -0.19      0.00
   16    8   14     -0.73      0.00
   18    8   14     -0.75      0.00
  -21    9   14     -0.44      0.00
  -19    9   14     -0.40      0.00
  -17    9   14     -0.41      0.00
  -15    9   14     -0.67      0.00
  -13    9   14     -0.98      0.00
  -11    9   14     -1.02      0.00
   -9    9   14     -0.91      0.00
   -7    9   14     -0.82      0.00
   -5    9   14     -0.43      0.00
   -3    9   14      0.54      0.00
   -1    9   14      1.57      0.00
    1    9   14      1.98      0.00
    3    9   14      1.87      0.00
    5    9   14      1.64      0.00
    7    9   14      1.23      0.00
    9    9   14      0.53      0.00
   11    9   14     -0.10      0.00
   13    9   14     -0.33      0.00
   15    9   14     -0.25      0.00
   17    9   14     -0.03      0.00
  -18   10   14      0.41      0.00
  -16   10   14      0.73      0.00
  -14   10   14      1.26      0.00
  -12   10   14      1.56      0.00
  -10   10   14      1.47      0.00
   -8   10   14      1.34      0.00
   -6   10   14      1.15      0.00
   -4   10   14      0.28      0.00
   -2   10   14     -1.33      0.00
    0   10   14     -2.76      0.00
    2   10   14     -3.31      0.00
    4   10   14     -3.07      0.00
    6   10   14     -2.30      0.00
    8   10   14     -1.21      0.00
   10   10   14     -0.31      0.00
   12   10   14      0.10      0.00
   14   10   14      0.34      0.00
   16   10   14      0.56      0.00
  -17   11   14     -0.54      0.00
  -15   11   14     -1.07      0.00
  -13   11   14     -1.38      0.00
  -11   11   14     -1.14      0.00
   -9   11   14     -0.78      0.00
   -7   11   14     -0.94      0.00
   -5   11   14     -1.29      0.00
   -3   11   14     -0.96      0.00
   -1   11   14      0.13      0.00
    1   11   14      1.29      0.00
    3   11   14      2.09      0.00
    5   11   14      2.30      0.00
    7   11   14      1.68      0.00
    9   11   14      0.59      0.00
   11   11   14     -0.12      0.00
   13   11   14     -0.25      0.00
   15   11   14     -0.29      0.00
  -14   12   14      0.72      0.00
  -12   12   14      0.39      0.00
  -10   12   14     -0.44      0.00
   -8   12   14     -0.79      0.00
   -6   12   14     -0.05      0.00
   -4   12   14      1.15      0.00
   -2   12   14      1.81      0.00
    0   12   14      1.59      0.00
    2   12   14      0.66      0.00
    4   12   14     -0.52      0.00
    6   12   14     -1.20      0.00
    8   12   14     -0.90      0.00
   10   12   14     -0.11      0.00
   12   12   14      0.29      0.00
  -13   13   14      0.11      0.00
  -11   13   14      0.77      0.00
   -9   13   14      1.65      0.00
   -7   13   14      1.81      0.00
   -5   13   14      0.83      0.00
   -3   13   14     -0.70      0.00
   -1   13   14     -1.76      0.00
    1   13   14     -1.83      0.00
    3   13   14     -1.14      0.00
    5   13   14     -0.32      0.00
    7   13   14      0.14      0.00
    9   13   14      0.15      0.00
   -8   14   14     -1.46      0.00
   -6   14   14     -1.40      0.00
   -4   14   14     -0.61      0.00
   -2   14   14      0.33      0.00
    0   14   14      0.74      0.00
    2   14   14      0.69      0.00
    4   14   14      0.71      0.00
    6   14   14      0.83      0.00
  -24    0   15     -0.35      0.00
  -22    0   15     -1.44      0.00
  -20    0   15     -2.88      0.00
  -18    0   15     -3.27      0.00
  -16    0   15     -1.63      0.00
  -14    0   15      0.88      0.00
  -12    0   15      1.75      0.00
  -10    0   15      0.41      0.00
   -8    0   15     -1.03      0.00
   -6    0   15     -1.29      0.00
   -4    0   15     -1.35      0.00
   -2    0   15     -1.58      0.00
    0    0   15     -0.75      0.00
    2    0   15      1.05      0.00
    4    0   15      1.85      0.00
    6    0   15      1.06      0.00
    8    0   15      0.25      0.00
   10    0   15      0.28      0.00
   12    0   15      0.47      0.00
   14    0   15      0.57      0.00
   16    0   15      0.83      0.00
   18    0   15      0.69      0.00
   20    0   15     -0.28      0.00
   22    0   15     -1.11      0.00
  -25    1   15      0.03      0.00
  -23    1   15      0.48      0.00
  -21    1   15      1.37      0.00
  -19    1   15      2.04      0.00
  -17    1   15      1.65      0.00
  -15    1   15      0.11      0.00
  -13    1   15     -1.37      0.00
  -11    1   15     -1.49      0.00
   -9    1   15     -0.62      0.00
   -7    1   15      0.01      0.00
   -5    1   15      0.30      0.00
   -3    1   15      0.69      0.00
   -1    1   15      0.64      0.00
    1    1   15     -0.38      0.00
    3    1   15     -1.32      0.00
    5    1   15     -1.15      0.00
    7    1   15     -0.59      0.00
    9    1   15     -0.53      0.00
   11    1   15     -0.53      0.00
   13    1   15     -0.17      0.00
   15    1   15     -0.05      0.00
   17    1   15     -0.29      0.00
   19    1   15     -0.03      0.00
   21    1   15      0.79      0.00
  -24    2   15      0.31      0.00
  -22    2   15      0.22      0.00
  -20    2   15      0.26      0.00
  -18    2   15      0.36      0.00
  -16    2   15      0.39      0.00
  -14    2   15      0.61      0.00
  -12    2   15      1.20      0.00
  -10    2   15      1.81      0.00
   -8    2   15      1.95      0.00
   -6    2   15      1.52      0.00
   -4    2   15      0.86      0.00
   -2    2   15      0.44      0.00
    0    2   15      0.42      0.00
    2    2   15      0.45      0.00
    4    2   15      0.24      0.00
    6    2   15      0.17      0.00
    8    2   15      0.51      0.00
   10    2   15      0.66      0.00
   12    2   15      0.04      0.00
   14    2   15     -0.78      0.00
   16    2   15     -0.91      0.00
   18    2   15     -0.56      0.00
   20    2   15     -0.56      0.00
   22    2   15     -0.85      0.00
  -23    3   15     -0.88      0.00
  -21    3   15     -1.15      0.00
  -19    3   15     -1.45      0.00
  -17    3   15     -1.41      0.00
  -15    3   15     -0.85      0.00
  -13    3   15     -0.33      0.00
  -11    3   15     -0.45      0.00
   -9    3   15     -0.99      0.00
   -7    3   15     -1.24      0.00
   -5    3   15     -1.04      0.00
   -3    3   15     -0.66      0.00
   -1    3   15     -0.23      0.00
    1    3   15      0.28      0.00
    3    3   15      0.66      0.00
    5    3   15      0.69      0.00
    7    3   15      0.47      0.00
    9    3   15      0.28      0.00
   11    3   15      0.31      0.00
   13    3   15      0.59      0.00
   15    3   15      0.91      0.00
   17    3   15      0.96      0.00
   19    3   15      0.72      0.00
   21    3   15      0.48      0.00
  -24    4   15      0.60      0.00
  -22    4   15      0.86      0.00
  -20    4   15      0.90      0.00
  -18    4   15      0.89      0.00
  -16    4   15      0.71      0.00
  -14    4   15      0.00      0.00
  -12    4   15     -1.01      0.00
  -10    4   15     -1.61      0.00
   -8    4   15     -1.48      0.00
   -6    4   15     -0.89      0.00
   -4    4   15     -0.41      0.00
   -2    4   15     -0.43      0.00
    0    4   15     -0.81      0.00
    2    4   15     -0.93      0.00
    4    4   15     -0.61      0.00
    6    4   15     -0.49      0.00
    8    4   15     -0.89      0.00
   10    4   15     -1.12      0.00
   12    4   15     -0.70      0.00
   14    4   15     -0.19      0.00
   16    4   15     -0.16      0.00
   18    4   15     -0.28      0.00
   20    4   15     -0.15      0.00
  -23    5   15      0.06      0.00
  -21    5   15      0.00      0.00
  -19    5   15      0.12      0.00
  -17    5   15      0.29      0.00
  -15    5   15      0.63      0.00
  -13    5   15      1.43      0.00
  -11    5   15      2.45      0.00
   -9    5   15      3.01      0.00
   -7    5   15      2.69      0.00
   -5    5   15      1.78      0.00
   -3    5   15      0.91      0.00
   -1    5   15      0.45      0.00
    1    5   15      0.06      0.00
    3    5   15     -0.60      0.00
    5    5   15     -1.07      0.00
    7    5   15     -0.68      0.00
    9    5   15      0.24      0.00
   11    5   15      0.66      0.00
   13    5   15      0.37      0.00
   15    5   15     -0.07      0.00
   17    5   15     -0.33      0.00
   19    5   15     -0.49      0.00
  -22    6   15     -0.76      0.00
  -20    6   15     -0.57      0.00
  -18    6   15     -0.65      0.00
  -16    6   15     -0.99      0.00
  -14    6   15     -1.40      0.00
  -12    6   15     -1.78      0.00
  -10    6   15     -2.06      0.00
   -8    6   15     -2.12      0.00
   -6    6   15     -1.77      0.00
   -4    6   15     -0.92      0.00
   -2    6   15      0.23      0.00
    0    6   15      1.34      0.00
    2    6   15      2.21      0.00
    4    6   15      2.70      0.00
    6    6   15      2.59      0.00
    8    6   15      1.83      0.00
   10    6   15      0.78      0.00
   12    6   15     -0.11      0.00
   14    6   15     -0.54      0.00
   16    6   15     -0.32      0.00
   18    6   15      0.33      0.00
   20    6   15      0.79      0.00
  -21    7   15      0.55      0.00
  -19    7   15      0.30      0.00
  -17    7   15      0.43      0.00
  -15    7   15      0.67      0.00
  -13    7   15      0.73      0.00
  -11    7   15      0.60      0.00
   -9    7   15      0.46      0.00
   -7    7   15      0.41      0.00
   -5    7   15      0.24      0.00
   -3    7   15     -0.34      0.00
   -1    7   15     -1.33      0.00
    1    7   15     -2.29      0.00
    3    7   15     -2.73      0.00
    5    7   15     -2.56      0.00
    7    7   15     -2.08      0.00
    9    7   15     -1.51      0.00
   11    7   15     -0.74      0.00
   13    7   15      0.20      0.00
   15    7   15      0.83      0.00
   17    7   15      0.66      0.00
   19    7   15     -0.06      0.00
  -20    8   15      0.20      0.00
  -18    8   15      0.21      0.00
  -16    8   15      0.19      0.00
  -14    8   15      0.36      0.00
  -12    8   15      0.61      0.00
  -10    8   15      0.81      0.00
   -8    8   15      0.91      0.00
   -6    8   15      0.79      0.00
   -4    8   15      0.40      0.00
   -2    8   15      0.02      0.00
    0    8   15      0.05      0.00
    2    8   15      0.33      0.00
    4    8   15      0.41      0.00
    6    8   15      0.27      0.00
    8    8   15      0.24      0.00
   10    8   15      0.32      0.00
   12    8   15      0.13      0.00
   14    8   15     -0.35      0.00
   16    8   15     -0.70      0.00
   18    8   15     -0.54      0.00
  -19    9   15     -0.56      0.00
  -17    9   15     -0.46      0.00
  -15    9   15     -0.73      0.00
  -13    9   15     -1.30      0.00
  -11    9   15     -1.73      0.00
   -9    9   15     -1.93      0.00
   -7    9   15     -1.86      0.00
   -5    9   15     -1.14      0.00
   -3    9   15      0.33      0.00
   -1    9   15      1.81      0.00
    1    9   15      2.50      0.00
    3    9   15      2.43      0.00
    5    9   15      1.97      0.00
    7    9   15      1.28      0.00
    9    9   15      0.65      0.00
   11    9   15      0.39      0.00
   13    9   15      0.43      0.00
   15    9   15      0.37      0.00
  -18   10   15      0.46      0.00
  -16   10   15      0.53      0.00
  -14   10   15      1.07      0.00
  -12   10   15      1.72      0.00
  -10   10   15      2.13      0.00
   -8   10   15      2.31      0.00
   -6   10   15      2.07      0.00
   -4   10   15      0.94      0.00
   -2   10   15     -0.87      0.00
    0   10   15     -2.41      0.00
    2   10   15     -3.09      0.00
    4   10   15     -2.93      0.00
    6   10   15     -2.06      0.00
    8   10   15     -0.95      0.00
   10   10   15     -0.42      0.00
   12   10   15     -0.56      0.00
   14   10   15     -0.57      0.00
  -15   11   15     -0.56      0.00
  -13   11   15     -0.88      0.00
  -11   11   15     -1.02      0.00
   -9   11   15     -1.11      0.00
   -7   11   15     -1.40      0.00
   -5   11   15     -1.53      0.00
   -3   11   15     -1.02      0.00
   -1   11   15     -0.10      0.00
    1   11   15      0.72      0.00
    3   11   15      1.31      0.00
    5   11   15      1.48      0.00
    7   11   15      0.98      0.00
    9   11   15      0.22      0.00
   11   11   15     -0.02      0.00
   13   11   15      0.21      0.00
  -14   12   15      0.10      0.00
  -12   12   15     -0.14      0.00
  -10   12   15     -0.56      0.00
   -8   12   15     -0.64      0.00
   -6   12   15     -0.11      0.00
   -4   12   15      0.63      0.00
   -2   12   15      1.16      0.00
    0   12   15      1.39      0.00
    2   12   15      1.18      0.00
    4   12   15      0.47      0.00
    6   12   15     -0.20      0.00
    8   12   15     -0.21      0.00
   10   12   15      0.19      0.00
  -11   13   15      0.94      0.00
   -9   13   15      1.39      0.00
   -7   13   15      1.59      0.00
   -5   13   15      1.18      0.00
   -3   13   15      0.24      0.00
   -1   13   15     -0.81      0.00
    1   13   15     -1.46      0.00
    3   13   15     -1.48      0.00
    5   13   15     -1.02      0.00
    7   13   15     -0.51      0.00
   -4   14   15     -1.08      0.00
   -2   14   15     -0.47      0.00
    0   14   15      0.13      0.00
    2   14   15      0.51      0.00
  -24    0   16     -0.04      0.00
  -22    0   16     -0.16      0.00
  -20    0   16     -1.11      0.00
  -18    0   16     -1.99      0.00
  -16    0   16     -1.38      0.00
  -14    0   16      0.36      0.00
  -12    0   16      1.05      0.00
  -10    0   16     -0.10      0.00
   -8    0   16     -1.47      0.00
   -6    0   16     -1.95      0.00
   -4    0   16     -2.29      0.00
   -2    0   16     -2.69      0.00
    0    0   16     -2.15      0.00
    2    0   16     -0.84      0.00
    4    0   16     -0.24      0.00
    6    0   16     -0.49      0.00
    8    0   16     -0.36      0.00
   10    0   16      0.27      0.00
   12    0   16      0.52      0.00
   14    0   16      0.48      0.00
   16    0   16      0.72      0.00
   18    0   16      0.76      0.00
   20    0   16      0.07      0.00
  -23    1   16     -0.03      0.00
  -21    1   16      0.29      0.00
  -19    1   16      0.84      0.00
  -17    1   16      0.91      0.00
  -15    1   16      0.07      0.00
  -13    1   16     -0.93      0.00
  -11    1   16     -1.01      0.00
   -9    1   16     -0.38      0.00
   -7    1   16      0.17      0.00
   -5    1   16      0.70      0.00
   -3    1   16      1.35      0.00
   -1    1   16      1.43      0.00
    1    1   16      0.66      0.00
    3    1   16      0.13      0.00
    5    1   16      0.36      0.00
    7    1   16      0.33      0.00
    9    1   16     -0.45      0.00
   11    1   16     -0.91      0.00
   13    1   16     -0.48      0.00
   15    1   16     -0.08      0.00
   17    1   16     -0.22      0.00
   19    1   16     -0.19      0.00
   21    1   16      0.32      0.00
  -24    2   16      0.25      0.00
  -22    2   16      0.17      0.00
  -20    2   16      0.33      0.00
  -18    2   16      0.66      0.00
  -16    2   16      0.79      0.00
  -14    2   16      0.81      0.00
  -12    2   16      1.14      0.00
  -10    2   16      1.84      0.00
   -8    2   16      2.32      0.00
   -6    2   16      1.98      0.00
   -4    2   16      1.11      0.00
   -2    2   16      0.61      0.00
    0    2   16      0.70      0.00
    2    2   16      0.58      0.00
    4    2   16     -0.11      0.00
    6    2   16     -0.43      0.00
    8    2   16      0.33      0.00
   10    2   16      1.22      0.00
   12    2   16      0.93      0.00
   14    2   16     -0.21      0.00
   16    2   16     -0.85      0.00
   18    2   16     -0.65      0.00
   20    2   16     -0.37      0.00
  -23    3   16     -0.49      0.00
  -21    3   16     -0.48      0.00
  -19    3   16     -0.83      0.00
  -17    3   16     -1.18      0.00
  -15    3   16     -1.03      0.00
  -13    3   16     -0.67      0.00
  -11    3   16     -0.85      0.00
   -9    3   16     -1.51      0.00
   -7    3   16     -1.90      0.00
   -5    3   16     -1.75      0.00
   -3    3   16     -1.52      0.00
   -1    3   16     -1.39      0.00
    1    3   16     -1.04      0.00
    3    3   16     -0.31      0.00
    5    3   16      0.35      0.00
    7    3   16      0.43      0.00
    9    3   16     -0.05      0.00
   11    3   16     -0.45      0.00
   13    3   16     -0.21      0.00
   15    3   16      0.50      0.00
   17    3   16      0.97      0.00
   19    3   16      0.86      0.00
  -22    4   16      0.45      0.00
  -20    4   16      0.28      0.00
  -18    4   16      0.28      0.00
  -16    4   16      0.34      0.00
  -14    4   16      0.07      0.00
  -12    4   16     -0.56      0.00
  -10    4   16     -1.10      0.00
   -8    4   16     -1.14      0.00
   -6    4   16     -0.60      0.00
   -4    4   16      0.25      0.00
   -2    4   16      0.83      0.00
    0    4   16      0.81      0.00
    2    4   16      0.52      0.00
    4    4   16      0.27      0.00
    6    4   16     -0.12      0.00
    8    4   16     -0.63      0.00
   10    4   16     -0.69      0.00
   12    4   16     -0.13      0.00
   14    4   16      0.29      0.00
   16    4   16      0.08      0.00
   18    4   16     -0.33      0.00
   20    4   16     -0.43      0.00
  -21    5   16      0.04      0.00
  -19    5   16      0.27      0.00
  -17    5   16      0.51      0.00
  -15    5   16      0.81      0.00
  -13    5   16      1.41      0.00
  -11    5   16      2.27      0.00
   -9    5   16      2.96      0.00
   -7    5   16      2.89      0.00
   -5    5   16      1.90      0.00
   -3    5   16      0.53      0.00
   -1    5   16     -0.47      0.00
    1    5   16     -0.97      0.00
    3    5   16     -1.26      0.00
    5    5   16     -1.25      0.00
    7    5   16     -0.67      0.00
    9    5   16      0.02      0.00
   11    5   16      0.14      0.00
   13    5   16     -0.22      0.00
   15    5   16     -0.49      0.00
   17    5   16     -0.52      0.00
   19    5   16     -0.44      0.00
  -20    6   16     -0.40      0.00
  -18    6   16     -0.47      0.00
  -16    6   16     -0.85      0.00
  -14    6   16     -1.41      0.00
  -12    6   16     -1.92      0.00
  -10    6   16     -2.25      0.00
   -8    6   16     -2.42      0.00
   -6    6   16     -2.24      0.00
   -4    6   16     -1.46      0.00
   -2    6   16     -0.12      0.00
    0    6   16      1.27      0.00
    2    6   16      2.21      0.00
    4    6   16      2.46      0.00
    6    6   16      2.10      0.00
    8    6   16      1.51      0.00
   10    6   16      0.99      0.00
   12    6   16      0.52      0.00
   14    6   16      0.14      0.00
   16    6   16      0.15      0.00
   18    6   16      0.59      0.00
  -21    7   16      0.49      0.00
  -19    7   16      0.32      0.00
  -17    7   16      0.26      0.00
  -15    7   16      0.40      0.00
  -13    7   16      0.61      0.00
  -11    7   16      0.69      0.00
   -9    7   16      0.67      0.00
   -7    7   16      0.74      0.00
   -5    7   16      0.82      0.00
   -3    7   16      0.50      0.00
   -1    7   16     -0.48      0.00
    1    7   16     -1.64      0.00
    3    7   16     -2.23      0.00
    5    7   16     -1.99      0.00
    7    7   16     -1.43      0.00
    9    7   16     -1.05      0.00
   11    7   16     -0.77      0.00
   13    7   16     -0.29      0.00
   15    7   16      0.15      0.00
   17    7   16      0.08      0.00
  -18    8   16     -0.06      0.00
  -16    8   16      0.28      0.00
  -14    8   16      0.71      0.00
  -12    8   16      0.91      0.00
  -10    8   16      0.87      0.00
   -8    8   16      0.80      0.00
   -6    8   16      0.59      0.00
   -4    8   16      0.09      0.00
   -2    8   16     -0.36      0.00
    0    8   16     -0.32      0.00
    2    8   16      0.03      0.00
    4    8   16      0.14      0.00
    6    8   16     -0.10      0.00
    8    8   16     -0.29      0.00
   10    8   16     -0.22      0.00
   12    8   16     -0.08      0.00
   14    8   16     -0.08      0.00
   16    8   16     -0.14      0.00
  -17    9   16     -0.16      0.00
  -15    9   16     -0.82      0.00
  -13    9   16     -1.56      0.00
  -11    9   16     -1.86      0.00
   -9    9   16     -1.87      0.00
   -7    9   16     -1.79      0.00
   -5    9   16     -1.27      0.00
   -3    9   16     -0.09      0.00
   -1    9   16      1.18      0.00
    1    9   16      1.89      0.00
    3    9   16      2.03      0.00
    5    9   16      1.81      0.00
    7    9   16      1.38      0.00
    9    9   16      0.99      0.00
   11    9   16      0.84      0.00
   13    9   16      0.69      0.00
   15    9   16      0.32      0.00
  -16   10   16      0.35      0.00
  -14   10   16      1.04      0.00
  -12   10   16      1.57      0.00
  -10   10   16      1.78      0.00
   -8   10   16      1.97      0.00
   -6   10   16      2.01      0.00
   -4   10   16      1.35      0.00
   -2   10   16      0.05      0.00
    0   10   16     -1.18      0.00
    2   10   16     -1.95      0.00
    4   10   16     -2.14      0.00
    6   10   16     -1.67      0.00
    8   10   16     -0.91      0.00
   10   10   16     -0.65      0.00
   12   10   16     -0.90      0.00
  -13   11   16     -0.71      0.00
  -11   11   16     -0.52      0.00
   -9   11   16     -0.46      0.00
   -7   11   16     -0.93      0.00
   -5   11   16     -1.43      0.00
   -3   11   16     -1.35      0.00
   -1   11   16     -0.84      0.00
    1   11   16     -0.30      0.00
    3   11   16      0.26      0.00
    5   11   16      0.67      0.00
    7   11   16      0.60      0.00
    9   11   16      0.28      0.00
   11   11   16      0.28      0.00
  -12   12   16     -0.31      0.00
  -10   12   16     -1.05      0.00
   -8   12   16     -1.13      0.00
   -6   12   16     -0.36      0.00
   -4   12   16      0.60      0.00
   -2   12   16      1.23      0.00
    0   12   16      1.59      0.00
    2   12   16      1.62      0.00
    4   12   16      1.12      0.00
    6   12   16      0.35      0.00
    8   12   16     -0.08      0.00
   -7   13   16      1.56      0.00
   -5   13   16      0.97      0.00
   -3   13   16      0.11      0.00
   -1   13   16     -0.70      0.00
    1   13   16     -1.28      0.00
    3   13   16     -1.46      0.00
  -22    0   17      0.16      0.00
  -20    0   17     -0.09      0.00
  -18    0   17     -0.84      0.00
  -16    0   17     -0.86      0.00
  -14    0   17     -0.05      0.00
  -12    0   17      0.14      0.00
  -10    0   17     -0.77      0.00
   -8    0   17     -1.50      0.00
   -6    0   17     -1.64      0.00
   -4    0   17     -2.27      0.00
   -2    0   17     -3.43      0.00
    0    0   17     -3.67      0.00
    2    0   17     -2.63      0.00
    4    0   17     -1.52      0.00
    6    0   17     -0.96      0.00
    8    0   17     -0.62      0.00
   10    0   17     -0.48      0.00
   12    0   17     -0.56      0.00
   14    0   17     -0.26      0.00
   16    0   17      0.50      0.00
   18    0   17      0.70      0.00
  -23    1   17      0.08      0.00
  -21    1   17     -0.02      0.00
  -19    1   17      0.19      0.00
  -17    1   17      0.34      0.00
  -15    1   17      0.06      0.00
  -13    1   17     -0.25      0.00
  -11    1   17     -0.14      0.00
   -9    1   17     -0.06      0.00
   -7    1   17     -0.23      0.00
   -5    1   17      0.18      0.00
   -3    1   17      1.47      0.00
   -1    1   17      2.40      0.00
    1    1   17      2.06      0.00
    3    1   17      1.26      0.00
    5    1   17      0.83      0.00
    7    1   17      0.43      0.00
    9    1   17     -0.10      0.00
   11    1   17     -0.18      0.00
   13    1   17      0.14      0.00
   15    1   17      0.12      0.00
   17    1   17     -0.21      0.00
   19    1   17     -0.10      0.00
  -22    2   17     -0.18      0.00
  -20    2   17     -0.11      0.00
  -18    2   17      0.32      0.00
  -16    2   17      0.56      0.00
  -14    2   17      0.38      0.00
  -12    2   17      0.43      0.00
  -10    2   17      1.39      0.00
   -8    2   17      2.72      0.00
   -6    2   17      3.01      0.00
   -4    2   17      1.84      0.00
   -2    2   17      0.47      0.00
    0    2   17      0.03      0.00
    2    2   17      0.15      0.00
    4    2   17      0.04      0.00
    6    2   17     -0.03      0.00
    8    2   17      0.47      0.00
   10    2   17      0.99      0.00
   12    2   17      0.71      0.00
   14    2   17     -0.11      0.00
   16    2   17     -0.62      0.00
   18    2   17     -0.64      0.00
  -21    3   17      0.26      0.00
  -19    3   17      0.19      0.00
  -17    3   17     -0.16      0.00
  -15    3   17     -0.21      0.00
  -13    3   17     -0.10      0.00
  -11    3   17     -0.66      0.00
   -9    3   17     -1.97      0.00
   -7    3   17     -2.99      0.00
   -5    3   17     -2.94      0.00
   -3    3   17     -2.15      0.00
   -1    3   17     -1.43      0.00
    1    3   17     -1.06      0.00
    3    3   17     -0.84      0.00
    5    3   17     -0.58      0.00
    7    3   17     -0.35      0.00
    9    3   17     -0.29      0.00
   11    3   17     -0.33      0.00
   13    3   17     -0.19      0.00
   15    3   17      0.24      0.00
   17    3   17      0.73      0.00
   19    3   17      0.94      0.00
  -22    4   17      0.04      0.00
  -20    4   17     -0.32      0.00
  -18    4   17     -0.61      0.00
  -16    4   17     -0.70      0.00
  -14    4   17     -0.72      0.00
  -12    4   17     -0.68      0.00
  -10    4   17     -0.49      0.00
   -8    4   17     -0.10      0.00
   -6    4   17      0.47      0.00
   -4    4   17      1.06      0.00
   -2    4   17      1.24      0.00
    0    4   17      0.99      0.00
    2    4   17      0.82      0.00
    4    4   17      0.94      0.00
    6    4   17      0.74      0.00
    8    4   17     -0.03      0.00
   10    4   17     -0.61      0.00
   12    4   17     -0.37      0.00
   14    4   17      0.19      0.00
   16    4   17      0.23      0.00
   18    4   17     -0.27      0.00
  -21    5   17      0.07      0.00
  -19    5   17      0.32      0.00
  -17    5   17      0.81      0.00
  -15    5   17      1.32      0.00
  -13    5   17      1.71      0.00
  -11    5   17      1.97      0.00
   -9    5   17      2.14      0.00
   -7    5   17      1.98      0.00
   -5    5   17      1.25      0.00
   -3    5   17      0.25      0.00
   -1    5   17     -0.41      0.00
    1    5   17     -0.74      0.00
    3    5   17     -1.12      0.00
    5    5   17     -1.33      0.00
    7    5   17     -0.90      0.00
    9    5   17     -0.15      0.00
   11    5   17      0.15      0.00
   13    5   17     -0.12      0.00
   15    5   17     -0.45      0.00
   17    5   17     -0.51      0.00
  -20    6   17     -0.10      0.00
  -18    6   17     -0.15      0.00
  -16    6   17     -0.72      0.00
  -14    6   17     -1.53      0.00
  -12    6   17     -2.03      0.00
  -10    6   17     -2.04      0.00
   -8    6   17     -1.84      0.00
   -6    6   17     -1.63      0.00
   -4    6   17     -1.25      0.00
   -2    6   17     -0.52      0.00
    0    6   17      0.42      0.00
    2    6   17      1.27      0.00
    4    6   17      1.68      0.00
    6    6   17      1.57      0.00
    8    6   17      1.24      0.00
   10    6   17      0.98      0.00
   12    6   17      0.67      0.00
   14    6   17      0.30      0.00
   16    6   17      0.21      0.00
  -19    7   17      0.08      0.00
  -17    7   17      0.10      0.00
  -15    7   17      0.40      0.00
  -13    7   17      0.79      0.00
  -11    7   17      0.87      0.00
   -9    7   17      0.58      0.00
   -7    7   17      0.36      0.00
   -5    7   17      0.49      0.00
   -3    7   17      0.64      0.00
   -1    7   17      0.30      0.00
    1    7   17     -0.46      0.00
    3    7   17     -1.06      0.00
    5    7   17     -1.11      0.00
    7    7   17     -0.90      0.00
    9    7   17     -0.84      0.00
   11    7   17     -0.81      0.00
   13    7   17     -0.51      0.00
   15    7   17     -0.08      0.00
  -18    8   17     -0.14      0.00
  -16    8   17      0.02      0.00
  -14    8   17      0.34      0.00
  -12    8   17      0.55      0.00
  -10    8   17      0.65      0.00
   -8    8   17      0.80      0.00
   -6    8   17      0.79      0.00
   -4    8   17      0.36      0.00
   -2    8   17     -0.28      0.00
    0    8   17     -0.64      0.00
    2    8   17     -0.65      0.00
    4    8   17     -0.57      0.00
    6    8   17     -0.49      0.00
    8    8   17     -0.33      0.00
   10    8   17     -0.10      0.00
   12    8   17      0.09      0.00
   14    8   17      0.11      0.00
  -17    9   17      0.11      0.00
  -15    9   17     -0.26      0.00
  -13    9   17     -0.88      0.00
  -11    9   17     -1.28      0.00
   -9    9   17     -1.49      0.00
   -7    9   17     -1.64      0.00
   -5    9   17     -1.44      0.00
   -3    9   17     -0.63      0.00
   -1    9   17      0.47      0.00
    1    9   17      1.46      0.00
    3    9   17      2.06      0.00
    5    9   17      1.99      0.00
    7    9   17      1.27      0.00
    9    9   17      0.55      0.00
   11    9   17      0.33      0.00
   13    9   17      0.37      0.00
  -14   10   17      0.31      0.00
  -12   10   17      0.68      0.00
  -10   10   17      1.01      0.00
   -8   10   17      1.44      0.00
   -6   10   17      1.75      0.00
   -4   10   17      1.48      0.00
   -2   10   17      0.69      0.00
    0   10   17     -0.32      0.00
    2   10   17     -1.37      0.00
    4   10   17     -2.02      0.00
    6   10   17     -1.63      0.00
    8   10   17     -0.52      0.00
   10   10   17      0.07      0.00
  -11   11   17      0.21      0.00
   -9   11   17      0.14      0.00
   -7   11   17     -0.47      0.00
   -5   11   17     -1.13      0.00
   -3   11   17     -1.34      0.00
   -1   11   17     -1.15      0.00
    1   11   17     -0.63      0.00
    3   11   17      0.18      0.00
    5   11   17      0.74      0.00
    7   11   17      0.47      0.00
    9   11   17     -0.18      0.00
   -8   12   17     -1.24      0.00
   -6   12   17     -0.48      0.00
   -4   12   17      0.47      0.00
   -2   12   17      1.12      0.00
    0   12   17      1.40      0.00
    2   12   17      1.24      0.00
    4   12   17      0.67      0.00
  -20    0   18      0.52      0.00
  -18    0   18      0.12      0.00
  -16    0   18      0.36      0.00
  -14    0   18      1.15      0.00
  -12    0   18      0.90      0.00
  -10    0   18     -0.94      0.00
   -8    0   18     -2.87      0.00
   -6    0   18     -3.59      0.00
   -4    0   18     -3.42      0.00
   -2    0   18     -2.93      0.00
    0    0   18     -2.37      0.00
    2    0   18     -2.21      0.00
    4    0   18     -2.62      0.00
    6    0   18     -2.70      0.00
    8    0   18     -1.88      0.00
   10    0   18     -0.99      0.00
   12    0   18     -0.70      0.00
   14    0   18     -0.33      0.00
   16    0   18      0.53      0.00
   18    0   18      1.01      0.00
  -21    1   18     -0.31      0.00
  -19    1   18     -0.17      0.00
  -17    1   18     -0.34      0.00
  -15    1   18     -0.96      0.00
  -13    1   18     -1.19      0.00
  -11    1   18     -0.37      0.00
   -9    1   18      0.84      0.00
   -7    1   18      1.53      0.00
   -5    1   18      1.77      0.00
   -3    1   18      1.78      0.00
   -1    1   18      1.40      0.00
    1    1   18      1.01      0.00
    3    1   18      1.38      0.00
    5    1   18      2.08      0.00
    7    1   18      1.85      0.00
    9    1   18      0.70      0.00
   11    1   18     -0.05      0.00
   13    1   18     -0.06      0.00
   15    1   18     -0.12      0.00
   17    1   18     -0.50      0.00
  -20    2   18     -0.34      0.00
  -18    2   18     -0.09      0.00
  -16    2   18      0.61      0.00
  -14    2   18      0.97      0.00
  -12    2   18      0.90      0.00
  -10    2   18      1.02      0.00
   -8    2   18      1.45      0.00
   -6    2   18      1.51      0.00
   -4    2   18      1.02      0.00
   -2    2   18      0.77      0.00
    0    2   18      1.04      0.00
    2    2   18      0.89      0.00
    4    2   18     -0.13      0.00
    6    2   18     -0.88      0.00
    8    2   18     -0.35      0.00
   10    2   18      0.76      0.00
   12    2   18      1.07      0.00
   14    2   18      0.50      0.00
   16    2   18     -0.05      0.00
   18    2   18     -0.07      0.00
  -21    3   18      0.28      0.00
  -19    3   18      0.84      0.00
  -17    3   18      0.64      0.00
  -15    3   18      0.08      0.00
  -13    3   18     -0.45      0.00
  -11    3   18     -1.06      0.00
   -9    3   18     -1.76      0.00
   -7    3   18     -2.10      0.00
   -5    3   18     -1.97      0.00
   -3    3   18     -1.84      0.00
   -1    3   18     -1.95      0.00
    1    3   18     -1.89      0.00
    3    3   18     -1.27      0.00
    5    3   18     -0.40      0.00
    7    3   18      0.06      0.00
    9    3   18     -0.10      0.00
   11    3   18     -0.46      0.00
   13    3   18     -0.51      0.00
   15    3   18     -0.20      0.00
   17    3   18      0.11      0.00
  -20    4   18     -0.41      0.00
  -18    4   18     -1.08      0.00
  -16    4   18     -1.20      0.00
  -14    4   18     -0.67      0.00
  -12    4   18      0.09      0.00
  -10    4   18      0.43      0.00
   -8    4   18      0.15      0.00
   -6    4   18     -0.08      0.00
   -4    4   18      0.37      0.00
   -2    4   18      1.14      0.00
    0    4   18      1.45      0.00
    2    4   18      1.22      0.00
    4    4   18      0.87      0.00
    6    4   18      0.42      0.00
    8    4   18     -0.20      0.00
   10    4   18     -0.61      0.00
   12    4   18     -0.46      0.00
   14    4   18      0.03      0.00
   16    4   18      0.37      0.00
  -19    5   18      0.20      0.00
  -17    5   18      0.69      0.00
  -15    5   18      0.99      0.00
  -13    5   18      0.89      0.00
  -11    5   18      0.75      0.00
   -9    5   18      1.13      0.00
   -7    5   18      1.75      0.00
   -5    5   18      1.71      0.00
   -3    5   18      0.81      0.00
   -1    5   18     -0.20      0.00
    1    5   18     -0.72      0.00
    3    5   18     -0.87      0.00
    5    5   18     -0.76      0.00
    7    5   18     -0.34      0.00
    9    5   18      0.15      0.00
   11    5   18      0.36      0.00
   13    5   18      0.22      0.00
   15    5   18     -0.16      0.00
  -18    6   18      0.16      0.00
  -16    6   18     -0.10      0.00
  -14    6   18     -0.63      0.00
  -12    6   18     -1.01      0.00
  -10    6   18     -1.14      0.00
   -8    6   18     -1.32      0.00
   -6    6   18     -1.62      0.00
   -4    6   18     -1.67      0.00
   -2    6   18     -1.15      0.00
    0    6   18     -0.20      0.00
    2    6   18      0.69      0.00
    4    6   18      1.04      0.00
    6    6   18      0.86      0.00
    8    6   18      0.63      0.00
   10    6   18      0.56      0.00
   12    6   18      0.38      0.00
   14    6   18      0.04      0.00
  -17    7   18     -0.14      0.00
  -15    7   18     -0.13      0.00
  -13    7   18      0.14      0.00
  -11    7   18      0.33      0.00
   -9    7   18      0.27      0.00
   -7    7   18      0.27      0.00
   -5    7   18      0.64      0.00
   -3    7   18      1.09      0.00
   -1    7   18      1.00      0.00
    1    7   18      0.26      0.00
    3    7   18     -0.50      0.00
    5    7   18     -0.75      0.00
    7    7   18     -0.61      0.00
    9    7   18     -0.49      0.00
   11    7   18     -0.41      0.00
   13    7   18     -0.17      0.00
  -16    8   18      0.00      0.00
  -14    8   18      0.41      0.00
  -12    8   18      0.64      0.00
  -10    8   18      0.68      0.00
   -8    8   18      0.73      0.00
   -6    8   18      0.60      0.00
   -4    8   18      0.06      0.00
   -2    8   18     -0.64      0.00
    0    8   18     -0.97      0.00
    2    8   18     -0.82      0.00
    4    8   18     -0.45      0.00
    6    8   18     -0.16      0.00
    8    8   18     -0.10      0.00
   10    8   18     -0.20      0.00
   12    8   18     -0.27      0.00
  -15    9   18     -0.10      0.00
  -13    9   18     -0.55      0.00
  -11    9   18     -0.87      0.00
   -9    9   18     -1.16      0.00
   -7    9   18     -1.35      0.00
   -5    9   18     -1.07      0.00
   -3    9   18     -0.27      0.00
   -1    9   18      0.61      0.00
    1    9   18      1.24      0.00
    3    9   18      1.49      0.00
    5    9   18      1.23      0.00
    7    9   18      0.58      0.00
    9    9   18      0.16      0.00
   11    9   18      0.28      0.00
  -12   10   18      0.12      0.00
  -10   10   18      0.39      0.00
   -8   10   18      1.01      0.00
   -6   10   18      1.38      0.00
   -4   10   18      0.97      0.00
   -2   10   18      0.17      0.00
    0   10   18     -0.47      0.00
    2   10   18     -0.96      0.00
    4   10   18     -1.21      0.00
    6   10   18     -0.77      0.00
    8   10   18      0.08      0.00
   -9   11   18      0.50      0.00
   -7   11   18     -0.26      0.00
   -5   11   18     -0.78      0.00
   -3   11   18     -0.66      0.00
   -1   11   18     -0.35      0.00
    1   11   18     -0.18      0.00
    3   11   18      0.02      0.00
    5   11   18      0.13      0.00
   -2   12   18      0.45      0.00
  -20    0   19      0.64      0.00
  -18    0   19      1.05      0.00
  -16    0   19      1.24      0.00
  -14    0   19      1.04      0.00
  -12    0   19     -0.06      0.00
  -10    0   19     -1.68      0.00
   -8    0   19     -2.65      0.00
   -6    0   19     -2.68      0.00
   -4    0   19     -2.48      0.00
   -2    0   19     -2.36      0.00
    0    0   19     -2.19      0.00
    2    0   19     -2.24      0.00
    4    0   19     -2.52      0.00
    6    0   19     -2.35      0.00
    8    0   19     -1.55      0.00
   10    0   19     -0.94      0.00
   12    0   19     -0.88      0.00
   14    0   19     -0.60      0.00
   16    0   19      0.09      0.00
  -19    1   19     -0.51      0.00
  -17    1   19     -1.04      0.00
  -15    1   19     -1.19      0.00
  -13    1   19     -0.47      0.00
  -11    1   19      0.79      0.00
   -9    1   19      1.42      0.00
   -7    1   19      1.13      0.00
   -5    1   19      0.85      0.00
   -3    1   19      1.07      0.00
   -1    1   19      1.23      0.00
    1    1   19      1.17      0.00
    3    1   19      1.39      0.00
    5    1   19      1.73      0.00
    7    1   19      1.40      0.00
    9    1   19      0.54      0.00
   11    1   19      0.02      0.00
   13    1   19     -0.01      0.00
   15    1   19     -0.05      0.00
  -20    2   19     -0.37      0.00
  -18    2   19      0.01      0.00
  -16    2   19      0.55      0.00
  -14    2   19      0.33      0.00
  -12    2   19     -0.37      0.00
  -10    2   19     -0.23      0.00
   -8    2   19      1.05      0.00
   -6    2   19      2.06      0.00
   -4    2   19      1.77      0.00
   -2    2   19      0.91      0.00
    0    2   19      0.55      0.00
    2    2   19      0.46      0.00
    4    2   19      0.05      0.00
    6    2   19     -0.30      0.00
    8    2   19      0.05      0.00
   10    2   19      0.80      0.00
   12    2   19      1.14      0.00
   14    2   19      0.78      0.00
   16    2   19      0.12      0.00
  -19    3   19      0.69      0.00
  -17    3   19      0.77      0.00
  -15    3   19      0.76      0.00
  -13    3   19      0.73      0.00
  -11    3   19      0.13      0.00
   -9    3   19     -1.21      0.00
   -7    3   19     -2.44      0.00
   -5    3   19     -2.69      0.00
   -3    3   19     -2.11      0.00
   -1    3   19     -1.42      0.00
    1    3   19     -1.03      0.00
    3    3   19     -0.82      0.00
    5    3   19     -0.62      0.00
    7    3   19     -0.45      0.00
    9    3   19     -0.42      0.00
   11    3   19     -0.53      0.00
   13    3   19     -0.58      0.00
   15    3   19     -0.37      0.00
  -18    4   19     -0.70      0.00
  -16    4   19     -1.32      0.00
  -14    4   19     -1.39      0.00
  -12    4   19     -0.68      0.00
  -10    4   19      0.29      0.00
   -8    4   19      0.80      0.00
   -6    4   19      0.84      0.00
   -4    4   19      0.87      0.00
   -2    4   19      0.87      0.00
    0    4   19      0.61      0.00
    2    4   19      0.34      0.00
    4    4   19      0.35      0.00
    6    4   19      0.37      0.00
    8    4   19      0.00      0.00
   10    4   19     -0.51      0.00
   12    4   19     -0.61      0.00
   14    4   19     -0.21      0.00
  -17    5   19      0.18      0.00
  -15    5   19      0.80      0.00
  -13    5   19      0.94      0.00
  -11    5   19      0.57      0.00
   -9    5   19      0.39      0.00
   -7    5   19      0.66      0.00
   -5    5   19      0.87      0.00
   -3    5   19      0.65      0.00
   -1    5   19      0.32      0.00
    1    5   19      0.11      0.00
    3    5   19     -0.07      0.00
    5    5   19     -0.13      0.00
    7    5   19      0.10      0.00
    9    5   19      0.46      0.00
   11    5   19      0.65      0.00
   13    5   19      0.53      0.00
  -16    6   19      0.39      0.00
  -14    6   19     -0.14      0.00
  -12    6   19     -0.58      0.00
  -10    6   19     -0.66      0.00
   -8    6   19     -0.64      0.00
   -6    6   19     -0.84      0.00
   -4    6   19     -1.12      0.00
   -2    6   19     -1.13      0.00
    0    6   19     -0.66      0.00
    2    6   19      0.04      0.00
    4    6   19      0.39      0.00
    6    6   19      0.20      0.00
    8    6   19     -0.07      0.00
   10    6   19     -0.05      0.00
   12    6   19      0.01      0.00
  -15    7   19     -0.34      0.00
  -13    7   19     -0.17      0.00
  -11    7   19      0.06      0.00
   -9    7   19      0.11      0.00
   -7    7   19      0.12      0.00
   -5    7   19      0.40      0.00
   -3    7   19      0.83      0.00
   -1    7   19      0.90      0.00
    1    7   19      0.40      0.00
    3    7   19     -0.23      0.00
    5    7   19     -0.40      0.00
    7    7   19     -0.14      0.00
    9    7   19      0.09      0.00
   11    7   19      0.10      0.00
  -14    8   19      0.25      0.00
  -12    8   19      0.58      0.00
  -10    8   19      0.59      0.00
   -8    8   19      0.43      0.00
   -6    8   19      0.16      0.00
   -4    8   19     -0.18      0.00
   -2    8   19     -0.45      0.00
    0    8   19     -0.50      0.00
    2    8   19     -0.40      0.00
    4    8   19     -0.27      0.00
    6    8   19     -0.23      0.00
    8    8   19     -0.36      0.00
   10    8   19     -0.57      0.00
  -11    9   19     -0.62      0.00
   -9    9   19     -0.71      0.00
   -7    9   19     -0.59      0.00
   -5    9   19     -0.24      0.00
   -3    9   19      0.10      0.00
   -1    9   19      0.23      0.00
    1    9   19      0.40      0.00
    3    9   19      0.75      0.00
    5    9   19      0.91      0.00
    7    9   19      0.67      0.00
  -10   10   19      0.10      0.00
   -8   10   19      0.33      0.00
   -6   10   19      0.38      0.00
   -4   10   19      0.10      0.00
   -2   10   19     -0.08      0.00
    0   10   19     -0.01      0.00
    2   10   19     -0.21      0.00
    4   10   19     -0.69      0.00
    6   10   19     -0.74      0.00
   -3   11   19     -0.01      0.00
   -1   11   19     -0.26      0.00
  -18    0   20      0.81      0.00
  -16    0   20      1.38      0.00
  -14    0   20      1.72      0.00
  -12    0   20      1.06      0.00
  -10    0   20     -0.58      0.00
   -8    0   20     -2.28      0.00
   -6    0   20     -3.24      0.00
   -4    0   20     -3.17      0.00
   -2    0   20     -2.10      0.00
    0    0   20     -0.84      0.00
    2    0   20     -0.53      0.00
    4    0   20     -1.16      0.00
    6    0   20     -1.51      0.00
    8    0   20     -1.18      0.00
   10    0   20     -1.02      0.00
   12    0   20     -1.28      0.00
   14    0   20     -1.13      0.00
  -17    1   20     -0.80      0.00
  -15    1   20     -1.46      0.00
  -13    1   20     -1.32      0.00
  -11    1   20     -0.23      0.00
   -9    1   20      0.96      0.00
   -7    1   20      1.61      0.00
   -5    1   20      1.80      0.00
   -3    1   20      1.49      0.00
   -1    1   20      0.63      0.00
    1    1   20     -0.10      0.00
    3    1   20      0.08      0.00
    5    1   20      0.72      0.00
    7    1   20      0.83      0.00
    9    1   20      0.47      0.00
   11    1   20      0.35      0.00
   13    1   20      0.43      0.00
  -18    2   20     -0.31      0.00
  -16    2   20      0.33      0.00
  -14    2   20      0.67      0.00
  -12    2   20      0.32      0.00
  -10    2   20      0.07      0.00
   -8    2   20      0.46      0.00
   -6    2   20      0.89      0.00
   -4    2   20      0.80      0.00
   -2    2   20      0.64      0.00
    0    2   20      0.86      0.00
    2    2   20      1.04      0.00
    4    2   20      0.72      0.00
    6    2   20      0.31      0.00
    8    2   20      0.34      0.00
   10    2   20      0.65      0.00
   12    2   20      0.79      0.00
   14    2   20      0.57      0.00
  -17    3   20      0.81      0.00
  -15    3   20      0.76      0.00
  -13    3   20      0.47      0.00
  -11    3   20     -0.16      0.00
   -9    3   20     -1.03      0.00
   -7    3   20     -1.65      0.00
   -5    3   20     -1.68      0.00
   -3    3   20     -1.36      0.00
   -1    3   20     -1.06      0.00
    1    3   20     -0.86      0.00
    3    3   20     -0.73      0.00
    5    3   20     -0.69      0.00
    7    3   20     -0.73      0.00
    9    3   20     -0.69      0.00
   11    3   20     -0.54      0.00
   13    3   20     -0.37      0.00
  -16    4   20     -0.98      0.00
  -14    4   20     -1.13      0.00
  -12    4   20     -0.34      0.00
  -10    4   20      0.67      0.00
   -8    4   20      0.93      0.00
   -6    4   20      0.56      0.00
   -4    4   20      0.31      0.00
   -2    4   20      0.32      0.00
    0    4   20      0.16      0.00
    2    4   20     -0.16      0.00
    4    4   20     -0.19      0.00
    6    4   20      0.10      0.00
    8    4   20      0.21      0.00
   10    4   20     -0.13      0.00
   12    4   20     -0.56      0.00
  -15    5   20      0.18      0.00
  -13    5   20      0.31      0.00
  -11    5   20     -0.09      0.00
   -9    5   20     -0.27      0.00
   -7    5   20      0.18      0.00
   -5    5   20      0.69      0.00
   -3    5   20      0.78      0.00
   -1    5   20      0.66      0.00
    1    5   20      0.64      0.00
    3    5   20      0.62      0.00
    5    5   20      0.51      0.00
    7    5   20      0.35      0.00
    9    5   20      0.30      0.00
   11    5   20      0.45      0.00
  -14    6   20      0.57      0.00
  -12    6   20      0.13      0.00
  -10    6   20     -0.05      0.00
   -8    6   20     -0.11      0.00
   -6    6   20     -0.30      0.00
   -4    6   20     -0.66      0.00
   -2    6   20     -0.97      0.00
    0    6   20     -0.94      0.00
    2    6   20     -0.55      0.00
    4    6   20     -0.22      0.00
    6    6   20     -0.15      0.00
    8    6   20     -0.09      0.00
   10    6   20      0.10      0.00
  -13    7   20     -0.44      0.00
  -11    7   20     -0.15      0.00
   -9    7   20     -0.11      0.00
   -7    7   20     -0.20      0.00
   -5    7   20     -0.07      0.00
   -3    7   20      0.38      0.00
   -1    7   20      0.76      0.00
    1    7   20      0.68      0.00
    3    7   20      0.24      0.00
    5    7   20     -0.14      0.00
    7    7   20     -0.28      0.00
    9    7   20     -0.30      0.00
  -12    8   20      0.17      0.00
  -10    8   20      0.29      0.00
   -8    8   20      0.42      0.00
   -6    8   20      0.36      0.00
   -4    8   20      0.07      0.00
   -2    8   20     -0.28      0.00
    0    8   20     -0.53      0.00
    2    8   20     -0.62      0.00
    4    8   20     -0.45      0.00
    6    8   20     -0.06      0.00
    8    8   20      0.19      0.00
   -9    9   20     -0.29      0.00
   -7    9   20     -0.60      0.00
   -5    9   20     -0.40      0.00
   -3    9   20      0.06      0.00
   -1    9   20      0.35      0.00
    1    9   20      0.59      0.00
    3    9   20      0.86      0.00
    5    9   20      0.81      0.00
   -2   10   20     -0.20      0.00
  -16    0   21      1.20      0.00
  -14    0   21      1.35      0.00
  -12    0   21      0.60      0.00
  -10    0   21     -0.65      0.00
   -8    0   21     -1.77      0.00
   -6    0   21     -2.45      0.00
   -4    0   21     -2.27      0.00
   -2    0   21     -1.00      0.00
    0    0   21      0.53      0.00
    2    0   21      0.88      0.00
    4    0   21     -0.04      0.00
    6    0   21     -0.89      0.00
    8    0   21     -0.98      0.00
   10    0   21     -0.93      0.00
   12    0   21     -1.14      0.00
  -15    1   21     -1.19      0.00
  -13    1   21     -0.93      0.00
  -11    1   21      0.12      0.00
   -9    1   21      1.02      0.00
   -7    1   21      1.38      0.00
   -5    1   21      1.33      0.00
   -3    1   21      0.75      0.00
   -1    1   21     -0.38      0.00
    1    1   21     -1.21      0.00
    3    1   21     -0.92      0.00
    5    1   21      0.02      0.00
    7    1   21      0.56      0.00
    9    1   21      0.53      0.00
   11    1   21      0.44      0.00
  -16    2   21      0.13      0.00
  -14    2   21      0.42      0.00
  -12    2   21     -0.05      0.00
  -10    2   21     -0.47      0.00
   -8    2   21     -0.15      0.00
   -6    2   21      0.48      0.00
   -4    2   21      0.84      0.00
   -2    2   21      1.07      0.00
    0    2   21      1.40      0.00
    2    2   21      1.50      0.00
    4    2   21      1.07      0.00
    6    2   21      0.46      0.00
    8    2   21      0.19      0.00
   10    2   21      0.32      0.00
   12    2   21      0.56      0.00
  -15    3   21      0.75      0.00
  -13    3   21      0.72      0.00
  -11    3   21      0.40      0.00
   -9    3   21     -0.25      0.00
   -7    3   21     -0.88      0.00
   -5    3   21     -1.20      0.00
   -3    3   21     -1.28      0.00
   -1    3   21     -1.26      0.00
    1    3   21     -1.09      0.00
    3    3   21     -0.81      0.00
    5    3   21     -0.58      0.00
    7    3   21     -0.49      0.00
    9    3   21     -0.45      0.00
   11    3   21     -0.40      0.00
  -14    4   21     -1.03      0.00
  -12    4   21     -0.60      0.00
  -10    4   21      0.21      0.00
   -8    4   21      0.49      0.00
   -6    4   21      0.22      0.00
   -4    4   21      0.10      0.00
   -2    4   21      0.33      0.00
    0    4   21      0.42      0.00
    2    4   21      0.13      0.00
    4    4   21     -0.18      0.00
    6    4   21     -0.19      0.00
    8    4   21     -0.09      0.00
   10    4   21     -0.21      0.00
  -13    5   21      0.08      0.00
  -11    5   21     -0.17      0.00
   -9    5   21     -0.23      0.00
   -7    5   21      0.24      0.00
   -5    5   21      0.73      0.00
   -3    5   21      0.72      0.00
   -1    5   21      0.38      0.00
    1    5   21      0.13      0.00
    3    5   21      0.16      0.00
    5    5   21      0.39      0.00
    7    5   21      0.58      0.00
    9    5   21      0.61      0.00
  -12    6   21      0.57      0.00
  -10    6   21      0.28      0.00
   -8    6   21     -0.06      0.00
   -6    6   21     -0.38      0.00
   -4    6   21     -0.61      0.00
   -2    6   21     -0.65      0.00
    0    6   21     -0.36      0.00
    2    6   21      0.16      0.00
    4    6   21      0.40      0.00
    6    6   21      0.13      0.00
    8    6   21     -0.24      0.00
  -11    7   21     -0.51      0.00
   -9    7   21     -0.30      0.00
   -7    7   21     -0.04      0.00
   -5    7   21      0.21      0.00
   -3    7   21      0.39      0.00
   -1    7   21      0.33      0.00
    1    7   21     -0.10      0.00
    3    7   21     -0.65      0.00
    5    7   21     -0.89      0.00
   -8    8   21      0.34      0.00
   -6    8   21     -0.08      0.00
   -4    8   21     -0.46      0.00
   -2    8   21     -0.42      0.00
    0    8   21     -0.05      0.00
    2    8   21      0.31      0.00
  -14    0   22      0.74      0.00
  -12    0   22      0.14      0.00
  -10    0   22     -0.34      0.00
   -8    0   22     -0.53      0.00
   -6    0   22     -0.73      0.00
   -4    0   22     -0.86      0.00
   -2    0   22     -0.48      0.00
    0    0   22      0.13      0.00
    2    0   22      0.18      0.00
    4    0   22     -0.24      0.00
    6    0   22     -0.35      0.00
    8    0   22     -0.11      0.00
  -13    1   22     -0.40      0.00
  -11    1   22      0.21      0.00
   -9    1   22      0.43      0.00
   -7    1   22      0.24      0.00
   -5    1   22      0.09      0.00
   -3    1   22     -0.01      0.00
   -1    1   22     -0.24      0.00
    1    1   22     -0.35      0.00
    3    1   22     -0.14      0.00
    5    1   22      0.06      0.00
    7    1   22     -0.04      0.00
    9    1   22     -0.11      0.00
  -12    2   22     -0.29      0.00
  -10    2   22     -0.44      0.00
   -8    2   22      0.11      0.00
   -6    2   22      0.92      0.00
   -4    2   22      1.28      0.00
   -2    2   22      1.06      0.00
    0    2   22      0.61      0.00
    2    2   22      0.25      0.00
    4    2   22      0.19      0.00
    6    2   22      0.38      0.00
    8    2   22      0.53      0.00
  -13    3   22      0.89      0.00
  -11    3   22      0.66      0.00
   -9    3   22     -0.07      0.00
   -7    3   22     -0.90      0.00
   -5    3   22     -1.40      0.00
   -3    3   22     -1.37      0.00
   -1    3   22     -0.86      0.00
    1    3   22     -0.12      0.00
    3    3   22      0.33      0.00
    5    3   22      0.16      0.00
    7    3   22     -0.34      0.00
  -12    4   22     -0.84      0.00
  -10    4   22     -0.11      0.00
   -8    4   22      0.47      0.00
   -6    4   22      0.56      0.00
   -4    4   22      0.49      0.00
   -2    4   22      0.41      0.00
    0    4   22      0.06      0.00
    2    4   22     -0.54      0.00
    4    4   22     -0.90      0.00
    6    4   22     -0.66      0.00
  -11    5   22      0.03      0.00
   -9    5   22     -0.16      0.00
   -7    5   22     -0.08      0.00
   -5    5   22      0.08      0.00
   -3    5   22      0.12      0.00
   -1    5   22      0.14      0.00
    1    5   22      0.30      0.00
    3    5   22      0.59      0.00
    5    5   22      0.82      0.00
   -8    6   22      0.08      0.00
   -6    6   22      0.09      0.00
   -4    6   22      0.15      0.00
   -2    6   22      0.07      0.00
    0    6   22     -0.03      0.00
    2    6   22      0.00      0.00
    4    6   22      0.01      0.00
   -5    7   22     -0.33      0.00
   -3    7   22     -0.36      0.00
   -1    7   22     -0.35      0.00
  -10    0   23      0.19      0.00
   -8    0   23     -0.10      0.00
   -6    0   23     -0.69      0.00
   -4    0   23     -1.09      0.00
   -2    0   23     -0.62      0.00
    0    0   23      0.29      0.00
    2    0   23      0.62      0.00
    4    0   23      0.26      0.00
    6    0   23     -0.03      0.00
   -9    1   23     -0.04      0.00
   -7    1   23      0.29      0.00
   -5    1   23      0.61      0.00
   -3    1   23      0.51      0.00
   -1    1   23     -0.07      0.00
    1    1   23     -0.53      0.00
    3    1   23     -0.47      0.00
    5    1   23     -0.23      0.00
  -10    2   23      0.11      0.00
   -8    2   23      0.01      0.00
   -6    2   23     -0.02      0.00
   -4    2   23      0.09      0.00
   -2    2   23      0.30      0.00
    0    2   23      0.43      0.00
    2    2   23      0.37      0.00
    4    2   23      0.31      0.00
   -9    3   23     -0.23      0.00
   -7    3   23     -0.22      0.00
   -5    3   23     -0.10      0.00
   -3    3   23     -0.16      0.00
   -1    3   23     -0.29      0.00
    1    3   23     -0.21      0.00
    3    3   23      0.01      0.00
   -6    4   23     -0.17      0.00
   -4    4   23     -0.55      0.00
   -2    4   23     -0.39      0.00
    0    4   23     -0.04      0.00
    2    4   23     -0.04      0.00
   -3    5   23      0.82      0.00
   -1    5   23      0.49      0.00
    2    0    0     57.36      0.00
    4    0    0     32.80      0.00
   16    0    0     -6.96      0.00
   18    0    0     -4.56      0.00
   20    0    0     -3.55      0.00
   22    0    0     -2.48      0.00
   24    0    0     -1.47      0.00
   26    0    0     -0.79      0.00
   28    0    0     -0.15      0.00
    1    1    0    -41.15      0.00
    5    1    0    -10.88      0.00
   21    1    0      2.12      0.00
   23    1    0      1.16      0.00
   25    1    0      0.72      0.00
   27    1    0      0.54      0.00
   29    1    0      0.14      0.00
    0    2    0     -7.26      0.00
   26    2    0     -0.15      0.00
   28    2    0     -0.48      0.00
    3    3    0     29.60      0.00
   29    3    0      0.14      0.00
    3    5    0      3.30      0.00
   29    7    0      0.25      0.00
   28    8    0      0.04      0.00
   27    9    0      0.06      0.00
   29    9    0     -0.30      0.00
   26   10    0     -0.26      0.00
   28   10    0      0.10      0.00
   25   11    0     -0.27      0.00
   27   11    0      0.04      0.00
   24   12    0      0.19      0.00
   26   12    0     -0.09      0.00
   23   13    0      0.73      0.00
   25   13    0      0.67      0.00
   20   14    0     -0.61      0.00
   22   14    0     -0.99      0.00
   19   15    0      0.88      0.00
   21   15    0      0.64      0.00
   16   16    0     -1.10      0.00
   18   16    0     -0.60      0.00
   11   17    0      0.62      0.00
   13   17    0      0.87      0.00
   15   17    0      0.69      0.00
   17   17    0      0.19      0.00
    6   18    0      0.32      0.00
    8   18    0      0.24      0.00
   10   18    0      0.03      0.00
   12   18    0     -0.15      0.00
   14   18    0     -0.25      0.00
  -28    0    1     -0.46      0.00
  -26    0    1     -0.32      0.00
  -24    0    1     -0.38      0.00
  -22    0    1     -1.01      0.00
  -20    0    1     -1.61      0.00
  -18    0    1     -2.54      0.00
  -16    0    1     -6.33      0.00
  -10    0    1    -16.24      0.00
   -4    0    1     26.16      0.00
    0    0    1     57.45      0.00
    2    0    1     52.32      0.00
    8    0    1      0.51      0.00
   18    0    1     -3.28      0.00
   20    0    1     -3.17      0.00
   22    0    1     -2.90      0.00
   24    0    1     -2.22      0.00
   26    0    1     -1.27      0.00
   28    0    1     -0.17      0.00
  -29    1    1      0.61      0.00
  -27    1    1      0.58      0.00
  -25    1    1      0.21      0.00
  -23    1    1      0.28      0.00
  -21    1    1      0.86      0.00
   -5    1    1     -9.91      0.00
   -3    1    1    -22.35      0.00
   -1    1    1    -32.11      0.00
    1    1    1    -33.30      0.00
    7    1    1     -2.96      0.00
   23    1    1      1.75      0.00
   25    1    1      1.21      0.00
   27    1    1      0.67      0.00
   29    1    1      0.07      0.00
  -28    2    1     -0.63      0.00
  -26    2    1     -0.18      0.00
    6    2    1     -6.99      0.00
   26    2    1     -0.16      0.00
   28    2    1     -0.48      0.00
  -29    3    1      0.03      0.00
   -1    3    1     37.19      0.00
   29    3    1      0.42      0.00
    2    4    1    -29.60      0.00
  -29    7    1      0.06      0.00
   29    7    1      0.76      0.00
  -28    8    1     -0.06      0.00
   28    8    1      0.00      0.00
  -29    9    1      0.13      0.00
  -27    9    1      0.17      0.00
   27    9    1     -0.19      0.00
   29    9    1     -0.28      0.00
  -28   10    1     -0.21      0.00
  -26   10    1     -0.29      0.00
   26   10    1      0.10      0.00
   28   10    1      0.17      0.00
  -27   11    1      0.11      0.00
  -25   11    1     -0.49      0.00
   25   11    1     -0.42      0.00
   27   11    1     -0.04      0.00
  -26   12    1      0.24      0.00
  -24   12    1      0.78      0.00
   24   12    1      0.19      0.00
   26   12    1     -0.09      0.00
  -25   13    1      0.12      0.00
  -23   13    1      0.24      0.00
   23   13    1      0.36      0.00
   25   13    1      0.52      0.00
  -22   14    1     -0.93      0.00
  -20   14    1     -0.98      0.00
   20   14    1      0.04      0.00
   22   14    1     -0.30      0.00
  -21   15    1      0.75      0.00
  -19   15    1      1.23      0.00
   19   15    1      0.50      0.00
   21   15    1      0.13      0.00
  -18   16    1     -0.71      0.00
  -16   16    1     -1.24      0.00
   16   16    1     -1.19      0.00
   18   16    1     -0.59      0.00
  -17   17    1      0.02      0.00
  -15   17    1      0.55      0.00
  -13   17    1      0.94      0.00
  -11   17    1      0.85      0.00
   11   17    1      0.40      0.00
   13   17    1      0.98      0.00
   15   17    1      1.03      0.00
   17   17    1      0.46      0.00
  -14   18    1     -0.35      0.00
  -12   18    1     -0.41      0.00
  -10   18    1     -0.10      0.00
   -8   18    1      0.55      0.00
   -6   18    1      0.99      0.00
    6   18    1      0.19      0.00
    8   18    1      0.39      0.00
   10   18    1      0.23      0.00
   12   18    1     -0.12      0.00
   14   18    1     -0.41      0.00
  -28    0    2     -0.59      0.00
  -26    0    2      0.22      0.00
  -24    0    2      1.24      0.00
  -22    0    2      1.25      0.00
  -20    0    2      0.71      0.00
  -18    0    2     -0.15      0.00
   -4    0    2     12.96      0.00
   -2    0    2     34.08      0.00
    0    0    2     47.92      0.00
    4    0    2     33.01      0.00
    6    0    2     16.97      0.00
   10    0    2     -4.80      0.00
   20    0    2     -0.24      0.00
   22    0    2     -0.56      0.00
   24    0    2     -1.15      0.00
   26    0    2     -1.03      0.00
   28    0    2      0.05      0.00
  -29    1    2      0.63      0.00
  -27    1    2      0.57      0.00
  -25    1    2     -0.50      0.00
  -23    1    2     -1.20      0.00
   -9    1    2     11.45      0.00
    1    1    2    -28.62      0.00
   23    1    2      0.38      0.00
   25    1    2      0.72      0.00
   27    1    2      0.42      0.00
   29    1    2     -0.32      0.00
  -28    2    2     -0.62      0.00
  -26    2    2     -0.23      0.00
   26    2    2      0.18      0.00
   28    2    2      0.00      0.00
  -29    3    2     -0.35      0.00
   29    3    2     -0.18      0.00
    6    4    2     -6.87      0.00
  -29    7    2     -0.26      0.00
   29    7    2      0.24      0.00
  -28    8    2     -0.35      0.00
   28    8    2      0.55      0.00
  -29    9    2      0.38      0.00
  -27    9    2      0.78      0.00
   27    9    2     -0.60      0.00
   29    9    2     -0.78      0.00
  -28   10    2     -0.71      0.00
  -26   10    2     -1.02      0.00
   26   10    2      0.17      0.00
   28   10    2      0.47      0.00
  -27   11    2      0.70      0.00
  -25   11    2      0.07      0.00
   25   11    2      0.06      0.00
   27   11    2      0.01      0.00
  -26   12    2     -0.07      0.00
  -24   12    2      0.85      0.00
   24   12    2     -0.37      0.00
   26   12    2     -0.43      0.00
  -25   13    2     -0.01      0.00
  -23   13    2     -0.22      0.00
   21   13    2     -0.73      0.00
   23   13    2      0.32      0.00
  -22   14    2     -0.62      0.00
  -20   14    2     -0.67      0.00
   20   14    2      0.83      0.00
   22   14    2      0.14      0.00
  -21   15    2      0.69      0.00
  -19   15    2      1.15      0.00
   17   15    2     -0.24      0.00
   19   15    2     -0.26      0.00
   21   15    2     -0.28      0.00
  -18   16    2     -0.64      0.00
  -16   16    2     -0.81      0.00
   16   16    2     -0.44      0.00
   18   16    2      0.04      0.00
  -17   17    2     -0.23      0.00
  -15   17    2     -0.20      0.00
  -13   17    2      0.01      0.00
  -11   17    2      0.23      0.00
   11   17    2      0.25      0.00
   13   17    2      0.62      0.00
   15   17    2      0.57      0.00
  -14   18    2      0.26      0.00
  -12   18    2      0.22      0.00
  -10   18    2      0.24      0.00
   -8   18    2      0.49      0.00
   -6   18    2      0.71      0.00
   -4   18    2      0.47      0.00
    4   18    2     -0.50      0.00
    6   18    2     -0.19      0.00
    8   18    2      0.04      0.00
   10   18    2      0.12      0.00
   12   18    2      0.02      0.00
  -28    0    3     -0.95      0.00
  -26    0    3      0.11      0.00
  -24    0    3      1.78      0.00
  -22    0    3      3.08      0.00
  -20    0    3      4.41      0.00
  -10    0    3    -20.03      0.00
   -6    0    3     -8.47      0.00
   -4    0    3      4.47      0.00
   22    0    3      0.98      0.00
   24    0    3     -0.09      0.00
   26    0    3     -0.67      0.00
   28    0    3     -0.37      0.00
  -29    1    3      0.90      0.00
  -27    1    3      0.81      0.00
  -25    1    3     -0.41      0.00
   -5    1    3      1.86      0.00
    5    1    3     -7.86      0.00
   25    1    3      0.21      0.00
   27    1    3      0.44      0.00
   29    1    3      0.24      0.00
  -28    2    3     -0.73      0.00
    4    2    3    -13.67      0.00
   28    2    3     -0.15      0.00
  -29    3    3     -0.23      0.00
   29    3    3     -0.10      0.00
   29    5    3      0.04      0.00
  -29    7    3     -0.47      0.00
   29    7    3      0.36      0.00
  -28    8    3      0.04      0.00
   28    8    3      0.33      0.00
  -29    9    3      0.22      0.00
  -27    9    3      0.22      0.00
   27    9    3     -0.49      0.00
   29    9    3     -0.49      0.00
  -28   10    3     -0.30      0.00
  -26   10    3     -0.49      0.00
   26   10    3      0.14      0.00
   28   10    3      0.20      0.00
  -27   11    3      0.26      0.00
  -25   11    3     -0.20      0.00
   25   11    3      0.21      0.00
   27   11    3      0.23      0.00
  -26   12    3      0.35      0.00
  -24   12    3      1.13      0.00
   24   12    3     -0.31      0.00
   26   12    3     -0.52      0.00
  -25   13    3     -0.49      0.00
  -23   13    3     -0.64      0.00
   21   13    3     -0.99      0.00
   23   13    3     -0.16      0.00
  -22   14    3     -0.29      0.00
  -20   14    3     -0.47      0.00
   20   14    3      0.90      0.00
   22   14    3      0.50      0.00
  -21   15    3      0.43      0.00
  -19   15    3      0.90      0.00
   17   15    3     -0.17      0.00
   19   15    3     -0.09      0.00
   21   15    3     -0.17      0.00
  -18   16    3     -0.35      0.00
  -16   16    3     -0.46      0.00
   14   16    3     -0.22      0.00
   16   16    3     -0.32      0.00
   18   16    3     -0.16      0.00
  -17   17    3     -0.57      0.00
  -15   17    3     -0.58      0.00
  -13   17    3     -0.16      0.00
  -11   17    3      0.39      0.00
   11   17    3     -0.22      0.00
   13   17    3      0.05      0.00
   15   17    3      0.23      0.00
  -14   18    3      0.36      0.00
  -12   18    3      0.01      0.00
  -10   18    3     -0.12      0.00
   -8   18    3      0.29      0.00
   -6   18    3      0.84      0.00
   -4   18    3      0.87      0.00
    2   18    3     -0.73      0.00
    4   18    3     -0.84      0.00
    6   18    3     -0.66      0.00
    8   18    3     -0.18      0.00
   10   18    3      0.34      0.00
   12   18    3      0.52      0.00
  -28    0    4     -0.96      0.00
  -26    0    4      0.24      0.00
  -24    0    4      2.51      0.00
  -22    0    4      4.40      0.00
   -8    0    4    -17.21      0.00
   -6    0    4    -11.02      0.00
   -4    0    4     -1.19      0.00
    8    0    4      6.83      0.00
   24    0    4      0.82      0.00
   26    0    4     -0.49      0.00
   28    0    4     -0.53      0.00
  -29    1    4      0.68      0.00
  -27    1    4      0.78      0.00
  -25    1    4     -0.62      0.00
   25    1    4      0.04      0.00
   27    1    4      0.51      0.00
   29    1    4      0.34      0.00
  -28    2    4     -0.64      0.00
   28    2    4     -0.13      0.00
   29    5    4     -0.50      0.00
   28    6    4      0.00      0.00
  -29    7    4     -0.07      0.00
   29    7    4      0.03      0.00
  -28    8    4     -0.49      0.00
   28    8    4      0.39      0.00
  -29    9    4      0.49      0.00
  -27    9    4      0.75      0.00
   27    9    4     -0.43      0.00
  -28   10    4     -0.61      0.00
  -26   10    4     -0.94      0.00
   26   10    4     -0.05      0.00
  -27   11    4      0.69      0.00
  -25   11    4      0.37      0.00
   25   11    4      0.60      0.00
  -26   12    4     -0.18      0.00
  -24   12    4      0.70      0.00
   22   12    4     -0.43      0.00
   24   12    4     -0.56      0.00
  -25   13    4     -0.20      0.00
  -23   13    4     -0.65      0.00
   21   13    4     -0.91      0.00
   23   13    4     -0.25      0.00
  -22   14    4      0.00      0.00
  -20   14    4     -0.09      0.00
   20   14    4      0.94      0.00
   22   14    4      0.61      0.00
  -21   15    4      0.11      0.00
  -19   15    4      0.64      0.00
  -17   15    4      1.32      0.00
   17   15    4     -0.32      0.00
   19   15    4     -0.21      0.00
  -18   16    4     -0.43      0.00
  -16   16    4     -0.51      0.00
   14   16    4     -0.45      0.00
   16   16    4     -0.31      0.00
   18   16    4     -0.09      0.00
  -15   17    4     -0.48      0.00
  -13   17    4     -0.36      0.00
  -11   17    4      0.00      0.00
   11   17    4     -0.10      0.00
   13   17    4      0.20      0.00
   15   17    4      0.32      0.00
  -12   18    4      0.10      0.00
  -10   18    4      0.13      0.00
   -8   18    4      0.54      0.00
   -6   18    4      0.94      0.00
   -4   18    4      0.77      0.00
   -2   18    4      0.18      0.00
    0   18    4     -0.28      0.00
    2   18    4     -0.39      0.00
    4   18    4     -0.34      0.00
    6   18    4     -0.21      0.00
    8   18    4      0.08      0.00
   10   18    4      0.37      0.00
   12   18    4      0.38      0.00
  -28    0    5     -1.23      0.00
  -26    0    5     -0.15      0.00
  -24    0    5      2.10      0.00
   -8    0    5    -16.86      0.00
   -6    0    5    -15.16      0.00
   24    0    5      1.66      0.00
   26    0    5      0.16      0.00
   28    0    5     -0.52      0.00
  -29    1    5      0.81      0.00
  -27    1    5      0.95      0.00
   -7    1    5      9.99      0.00
   -5    1    5      7.42      0.00
   27    1    5      0.26      0.00
   29    1    5      0.55      0.00
  -28    2    5     -0.61      0.00
   28    2    5     -0.21      0.00
   29    3    5     -0.29      0.00
   29    5    5     -0.47      0.00
   28    6    5     -0.04      0.00
  -29    7    5      0.11      0.00
   27    7    5      0.03      0.00
   29    7    5      0.08      0.00
  -28    8    5     -0.23      0.00
   28    8    5      0.06      0.00
  -29    9    5      0.04      0.00
  -27    9    5      0.12      0.00
   27    9    5     -0.08      0.00
  -28   10    5      0.19      0.00
  -26   10    5     -0.20      0.00
   26   10    5     -0.28      0.00
  -27   11    5     -0.07      0.00
  -25   11    5      0.10      0.00
   23   11    5      1.47      0.00
   25   11    5      0.70      0.00
  -26   12    5      0.18      0.00
  -24   12    5      0.43      0.00
   22   12    5     -0.60      0.00
   24   12    5     -0.43      0.00
  -23   13    5     -0.28      0.00
  -21   13    5     -0.48      0.00
   21   13    5     -0.57      0.00
   23   13    5     -0.39      0.00
  -22   14    5     -0.23      0.00
  -20   14    5     -0.33      0.00
   18   14    5      0.38      0.00
   20   14    5      0.51      0.00
   22   14    5      0.48      0.00
  -21   15    5      0.20      0.00
  -19   15    5      0.62      0.00
  -17   15    5      1.11      0.00
   17   15    5     -0.14      0.00
   19   15    5      0.03      0.00
  -18   16    5     -0.49      0.00
  -16   16    5     -0.47      0.00
  -14   16    5     -0.13      0.00
   14   16    5     -0.40      0.00
   16   16    5     -0.23      0.00
   18   16    5     -0.18      0.00
  -15   17    5     -0.37      0.00
  -13   17    5     -0.39      0.00
  -11   17    5      0.05      0.00
    9   17    5      0.27      0.00
   11   17    5      0.04      0.00
   13   17    5      0.05      0.00
   15   17    5      0.09      0.00
  -12   18    5      0.04      0.00
  -10   18    5     -0.02      0.00
   -8   18    5      0.22      0.00
   -6   18    5      0.56      0.00
   -4   18    5      0.65      0.00
   -2   18    5      0.59      0.00
    0   18    5      0.58      0.00
    2   18    5      0.47      0.00
    4   18    5      0.03      0.00
    6   18    5     -0.41      0.00
    8   18    5     -0.38      0.00
   10   18    5      0.04      0.00
   12   18    5      0.36      0.00
  -28    0    6     -0.88      0.00
  -26    0    6      0.91      0.00
   -6    0    6    -13.53      0.00
   26    0    6      0.31      0.00
   28    0    6      0.06      0.00
  -29    1    6      0.62      0.00
   29    1    6      0.05      0.00
   29    3    6     -0.41      0.00
  -29    5    6      0.49      0.00
   29    5    6     -0.46      0.00
   28    6    6      0.04      0.00
  -29    7    6      0.68      0.00
   27    7    6     -0.02      0.00
   29    7    6      0.18      0.00
  -28    8    6     -0.60      0.00
   26    8    6      0.03      0.00
   28    8    6     -0.09      0.00
  -29    9    6      0.25      0.00
  -27    9    6      0.15      0.00
   25    9    6      0.28      0.00
   27    9    6      0.05      0.00
  -28   10    6      0.11      0.00
  -26   10    6     -0.04      0.00
   24   10    6     -1.01      0.00
   26   10    6     -0.31      0.00
  -27   11    6      0.06      0.00
  -25   11    6      0.22      0.00
   23   11    6      1.33      0.00
   25   11    6      0.56      0.00
  -26   12    6     -0.19      0.00
  -24   12    6     -0.05      0.00
   22   12    6     -0.40      0.00
   24   12    6     -0.11      0.00
  -23   13    6      0.13      0.00
  -21   13    6     -0.09      0.00
   21   13    6     -0.57      0.00
   23   13    6     -0.64      0.00
  -22   14    6     -0.38      0.00
  -20   14    6     -0.27      0.00
   18   14    6      0.35      0.00
   20   14    6      0.52      0.00
  -21   15    6      0.10      0.00
  -19   15    6      0.24      0.00
  -17   15    6      0.64      0.00
   15   15    6      0.03      0.00
   17   15    6     -0.24      0.00
   19   15    6     -0.14      0.00
  -18   16    6     -0.15      0.00
  -16   16    6     -0.29      0.00
  -14   16    6     -0.20      0.00
   12   16    6     -0.20      0.00
   14   16    6     -0.32      0.00
   16   16    6     -0.16      0.00
  -15   17    6     -0.20      0.00
  -13   17    6     -0.04      0.00
  -11   17    6      0.29      0.00
   -9   17    6      0.11      0.00
    9   17    6     -0.31      0.00
   11   17    6     -0.33      0.00
   13   17    6     -0.11      0.00
  -12   18    6     -0.41      0.00
  -10   18    6     -0.31      0.00
   -8   18    6      0.34      0.00
   -6   18    6      0.97      0.00
   -4   18    6      1.00      0.00
   -2   18    6      0.59      0.00
    0   18    6      0.27      0.00
    2   18    6      0.14      0.00
    4   18    6     -0.01      0.00
    6   18    6     -0.10      0.00
    8   18    6      0.08      0.00
   10   18    6      0.39      0.00
  -28    0    7     -0.83      0.00
   28    0    7     -0.12      0.00
  -29    1    7      0.35      0.00
   29    1    7      0.34      0.00
   29    3    7      0.16      0.00
   28    4    7     -0.11      0.00
  -29    5    7      0.06      0.00
   29    5    7     -0.10      0.00
   28    6    7     -0.26      0.00
  -29    7    7      0.46      0.00
   27    7    7      0.31      0.00
   29    7    7      0.40      0.00
  -28    8    7     -0.37      0.00
   26    8    7     -0.33      0.00
   28    8    7     -0.38      0.00
  -29    9    7     -0.19      0.00
  -27    9    7     -0.23      0.00
   25    9    7      0.59      0.00
   27    9    7      0.42      0.00
  -28   10    7      0.53      0.00
  -26   10    7      0.41      0.00
   24   10    7     -1.14      0.00
   26   10    7     -0.65      0.00
  -27   11    7     -0.26      0.00
  -25   11    7      0.03      0.00
   23   11    7      1.18      0.00
   25   11    7      0.70      0.00
  -24   12    7     -0.09      0.00
  -22   12    7      0.02      0.00
   22   12    7     -0.25      0.00
   24   12    7     -0.07      0.00
  -23   13    7      0.05      0.00
  -21   13    7      0.05      0.00
   19   13    7      0.05      0.00
   21   13    7     -0.51      0.00
  -22   14    7     -0.18      0.00
  -20   14    7     -0.21      0.00
   18   14    7      0.37      0.00
   20   14    7      0.53      0.00
  -19   15    7      0.13      0.00
  -17   15    7      0.35      0.00
   15   15    7      0.02      0.00
   17   15    7     -0.32      0.00
   19   15    7     -0.27      0.00
  -18   16    7     -0.15      0.00
  -16   16    7     -0.19      0.00
  -14   16    7      0.08      0.00
   12   16    7     -0.06      0.00
   14   16    7     -0.23      0.00
   16   16    7     -0.07      0.00
  -15   17    7     -0.12      0.00
  -13   17    7     -0.19      0.00
  -11   17    7      0.07      0.00
   -9   17    7      0.15      0.00
   -7   17    7     -0.09      0.00
    7   17    7     -0.47      0.00
    9   17    7     -0.47      0.00
   11   17    7     -0.33      0.00
   13   17    7     -0.09      0.00
  -10   18    7     -0.21      0.00
   -8   18    7      0.13      0.00
   -6   18    7      0.43      0.00
   -4   18    7      0.36      0.00
   -2   18    7      0.20      0.00
    0   18    7      0.28      0.00
    2   18    7      0.47      0.00
    4   18    7      0.43      0.00
    6   18    7      0.22      0.00
    8   18    7      0.15      0.00
   10   18    7      0.25      0.00
  -12    0    8      2.78      0.00
   28    0    8      0.28      0.00
   29    1    8     -0.06      0.00
   28    2    8     -0.20      0.00
   29    3    8     -0.07      0.00
   28    4    8      0.38      0.00
  -29    5    8     -0.10      0.00
   27    5    8     -0.60      0.00
   29    5    8     -0.43      0.00
  -28    6    8     -0.64      0.00
   28    6    8      0.19      0.00
  -29    7    8      0.73      0.00
   27    7    8     -0.09      0.00
  -28    8    8     -0.48      0.00
   26    8    8      0.02      0.00
   28    8    8     -0.03      0.00
  -27    9    8     -0.41      0.00
   25    9    8      0.25      0.00
   27    9    8      0.06      0.00
  -26   10    8      0.74      0.00
   24   10    8     -0.74      0.00
   26   10    8     -0.30      0.00
  -25   11    8     -0.15      0.00
  -23   11    8     -0.03      0.00
   23   11    8      0.76      0.00
   25   11    8      0.34      0.00
  -24   12    8     -0.13      0.00
  -22   12    8     -0.03      0.00
   20   12    8     -0.45      0.00
   22   12    8     -0.12      0.00
  -23   13    8      0.05      0.00
  -21   13    8      0.01      0.00
   19   13    8      0.01      0.00
   21   13    8     -0.40      0.00
  -22   14    8     -0.15      0.00
  -20   14    8     -0.07      0.00
  -18   14    8      0.11      0.00
   16   14    8      0.42      0.00
   18   14    8      0.53      0.00
   20   14    8      0.50      0.00
  -19   15    8     -0.11      0.00
  -17   15    8     -0.14      0.00
  -15   15    8     -0.42      0.00
   15   15    8     -0.53      0.00
   17   15    8     -0.61      0.00
  -16   16    8      0.26      0.00
  -14   16    8      0.36      0.00
  -12   16    8      0.19      0.00
   10   16    8      0.77      0.00
   12   16    8      0.55      0.00
   14   16    8      0.40      0.00
   16   16    8      0.36      0.00
  -13   17    8     -0.19      0.00
  -11   17    8      0.26      0.00
   -9   17    8      0.40      0.00
   -7   17    8      0.11      0.00
   -5   17    8     -0.07      0.00
    5   17    8      0.00      0.00
    7   17    8     -0.17      0.00
    9   17    8     -0.46      0.00
   11   17    8     -0.53      0.00
   13   17    8     -0.47      0.00
  -10   18    8     -0.61      0.00
   -8   18    8     -0.28      0.00
   -6   18    8      0.21      0.00
   -4   18    8      0.41      0.00
   -2   18    8      0.36      0.00
    0   18    8      0.32      0.00
    2   18    8      0.26      0.00
    4   18    8      0.08      0.00
    6   18    8     -0.08      0.00
    8   18    8     -0.01      0.00
  -10    0    9     -0.01      0.00
   28    0    9     -0.33      0.00
   29    1    9      0.45      0.00
   28    2    9     -0.67      0.00
  -29    3    9     -0.86      0.00
   27    3    9      0.48      0.00
   29    3    9      0.26      0.00
   28    4    9      0.26      0.00
  -29    5    9     -0.68      0.00
   27    5    9     -0.62      0.00
   29    5    9     -0.35      0.00
  -28    6    9     -0.28      0.00
   26    6    9      0.69      0.00
   28    6    9      0.15      0.00
  -29    7    9      0.24      0.00
  -27    7    9      0.80      0.00
   25    7    9     -0.38      0.00
   27    7    9     -0.01      0.00
  -28    8    9     -0.16      0.00
  -26    8    9      0.02      0.00
   24    8    9      0.06      0.00
   26    8    9     -0.05      0.00
  -27    9    9     -0.60      0.00
  -25    9    9     -1.21      0.00
   25    9    9      0.21      0.00
  -26   10    9      0.89      0.00
  -24   10    9      1.04      0.00
   22   10    9     -0.46      0.00
   24   10    9     -0.51      0.00
  -25   11    9     -0.21      0.00
  -23   11    9     -0.21      0.00
   21   11    9      0.37      0.00
   23   11    9      0.45      0.00
  -24   12    9     -0.12      0.00
  -22   12    9      0.13      0.00
   20   12    9     -0.23      0.00
   22   12    9      0.01      0.00
  -23   13    9     -0.14      0.00
  -21   13    9     -0.25      0.00
  -19   13    9     -0.34      0.00
   19   13    9      0.01      0.00
   21   13    9     -0.37      0.00
  -20   14    9      0.16      0.00
  -18   14    9      0.23      0.00
   16   14    9      0.08      0.00
   18   14    9      0.31      0.00
  -19   15    9     -0.19      0.00
  -17   15    9     -0.19      0.00
  -15   15    9     -0.39      0.00
   13   15    9     -0.17      0.00
   15   15    9     -0.20      0.00
   17   15    9     -0.19      0.00
  -16   16    9      0.17      0.00
  -14   16    9      0.19      0.00
  -12   16    9      0.06      0.00
  -10   16    9     -0.02      0.00
   10   16    9      1.20      0.00
   12   16    9      0.67      0.00
   14   16    9      0.21      0.00
  -13   17    9      0.00      0.00
  -11   17    9      0.33      0.00
   -9   17    9      0.29      0.00
   -7   17    9     -0.09      0.00
   -5   17    9     -0.21      0.00
   -3   17    9      0.14      0.00
   -1   17    9      0.52      0.00
    1   17    9      0.61      0.00
    3   17    9      0.45      0.00
    5   17    9      0.03      0.00
    7   17    9     -0.53      0.00
    9   17    9     -0.80      0.00
   11   17    9     -0.59      0.00
   -8   18    9     -0.26      0.00
   -6   18    9      0.24      0.00
   -4   18    9      0.34      0.00
   -2   18    9      0.05      0.00
    0   18    9     -0.23      0.00
    2   18    9     -0.26      0.00
    4   18    9     -0.11      0.00
    6   18    9      0.11      0.00
   28    0   10     -0.33      0.00
  -29    1   10      1.15      0.00
   27    1   10      0.49      0.00
   29    1   10      0.44      0.00
   28    2   10     -0.46      0.00
  -29    3   10     -0.48      0.00
   27    3   10      0.20      0.00
   29    3   10      0.09      0.00
  -28    4   10      1.18      0.00
   26    4   10      0.38      0.00
   28    4   10      0.44      0.00
  -29    5   10     -0.63      0.00
   27    5   10     -0.70      0.00
  -28    6   10      0.02      0.00
   26    6   10      0.62      0.00
   28    6   10      0.27      0.00
  -29    7   10      0.15      0.00
  -27    7   10      0.51      0.00
   25    7   10     -0.23      0.00
   27    7   10     -0.12      0.00
  -28    8   10     -0.15      0.00
  -26    8   10      0.13      0.00
   24    8   10     -0.09      0.00
   26    8   10      0.06      0.00
  -27    9   10     -0.49      0.00
  -25    9   10     -1.29      0.00
   23    9   10      0.36      0.00
   25    9   10      0.03      0.00
  -26   10   10      0.86      0.00
  -24   10   10      1.25      0.00
   22   10   10     -0.50      0.00
   24   10   10     -0.26      0.00
  -25   11   10     -0.21      0.00
  -23   11   10     -0.35      0.00
   21   11   10      0.39      0.00
   23   11   10      0.28      0.00
  -24   12   10     -0.29      0.00
  -22   12   10      0.06      0.00
   20   12   10     -0.26      0.00
   22   12   10     -0.06      0.00
  -21   13   10     -0.07      0.00
  -19   13   10     -0.04      0.00
   17   13   10      0.29      0.00
   19   13   10     -0.03      0.00
  -20   14   10     -0.13      0.00
  -18   14   10     -0.23      0.00
  -16   14   10      0.24      0.00
   14   14   10     -0.21      0.00
   16   14   10      0.29      0.00
   18   14   10      0.36      0.00
  -17   15   10      0.20      0.00
  -15   15   10     -0.25      0.00
  -13   15   10     -0.77      0.00
   11   15   10     -0.02      0.00
   13   15   10     -0.24      0.00
   15   15   10     -0.40      0.00
  -16   16   10     -0.10      0.00
  -14   16   10      0.26      0.00
  -12   16   10      0.49      0.00
  -10   16   10      0.49      0.00
    6   16   10      0.18      0.00
    8   16   10      0.46      0.00
   10   16   10      0.49      0.00
   12   16   10      0.34      0.00
   14   16   10      0.26      0.00
  -11   17   10     -0.21      0.00
   -9   17   10     -0.06      0.00
   -7   17   10      0.08      0.00
   -5   17   10      0.28      0.00
   -3   17   10      0.39      0.00
   -1   17   10      0.26      0.00
    1   17   10      0.09      0.00
    3   17   10      0.12      0.00
    5   17   10      0.15      0.00
    7   17   10      0.01      0.00
    9   17   10     -0.06      0.00
   -6   18   10     -0.24      0.00
   -4   18   10     -0.17      0.00
   -2   18   10     -0.08      0.00
    0   18   10      0.05      0.00
    2   18   10      0.12      0.00
    4   18   10      0.06      0.00
   28    0   11     -0.10      0.00
  -29    1   11      1.07      0.00
   27    1   11      0.30      0.00
   29    1   11      0.01      0.00
   26    2   11     -0.56      0.00
   28    2   11     -0.03      0.00
  -29    3   11     -0.13      0.00
   27    3   11      0.04      0.00
  -28    4   11      0.86      0.00
   26    4   11      0.21      0.00
   28    4   11      0.53      0.00
  -29    5   11     -0.48      0.00
  -27    5   11     -0.56      0.00
   25    5   11     -0.64      0.00
   27    5   11     -0.53      0.00
  -28    6   11      0.30      0.00
   26    6   11      0.37      0.00
  -29    7   11     -0.21      0.00
  -27    7   11      0.13      0.00
   25    7   11     -0.05      0.00
  -28    8   11      0.10      0.00
  -26    8   11      0.18      0.00
   24    8   11     -0.22      0.00
   26    8   11      0.06      0.00
  -27    9   11     -0.47      0.00
  -25    9   11     -1.10      0.00
   23    9   11      0.49      0.00
   25    9   11      0.04      0.00
  -26   10   11      0.83      0.00
  -24   10   11      1.12      0.00
   22   10   11     -0.56      0.00
   24   10   11     -0.19      0.00
  -25   11   11     -0.23      0.00
  -23   11   11     -0.23      0.00
  -21   11   11     -0.45      0.00
   19   11   11      0.18      0.00
   21   11   11      0.34      0.00
  -22   12   11     -0.19      0.00
  -20   12   11      0.31      0.00
   18   12   11     -0.42      0.00
   20   12   11     -0.15      0.00
  -21   13   11      0.16      0.00
  -19   13   11     -0.04      0.00
   17   13   11      0.23      0.00
   19   13   11     -0.11      0.00
  -20   14   11     -0.19      0.00
  -18   14   11     -0.16      0.00
  -16   14   11      0.08      0.00
   14   14   11     -0.11      0.00
   16   14   11      0.23      0.00
   18   14   11      0.29      0.00
  -17   15   11      0.03      0.00
  -15   15   11     -0.05      0.00
  -13   15   11      0.00      0.00
   11   15   11     -0.18      0.00
   13   15   11     -0.30      0.00
   15   15   11     -0.32      0.00
  -14   16   11     -0.08      0.00
  -12   16   11     -0.23      0.00
  -10   16   11     -0.09      0.00
   -8   16   11      0.32      0.00
   -6   16   11      0.43      0.00
    4   16   11     -0.42      0.00
    6   16   11     -0.02      0.00
    8   16   11      0.36      0.00
   10   16   11      0.40      0.00
   12   16   11      0.24      0.00
  -11   17   11      0.25      0.00
   -9   17   11      0.08      0.00
   -7   17   11     -0.26      0.00
   -5   17   11     -0.34      0.00
   -3   17   11     -0.12      0.00
   -1   17   11      0.14      0.00
    1   17   11      0.40      0.00
    3   17   11      0.57      0.00
    5   17   11      0.47      0.00
    7   17   11      0.15      0.00
    9   17   11      0.02      0.00
   -2   18   11      0.14      0.00
    0   18   11     -0.07      0.00
  -28    0   12     -1.04      0.00
   26    0   12      0.07      0.00
   28    0   12      0.00      0.00
  -29    1   12      0.56      0.00
   27    1   12     -0.13      0.00
  -28    2   12     -0.20      0.00
   26    2   12      0.02      0.00
   28    2   12      0.08      0.00
  -29    3   12     -0.10      0.00
   25    3   12     -0.09      0.00
   27    3   12     -0.10      0.00
  -28    4   12      0.50      0.00
   26    4   12      0.29      0.00
  -29    5   12     -0.23      0.00
  -27    5   12     -0.38      0.00
   25    5   12     -0.68      0.00
   27    5   12     -0.24      0.00
  -28    6   12      0.24      0.00
  -26    6   12     -0.43      0.00
   24    6   12      0.66      0.00
   26    6   12      0.28      0.00
  -27    7   12      0.16      0.00
  -25    7   12      0.79      0.00
   23    7   12     -0.31      0.00
   25    7   12     -0.18      0.00
  -26    8   12     -0.20      0.00
  -24    8   12      0.03      0.00
   22    8   12     -0.26      0.00
   24    8   12     -0.01      0.00
  -25    9   12     -0.48      0.00
  -23    9   12     -0.94      0.00
   21    9   12      0.68      0.00
   23    9   12      0.37      0.00
  -24   10   12      0.70      0.00
  -22   10   12      0.80      0.00
   20   10   12     -0.40      0.00
   22   10   12     -0.48      0.00
  -23   11   12     -0.04      0.00
  -21   11   12     -0.28      0.00
   19   11   12      0.12      0.00
   21   11   12      0.24      0.00
  -22   12   12     -0.38      0.00
  -20   12   12      0.00      0.00
   16   12   12     -0.52      0.00
   18   12   12     -0.24      0.00
   20   12   12      0.00      0.00
  -21   13   12      0.37      0.00
  -19   13   12      0.39      0.00
  -17   13   12      0.33      0.00
   15   13   12      0.44      0.00
   17   13   12      0.06      0.00
  -18   14   12     -0.67      0.00
  -16   14   12     -0.51      0.00
  -14   14   12      0.01      0.00
   12   14   12     -0.34      0.00
   14   14   12      0.05      0.00
   16   14   12      0.31      0.00
  -15   15   12      0.37      0.00
  -13   15   12      0.08      0.00
  -11   15   12     -0.12      0.00
    7   15   12     -0.66      0.00
    9   15   12     -0.45      0.00
   11   15   12     -0.24      0.00
   13   15   12     -0.33      0.00
  -12   16   12      0.00      0.00
  -10   16   12      0.41      0.00
   -8   16   12      0.71      0.00
   -6   16   12      0.53      0.00
   -4   16   12     -0.05      0.00
   -2   16   12     -0.52      0.00
    0   16   12     -0.68      0.00
    2   16   12     -0.63      0.00
    4   16   12     -0.35      0.00
    6   16   12      0.10      0.00
    8   16   12      0.35      0.00
   10   16   12      0.23      0.00
   -9   17   12     -0.58      0.00
   -7   17   12     -0.58      0.00
   -5   17   12     -0.25      0.00
   -3   17   12      0.15      0.00
   -1   17   12      0.36      0.00
    1   17   12      0.46      0.00
    3   17   12      0.49      0.00
    5   17   12      0.32      0.00
    7   17   12      0.08      0.00
  -28    0   13     -0.32      0.00
   26    0   13     -0.22      0.00
  -29    1   13      0.18      0.00
  -27    1   13      0.15      0.00
   25    1   13      0.67      0.00
   27    1   13     -0.07      0.00
  -28    2   13      0.17      0.00
   26    2   13     -0.31      0.00
  -29    3   13     -0.19      0.00
  -27    3   13     -0.74      0.00
   25    3   13      0.36      0.00
   27    3   13      0.06      0.00
  -28    4   13      0.34      0.00
   24    4   13      0.37      0.00
   26    4   13     -0.06      0.00
  -29    5   13     -0.13      0.00
  -27    5   13     -0.29      0.00
   23    5   13     -0.90      0.00
   25    5   13     -0.23      0.00
  -28    6   13      0.22      0.00
  -26    6   13     -0.25      0.00
   24    6   13      0.33      0.00
  -27    7   13      0.08      0.00
  -25    7   13      0.68      0.00
   23    7   13     -0.27      0.00
   25    7   13     -0.05      0.00
  -26    8   13     -0.28      0.00
  -24    8   13     -0.19      0.00
   22    8   13     -0.14      0.00
   24    8   13     -0.08      0.00
  -25    9   13     -0.19      0.00
  -23    9   13     -0.62      0.00
   21    9   13      0.53      0.00
   23    9   13      0.42      0.00
  -24   10   13      0.50      0.00
  -22   10   13      0.62      0.00
   20   10   13     -0.23      0.00
   22   10   13     -0.53      0.00
  -23   11   13     -0.02      0.00
  -21   11   13     -0.17      0.00
   17   11   13     -0.39      0.00
   19   11   13     -0.09      0.00
   21   11   13      0.27      0.00
  -22   12   13     -0.38      0.00
  -20   12   13     -0.05      0.00
  -18   12   13      0.25      0.00
   16   12   13     -0.11      0.00
   18   12   13      0.04      0.00
  -19   13   13      0.27      0.00
  -17   13   13      0.24      0.00
  -15   13   13      0.08      0.00
   13   13   13      0.35      0.00
   15   13   13      0.08      0.00
   17   13   13     -0.20      0.00
  -18   14   13     -0.44      0.00
  -16   14   13     -0.45      0.00
  -14   14   13     -0.33      0.00
  -12   14   13     -0.34      0.00
   10   14   13     -0.24      0.00
   12   14   13     -0.21      0.00
   14   14   13      0.22      0.00
  -15   15   13      0.32      0.00
  -13   15   13      0.36      0.00
  -11   15   13      0.31      0.00
   -9   15   13      0.19      0.00
   -7   15   13      0.26      0.00
    5   15   13     -0.83      0.00
    7   15   13     -0.86      0.00
    9   15   13     -0.40      0.00
   11   15   13     -0.13      0.00
   13   15   13     -0.36      0.00
  -12   16   13     -0.21      0.00
  -10   16   13      0.16      0.00
   -8   16   13      0.55      0.00
   -6   16   13      0.45      0.00
   -4   16   13     -0.07      0.00
   -2   16   13     -0.50      0.00
    0   16   13     -0.57      0.00
    2   16   13     -0.39      0.00
    4   16   13     -0.04      0.00
    6   16   13      0.26      0.00
    8   16   13      0.25      0.00
   -5   17   13     -0.14      0.00
   -3   17   13      0.24      0.00
   -1   17   13      0.33      0.00
    1   17   13      0.26      0.00
    3   17   13      0.21      0.00
  -28    0   14     -0.55      0.00
   24    0   14     -0.69      0.00
   26    0   14     -0.14      0.00
  -29    1   14      0.41      0.00
  -27    1   14      0.40      0.00
   25    1   14      0.47      0.00
  -28    2   14     -0.13      0.00
  -26    2   14      0.06      0.00
   24    2   14     -0.68      0.00
   26    2   14     -0.27      0.00
  -29    3   14      0.00      0.00
  -27    3   14     -0.15      0.00
   23    3   14      0.04      0.00
   25    3   14      0.14      0.00
  -28    4   14     -0.02      0.00
  -26    4   14      0.26      0.00
   24    4   14      0.50      0.00
   26    4   14      0.08      0.00
  -27    5   14      0.15      0.00
  -25    5   14      0.21      0.00
   23    5   14     -0.84      0.00
   25    5   14     -0.44      0.00
  -26    6   14     -0.55      0.00
   22    6   14      0.84      0.00
   24    6   14      0.55      0.00
  -27    7   14      0.27      0.00
  -25    7   14      0.90      0.00
   21    7   14     -0.45      0.00
   23    7   14     -0.55      0.00
  -26    8   14     -0.54      0.00
  -24    8   14     -0.53      0.00
   20    8   14     -0.30      0.00
   22    8   14      0.16      0.00
  -25    9   14      0.19      0.00
  -23    9   14     -0.21      0.00
   19    9   14      0.22      0.00
   21    9   14      0.27      0.00
  -24   10   14      0.20      0.00
  -22   10   14      0.30      0.00
  -20   10   14      0.33      0.00
   18   10   14      0.39      0.00
   20   10   14     -0.12      0.00
  -21   11   14      0.12      0.00
  -19   11   14     -0.11      0.00
   17   11   14     -0.31      0.00
   19   11   14     -0.05      0.00
  -20   12   14     -0.30      0.00
  -18   12   14      0.00      0.00
  -16   12   14      0.44      0.00
   14   12   14      0.18      0.00
   16   12   14      0.02      0.00
   18   12   14      0.00      0.00
  -19   13   14      0.39      0.00
  -17   13   14      0.29      0.00
  -15   13   14      0.06      0.00
   11   13   14     -0.03      0.00
   13   13   14     -0.11      0.00
   15   13   14     -0.10      0.00
  -16   14   14     -0.45      0.00
  -14   14   14     -0.37      0.00
  -12   14   14     -0.52      0.00
  -10   14   14     -0.99      0.00
    8   14   14      0.64      0.00
   10   14   14      0.24      0.00
   12   14   14      0.10      0.00
   14   14   14      0.26      0.00
  -13   15   14      0.34      0.00
  -11   15   14      0.38      0.00
   -9   15   14      0.31      0.00
   -7   15   14      0.17      0.00
   -5   15   14      0.01      0.00
   -3   15   14     -0.09      0.00
   -1   15   14      0.07      0.00
    1   15   14      0.39      0.00
    3   15   14      0.27      0.00
    5   15   14     -0.41      0.00
    7   15   14     -0.87      0.00
    9   15   14     -0.65      0.00
   11   15   14     -0.31      0.00
  -10   16   14      0.07      0.00
   -8   16   14      0.54      0.00
   -6   16   14      0.79      0.00
   -4   16   14      0.64      0.00
   -2   16   14      0.14      0.00
    0   16   14     -0.45      0.00
    2   16   14     -0.73      0.00
    4   16   14     -0.40      0.00
    6   16   14      0.19      0.00
  -28    0   15     -0.41      0.00
  -26    0   15     -0.17      0.00
   24    0   15     -0.84      0.00
  -27    1   15      0.16      0.00
   23    1   15      1.09      0.00
   25    1   15      0.52      0.00
  -28    2   15     -0.03      0.00
  -26    2   15      0.25      0.00
   24    2   15     -0.74      0.00
  -27    3   15     -0.26      0.00
  -25    3   15     -0.60      0.00
   23    3   15      0.35      0.00
   25    3   15      0.18      0.00
  -28    4   15      0.14      0.00
  -26    4   15      0.23      0.00
   22    4   15      0.08      0.00
   24    4   15      0.18      0.00
  -27    5   15      0.03      0.00
  -25    5   15      0.18      0.00
   21    5   15     -0.53      0.00
   23    5   15     -0.43      0.00
  -26    6   15     -0.40      0.00
  -24    6   15     -0.82      0.00
   22    6   15      0.72      0.00
  -25    7   15      0.75      0.00
  -23    7   15      0.89      0.00
   21    7   15     -0.60      0.00
   23    7   15     -0.64      0.00
  -24    8   15     -0.52      0.00
  -22    8   15     -0.12      0.00
   20    8   15     -0.02      0.00
   22    8   15      0.41      0.00
  -23    9   15     -0.18      0.00
  -21    9   15     -0.58      0.00
   17    9   15      0.20      0.00
   19    9   15      0.07      0.00
   21    9   15     -0.04      0.00
  -22   10   15      0.45      0.00
  -20   10   15      0.57      0.00
   16   10   15     -0.12      0.00
   18   10   15      0.16      0.00
   20   10   15     -0.01      0.00
  -21   11   15     -0.22      0.00
  -19   11   15     -0.31      0.00
  -17   11   15     -0.35      0.00
   15   11   15      0.24      0.00
   17   11   15      0.04      0.00
  -20   12   15      0.10      0.00
  -18   12   15      0.12      0.00
  -16   12   15      0.11      0.00
   12   12   15      0.33      0.00
   14   12   15      0.11      0.00
   16   12   15     -0.09      0.00
  -17   13   15      0.26      0.00
  -15   13   15      0.46      0.00
  -13   13   15      0.62      0.00
    9   13   15     -0.28      0.00
   11   13   15     -0.25      0.00
   13   13   15     -0.20      0.00
   15   13   15     -0.08      0.00
  -14   14   15     -0.73      0.00
  -12   14   15     -0.64      0.00
  -10   14   15     -0.60      0.00
   -8   14   15     -0.88      0.00
   -6   14   15     -1.21      0.00
    4   14   15      0.85      0.00
    6   14   15      1.07      0.00
    8   14   15      0.84      0.00
   10   14   15      0.34      0.00
   12   14   15      0.06      0.00
  -11   15   15      0.04      0.00
   -9   15   15     -0.28      0.00
   -7   15   15     -0.21      0.00
   -5   15   15      0.09      0.00
   -3   15   15      0.25      0.00
   -1   15   15      0.35      0.00
    1   15   15      0.44      0.00
    3   15   15      0.15      0.00
    5   15   15     -0.51      0.00
    7   15   15     -0.86      0.00
    9   15   15     -0.54      0.00
   -6   16   15      0.73      0.00
   -4   16   15      0.36      0.00
   -2   16   15     -0.05      0.00
    0   16   15     -0.38      0.00
    2   16   15     -0.42      0.00
  -28    0   16     -0.68      0.00
  -26    0   16     -0.43      0.00
   22    0   16     -0.66      0.00
   24    0   16     -0.70      0.00
  -27    1   16      0.42      0.00
  -25    1   16      0.08      0.00
   23    1   16      0.67      0.00
  -26    2   16      0.13      0.00
   22    2   16     -0.42      0.00
   24    2   16     -0.51      0.00
  -27    3   16     -0.12      0.00
  -25    3   16     -0.47      0.00
   21    3   16      0.52      0.00
   23    3   16      0.36      0.00
  -26    4   16      0.22      0.00
  -24    4   16      0.45      0.00
   22    4   16     -0.31      0.00
  -25    5   16     -0.01      0.00
  -23    5   16     -0.03      0.00
   21    5   16     -0.24      0.00
   23    5   16      0.00      0.00
  -26    6   16      0.01      0.00
  -24    6   16     -0.36      0.00
  -22    6   16     -0.48      0.00
   20    6   16      0.84      0.00
   22    6   16      0.57      0.00
  -25    7   16      0.22      0.00
  -23    7   16      0.51      0.00
   19    7   16     -0.39      0.00
   21    7   16     -0.66      0.00
  -24    8   16     -0.21      0.00
  -22    8   16     -0.16      0.00
  -20    8   16     -0.15      0.00
   18    8   16     -0.07      0.00
   20    8   16      0.19      0.00
  -23    9   16     -0.11      0.00
  -21    9   16     -0.17      0.00
  -19    9   16     -0.03      0.00
   17    9   16     -0.04      0.00
   19    9   16     -0.15      0.00
  -22   10   16      0.18      0.00
  -20   10   16      0.07      0.00
  -18   10   16      0.01      0.00
   14   10   16     -0.82      0.00
   16   10   16     -0.21      0.00
   18   10   16      0.20      0.00
  -19   11   16      0.13      0.00
  -17   11   16     -0.11      0.00
  -15   11   16     -0.51      0.00
   13   11   16      0.44      0.00
   15   11   16      0.27      0.00
   17   11   16      0.00      0.00
  -18   12   16     -0.11      0.00
  -16   12   16      0.16      0.00
  -14   12   16      0.21      0.00
   10   12   16     -0.05      0.00
   12   12   16      0.10      0.00
   14   12   16      0.16      0.00
  -15   13   16      0.16      0.00
  -13   13   16      0.44      0.00
  -11   13   16      1.03      0.00
   -9   13   16      1.56      0.00
    5   13   16     -1.15      0.00
    7   13   16     -0.57      0.00
    9   13   16     -0.13      0.00
   11   13   16     -0.04      0.00
   13   13   16     -0.14      0.00
  -12   14   16     -0.51      0.00
  -10   14   16     -0.62      0.00
   -8   14   16     -0.77      0.00
   -6   14   16     -0.85      0.00
   -4   14   16     -0.61      0.00
   -2   14   16     -0.18      0.00
    0   14   16      0.09      0.00
    2   14   16      0.26      0.00
    4   14   16      0.56      0.00
    6   14   16      0.78      0.00
    8   14   16      0.57      0.00
   10   14   16      0.10      0.00
   -9   15   16     -0.16      0.00
   -7   15   16     -0.24      0.00
   -5   15   16     -0.27      0.00
   -3   15   16     -0.28      0.00
   -1   15   16     -0.05      0.00
    1   15   16      0.34      0.00
    3   15   16      0.32      0.00
    5   15   16     -0.21      0.00
  -26    0   17     -0.51      0.00
  -24    0   17     -0.27      0.00
   20    0   17     -0.04      0.00
   22    0   17     -0.59      0.00
  -27    1   17      0.22      0.00
  -25    1   17      0.26      0.00
   21    1   17      0.34      0.00
   23    1   17      0.31      0.00
  -26    2   17      0.14      0.00
  -24    2   17      0.07      0.00
   20    2   17     -0.49      0.00
   22    2   17     -0.27      0.00
  -25    3   17     -0.32      0.00
  -23    3   17     -0.10      0.00
   21    3   17      0.75      0.00
   23    3   17      0.31      0.00
  -26    4   17      0.11      0.00
  -24    4   17      0.16      0.00
   20    4   17     -0.73      0.00
   22    4   17     -0.74      0.00
  -25    5   17      0.07      0.00
  -23    5   17      0.09      0.00
   19    5   17     -0.24      0.00
   21    5   17      0.18      0.00
  -24    6   17     -0.21      0.00
  -22    6   17     -0.26      0.00
   18    6   17      0.45      0.00
   20    6   17      0.54      0.00
  -23    7   17      0.23      0.00
  -21    7   17      0.21      0.00
   17    7   17      0.03      0.00
   19    7   17     -0.18      0.00
  -22    8   17     -0.02      0.00
  -20    8   17     -0.05      0.00
   16    8   17     -0.04      0.00
   18    8   17     -0.19      0.00
  -21    9   17     -0.21      0.00
  -19    9   17     -0.03      0.00
   15    9   17      0.28      0.00
   17    9   17      0.18      0.00
  -20   10   17      0.21      0.00
  -18   10   17      0.03      0.00
  -16   10   17      0.01      0.00
   12   10   17     -0.24      0.00
   14   10   17     -0.56      0.00
   16   10   17     -0.38      0.00
  -19   11   17     -0.11      0.00
  -17   11   17     -0.09      0.00
  -15   11   17     -0.12      0.00
  -13   11   17     -0.03      0.00
   11   11   17     -0.32      0.00
   13   11   17      0.00      0.00
   15   11   17      0.16      0.00
  -16   12   17      0.10      0.00
  -14   12   17     -0.07      0.00
  -12   12   17     -0.61      0.00
  -10   12   17     -1.23      0.00
    6   12   17      0.12      0.00
    8   12   17      0.03      0.00
   10   12   17      0.27      0.00
   12   12   17      0.45      0.00
  -13   13   17      0.52      0.00
  -11   13   17      0.90      0.00
   -9   13   17      1.22      0.00
   -7   13   17      1.18      0.00
   -5   13   17      0.71      0.00
   -3   13   17      0.02      0.00
   -1   13   17     -0.55      0.00
    1   13   17     -0.81      0.00
    3   13   17     -0.73      0.00
    5   13   17     -0.46      0.00
    7   13   17     -0.22      0.00
    9   13   17     -0.17      0.00
   11   13   17     -0.29      0.00
  -10   14   17     -0.27      0.00
   -8   14   17     -0.30      0.00
   -6   14   17     -0.46      0.00
   -4   14   17     -0.39      0.00
   -2   14   17     -0.10      0.00
    0   14   17     -0.01      0.00
    2   14   17     -0.14      0.00
    4   14   17     -0.14      0.00
    6   14   17      0.09      0.00
    8   14   17      0.24      0.00
   -5   15   17     -0.18      0.00
   -3   15   17     -0.20      0.00
   -1   15   17     -0.08      0.00
    1   15   17      0.32      0.00
  -26    0   18     -0.25      0.00
  -24    0   18      0.00      0.00
  -22    0   18      0.51      0.00
   20    0   18      0.55      0.00
   22    0   18     -0.07      0.00
  -25    1   18     -0.07      0.00
  -23    1   18     -0.28      0.00
   19    1   18     -0.60      0.00
   21    1   18     -0.29      0.00
  -24    2   18      0.53      0.00
  -22    2   18      0.10      0.00
   20    2   18      0.18      0.00
   22    2   18      0.35      0.00
  -25    3   18     -0.55      0.00
  -23    3   18     -0.50      0.00
   19    3   18      0.17      0.00
   21    3   18      0.05      0.00
  -24    4   18      0.39      0.00
  -22    4   18      0.26      0.00
   18    4   18      0.34      0.00
   20    4   18      0.01      0.00
  -23    5   18     -0.19      0.00
  -21    5   18     -0.13      0.00
   17    5   18     -0.61      0.00
   19    5   18     -0.74      0.00
  -22    6   18      0.07      0.00
  -20    6   18      0.11      0.00
   16    6   18      0.09      0.00
   18    6   18      0.61      0.00
   20    6   18      0.90      0.00
  -23    7   18     -0.18      0.00
  -21    7   18     -0.02      0.00
  -19    7   18      0.00      0.00
   15    7   18      0.07      0.00
   17    7   18     -0.05      0.00
   19    7   18     -0.41      0.00
  -22    8   18      0.13      0.00
  -20    8   18     -0.07      0.00
  -18    8   18     -0.23      0.00
   14    8   18     -0.18      0.00
   16    8   18     -0.08      0.00
   18    8   18     -0.07      0.00
  -19    9   18      0.12      0.00
  -17    9   18      0.20      0.00
   13    9   18      0.48      0.00
   15    9   18      0.39      0.00
   17    9   18      0.25      0.00
  -18   10   18     -0.01      0.00
  -16   10   18      0.04      0.00
  -14   10   18      0.10      0.00
   10   10   18      0.39      0.00
   12   10   18     -0.07      0.00
   14   10   18     -0.49      0.00
  -17   11   18     -0.19      0.00
  -15   11   18     -0.22      0.00
  -13   11   18      0.16      0.00
  -11   11   18      0.63      0.00
    7   11   18     -0.16      0.00
    9   11   18     -0.51      0.00
   11   11   18     -0.40      0.00
   13   11   18     -0.04      0.00
  -14   12   18      0.10      0.00
  -12   12   18     -0.58      0.00
  -10   12   18     -1.19      0.00
   -8   12   18     -1.05      0.00
   -6   12   18     -0.30      0.00
   -4   12   18      0.30      0.00
    0   12   18      0.48      0.00
    2   12   18      0.58      0.00
    4   12   18      0.58      0.00
    6   12   18      0.45      0.00
    8   12   18      0.31      0.00
   10   12   18      0.24      0.00
  -11   13   18      0.72      0.00
   -9   13   18      0.84      0.00
   -7   13   18      0.59      0.00
   -5   13   18      0.21      0.00
   -3   13   18      0.01      0.00
   -1   13   18      0.00      0.00
    1   13   18     -0.03      0.00
    3   13   18     -0.20      0.00
    5   13   18     -0.33      0.00
    7   13   18     -0.26      0.00
   -6   14   18      0.09      0.00
   -4   14   18     -0.05      0.00
   -2   14   18     -0.23      0.00
    0   14   18     -0.43      0.00
    2   14   18     -0.51      0.00
    4   14   18     -0.32      0.00
  -24    0   19     -0.36      0.00
  -22    0   19     -0.02      0.00
   18    0   19      0.36      0.00
   20    0   19     -0.07      0.00
  -23    1   19      0.16      0.00
  -21    1   19     -0.05      0.00
   17    1   19     -0.13      0.00
   19    1   19      0.03      0.00
   21    1   19      0.18      0.00
  -24    2   19      0.30      0.00
  -22    2   19     -0.10      0.00
   18    2   19     -0.33      0.00
   20    2   19     -0.30      0.00
  -23    3   19     -0.32      0.00
  -21    3   19      0.20      0.00
   17    3   19      0.03      0.00
   19    3   19      0.31      0.00
  -22    4   19      0.22      0.00
  -20    4   19     -0.08      0.00
   16    4   19      0.24      0.00
   18    4   19      0.30      0.00
   20    4   19     -0.03      0.00
  -23    5   19     -0.09      0.00
  -21    5   19     -0.24      0.00
  -19    5   19     -0.25      0.00
   15    5   19      0.10      0.00
   17    5   19     -0.41      0.00
   19    5   19     -0.56      0.00
  -22    6   19      0.21      0.00
  -20    6   19      0.31      0.00
  -18    6   19      0.52      0.00
   14    6   19     -0.07      0.00
   16    6   19      0.05      0.00
   18    6   19      0.45      0.00
  -21    7   19     -0.29      0.00
  -19    7   19     -0.17      0.00
  -17    7   19     -0.26      0.00
   13    7   19      0.03      0.00
   15    7   19     -0.04      0.00
   17    7   19     -0.19      0.00
  -20    8   19      0.16      0.00
  -18    8   19     -0.22      0.00
  -16    8   19     -0.18      0.00
   12    8   19     -0.54      0.00
   14    8   19     -0.15      0.00
   16    8   19      0.17      0.00
  -19    9   19      0.08      0.00
  -17    9   19      0.35      0.00
  -15    9   19      0.15      0.00
  -13    9   19     -0.31      0.00
    9    9   19      0.43      0.00
   11    9   19      0.45      0.00
   13    9   19      0.38      0.00
   15    9   19      0.08      0.00
  -16   10   19     -0.07      0.00
  -14   10   19      0.05      0.00
  -12   10   19      0.05      0.00
    8   10   19     -0.21      0.00
   10   10   19      0.13      0.00
   12   10   19      0.00      0.00
  -15   11   19     -0.26      0.00
  -13   11   19     -0.13      0.00
  -11   11   19      0.36      0.00
   -9   11   19      0.62      0.00
   -7   11   19      0.43      0.00
   -5   11   19      0.16      0.00
    1   11   19     -0.43      0.00
    3   11   19     -0.18      0.00
    5   11   19      0.18      0.00
    7   11   19      0.11      0.00
    9   11   19     -0.18      0.00
   11   11   19     -0.21      0.00
  -12   12   19      0.03      0.00
  -10   12   19     -0.67      0.00
   -8   12   19     -1.08      0.00
   -6   12   19     -0.87      0.00
   -4   12   19     -0.30      0.00
   -2   12   19      0.24      0.00
    0   12   19      0.53      0.00
    2   12   19      0.48      0.00
    4   12   19      0.23      0.00
    6   12   19      0.03      0.00
    8   12   19     -0.05      0.00
   -9   13   19      0.50      0.00
   -7   13   19      0.72      0.00
   -5   13   19      0.53      0.00
   -3   13   19      0.11      0.00
   -1   13   19     -0.17      0.00
    1   13   19     -0.12      0.00
    3   13   19      0.07      0.00
    5   13   19      0.17      0.00
  -22    0   20      0.00      0.00
  -20    0   20      0.37      0.00
   16    0   20     -0.31      0.00
   18    0   20      0.25      0.00
  -23    1   20     -0.05      0.00
  -21    1   20     -0.01      0.00
  -19    1   20     -0.19      0.00
   15    1   20      0.27      0.00
   17    1   20     -0.02      0.00
   19    1   20      0.00      0.00
  -22    2   20      0.17      0.00
  -20    2   20     -0.34      0.00
   16    2   20      0.16      0.00
   18    2   20     -0.20      0.00
  -23    3   20     -0.42      0.00
  -21    3   20     -0.14      0.00
  -19    3   20      0.47      0.00
   15    3   20     -0.21      0.00
   17    3   20     -0.05      0.00
  -22    4   20      0.31      0.00
  -20    4   20      0.29      0.00
  -18    4   20     -0.24      0.00
   14    4   20     -0.55      0.00
   16    4   20     -0.09      0.00
   18    4   20      0.29      0.00
  -21    5   20     -0.30      0.00
  -19    5   20     -0.57      0.00
  -17    5   20     -0.37      0.00
   13    5   20      0.65      0.00
   15    5   20      0.51      0.00
   17    5   20     -0.03      0.00
  -20    6   20      0.40      0.00
  -18    6   20      0.82      0.00
  -16    6   20      0.93      0.00
   12    6   20      0.09      0.00
   14    6   20     -0.20      0.00
   16    6   20     -0.27      0.00
  -19    7   20     -0.44      0.00
  -17    7   20     -0.62      0.00
  -15    7   20     -0.67      0.00
   11    7   20     -0.25      0.00
   13    7   20     -0.07      0.00
   15    7   20      0.09      0.00
  -18    8   20      0.24      0.00
  -16    8   20      0.10      0.00
  -14    8   20      0.10      0.00
   10    8   20      0.07      0.00
   12    8   20     -0.11      0.00
   14    8   20     -0.06      0.00
  -17    9   20     -0.13      0.00
  -15    9   20      0.07      0.00
  -13    9   20      0.22      0.00
  -11    9   20      0.13      0.00
    7    9   20      0.31      0.00
    9    9   20     -0.11      0.00
   11    9   20     -0.14      0.00
   13    9   20     -0.06      0.00
  -14   10   20     -0.01      0.00
  -12   10   20     -0.50      0.00
  -10   10   20     -0.46      0.00
   -8   10   20      0.21      0.00
   -6   10   20      0.65      0.00
   -4   10   20      0.32      0.00
    0   10   20     -0.40      0.00
    2   10   20     -0.58      0.00
    4   10   20     -0.81      0.00
    6   10   20     -0.61      0.00
    8   10   20      0.05      0.00
   10   10   20      0.53      0.00
  -13   11   20      0.00      0.00
  -11   11   20      0.61      0.00
   -9   11   20      0.62      0.00
   -7   11   20      0.05      0.00
   -5   11   20     -0.31      0.00
   -3   11   20     -0.17      0.00
   -1   11   20      0.03      0.00
    1   11   20      0.16      0.00
    3   11   20      0.36      0.00
    5   11   20      0.43      0.00
    7   11   20      0.09      0.00
    9   11   20     -0.37      0.00
   -8   12   20     -0.63      0.00
   -6   12   20     -0.28      0.00
   -4   12   20      0.12      0.00
   -2   12   20      0.30      0.00
    0   12   20      0.18      0.00
    2   12   20     -0.14      0.00
    4   12   20     -0.36      0.00
  -22    0   21     -0.32      0.00
  -20    0   21     -0.13      0.00
  -18    0   21      0.50      0.00
   14    0   21     -1.13      0.00
   16    0   21     -0.66      0.00
  -21    1   21      0.35      0.00
  -19    1   21      0.19      0.00
  -17    1   21     -0.54      0.00
   13    1   21      0.43      0.00
   15    1   21      0.37      0.00
   17    1   21      0.32      0.00
  -20    2   21     -0.51      0.00
  -18    2   21     -0.49      0.00
   14    2   21      0.54      0.00
   16    2   21      0.10      0.00
  -21    3   21     -0.03      0.00
  -19    3   21      0.41      0.00
  -17    3   21      0.67      0.00
   13    3   21     -0.33      0.00
   15    3   21     -0.18      0.00
   17    3   21      0.09      0.00
  -20    4   21      0.16      0.00
  -18    4   21     -0.07      0.00
  -16    4   21     -0.67      0.00
   12    4   21     -0.50      0.00
   14    4   21     -0.58      0.00
   16    4   21     -0.30      0.00
  -19    5   21     -0.27      0.00
  -17    5   21     -0.33      0.00
  -15    5   21     -0.04      0.00
   11    5   21      0.65      0.00
   13    5   21      0.75      0.00
   15    5   21      0.65      0.00
  -18    6   21      0.33      0.00
  -16    6   21      0.68      0.00
  -14    6   21      0.75      0.00
   10    6   21     -0.32      0.00
   12    6   21     -0.30      0.00
   14    6   21     -0.40      0.00
  -17    7   21     -0.14      0.00
  -15    7   21     -0.38      0.00
  -13    7   21     -0.55      0.00
    7    7   21     -0.67      0.00
    9    7   21     -0.24      0.00
   11    7   21      0.11      0.00
   13    7   21      0.28      0.00
  -16    8   21     -0.29      0.00
  -14    8   21     -0.20      0.00
  -12    8   21      0.13      0.00
  -10    8   21      0.41      0.00
    4    8   21      0.58      0.00
    6    8   21      0.74      0.00
    8    8   21      0.56      0.00
   10    8   21      0.00      0.00
   12    8   21     -0.43      0.00
  -15    9   21      0.35      0.00
  -13    9   21      0.37      0.00
  -11    9   21      0.13      0.00
   -9    9   21     -0.25      0.00
   -7    9   21     -0.29      0.00
   -5    9   21      0.19      0.00
   -3    9   21      0.61      0.00
   -1    9   21      0.47      0.00
    1    9   21      0.08      0.00
    3    9   21     -0.11      0.00
    5    9   21     -0.21      0.00
    7    9   21     -0.32      0.00
    9    9   21     -0.17      0.00
   11    9   21      0.20      0.00
  -12   10   21     -0.30      0.00
  -10   10   21     -0.23      0.00
   -8   10   21      0.21      0.00
   -6   10   21      0.34      0.00
   -4   10   21     -0.14      0.00
   -2   10   21     -0.56      0.00
    0   10   21     -0.44      0.00
    2   10   21     -0.13      0.00
    4   10   21      0.03      0.00
    6   10   21      0.17      0.00
    8   10   21      0.29      0.00
   -9   11   21      0.09      0.00
   -7   11   21     -0.13      0.00
   -5   11   21     -0.12      0.00
   -3   11   21      0.15      0.00
   -1   11   21      0.27      0.00
    1   11   21      0.16      0.00
    3   11   21      0.03      0.00
    5   11   21     -0.13      0.00
  -20    0   22     -0.10      0.00
  -18    0   22      0.43      0.00
  -16    0   22      0.87      0.00
   10    0   22     -0.20      0.00
   12    0   22     -0.71      0.00
   14    0   22     -0.95      0.00
  -19    1   22      0.11      0.00
  -17    1   22     -0.36      0.00
  -15    1   22     -0.70      0.00
   11    1   22      0.11      0.00
   13    1   22      0.33      0.00
   15    1   22      0.30      0.00
  -20    2   22     -0.25      0.00
  -18    2   22     -0.34      0.00
  -16    2   22     -0.06      0.00
  -14    2   22      0.05      0.00
   10    2   22      0.51      0.00
   12    2   22      0.49      0.00
   14    2   22      0.51      0.00
  -19    3   22      0.06      0.00
  -17    3   22      0.34      0.00
  -15    3   22      0.68      0.00
    9    3   22     -0.63      0.00
   11    3   22     -0.57      0.00
   13    3   22     -0.43      0.00
   15    3   22     -0.34      0.00
  -18    4   22      0.24      0.00
  -16    4   22     -0.29      0.00
  -14    4   22     -0.92      0.00
    8    4   22     -0.13      0.00
   10    4   22      0.10      0.00
   12    4   22     -0.09      0.00
   14    4   22     -0.25      0.00
  -17    5   22     -0.38      0.00
  -15    5   22     -0.12      0.00
  -13    5   22      0.15      0.00
    7    5   22      0.79      0.00
    9    5   22      0.54      0.00
   11    5   22      0.36      0.00
   13    5   22      0.37      0.00
  -16    6   22      0.45      0.00
  -14    6   22      0.53      0.00
  -12    6   22      0.42      0.00
  -10    6   22      0.22      0.00
    6    6   22     -0.17      0.00
    8    6   22     -0.32      0.00
   10    6   22     -0.24      0.00
   12    6   22     -0.09      0.00
  -15    7   22     -0.08      0.00
  -13    7   22     -0.15      0.00
  -11    7   22     -0.23      0.00
   -9    7   22     -0.27      0.00
   -7    7   22     -0.29      0.00
    1    7   22     -0.36      0.00
    3    7   22     -0.44      0.00
    5    7   22     -0.50      0.00
    7    7   22     -0.44      0.00
    9    7   22     -0.30      0.00
   11    7   22     -0.15      0.00
  -14    8   22     -0.52      0.00
  -12    8   22     -0.40      0.00
  -10    8   22      0.04      0.00
   -8    8   22      0.35      0.00
   -6    8   22      0.25      0.00
   -4    8   22      0.08      0.00
   -2    8   22      0.21      0.00
    0    8   22      0.46      0.00
    2    8   22      0.48      0.00
    4    8   22      0.36      0.00
    6    8   22      0.40      0.00
    8    8   22      0.44      0.00
   10    8   22      0.24      0.00
  -11    9   22      0.58      0.00
   -9    9   22      0.05      0.00
   -7    9   22     -0.32      0.00
   -5    9   22     -0.16      0.00
   -3    9   22      0.06      0.00
   -1    9   22     -0.09      0.00
    1    9   22     -0.27      0.00
    3    9   22     -0.14      0.00
    5    9   22      0.02      0.00
    7    9   22     -0.04      0.00
   -8   10   22      0.10      0.00
   -6   10   22      0.49      0.00
   -4   10   22      0.33      0.00
   -2   10   22      0.06      0.00
    0   10   22      0.02      0.00
    2   10   22      0.01      0.00
    4   10   22     -0.11      0.00
  -18    0   23     -0.09      0.00
  -16    0   23      0.40      0.00
  -14    0   23      0.56      0.00
  -12    0   23      0.38      0.00
    8    0   23      0.02      0.00
   10    0   23     -0.01      0.00
   12    0   23     -0.34      0.00
  -17    1   23      0.16      0.00
  -15    1   23     -0.32      0.00
  -13    1   23     -0.47      0.00
  -11    1   23     -0.29      0.00
    7    1   23     -0.15      0.00
    9    1   23     -0.13      0.00
   11    1   23      0.02      0.00
   13    1   23      0.18      0.00
  -18    2   23     -0.68      0.00
  -16    2   23     -0.44      0.00
  -14    2   23      0.01      0.00
  -12    2   23      0.19      0.00
    6    2   23      0.38      0.00
    8    2   23      0.40      0.00
   10    2   23      0.31      0.00
   12    2   23      0.31      0.00
  -17    3   23      0.56      0.00
  -15    3   23      0.61      0.00
  -13    3   23      0.42      0.00
  -11    3   23      0.05      0.00
    5    3   23      0.01      0.00
    7    3   23     -0.24      0.00
    9    3   23     -0.44      0.00
   11    3   23     -0.42      0.00
  -16    4   23     -0.35      0.00
  -14    4   23     -0.51      0.00
  -12    4   23     -0.22      0.00
  -10    4   23      0.29      0.00
   -8    4   23      0.34      0.00
    4    4   23     -0.32      0.00
    6    4   23     -0.39      0.00
    8    4   23     -0.13      0.00
   10    4   23      0.08      0.00
   12    4   23     -0.03      0.00
  -15    5   23      0.01      0.00
  -13    5   23     -0.25      0.00
  -11    5   23     -0.53      0.00
   -9    5   23     -0.44      0.00
   -7    5   23      0.14      0.00
   -5    5   23      0.71      0.00
    1    5   23      0.09      0.00
    3    5   23      0.00      0.00
    5    5   23      0.22      0.00
    7    5   23      0.41      0.00
    9    5   23      0.39      0.00
   11    5   23      0.34      0.00
  -14    6   23      0.37      0.00
  -12    6   23      0.76      0.00
  -10    6   23      0.69      0.00
   -8    6   23      0.21      0.00
   -6    6   23     -0.24      0.00
   -4    6   23     -0.40      0.00
   -2    6   23     -0.36      0.00
    0    6   23     -0.17      0.00
    2    6   23      0.15      0.00
    4    6   23      0.38      0.00
    6    6   23      0.31      0.00
    8    6   23      0.06      0.00
   10    6   23     -0.13      0.00
  -13    7   23     -0.13      0.00
  -11    7   23     -0.50      0.00
   -9    7   23     -0.56      0.00
   -7    7   23     -0.31      0.00
   -5    7   23     -0.04      0.00
   -3    7   23      0.05      0.00
   -1    7   23     -0.02      0.00
    1    7   23     -0.20      0.00
    3    7   23     -0.47      0.00
    5    7   23     -0.73      0.00
    7    7   23     -0.80      0.00
  -10    8   23      0.22      0.00
   -8    8   23      0.52      0.00
   -6    8   23      0.29      0.00
   -4    8   23     -0.08      0.00
   -2    8   23     -0.12      0.00
    0    8   23      0.12      0.00
    2    8   23      0.30      0.00
    4    8   23      0.44      0.00
    6    8   23      0.66      0.00
   -7    9   23     -0.37      0.00
   -5    9   23     -0.19      0.00
   -3    9   23      0.13      0.00
   -1    9   23      0.17      0.00
    1    9   23      0.06      0.00
    3    9   23      0.00      0.00
    0    0    0      0.00      0.00
# SQUEEZE RESULTS
# Note: Data are Listed for all Voids in the P1 Unit Cell
# i.e. Centre of Gravity, Solvent Accessible Volume,
# Recovered number of Electrons in the Void and
# Details about the Squeezed Material
loop_
  _platon_squeeze_void_nr
  _platon_squeeze_void_average_x
  _platon_squeeze_void_average_y
  _platon_squeeze_void_average_z
  _platon_squeeze_void_volume
  _platon_squeeze_void_count_electrons
  _platon_squeeze_void_content
   1  0.500  0.000  0.000       324        33 ' '
   2  0.557  0.000  0.370         8         0 ' '
   3  0.500  0.000  0.500        30         1 ' '
   4  0.443  0.000  0.630         8         0 ' '
   5  0.000  0.500  0.000       324        33 ' '
   6  0.057  0.500  0.370         8         0 ' '
   7  1.000  0.500  0.500        30         1 ' '
   8  0.943  0.500  0.630         8         0 ' '
_platon_squeeze_details
(replace by semicolon in column 1 when used as .sqf)
TITL 11 in C2/m
CELL   25.4100   15.1100   19.9170     90.00     94.51     90.00
SPGR C2/m
# Solvent Accessible Volume =     749.7
# Electrons Found in S.A.V. =      68.1
# Note: Atoms in Void as Cxxx and Qxxx all others
C101 0.475 0.135 0.081 !       2.76 eA-3
Q102 0.273 0.494 0.906 !       2.25 eA-3
Q103 0.795 0.074 0.884 !       2.20 eA-3
C104 0.451 0.147 0.016 !       1.80 eA-3
Q105 0.210 0.288 0.826 !       1.80 eA-3
Q106 0.703 0.356 0.191 !       1.61 eA-3
Q107 0.774 0.102-0.004 !       1.54 eA-3
Q108 0.578 0.510 0.016 !       1.52 eA-3
Q109 0.773 0.359 0.047 !       1.46 eA-3
Q110 0.812 0.494 0.047 !       1.46 eA-3
C111 0.946 0.387 0.986 !       1.42 eA-3
Q112 0.749 0.093 0.833 !       1.41 eA-3
Q113 0.133 0.503 0.797 !       1.38 eA-3
C114 0.483 0.198 0.027 !       1.36 eA-3
Q115 0.595 0.505 0.328 !       1.35 eA-3
Q116 0.326 0.166 0.190 !       1.34 eA-3
Q117 0.791 0.326 0.088 !       1.33 eA-3
Q118 0.671 0.074 0.920 !       1.31 eA-3
Q119 0.171 0.574 0.920 !       1.31 eA-3
Q120 0.579 0.429 0.029 !       1.31 eA-3
C121 0.526 0.108 0.083 !       1.26 eA-3
Q122 0.767 0.062 0.883 !       1.25 eA-3
Q123 0.813 0.161 0.982 !       1.25 eA-3
Q124 0.373 0.355 0.985 !       1.24 eA-3
Q125 0.812 0.230 0.933 !       1.22 eA-3
Q126 0.537 0.496 0.187 !       1.21 eA-3
Q127 0.797 0.241 0.917 !       1.19 eA-3
Q128 0.297 0.505 0.016 !       1.18 eA-3
Q129 0.920 0.074 0.713 !       1.11 eA-3
Q130 0.797 0.101 0.734 !       1.10 eA-3
Q131 0.432 0.329 0.793 !       1.08 eA-3
Q132 0.295 0.511 0.594 !       1.04 eA-3
Q133 0.550 0.406 0.096 !       1.03 eA-3
Q134 0.244 0.496 0.594 !       1.03 eA-3
Q135 0.678 0.091 0.654 !       1.02 eA-3
Q136 0.213 0.292 0.708 !       1.01 eA-3
Q137 0.664 0.500 0.984 !       0.99 eA-3
Q138 0.149 0.258 0.189 !       0.98 eA-3
Q139 0.243 0.214 0.101 !       0.95 eA-3
Q140 0.219 0.287 0.735 !       0.94 eA-3
Q141 0.463 0.501 0.875 !       0.92 eA-3
Q142 0.274 0.050 0.009 !       0.92 eA-3
Q143 0.865 0.500 0.281 !       0.92 eA-3
Q144 0.569 0.288 0.702 !       0.91 eA-3
Q145 0.249 0.249 0.777 !       0.91 eA-3
Q146 0.673 0.145 0.877 !       0.89 eA-3
Q147 0.940 0.133 0.864 !       0.89 eA-3
Q148 0.148 0.384 0.784 !       0.88 eA-3
Q149 0.726 0.083 0.611 !       0.87 eA-3
Q150 0.226 0.583 0.611 !       0.87 eA-3
Q151 0.563 0.316 0.817 !       0.87 eA-3
Q152 0.383 0.505 0.000 !       0.86 eA-3
Q153 0.725 0.505 0.734 !       0.85 eA-3
Q154 0.453 0.438 0.801 !       0.85 eA-3
Q155 0.884 0.055 0.655 !       0.84 eA-3
Q156 0.760 0.253 0.865 !       0.84 eA-3
Q157 0.820 0.134 0.628 !       0.83 eA-3
Q158 0.288 0.039 0.029 !       0.82 eA-3
Q159 0.390 0.430 0.677 !       0.82 eA-3
Q160 0.096 0.145 0.283 !       0.81 eA-3
Q161 0.843 0.045 0.626 !       0.81 eA-3
Q162 0.150 0.499 0.687 !       0.80 eA-3
Q163 0.422 0.139 0.487 !       0.80 eA-3
Q164 0.390 0.296 0.923 !       0.79 eA-3
Q165 0.827 0.114-0.003 !       0.79 eA-3
Q166 0.780 0.493 0.219 !       0.78 eA-3
Q167 0.893 0.204 0.466 !       0.78 eA-3
Q168 0.266 0.150 0.361 !       0.77 eA-3
Q169 0.443 0.108 0.527 !       0.77 eA-3
Q170 0.721 0.278 0.305 !       0.76 eA-3
Q171 0.359 0.320 0.682 !       0.76 eA-3
Q172 0.169 0.107 0.145 !       0.73 eA-3
Q173 0.842 0.227 0.721 !       0.73 eA-3
Q174 0.516 0.495 0.453 !       0.72 eA-3
Q175 0.281 0.497 0.844 !       0.71 eA-3
Q176 0.266 0.397 0.739 !       0.71 eA-3
Q177 0.227 0.269 0.204 !       0.71 eA-3
Q178 0.758 0.231 0.697 !       0.70 eA-3
Q179 0.834 0.314 0.242 !       0.70 eA-3
Q180 0.024 0.028 0.438 !       0.70 eA-3
Q181 0.156 0.139 0.250 !       0.70 eA-3
Q182 0.472 0.494 0.359 !       0.69 eA-3
Q183 0.671 0.338 0.611 !       0.68 eA-3
Q184 0.365 0.149 0.560 !       0.68 eA-3
Q185 0.781 0.492 0.391 !       0.67 eA-3
Q186 0.386 0.500 0.859 !       0.66 eA-3
Q187 0.577 0.404 0.877 !       0.66 eA-3
Q188 0.804 0.073 0.360 !       0.64 eA-3
Q189 0.094 0.049 0.500 !       0.64 eA-3
Q190 0.249 0.195 0.577 !       0.64 eA-3
Q191 0.279 0.366 0.626 !       0.64 eA-3
Q192 0.779 0.866 0.626 !       0.64 eA-3
Q193 0.436 0.400 0.749 !       0.63 eA-3
Q194 0.602 0.320 0.061 !       0.63 eA-3
Q195 0.360 0.337 0.234 !       0.63 eA-3
Q196 0.564 0.136 0.662 !       0.62 eA-3
Q197 0.984 0.047 0.568 !       0.62 eA-3
Q198 0.352 0.189 0.546 !       0.61 eA-3
Q199 0.757 0.098 0.449 !       0.61 eA-3
(replace by semicolon in column 1 when used as .sqf)
;
_shelx_fab_checksum              60205
loop_
_space_group_symop_operation_xyz
'x, y, z'
'-x, y, -z'
'x+1/2, y+1/2, z'
'-x+1/2, y+1/2, -z'
'-x, -y, -z'
'x, -y, z'
'-x+1/2, -y+1/2, -z'
'x+1/2, -y+1/2, z'
loop_
_atom_site_label
_atom_site_type_symbol
_atom_site_fract_x
_atom_site_fract_y
_atom_site_fract_z
_atom_site_U_iso_or_equiv
_atom_site_adp_type
_atom_site_occupancy
_atom_site_site_symmetry_order
_atom_site_calc_flag
_atom_site_refinement_flags_posn
_atom_site_refinement_flags_adp
_atom_site_refinement_flags_occupancy
_atom_site_disorder_assembly
_atom_site_disorder_group
Lu1 Lu 0.26604(14) 0.0431(2) 0.1465(2) 0.0640(9) Uani 0.1517 1 d . . P A 1
Lu2 Lu 0.18947(7) 0.04085(13) 0.27450(8) 0.0597(5) Uani 0.1508 1 d . . P A 1
Lu3 Lu 0.15949(12) 0.0884(2) 0.22996(15) 0.0515(6) Uani 0.1353 1 d . . P A 1
Lu4 Lu 0.14742(12) 0.1165(2) 0.1962(3) 0.0708(10) Uani 0.1117 1 d . . P A 1
Lu5 Lu 0.17179(18) 0.1103(2) 0.1448(2) 0.0453(9) Uani 0.0787 1 d . . P A 1
Lu6 Lu 0.1996(3) 0.1114(4) 0.1333(3) 0.0787(15) Uani 0.0775 1 d . U P A 1
Lu7 Lu 0.1906(2) 0.0000 0.0852(2) 0.0539(13) Uani 0.0664 2 d S TU P A 1
Lu8 Lu 0.1311(2) 0.0557(5) 0.1928(3) 0.0770(15) Uani 0.0631 1 d . U P A 1
Lu9 Lu 0.2526(3) 0.0446(7) 0.1259(3) 0.046(2) Uani 0.0564 1 d . U P A 1
Lu10 Lu 0.2376(9) 0.0000 0.1051(10) 0.081(3) Uani 0.0363 2 d S TU P A 1
Lu11 Lu 0.2004(9) 0.1337(9) 0.1869(9) 0.123(4) Uani 0.0325 1 d . U P A 1
Lu12 Lu 0.1712(10) 0.1162(13) 0.2438(12) 0.110(6) Uani 0.0312 1 d . U P A 1
Lu13 Lu 0.2102(8) -0.0588(13) 0.1038(7) 0.090(3) Uani 0.0292 1 d . U P A 1
Lu14 Lu 0.2530(10) 0.0848(17) 0.1678(10) 0.098(4) Uani 0.0228 1 d . U P A 1
Lu15 Lu 0.2751(14) 0.0000 0.2078(16) 0.090(6) Uani 0.0156 2 d S TU P A 1
C1 C 0.10201(13) 0.0151(3) 0.33016(16) 0.121(5) Uani 0.5 1 d G U P A -1
C2 C 0.13883(15) -0.0477(3) 0.36138(13) 0.098(5) Uani 0.5 1 d G U P A -1
C3 C 0.14350(16) -0.1480(2) 0.33619(16) 0.102(5) Uani 0.5 1 d G U P A -1
C4 C 0.10837(15) -0.1770(2) 0.28724(19) 0.123(6) Uani 0.5 1 d G U P A -1
C5 C 0.07549(12) -0.1072(3) 0.2693(2) 0.139(6) Uani 0.5 1 d G U P A -1
C6 C 0.05041(10) -0.1049(3) 0.2093(2) 0.135(6) Uani 0.5 1 d G U P A -1
C7 C 0.03672(7) -0.0229(3) 0.1877(2) 0.118(6) Uani 0.5 1 d G U P A -1
C8 C 0.05276(8) 0.0358(3) 0.2364(2) 0.144(6) Uani 0.5 1 d G U P A -1
C9 C 0.07006(11) -0.0236(3) 0.2861(2) 0.161(6) Uani 0.5 1 d G U P A -1
C10 C 0.11926(13) 0.0968(3) 0.33832(15) 0.111(5) Uani 0.5 1 d G U P A -1
C11 C 0.16620(15) 0.0889(3) 0.37469(11) 0.064(3) Uani 0.5 1 d G U P A -1
C12 C 0.17841(16) 0.0040(3) 0.38806(10) 0.087(3) Uani 0.5 1 d G U P A -1
C13 C 0.23030(17) -0.0299(3) 0.39458(10) 0.089(4) Uani 0.5 1 d G U P A -1
C14 C 0.24097(17) -0.1144(3) 0.37847(12) 0.086(4) Uani 0.5 1 d G U P A -1
C15 C 0.19454(17) -0.1594(2) 0.35151(14) 0.111(5) Uani 0.5 1 d G U P A -1
C16 C 0.21096(17) -0.2255(2) 0.30598(17) 0.112(6) Uani 0.5 1 d G U P A -1
C17 C 0.17280(17) -0.26681(19) 0.23616(19) 0.097(5) Uani 0.5 1 d G U P A -1
C18 C 0.11383(15) -0.2304(2) 0.2357(2) 0.107(5) Uani 0.5 1 d G U P A -1
C19 C 0.09574(14) -0.2197(2) 0.1745(2) 0.116(5) Uani 0.5 1 d G U P A -1
C20 C 0.05740(11) -0.1671(3) 0.1686(2) 0.117(6) Uani 0.5 1 d G U P A -1
C21 C 0.05785(12) -0.1353(3) 0.0990(2) 0.113(5) Uani 0.5 1 d G U P A -1
C22 C 0.04645(11) -0.0421(3) 0.0787(2) 0.115(5) Uani 0.5 1 d G U P A -1
C23 C 0.03523(9) 0.0224(3) 0.1275(2) 0.105(5) Uani 0.5 1 d G U P A -1
C24 C 0.04755(11) 0.0934(3) 0.1174(2) 0.096(5) Uani 0.5 1 d G U P A -1
C25 C 0.06667(11) 0.1589(3) 0.1743(2) 0.103(5) Uani 0.5 1 d G U P A -1
C26 C 0.06423(10) 0.1222(3) 0.2356(2) 0.114(5) Uani 0.5 1 d G U P A -1
C27 C 0.10150(12) 0.1480(2) 0.28621(18) 0.122(6) Uani 0.5 1 d G U P A -1
C28 C 0.13075(14) 0.2100(2) 0.28689(17) 0.083(4) Uani 0.5 1 d G U P A -1
C29 C 0.18158(15) 0.2190(2) 0.31309(15) 0.073(3) Uani 0.5 1 d G U P A -1
C30 C 0.20680(15) 0.1620(2) 0.36342(12) 0.077(4) Uani 0.5 1 d G U P A -1
C31 C 0.25331(15) 0.1321(3) 0.36824(13) 0.066(3) Uani 0.5 1 d G U P A -1
C32 C 0.26997(15) 0.0388(3) 0.39014(12) 0.088(4) Uani 0.5 1 d G U P A -1
C33 C 0.32070(13) 0.0239(3) 0.35642(17) 0.105(5) Uani 0.5 1 d G U P A -1
C34 C 0.32610(13) -0.0769(3) 0.33871(18) 0.107(5) Uani 0.5 1 d G U P A -1
C35 C 0.28676(16) -0.1408(3) 0.34742(16) 0.101(5) Uani 0.5 1 d G U P A -1
C36 C 0.26575(16) -0.2086(2) 0.30109(17) 0.138(6) Uani 0.5 1 d G U P A -1
C37 C 0.29410(15) -0.2185(2) 0.2532(2) 0.138(6) Uani 0.5 1 d G U P A -1
C38 C 0.25861(15) -0.2521(2) 0.19411(19) 0.082(4) Uani 0.5 1 d G U P A -1
C39 C 0.20327(16) -0.27091(19) 0.17505(19) 0.069(4) Uani 0.5 1 d G U P A -1
C40 C 0.17812(15) -0.2453(2) 0.10630(18) 0.073(4) Uani 0.5 1 d G U P A -1
C41 C 0.12313(15) -0.2242(2) 0.10413(19) 0.085(4) Uani 0.5 1 d G U P A -1
C42 C 0.09519(14) -0.1735(3) 0.06600(19) 0.099(5) Uani 0.5 1 d G U P A -1
C43 C 0.11196(16) -0.1292(3) 0.01856(16) 0.105(5) Uani 0.5 1 d G U P A -1
C44 C 0.10705(17) -0.0351(3) 0.00125(14) 0.113(6) Uani 0.5 1 d G U P A -1
C45 C 0.07224(15) 0.0119(3) 0.02896(17) 0.116(5) Uani 0.5 1 d G U P A -1
C46 C 0.07238(15) 0.0887(3) 0.05128(18) 0.103(5) Uani 0.5 1 d G U P A -1
C47 C 0.11680(18) 0.1479(3) 0.03973(15) 0.109(5) Uani 0.5 1 d G U P A -1
C48 C 0.13028(18) 0.2290(2) 0.09037(17) 0.114(6) Uani 0.5 1 d G U P A -1
C49 C 0.10605(15) 0.2310(2) 0.15451(19) 0.116(5) Uani 0.5 1 d G U P A -1
C50 C 0.13351(15) 0.2536(2) 0.21320(19) 0.098(5) Uani 0.5 1 d G U P A -1
C51 C 0.18914(16) 0.27408(19) 0.20654(18) 0.093(5) Uani 0.5 1 d G U P A -1
C52 C 0.21562(15) 0.2505(2) 0.27580(16) 0.063(3) Uani 0.5 1 d G U P A -1
C53 C 0.26397(14) 0.2340(2) 0.27054(17) 0.046(2) Uani 0.5 1 d G U P A -1
C54 C 0.29310(13) 0.1713(3) 0.31910(17) 0.090(4) Uani 0.5 1 d G U P A -1
C55 C 0.33339(11) 0.1019(3) 0.31083(19) 0.112(5) Uani 0.5 1 d G U P A -1
C56 C 0.34779(9) 0.1070(3) 0.2498(2) 0.110(5) Uani 0.5 1 d G U P A -1
C57 C 0.36489(8) 0.0151(3) 0.2434(2) 0.097(4) Uani 0.5 1 d G U P A -1
C58 C 0.35349(10) -0.0742(3) 0.2765(2) 0.087(4) Uani 0.5 1 d G U P A -1
C59 C 0.33721(12) -0.1569(3) 0.2391(2) 0.092(5) Uani 0.5 1 d G U P A -1
C60 C 0.33264(11) -0.1531(3) 0.1623(2) 0.112(5) Uani 0.5 1 d G U P A -1
C61 C 0.29035(14) -0.2168(3) 0.1375(2) 0.111(5) Uani 0.5 1 d G U P A -1
C62 C 0.26693(15) -0.1800(3) 0.07267(17) 0.122(5) Uani 0.5 1 d G U P A -1
C63 C 0.20729(16) -0.2075(2) 0.05946(16) 0.108(5) Uani 0.5 1 d G U P A -1
C64 C 0.18054(17) -0.1531(3) 0.01627(13) 0.094(4) Uani 0.5 1 d G U P A -1
C65 C 0.18895(18) -0.0670(3) -0.01598(10) 0.122(5) Uani 0.5 1 d G U P A -1
C66 C 0.15258(19) 0.0169(3) -0.01645(10) 0.117(5) Uani 0.5 1 d G U P A -1
C67 C 0.15820(19) 0.1178(3) 0.00354(11) 0.098(5) Uani 0.5 1 d G U P A -1
C68 C 0.21796(19) 0.1137(3) 0.00804(11) 0.123(5) Uani 0.5 1 d G U P A -1
C69 C 0.23117(19) 0.1847(3) 0.05104(14) 0.147(6) Uani 0.5 1 d G U P A -1
C70 C 0.19207(19) 0.2385(2) 0.08118(16) 0.118(6) Uani 0.5 1 d G U P A -1
C71 C 0.21621(17) 0.2654(2) 0.14736(17) 0.108(6) Uani 0.5 1 d G U P A -1
C72 C 0.26971(16) 0.2351(2) 0.15267(18) 0.108(5) Uani 0.5 1 d G U P A -1
C73 C 0.29680(13) 0.2150(2) 0.21186(19) 0.104(5) Uani 0.5 1 d G U P A -1
C74 C 0.33592(11) 0.1546(3) 0.1989(2) 0.102(5) Uani 0.5 1 d G U P A -1
C75 C 0.34711(11) 0.0965(3) 0.1466(2) 0.132(6) Uani 0.5 1 d G U P A -1
C76 C 0.36284(9) 0.0067(3) 0.1664(2) 0.108(4) Uani 0.5 1 d G U P A -1
C77 C 0.34868(10) -0.0719(3) 0.1267(2) 0.121(5) Uani 0.5 1 d G U P A -1
C78 C 0.31740(14) -0.0597(3) 0.06648(19) 0.154(6) Uani 0.5 1 d G U P A -1
C79 C 0.27099(16) -0.1080(3) 0.03036(15) 0.140(6) Uani 0.5 1 d G U P A -1
C80 C 0.23733(18) -0.0371(3) -0.00412(11) 0.141(6) Uani 0.5 1 d G U P A -1
C81 C 0.26188(18) 0.0509(3) 0.00969(13) 0.148(6) Uani 0.5 1 d G U P A -1
C82 C 0.31401(16) 0.0324(3) 0.04569(18) 0.154(6) Uani 0.5 1 d G U P A -1
C83 C 0.31549(15) 0.1135(3) 0.08538(19) 0.157(6) Uani 0.5 1 d G U P A -1
C84 C 0.28094(17) 0.1896(3) 0.09234(18) 0.128(6) Uani 0.5 1 d G U P A -1
Ni1A Ni 0.01908(2) 0.0000 0.41868(3) 0.0184(2) Uani 1 2 d S T P B 2
C1A C -0.08989(19) 0.1465(3) 0.1572(2) 0.0392(10) Uani 1 1 d . . . B 2
H1AA H -0.0749 0.0996 0.1323 0.059 Uiso 1 1 calc R U . B 2
H1AB H -0.0621 0.1801 0.1805 0.059 Uiso 1 1 calc R U . B 2
H1AC H -0.1105 0.1844 0.1268 0.059 Uiso 1 1 calc R U . B 2
N2A N 0.02031(12) 0.1299(2) 0.41714(15) 0.0213(7) Uani 1 1 d . . . B 2
C2A C -0.12520(17) 0.1070(3) 0.2084(2) 0.0342(10) Uani 1 1 d . . . B 2
H2AA H -0.1400 0.1546 0.2336 0.041 Uiso 1 1 calc R U . B 2
H2AB H -0.1543 0.0756 0.1845 0.041 Uiso 1 1 calc R U . B 2
N3A N 0.07632(17) 0.0000 0.4904(2) 0.0204(9) Uani 1 2 d S T P B 2
C4A C -0.05916(15) 0.0722(3) 0.31161(18) 0.0228(8) Uani 1 1 d . . . B 2
C5A C -0.04809(15) 0.1587(3) 0.32676(19) 0.0260(8) Uani 1 1 d . . . B 2
H5A H -0.0674 0.2019 0.3024 0.031 Uiso 1 1 calc R U . B 2
C6A C -0.01037(15) 0.1861(3) 0.37550(19) 0.0248(8) Uani 1 1 d . . . B 2
C7A C 0.00331(16) 0.2774(3) 0.3885(2) 0.0300(9) Uani 1 1 d . . . B 2
C8A C -0.02097(19) 0.3539(3) 0.3499(3) 0.0410(11) Uani 1 1 d . . . B 2
H8AA H -0.0147 0.4076 0.3760 0.049 Uiso 1 1 calc R U . B 2
H8AB H -0.0588 0.3450 0.3434 0.049 Uiso 1 1 calc R U . B 2
C9A C 0.0012(2) 0.3655(4) 0.2809(3) 0.0553(15) Uani 1 1 d . . . B 2
H9AA H -0.0068 0.3139 0.2539 0.083 Uiso 1 1 calc R U . B 2
H9AB H 0.0387 0.3733 0.2870 0.083 Uiso 1 1 calc R U . B 2
H9AC H -0.0146 0.4166 0.2588 0.083 Uiso 1 1 calc R U . B 2
C10A C 0.04264(16) 0.2770(3) 0.4394(2) 0.0290(9) Uani 1 1 d . . . B 2
C11A C 0.07271(17) 0.3539(3) 0.4714(3) 0.0378(10) Uani 1 1 d . . . B 2
H11A H 0.0774 0.3444 0.5197 0.045 Uiso 1 1 calc R U . B 2
H11B H 0.0521 0.4074 0.4635 0.045 Uiso 1 1 calc R U . B 2
C12A C 0.1264(2) 0.3670(3) 0.4447(3) 0.0485(13) Uani 1 1 d . . . B 2
H12A H 0.1220 0.3808 0.3975 0.073 Uiso 1 1 calc R U . B 2
H12B H 0.1467 0.3137 0.4511 0.073 Uiso 1 1 calc R U . B 2
H12C H 0.1444 0.4147 0.4685 0.073 Uiso 1 1 calc R U . B 2
C13A C 0.05268(15) 0.1859(3) 0.45652(19) 0.0242(8) Uani 1 1 d . . . B 2
C14A C 0.09060(15) 0.1585(3) 0.50503(19) 0.0243(8) Uani 1 1 d . . . B 2
H14A H 0.1097 0.2017 0.5296 0.029 Uiso 1 1 calc R U . B 2
C15A C 0.10222(15) 0.0719(3) 0.51960(18) 0.0226(8) Uani 1 1 d . . . B 2
C16A C 0.14460(15) 0.0447(3) 0.56768(18) 0.0238(8) Uani 1 1 d . . . B 2
C17A C 0.18263(16) 0.1070(3) 0.6048(2) 0.0296(9) Uani 1 1 d . . . B 2
H17A H 0.1982 0.0780 0.6450 0.036 Uiso 1 1 calc R U . B 2
H17B H 0.1636 0.1586 0.6188 0.036 Uiso 1 1 calc R U . B 2
C18A C 0.22638(18) 0.1364(4) 0.5617(2) 0.0424(11) Uani 1 1 d . . . B 2
H18A H 0.2455 0.0855 0.5482 0.064 Uiso 1 1 calc R U . B 2
H18B H 0.2500 0.1755 0.5873 0.064 Uiso 1 1 calc R U . B 2
H18C H 0.2112 0.1667 0.5225 0.064 Uiso 1 1 calc R U . B 2
C3A C -0.09602(15) 0.0445(3) 0.25680(19) 0.0270(8) Uani 1 1 d . . . B 2
N1A N -0.03593(18) 0.0000 0.3446(2) 0.0232(9) Uani 1 2 d S T P B 2
C1B C 0.1259(4) 0.5000 0.1959(6) 0.082(3) Uani 1 2 d S T P C 3
H1B H 0.0901 0.5000 0.1820 0.099 Uiso 1 2 calc R U P C 3
C2B C 0.1412(3) 0.5000 0.2629(4) 0.0517(18) Uani 1 2 d S T P C 3
H2B H 0.1161 0.5000 0.2944 0.062 Uiso 1 2 calc R U P C 3
C3B C 0.1934(3) 0.5000 0.2835(3) 0.0440(16) Uani 1 2 d S T P C 3
H3B H 0.2041 0.5000 0.3292 0.053 Uiso 1 2 calc R U P C 3
C4B C 0.2309(3) 0.5000 0.2362(3) 0.0437(16) Uani 1 2 d S T P C 3
H4B H 0.2665 0.5000 0.2508 0.052 Uiso 1 2 calc R U P C 3
C5B C 0.2163(4) 0.5000 0.1690(3) 0.0496(18) Uani 1 2 d S T P C 3
H5B H 0.2418 0.5000 0.1378 0.060 Uiso 1 2 calc R U P C 3
C6B C 0.1628(4) 0.5000 0.1474(5) 0.076(3) Uani 1 2 d S T P C 3
H6B H 0.1518 0.5000 0.1017 0.091 Uiso 1 2 calc R U P C 3
loop_
_atom_site_aniso_label
_atom_site_aniso_U_11
_atom_site_aniso_U_22
_atom_site_aniso_U_33
_atom_site_aniso_U_23
_atom_site_aniso_U_13
_atom_site_aniso_U_12
Lu1 0.0460(17) 0.0546(12) 0.098(3) 0.012(2) 0.0462(17) -0.0005(12)
Lu2 0.0639(11) 0.0770(11) 0.0411(8) -0.0271(8) 0.0233(7) -0.0149(8)
Lu3 0.0657(16) 0.0489(16) 0.0424(13) -0.0070(12) 0.0204(12) -0.0056(14)
Lu4 0.0495(16) 0.0493(18) 0.113(3) 0.022(2) 0.0051(17) 0.0068(13)
Lu5 0.062(2) 0.0298(15) 0.045(2) 0.0112(13) 0.0113(19) 0.0150(16)
Lu6 0.116(5) 0.065(3) 0.056(3) 0.034(2) 0.013(3) -0.006(3)
Lu7 0.059(3) 0.081(4) 0.022(2) 0.000 0.004(2) 0.000
Lu8 0.058(3) 0.085(4) 0.091(4) 0.000(3) 0.022(3) 0.036(3)
Lu9 0.050(4) 0.075(4) 0.012(2) -0.004(2) 0.0032(19) -0.029(3)
Lu10 0.093(8) 0.101(9) 0.057(7) 0.000 0.044(7) 0.000
Lu11 0.187(11) 0.062(6) 0.117(9) -0.006(7) 0.002(9) -0.011(7)
Lu12 0.159(12) 0.069(9) 0.103(11) 0.003(8) 0.023(9) -0.041(9)
Lu13 0.124(9) 0.098(9) 0.048(6) -0.016(6) 0.007(7) 0.006(8)
Lu14 0.110(8) 0.101(8) 0.086(8) 0.004(7) 0.035(7) -0.027(7)
Lu15 0.084(12) 0.124(14) 0.063(11) 0.000 0.014(11) 0.000
C1 0.075(8) 0.198(12) 0.098(8) 0.048(11) 0.058(6) 0.054(10)
C2 0.087(10) 0.130(11) 0.084(9) 0.016(8) 0.044(8) 0.011(8)
C3 0.097(10) 0.110(10) 0.104(10) 0.057(9) 0.034(8) 0.006(9)
C4 0.098(11) 0.129(12) 0.146(12) 0.063(10) 0.043(10) -0.002(10)
C5 0.074(9) 0.168(12) 0.185(13) 0.084(11) 0.079(9) 0.005(9)
C6 0.061(9) 0.169(12) 0.179(12) 0.032(11) 0.034(9) -0.004(9)
C7 0.036(6) 0.150(13) 0.171(12) 0.008(10) 0.030(8) 0.003(8)
C8 0.082(9) 0.180(13) 0.178(13) 0.082(10) 0.061(10) 0.051(9)
C9 0.108(10) 0.210(12) 0.177(12) 0.068(11) 0.083(9) 0.030(10)
C10 0.096(10) 0.166(12) 0.077(8) 0.004(9) 0.042(7) 0.040(10)
C11 0.076(7) 0.084(8) 0.034(5) -0.026(5) 0.013(5) 0.008(6)
C12 0.094(7) 0.118(8) 0.055(5) -0.011(12) 0.034(5) 0.006(12)
C13 0.111(9) 0.108(10) 0.048(6) -0.001(6) -0.001(7) 0.017(7)
C14 0.119(10) 0.083(9) 0.056(7) 0.015(7) 0.011(7) 0.018(9)
C15 0.117(10) 0.111(11) 0.103(10) 0.067(9) -0.004(9) -0.003(10)
C16 0.123(11) 0.099(10) 0.112(11) 0.071(9) -0.011(10) 0.003(10)
C17 0.109(10) 0.062(8) 0.118(10) 0.036(8) -0.001(9) -0.001(8)
C18 0.107(10) 0.091(10) 0.126(11) 0.025(9) 0.021(10) -0.015(9)
C19 0.095(10) 0.106(11) 0.145(11) -0.022(10) -0.007(10) -0.014(9)
C20 0.057(8) 0.118(11) 0.178(12) -0.030(11) 0.006(10) -0.018(8)
C21 0.080(9) 0.129(11) 0.127(10) -0.067(9) -0.018(9) -0.018(9)
C22 0.070(9) 0.143(11) 0.124(11) -0.064(9) -0.045(8) 0.005(8)
C23 0.040(6) 0.120(12) 0.151(10) -0.062(9) -0.018(7) 0.013(7)
C24 0.046(7) 0.083(9) 0.153(11) 0.021(9) -0.028(8) 0.028(7)
C25 0.044(7) 0.102(10) 0.164(11) 0.052(9) 0.010(8) 0.045(7)
C26 0.062(8) 0.162(11) 0.117(10) 0.039(10) 0.003(8) 0.065(9)
C27 0.094(10) 0.161(12) 0.109(10) 0.002(10) -0.005(9) 0.056(10)
C28 0.088(9) 0.071(8) 0.085(8) -0.026(7) -0.019(7) 0.032(7)
C29 0.071(8) 0.069(7) 0.078(7) -0.037(6) 0.009(6) -0.003(6)
C30 0.087(8) 0.080(8) 0.065(7) -0.043(7) 0.003(7) -0.016(7)
C31 0.072(7) 0.075(8) 0.054(7) -0.022(6) 0.017(6) -0.026(7)
C32 0.078(7) 0.128(10) 0.051(6) -0.021(6) -0.042(6) 0.023(7)
C33 0.091(8) 0.125(13) 0.087(7) -0.031(7) -0.069(6) 0.031(7)
C34 0.080(9) 0.158(13) 0.077(8) -0.003(9) -0.040(7) 0.058(8)
C35 0.122(11) 0.110(11) 0.064(8) 0.027(8) -0.024(8) 0.034(9)
C36 0.160(12) 0.121(11) 0.130(12) 0.053(10) -0.016(11) 0.038(11)
C37 0.139(12) 0.097(10) 0.174(13) 0.060(10) -0.004(11) 0.051(9)
C38 0.086(8) 0.041(6) 0.115(10) 0.012(7) -0.025(8) 0.037(6)
C39 0.099(9) 0.032(6) 0.074(8) -0.001(6) -0.010(7) 0.016(6)
C40 0.093(8) 0.054(7) 0.069(7) -0.025(6) -0.013(7) 0.032(6)
C41 0.097(9) 0.081(9) 0.073(8) -0.033(7) -0.016(7) 0.003(8)
C42 0.112(10) 0.101(10) 0.077(8) -0.036(8) -0.032(8) -0.004(9)
C43 0.158(11) 0.105(10) 0.045(7) -0.020(7) -0.043(8) -0.001(10)
C44 0.155(12) 0.116(11) 0.058(7) -0.011(7) -0.053(8) 0.014(9)
C45 0.117(10) 0.108(10) 0.109(9) -0.027(10) -0.076(8) 0.015(10)
C46 0.090(9) 0.072(8) 0.135(10) 0.005(8) -0.076(8) 0.003(7)
C47 0.125(11) 0.095(10) 0.095(10) 0.031(9) -0.073(8) -0.008(9)
C48 0.135(12) 0.083(10) 0.119(10) 0.047(9) -0.015(10) 0.013(10)
C49 0.111(11) 0.104(10) 0.133(11) 0.034(9) 0.015(9) 0.052(9)
C50 0.107(10) 0.056(7) 0.125(10) -0.023(8) -0.024(9) 0.040(8)
C51 0.132(11) 0.031(6) 0.115(11) -0.005(7) 0.006(10) 0.006(7)
C52 0.080(8) 0.024(5) 0.082(8) -0.016(5) -0.014(6) -0.009(5)
C53 0.052(6) 0.033(5) 0.056(6) -0.027(4) 0.013(4) -0.028(4)
C54 0.055(7) 0.087(8) 0.119(9) -0.058(8) -0.049(7) -0.010(6)
C55 0.073(9) 0.135(11) 0.122(11) -0.028(10) -0.036(9) -0.042(8)
C56 0.070(9) 0.129(11) 0.129(11) -0.010(10) -0.005(9) -0.060(8)
C57 0.024(4) 0.110(10) 0.155(9) 0.022(10) 0.002(5) -0.014(7)
C58 0.037(7) 0.131(11) 0.091(9) 0.039(8) 0.003(6) 0.025(7)
C59 0.057(8) 0.068(8) 0.149(11) 0.036(9) 0.000(8) 0.026(7)
C60 0.073(9) 0.081(9) 0.182(12) -0.032(10) 0.009(9) 0.035(8)
C61 0.080(9) 0.090(10) 0.165(12) -0.029(10) 0.012(9) 0.051(8)
C62 0.100(10) 0.144(12) 0.124(10) -0.094(9) 0.021(9) 0.030(9)
C63 0.137(11) 0.111(11) 0.084(9) -0.055(8) 0.049(8) 0.014(9)
C64 0.161(11) 0.107(10) 0.018(5) -0.022(6) 0.023(7) -0.011(9)
C65 0.164(13) 0.171(13) 0.029(6) -0.016(8) 0.003(8) -0.015(11)
C66 0.182(12) 0.128(12) 0.034(5) 0.012(8) -0.029(7) 0.001(10)
C67 0.152(12) 0.106(10) 0.030(6) 0.018(7) -0.040(7) 0.001(10)
C68 0.188(13) 0.135(11) 0.046(7) 0.035(8) 0.002(9) -0.067(10)
C69 0.208(14) 0.129(12) 0.107(11) 0.039(10) 0.023(11) -0.080(11)
C70 0.175(13) 0.071(9) 0.113(11) 0.049(9) 0.043(11) -0.018(10)
C71 0.160(12) 0.047(8) 0.119(11) 0.010(8) 0.017(11) -0.030(9)
C72 0.174(11) 0.076(9) 0.082(8) -0.013(7) 0.060(9) -0.090(9)
C73 0.129(10) 0.090(9) 0.095(9) -0.020(8) 0.018(9) -0.062(8)
C74 0.105(10) 0.095(9) 0.114(10) -0.048(8) 0.051(8) -0.071(8)
C75 0.108(10) 0.137(11) 0.160(11) -0.043(11) 0.078(9) -0.065(10)
C76 0.055(6) 0.111(9) 0.164(10) -0.020(13) 0.045(7) -0.024(11)
C77 0.076(9) 0.142(11) 0.152(11) -0.047(11) 0.060(9) 0.006(9)
C78 0.155(11) 0.212(14) 0.110(10) -0.033(11) 0.106(9) -0.006(12)
C79 0.146(11) 0.197(14) 0.088(10) -0.072(9) 0.067(9) 0.012(11)
C80 0.161(12) 0.221(14) 0.046(7) -0.034(8) 0.042(8) -0.050(11)
C81 0.175(13) 0.207(14) 0.071(9) -0.020(10) 0.063(9) -0.074(11)
C82 0.173(11) 0.204(14) 0.102(9) -0.057(9) 0.112(8) -0.043(11)
C83 0.173(12) 0.163(13) 0.146(12) -0.013(11) 0.083(10) -0.089(11)
C84 0.186(12) 0.114(10) 0.090(9) -0.019(9) 0.057(9) -0.114(9)
Ni1A 0.0172(4) 0.0167(4) 0.0206(4) 0.000 -0.0038(2) 0.000
C1A 0.043(3) 0.043(3) 0.029(2) 0.0076(19) -0.0087(18) 0.003(2)
N2A 0.0190(16) 0.0200(15) 0.0241(15) 0.0007(12) -0.0045(12) -0.0008(11)
C2A 0.032(2) 0.036(2) 0.033(2) 0.0033(18) -0.0120(17) 0.0027(18)
N3A 0.018(2) 0.018(2) 0.025(2) 0.000 -0.0007(17) 0.000
C4A 0.0187(18) 0.0261(19) 0.0229(18) 0.0023(15) -0.0026(14) 0.0019(14)
C5A 0.0235(19) 0.0266(19) 0.0267(18) 0.0057(15) -0.0051(14) 0.0045(15)
C6A 0.0215(19) 0.0215(18) 0.0308(19) 0.0029(15) -0.0022(15) 0.0017(14)
C7A 0.026(2) 0.0222(19) 0.040(2) 0.0030(17) -0.0046(16) -0.0006(15)
C8A 0.039(2) 0.021(2) 0.060(3) 0.007(2) -0.015(2) -0.0019(17)
C9A 0.053(3) 0.041(3) 0.070(4) 0.030(3) -0.008(3) -0.005(2)
C10A 0.026(2) 0.0206(19) 0.039(2) -0.0005(16) -0.0026(16) -0.0011(15)
C11A 0.031(2) 0.021(2) 0.059(3) -0.0007(19) -0.009(2) -0.0033(16)
C12A 0.038(3) 0.033(2) 0.073(3) 0.003(2) -0.004(2) -0.016(2)
C13A 0.0202(18) 0.0212(18) 0.0308(19) -0.0009(15) -0.0011(15) -0.0022(14)
C14A 0.0218(18) 0.0252(19) 0.0252(18) -0.0036(15) -0.0016(14) -0.0050(15)
C15A 0.0198(19) 0.0253(18) 0.0222(18) -0.0028(15) -0.0024(14) -0.0030(14)
C16A 0.0169(19) 0.0304(19) 0.0233(18) -0.0007(15) -0.0032(14) -0.0014(15)
C17A 0.023(2) 0.037(2) 0.0277(19) -0.0040(17) -0.0060(15) -0.0031(16)
C18A 0.028(2) 0.053(3) 0.046(3) -0.010(2) -0.0017(19) -0.016(2)
C3A 0.021(2) 0.032(2) 0.0265(19) 0.0023(16) -0.0048(15) 0.0000(16)
N1A 0.022(2) 0.023(2) 0.024(2) 0.000 -0.0025(17) 0.000
C1B 0.055(6) 0.113(9) 0.074(7) 0.000 -0.022(5) 0.000
C2B 0.047(4) 0.052(4) 0.056(4) 0.000 0.007(3) 0.000
C3B 0.052(4) 0.043(4) 0.036(3) 0.000 -0.003(3) 0.000
C4B 0.048(4) 0.045(4) 0.038(4) 0.000 0.002(3) 0.000
C5B 0.075(5) 0.044(4) 0.031(3) 0.000 0.007(3) 0.000
C6B 0.081(7) 0.098(8) 0.045(5) 0.000 -0.023(5) 0.000
loop_
_atom_type_symbol
_atom_type_description
_atom_type_scat_dispersion_real
_atom_type_scat_dispersion_imag
_atom_type_scat_source
C C 0.0027 0.0014 'International Tables Vol C Tables 4.2.6.8 and 6.1.1.4'
H H 0.0000 0.0000 'International Tables Vol C Tables 4.2.6.8 and 6.1.1.4'
N N 0.0053 0.0028 'International Tables Vol C Tables 4.2.6.8 and 6.1.1.4'
Ni Ni 0.3436 0.9622 'International Tables Vol C Tables 4.2.6.8 and 6.1.1.4'
Lu Lu -0.2922 5.1425 'International Tables Vol C Tables 4.2.6.8 and 6.1.1.4'
loop_
_geom_angle_atom_site_label_1
_geom_angle_atom_site_label_2
_geom_angle_atom_site_label_3
_geom_angle
_geom_angle_site_symmetry_1
_geom_angle_site_symmetry_3
Lu9 Lu1 Lu14 96(2) . .
Lu9 Lu1 Lu10 34.4(15) . .
Lu14 Lu1 Lu10 119.8(19) . .
Lu9 Lu1 Lu1 92.6(15) . 6
Lu14 Lu1 Lu1 138.4(12) . 6
Lu10 Lu1 Lu1 58.3(7) . 6
Lu9 Lu1 Lu15 141(2) . .
Lu14 Lu1 Lu15 87.2(19) . .
Lu10 Lu1 Lu15 112.8(11) . .
Lu1 Lu1 Lu15 62.0(7) 6 .
Lu9 Lu1 Lu9 71.5(16) . 6
Lu14 Lu1 Lu9 138.4(15) . 6
Lu10 Lu1 Lu9 37.1(7) . 6
Lu1 Lu1 Lu9 21.2(2) 6 6
Lu15 Lu1 Lu9 80.6(7) . 6
Lu9 Lu1 Lu13 21.5(14) . 6
Lu14 Lu1 Lu13 77.9(19) . 6
Lu10 Lu1 Lu13 44.2(9) . 6
Lu1 Lu1 Lu13 98.5(7) 6 6
Lu15 Lu1 Lu13 127.7(16) . 6
Lu9 Lu1 Lu13 78.7(8) 6 6
Lu9 Lu1 Lu6 50.4(13) . .
Lu14 Lu1 Lu6 46.5(18) . .
Lu10 Lu1 Lu6 74.8(8) . .
Lu1 Lu1 Lu6 121.5(2) 6 .
Lu15 Lu1 Lu6 116.3(14) . .
Lu9 Lu1 Lu6 105.4(5) 6 .
Lu13 Lu1 Lu6 31.5(7) 6 .
Lu9 Lu1 Lu14 95.9(16) . 6
Lu14 Lu1 Lu14 122.3(17) . 6
Lu10 Lu1 Lu14 62.5(10) . 6
Lu1 Lu1 Lu14 16.1(5) 6 6
Lu15 Lu1 Lu14 51.8(10) . 6
Lu9 Lu1 Lu14 29.0(7) 6 6
Lu13 Lu1 Lu14 95.8(11) 6 6
Lu6 Lu1 Lu14 112.1(8) . 6
Lu9 Lu1 C83 84.6(14) . .
Lu14 Lu1 C83 100.9(12) . .
Lu10 Lu1 C83 103.0(6) . .
Lu1 Lu1 C83 120.38(16) 6 .
Lu15 Lu1 C83 132.9(15) . .
Lu9 Lu1 C83 116.5(5) 6 .
Lu13 Lu1 C83 99.2(5) 6 .
Lu6 Lu1 C83 101.6(3) . .
Lu14 Lu1 C83 136.4(5) 6 .
Lu9 Lu1 C75 123.1(14) . .
Lu14 Lu1 C75 97.5(15) . .
Lu10 Lu1 C75 133.4(7) . .
Lu1 Lu1 C75 111.41(16) 6 .
Lu15 Lu1 C75 94.6(15) . .
Lu9 Lu1 C75 122.9(5) 6 .
Lu13 Lu1 C75 136.6(6) 6 .
Lu6 Lu1 C75 126.4(3) . .
Lu14 Lu1 C75 121.3(8) 6 .
C83 Lu1 C75 38.59(7) . .
Lu9 Lu1 Lu13 50.2(15) . .
Lu14 Lu1 Lu13 116.6(16) . .
Lu10 Lu1 Lu13 19.4(7) . .
Lu1 Lu1 Lu13 46.0(5) 6 .
Lu15 Lu1 Lu13 94.0(11) . .
Lu9 Lu1 Lu13 27.1(6) 6 .
Lu13 Lu1 Lu13 52.5(12) 6 .
Lu6 Lu1 Lu13 78.3(5) . .
Lu14 Lu1 Lu13 45.8(9) 6 .
C83 Lu1 Lu13 121.5(5) . .
C75 Lu1 Lu13 145.2(5) . .
Lu2 Lu2 Lu3 122.63(14) 6 .
Lu2 Lu2 Lu12 147.1(10) 6 .
Lu3 Lu2 Lu12 24.6(9) . .
Lu2 Lu2 Lu8 96.0(2) 6 .
Lu3 Lu2 Lu8 26.6(2) . .
Lu12 Lu2 Lu8 51.2(9) . .
Lu2 Lu2 Lu4 122.12(12) 6 .
Lu3 Lu2 Lu4 5.70(16) . .
Lu12 Lu2 Lu4 25.0(9) . .
Lu8 Lu2 Lu4 27.3(2) . .
Lu2 Lu2 C11 108.86(12) 6 .
Lu3 Lu2 C11 103.90(17) . .
Lu12 Lu2 C11 91.4(10) . .
Lu8 Lu2 C11 115.45(18) . .
Lu4 Lu2 C11 108.79(18) . .
Lu2 Lu2 Lu3 29.90(10) 6 6
Lu3 Lu2 Lu3 92.7(2) . 6
Lu12 Lu2 Lu3 117.2(10) . 6
Lu8 Lu2 Lu3 66.2(2) . 6
Lu4 Lu2 Lu3 92.40(15) . 6
C11 Lu2 Lu3 121.71(14) . 6
Lu2 Lu2 Lu11 128.1(4) 6 .
Lu3 Lu2 Lu11 41.8(6) . .
Lu12 Lu2 Lu11 36.3(11) . .
Lu8 Lu2 Lu11 57.8(6) . .
Lu4 Lu2 Lu11 36.7(6) . .
C11 Lu2 Lu11 122.6(4) . .
Lu3 Lu2 Lu11 106.9(4) 6 .
Lu2 Lu2 C12 76.40(11) 6 .
Lu3 Lu2 C12 131.14(17) . .
Lu12 Lu2 C12 124.5(10) . .
Lu8 Lu2 C12 128.9(2) . .
Lu4 Lu2 C12 136.78(17) . .
C11 Lu2 C12 33.7 . .
Lu3 Lu2 C12 96.35(14) 6 .
Lu11 Lu2 C12 155.4(4) . .
Lu2 Lu2 C10 110.43(11) 6 .
Lu3 Lu2 C10 75.82(16) . .
Lu12 Lu2 C10 72.8(10) . .
Lu8 Lu2 C10 82.35(17) . .
Lu4 Lu2 C10 81.40(16) . .
C11 Lu2 C10 33.4 . .
Lu3 Lu2 C10 105.61(14) 6 .
Lu11 Lu2 C10 109.1(5) . .
C12 Lu2 C10 55.47(5) . .
Lu2 Lu2 Lu12 17.3(6) 6 6
Lu3 Lu2 Lu12 105.4(6) . 6
Lu12 Lu2 Lu12 129.8(15) . 6
Lu8 Lu2 Lu12 78.9(6) . 6
Lu4 Lu2 Lu12 104.9(6) . 6
C11 Lu2 Lu12 118.1(6) . 6
Lu3 Lu2 Lu12 12.7(6) 6 6
Lu11 Lu2 Lu12 115.6(7) . 6
C12 Lu2 Lu12 88.7(6) . 6
C10 Lu2 Lu12 109.4(6) . 6
Lu2 Lu2 C30 135.61(10) 6 .
Lu3 Lu2 C30 97.65(17) . .
Lu12 Lu2 C30 75.3(10) . .
Lu8 Lu2 C30 121.7(2) . .
Lu4 Lu2 C30 99.82(17) . .
C11 Lu2 C30 36.6 . .
Lu3 Lu2 C30 157.87(13) 6 .
Lu11 Lu2 C30 93.7(4) . .
C12 Lu2 C30 62.23(6) . .
C10 Lu2 C30 58.76(6) . .
Lu12 Lu2 C30 150.6(6) 6 .
Lu12 Lu3 Lu4 99(3) . .
Lu12 Lu3 Lu8 159(3) . .
Lu4 Lu3 Lu8 60.6(4) . .
Lu12 Lu3 Lu2 80(3) . .
Lu4 Lu3 Lu2 165.1(4) . .
Lu8 Lu3 Lu2 120.7(4) . .
Lu12 Lu3 Lu11 66(2) . .
Lu4 Lu3 Lu11 63.3(8) . .
Lu8 Lu3 Lu11 104.8(8) . .
Lu2 Lu3 Lu11 103.4(8) . .
Lu12 Lu3 Lu5 101(2) . .
Lu4 Lu3 Lu5 38.5(3) . .
Lu8 Lu3 Lu5 66.4(4) . .
Lu2 Lu3 Lu5 126.9(2) . .
Lu11 Lu3 Lu5 38.6(7) . .
Lu12 Lu3 C27 78(3) . .
Lu4 Lu3 C27 89.0(4) . .
Lu8 Lu3 C27 95.8(3) . .
Lu2 Lu3 C27 105.18(19) . .
Lu11 Lu3 C27 128.8(6) . .
Lu5 Lu3 C27 127.3(3) . .
Lu12 Lu3 Lu2 107(3) . 6
Lu4 Lu3 Lu2 148.3(4) . 6
Lu8 Lu3 Lu2 93.3(4) . 6
Lu2 Lu3 Lu2 27.48(12) . 6
Lu11 Lu3 Lu2 112.2(7) . 6
Lu5 Lu3 Lu2 117.20(17) . 6
C27 Lu3 Lu2 112.80(17) . 6
Lu12 Lu3 Lu6 93(2) . .
Lu4 Lu3 Lu6 53.2(4) . .
Lu8 Lu3 Lu6 79.3(4) . .
Lu2 Lu3 Lu6 112.0(2) . .
Lu11 Lu3 Lu6 26.3(6) . .
Lu5 Lu3 Lu6 16.5(2) . .
C27 Lu3 Lu6 139.4(3) . .
Lu2 Lu3 Lu6 107.8(2) 6 .
Lu12 Lu3 C28 50(3) . .
Lu4 Lu3 C28 83.2(4) . .
Lu8 Lu3 C28 118.0(3) . .
Lu2 Lu3 C28 106.77(19) . .
Lu11 Lu3 C28 99.9(6) . .
Lu5 Lu3 C28 114.0(2) . .
C27 Lu3 C28 30.9 . .
Lu2 Lu3 C28 127.37(17) 6 .
Lu6 Lu3 C28 118.4(2) . .
Lu12 Lu3 Lu8 161(3) . 6
Lu4 Lu3 Lu8 97.5(4) . 6
Lu8 Lu3 Lu8 39.0(4) . 6
Lu2 Lu3 Lu8 81.8(3) . 6
Lu11 Lu3 Lu8 115.3(6) . 6
Lu5 Lu3 Lu8 86.9(2) . 6
C27 Lu3 Lu8 110.2(2) . 6
Lu2 Lu3 Lu8 54.4(2) 6 6
Lu6 Lu3 Lu8 91.2(2) . 6
C28 Lu3 Lu8 141.0(2) . 6
Lu12 Lu3 C10 77(2) . .
Lu4 Lu3 C10 122.0(4) . .
Lu8 Lu3 C10 108.4(4) . .
Lu2 Lu3 C10 72.52(16) . .
Lu11 Lu3 C10 143.3(6) . .
Lu5 Lu3 C10 160.3(2) . .
C27 Lu3 C10 33.0 . .
Lu2 Lu3 C10 81.40(14) 6 .
Lu6 Lu3 C10 168.0(2) . .
C28 Lu3 C10 50.13(6) . .
Lu8 Lu3 C10 100.5(2) 6 .
Lu3 Lu4 Lu8 73.4(5) . .
Lu3 Lu4 Lu12 31.4(10) . .
Lu8 Lu4 Lu12 104.7(12) . .
Lu3 Lu4 Lu5 116.9(4) . .
Lu8 Lu4 Lu5 96.0(6) . .
Lu12 Lu4 Lu5 116.1(14) . .
Lu3 Lu4 Lu11 84.5(8) . .
Lu8 Lu4 Lu11 123.8(7) . .
Lu12 Lu4 Lu11 68.9(14) . .
Lu5 Lu4 Lu11 49.9(8) . .
Lu3 Lu4 Lu6 106.3(4) . .
Lu8 Lu4 Lu6 102.9(5) . .
Lu12 Lu4 Lu6 101.9(13) . .
Lu5 Lu4 Lu6 14.4(3) . .
Lu11 Lu4 Lu6 35.8(7) . .
Lu3 Lu4 C50 114.9(5) . .
Lu8 Lu4 C50 145.5(4) . .
Lu12 Lu4 C50 87.3(12) . .
Lu5 Lu4 C50 107.6(3) . .
Lu11 Lu4 C50 90.8(6) . .
Lu6 Lu4 C50 106.1(3) . .
Lu3 Lu4 Lu2 9.2(2) . .
Lu8 Lu4 Lu2 75.1(5) . .
Lu12 Lu4 Lu2 31.9(11) . .
Lu5 Lu4 Lu2 107.9(2) . .
Lu11 Lu4 Lu2 76.5(7) . .
Lu6 Lu4 Lu2 97.1(2) . .
C50 Lu4 Lu2 118.7(3) . .
Lu3 Lu4 C49 149.0(5) . .
Lu8 Lu4 C49 121.3(5) . .
Lu12 Lu4 C49 124.2(12) . .
Lu5 Lu4 C49 90.1(3) . .
Lu11 Lu4 C49 104.2(7) . .
Lu6 Lu4 C49 97.1(3) . .
C50 Lu4 C49 36.88(7) . .
Lu2 Lu4 C49 154.9(3) . .
Lu3 Lu4 C25 126.7(4) . .
Lu8 Lu4 C25 83.0(4) . .
Lu12 Lu4 C25 129.3(14) . .
Lu5 Lu4 C25 112.5(4) . .
Lu11 Lu4 C25 145.8(7) . .
Lu6 Lu4 C25 125.5(3) . .
C50 Lu4 C25 65.01(11) . .
Lu2 Lu4 C25 135.6(3) . .
C49 Lu4 C25 42.10(8) . .
Lu3 Lu4 C27 69.4(4) . .
Lu8 Lu4 C27 90.6(4) . .
Lu12 Lu4 C27 66.2(14) . .
Lu5 Lu4 C27 171.9(3) . .
Lu11 Lu4 C27 128.9(8) . .
Lu6 Lu4 C27 164.2(3) . .
C50 Lu4 C27 64.41(14) . .
Lu2 Lu4 C27 78.2(2) . .
C49 Lu4 C27 82.53(14) . .
C25 Lu4 C27 63.73(11) . .
Lu3 Lu4 C26 92.0(4) . .
Lu8 Lu4 C26 71.1(3) . .
Lu12 Lu4 C26 99.6(13) . .
Lu5 Lu4 C26 144.2(4) . .
Lu11 Lu4 C26 162.4(7) . .
Lu6 Lu4 C26 158.5(3) . .
C50 Lu4 C26 75.09(13) . .
Lu2 Lu4 C26 100.9(2) . .
C49 Lu4 C26 70.71(11) . .
C25 Lu4 C26 34.80(6) . .
C27 Lu4 C26 35.19(7) . .
Lu6 Lu5 Lu11 70.0(13) . .
Lu6 Lu5 Lu4 141.7(8) . .
Lu11 Lu5 Lu4 72.3(11) . .
Lu6 Lu5 Lu13 37.2(9) . 6
Lu11 Lu5 Lu13 99.0(13) . 6
Lu4 Lu5 Lu13 149.0(6) . 6
Lu6 Lu5 Lu8 144.2(6) . .
Lu11 Lu5 Lu8 97.0(11) . .
Lu4 Lu5 Lu8 36.7(3) . .
Lu13 Lu5 Lu8 120.0(7) 6 .
Lu6 Lu5 Lu3 122.0(7) . .
Lu11 Lu5 Lu3 59.9(11) . .
Lu4 Lu5 Lu3 24.66(17) . .
Lu13 Lu5 Lu3 125.5(6) 6 .
Lu8 Lu5 Lu3 37.3(3) . .
Lu6 Lu5 Lu12 112.4(10) . .
Lu11 Lu5 Lu12 45.2(13) . .
Lu4 Lu5 Lu12 29.5(8) . .
Lu13 Lu5 Lu12 127.6(10) 6 .
Lu8 Lu5 Lu12 53.2(6) . .
Lu3 Lu5 Lu12 16.5(5) . .
Lu6 Lu5 Lu14 32.3(7) . .
Lu11 Lu5 Lu14 48.1(12) . .
Lu4 Lu5 Lu14 112.1(6) . .
Lu13 Lu5 Lu14 51.1(9) 6 .
Lu8 Lu5 Lu14 114.9(6) . .
Lu3 Lu5 Lu14 90.1(6) . .
Lu12 Lu5 Lu14 82.8(10) . .
Lu6 Lu5 Lu7 65.9(7) . .
Lu11 Lu5 Lu7 120.3(10) . .
Lu4 Lu5 Lu7 132.0(3) . .
Lu13 Lu5 Lu7 28.7(7) 6 .
Lu8 Lu5 Lu7 96.2(3) . .
Lu3 Lu5 Lu7 116.8(2) . .
Lu12 Lu5 Lu7 127.8(7) . .
Lu14 Lu5 Lu7 73.7(7) . .
Lu6 Lu5 C48 104.1(6) . .
Lu11 Lu5 C48 110.6(8) . .
Lu4 Lu5 C48 95.2(3) . .
Lu13 Lu5 C48 115.5(6) 6 .
Lu8 Lu5 C48 111.8(3) . .
Lu3 Lu5 C48 119.0(2) . .
Lu12 Lu5 C48 113.3(7) . .
Lu14 Lu5 C48 130.3(6) . .
Lu7 Lu5 C48 117.5(2) . .
Lu6 Lu5 Lu9 27.3(6) . .
Lu11 Lu5 Lu9 74.3(11) . .
Lu4 Lu5 Lu9 131.8(3) . .
Lu13 Lu5 Lu9 25.2(6) 6 .
Lu8 Lu5 Lu9 118.1(3) . .
Lu3 Lu5 Lu9 107.3(3) . .
Lu12 Lu5 Lu9 104.8(8) . .
Lu14 Lu5 Lu9 26.2(7) . .
Lu7 Lu5 Lu9 48.5(3) . .
C48 Lu5 Lu9 129.0(3) . .
Lu6 Lu5 C70 65.1(6) . .
Lu11 Lu5 C70 89.3(9) . .
Lu4 Lu5 C70 121.3(3) . .
Lu13 Lu5 C70 87.5(6) 6 .
Lu8 Lu5 C70 150.2(3) . .
Lu3 Lu5 C70 135.8(2) . .
Lu12 Lu5 C70 120.8(6) . .
Lu14 Lu5 C70 90.9(6) . .
Lu7 Lu5 C70 105.8(2) . .
C48 Lu5 C70 39.79(7) . .
Lu9 Lu5 C70 91.7(3) . .
Lu5 Lu6 Lu13 116.3(14) . 6
Lu5 Lu6 Lu11 70.3(13) . .
Lu13 Lu6 Lu11 141.9(13) 6 .
Lu5 Lu6 Lu14 132.2(10) . .
Lu13 Lu6 Lu14 78.1(14) 6 .
Lu11 Lu6 Lu14 72.6(14) . .
Lu5 Lu6 Lu9 140.9(8) . .
Lu13 Lu6 Lu9 41.7(10) 6 .
Lu11 Lu6 Lu9 107.9(12) . .
Lu14 Lu6 Lu9 36.9(10) . .
Lu5 Lu6 Lu4 23.9(5) . .
Lu13 Lu6 Lu4 129.1(10) 6 .
Lu11 Lu6 Lu4 46.9(12) . .
Lu14 Lu6 Lu4 110.8(8) . .
Lu9 Lu6 Lu4 132.9(4) . .
Lu5 Lu6 Lu7 93.1(7) . .
Lu13 Lu6 Lu7 23.2(10) 6 .
Lu11 Lu6 Lu7 136.4(8) . .
Lu14 Lu6 Lu7 93.5(10) . .
Lu9 Lu6 Lu7 60.4(4) . .
Lu4 Lu6 Lu7 107.4(3) . .
Lu5 Lu6 Lu1 138.8(6) . .
Lu13 Lu6 Lu1 54.5(10) 6 .
Lu11 Lu6 Lu1 94.6(12) . .
Lu14 Lu6 Lu1 23.6(9) . .
Lu9 Lu6 Lu1 13.5(2) . .
Lu4 Lu6 Lu1 124.5(3) . .
Lu7 Lu6 Lu1 71.4(4) . .
Lu5 Lu6 Lu10 122.5(8) . .
Lu13 Lu6 Lu10 20.4(11) 6 .
Lu11 Lu6 Lu10 122.6(12) . .
Lu14 Lu6 Lu10 58.9(11) . .
Lu9 Lu6 Lu10 24.6(7) . .
Lu4 Lu6 Lu10 125.8(4) . .
Lu7 Lu6 Lu10 35.9(7) . .
Lu1 Lu6 Lu10 35.8(7) . .
Lu5 Lu6 C69 130.0(7) . .
Lu13 Lu6 C69 80.6(8) 6 .
Lu11 Lu6 C69 125.7(10) . .
Lu14 Lu6 C69 96.1(8) . .
Lu9 Lu6 C69 84.1(5) . .
Lu4 Lu6 C69 142.4(4) . .
Lu7 Lu6 C69 96.1(3) . .
Lu1 Lu6 C69 90.3(4) . .
Lu10 Lu6 C69 90.2(5) . .
Lu5 Lu6 C70 96.5(7) . .
Lu13 Lu6 C70 115.0(8) 6 .
Lu11 Lu6 C70 100.5(9) . .
Lu14 Lu6 C70 119.2(8) . .
Lu9 Lu6 C70 121.5(5) . .
Lu4 Lu6 C70 103.8(4) . .
Lu7 Lu6 C70 121.7(3) . .
Lu1 Lu6 C70 124.4(4) . .
Lu10 Lu6 C70 128.4(5) . .
C69 Lu6 C70 38.79(9) . .
Lu5 Lu6 Lu3 41.5(5) . .
Lu13 Lu6 Lu3 121.1(8) 6 .
Lu11 Lu6 Lu3 38.1(10) . .
Lu14 Lu6 Lu3 91.1(8) . .
Lu9 Lu6 Lu3 113.2(4) . .
Lu4 Lu6 Lu3 20.54(13) . .
Lu7 Lu6 Lu3 104.0(3) . .
Lu1 Lu6 Lu3 104.0(2) . .
Lu10 Lu6 Lu3 111.1(4) . .
C69 Lu6 Lu3 158.2(4) . .
C70 Lu6 Lu3 120.5(4) . .
Lu13 Lu7 Lu13 112(2) . 6
Lu13 Lu7 Lu10 58.3(11) . .
Lu13 Lu7 Lu10 58.3(11) 6 .
Lu13 Lu7 Lu9 78.1(11) . .
Lu13 Lu7 Lu9 35.5(11) 6 .
Lu10 Lu7 Lu9 23.3(4) . .
Lu13 Lu7 Lu9 35.5(11) . 6
Lu13 Lu7 Lu9 78.1(11) 6 6
Lu10 Lu7 Lu9 23.3(4) . 6
Lu9 Lu7 Lu9 42.9(7) . 6
Lu13 Lu7 Lu6 22.4(10) . 6
Lu13 Lu7 Lu6 121.0(9) 6 6
Lu10 Lu7 Lu6 76.5(4) . 6
Lu9 Lu7 Lu6 92.0(4) . 6
Lu9 Lu7 Lu6 53.2(4) 6 6
Lu13 Lu7 Lu6 121.0(9) . .
Lu13 Lu7 Lu6 22.4(10) 6 .
Lu10 Lu7 Lu6 76.5(4) . .
Lu9 Lu7 Lu6 53.2(4) . .
Lu9 Lu7 Lu6 92.0(4) 6 .
Lu6 Lu7 Lu6 120.2(4) 6 .
Lu13 Lu7 Lu5 43.4(11) . 6
Lu13 Lu7 Lu5 125.2(7) 6 6
Lu10 Lu7 Lu5 94.3(5) . 6
Lu9 Lu7 Lu5 105.2(4) . 6
Lu9 Lu7 Lu5 71.8(4) 6 6
Lu6 Lu7 Lu5 21.0(2) 6 6
Lu6 Lu7 Lu5 115.3(3) . 6
Lu13 Lu7 Lu5 125.2(7) . .
Lu13 Lu7 Lu5 43.4(11) 6 .
Lu10 Lu7 Lu5 94.3(5) . .
Lu9 Lu7 Lu5 71.8(4) . .
Lu9 Lu7 Lu5 105.2(4) 6 .
Lu6 Lu7 Lu5 115.3(3) 6 .
Lu6 Lu7 Lu5 21.0(2) . .
Lu5 Lu7 Lu5 103.5(3) 6 .
Lu13 Lu7 C66 125.2(7) . .
Lu13 Lu7 C66 112.5(7) 6 .
Lu10 Lu7 C66 130.3(8) . .
Lu9 Lu7 C66 131.7(4) . .
Lu9 Lu7 C66 138.6(4) 6 .
Lu6 Lu7 C66 125.8(2) 6 .
Lu6 Lu7 C66 112.4(2) . .
Lu5 Lu7 C66 120.5(3) 6 .
Lu5 Lu7 C66 108.9(2) . .
Lu13 Lu7 C65 84.9(7) . .
Lu13 Lu7 C65 131.2(8) 6 .
Lu10 Lu7 C65 103.8(7) . .
Lu9 Lu7 C65 120.9(4) . .
Lu9 Lu7 C65 100.6(3) 6 .
Lu6 Lu7 C65 92.57(19) 6 .
Lu6 Lu7 C65 145.5(2) . .
Lu5 Lu7 C65 99.13(17) 6 .
Lu5 Lu7 C65 149.8(3) . .
C66 Lu7 C65 41.36(9) . .
Lu13 Lu7 C80 79.0(8) . .
Lu13 Lu7 C80 102.6(10) 6 .
Lu10 Lu7 C80 72.5(7) . .
Lu9 Lu7 C80 87.3(4) . .
Lu9 Lu7 C80 76.9(3) 6 .
Lu6 Lu7 C80 97.0(3) 6 .
Lu6 Lu7 C80 123.2(3) . .
Lu5 Lu7 C80 113.35(19) 6 .
Lu5 Lu7 C80 141.4(2) . .
C66 Lu7 C80 61.80(13) . .
C65 Lu7 C80 33.65(7) . .
Lu4 Lu8 Lu3 46.0(4) . .
Lu4 Lu8 Lu12 39.2(9) . .
Lu3 Lu8 Lu12 7.0(10) . .
Lu4 Lu8 Lu5 47.3(4) . .
Lu3 Lu8 Lu5 76.3(4) . .
Lu12 Lu8 Lu5 72.6(9) . .
Lu4 Lu8 Lu8 155.7(3) . 6
Lu3 Lu8 Lu8 116.5(4) . 6
Lu12 Lu8 Lu8 123.5(9) . 6
Lu5 Lu8 Lu8 119.5(2) . 6
Lu4 Lu8 Lu2 77.6(5) . .
Lu3 Lu8 Lu2 32.6(3) . .
Lu12 Lu8 Lu2 39.6(8) . .
Lu5 Lu8 Lu2 93.7(3) . .
Lu8 Lu8 Lu2 84.0(2) 6 .
Lu4 Lu8 Lu11 33.1(5) . .
Lu3 Lu8 Lu11 45.0(6) . .
Lu12 Lu8 Lu11 42.0(9) . .
Lu5 Lu8 Lu11 31.5(5) . .
Lu8 Lu8 Lu11 123.6(5) 6 .
Lu2 Lu8 Lu11 64.6(5) . .
Lu4 Lu8 C26 83.3(4) . .
Lu3 Lu8 C26 91.1(4) . .
Lu12 Lu8 C26 88.1(10) . .
Lu5 Lu8 C26 121.6(4) . .
Lu8 Lu8 C26 117.1(2) 6 .
Lu2 Lu8 C26 105.4(3) . .
Lu11 Lu8 C26 115.8(6) . .
Lu4 Lu8 C8 117.8(4) . .
Lu3 Lu8 C8 110.5(4) . .
Lu12 Lu8 C8 110.9(9) . .
Lu5 Lu8 C8 152.5(4) . .
Lu8 Lu8 C8 82.4(2) 6 .
Lu2 Lu8 C8 106.0(3) . .
Lu11 Lu8 C8 148.6(6) . .
C26 Lu8 C8 34.89(8) . .
Lu4 Lu8 C25 70.9(4) . .
Lu3 Lu8 C25 103.0(4) . .
Lu12 Lu8 C25 97.0(10) . .
Lu5 Lu8 C25 92.2(3) . .
Lu8 Lu8 C25 133.4(2) 6 .
Lu2 Lu8 C25 130.3(3) . .
Lu11 Lu8 C25 101.5(6) . .
C26 Lu8 C25 34.98(8) . .
C8 Lu8 C25 60.39(13) . .
Lu4 Lu8 Lu6 52.3(4) . .
Lu3 Lu8 Lu6 73.0(4) . .
Lu12 Lu8 Lu6 70.5(9) . .
Lu5 Lu8 Lu6 11.0(2) . .
Lu8 Lu8 Lu6 111.1(2) 6 .
Lu2 Lu8 Lu6 85.6(3) . .
Lu11 Lu8 Lu6 28.5(5) . .
C26 Lu8 Lu6 131.3(4) . .
C8 Lu8 Lu6 163.4(4) . .
C25 Lu8 Lu6 103.1(3) . .
Lu4 Lu8 Lu3 134.1(6) . 6
Lu3 Lu8 Lu3 92.0(5) . 6
Lu12 Lu8 Lu3 99.0(9) . 6
Lu5 Lu8 Lu3 116.1(2) . 6
Lu8 Lu8 Lu3 24.5(2) 6 6
Lu2 Lu8 Lu3 59.48(19) . 6
Lu11 Lu8 Lu3 106.9(5) . 6
C26 Lu8 Lu3 121.2(3) . 6
C8 Lu8 Lu3 90.8(3) . 6
C25 Lu8 Lu3 150.6(4) . 6
Lu6 Lu8 Lu3 105.4(2) . 6
Lu1 Lu9 Lu10 126(2) . .
Lu1 Lu9 Lu14 54.3(19) . .
Lu10 Lu9 Lu14 145.4(17) . .
Lu1 Lu9 Lu13 149.1(19) . 6
Lu10 Lu9 Lu13 66.3(15) . 6
Lu14 Lu9 Lu13 99(2) . 6
Lu1 Lu9 Lu9 87.4(15) . 6
Lu10 Lu9 Lu9 38.7(14) . 6
Lu14 Lu9 Lu9 126.0(14) . 6
Lu13 Lu9 Lu9 100.8(11) 6 6
Lu1 Lu9 Lu1 66.2(14) . 6
Lu10 Lu9 Lu1 59.8(15) . 6
Lu14 Lu9 Lu1 109.2(15) . 6
Lu13 Lu9 Lu1 118.8(12) 6 6
Lu9 Lu9 Lu1 21.2(2) 6 6
Lu1 Lu9 Lu6 116.2(15) . .
Lu10 Lu9 Lu6 100.5(15) . .
Lu14 Lu9 Lu6 62.5(17) . .
Lu13 Lu9 Lu6 36.7(11) 6 .
Lu9 Lu9 Lu6 126.5(4) 6 .
Lu1 Lu9 Lu6 134.7(7) 6 .
Lu1 Lu9 Lu15 28.6(15) . .
Lu10 Lu9 Lu15 103.7(15) . .
Lu14 Lu9 Lu15 60.6(16) . .
Lu13 Lu9 Lu15 129.2(14) 6 .
Lu9 Lu9 Lu15 68.2(5) 6 .
Lu1 Lu9 Lu15 48.9(5) 6 .
Lu6 Lu9 Lu15 109.8(10) . .
Lu1 Lu9 Lu7 145.9(17) . .
Lu10 Lu9 Lu7 34.3(14) . .
Lu14 Lu9 Lu7 121.7(16) . .
Lu13 Lu9 Lu7 32.6(11) 6 .
Lu9 Lu9 Lu7 68.5(3) 6 .
Lu1 Lu9 Lu7 87.9(5) 6 .
Lu6 Lu9 Lu7 66.4(4) . .
Lu15 Lu9 Lu7 117.3(10) . .
Lu1 Lu9 Lu13 118.0(17) . .
Lu10 Lu9 Lu13 16.5(10) . .
Lu14 Lu9 Lu13 129.1(13) . .
Lu13 Lu9 Lu13 64.8(15) 6 .
Lu9 Lu9 Lu13 35.9(6) 6 .
Lu1 Lu9 Lu13 55.1(6) 6 .
Lu6 Lu9 Lu13 94.0(7) . .
Lu15 Lu9 Lu13 92.0(9) . .
Lu7 Lu9 Lu13 32.9(6) . .
Lu1 Lu9 C83 81.5(13) . .
Lu10 Lu9 C83 121.2(10) . .
Lu14 Lu9 C83 93.4(12) . .
Lu13 Lu9 C83 118.3(9) 6 .
Lu9 Lu9 C83 119.4(3) 6 .
Lu1 Lu9 C83 113.4(6) 6 .
Lu6 Lu9 C83 111.6(6) . .
Lu15 Lu9 C83 109.3(11) . .
Lu7 Lu9 C83 131.0(4) . .
Lu13 Lu9 C83 137.3(6) . .
Lu1 Lu9 Lu14 70.2(16) . 6
Lu10 Lu9 Lu14 57.2(16) . 6
Lu14 Lu9 Lu14 102.9(18) . 6
Lu13 Lu9 Lu14 107.3(13) 6 6
Lu9 Lu9 Lu14 23.1(6) 6 6
Lu1 Lu9 Lu14 15.3(6) 6 6
Lu6 Lu9 Lu14 119.5(8) . 6
Lu15 Lu9 Lu14 46.7(8) . 6
Lu7 Lu9 Lu14 79.3(9) . 6
Lu13 Lu9 Lu14 47.9(10) . 6
C83 Lu9 Lu14 128.4(8) . 6
Lu9 Lu10 Lu9 103(3) . 6
Lu9 Lu10 Lu13 69.2(11) . 6
Lu9 Lu10 Lu13 150.9(17) 6 6
Lu9 Lu10 Lu13 150.9(17) . .
Lu9 Lu10 Lu13 69.2(11) 6 .
Lu13 Lu10 Lu13 104(3) 6 .
Lu9 Lu10 Lu7 122.4(14) . .
Lu9 Lu10 Lu7 122.4(14) 6 .
Lu13 Lu10 Lu7 53.8(15) 6 .
Lu13 Lu10 Lu7 53.8(15) . .
Lu9 Lu10 Lu1 19.6(9) . .
Lu9 Lu10 Lu1 83(2) 6 .
Lu13 Lu10 Lu1 85.9(11) 6 .
Lu13 Lu10 Lu1 139.2(17) . .
Lu7 Lu10 Lu1 135.8(9) . .
Lu9 Lu10 Lu1 83(2) . 6
Lu9 Lu10 Lu1 19.6(9) 6 6
Lu13 Lu10 Lu1 139.2(17) 6 6
Lu13 Lu10 Lu1 85.9(11) . 6
Lu7 Lu10 Lu1 135.8(9) . 6
Lu1 Lu10 Lu1 63.4(13) . 6
Lu9 Lu10 Lu14 99(2) . 6
Lu9 Lu10 Lu14 18.9(10) 6 6
Lu13 Lu10 Lu14 132.3(13) 6 6
Lu13 Lu10 Lu14 63.8(14) . 6
Lu7 Lu10 Lu14 112.0(12) . 6
Lu1 Lu10 Lu14 80.2(16) . 6
Lu1 Lu10 Lu14 23.8(10) 6 6
Lu9 Lu10 Lu14 18.9(10) . .
Lu9 Lu10 Lu14 99(2) 6 .
Lu13 Lu10 Lu14 63.8(14) 6 .
Lu13 Lu10 Lu14 132.3(13) . .
Lu7 Lu10 Lu14 112.0(12) . .
Lu1 Lu10 Lu14 23.8(10) . .
Lu1 Lu10 Lu14 80.2(16) 6 .
Lu14 Lu10 Lu14 90.1(19) 6 .
Lu9 Lu10 Lu6 135.4(15) . 6
Lu9 Lu10 Lu6 54.9(9) 6 6
Lu13 Lu10 Lu6 110.6(16) 6 6
Lu13 Lu10 Lu6 18.6(10) . 6
Lu7 Lu10 Lu6 67.7(6) . 6
Lu1 Lu10 Lu6 121.0(11) . 6
Lu1 Lu10 Lu6 69.3(4) 6 6
Lu14 Lu10 Lu6 46.2(10) 6 6
Lu14 Lu10 Lu6 118.4(9) . 6
Lu9 Lu10 Lu6 54.9(9) . .
Lu9 Lu10 Lu6 135.4(15) 6 .
Lu13 Lu10 Lu6 18.6(10) 6 .
Lu13 Lu10 Lu6 110.6(16) . .
Lu7 Lu10 Lu6 67.7(6) . .
Lu1 Lu10 Lu6 69.3(4) . .
Lu1 Lu10 Lu6 121.0(11) 6 .
Lu14 Lu10 Lu6 118.4(9) 6 .
Lu14 Lu10 Lu6 46.2(10) . .
Lu6 Lu10 Lu6 111.2(8) 6 .
Lu9 Lu10 C81 89.9(9) . .
Lu9 Lu10 C81 123.2(13) 6 .
Lu13 Lu10 C81 85.3(10) 6 .
Lu13 Lu10 C81 118.3(16) . .
Lu7 Lu10 C81 93.0(12) . .
Lu1 Lu10 C81 101.8(7) . .
Lu1 Lu10 C81 125.1(12) 6 .
Lu14 Lu10 C81 142.1(11) 6 .
Lu14 Lu10 C81 106.9(7) . .
Lu6 Lu10 C81 134.6(9) 6 .
Lu6 Lu10 C81 96.9(5) . .
Lu6 Lu11 Lu5 39.7(7) . .
Lu6 Lu11 Lu4 97.3(15) . .
Lu5 Lu11 Lu4 57.8(11) . .
Lu6 Lu11 Lu12 137.1(19) . .
Lu5 Lu11 Lu12 100.9(19) . .
Lu4 Lu11 Lu12 45.1(13) . .
Lu6 Lu11 Lu3 115.6(14) . .
Lu5 Lu11 Lu3 81.5(13) . .
Lu4 Lu11 Lu3 32.2(5) . .
Lu12 Lu11 Lu3 21.6(8) . .
Lu6 Lu11 Lu14 65.5(13) . .
Lu5 Lu11 Lu14 100.5(14) . .
Lu4 Lu11 Lu14 141.0(12) . .
Lu12 Lu11 Lu14 126.8(17) . .
Lu3 Lu11 Lu14 122.3(12) . .
Lu6 Lu11 Lu13 18.3(7) . 6
Lu5 Lu11 Lu13 48.0(9) . 6
Lu4 Lu11 Lu13 100.7(11) . 6
Lu12 Lu11 Lu13 130.3(13) . 6
Lu3 Lu11 Lu13 109.5(9) . 6
Lu14 Lu11 Lu13 52.6(11) . 6
Lu6 Lu11 Lu8 86.2(11) . .
Lu5 Lu11 Lu8 51.5(9) . .
Lu4 Lu11 Lu8 23.2(3) . .
Lu12 Lu11 Lu8 51.0(11) . .
Lu3 Lu11 Lu8 30.2(4) . .
Lu14 Lu11 Lu8 117.8(10) . .
Lu13 Lu11 Lu8 83.8(8) 6 .
Lu6 Lu11 C51 118.2(11) . .
Lu5 Lu11 C51 110.8(12) . .
Lu4 Lu11 C51 90.9(9) . .
Lu12 Lu11 C51 87.4(12) . .
Lu3 Lu11 C51 103.1(10) . .
Lu14 Lu11 C51 128.0(13) . .
Lu13 Lu11 C51 135.4(10) 6 .
Lu8 Lu11 C51 114.1(10) . .
Lu6 Lu11 C71 85.4(10) . .
Lu5 Lu11 C71 98.3(10) . .
Lu4 Lu11 C71 115.1(11) . .
Lu12 Lu11 C71 125.2(13) . .
Lu3 Lu11 C71 138.4(11) . .
Lu14 Lu11 C71 98.9(12) . .
Lu13 Lu11 C71 100.1(9) 6 .
Lu8 Lu11 C71 134.4(10) . .
C51 Lu11 C71 37.8(2) . .
Lu6 Lu11 Lu2 123.6(10) . .
Lu5 Lu11 Lu2 105.6(11) . .
Lu4 Lu11 Lu2 66.8(7) . .
Lu12 Lu11 Lu2 34.2(11) . .
Lu3 Lu11 Lu2 34.8(4) . .
Lu14 Lu11 Lu2 93.0(10) . .
Lu13 Lu11 Lu2 108.1(7) 6 .
Lu8 Lu11 Lu2 57.6(5) . .
C51 Lu11 Lu2 115.9(8) . .
C71 Lu11 Lu2 150.9(8) . .
Lu6 Lu11 Lu9 44.5(9) . .
Lu5 Lu11 Lu9 77.8(10) . .
Lu4 Lu11 Lu9 124.2(9) . .
Lu12 Lu11 Lu9 131.9(13) . .
Lu3 Lu11 Lu9 118.1(8) . .
Lu14 Lu11 Lu9 22.7(9) . .
Lu13 Lu11 Lu9 30.0(6) 6 .
Lu8 Lu11 Lu9 102.6(6) . .
C51 Lu11 Lu9 138.8(10) . .
C71 Lu11 Lu9 102.2(9) . .
Lu2 Lu11 Lu9 98.9(6) . .
Lu3 Lu12 Lu4 49(2) . .
Lu3 Lu12 Lu2 76(2) . .
Lu4 Lu12 Lu2 123.0(17) . .
Lu3 Lu12 Lu11 92(3) . .
Lu4 Lu12 Lu11 66.0(15) . .
Lu2 Lu12 Lu11 109.5(19) . .
Lu3 Lu12 Lu8 14(2) . .
Lu4 Lu12 Lu8 36.0(7) . .
Lu2 Lu12 Lu8 89.2(10) . .
Lu11 Lu12 Lu8 87.0(15) . .
Lu3 Lu12 Lu5 62(2) . .
Lu4 Lu12 Lu5 34.3(8) . .
Lu2 Lu12 Lu5 112.6(14) . .
Lu11 Lu12 Lu5 33.9(10) . .
Lu8 Lu12 Lu5 54.2(8) . .
Lu3 Lu12 C28 118(3) . .
Lu4 Lu12 C28 95.9(17) . .
Lu2 Lu12 C28 125.1(15) . .
Lu11 Lu12 C28 122.0(14) . .
Lu8 Lu12 C28 110.1(15) . .
Lu5 Lu12 C28 120.5(13) . .
Lu3 Lu12 C27 86(3) . .
Lu4 Lu12 C27 85.4(16) . .
Lu2 Lu12 C27 106.5(12) . .
Lu11 Lu12 C27 142.4(19) . .
Lu8 Lu12 C27 82.8(11) . .
Lu5 Lu12 C27 119.3(14) . .
C28 Lu12 C27 34.1(4) . .
Lu3 Lu12 C29 154(3) . .
Lu4 Lu12 C29 127.6(18) . .
Lu2 Lu12 C29 107.9(14) . .
Lu11 Lu12 C29 110.0(12) . .
Lu8 Lu12 C29 149.1(17) . .
Lu5 Lu12 C29 133.2(11) . .
C28 Lu12 C29 39.0(4) . .
C27 Lu12 C29 68.0(7) . .
Lu3 Lu12 C50 110(3) . .
Lu4 Lu12 C50 65.2(12) . .
Lu2 Lu12 C50 167.8(16) . .
Lu11 Lu12 C50 81.7(12) . .
Lu8 Lu12 C50 96.3(13) . .
Lu5 Lu12 C50 79.3(9) . .
C28 Lu12 C50 42.8(5) . .
C27 Lu12 C50 63.7(7) . .
C29 Lu12 C50 62.6(6) . .
Lu3 Lu12 Lu6 73(2) . .
Lu4 Lu12 Lu6 51.5(10) . .
Lu2 Lu12 Lu6 105.9(13) . .
Lu11 Lu12 Lu6 18.7(8) . .
Lu8 Lu12 Lu6 68.3(9) . .
Lu5 Lu12 Lu6 17.3(3) . .
C28 Lu12 Lu6 129.0(12) . .
C27 Lu12 Lu6 135.7(13) . .
C29 Lu12 Lu6 127.3(9) . .
C50 Lu12 Lu6 86.2(8) . .
Lu3 Lu12 C52 166(3) . .
Lu4 Lu12 C52 116.7(14) . .
Lu2 Lu12 C52 117.2(15) . .
Lu11 Lu12 C52 77.9(10) . .
Lu8 Lu12 C52 152.7(15) . .
Lu5 Lu12 C52 105.3(9) . .
C28 Lu12 C52 61.8(5) . .
C27 Lu12 C52 95.4(9) . .
C29 Lu12 C52 32.3(3) . .
C50 Lu12 C52 59.4(5) . .
Lu6 Lu12 C52 95.9(7) . .
Lu6 Lu13 Lu7 134.4(19) 6 .
Lu6 Lu13 Lu10 141(2) 6 .
Lu7 Lu13 Lu10 68(2) . .
Lu6 Lu13 Lu9 101.6(16) 6 6
Lu7 Lu13 Lu9 111.9(19) . 6
Lu10 Lu13 Lu9 44.5(13) . 6
Lu6 Lu13 Lu5 26.4(7) 6 6
Lu7 Lu13 Lu5 108.0(14) . 6
Lu10 Lu13 Lu5 143.6(12) . 6
Lu9 Lu13 Lu5 120.4(13) 6 6
Lu6 Lu13 Lu1 94.0(13) 6 6
Lu7 Lu13 Lu1 115.2(16) . 6
Lu10 Lu13 Lu1 49.9(13) . 6
Lu9 Lu13 Lu1 9.4(5) 6 6
Lu5 Lu13 Lu1 111.3(10) 6 6
Lu6 Lu13 Lu14 64.2(14) 6 6
Lu7 Lu13 Lu14 136.2(16) . 6
Lu10 Lu13 Lu14 78.5(17) . 6
Lu9 Lu13 Lu14 38.0(12) 6 6
Lu5 Lu13 Lu14 82.9(13) 6 6
Lu1 Lu13 Lu14 29.8(10) 6 6
Lu6 Lu13 Lu13 140.1(8) 6 6
Lu7 Lu13 Lu13 33.9(10) . 6
Lu10 Lu13 Lu13 38.0(14) . 6
Lu9 Lu13 Lu13 79.2(11) 6 6
Lu5 Lu13 Lu13 120.5(6) 6 6
Lu1 Lu13 Lu13 81.5(7) 6 6
Lu14 Lu13 Lu13 103.7(12) 6 6
Lu6 Lu13 Lu9 131.0(11) 6 .
Lu7 Lu13 Lu9 69.1(11) . .
Lu10 Lu13 Lu9 12.6(8) . .
Lu9 Lu13 Lu9 43.3(10) 6 .
Lu5 Lu13 Lu9 131.0(7) 6 .
Lu1 Lu13 Lu9 46.2(6) 6 .
Lu14 Lu13 Lu9 72.2(13) 6 .
Lu13 Lu13 Lu9 35.9(6) 6 .
Lu6 Lu13 Lu11 19.8(7) 6 6
Lu7 Lu13 Lu11 131.3(13) . 6
Lu10 Lu13 Lu11 122.2(16) . 6
Lu9 Lu13 Lu11 87.9(12) 6 6
Lu5 Lu13 Lu11 32.9(8) 6 6
Lu1 Lu13 Lu11 79.2(9) 6 6
Lu14 Lu13 Lu11 50.1(12) 6 6
Lu13 Lu13 Lu11 123.7(6) 6 6
Lu9 Lu13 Lu11 111.5(8) . 6
Lu6 Lu13 Lu1 120.1(11) 6 .
Lu7 Lu13 Lu1 79.8(11) . .
Lu10 Lu13 Lu1 21.4(11) . .
Lu9 Lu13 Lu1 34.2(8) 6 .
Lu5 Lu13 Lu1 124.2(7) 6 .
Lu1 Lu13 Lu1 35.5(5) 6 .
Lu14 Lu13 Lu1 60.5(12) 6 .
Lu13 Lu13 Lu1 46.0(5) 6 .
Lu9 Lu13 Lu1 11.8(3) . .
Lu11 Lu13 Lu1 100.9(8) 6 .
Lu6 Lu13 C64 82.7(10) 6 .
Lu7 Lu13 C64 97.7(9) . .
Lu10 Lu13 C64 131.4(14) . .
Lu9 Lu13 C64 129.6(11) 6 .
Lu5 Lu13 C64 84.7(9) 6 .
Lu1 Lu13 C64 134.7(9) 6 .
Lu14 Lu13 C64 125.8(13) 6 .
Lu13 Lu13 C64 127.7(5) 6 .
Lu9 Lu13 C64 143.9(9) . .
Lu11 Lu13 C64 102.5(10) 6 .
Lu1 Lu13 C64 150.5(9) . .
Lu1 Lu14 Lu9 29.7(9) . .
Lu1 Lu14 Lu6 110(2) . .
Lu9 Lu14 Lu6 80.7(16) . .
Lu1 Lu14 Lu15 61(2) . .
Lu9 Lu14 Lu15 85(2) . .
Lu6 Lu14 Lu15 134.9(18) . .
Lu1 Lu14 Lu11 147(2) . .
Lu9 Lu14 Lu11 121(2) . .
Lu6 Lu14 Lu11 41.9(10) . .
Lu15 Lu14 Lu11 121.6(18) . .
Lu1 Lu14 Lu13 72.3(17) . 6
Lu9 Lu14 Lu13 43.4(12) . 6
Lu6 Lu14 Lu13 37.7(9) . 6
Lu15 Lu14 Lu13 112.4(18) . 6
Lu11 Lu14 Lu13 77.4(16) . 6
Lu1 Lu14 Lu10 36.4(13) . .
Lu9 Lu14 Lu10 15.7(8) . .
Lu6 Lu14 Lu10 74.9(12) . .
Lu15 Lu14 Lu10 79.9(17) . .
Lu11 Lu14 Lu10 110.6(17) . .
Lu13 Lu14 Lu10 37.7(10) 6 .
Lu1 Lu14 Lu1 25.4(9) . 6
Lu9 Lu14 Lu1 41.9(11) . 6
Lu6 Lu14 Lu1 108.3(12) . 6
Lu15 Lu14 Lu1 43.4(13) . 6
Lu11 Lu14 Lu1 130.5(13) . 6
Lu13 Lu14 Lu1 73.7(12) 6 6
Lu10 Lu14 Lu1 37.3(8) . 6
Lu1 Lu14 Lu5 116(2) . .
Lu9 Lu14 Lu5 89.1(16) . .
Lu6 Lu14 Lu5 15.5(4) . .
Lu15 Lu14 Lu5 123.9(16) . .
Lu11 Lu14 Lu5 31.5(8) . .
Lu13 Lu14 Lu5 46.0(10) 6 .
Lu10 Lu14 Lu5 80.0(12) . .
Lu1 Lu14 Lu5 107.7(10) 6 .
Lu1 Lu14 Lu9 26.3(10) . 6
Lu9 Lu14 Lu9 30.9(10) . 6
Lu6 Lu14 Lu9 95.1(11) . 6
Lu15 Lu14 Lu9 56.3(13) . 6
Lu11 Lu14 Lu9 122.7(13) . 6
Lu13 Lu14 Lu9 59.9(11) 6 6
Lu10 Lu14 Lu9 23.7(7) . 6
Lu1 Lu14 Lu9 13.9(2) 6 6
Lu5 Lu14 Lu9 96.2(9) . 6
Lu1 Lu14 C84 91.8(13) . .
Lu9 Lu14 C84 82.1(12) . .
Lu6 Lu14 C84 80.5(10) . .
Lu15 Lu14 C84 139(2) . .
Lu11 Lu14 C84 98.1(14) . .
Lu13 Lu14 C84 83.1(10) 6 .
Lu10 Lu14 C84 95.5(9) . .
Lu1 Lu14 C84 116.9(10) 6 .
Lu5 Lu14 C84 94.5(10) . .
Lu9 Lu14 C84 111.3(10) 6 .
Lu1 Lu14 C72 125.4(15) . .
Lu9 Lu14 C72 117.3(14) . .
Lu6 Lu14 C72 81.3(12) . .
Lu15 Lu14 C72 142.1(17) . .
Lu11 Lu14 C72 75.2(12) . .
Lu13 Lu14 C72 104.2(14) 6 .
Lu10 Lu14 C72 129.1(11) . .
Lu1 Lu14 C72 150.7(11) 6 .
Lu5 Lu14 C72 88.8(11) . .
Lu9 Lu14 C72 147.1(10) 6 .
C84 Lu14 C72 35.7(3) . .
Lu1 Lu15 Lu1 55.9(13) 6 .
Lu1 Lu15 Lu14 32.0(9) 6 6
Lu1 Lu15 Lu14 84.8(19) . 6
Lu1 Lu15 Lu14 84.8(19) 6 .
Lu1 Lu15 Lu14 32.0(9) . .
Lu14 Lu15 Lu14 108(3) 6 .
Lu1 Lu15 Lu9 50.5(11) 6 .
Lu1 Lu15 Lu9 10.2(5) . .
Lu14 Lu15 Lu9 77.0(17) 6 .
Lu14 Lu15 Lu9 34.5(11) . .
Lu1 Lu15 Lu9 10.2(5) 6 6
Lu1 Lu15 Lu9 50.5(11) . 6
Lu14 Lu15 Lu9 34.5(11) 6 6
Lu14 Lu15 Lu9 77.0(17) . 6
Lu9 Lu15 Lu9 43.6(10) . 6
Lu1 Lu15 Lu10 31.4(8) 6 .
Lu1 Lu15 Lu10 31.4(8) . .
Lu14 Lu15 Lu10 54.5(13) 6 .
Lu14 Lu15 Lu10 54.5(13) . .
Lu9 Lu15 Lu10 22.6(5) . .
Lu9 Lu15 Lu10 22.6(5) 6 .
Lu1 Lu15 C57 113.7(19) 6 .
Lu1 Lu15 C57 108.1(17) . .
Lu14 Lu15 C57 121.8(16) 6 .
Lu14 Lu15 C57 111.8(15) . .
Lu9 Lu15 C57 117.7(15) . .
Lu9 Lu15 C57 122.5(16) 6 .
Lu10 Lu15 C57 128.6(16) . .
Lu1 Lu15 C76 79.3(15) 6 .
Lu1 Lu15 C76 77.0(14) . .
Lu14 Lu15 C76 99.3(16) 6 .
Lu14 Lu15 C76 95.4(15) . .
Lu9 Lu15 C76 85.0(12) . .
Lu9 Lu15 C76 86.8(12) 6 .
Lu10 Lu15 C76 91.5(12) . .
C57 Lu15 C76 37.3(6) . .
Lu1 Lu15 C56 130.8(19) 6 .
Lu1 Lu15 C56 93.3(10) . .
Lu14 Lu15 C56 154(2) 6 .
Lu14 Lu15 C56 82.6(10) . .
Lu9 Lu15 C56 103.2(8) . .
Lu9 Lu15 C56 134.4(16) 6 .
Lu10 Lu15 C56 123.9(11) . .
C57 Lu15 C56 34.5(5) . .
C76 Lu15 C56 54.9(7) . .
Lu1 Lu15 C58 109.3(13) 6 .
Lu1 Lu15 C58 138(2) . .
Lu14 Lu15 C58 98.3(11) 6 .
Lu14 Lu15 C58 147.6(18) . .
Lu9 Lu15 C58 144.4(17) . .
Lu9 Lu15 C58 119.4(10) 6 .
Lu10 Lu15 C58 139.2(12) . .
C57 Lu15 C58 36.0(5) . .
C76 Lu15 C58 60.6(8) . .
C56 Lu15 C58 65.9(9) . .
Lu1 Lu15 Lu13 55.2(12) 6 6
Lu1 Lu15 Lu13 28.3(10) . 6
Lu14 Lu15 Lu13 73.1(16) 6 6
Lu14 Lu15 Lu13 34.6(12) . 6
Lu9 Lu15 Lu13 19.3(7) . 6
Lu9 Lu15 Lu13 45.7(9) 6 6
Lu10 Lu15 Lu13 24.0(6) . 6
C57 Lu15 Lu13 136.2(12) . 6
C76 Lu15 Lu13 104.3(11) . 6
C56 Lu15 Lu13 115.3(7) . 6
C58 Lu15 Lu13 161.9(14) . 6
C9 C1 C10 134.1 . .
C9 C1 C2 110.4 . .
C10 C1 C2 111.5 . .
C9 C1 Lu2 107.02(6) . .
C10 C1 Lu2 67.87(8) . .
C2 C1 Lu2 74.53(8) . .
C9 C1 Lu3 91.75(8) . .
C10 C1 Lu3 61.86(8) . .
C2 C1 Lu3 102.20(9) . .
Lu2 C1 Lu3 28.36(9) . .
C9 C1 Lu8 69.74(16) . .
C10 C1 Lu8 79.31(16) . .
C2 C1 Lu8 109.59(10) . .
Lu2 C1 Lu8 44.48(13) . .
Lu3 C1 Lu8 22.01(16) . .
C9 C1 Lu12 102.1(5) . .
C10 C1 Lu12 52.0(4) . .
C2 C1 Lu12 101.2(5) . .
Lu2 C1 Lu12 27.1(5) . .
Lu3 C1 Lu12 10.8(4) . .
Lu8 C1 Lu12 32.4(4) . .
C12 C2 C1 103.2 . .
C12 C2 C3 126.8 . .
C1 C2 C3 123.3 . .
C12 C2 Lu2 64.69(6) . .
C1 C2 Lu2 73.31(7) . .
C3 C2 Lu2 103.00(7) . .
C15 C3 C4 135.3 . .
C15 C3 C2 98.4 . .
C4 C3 C2 118.3 . .
C18 C4 C3 131.2 . .
C18 C4 C5 111.4 . .
C3 C4 C5 107.1 . .
C6 C5 C9 98.8 . .
C6 C5 C4 120.0 . .
C9 C5 C4 138.0 . .
C20 C6 C5 118.9 . .
C20 C6 C7 121.7 . .
C5 C6 C7 114.2 . .
C20 C6 C9 155.7 . .
C5 C6 C9 40.7 . .
C7 C6 C9 73.8 . .
C6 C7 C8 108.5 . .
C6 C7 C23 136.3 . .
C8 C7 C23 106.5 . .
C6 C7 Lu8 100.83(14) . .
C8 C7 Lu8 57.50(14) . .
C23 C7 Lu8 77.03(15) . .
C26 C8 C7 133.2 . .
C26 C8 C9 125.8 . .
C7 C8 C9 98.5 . .
C26 C8 Lu8 70.46(19) . .
C7 C8 Lu8 92.1(2) . .
C9 C8 Lu8 96.98(17) . .
C26 C8 Lu3 61.07(9) . .
C7 C8 Lu3 112.71(7) . .
C9 C8 Lu3 87.88(9) . .
Lu8 C8 Lu3 21.46(19) . .
C26 C8 Lu4 52.65(9) . .
C7 C8 Lu4 106.89(12) . .
C9 C8 Lu4 104.44(10) . .
Lu8 C8 Lu4 18.13(18) . .
Lu3 C8 Lu4 16.77(9) . .
C1 C9 C5 122.4 . .
C1 C9 C8 109.9 . .
C5 C9 C8 118.3 . .
C1 C9 C6 155.3 . .
C5 C9 C6 40.5 . .
C8 C9 C6 78.7 . .
C1 C9 Lu8 84.54(17) . .
C5 C9 Lu8 99.67(14) . .
C8 C9 Lu8 53.47(12) . .
C6 C9 Lu8 82.63(17) . .
C1 C10 C27 110.9 . .
C1 C10 C11 104.7 . .
C27 C10 C11 133.9 . .
C1 C10 C28 142.1 . .
C27 C10 C28 34.6 . .
C11 C10 C28 100.9 . .
C1 C10 Lu12 102.5(5) . .
C27 C10 Lu12 59.8(7) . .
C11 C10 Lu12 85.1(7) . .
C28 C10 Lu12 52.5(5) . .
C1 C10 Lu2 81.93(8) . .
C27 C10 Lu2 90.69(8) . .
C11 C10 Lu2 66.10(7) . .
C28 C10 Lu2 83.56(9) . .
Lu12 C10 Lu2 32.6(6) . .
C1 C10 Lu3 90.04(10) . .
C27 C10 Lu3 59.34(10) . .
C11 C10 Lu3 93.18(10) . .
C28 C10 Lu3 60.93(10) . .
Lu12 C10 Lu3 13.4(5) . .
Lu2 C10 Lu3 31.66(10) . .
C1 C10 Lu4 94.50(9) . .
C27 C10 Lu4 45.74(7) . .
C11 C10 Lu4 104.44(8) . .
C28 C10 Lu4 51.87(9) . .
Lu12 C10 Lu4 19.6(6) . .
Lu2 C10 Lu4 45.30(9) . .
Lu3 C10 Lu4 13.66(9) . .
C12 C11 C10 111.8 . .
C12 C11 C30 124.6 . .
C10 C11 C30 115.6 . .
C12 C11 Lu2 78.13(9) . .
C10 C11 Lu2 80.52(8) . .
C30 C11 Lu2 82.88(9) . .
C12 C11 Lu12 108.4(5) . .
C10 C11 Lu12 64.4(6) . .
C30 C11 Lu12 70.2(4) . .
Lu2 C11 Lu12 30.7(5) . .
C12 C11 Lu3 101.02(9) . .
C10 C11 Lu3 58.83(8) . .
C30 C11 Lu3 80.98(8) . .
Lu2 C11 Lu3 26.76(9) . .
Lu12 C11 Lu3 11.0(4) . .
C11 C12 C2 108.8 . .
C11 C12 C13 124.4 . .
C2 C12 C13 119.2 . .
C11 C12 Lu2 68.20(8) . .
C2 C12 Lu2 84.30(8) . .
C13 C12 Lu2 89.61(8) . .
C14 C13 C12 121.7 . .
C14 C13 C32 120.5 . .
C12 C13 C32 112.5 . .
C14 C13 Lu2 103.32(7) . .
C12 C13 Lu2 59.49(6) . .
C32 C13 Lu2 83.42(7) . .
C13 C14 C35 123.8 . .
C13 C14 C15 111.4 . .
C35 C14 C15 112.6 . .
C3 C15 C14 142.4 . .
C3 C15 C16 105.9 . .
C14 C15 C16 107.2 . .
C36 C16 C15 104.6 . .
C36 C16 C17 119.6 . .
C15 C16 C17 125.6 . .
C39 C17 C18 123.8 . .
C39 C17 C16 111.9 . .
C18 C17 C16 110.1 . .
C19 C18 C4 127.7 . .
C19 C18 C17 108.4 . .
C4 C18 C17 111.2 . .
C20 C19 C18 112.8 . .
C20 C19 C41 109.2 . .
C18 C19 C41 132.5 . .
C19 C20 C6 123.9 . .
C19 C20 C21 103.4 . .
C6 C20 C21 112.0 . .
C42 C21 C20 112.6 . .
C42 C21 C22 114.1 . .
C20 C21 C22 123.4 . .
C23 C22 C45 101.7 . .
C23 C22 C21 120.7 . .
C45 C22 C21 128.2 . .
C24 C23 C7 129.2 . .
C24 C23 C22 116.9 . .
C7 C23 C22 105.0 . .
C24 C23 Lu8 70.27(16) . .
C7 C23 Lu8 73.35(16) . .
C22 C23 Lu8 103.49(13) . .
C23 C24 C46 104.5 . .
C23 C24 C25 123.0 . .
C46 C24 C25 122.7 . .
C23 C24 Lu8 85.03(19) . .
C46 C24 Lu8 96.70(14) . .
C25 C24 Lu8 61.15(16) . .
C23 C24 Lu4 104.95(10) . .
C46 C24 Lu4 94.01(11) . .
C25 C24 Lu4 46.98(9) . .
Lu8 C24 Lu4 20.09(17) . .
C26 C25 C49 126.6 . .
C26 C25 C24 111.4 . .
C49 C25 C24 115.7 . .
C26 C25 Lu4 78.77(15) . .
C49 C25 Lu4 68.79(13) . .
C24 C25 Lu4 101.31(15) . .
C26 C25 Lu8 69.77(17) . .
C49 C25 Lu8 93.0(2) . .
C24 C25 Lu8 82.0(2) . .
Lu4 C25 Lu8 26.1(2) . .
C26 C25 Lu3 64.72(8) . .
C49 C25 Lu3 79.84(9) . .
C24 C25 Lu3 104.94(8) . .
Lu4 C25 Lu3 14.09(13) . .
Lu8 C25 Lu3 23.2(2) . .
C26 C25 Lu5 100.93(9) . .
C49 C25 Lu5 59.93(10) . .
C24 C25 Lu5 86.04(10) . .
Lu4 C25 Lu5 23.49(17) . .
Lu8 C25 Lu5 35.69(19) . .
Lu3 C25 Lu5 36.84(10) . .
C26 C25 Lu12 65.9(4) . .
C49 C25 Lu12 72.5(4) . .
C24 C25 Lu12 114.8(4) . .
Lu4 C25 Lu12 16.4(5) . .
Lu8 C25 Lu12 33.6(4) . .
Lu3 C25 Lu12 10.6(4) . .
Lu5 C25 Lu12 39.5(5) . .
C8 C26 C25 116.0 . .
C8 C26 C27 113.8 . .
C25 C26 C27 117.8 . .
C8 C26 Lu8 74.6(2) . .
C25 C26 Lu8 75.25(19) . .
C27 C26 Lu8 84.6(2) . .
C8 C26 Lu4 100.00(12) . .
C25 C26 Lu4 66.42(14) . .
C27 C26 Lu4 70.51(15) . .
Lu8 C26 Lu4 25.6(2) . .
C8 C26 Lu3 90.82(10) . .
C25 C26 Lu3 85.96(10) . .
C27 C26 Lu3 58.50(8) . .
Lu8 C26 Lu3 26.5(2) . .
Lu4 C26 Lu3 19.55(11) . .
C8 C26 Lu12 100.7(4) . .
C25 C26 Lu12 87.2(5) . .
C27 C26 Lu12 48.7(5) . .
Lu8 C26 Lu12 37.6(5) . .
Lu4 C26 Lu12 23.2(5) . .
Lu3 C26 Lu12 11.6(4) . .
C28 C27 C10 105.7 . .
C28 C27 C26 128.2 . .
C10 C27 C26 124.7 . .
C28 C27 Lu12 68.7(5) . .
C10 C27 Lu12 86.3(7) . .
C26 C27 Lu12 101.2(7) . .
C28 C27 Lu3 83.18(11) . .
C10 C27 Lu3 87.63(12) . .
C26 C27 Lu3 87.67(11) . .
Lu12 C27 Lu3 15.6(5) . .
C28 C27 Lu4 79.35(12) . .
C10 C27 Lu4 109.12(12) . .
C26 C27 Lu4 74.31(12) . .
Lu12 C27 Lu4 28.5(7) . .
Lu3 C27 Lu4 21.55(10) . .
C28 C27 Lu8 102.90(19) . .
C10 C27 Lu8 98.74(16) . .
C26 C27 Lu8 61.77(16) . .
Lu12 C27 Lu8 41.3(6) . .
Lu3 C27 Lu8 26.30(18) . .
Lu4 C27 Lu8 23.88(17) . .
C28 C27 Lu2 87.35(7) . .
C10 C27 Lu2 60.47(6) . .
C26 C27 Lu2 106.42(6) . .
Lu12 C27 Lu2 27.8(6) . .
Lu3 C27 Lu2 27.52(11) . .
Lu4 C27 Lu2 49.04(12) . .
Lu8 C27 Lu2 47.13(15) . .
C27 C28 C29 130.8 . .
C27 C28 C50 112.4 . .
C29 C28 C50 101.5 . .
C27 C28 Lu12 77.2(6) . .
C29 C28 Lu12 74.3(7) . .
C50 C28 Lu12 80.7(7) . .
C27 C28 C10 39.7 . .
C29 C28 C10 93.5 . .
C50 C28 C10 145.3 . .
Lu12 C28 C10 73.5(6) . .
C27 C28 Lu3 65.88(10) . .
C29 C28 Lu3 86.60(10) . .
C50 C28 Lu3 80.81(11) . .
Lu12 C28 Lu3 12.7(7) . .
C10 C28 Lu3 68.94(10) . .
C27 C28 Lu4 70.78(12) . .
C29 C28 Lu4 97.55(10) . .
C50 C28 Lu4 61.66(13) . .
Lu12 C28 Lu4 27.2(8) . .
C10 C28 Lu4 85.60(13) . .
Lu3 C28 Lu4 20.52(10) . .
C27 C28 Lu2 69.03(6) . .
C29 C28 Lu2 69.59(6) . .
C50 C28 Lu2 102.5 . .
Lu12 C28 Lu2 21.9(7) . .
C10 C28 Lu2 53.93(6) . .
Lu3 C28 Lu2 25.38(10) . .
Lu4 C28 Lu2 45.66(12) . .
C52 C29 C28 118.7 . .
C52 C29 C30 110.2 . .
C28 C29 C30 124.5 . .
C52 C29 Lu12 87.1(6) . .
C28 C29 Lu12 66.7(8) . .
C30 C29 Lu12 92.4(7) . .
C52 C29 Lu3 92.02(8) . .
C28 C29 Lu3 62.00(9) . .
C30 C29 Lu3 92.95(10) . .
Lu12 C29 Lu3 5.5(7) . .
C52 C29 Lu2 97.62(6) . .
C28 C29 Lu2 83.41(6) . .
C30 C29 Lu2 65.06(6) . .
Lu12 C29 Lu2 27.3(7) . .
Lu3 C29 Lu2 28.17(10) . .
C52 C29 Lu4 84.58(10) . .
C28 C29 Lu4 54.43(7) . .
C30 C29 Lu4 109.41(9) . .
Lu12 C29 Lu4 17.4(8) . .
Lu3 C29 Lu4 16.57(8) . .
Lu2 C29 Lu4 44.40(10) . .
C52 C29 Lu11 59.7(4) . .
C28 C29 Lu11 80.7(4) . .
C30 C29 Lu11 104.1(3) . .
Lu12 C29 Lu11 27.6(7) . .
Lu3 C29 Lu11 32.3(4) . .
Lu2 C29 Lu11 46.9(3) . .
Lu4 C29 Lu11 28.0(4) . .
C31 C30 C29 129.2 . .
C31 C30 C11 111.5 . .
C29 C30 C11 105.4 . .
C31 C30 Lu2 84.59(7) . .
C29 C30 Lu2 84.42(8) . .
C11 C30 Lu2 60.50(7) . .
C31 C30 Lu12 103.4(6) . .
C29 C30 Lu12 53.8(5) . .
C11 C30 Lu12 75.6(4) . .
Lu2 C30 Lu12 30.6(5) . .
C30 C31 C32 126.2 . .
C30 C31 C54 117.4 . .
C32 C31 C54 110.3 . .
C30 C31 Lu2 68.19(7) . .
C32 C31 Lu2 82.35(8) . .
C54 C31 Lu2 98.04(6) . .
C13 C32 C33 122.5 . .
C13 C32 C31 119.9 . .
C33 C32 C31 103.7 . .
C13 C32 Lu2 67.34(7) . .
C33 C32 Lu2 102.5 . .
C31 C32 Lu2 66.93(7) . .
C32 C33 C55 111.9 . .
C32 C33 C34 109.6 . .
C55 C33 C34 125.7 . .
C35 C34 C58 120.7 . .
C35 C34 C33 124.1 . .
C58 C34 C33 102.6 . .
C34 C35 C14 118.4 . .
C34 C35 C36 129.3 . .
C14 C35 C36 101.7 . .
C37 C36 C16 130.9 . .
C37 C36 C35 111.4 . .
C16 C36 C35 113.3 . .
C36 C37 C59 123.2 . .
C36 C37 C38 106.9 . .
C59 C37 C38 117.9 . .
C39 C38 C37 140.6 . .
C39 C38 C61 115.5 . .
C37 C38 C61 98.0 . .
C38 C39 C17 109.3 . .
C38 C39 C40 121.1 . .
C17 C39 C40 121.1 . .
C63 C40 C41 118.0 . .
C63 C40 C39 120.8 . .
C41 C40 C39 115.2 . .
C63 C40 Lu13 54.5(3) . .
C41 C40 Lu13 93.3(4) . .
C39 C40 Lu13 99.4(3) . .
C42 C41 C40 131.1 . .
C42 C41 C19 103.7 . .
C40 C41 C19 118.0 . .
C41 C42 C43 124.6 . .
C41 C42 C21 110.9 . .
C43 C42 C21 116.0 . .
C42 C43 C44 131.6 . .
C42 C43 C64 107.5 . .
C44 C43 C64 104.8 . .
C45 C44 C66 112.9 . .
C45 C44 C43 118.7 . .
C66 C44 C43 121.5 . .
C45 C44 Lu7 99.33(11) . .
C66 C44 Lu7 55.65(11) . .
C43 C44 Lu7 89.81(8) . .
C46 C45 C44 133.1 . .
C46 C45 C22 105.4 . .
C44 C45 C22 109.8 . .
C45 C46 C47 119.5 . .
C45 C46 C24 111.5 . .
C47 C46 C24 119.2 . .
C67 C47 C46 120.1 . .
C67 C47 C48 116.1 . .
C46 C47 C48 119.6 . .
C67 C47 Lu5 87.94(12) . .
C46 C47 Lu5 96.71(13) . .
C48 C47 Lu5 64.41(11) . .
C67 C47 Lu6 73.59(18) . .
C46 C47 Lu6 109.11(13) . .
C48 C47 Lu6 67.32(17) . .
Lu5 C47 Lu6 15.67(11) . .
C49 C48 C70 125.6 . .
C49 C48 C47 118.7 . .
C70 C48 C47 99.2 . .
C49 C48 Lu5 79.25(13) . .
C70 C48 Lu5 72.99(14) . .
C47 C48 Lu5 76.67(12) . .
C49 C48 Lu6 92.77(16) . .
C70 C48 Lu6 56.87(15) . .
C47 C48 Lu6 77.90(17) . .
Lu5 C48 Lu6 16.51(11) . .
C49 C48 Lu4 52.22(10) . .
C70 C48 Lu4 92.65(8) . .
C47 C48 Lu4 91.32(12) . .
Lu5 C48 Lu4 27.05(14) . .
Lu6 C48 Lu4 41.76(17) . .
C49 C48 Lu11 73.1(4) . .
C70 C48 Lu11 64.1(4) . .
C47 C48 Lu11 97.3(3) . .
Lu5 C48 Lu11 21.2(3) . .
Lu6 C48 Lu11 22.7(4) . .
Lu4 C48 Lu11 28.6(4) . .
C50 C49 C48 122.3 . .
C50 C49 C25 104.9 . .
C48 C49 C25 122.2 . .
C50 C49 Lu4 70.62(15) . .
C48 C49 Lu4 95.40(15) . .
C25 C49 Lu4 69.11(12) . .
C50 C49 Lu5 87.04(11) . .
C48 C49 Lu5 65.54(11) . .
C25 C49 Lu5 87.46(13) . .
Lu4 C49 Lu5 29.88(17) . .
C50 C49 Lu8 85.05(16) . .
C48 C49 Lu8 96.62(12) . .
C25 C49 Lu8 53.65(14) . .
Lu4 C49 Lu8 17.81(17) . .
Lu5 C49 Lu8 36.23(15) . .
C50 C49 Lu11 64.4(3) . .
C48 C49 Lu11 77.4(4) . .
C25 C49 Lu11 97.4(4) . .
Lu4 C49 Lu11 28.5(4) . .
Lu5 C49 Lu11 23.1(3) . .
Lu8 C49 Lu11 44.2(4) . .
C50 C49 Lu3 63.44(8) . .
C48 C49 Lu3 103.01(6) . .
C25 C49 Lu3 68.42(8) . .
Lu4 C49 Lu3 8.50(15) . .
Lu5 C49 Lu3 37.56(11) . .
Lu8 C49 Lu3 22.30(16) . .
Lu11 C49 Lu3 31.4(4) . .
C50 C49 Lu12 52.7(4) . .
C48 C49 Lu12 105.3(5) . .
C25 C49 Lu12 76.9(4) . .
Lu4 C49 Lu12 18.0(4) . .
Lu5 C49 Lu12 42.0(5) . .
Lu8 C49 Lu12 33.6(4) . .
Lu11 C49 Lu12 28.7(6) . .
Lu3 C49 Lu12 11.3(4) . .
C49 C50 C51 114.2 . .
C49 C50 C28 128.6 . .
C51 C50 C28 106.3 . .
C49 C50 Lu4 72.50(15) . .
C51 C50 Lu4 91.03(11) . .
C28 C50 Lu4 76.54(16) . .
C49 C50 Lu12 99.9(6) . .
C51 C50 Lu12 80.4(6) . .
C28 C50 Lu12 56.6(6) . .
Lu4 C50 Lu12 27.5(6) . .
C49 C50 Lu11 87.1(4) . .
C51 C50 Lu11 58.1(4) . .
C28 C50 Lu11 88.5(4) . .
Lu4 C50 Lu11 33.0(4) . .
Lu12 C50 Lu11 33.4(7) . .
C49 C50 Lu3 88.68(9) . .
C51 C50 Lu3 88.71(8) . .
C28 C50 Lu3 61.30(8) . .
Lu4 C50 Lu3 16.90(14) . .
Lu12 C50 Lu3 12.0(6) . .
Lu11 C50 Lu3 35.1(4) . .
C49 C50 Lu5 63.71(10) . .
C51 C50 Lu5 75.05(12) . .
C28 C50 Lu5 99.76(10) . .
Lu4 C50 Lu5 25.23(16) . .
Lu12 C50 Lu5 44.4(6) . .
Lu11 C50 Lu5 23.8(4) . .
Lu3 C50 Lu5 38.52(10) . .
C71 C51 C50 126.3 . .
C71 C51 C52 121.4 . .
C50 C51 C52 103.2 . .
C71 C51 Lu11 71.4(5) . .
C50 C51 Lu11 87.2(6) . .
C52 C51 Lu11 83.2(5) . .
C71 C51 Lu12 105.3(5) . .
C50 C51 Lu12 65.2(6) . .
C52 C51 Lu12 66.2(6) . .
Lu11 C51 Lu12 34.0(7) . .
C71 C51 Lu4 94.04(12) . .
C50 C51 Lu4 54.86(8) . .
C52 C51 Lu4 90.35(12) . .
Lu11 C51 Lu4 32.4(6) . .
Lu12 C51 Lu4 24.2(6) . .
C71 C51 Lu5 67.69(11) . .
C50 C51 Lu5 74.41(11) . .
C52 C51 Lu5 103.59(9) . .
Lu11 C51 Lu5 22.1(5) . .
Lu12 C51 Lu5 43.2(5) . .
Lu4 C51 Lu5 26.36(14) . .
C71 C51 Lu6 55.19(12) . .
C50 C51 Lu6 89.65(16) . .
C52 C51 Lu6 101.94(12) . .
Lu11 C51 Lu6 20.0(5) . .
Lu12 C51 Lu6 51.3(5) . .
Lu4 C51 Lu6 40.05(17) . .
Lu5 C51 Lu6 15.32(12) . .
C71 C51 Lu3 100.95(6) . .
C50 C51 Lu3 61.58(7) . .
C52 C51 Lu3 74.69(8) . .
Lu11 C51 Lu3 30.9(6) . .
Lu12 C51 Lu3 8.5(6) . .
Lu4 C51 Lu3 15.71(10) . .
Lu5 C51 Lu3 36.00(10) . .
Lu6 C51 Lu3 45.91(12) . .
C53 C52 C29 132.9 . .
C53 C52 C51 109.4 . .
C29 C52 C51 110.0 . .
C53 C52 Lu12 104.5(7) . .
C29 C52 Lu12 60.6(6) . .
C51 C52 Lu12 78.0(6) . .
C53 C52 Lu11 84.2(5) . .
C29 C52 Lu11 94.2(5) . .
C51 C52 Lu11 59.6(4) . .
Lu12 C52 Lu11 33.8(7) . .
C53 C52 Lu3 105.02(7) . .
C29 C52 Lu3 62.31(6) . .
C51 C52 Lu3 75.25(9) . .
Lu12 C52 Lu3 2.7(6) . .
Lu11 C52 Lu3 31.9(5) . .
C52 C53 C54 120.2 . .
C52 C53 C73 134.2 . .
C54 C53 C73 96.0 . .
C52 C53 Lu11 67.9(5) . .
C54 C53 Lu11 106.5(3) . .
C73 C53 Lu11 75.9(5) . .
C52 C53 Lu12 51.1(5) . .
C54 C53 Lu12 94.7(5) . .
C73 C53 Lu12 103.0(5) . .
Lu11 C53 Lu12 28.7(6) . .
C55 C54 C53 133.0 . .
C55 C54 C31 106.6 . .
C53 C54 C31 109.2 . .
C56 C55 C54 108.0 . .
C56 C55 C33 133.3 . .
C54 C55 C33 107.3 . .
C56 C55 Lu15 62.1(6) . .
C54 C55 Lu15 97.8(6) . .
C33 C55 Lu15 83.7(5) . .
C74 C56 C55 136.0 . .
C74 C56 C57 121.7 . .
C55 C56 C57 97.6 . .
C74 C56 Lu15 88.7(6) . .
C55 C56 Lu15 91.1(7) . .
C57 C56 Lu15 65.3(5) . .
C74 C56 Lu14 57.5(4) . .
C55 C56 Lu14 104.1(4) . .
C57 C56 Lu14 94.8(6) . .
Lu15 C56 Lu14 33.9(7) . .
C74 C56 Lu1 61.20(9) . .
C55 C56 Lu1 113.34(8) . .
C57 C56 Lu1 80.07(10) . .
Lu15 C56 Lu1 27.8(7) . .
Lu14 C56 Lu1 16.5(6) . .
C56 C57 C76 100.2 . .
C56 C57 C58 136.6 . .
C76 C57 C58 111.3 . .
C56 C57 Lu15 80.21(18) . .
C76 C57 Lu15 74.6(8) . .
C58 C57 Lu15 80.4(4) . .
C34 C58 C59 105.4 . .
C34 C58 C57 120.3 . .
C59 C58 C57 124.9 . .
C34 C58 Lu15 93.6(7) . .
C59 C58 Lu15 85.8(4) . .
C57 C58 Lu15 63.6(5) . .
C37 C59 C58 127.6 . .
C37 C59 C60 102.4 . .
C58 C59 C60 117.6 . .
C37 C59 Lu15 99.0(6) . .
C58 C59 Lu15 63.1(6) . .
C60 C59 Lu15 75.8(6) . .
C77 C60 C61 126.1 . .
C77 C60 C59 120.4 . .
C61 C60 C59 107.6 . .
C77 C60 Lu15 70.0(5) . .
C61 C60 Lu15 104.3(6) . .
C59 C60 Lu15 73.7(6) . .
C62 C61 C60 105.9 . .
C62 C61 C38 124.8 . .
C60 C61 C38 112.8 . .
C79 C62 C61 141.1 . .
C79 C62 C63 102.8 . .
C61 C62 C63 111.2 . .
C79 C62 Lu13 68.8(5) . .
C61 C62 Lu13 105.3(4) . .
C63 C62 Lu13 70.1(5) . .
C79 C62 Lu10 55.4(3) . .
C61 C62 Lu10 104.4(4) . .
C63 C62 Lu10 91.3(5) . .
Lu13 C62 Lu10 22.3(6) . .
C64 C63 C40 115.0 . .
C64 C63 C62 112.3 . .
C40 C63 C62 124.4 . .
C64 C63 Lu13 70.2(4) . .
C40 C63 Lu13 98.2(4) . .
C62 C63 Lu13 72.1(5) . .
C63 C64 C65 137.7 . .
C63 C64 C43 123.8 . .
C65 C64 C43 90.5 . .
C63 C64 Lu13 77.1(5) . .
C65 C64 Lu13 74.8(5) . .
C43 C64 Lu13 96.7(5) . .
C63 C64 Lu7 100.23(12) . .
C65 C64 Lu7 56.81(10) . .
C43 C64 Lu7 82.35(15) . .
Lu13 C64 Lu7 23.2(5) . .
C80 C65 C64 113.0 . .
C80 C65 C66 105.4 . .
C64 C65 C66 127.6 . .
C80 C65 Lu7 74.55(17) . .
C64 C65 Lu7 90.00(10) . .
C66 C65 Lu7 67.12(14) . .
C80 C65 Lu13 70.8(5) . .
C64 C65 Lu13 69.0(5) . .
C66 C65 Lu13 92.9(4) . .
Lu7 C65 Lu13 26.3(4) . .
C80 C65 Lu10 51.7(3) . .
C64 C65 Lu10 90.74(15) . .
C66 C65 Lu10 86.2(3) . .
Lu7 C65 Lu10 25.1(4) . .
Lu13 C65 Lu10 23.4(5) . .
C44 C66 C65 92.3 . .
C44 C66 C67 121.0 . .
C65 C66 C67 137.5 . .
C44 C66 Lu7 90.80(15) . .
C65 C66 Lu7 71.52(12) . .
C67 C66 Lu7 81.66(9) . .
C44 C66 Lu13 87.0(4) . .
C65 C66 Lu13 54.9(3) . .
C67 C66 Lu13 98.1(4) . .
Lu7 C66 Lu13 17.3(3) . .
C47 C67 C68 140.7 . .
C47 C67 C66 112.8 . .
C68 C67 C66 92.6 . .
C47 C67 Lu7 96.80(14) . .
C68 C67 Lu7 69.89(15) . .
C66 C67 Lu7 59.76(10) . .
C47 C67 Lu6 76.8(2) . .
C68 C67 Lu6 68.29(18) . .
C66 C67 Lu6 103.08(15) . .
Lu7 C67 Lu6 43.44(16) . .
C47 C67 Lu5 62.27(10) . .
C68 C67 Lu5 83.99(11) . .
C66 C67 Lu5 102.44(10) . .
Lu7 C67 Lu5 46.65(11) . .
Lu6 C67 Lu5 15.72(14) . .
C69 C68 C81 109.8 . .
C69 C68 C67 101.3 . .
C81 C68 C67 141.9 . .
C69 C68 Lu7 102.80(11) . .
C81 C68 Lu7 77.55(14) . .
C67 C68 Lu7 74.46(16) . .
C69 C68 Lu6 57.96(15) . .
C81 C68 Lu6 99.52(18) . .
C67 C68 Lu6 78.53(18) . .
Lu7 C68 Lu6 45.46(16) . .
C69 C68 Lu10 91.7(3) . .
C81 C68 Lu10 56.9(3) . .
C67 C68 Lu10 101.7(5) . .
Lu7 C68 Lu10 28.0(5) . .
Lu6 C68 Lu10 46.4(3) . .
C69 C68 Lu9 73.3(2) . .
C81 C68 Lu9 61.7(2) . .
C67 C68 Lu9 109.2(2) . .
Lu7 C68 Lu9 42.1(2) . .
Lu6 C68 Lu9 37.8(3) . .
Lu10 C68 Lu9 18.9(4) . .
C68 C69 C70 123.0 . .
C68 C69 C84 122.8 . .
C70 C69 C84 109.3 . .
C68 C69 Lu6 89.1(2) . .
C70 C69 Lu6 70.7(2) . .
C84 C69 Lu6 87.5(2) . .
C68 C69 Lu9 75.96(17) . .
C70 C69 Lu9 109.6(2) . .
C84 C69 Lu9 65.64(18) . .
Lu6 C69 Lu9 40.1(3) . .
C68 C69 Lu5 89.09(10) . .
C70 C69 Lu5 60.95(9) . .
C84 C69 Lu5 97.85(10) . .
Lu6 C69 Lu5 12.3(2) . .
Lu9 C69 Lu5 51.7(2) . .
C68 C69 Lu14 96.7(5) . .
C70 C69 Lu14 93.2(6) . .
C84 C69 Lu14 56.6(4) . .
Lu6 C69 Lu14 32.9(5) . .
Lu9 C69 Lu14 21.7(5) . .
Lu5 C69 Lu14 45.0(5) . .
C68 C69 Lu1 83.29(11) . .
C70 C69 Lu1 108.69(8) . .
C84 C69 Lu1 57.97(10) . .
Lu6 C69 Lu1 42.1(2) . .
Lu9 C69 Lu1 8.09(19) . .
Lu5 C69 Lu1 54.24(10) . .
Lu14 C69 Lu1 16.6(5) . .
C68 C69 Lu11 106.9(3) . .
C70 C69 Lu11 62.0(4) . .
C84 C69 Lu11 77.2(4) . .
Lu6 C69 Lu11 17.8(3) . .
Lu9 C69 Lu11 48.1(4) . .
Lu5 C69 Lu11 22.1(4) . .
Lu14 C69 Lu11 32.0(7) . .
Lu1 C69 Lu11 46.7(4) . .
C69 C70 C71 106.0 . .
C69 C70 C48 135.0 . .
C71 C70 C48 105.5 . .
C69 C70 Lu6 70.5(2) . .
C71 C70 Lu6 78.56(19) . .
C48 C70 Lu6 85.3(2) . .
C69 C70 Lu5 87.07(12) . .
C71 C70 Lu5 80.80(12) . .
C48 C70 Lu5 67.22(12) . .
Lu6 C70 Lu5 18.43(19) . .
C69 C70 Lu11 88.8(4) . .
C71 C70 Lu11 56.3(4) . .
C48 C70 Lu11 82.6(5) . .
Lu6 C70 Lu11 24.7(4) . .
Lu5 C70 Lu11 25.2(4) . .
C51 C71 C72 119.3 . .
C51 C71 C70 125.3 . .
C72 C71 C70 107.8 . .
C51 C71 Lu11 70.7(5) . .
C72 C71 Lu11 83.3(6) . .
C70 C71 Lu11 89.8(5) . .
C51 C71 Lu6 95.52(19) . .
C72 C71 Lu6 81.6(2) . .
C70 C71 Lu6 64.23(14) . .
Lu11 C71 Lu6 28.0(5) . .
C51 C71 Lu5 82.03(11) . .
C72 C71 Lu5 97.03(11) . .
C70 C71 Lu5 65.34(10) . .
Lu11 C71 Lu5 25.3(5) . .
Lu6 C71 Lu5 16.85(17) . .
C51 C71 Lu14 98.2(4) . .
C72 C71 Lu14 52.8(4) . .
C70 C71 Lu14 88.5(4) . .
Lu11 C71 Lu14 33.0(7) . .
Lu6 C71 Lu14 31.6(5) . .
Lu5 C71 Lu14 44.8(5) . .
C73 C72 C71 123.5 . .
C73 C72 C84 120.1 . .
C71 C72 C84 110.0 . .
C73 C72 Lu14 75.7(6) . .
C71 C72 Lu14 98.0(7) . .
C84 C72 Lu14 72.0(5) . .
C73 C72 Lu11 86.9(4) . .
C71 C72 Lu11 61.6(4) . .
C84 C72 Lu11 97.3(4) . .
Lu14 C72 Lu11 38.7(8) . .
C73 C72 Lu6 105.33(12) . .
C71 C72 Lu6 65.24(19) . .
C84 C72 Lu6 73.03(19) . .
Lu14 C72 Lu6 35.6(7) . .
Lu11 C72 Lu6 25.4(4) . .
C73 C72 Lu1 79.89(11) . .
C71 C72 Lu1 106.77(8) . .
C84 C72 Lu1 59.54(9) . .
Lu14 C72 Lu1 13.7(6) . .
Lu11 C72 Lu1 51.0(4) . .
Lu6 C72 Lu1 41.68(19) . .
C73 C72 Lu9 89.75(13) . .
C71 C72 Lu9 99.91(18) . .
C84 C72 Lu9 54.34(16) . .
Lu14 C72 Lu9 18.1(5) . .
Lu11 C72 Lu9 49.2(4) . .
Lu6 C72 Lu9 34.9(3) . .
Lu1 C72 Lu9 10.01(13) . .
C72 C73 C74 108.0 . .
C72 C73 C53 110.9 . .
C74 C73 C53 135.5 . .
C72 C73 Lu14 71.1(6) . .
C74 C73 Lu14 73.2(7) . .
C53 C73 Lu14 99.8(5) . .
C72 C73 Lu11 63.8(4) . .
C74 C73 Lu11 108.3(4) . .
C53 C73 Lu11 71.8(4) . .
Lu14 C73 Lu11 35.4(8) . .
C72 C73 Lu1 73.60(10) . .
C74 C73 Lu1 60.87(8) . .
C53 C73 Lu1 111.10(7) . .
Lu14 C73 Lu1 12.9(7) . .
Lu11 C73 Lu1 48.2(4) . .
C56 C74 C73 110.8 . .
C56 C74 C75 100.9 . .
C73 C74 C75 137.4 . .
C56 C74 Lu14 96.1(6) . .
C73 C74 Lu14 73.1(7) . .
C75 C74 Lu14 76.0(6) . .
C56 C74 Lu1 93.74(11) . .
C73 C74 Lu1 91.40(10) . .
C75 C74 Lu1 58.09(9) . .
Lu14 C74 Lu1 18.8(7) . .
C56 C74 Lu15 64.7(7) . .
C73 C74 Lu15 97.4(6) . .
C75 C74 Lu15 70.9(6) . .
Lu14 C74 Lu15 34.3(9) . .
Lu1 C74 Lu15 29.3(7) . .
C56 C74 Lu9 100.94(18) . .
C73 C74 Lu9 88.0(2) . .
C75 C74 Lu9 57.88(19) . .
Lu14 C74 Lu9 18.3(6) . .
Lu1 C74 Lu9 7.3(2) . .
Lu15 C74 Lu9 36.4(7) . .
C74 C75 C83 112.7 . .
C74 C75 C76 116.5 . .
C83 C75 C76 121.4 . .
C74 C75 Lu1 89.22(13) . .
C83 C75 Lu1 66.68(13) . .
C76 C75 Lu1 84.06(13) . .
C74 C75 Lu14 70.3(6) . .
C83 C75 Lu14 70.8(5) . .
C76 C75 Lu14 97.8(6) . .
Lu1 C75 Lu14 19.8(6) . .
C74 C75 Lu9 94.0(2) . .
C83 C75 Lu9 56.92(18) . .
C76 C75 Lu9 89.6(3) . .
Lu1 C75 Lu9 9.8(2) . .
Lu14 C75 Lu9 23.8(6) . .
C74 C75 Lu15 79.6(5) . .
C83 C75 Lu15 97.3(7) . .
C76 C75 Lu15 63.8(5) . .
Lu1 C75 Lu15 30.8(8) . .
Lu14 C75 Lu15 35.4(8) . .
Lu9 C75 Lu15 40.4(7) . .
C77 C76 C75 124.1 . .
C77 C76 C57 126.7 . .
C75 C76 C57 100.4 . .
C77 C76 Lu15 87.5(5) . .
C75 C76 Lu15 83.8(3) . .
C57 C76 Lu15 68.1(8) . .
C77 C76 Lu1 84.01(12) . .
C75 C76 Lu1 60.78(11) . .
C57 C76 Lu1 95.48(11) . .
Lu15 C76 Lu1 32.4(7) . .
C77 C76 Lu9 79.54(19) . .
C75 C76 Lu9 60.3(2) . .
C57 C76 Lu9 102.54(14) . .
Lu15 C76 Lu9 38.4(7) . .
Lu1 C76 Lu9 7.07(19) . .
C78 C77 C76 117.3 . .
C78 C77 C60 111.0 . .
C76 C77 C60 118.6 . .
C78 C77 Lu1 69.75(11) . .
C76 C77 Lu1 64.55(11) . .
C60 C77 Lu1 102.07(9) . .
C78 C77 Lu15 94.8(7) . .
C76 C77 Lu15 61.0(5) . .
C60 C77 Lu15 79.9(3) . .
Lu1 C77 Lu15 28.9(6) . .
C77 C78 C82 112.9 . .
C77 C78 C79 135.3 . .
C82 C78 C79 107.4 . .
C77 C78 Lu10 102.2(6) . .
C82 C78 Lu10 72.49(16) . .
C79 C78 Lu10 71.8(5) . .
C77 C78 Lu9 91.54(14) . .
C82 C78 Lu9 61.9(2) . .
C79 C78 Lu9 90.61(17) . .
Lu10 C78 Lu9 19.1(4) . .
C77 C78 Lu1 80.47(12) . .
C82 C78 Lu1 65.69(10) . .
C79 C78 Lu1 99.56(11) . .
Lu10 C78 Lu1 27.9(5) . .
Lu9 C78 Lu1 11.18(13) . .
C77 C78 Lu13 105.4(3) . .
C82 C78 Lu13 91.9(4) . .
C79 C78 Lu13 53.8(3) . .
Lu10 C78 Lu13 22.4(4) . .
Lu9 C78 Lu13 40.7(4) . .
Lu1 C78 Lu13 47.1(3) . .
C62 C79 C80 140.4 . .
C62 C79 C78 100.5 . .
C80 C79 C78 105.5 . .
C62 C79 Lu13 77.5(5) . .
C80 C79 Lu13 71.2(5) . .
C78 C79 Lu13 94.5(4) . .
C62 C79 Lu10 96.3(3) . .
C80 C79 Lu10 65.4(5) . .
C78 C79 Lu10 71.3(6) . .
Lu13 C79 Lu10 27.5(5) . .
C62 C79 Lu7 97.19(9) . .
C80 C79 Lu7 51.49(10) . .
C78 C79 Lu7 95.47(11) . .
Lu13 C79 Lu7 20.2(5) . .
Lu10 C79 Lu7 24.7(6) . .
C65 C80 C81 135.6 . .
C65 C80 C79 109.2 . .
C81 C80 C79 109.7 . .
C65 C80 Lu10 101.0(6) . .
C81 C80 Lu10 68.2(2) . .
C79 C80 Lu10 77.1(4) . .
C65 C80 Lu7 71.80(15) . .
C81 C80 Lu7 82.67(11) . .
C79 C80 Lu7 97.55(13) . .
Lu10 C80 Lu7 31.5(6) . .
C65 C80 Lu13 77.1(5) . .
C81 C80 Lu13 96.1(5) . .
C79 C80 Lu13 71.2(5) . .
Lu10 C80 Lu13 28.5(5) . .
Lu7 C80 Lu13 26.8(5) . .
C65 C80 Lu9 111.63(19) . .
C81 C80 Lu9 54.7(2) . .
C79 C80 Lu9 82.1(2) . .
Lu10 C80 Lu9 13.6(3) . .
Lu7 C80 Lu9 39.9(2) . .
Lu13 C80 Lu9 42.0(5) . .
C68 C81 C82 141.7 . .
C68 C81 C80 105.5 . .
C82 C81 C80 105.4 . .
C68 C81 Lu10 88.9(5) . .
C82 C81 Lu10 79.3(7) . .
C80 C81 Lu10 72.7(4) . .
C68 C81 Lu9 85.0(3) . .
C82 C81 Lu9 70.8(2) . .
C80 C81 Lu9 94.2(2) . .
Lu10 C81 Lu9 21.6(5) . .
C68 C81 Lu7 68.55(11) . .
C82 C81 Lu7 107.79(13) . .
C80 C81 Lu7 62.20(9) . .
Lu10 C81 Lu7 28.6(7) . .
Lu9 C81 Lu7 43.8(2) . .
C68 C81 Lu1 91.16(9) . .
C82 C81 Lu1 62.91(9) . .
C80 C81 Lu1 97.40(11) . .
Lu10 C81 Lu1 26.4(5) . .
Lu9 C81 Lu1 8.0(2) . .
Lu7 C81 Lu1 51.16(14) . .
C68 C81 Lu13 90.1(4) . .
C82 C81 Lu13 90.7(4) . .
C80 C81 Lu13 53.2(3) . .
Lu10 C81 Lu13 20.1(5) . .
Lu9 C81 Lu13 41.6(4) . .
Lu7 C81 Lu13 21.5(4) . .
Lu1 C81 Lu13 46.4(3) . .
C78 C82 C83 130.8 . .
C78 C82 C81 110.5 . .
C83 C82 C81 95.0 . .
C78 C82 Lu9 84.7(3) . .
C83 C82 Lu9 63.3(2) . .
C81 C82 Lu9 72.24(18) . .
C78 C82 Lu10 72.3(2) . .
C83 C82 Lu10 83.8(3) . .
C81 C82 Lu10 63.3(6) . .
Lu9 C82 Lu10 21.0(4) . .
C78 C82 Lu1 81.41(12) . .
C83 C82 Lu1 59.36(12) . .
C81 C82 Lu1 84.26(12) . .
Lu9 C82 Lu1 12.10(16) . .
Lu10 C82 Lu1 29.6(5) . .
C75 C83 C82 107.4 . .
C75 C83 C84 111.2 . .
C82 C83 C84 136.4 . .
C75 C83 Lu1 74.73(14) . .
C82 C83 Lu1 84.08(14) . .
C84 C83 Lu1 87.30(13) . .
C75 C83 Lu9 88.65(18) . .
C82 C83 Lu9 78.8(3) . .
C84 C83 Lu9 82.7(3) . .
Lu1 C83 Lu9 13.95(17) . .
C75 C83 Lu14 75.1(6) . .
C82 C83 Lu14 103.1(6) . .
C84 C83 Lu14 69.2(7) . .
Lu1 C83 Lu14 20.1(6) . .
Lu9 C83 Lu14 25.3(6) . .
C75 C83 Lu10 97.6(5) . .
C82 C83 Lu10 63.4(2) . .
C84 C83 Lu10 91.9(3) . .
Lu1 C83 Lu10 26.8(4) . .
Lu9 C83 Lu10 16.1(3) . .
Lu14 C83 Lu10 41.3(6) . .
C72 C84 C69 106.1 . .
C72 C84 C83 128.2 . .
C69 C84 C83 114.1 . .
C72 C84 Lu14 72.2(6) . .
C69 C84 Lu14 92.0(6) . .
C83 C84 Lu14 75.0(7) . .
C72 C84 Lu9 96.87(19) . .
C69 C84 Lu9 81.10(18) . .
C83 C84 Lu9 60.4(2) . .
Lu14 C84 Lu9 25.0(6) . .
C72 C84 Lu1 90.94(11) . .
C69 C84 Lu1 92.53(12) . .
C83 C84 Lu1 57.10(9) . .
Lu14 C84 Lu1 19.6(7) . .
Lu9 C84 Lu1 11.79(14) . .
C72 C84 Lu6 74.73(18) . .
C69 C84 Lu6 58.05(14) . .
C83 C84 Lu6 99.91(19) . .
Lu14 C84 Lu6 35.9(7) . .
Lu9 C84 Lu6 39.7(3) . .
Lu1 C84 Lu6 45.87(17) . .
N1A Ni1A N3A 177.76(18) . .
N1A Ni1A N2A 89.97(8) . 6
N3A Ni1A N2A 89.98(8) . 6
N1A Ni1A N2A 89.97(8) . .
N3A Ni1A N2A 89.98(8) . .
N2A Ni1A N2A 177.34(19) 6 .
C13A N2A C6A 104.3(3) . .
C13A N2A Ni1A 127.8(2) . .
C6A N2A Ni1A 127.9(2) . .
C3A C2A C1A 112.7(4) . .
C15A N3A C15A 104.3(4) . 6
C15A N3A Ni1A 127.8(2) . .
C15A N3A Ni1A 127.8(2) 6 .
C5A C4A N1A 125.3(3) . .
C5A C4A C3A 123.7(3) . .
N1A C4A C3A 111.0(3) . .
C4A C5A C6A 124.4(4) . .
C5A C6A N2A 124.6(4) . .
C5A C6A C7A 124.1(4) . .
N2A C6A C7A 111.3(3) . .
C10A C7A C6A 106.4(3) . .
C10A C7A C8A 129.3(4) . .
C6A C7A C8A 124.3(4) . .
C7A C8A C9A 112.6(4) . .
C7A C10A C13A 106.6(3) . .
C7A C10A C11A 129.0(4) . .
C13A C10A C11A 124.4(4) . .
C10A C11A C12A 113.2(4) . .
C14A C13A N2A 124.6(3) . .
C14A C13A C10A 123.9(4) . .
N2A C13A C10A 111.5(3) . .
C15A C14A C13A 124.5(4) . .
C14A C15A N3A 125.3(3) . .
C14A C15A C16A 123.4(3) . .
N3A C15A C16A 111.3(3) . .
C16A C16A C15A 106.5(2) 6 .
C16A C16A C17A 128.8(2) 6 .
C15A C16A C17A 124.5(4) . .
C16A C17A C18A 112.0(3) . .
C3A C3A C4A 106.8(2) 6 .
C3A C3A C2A 128.9(2) 6 .
C4A C3A C2A 124.1(4) . .
C4A N1A C4A 104.3(4) 6 .
C4A N1A Ni1A 127.8(2) 6 .
C4A N1A Ni1A 127.8(2) . .
C2B C1B C6B 121.5(9) . .
C3B C2B C1B 119.6(8) . .
C2B C3B C4B 120.0(7) . .
C5B C4B C3B 121.3(7) . .
C4B C5B C6B 119.1(8) . .
C5B C6B C1B 118.6(8) . .
loop_
_geom_bond_atom_site_label_1
_geom_bond_atom_site_label_2
_geom_bond_distance
_geom_bond_site_symmetry_2
Lu1 Lu9 0.513(6) .
Lu1 Lu14 0.84(3) .
Lu1 Lu10 1.24(2) .
Lu1 Lu1 1.301(7) 6
Lu1 Lu15 1.39(3) .
Lu1 Lu9 1.420(8) 6
Lu1 Lu13 1.614(17) 6
Lu1 Lu6 1.978(9) .
Lu1 Lu14 2.01(3) 6
Lu1 C83 2.106(4) .
Lu1 C75 2.212(4) .
Lu1 Lu13 2.218(18) .
Lu2 Lu2 1.234(4) 6
Lu2 Lu3 1.333(4) .
Lu2 Lu12 1.36(2) .
Lu2 Lu8 2.126(7) .
Lu2 Lu4 2.148(5) .
Lu2 C11 2.246(2) .
Lu2 Lu3 2.253(4) 6
Lu2 Lu11 2.273(17) .
Lu2 C12 2.367(3) .
Lu2 C10 2.423(3) .
Lu2 Lu12 2.48(2) 6
Lu2 C30 2.561(3) .
Lu3 Lu12 0.573(19) .
Lu3 Lu4 0.832(4) .
Lu3 Lu8 1.109(8) .
Lu3 Lu11 1.56(2) .
Lu3 Lu5 1.779(5) .
Lu3 C27 2.120(3) .
Lu3 Lu2 2.253(4) 6
Lu3 Lu6 2.276(7) .
Lu3 C28 2.307(4) .
Lu3 Lu8 2.393(7) 6
Lu3 C10 2.463(3) .
Lu4 Lu8 1.008(8) .
Lu4 Lu12 1.08(3) .
Lu4 Lu5 1.241(6) .
Lu4 Lu11 1.40(2) .
Lu4 Lu6 1.898(9) .
Lu4 C50 2.133(5) .
Lu4 C49 2.157(4) .
Lu4 C25 2.161(4) .
Lu4 C27 2.265(5) .
Lu4 C26 2.313(4) .
Lu5 Lu6 0.761(6) .
Lu5 Lu11 1.121(19) .
Lu5 Lu13 1.53(2) 6
Lu5 Lu8 1.678(8) .
Lu5 Lu12 1.97(2) .
Lu5 Lu14 2.11(3) .
Lu5 Lu7 2.123(5) .
Lu5 C48 2.307(4) .
Lu5 Lu9 2.338(11) .
Lu5 C70 2.393(5) .
Lu6 Lu13 1.035(19) 6
Lu6 Lu11 1.119(18) .
Lu6 Lu14 1.52(3) .
Lu6 Lu9 1.697(13) .
Lu6 Lu7 1.941(8) .
Lu6 Lu10 2.040(12) .
Lu6 C69 2.181(6) .
Lu6 C70 2.184(6) .
Lu7 Lu13 1.071(19) .
Lu7 Lu13 1.071(19) 6
Lu7 Lu10 1.23(3) .
Lu7 Lu9 1.843(9) .
Lu7 Lu9 1.843(9) 6
Lu7 Lu6 1.941(8) 6
Lu7 Lu5 2.123(5) 6
Lu7 C66 2.188(5) .
Lu7 C65 2.252(5) .
Lu7 C80 2.285(5) .
Lu8 Lu12 1.66(2) .
Lu8 Lu8 1.682(14) 6
Lu8 Lu11 2.13(2) .
Lu8 C26 2.203(5) .
Lu8 C8 2.254(6) .
Lu8 C25 2.270(5) .
Lu8 Lu3 2.393(7) 6
Lu9 Lu10 0.864(17) .
Lu9 Lu14 1.03(2) .
Lu9 Lu13 1.15(2) 6
Lu9 Lu9 1.35(2) 6
Lu9 Lu1 1.420(8) 6
Lu9 Lu15 1.82(3) .
Lu9 Lu13 1.93(2) .
Lu9 C83 2.120(10) .
Lu9 Lu14 2.13(3) 6
Lu10 Lu9 0.864(17) 6
Lu10 Lu13 1.13(2) 6
Lu10 Lu13 1.13(2) .
Lu10 Lu1 1.24(2) 6
Lu10 Lu14 1.81(3) 6
Lu10 Lu14 1.81(3) .
Lu10 Lu6 2.040(12) 6
Lu10 C81 2.184(13) .
Lu11 Lu12 1.43(3) .
Lu11 Lu14 1.60(3) .
Lu11 Lu13 2.04(3) 6
Lu11 C51 2.180(14) .
Lu11 C71 2.189(15) .
Lu12 C28 1.99(2) .
Lu12 C27 2.08(3) .
Lu12 C29 2.08(2) .
Lu12 C50 2.35(2) .
Lu12 C52 2.385(19) .
Lu13 Lu6 1.035(19) 6
Lu13 Lu9 1.15(2) 6
Lu13 Lu5 1.53(2) 6
Lu13 Lu1 1.614(17) 6
Lu13 Lu14 1.66(3) 6
Lu13 Lu13 1.78(4) 6
Lu13 Lu11 2.04(3) 6
Lu13 C64 2.329(14) .
Lu14 Lu15 1.59(3) .
Lu14 Lu13 1.66(3) 6
Lu14 Lu1 2.01(3) 6
Lu14 Lu9 2.13(3) 6
Lu14 C84 2.333(19) .
Lu14 C72 2.34(2) .
Lu15 Lu1 1.39(3) 6
Lu15 Lu14 1.59(3) 6
Lu15 Lu9 1.82(3) 6
Lu15 C57 2.35(4) .
Lu15 C76 2.44(4) .
Lu15 C56 2.55(3) .
Lu15 C58 2.58(3) .
Lu15 Lu13 2.70(4) 6
C1 C9 1.2880 .
C1 C10 1.3160 .
C1 C2 1.4391 .
C2 C12 1.3492 .
C2 C3 1.6046 .
C3 C15 1.3199 .
C3 C4 1.3424 .
C4 C18 1.3206 .
C4 C5 1.3752 .
C5 C6 1.3102 .
C5 C9 1.3169 .
C6 C20 1.2618 .
C6 C7 1.3491 .
C6 C9 1.9950 .
C7 C8 1.3535 .
C7 C23 1.3776 .
C8 C26 1.3372 .
C8 C9 1.3834 .
C10 C27 1.3436 .
C10 C11 1.3513 .
C10 C28 2.0257 .
C11 C12 1.3414 .
C11 C30 1.5393 .
C12 C13 1.4111 .
C13 C14 1.3493 .
C13 C32 1.4547 .
C14 C35 1.4171 .
C14 C15 1.4293 .
C15 C16 1.4329 .
C16 C36 1.4263 .
C16 C17 1.7469 .
C17 C39 1.4943 .
C17 C18 1.5958 .
C18 C19 1.2783 .
C19 C20 1.2556 .
C19 C41 1.6152 .
C20 C21 1.4687 .
C21 C42 1.3275 .
C21 C22 1.4868 .
C22 C23 1.4216 .
C22 C45 1.4770 .
C23 C24 1.1395 .
C24 C46 1.5055 .
C24 C25 1.5534 .
C25 C26 1.3460 .
C25 C49 1.5509 .
C26 C27 1.3845 .
C27 C28 1.1946 .
C28 C29 1.3612 .
C28 C50 1.6154 .
C29 C52 1.2761 .
C29 C30 1.4342 .
C30 C31 1.2618 .
C31 C32 1.5248 .
C31 C54 1.5770 .
C32 C33 1.5163 .
C33 C55 1.5377 .
C33 C34 1.5711 .
C34 C35 1.4105 .
C34 C58 1.4680 .
C35 C36 1.4518 .
C36 C37 1.2488 .
C37 C59 1.4814 .
C37 C38 1.5131 .
C38 C39 1.4553 .
C38 C61 1.5325 .
C39 C40 1.5151 .
C40 C63 1.3622 .
C40 C41 1.4305 .
C41 C42 1.2585 .
C42 C43 1.2591 .
C43 C44 1.4667 .
C43 C64 1.7837 .
C44 C45 1.2912 .
C44 C66 1.4644 .
C45 C46 1.2431 .
C46 C47 1.4719 .
C47 C67 1.3971 .
C47 C48 1.6070 .
C48 C49 1.4614 .
C48 C70 1.6014 .
C49 C50 1.3572 .
C50 C51 1.4632 .
C51 C71 1.4167 .
C51 C52 1.5285 .
C52 C53 1.2663 .
C53 C54 1.5061 .
C53 C73 1.5157 .
C54 C55 1.4834 .
C55 C56 1.2993 .
C56 C74 1.2600 .
C56 C57 1.4636 .
C57 C76 1.5346 .
C57 C58 1.5387 .
C58 C59 1.4966 .
C59 C60 1.5266 .
C60 C77 1.4894 .
C60 C61 1.4972 .
C61 C62 1.4866 .
C62 C79 1.3858 .
C62 C63 1.5731 .
C63 C64 1.3365 .
C64 C65 1.4734 .
C65 C80 1.3133 .
C65 C66 1.5690 .
C66 C67 1.5788 .
C67 C68 1.5154 .
C68 C69 1.3974 .
C68 C81 1.4629 .
C69 C70 1.4497 .
C69 C84 1.4553 .
C70 C71 1.4668 .
C71 C72 1.4302 .
C72 C73 1.3522 .
C72 C84 1.4325 .
C73 C74 1.3884 .
C74 C75 1.4078 .
C75 C83 1.4304 .
C75 C76 1.4598 .
C76 C77 1.4564 .
C77 C78 1.3984 .
C78 C82 1.4511 .
C78 C79 1.5192 .
C79 C80 1.5019 .
C80 C81 1.4862 .
C81 C82 1.4828 .
C82 C83 1.4581 .
C83 C84 1.4600 .
Ni1A N1A 1.951(4) .
Ni1A N3A 1.957(4) .
Ni1A N2A 1.963(3) 6
Ni1A N2A 1.963(3) .
C1A C2A 1.531(6) .
N2A C13A 1.381(5) .
N2A C6A 1.384(5) .
C2A C3A 1.502(5) .
N3A C15A 1.375(4) .
N3A C15A 1.375(4) 6
C4A C5A 1.365(6) .
C4A N1A 1.382(5) .
C4A C3A 1.443(5) .
C5A C6A 1.373(5) .
C6A C7A 1.441(6) .
C7A C10A 1.366(6) .
C7A C8A 1.495(6) .
C8A C9A 1.535(8) .
C10A C13A 1.436(5) .
C10A C11A 1.504(6) .
C11A C12A 1.515(7) .
C13A C14A 1.374(5) .
C14A C15A 1.367(6) .
C15A C16A 1.443(5) .
C16A C16A 1.351(8) 6
C16A C17A 1.501(5) .
C17A C18A 1.523(6) .
C3A C3A 1.345(8) 6
N1A C4A 1.381(5) 6
C1B C2B 1.361(13) .
C1B C6B 1.397(16) .
C2B C3B 1.356(11) .
C3B C4B 1.391(10) .
C4B C5B 1.360(10) .
C5B C6B 1.394(13) .
