#------------------------------------------------------------------------------
#$Date: 2018-10-31 01:27:16 +0200 (Wed, 31 Oct 2018) $
#$Revision: 211710 $
#$URL: file:///home/coder/svn-repositories/cod/cif/1/55/01/1550161.cif $
#------------------------------------------------------------------------------
#
# This file is available in the Crystallography Open Database (COD),
# http://www.crystallography.net/
#
# All data on this site have been placed in the public domain by the
# contributors.
#
data_1550161
loop_
_publ_author_name
'Lu, Xing'
'Shen, Wangqiang'
'Bao, Lipiao'
'Hu, Shuaifeng'
'Yang, Le'
'Jin, Peng'
'Xie, Yun-Peng'
'Akasaka, Takeshi'
_publ_section_title
;
 Crystallographic Characterization of Lu2C2n (2n = 76-90): Cluster
 Selection by Cage Size
;
_journal_name_full               'Chemical Science'
_journal_paper_doi               10.1039/C8SC03886D
_journal_year                    2019
_chemical_formula_moiety         '2(Lu3 N C88), 3(C36 H44 N4 Ni), 2(C6 H6)'
_chemical_formula_sum            'C296 H144 Lu6 N14 Ni3'
_chemical_formula_weight         5122.19
_chemical_name_common            'Lu3N@D2-C88 Ni(OEP)'
_chemical_name_systematic        'Lu3N@D2-C88 Ni(OEP)'
_space_group_crystal_system      monoclinic
_space_group_IT_number           12
_space_group_name_Hall           '-C 2y'
_space_group_name_H-M_alt        'C 1 2/m 1'
_symmetry_space_group_name_Hall  '-C 2y'
_symmetry_space_group_name_H-M   'C 1 2/m 1'
_atom_sites_solution_hydrogens   geom
_audit_creation_method           SHELXL-2014/7
_audit_update_record
;
2018-07-19 deposited with the CCDC.
2018-10-29 downloaded from the CCDC.
;
_cell_angle_alpha                90.000(5)
_cell_angle_beta                 103.220(5)
_cell_angle_gamma                90.000(5)
_cell_formula_units_Z            2
_cell_length_a                   24.634(5)
_cell_length_b                   17.744(5)
_cell_length_c                   23.328(5)
_cell_measurement_reflns_used    9767
_cell_measurement_temperature    100(2)
_cell_measurement_theta_max      23.362
_cell_measurement_theta_min      2.265
_cell_volume                     9927(4)
_computing_structure_refinement  'SHELXL-2014/7 (Sheldrick, 2014)'
_diffrn_ambient_temperature      100(2)
_diffrn_measured_fraction_theta_full 0.998
_diffrn_measured_fraction_theta_max 0.995
_diffrn_measurement_device_type  'CCD MX300-HE'
_diffrn_measurement_method       'phi scans'
_diffrn_radiation_type           synchrotron
_diffrn_radiation_wavelength     0.6525
_diffrn_reflns_av_R_equivalents  0.0283
_diffrn_reflns_av_unetI/netI     0.0247
_diffrn_reflns_Laue_measured_fraction_full 0.998
_diffrn_reflns_Laue_measured_fraction_max 0.995
_diffrn_reflns_limit_h_max       29
_diffrn_reflns_limit_h_min       -29
_diffrn_reflns_limit_k_max       21
_diffrn_reflns_limit_k_min       -21
_diffrn_reflns_limit_l_max       28
_diffrn_reflns_limit_l_min       -28
_diffrn_reflns_number            41924
_diffrn_reflns_point_group_measured_fraction_full 0.998
_diffrn_reflns_point_group_measured_fraction_max 0.995
_diffrn_reflns_theta_full        23.048
_diffrn_reflns_theta_max         23.226
_diffrn_reflns_theta_min         2.602
_diffrn_source                   'SSRF, Beamline BL17B'
_exptl_absorpt_coefficient_mu    2.679
_exptl_absorpt_correction_T_max  0.7449
_exptl_absorpt_correction_T_min  0.5094
_exptl_absorpt_correction_type   multi-scan
_exptl_crystal_colour            Black
_exptl_crystal_density_diffrn    1.714
_exptl_crystal_description       Block
_exptl_crystal_F_000             5056
_exptl_crystal_size_max          0.080
_exptl_crystal_size_mid          0.060
_exptl_crystal_size_min          0.040
_refine_diff_density_max         1.879
_refine_diff_density_min         -6.281
_refine_diff_density_rms         0.207
_refine_ls_extinction_method     none
_refine_ls_goodness_of_fit_ref   1.066
_refine_ls_hydrogen_treatment    constr
_refine_ls_matrix_type           full
_refine_ls_number_parameters     908
_refine_ls_number_reflns         9471
_refine_ls_number_restraints     859
_refine_ls_restrained_S_all      1.135
_refine_ls_R_factor_all          0.1766
_refine_ls_R_factor_gt           0.1516
_refine_ls_shift/su_max          0.003
_refine_ls_shift/su_mean         0.000
_refine_ls_structure_factor_coef Fsqd
_refine_ls_weighting_details
'w=1/[\s^2^(Fo^2^)+(0.0455P)^2^+462.2852P] where P=(Fo^2^+2Fc^2^)/3'
_refine_ls_weighting_scheme      calc
_refine_ls_wR_factor_gt          0.3278
_refine_ls_wR_factor_ref         0.3417
_reflns_Friedel_coverage         0.000
_reflns_number_gt                7593
_reflns_number_total             9471
_reflns_threshold_expression     'I > 2\s(I)'
_cod_data_source_file            c8sc03886d2.cif
_cod_data_source_block           Lu3N@D2-C88
_cod_depositor_comments
;
The following automatic conversions were performed:

'_exptl_absorpt_correction_type' value 'Multi-scan' changed to
'multi-scan' according to
/home/data/users/saulius/crontab/automatic-downloads/rss-feeds/RSC/lib/dictionaries/cif_core.dic
dictionary named 'cif_core.dic' version 2.4.2 from 2011-04-26.

Automatic conversion script
Id: cif_fix_values 4973 2017-02-22 13:04:09Z antanas 
;
_cod_database_code               1550161
_shelx_shelxl_version_number     2014/7
_shelx_space_group_comment
;
The symmetry employed for this shelxl refinement is uniquely defined
by the following loop, which should always be used as a source of
symmetry information in preference to the above space-group names.
They are only intended as comments.
;
_shelx_res_file
;

    11_sq.res created by SHELXL-2014/7


TITL                                      11 in C2/m
CELL   0.65250     24.634   17.744   23.328   90.000  103.220   90.000
ZERR         2      0.005    0.005    0.005    0.005    0.005    0.005
LATT  7
SYMM -X,Y,-Z
SFAC    C   H   N   NI  LU
DISP $C  0.00267  0.00139 9.80188!source kissel
DISP $H -0.00002  0.00000 0.620402!source kissel
DISP $N  0.00529  0.00282 16.2901!source kissel
DISP $Ni  0.34362  0.96224 3663.38!source kissel
DISP $Lu -0.29216  5.14255 19794.9!source kissel
UNIT 592 288 28 6 12
LIST 6 ! automatically inserted. Change 6 to 4 for CHECKCIF!!
MERG      2
ACTA
simu 0.020 C1 > C88
SIMU 0.010 C75 > C81
simu 0.010 lu1 > lu10
DFIX 2.45 C78 C88
EADP C37 C38 C39 C40
EADP N1 N1A N2A N3A N4A
L.S.      10
FMAP      2
PLAN     10
ABIN
WGHT    0.045500  462.285217
FVAR       0.03389
PART 1
LU1   5    0.748780    0.547228    0.332903    10.16114    0.11986    0.11727 =
         0.09670   -0.01709    0.06952    0.02899
N1    3    0.787471    0.500000    0.266631    10.50000    0.02763    0.03162 =
         0.03939    0.00000   -0.00170    0.00000
LU2   5    0.749617    0.377680    0.245647    10.23218    0.08180    0.06712 =
         0.12660   -0.01023   -0.00989   -0.03047
LU3   5    0.710957    0.500000    0.292746    10.10622    0.07089    0.17964 =
         0.12281    0.00000    0.03552    0.00000
LU4   5    0.769593    0.500000    0.351833    10.14666    0.14828    0.20492 =
         0.11029    0.00000    0.05708    0.00000
LU5   5    0.777581    0.401325    0.202468    10.26207    0.17568    0.13871 =
         0.19204   -0.09319   -0.04239   -0.00334
LU6   5    0.809295    0.382132    0.306172    10.14210    0.15322    0.08937 =
         0.15597    0.02781   -0.03265    0.00967
LU7   5    0.722478    0.429074    0.283470    10.12181    0.09450    0.15365 =
         0.16153   -0.00887    0.00441   -0.03809
LU8   5    0.789994    0.569524    0.345171    10.10088    0.12206    0.13589 =
         0.11488   -0.01582    0.04746   -0.00920
LU9   5    0.840748    0.396032    0.277653    10.11553    0.15510    0.12734 =
         0.20136    0.00779   -0.01473    0.05180
LU10  5    0.813419    0.455612    0.185587    10.11131    0.22816    0.18285 =
         0.24123   -0.06206    0.00187   -0.02211
PART 0
PART -1 10.5
AFIX   6
C1    1    0.663107    0.362429    0.171359    10.50000    0.09043    0.09177 =
         0.09520   -0.00101   -0.03523   -0.04517
C2    1    0.638331    0.391212    0.219221    10.50000    0.06190    0.09615 =
         0.11425    0.00948   -0.02475   -0.05807
C3    1    0.655924    0.340861    0.269903    10.50000    0.09041    0.09619 =
         0.09859    0.03231   -0.00876   -0.06867
C4    1    0.694808    0.284223    0.254115    10.50000    0.13197    0.08385 =
         0.11573    0.02043   -0.01449   -0.06219
C5    1    0.702841    0.301302    0.194316    10.50000    0.13200    0.07722 =
         0.10976   -0.00974   -0.01895   -0.04895
C6    1    0.754797    0.286915    0.169499    10.50000    0.14685    0.06447 =
         0.11337   -0.04377   -0.01652   -0.01388
C7    1    0.768511    0.334874    0.121359    10.50000    0.14137    0.09153 =
         0.08645   -0.05670    0.00395    0.00416
C8    1    0.720757    0.395130    0.109187    10.50000    0.11638    0.10292 =
         0.05681   -0.03634   -0.01202   -0.01292
C9    1    0.677208    0.422042    0.133244    10.50000    0.08615    0.09605 =
         0.08028   -0.01190   -0.03551   -0.01841
C10   1    0.662219    0.503839    0.139847    10.50000    0.04522    0.08249 =
         0.06568   -0.00176   -0.03241   -0.00760
C11   1    0.639329    0.521331    0.182328    10.50000    0.02760    0.10188 =
         0.09270    0.01099   -0.01708   -0.00531
C12   1    0.625844    0.466039    0.232257    10.50000    0.02137    0.11173 =
         0.11203    0.01000   -0.01074   -0.01989
C13   1    0.623293    0.488498    0.286852    10.50000    0.03090    0.12081 =
         0.11748    0.00081    0.01901   -0.01389
C14   1    0.644258    0.440211    0.335534    10.50000    0.05564    0.14291 =
         0.09766    0.00791    0.02940   -0.02907
C15   1    0.660376    0.375733    0.331793    10.50000    0.07415    0.10207 =
         0.09554    0.02667    0.02974   -0.05309
C16   1    0.709537    0.339392    0.375018    10.50000    0.10571    0.08458 =
         0.07733    0.03765    0.03095   -0.04761
C17   1    0.745804    0.279532    0.358928    10.50000    0.14601    0.07888 =
         0.10497    0.05425   -0.00173   -0.03232
C18   1    0.752498    0.265521    0.296382    10.50000    0.15248    0.05582 =
         0.10824    0.03935   -0.00591   -0.05716
C19   1    0.799868    0.242800    0.269491    10.50000    0.16823    0.03815 =
         0.10095    0.00695   -0.01785    0.00662
C20   1    0.809975    0.264765    0.209307    10.50000    0.16262    0.05363 =
         0.11962   -0.02892    0.00570    0.01318
C21   1    0.856351    0.297915    0.184784    10.50000    0.12910    0.07611 =
         0.10761   -0.03502    0.01776    0.03936
C22   1    0.831222    0.341462    0.131392    10.50000    0.13149    0.09171 =
         0.08190   -0.05116    0.02268    0.03976
C23   1    0.863330    0.403949    0.122081    10.50000    0.12485    0.12102 =
         0.07640   -0.02675    0.04748    0.04667
C24   1    0.822264    0.444754    0.090736    10.50000    0.11881    0.13926 =
         0.04882   -0.01870    0.02940    0.02504
C25   1    0.758005    0.441660    0.083519    10.50000    0.11226    0.12265 =
         0.02932   -0.01717   -0.00159    0.00320
C26   1    0.737068    0.524853    0.082636    10.50000    0.07987    0.10906 =
         0.02269    0.00490   -0.01680    0.00120
C27   1    0.692919    0.541397    0.107643    10.50000    0.05809    0.08722 =
         0.05082   -0.00327   -0.02612    0.00448
C28   1    0.695508    0.625388    0.127893    10.50000    0.05233    0.06704 =
         0.06092    0.02402   -0.01982    0.01366
C29   1    0.670689    0.644115    0.177032    10.50000    0.06233    0.07098 =
         0.09243    0.00892   -0.01870    0.02749
C30   1    0.643413    0.597333    0.208594    10.50000    0.04712    0.10005 =
         0.12236    0.01381   -0.01744    0.01966
C31   1    0.640960    0.615183    0.266973    10.50000    0.04949    0.11671 =
         0.13159   -0.01065    0.02201    0.04052
C32   1    0.632008    0.563391    0.307675    10.50000    0.04396    0.14125 =
         0.12925   -0.01377    0.02972    0.02289
C33   1    0.660550    0.560727    0.366983    10.50000    0.07508    0.15341 =
         0.11073   -0.02542    0.05516    0.01732
C34   1    0.669888    0.484354    0.384819    10.50000    0.08203    0.15254 =
         0.09633   -0.00398    0.05326   -0.00863
C35   1    0.707486    0.461424    0.415797    10.50000    0.11661    0.15313 =
         0.05621    0.01084    0.04799   -0.00849
C36   1    0.745545    0.384176    0.422536    10.50000    0.11607    0.11487 =
         0.06209    0.04887    0.03291   -0.01589
C37   1    0.804613    0.362181    0.426123    10.50000    0.11454    0.08226 =
         0.06978    0.05108   -0.01560    0.02503
C38   1    0.804060    0.303699    0.379281    10.50000    0.11454    0.08226 =
         0.06978    0.05108   -0.01560    0.02503
C39   1    0.857186    0.296150    0.360421    10.50000    0.11454    0.08226 =
         0.06978    0.05108   -0.01560    0.02503
C40   1    0.867198    0.272383    0.302562    10.50000    0.11454    0.08226 =
         0.06978    0.05108   -0.01560    0.02503
C41   1    0.913627    0.317298    0.290093    10.50000    0.08267    0.08771 =
         0.08231    0.02321    0.01237    0.05551
C42   1    0.907144    0.323664    0.220100    10.50000    0.09590    0.08865 =
         0.11891   -0.00192    0.03900    0.05205
C43   1    0.932272    0.393557    0.214793    10.50000    0.07382    0.11786 =
         0.12714    0.00595    0.05428    0.04358
C44   1    0.911483    0.431984    0.159457    10.50000    0.08729    0.11550 =
         0.09976    0.00998    0.06572    0.04233
C45   1    0.922086    0.512014    0.169114    10.50000    0.07885    0.13906 =
         0.11338    0.01595    0.06324    0.00991
C46   1    0.884030    0.551947    0.132143    10.50000    0.07101    0.13994 =
         0.09106    0.02931    0.05733    0.01362
C47   1    0.841655    0.527990    0.095980    10.50000    0.09447    0.12499 =
         0.05032    0.01543    0.03911    0.02389
C48   1    0.787908    0.577911    0.084996    10.50000    0.07533    0.11878 =
         0.03143    0.02921    0.02264    0.01275
C49   1    0.793494    0.650158    0.110823    10.50000    0.07427    0.09508 =
         0.07665    0.05319    0.03127    0.00281
C50   1    0.741842    0.676161    0.128392    10.50000    0.06073    0.05974 =
         0.06980    0.03122    0.01541    0.01665
C51   1    0.742781    0.726399    0.178486    10.50000    0.10094    0.03369 =
         0.12341    0.01703   -0.00011    0.02332
C52   1    0.697118    0.709816    0.205695    10.50000    0.10533    0.05615 =
         0.10819   -0.00809    0.00169    0.05020
C53   1    0.702699    0.718446    0.265600    10.50000    0.14046    0.08226 =
         0.14238   -0.03000    0.00794    0.05849
C54   1    0.671052    0.676713    0.293922    10.50000    0.11110    0.10875 =
         0.13966   -0.02991    0.02555    0.06220
C55   1    0.696717    0.673970    0.351883    10.50000    0.12068    0.11472 =
         0.12864   -0.05823    0.02574    0.05604
C56   1    0.700902    0.613414    0.388020    10.50000    0.11507    0.13585 =
         0.10408   -0.04572    0.04785    0.03273
C57   1    0.742827    0.566461    0.433143    10.50000    0.13647    0.13418 =
         0.05355   -0.03614    0.04022    0.02152
C58   1    0.765258    0.493642    0.448839    10.50000    0.14304    0.16898 =
         0.05500   -0.00432    0.02815    0.01294
C59   1    0.822650    0.495114    0.447757    10.50000    0.15369    0.17005 =
         0.04730   -0.00003   -0.01795    0.01649
C60   1    0.841165    0.417826    0.437628    10.50000    0.12514    0.16408 =
         0.05011    0.04008   -0.03433    0.01584
C61   1    0.883862    0.429366    0.405631    10.50000    0.11787    0.17671 =
         0.08614    0.00873   -0.06126    0.02428
C62   1    0.894814    0.361193    0.379170    10.50000    0.10139    0.11571 =
         0.07931    0.02036   -0.04020    0.04344
C63   1    0.929420    0.374074    0.335997    10.50000    0.05394    0.10307 =
         0.11433    0.03758   -0.02231    0.03050
C64   1    0.951721    0.445780    0.321190    10.50000    0.05607    0.14422 =
         0.13739    0.00172   -0.02457    0.02233
C65   1    0.953381    0.449915    0.259583    10.50000    0.04947    0.13602 =
         0.14483    0.02113    0.03151    0.01974
C66   1    0.951238    0.522523    0.229600    10.50000    0.05573    0.13864 =
         0.14443    0.01301    0.03994   -0.00225
C67   1    0.950979    0.588156    0.268636    10.50000    0.05698    0.13781 =
         0.15086    0.00174    0.01140   -0.04053
C68   1    0.921295    0.641499    0.225585    10.50000    0.07568    0.10741 =
         0.16013    0.02161    0.03929   -0.05189
C69   1    0.893292    0.629002    0.163975    10.50000    0.07367    0.11641 =
         0.11996    0.04337    0.05510   -0.02234
C70   1    0.845606    0.679474    0.149115    10.50000    0.08992    0.09028 =
         0.11750    0.05195    0.03431   -0.02464
C71   1    0.844737    0.725429    0.201096    10.50000    0.10966    0.05539 =
         0.15190    0.03837    0.02062   -0.04328
C72   1    0.793505    0.748771    0.219067    10.50000    0.14644    0.03026 =
         0.15184    0.00908    0.00389   -0.00324
C73   1    0.791209    0.747274    0.281490    10.50000    0.16379    0.03649 =
         0.15646   -0.02923   -0.01172   -0.00406
C74   1    0.744723    0.745979    0.308417    10.50000    0.16795    0.06601 =
         0.13574   -0.05651   -0.00229    0.04855
C75   1    0.748612    0.696699    0.355013    10.50000    0.15432    0.10742 =
         0.12270   -0.08328    0.00534    0.05696
C76   1    0.795263    0.688581    0.402380    10.50000    0.14641    0.12582 =
         0.10656   -0.07966   -0.00183    0.04234
C77   1    0.786348    0.612939    0.422366    10.50000    0.14073    0.14794 =
         0.08911   -0.06397   -0.00664    0.03245
C78   1    0.835687    0.568845    0.431395    10.50000    0.13611    0.17063 =
         0.08683   -0.04483   -0.02934    0.02354
C79   1    0.884483    0.564322    0.418842    10.50000    0.12202    0.16940 =
         0.09774   -0.03545   -0.05376    0.01656
C80   1    0.909999    0.502981    0.398823    10.50000    0.10290    0.15190 =
         0.09953   -0.02226   -0.07526    0.01503
C81   1    0.936131    0.511742    0.352368    10.50000    0.08937    0.14988 =
         0.12363   -0.01394   -0.07211    0.00883
C82   1    0.936745    0.581847    0.325931    10.50000    0.08086    0.14806 =
         0.16079   -0.01331   -0.04751   -0.03011
C83   1    0.911226    0.643187    0.345950    10.50000    0.11920    0.12169 =
         0.16205   -0.03586   -0.05140   -0.03482
C84   1    0.891872    0.706017    0.308845    10.50000    0.13144    0.08826 =
         0.16319   -0.01432   -0.02081   -0.05511
C85   1    0.891653    0.701890    0.247663    10.50000    0.11700    0.08605 =
         0.16827    0.01531    0.01068   -0.07196
C86   1    0.842522    0.729862    0.326242    10.50000    0.14249    0.05939 =
         0.15552   -0.05396   -0.02202   -0.01635
C87   1    0.845528    0.694733    0.381473    10.50000    0.13677    0.10712 =
         0.12197   -0.07243   -0.02357   -0.00009
C88   1    0.885095    0.634423    0.392405    10.50000    0.12299    0.11618 =
         0.11390   -0.05021   -0.05450   -0.00620
AFIX   0
PART 0
PART 2
NI1A  4    0.544144    0.500000    0.070828    10.50000    0.01013    0.01624 =
         0.02773    0.00000    0.00042    0.00000
C1A   1    0.712637    0.379727   -0.068779    11.00000    0.02838    0.04562 =
         0.05331   -0.01280    0.00856    0.01145
AFIX 137
H1AA  2    0.726571    0.344689   -0.093308    11.00000   -1.50000
H1AB  2    0.709104    0.354930   -0.033238    11.00000   -1.50000
H1AC  2    0.738063    0.421266   -0.059168    11.00000   -1.50000
AFIX   0
N2A   3    0.545453    0.389791    0.071827    11.00000    0.02763    0.03162 =
         0.03939    0.00000   -0.00170    0.00000
C2A   1    0.655366    0.408975   -0.101749    11.00000    0.02339    0.03203 =
         0.02997   -0.00610    0.00616    0.00113
AFIX  23
H2AA  2    0.659360    0.434949   -0.137141    11.00000   -1.20000
H2AB  2    0.630579    0.366475   -0.113622    11.00000   -1.20000
AFIX   0
NI2A  4    1.000000    0.500000    0.500000    10.25000    0.03613    0.02431 =
         0.02609    0.00000   -0.00806    0.00000
N3A   3    0.506459    0.500000    0.136723    10.50000    0.02763    0.03162 =
         0.03939    0.00000   -0.00170    0.00000
C3A   1    0.629581    0.461801   -0.065031    11.00000    0.01468    0.02766 =
         0.02373   -0.00270    0.00289    0.00098
C4A   1    0.600705    0.438958   -0.021027    11.00000    0.01130    0.01972 =
         0.02692   -0.00073    0.00093    0.00106
N4A   3    1.035224    0.421714    0.461862    11.00000    0.02763    0.03162 =
         0.03939    0.00000   -0.00170    0.00000
C5A   1    0.592246    0.364887   -0.007404    11.00000    0.01332    0.02419 =
         0.03270   -0.00107    0.00184    0.00117
AFIX  43
H5A   2    0.604417    0.327659   -0.029583    11.00000   -1.20000
AFIX   0
C6A   1    0.567363    0.342316    0.036172    11.00000    0.01143    0.01573 =
         0.03796   -0.00148    0.00287    0.00059
C7A   1    0.560944    0.263786    0.051294    11.00000    0.01772    0.01589 =
         0.04854    0.00457    0.00314    0.00171
C8A   1    0.580737    0.198396    0.020592    11.00000    0.03086    0.01732 =
         0.05955    0.00093    0.01344    0.00251
AFIX  23
H8AA  2    0.573327    0.208594   -0.021332    11.00000   -1.20000
H8AB  2    0.560060    0.153572    0.026309    11.00000   -1.20000
AFIX   0
C9A   1    0.643480    0.183780    0.043893    11.00000    0.04110    0.04425 =
         0.07860    0.00612    0.01796    0.02192
AFIX 137
H9AA  2    0.654865    0.142775    0.022483    11.00000   -1.50000
H9AB  2    0.650684    0.171176    0.084962    11.00000   -1.50000
H9AC  2    0.664039    0.228270    0.038774    11.00000   -1.50000
AFIX   0
C10A  1    0.535272    0.264362    0.096298    11.00000    0.01779    0.02266 =
         0.05132    0.00730    0.00644   -0.00008
C11A  1    0.519069    0.198459    0.129686    11.00000    0.03219    0.02450 =
         0.06355    0.00878    0.01684    0.00113
AFIX  23
H11A  2    0.516385    0.153595    0.105441    11.00000   -1.20000
H11B  2    0.482560    0.207907    0.137262    11.00000   -1.20000
AFIX   0
C12A  1    0.560691    0.184056    0.188261    11.00000    0.05274    0.05234 =
         0.07592    0.03417    0.01000    0.00028
AFIX 137
H12A  2    0.596954    0.174730    0.181095    11.00000   -1.50000
H12B  2    0.548953    0.140993    0.207221    11.00000   -1.50000
H12C  2    0.562272    0.227413    0.213205    11.00000   -1.50000
AFIX   0
C13A  1    0.525305    0.342162    0.108763    11.00000    0.01422    0.01988 =
         0.03087    0.00650    0.00253   -0.00006
C14A  1    0.499030    0.364960    0.151562    11.00000    0.01943    0.02894 =
         0.03293    0.01141    0.00400    0.00081
AFIX  43
H14A  2    0.486446    0.327757    0.173447    11.00000   -1.20000
AFIX   0
C15A  1    0.489901    0.438610    0.164540    11.00000    0.01465    0.02973 =
         0.02575    0.00371    0.00209    0.00104
C16A  1    0.463187    0.462423    0.210582    11.00000    0.02471    0.04104 =
         0.02657    0.00043    0.00797   -0.00408
C17A  1    0.442463    0.408855    0.251068    11.00000    0.03491    0.04530 =
         0.03673    0.00663    0.01707   -0.00413
AFIX  23
H17A  2    0.422480    0.368003    0.227765    11.00000   -1.20000
H17B  2    0.416240    0.435361    0.269143    11.00000   -1.20000
AFIX   0
C18A  1    0.488279    0.375577    0.299417    11.00000    0.05672    0.06991 =
         0.03516    0.01484    0.00723   -0.00480
AFIX 137
H18A  2    0.514796    0.349774    0.282045    11.00000   -1.50000
H18B  2    0.472248    0.340664    0.322317    11.00000   -1.50000
H18C  2    0.506718    0.415285    0.324413    11.00000   -1.50000
AFIX   0
C19A  1    1.000000    0.307953    0.500000    10.50000    0.04618    0.02012 =
         0.04624    0.00000    0.00059    0.00000
AFIX  43
H19A  2    1.000000    0.255541    0.499999    10.50000   -1.20000
AFIX   0
C20A  1    1.031448    0.344218    0.466946    11.00000    0.04778    0.02829 =
         0.02730   -0.00446   -0.00665    0.00087
C21A  1    1.064690    0.305964    0.432698    11.00000    0.05506    0.02882 =
         0.03448   -0.00574   -0.00053    0.00019
C22A  1    1.072790    0.222266    0.430585    11.00000    0.07212    0.03273 =
         0.05666   -0.01055    0.02200   -0.00299
AFIX  23
H22A  2    1.081672    0.209081    0.393423    11.00000   -1.20000
H22B  2    1.038184    0.197246    0.432289    11.00000   -1.20000
AFIX   0
C23A  1    1.118851    0.193989    0.480665    11.00000    0.11502    0.04367 =
         0.06215    0.00239    0.02415    0.02534
AFIX 137
H23A  2    1.124466    0.141077    0.475665    11.00000   -1.50000
H23B  2    1.108529    0.202277    0.517431    11.00000   -1.50000
H23C  2    1.152728    0.220705    0.480617    11.00000   -1.50000
AFIX   0
C24A  1    1.088641    0.359882    0.405752    11.00000    0.06461    0.03290 =
         0.04520   -0.01000    0.00982    0.00259
C25A  1    1.129717    0.351983    0.367248    11.00000    0.10685    0.03470 =
         0.05929   -0.01351    0.03730   -0.00387
AFIX  23
H25A  2    1.127739    0.301016    0.351874    11.00000   -1.20000
H25B  2    1.119131    0.386059    0.334053    11.00000   -1.20000
AFIX   0
C26A  1    1.187872    0.368184    0.398320    11.00000    0.09314    0.05879 =
         0.09285   -0.01978    0.05618   -0.00802
AFIX 137
H26A  2    1.211793    0.363708    0.371275    11.00000   -1.50000
H26B  2    1.199401    0.332905    0.429966    11.00000   -1.50000
H26C  2    1.190189    0.418458    0.413896    11.00000   -1.50000
AFIX   0
C27A  1    1.070119    0.431209    0.423918    11.00000    0.05407    0.03294 =
         0.03483   -0.00245    0.00013    0.00003
C28A  1    1.085965    0.500000    0.405567    10.50000    0.06361    0.03760 =
         0.03355    0.00000    0.01676    0.00000
AFIX  43
H28A  2    1.108922    0.500001    0.378979    10.50000   -1.20000
AFIX   0
N1A   3    0.583309    0.500000    0.005733    10.50000    0.02763    0.03162 =
         0.03939    0.00000   -0.00170    0.00000
PART 0
PART 3
C1D   1    0.731789    0.000000    0.181659    10.50000    0.48022    0.08017 =
         0.53462    0.00000    0.43895    0.00000
AFIX  43
H1D   2    0.740874    0.000000    0.145096    10.50000   -1.20000
AFIX   0
C4D   1    0.674513    0.000000    0.255549    10.50000    0.22248    0.05102 =
         0.26993    0.00000    0.17070    0.00000
AFIX  43
H4D   2    0.649202   -0.000002    0.279640    10.50000   -1.20000
AFIX   0
C2D   1    0.726081    0.060634    0.204624    11.00000    0.31609    0.06615 =
         0.27694   -0.03187    0.23310   -0.02721
AFIX  43
H2D   2    0.745645    0.103143    0.197542    11.00000   -1.20000
AFIX   0
C3D   1    0.692207    0.063298    0.238708    11.00000    0.16337    0.07307 =
         0.10333   -0.00533    0.04875    0.03442
AFIX  43
H3D   2    0.680603    0.109174    0.251052    11.00000   -1.20000
PART 0
AFIX   0
HKLF      4

REM                                       11 in C2/m
REM R1 =  0.1516 for    7593 Fo > 4sig(Fo)  and  0.1766 for all    9471 data
REM    908 parameters refined using    859 restraints

END

WGHT      0.2000      0.0000

REM Highest difference peak  1.879,  deepest hole -6.281,  1-sigma level  0.207
Q1    1   0.9532  0.5000  0.2901  10.50000  0.05    1.64
Q2    1   0.8438  0.3872  0.4305  11.00000  0.05    1.64
Q3    1   0.8015  0.2740  0.3592  11.00000  0.05    1.47
Q4    1   0.8730  0.5000  0.4259  10.50000  0.05    1.40
Q5    1   0.7123  0.5387  0.3025  11.00000  0.05    1.28
Q6    1   0.8337  0.2503  0.2624  11.00000  0.05    1.19
Q7    1   0.8585  0.5253  0.4375  11.00000  0.05    1.12
Q8    1   0.9184  0.4049  0.3721  11.00000  0.05    1.10
Q9    1   0.7586  0.3958  0.3012  11.00000  0.05    1.07
Q10   1   0.8678  0.2769  0.2724  11.00000  0.05    1.06
;
_shelx_res_checksum              62280
_shelx_fab_file
;
    4    0    0    -16.46      0.00
    6    0    0      9.48      0.00
    8    0    0    -10.06      0.00
   10    0    0      4.47      0.00
   12    0    0      8.66      0.00
   14    0    0     -4.64      0.00
   16    0    0     -0.56      0.00
   18    0    0     -0.81      0.00
   20    0    0     -0.42      0.00
   22    0    0      1.92      0.00
   24    0    0      0.18      0.00
   26    0    0     -1.02      0.00
   28    0    0     -0.14      0.00
    5    1    0     -1.33      0.00
    7    1    0     -3.02      0.00
    9    1    0    -15.91      0.00
   11    1    0      4.34      0.00
   13    1    0     -3.68      0.00
   15    1    0     -2.41      0.00
   17    1    0      4.98      0.00
   19    1    0     -0.14      0.00
   21    1    0     -1.32      0.00
   23    1    0      0.62      0.00
   25    1    0      0.86      0.00
   27    1    0     -0.08      0.00
    4    2    0     -9.17      0.00
    6    2    0      9.27      0.00
    8    2    0     -9.73      0.00
   10    2    0      4.41      0.00
   12    2    0      6.86      0.00
   14    2    0     -3.16      0.00
   16    2    0     -1.19      0.00
   18    2    0     -0.17      0.00
   20    2    0     -0.52      0.00
   22    2    0      1.26      0.00
   24    2    0     -0.08      0.00
   26    2    0     -0.82      0.00
   28    2    0     -0.31      0.00
    1    3    0    -15.12      0.00
    3    3    0    -32.18      0.00
    5    3    0      3.11      0.00
    7    3    0     -4.56      0.00
    9    3    0    -12.35      0.00
   11    3    0     -0.81      0.00
   13    3    0     -2.66      0.00
   15    3    0     -0.26      0.00
   17    3    0      3.37      0.00
   19    3    0      1.07      0.00
   21    3    0     -1.41      0.00
   23    3    0      0.01      0.00
   25    3    0      1.34      0.00
   27    3    0     -0.42      0.00
    0    4    0     71.18      0.00
    2    4    0     36.27      0.00
    4    4    0     14.99      0.00
    6    4    0      2.87      0.00
    8    4    0     -6.32      0.00
   10    4    0      3.63      0.00
   12    4    0      3.03      0.00
   14    4    0      0.11      0.00
   16    4    0     -1.80      0.00
   18    4    0      0.61      0.00
   20    4    0      1.14      0.00
   22    4    0     -0.22      0.00
   24    4    0      0.81      0.00
   26    4    0     -0.05      0.00
   28    4    0     -0.79      0.00
    1    5    0    -40.26      0.00
    3    5    0     -9.89      0.00
    5    5    0      7.41      0.00
    7    5    0     -6.07      0.00
    9    5    0     -8.13      0.00
   11    5    0     -5.28      0.00
   13    5    0     -1.78      0.00
   15    5    0      2.10      0.00
   17    5    0      1.65      0.00
   19    5    0      2.45      0.00
   21    5    0     -0.99      0.00
   23    5    0      0.34      0.00
   25    5    0      1.60      0.00
   27    5    0     -0.53      0.00
    0    6    0     30.62      0.00
    2    6    0     35.76      0.00
    4    6    0     26.07      0.00
    6    6    0     -0.12      0.00
    8    6    0     -3.73      0.00
   10    6    0      3.61      0.00
   12    6    0      1.74      0.00
   14    6    0      0.69      0.00
   16    6    0     -2.00      0.00
   18    6    0      0.88      0.00
   20    6    0      1.37      0.00
   22    6    0     -0.23      0.00
   24    6    0      1.00      0.00
   26    6    0     -0.15      0.00
    1    7    0    -47.85      0.00
    3    7    0     -2.15      0.00
    5    7    0      6.65      0.00
    7    7    0     -5.82      0.00
    9    7    0     -5.00      0.00
   11    7    0     -6.17      0.00
   13    7    0     -1.64      0.00
   15    7    0      1.34      0.00
   17    7    0      0.92      0.00
   19    7    0      1.63      0.00
   21    7    0     -0.26      0.00
   23    7    0      0.57      0.00
   25    7    0      0.93      0.00
   27    7    0     -0.73      0.00
    0    8    0     22.33      0.00
    2    8    0     30.26      0.00
    4    8    0     22.94      0.00
    6    8    0     -1.32      0.00
    8    8    0     -1.55      0.00
   10    8    0      4.67      0.00
   12    8    0      1.26      0.00
   14    8    0     -0.27      0.00
   16    8    0     -2.45      0.00
   18    8    0      0.54      0.00
   20    8    0      0.81      0.00
   22    8    0      0.48      0.00
   24    8    0      0.58      0.00
   26    8    0     -0.16      0.00
    1    9    0    -37.80      0.00
    3    9    0     -6.30      0.00
    5    9    0      2.22      0.00
    7    9    0     -3.24      0.00
    9    9    0     -3.38      0.00
   11    9    0     -4.12      0.00
   13    9    0     -2.08      0.00
   15    9    0      0.42      0.00
   17    9    0      0.86      0.00
   19    9    0      0.81      0.00
   21    9    0      0.21      0.00
   23    9    0      0.99      0.00
   25    9    0      0.29      0.00
    0   10    0     29.07      0.00
    2   10    0     24.40      0.00
    4   10    0     12.07      0.00
    6   10    0     -0.57      0.00
    8   10    0      1.64      0.00
   10   10    0      4.51      0.00
   12   10    0      2.77      0.00
   14   10    0     -1.69      0.00
   16   10    0     -1.16      0.00
   18   10    0     -0.17      0.00
   20   10    0      0.59      0.00
   22   10    0      0.30      0.00
   24   10    0      0.37      0.00
    1   11    0    -24.73      0.00
    3   11    0    -13.14      0.00
    5   11    0     -1.62      0.00
    7   11    0     -0.18      0.00
    9   11    0     -2.38      0.00
   11   11    0     -2.36      0.00
   13   11    0     -2.10      0.00
   15   11    0     -0.06      0.00
   17   11    0      1.13      0.00
   19   11    0     -0.04      0.00
   21   11    0      0.22      0.00
   23   11    0      0.45      0.00
    0   12    0     31.95      0.00
    2   12    0     18.48      0.00
    4   12    0      2.41      0.00
    6   12    0      1.98      0.00
    8   12    0      2.18      0.00
   10   12    0      4.58      0.00
   12   12    0      2.02      0.00
   14   12    0     -1.54      0.00
   16   12    0     -1.00      0.00
   18   12    0     -0.13      0.00
   20   12    0     -0.19      0.00
   22   12    0     -0.06      0.00
    1   13    0    -16.32      0.00
    3   13    0    -16.11      0.00
    5   13    0     -2.04      0.00
    7   13    0      1.03      0.00
    9   13    0     -2.36      0.00
   11   13    0     -1.64      0.00
   13   13    0     -1.94      0.00
   15   13    0      0.00      0.00
   17   13    0      1.00      0.00
   19   13    0     -0.12      0.00
   21   13    0      0.12      0.00
   23   13    0     -0.04      0.00
    0   14    0     29.38      0.00
    2   14    0     12.38      0.00
    4   14    0      0.20      0.00
    6   14    0      2.86      0.00
    8   14    0      2.08      0.00
   10   14    0      3.62      0.00
   12   14    0      1.98      0.00
   14   14    0     -1.00      0.00
   16   14    0     -0.38      0.00
   18   14    0     -0.01      0.00
   20   14    0      0.05      0.00
    1   15    0    -12.25      0.00
    3   15    0    -13.55      0.00
    5   15    0     -0.80      0.00
    7   15    0      1.17      0.00
    9   15    0     -2.65      0.00
   11   15    0     -1.12      0.00
   13   15    0     -1.02      0.00
   15   15    0      0.11      0.00
   17   15    0      0.91      0.00
   19   15    0      0.24      0.00
    0   16    0     20.50      0.00
    2   16    0      9.48      0.00
    4   16    0      0.47      0.00
    6   16    0      2.69      0.00
    8   16    0      1.37      0.00
   10   16    0      2.27      0.00
   12   16    0      1.80      0.00
   14   16    0     -0.57      0.00
   16   16    0     -0.60      0.00
   18   16    0      0.32      0.00
    1   17    0    -10.50      0.00
    3   17    0     -8.85      0.00
    5   17    0     -0.13      0.00
    7   17    0      0.16      0.00
    9   17    0     -2.50      0.00
   11   17    0     -1.42      0.00
   13   17    0     -0.44      0.00
   15   17    0      0.08      0.00
   17   17    0      0.26      0.00
    0   18    0     12.41      0.00
    2   18    0      7.17      0.00
    4   18    0      1.98      0.00
    6   18    0      0.85      0.00
    8   18    0      0.59      0.00
   10   18    0      1.41      0.00
   12   18    0      0.98      0.00
   14   18    0      0.23      0.00
    1   19    0     -8.02      0.00
    3   19    0     -3.79      0.00
    5   19    0     -0.22      0.00
    7   19    0     -0.71      0.00
    9   19    0     -1.81      0.00
   11   19    0     -1.63      0.00
   13   19    0      0.26      0.00
    0   20    0      7.02      0.00
    2   20    0      6.08      0.00
    4   20    0      2.61      0.00
    6   20    0     -0.51      0.00
    8   20    0      0.68      0.00
   10   20    0      0.49      0.00
    1   21    0     -5.30      0.00
    3   21    0     -1.50      0.00
    5   21    0     -0.17      0.00
  -28    0    1      0.10      0.00
  -26    0    1     -0.61      0.00
  -24    0    1     -0.98      0.00
  -22    0    1      0.71      0.00
  -20    0    1     -0.13      0.00
  -18    0    1     -3.31      0.00
  -16    0    1      0.67      0.00
  -14    0    1      4.31      0.00
  -12    0    1     -2.85      0.00
  -10    0    1     13.95      0.00
   -8    0    1      8.52      0.00
   -6    0    1     -3.91      0.00
   -4    0    1     41.37      0.00
    4    0    1     12.50      0.00
    6    0    1     -4.28      0.00
    8    0    1     17.64      0.00
   10    0    1     -4.66      0.00
   12    0    1      1.03      0.00
   14    0    1      6.14      0.00
   16    0    1     -6.82      0.00
   18    0    1      0.58      0.00
   20    0    1      2.20      0.00
   22    0    1     -0.67      0.00
   24    0    1     -0.55      0.00
   26    0    1     -0.29      0.00
   28    0    1     -0.22      0.00
  -29    1    1      0.35      0.00
  -27    1    1      1.20      0.00
  -25    1    1      0.18      0.00
  -23    1    1     -1.08      0.00
  -21    1    1      0.21      0.00
  -19    1    1      0.62      0.00
  -17    1    1     -0.01      0.00
  -15    1    1      2.56      0.00
  -13    1    1     -5.36      0.00
  -11    1    1     -7.23      0.00
   -9    1    1      9.72      0.00
   -7    1    1     -4.34      0.00
   -5    1    1      9.21      0.00
    3    1    1     22.95      0.00
    5    1    1    -12.70      0.00
    7    1    1      6.51      0.00
    9    1    1      0.07      0.00
   11    1    1    -12.12      0.00
   13    1    1      4.73      0.00
   15    1    1      2.17      0.00
   17    1    1     -0.22      0.00
   19    1    1      1.33      0.00
   21    1    1     -2.77      0.00
   23    1    1     -0.25      0.00
   25    1    1      1.04      0.00
   27    1    1     -0.30      0.00
  -28    2    1      0.32      0.00
  -26    2    1     -0.80      0.00
  -24    2    1     -0.19      0.00
  -22    2    1      0.75      0.00
  -20    2    1     -0.31      0.00
  -18    2    1     -2.95      0.00
  -16    2    1      0.07      0.00
  -14    2    1      3.47      0.00
  -12    2    1     -0.16      0.00
  -10    2    1     12.46      0.00
   -8    2    1      8.80      0.00
   -6    2    1     -6.75      0.00
   -4    2    1     34.71      0.00
   -2    2    1      3.64      0.00
    2    2    1     46.19      0.00
    4    2    1     10.16      0.00
    6    2    1     -3.51      0.00
    8    2    1     16.11      0.00
   10    2    1     -2.60      0.00
   12    2    1      1.36      0.00
   14    2    1      4.12      0.00
   16    2    1     -5.19      0.00
   18    2    1     -0.28      0.00
   20    2    1      2.74      0.00
   22    2    1     -0.37      0.00
   24    2    1     -0.54      0.00
   26    2    1     -0.04      0.00
   28    2    1     -0.14      0.00
  -27    3    1      0.85      0.00
  -25    3    1     -0.32      0.00
  -23    3    1      0.39      0.00
  -21    3    1     -0.36      0.00
  -19    3    1     -0.66      0.00
  -17    3    1      0.96      0.00
  -15    3    1      0.63      0.00
  -13    3    1     -3.63      0.00
  -11    3    1     -4.84      0.00
   -9    3    1      6.44      0.00
   -7    3    1     -1.85      0.00
   -5    3    1     -3.83      0.00
   -3    3    1    -26.67      0.00
   -1    3    1    -89.55      0.00
    1    3    1    -46.17      0.00
    3    3    1     -0.43      0.00
    5    3    1     -8.56      0.00
    7    3    1      6.77      0.00
    9    3    1     -1.51      0.00
   11    3    1     -7.64      0.00
   13    3    1      1.85      0.00
   15    3    1      2.13      0.00
   17    3    1     -0.18      0.00
   19    3    1      0.13      0.00
   21    3    1     -1.34      0.00
   23    3    1     -0.33      0.00
   25    3    1      0.30      0.00
   27    3    1      0.23      0.00
  -28    4    1      0.70      0.00
  -26    4    1     -1.31      0.00
  -24    4    1     -0.53      0.00
  -22    4    1      1.37      0.00
  -20    4    1     -2.24      0.00
  -18    4    1     -1.81      0.00
  -16    4    1     -1.06      0.00
  -14    4    1      1.11      0.00
  -12    4    1      5.48      0.00
  -10    4    1      9.99      0.00
   -8    4    1      6.50      0.00
   -6    4    1     -6.38      0.00
   -4    4    1     10.88      0.00
   -2    4    1     27.60      0.00
    0    4    1     26.16      0.00
    2    4    1     25.48      0.00
    4    4    1     -3.35      0.00
    6    4    1      3.53      0.00
    8    4    1     10.57      0.00
   10    4    1      2.08      0.00
   12    4    1      2.14      0.00
   14    4    1     -0.14      0.00
   16    4    1     -3.11      0.00
   18    4    1     -1.30      0.00
   20    4    1      1.47      0.00
   22    4    1      0.26      0.00
   24    4    1     -1.38      0.00
   26    4    1     -0.12      0.00
   28    4    1      0.47      0.00
  -27    5    1      0.31      0.00
  -25    5    1     -0.95      0.00
  -23    5    1      0.77      0.00
  -21    5    1     -0.91      0.00
  -19    5    1     -2.21      0.00
  -17    5    1      1.94      0.00
  -15    5    1     -1.30      0.00
  -13    5    1     -1.95      0.00
  -11    5    1     -3.18      0.00
   -9    5    1      2.89      0.00
   -7    5    1      1.03      0.00
   -5    5    1    -17.26      0.00
   -3    5    1    -31.33      0.00
   -1    5    1    -42.92      0.00
    1    5    1    -38.88      0.00
    3    5    1    -24.89      0.00
    5    5    1     -4.03      0.00
    7    5    1      6.66      0.00
    9    5    1     -3.35      0.00
   11    5    1     -3.66      0.00
   13    5    1     -0.40      0.00
   15    5    1      1.37      0.00
   17    5    1     -0.16      0.00
   19    5    1     -1.45      0.00
   21    5    1     -0.50      0.00
   23    5    1     -1.01      0.00
   25    5    1     -0.21      0.00
   27    5    1      0.36      0.00
  -28    6    1      0.66      0.00
  -26    6    1     -0.94      0.00
  -24    6    1     -0.74      0.00
  -22    6    1      0.84      0.00
  -20    6    1     -2.31      0.00
  -18    6    1     -0.93      0.00
  -16    6    1     -1.56      0.00
  -14    6    1      0.56      0.00
  -12    6    1      7.20      0.00
  -10    6    1      7.43      0.00
   -8    6    1      5.51      0.00
   -6    6    1     -6.44      0.00
   -4    6    1     -1.04      0.00
   -2    6    1     38.49      0.00
    0    6    1     49.76      0.00
    2    6    1      7.75      0.00
    4    6    1     -8.36      0.00
    6    6    1      5.74      0.00
    8    6    1      6.28      0.00
   10    6    1      4.65      0.00
   12    6    1      2.09      0.00
   14    6    1     -1.40      0.00
   16    6    1     -1.80      0.00
   18    6    1     -1.49      0.00
   20    6    1      0.77      0.00
   22    6    1     -0.11      0.00
   24    6    1     -1.26      0.00
   26    6    1      0.37      0.00
  -27    7    1      0.37      0.00
  -25    7    1     -0.78      0.00
  -23    7    1      0.45      0.00
  -21    7    1     -0.90      0.00
  -19    7    1     -1.58      0.00
  -17    7    1      2.18      0.00
  -15    7    1     -0.28      0.00
  -13    7    1     -1.77      0.00
  -11    7    1     -3.30      0.00
   -9    7    1      0.31      0.00
   -7    7    1      2.79      0.00
   -5    7    1    -19.61      0.00
   -3    7    1    -29.49      0.00
   -1    7    1    -20.82      0.00
    1    7    1    -31.65      0.00
    3    7    1    -31.15      0.00
    5    7    1     -1.00      0.00
    7    7    1      4.68      0.00
    9    7    1     -4.51      0.00
   11    7    1     -2.06      0.00
   13    7    1     -0.18      0.00
   15    7    1      1.99      0.00
   17    7    1     -0.25      0.00
   19    7    1     -0.94      0.00
   21    7    1     -0.81      0.00
   23    7    1     -0.89      0.00
   25    7    1      0.15      0.00
   27    7    1      0.28      0.00
  -26    8    1     -0.43      0.00
  -24    8    1     -0.80      0.00
  -22    8    1     -0.01      0.00
  -20    8    1     -1.06      0.00
  -18    8    1     -0.61      0.00
  -16    8    1     -0.26      0.00
  -14    8    1      0.84      0.00
  -12    8    1      6.32      0.00
  -10    8    1      4.78      0.00
   -8    8    1      4.63      0.00
   -6    8    1     -3.22      0.00
   -4    8    1     -0.86      0.00
   -2    8    1     36.71      0.00
    0    8    1     46.66      0.00
    2    8    1      7.13      0.00
    4    8    1     -6.40      0.00
    6    8    1      4.32      0.00
    8    8    1      3.88      0.00
   10    8    1      4.05      0.00
   12    8    1      2.98      0.00
   14    8    1     -0.52      0.00
   16    8    1     -0.91      0.00
   18    8    1     -0.99      0.00
   20    8    1      0.38      0.00
   22    8    1     -0.96      0.00
   24    8    1     -0.48      0.00
   26    8    1      0.28      0.00
  -25    9    1     -0.26      0.00
  -23    9    1     -0.23      0.00
  -21    9    1     -0.63      0.00
  -19    9    1     -0.66      0.00
  -17    9    1      1.51      0.00
  -15    9    1      1.03      0.00
  -13    9    1     -2.10      0.00
  -11    9    1     -4.84      0.00
   -9    9    1     -1.06      0.00
   -7    9    1      1.92      0.00
   -5    9    1    -12.30      0.00
   -3    9    1    -24.29      0.00
   -1    9    1    -22.73      0.00
    1    9    1    -27.50      0.00
    3    9    1    -21.27      0.00
    5    9    1     -0.36      0.00
    7    9    1      1.03      0.00
    9    9    1     -4.47      0.00
   11    9    1     -2.56      0.00
   13    9    1      1.08      0.00
   15    9    1      1.71      0.00
   17    9    1     -0.02      0.00
   19    9    1     -0.68      0.00
   21    9    1     -0.99      0.00
   23    9    1     -0.97      0.00
   25    9    1      0.42      0.00
  -24   10    1     -0.64      0.00
  -22   10    1     -0.27      0.00
  -20   10    1     -0.28      0.00
  -18   10    1     -0.53      0.00
  -16   10    1     -0.70      0.00
  -14   10    1      2.15      0.00
  -12   10    1      2.67      0.00
  -10   10    1      3.88      0.00
   -8   10    1      2.13      0.00
   -6   10    1      0.47      0.00
   -4   10    1      6.12      0.00
   -2   10    1     26.21      0.00
    0   10    1     31.50      0.00
    2   10    1     12.73      0.00
    4   10    1     -0.71      0.00
    6   10    1      0.64      0.00
    8   10    1      1.34      0.00
   10   10    1      3.42      0.00
   12   10    1      2.02      0.00
   14   10    1      0.85      0.00
   16   10    1     -1.42      0.00
   18   10    1     -0.14      0.00
   20   10    1     -0.09      0.00
   22   10    1     -0.76      0.00
   24   10    1     -0.57      0.00
  -25   11    1      0.24      0.00
  -23   11    1      0.20      0.00
  -21   11    1     -0.30      0.00
  -19   11    1      0.15      0.00
  -17   11    1      0.46      0.00
  -15   11    1      1.60      0.00
  -13   11    1     -2.11      0.00
  -11   11    1     -5.67      0.00
   -9   11    1     -2.03      0.00
   -7   11    1     -0.15      0.00
   -5   11    1     -3.95      0.00
   -3   11    1    -17.01      0.00
   -1   11    1    -29.55      0.00
    1   11    1    -22.72      0.00
    3   11    1     -8.53      0.00
    5   11    1     -0.94      0.00
    7   11    1     -2.47      0.00
    9   11    1     -3.97      0.00
   11   11    1     -2.59      0.00
   13   11    1      1.22      0.00
   15   11    1      1.44      0.00
   17   11    1      0.02      0.00
   19   11    1     -0.14      0.00
   21   11    1     -0.46      0.00
   23   11    1     -0.32      0.00
  -24   12    1      0.23      0.00
  -22   12    1     -0.32      0.00
  -20   12    1      0.52      0.00
  -18   12    1     -0.79      0.00
  -16   12    1     -0.35      0.00
  -14   12    1      2.17      0.00
  -12   12    1      1.86      0.00
  -10   12    1      2.53      0.00
   -8   12    1      1.58      0.00
   -6   12    1      0.73      0.00
   -4   12    1     12.81      0.00
   -2   12    1     16.99      0.00
    0   12    1     19.77      0.00
    2   12    1     16.55      0.00
    4   12    1      3.65      0.00
    6   12    1     -2.92      0.00
    8   12    1      1.26      0.00
   10   12    1      2.38      0.00
   12   12    1      2.37      0.00
   14   12    1      0.77      0.00
   16   12    1     -0.83      0.00
   18   12    1     -0.14      0.00
   20   12    1      0.37      0.00
   22   12    1     -0.40      0.00
  -23   13    1      0.61      0.00
  -21   13    1      0.01      0.00
  -19   13    1      0.13      0.00
  -17   13    1      0.16      0.00
  -15   13    1      1.31      0.00
  -13   13    1     -1.56      0.00
  -11   13    1     -5.05      0.00
   -9   13    1     -1.94      0.00
   -7   13    1     -1.80      0.00
   -5   13    1      0.03      0.00
   -3   13    1    -10.78      0.00
   -1   13    1    -29.69      0.00
    1   13    1    -17.50      0.00
    3   13    1     -0.95      0.00
    5   13    1     -2.32      0.00
    7   13    1     -3.08      0.00
    9   13    1     -3.04      0.00
   11   13    1     -2.23      0.00
   13   13    1      1.10      0.00
   15   13    1      0.89      0.00
   17   13    1      0.01      0.00
   19   13    1     -0.01      0.00
   21   13    1      0.13      0.00
  -22   14    1     -0.11      0.00
  -20   14    1     -0.04      0.00
  -18   14    1     -0.75      0.00
  -16   14    1     -0.56      0.00
  -14   14    1      1.51      0.00
  -12   14    1      1.15      0.00
  -10   14    1      2.67      0.00
   -8   14    1      0.78      0.00
   -6   14    1      0.39      0.00
   -4   14    1     12.52      0.00
   -2   14    1     13.01      0.00
    0   14    1     12.30      0.00
    2   14    1     16.67      0.00
    4   14    1      2.71      0.00
    6   14    1     -3.37      0.00
    8   14    1      1.55      0.00
   10   14    1      1.71      0.00
   12   14    1      1.55      0.00
   14   14    1      0.56      0.00
   16   14    1     -1.12      0.00
   18   14    1     -0.05      0.00
   20   14    1     -0.14      0.00
  -19   15    1     -0.26      0.00
  -17   15    1      0.14      0.00
  -15   15    1      0.71      0.00
  -13   15    1     -1.55      0.00
  -11   15    1     -3.91      0.00
   -9   15    1     -1.39      0.00
   -7   15    1     -2.63      0.00
   -5   15    1      0.17      0.00
   -3   15    1     -7.59      0.00
   -1   15    1    -23.94      0.00
    1   15    1    -12.74      0.00
    3   15    1      0.02      0.00
    5   15    1     -2.80      0.00
    7   15    1     -2.25      0.00
    9   15    1     -2.19      0.00
   11   15    1     -2.15      0.00
   13   15    1      0.42      0.00
   15   15    1      0.58      0.00
   17   15    1     -0.43      0.00
   19   15    1     -0.13      0.00
  -18   16    1     -0.53      0.00
  -16   16    1     -0.15      0.00
  -14   16    1      0.85      0.00
  -12   16    1      1.00      0.00
  -10   16    1      2.81      0.00
   -8   16    1      0.65      0.00
   -6   16    1     -0.58      0.00
   -4   16    1      9.60      0.00
   -2   16    1      9.92      0.00
    0   16    1     10.71      0.00
    2   16    1     11.98      0.00
    4   16    1      1.31      0.00
    6   16    1     -2.35      0.00
    8   16    1      1.90      0.00
   10   16    1      1.68      0.00
   12   16    1      0.76      0.00
   14   16    1      0.38      0.00
   16   16    1     -0.62      0.00
   18   16    1     -0.47      0.00
  -17   17    1      0.52      0.00
  -15   17    1      0.40      0.00
  -13   17    1     -1.28      0.00
  -11   17    1     -2.19      0.00
   -9   17    1     -1.18      0.00
   -7   17    1     -1.56      0.00
   -5   17    1     -0.86      0.00
   -3   17    1     -6.10      0.00
   -1   17    1    -15.32      0.00
    1   17    1     -8.88      0.00
    3   17    1     -1.32      0.00
    5   17    1     -1.60      0.00
    7   17    1     -0.82      0.00
    9   17    1     -1.28      0.00
   11   17    1     -1.41      0.00
   13   17    1      0.05      0.00
   15   17    1      0.63      0.00
   17   17    1     -0.24      0.00
  -14   18    1     -0.10      0.00
  -12   18    1      1.56      0.00
  -10   18    1      2.20      0.00
   -8   18    1      0.94      0.00
   -6   18    1     -0.02      0.00
   -4   18    1      4.89      0.00
   -2   18    1      8.35      0.00
    0   18    1      9.09      0.00
    2   18    1      6.88      0.00
    4   18    1      0.37      0.00
    6   18    1     -0.60      0.00
    8   18    1      2.04      0.00
   10   18    1      1.51      0.00
   12   18    1      0.52      0.00
   14   18    1     -0.25      0.00
  -13   19    1     -1.04      0.00
  -11   19    1     -0.97      0.00
   -9   19    1     -1.10      0.00
   -7   19    1     -0.17      0.00
   -5   19    1     -1.68      0.00
   -3   19    1     -5.88      0.00
   -1   19    1     -8.71      0.00
    1   19    1     -6.91      0.00
    3   19    1     -2.94      0.00
    5   19    1      0.20      0.00
    7   19    1     -0.01      0.00
    9   19    1     -0.69      0.00
   11   19    1     -0.66      0.00
   13   19    1     -0.62      0.00
  -10   20    1      1.58      0.00
   -8   20    1      0.72      0.00
   -6   20    1      0.24      0.00
   -4   20    1      1.50      0.00
   -2   20    1      5.47      0.00
    0   20    1      6.63      0.00
    2   20    1      2.48      0.00
    4   20    1     -0.05      0.00
    6   20    1      0.62      0.00
    8   20    1      1.12      0.00
   10   20    1      1.70      0.00
   -5   21    1     -1.59      0.00
   -3   21    1     -4.23      0.00
   -1   21    1     -4.82      0.00
    1   21    1     -4.83      0.00
    3   21    1     -2.50      0.00
    5   21    1      0.80      0.00
  -28    0    2     -1.26      0.00
  -26    0    2     -0.62      0.00
  -24    0    2      1.20      0.00
  -22    0    2     -0.40      0.00
  -20    0    2     -0.42      0.00
  -18    0    2      0.60      0.00
  -16    0    2     -1.22      0.00
  -14    0    2      4.40      0.00
  -12    0    2      8.09      0.00
  -10    0    2     -7.50      0.00
   -8    0    2     -0.43      0.00
   -6    0    2     -8.97      0.00
   -4    0    2     11.22      0.00
    4    0    2     11.57      0.00
    6    0    2      1.32      0.00
    8    0    2     -5.18      0.00
   10    0    2     16.15      0.00
   12    0    2     -2.95      0.00
   14    0    2     -4.54      0.00
   16    0    2      2.29      0.00
   18    0    2     -2.55      0.00
   20    0    2      4.17      0.00
   22    0    2      0.82      0.00
   24    0    2     -1.54      0.00
   26    0    2      0.94      0.00
   28    0    2     -0.32      0.00
  -29    1    2      0.06      0.00
  -27    1    2      0.12      0.00
  -25    1    2      0.44      0.00
  -23    1    2     -0.25      0.00
  -21    1    2      0.07      0.00
  -19    1    2      1.79      0.00
  -17    1    2     -0.22      0.00
  -15    1    2     -3.02      0.00
  -13    1    2     -0.19      0.00
  -11    1    2    -11.46      0.00
   -9    1    2    -11.62      0.00
   -7    1    2      7.23      0.00
   -5    1    2    -24.91      0.00
   -3    1    2      0.65      0.00
    3    1    2    -26.77      0.00
    5    1    2     11.08      0.00
    7    1    2    -16.31      0.00
    9    1    2      0.59      0.00
   11    1    2      2.61      0.00
   13    1    2     -8.76      0.00
   15    1    2      6.33      0.00
   17    1    2      0.08      0.00
   19    1    2     -4.39      0.00
   21    1    2      0.88      0.00
   23    1    2     -0.21      0.00
   25    1    2      0.37      0.00
   27    1    2      0.22      0.00
  -28    2    2     -1.20      0.00
  -26    2    2     -0.26      0.00
  -24    2    2     -0.24      0.00
  -22    2    2      0.09      0.00
  -20    2    2      0.09      0.00
  -18    2    2      0.24      0.00
  -16    2    2     -0.48      0.00
  -14    2    2      3.76      0.00
  -12    2    2      6.49      0.00
  -10    2    2     -5.47      0.00
   -8    2    2     -1.80      0.00
   -6    2    2     -2.07      0.00
   -4    2    2     11.47      0.00
   -2    2    2     95.31      0.00
    0    2    2     54.00      0.00
    2    2    2    -16.16      0.00
    4    2    2      7.69      0.00
    6    2    2      0.73      0.00
    8    2    2     -3.85      0.00
   10    2    2     13.70      0.00
   12    2    2     -1.89      0.00
   14    2    2     -3.70      0.00
   16    2    2      1.15      0.00
   18    2    2     -1.35      0.00
   20    2    2      2.58      0.00
   22    2    2      0.85      0.00
   24    2    2     -1.20      0.00
   26    2    2      0.41      0.00
   28    2    2     -0.18      0.00
  -29    3    2     -0.31      0.00
  -27    3    2      0.40      0.00
  -25    3    2      0.33      0.00
  -23    3    2     -1.24      0.00
  -21    3    2      1.19      0.00
  -19    3    2      1.48      0.00
  -17    3    2      0.09      0.00
  -15    3    2     -1.25      0.00
  -13    3    2     -3.99      0.00
  -11    3    2    -11.05      0.00
   -9    3    2     -8.20      0.00
   -7    3    2      7.03      0.00
   -5    3    2    -11.33      0.00
   -3    3    2    -12.15      0.00
   -1    3    2     -4.55      0.00
    1    3    2    -34.21      0.00
    3    3    2    -11.38      0.00
    5    3    2      3.67      0.00
    7    3    2    -13.04      0.00
    9    3    2     -1.33      0.00
   11    3    2      0.17      0.00
   13    3    2     -4.16      0.00
   15    3    2      4.21      0.00
   17    3    2      0.55      0.00
   19    3    2     -3.54      0.00
   21    3    2     -0.07      0.00
   23    3    2      0.19      0.00
   25    3    2      0.53      0.00
   27    3    2     -0.36      0.00
  -28    4    2     -0.80      0.00
  -26    4    2      0.51      0.00
  -24    4    2     -0.82      0.00
  -22    4    2     -0.04      0.00
  -20    4    2      2.54      0.00
  -18    4    2     -0.85      0.00
  -16    4    2      0.55      0.00
  -14    4    2      3.45      0.00
  -12    4    2      2.92      0.00
  -10    4    2     -2.17      0.00
   -8    4    2     -1.46      0.00
   -6    4    2      6.16      0.00
   -4    4    2     22.12      0.00
   -2    4    2     49.38      0.00
    0    4    2     43.24      0.00
    2    4    2     12.00      0.00
    4    4    2      7.64      0.00
    6    4    2     -5.60      0.00
    8    4    2      0.81      0.00
   10    4    2      8.34      0.00
   12    4    2      0.14      0.00
   14    4    2     -1.62      0.00
   16    4    2      0.64      0.00
   18    4    2      0.27      0.00
   20    4    2      1.89      0.00
   22    4    2      0.80      0.00
   24    4    2     -0.08      0.00
   26    4    2      0.17      0.00
  -27    5    2      0.70      0.00
  -25    5    2      0.75      0.00
  -23    5    2     -1.28      0.00
  -21    5    2      1.92      0.00
  -19    5    2      1.46      0.00
  -17    5    2      0.13      0.00
  -15    5    2      0.77      0.00
  -13    5    2     -7.38      0.00
  -11    5    2     -9.49      0.00
   -9    5    2     -5.08      0.00
   -7    5    2      6.31      0.00
   -5    5    2      2.97      0.00
   -3    5    2    -24.08      0.00
   -1    5    2    -37.62      0.00
    1    5    2    -15.12      0.00
    3    5    2      4.91      0.00
    5    5    2     -3.37      0.00
    7    5    2     -9.14      0.00
    9    5    2     -3.11      0.00
   11    5    2     -1.79      0.00
   13    5    2     -0.25      0.00
   15    5    2      3.00      0.00
   17    5    2      0.76      0.00
   19    5    2     -1.71      0.00
   21    5    2     -0.36      0.00
   23    5    2      0.85      0.00
   25    5    2      0.47      0.00
   27    5    2     -0.52      0.00
  -28    6    2     -0.45      0.00
  -26    6    2      0.74      0.00
  -24    6    2     -0.78      0.00
  -22    6    2      0.32      0.00
  -20    6    2      3.01      0.00
  -18    6    2     -1.48      0.00
  -16    6    2      0.92      0.00
  -14    6    2      2.64      0.00
  -12    6    2      2.43      0.00
  -10    6    2      0.22      0.00
   -8    6    2     -2.61      0.00
   -6    6    2     12.30      0.00
   -4    6    2     23.98      0.00
   -2    6    2     20.16      0.00
    0    6    2     29.03      0.00
    2    6    2     32.75      0.00
    4    6    2      4.28      0.00
    6    6    2     -6.94      0.00
    8    6    2      3.86      0.00
   10    6    2      4.82      0.00
   12    6    2      1.01      0.00
   14    6    2     -1.09      0.00
   16    6    2      0.55      0.00
   18    6    2      0.88      0.00
   20    6    2      1.42      0.00
   22    6    2      1.04      0.00
   24    6    2      0.08      0.00
   26    6    2     -0.29      0.00
  -27    7    2      0.17      0.00
  -25    7    2      0.92      0.00
  -23    7    2     -0.77      0.00
  -21    7    2      1.25      0.00
  -19    7    2      0.56      0.00
  -17    7    2     -0.17      0.00
  -15    7    2      0.20      0.00
  -13    7    2     -6.88      0.00
  -11    7    2     -7.48      0.00
   -9    7    2     -3.46      0.00
   -7    7    2      3.46      0.00
   -5    7    2      6.81      0.00
   -3    7    2    -28.15      0.00
   -1    7    2    -47.72      0.00
    1    7    2     -8.83      0.00
    3    7    2     10.12      0.00
    5    7    2     -5.07      0.00
    7    7    2     -5.43      0.00
    9    7    2     -3.57      0.00
   11    7    2     -3.05      0.00
   13    7    2     -0.07      0.00
   15    7    2      1.52      0.00
   17    7    2      0.71      0.00
   19    7    2     -1.36      0.00
   21    7    2      0.43      0.00
   23    7    2      0.40      0.00
   25    7    2      0.06      0.00
  -26    8    2      0.48      0.00
  -24    8    2     -0.12      0.00
  -22    8    2      0.50      0.00
  -20    8    2      1.60      0.00
  -18    8    2     -1.13      0.00
  -16    8    2     -0.88      0.00
  -14    8    2      2.83      0.00
  -12    8    2      3.16      0.00
  -10    8    2      1.97      0.00
   -8    8    2     -3.07      0.00
   -6    8    2      9.77      0.00
   -4    8    2     21.04      0.00
   -2    8    2     13.44      0.00
    0    8    2     24.09      0.00
    2    8    2     29.10      0.00
    4    8    2      2.70      0.00
    6    8    2     -4.35      0.00
    8    8    2      4.30      0.00
   10    8    2      4.00      0.00
   12    8    2     -0.53      0.00
   14    8    2     -1.27      0.00
   16    8    2      0.32      0.00
   18    8    2      0.71      0.00
   20    8    2      1.38      0.00
   22    8    2      1.51      0.00
   24    8    2     -0.62      0.00
   26    8    2      0.17      0.00
  -25    9    2      0.61      0.00
  -23    9    2      0.20      0.00
  -21    9    2      0.15      0.00
  -19    9    2      0.16      0.00
  -17    9    2      0.03      0.00
  -15    9    2     -1.22      0.00
  -13    9    2     -4.22      0.00
  -11    9    2     -4.93      0.00
   -9    9    2     -3.20      0.00
   -7    9    2      1.17      0.00
   -5    9    2      1.05      0.00
   -3    9    2    -22.01      0.00
   -1    9    2    -36.81      0.00
    1    9    2    -10.89      0.00
    3    9    2      4.44      0.00
    5    9    2     -1.35      0.00
    7    9    2     -2.23      0.00
    9    9    2     -3.49      0.00
   11    9    2     -2.85      0.00
   13    9    2     -1.58      0.00
   15    9    2      1.36      0.00
   17    9    2      0.25      0.00
   19    9    2     -0.68      0.00
   21    9    2      0.87      0.00
   23    9    2      0.65      0.00
   25    9    2     -0.15      0.00
  -26   10    2     -0.07      0.00
  -24   10    2      0.06      0.00
  -22   10    2      0.53      0.00
  -20   10    2      0.54      0.00
  -18   10    2     -0.31      0.00
  -16   10    2     -0.87      0.00
  -14   10    2      1.77      0.00
  -12   10    2      6.05      0.00
  -10   10    2      1.69      0.00
   -8   10    2     -1.08      0.00
   -6   10    2      3.34      0.00
   -4   10    2     14.80      0.00
   -2   10    2     20.58      0.00
    0   10    2     22.60      0.00
    2   10    2     15.41      0.00
    4   10    2      1.75      0.00
    6   10    2      0.45      0.00
    8   10    2      4.49      0.00
   10   10    2      3.06      0.00
   12   10    2     -0.22      0.00
   14   10    2     -1.73      0.00
   16   10    2      0.65      0.00
   18   10    2      0.21      0.00
   20   10    2      1.37      0.00
   22   10    2      0.99      0.00
   24   10    2     -0.07      0.00
  -25   11    2     -0.07      0.00
  -23   11    2      0.19      0.00
  -21   11    2     -0.46      0.00
  -19   11    2      0.00      0.00
  -17   11    2      0.76      0.00
  -15   11    2     -2.20      0.00
  -13   11    2     -2.10      0.00
  -11   11    2     -2.92      0.00
   -9   11    2     -2.74      0.00
   -7   11    2      0.00      0.00
   -5   11    2     -6.07      0.00
   -3   11    2    -15.45      0.00
   -1   11    2    -21.09      0.00
    1   11    2    -15.58      0.00
    3   11    2     -2.19      0.00
    5   11    2      2.80      0.00
    7   11    2      0.33      0.00
    9   11    2     -3.23      0.00
   11   11    2     -2.73      0.00
   13   11    2     -1.78      0.00
   15   11    2      0.71      0.00
   17   11    2      0.15      0.00
   19   11    2     -0.67      0.00
   21   11    2      0.47      0.00
   23   11    2      0.63      0.00
  -24   12    2     -0.74      0.00
  -22   12    2      0.39      0.00
  -20   12    2     -0.24      0.00
  -18   12    2      0.38      0.00
  -16   12    2     -1.21      0.00
  -14   12    2      1.23      0.00
  -12   12    2      5.80      0.00
  -10   12    2      2.41      0.00
   -8   12    2     -0.25      0.00
   -6   12    2      0.16      0.00
   -4   12    2      7.19      0.00
   -2   12    2     25.57      0.00
    0   12    2     19.00      0.00
    2   12    2      4.34      0.00
    4   12    2      0.94      0.00
    6   12    2      3.93      0.00
    8   12    2      2.98      0.00
   10   12    2      2.59      0.00
   12   12    2     -0.63      0.00
   14   12    2     -1.13      0.00
   16   12    2     -0.04      0.00
   18   12    2      0.49      0.00
   20   12    2      0.18      0.00
   22   12    2      0.35      0.00
  -23   13    2      0.01      0.00
  -21   13    2     -0.49      0.00
  -19   13    2      0.24      0.00
  -17   13    2      0.79      0.00
  -15   13    2     -2.07      0.00
  -13   13    2     -1.51      0.00
  -11   13    2     -2.25      0.00
   -9   13    2     -2.42      0.00
   -7   13    2      0.35      0.00
   -5   13    2     -9.47      0.00
   -3   13    2    -11.32      0.00
   -1   13    2    -11.71      0.00
    1   13    2    -16.49      0.00
    3   13    2     -5.01      0.00
    5   13    2      5.08      0.00
    7   13    2      0.33      0.00
    9   13    2     -2.86      0.00
   11   13    2     -2.28      0.00
   13   13    2     -1.75      0.00
   15   13    2      0.69      0.00
   17   13    2      0.06      0.00
   19   13    2     -0.40      0.00
   21   13    2     -0.15      0.00
  -22   14    2      0.01      0.00
  -20   14    2      0.30      0.00
  -18   14    2      0.39      0.00
  -16   14    2     -0.60      0.00
  -14   14    2      1.02      0.00
  -12   14    2      4.94      0.00
  -10   14    2      1.67      0.00
   -8   14    2      1.34      0.00
   -6   14    2     -1.25      0.00
   -4   14    2      4.35      0.00
   -2   14    2     22.62      0.00
    0   14    2     15.73      0.00
    2   14    2     -0.54      0.00
    4   14    2      1.99      0.00
    6   14    2      3.63      0.00
    8   14    2      2.01      0.00
   10   14    2      2.48      0.00
   12   14    2     -0.14      0.00
   14   14    2     -0.76      0.00
   16   14    2      0.63      0.00
   18   14    2      0.23      0.00
   20   14    2      0.27      0.00
  -21   15    2     -0.15      0.00
  -19   15    2      0.52      0.00
  -17   15    2      0.52      0.00
  -15   15    2     -1.15      0.00
  -13   15    2     -1.18      0.00
  -11   15    2     -2.15      0.00
   -9   15    2     -1.97      0.00
   -7   15    2      1.23      0.00
   -5   15    2     -8.39      0.00
   -3   15    2     -8.67      0.00
   -1   15    2     -8.01      0.00
    1   15    2    -13.66      0.00
    3   15    2     -3.28      0.00
    5   15    2      4.66      0.00
    7   15    2     -0.50      0.00
    9   15    2     -2.05      0.00
   11   15    2     -1.41      0.00
   13   15    2     -1.16      0.00
   15   15    2      0.72      0.00
   17   15    2      0.49      0.00
   19   15    2     -0.01      0.00
  -18   16    2      0.05      0.00
  -16   16    2     -0.48      0.00
  -14   16    2      0.95      0.00
  -12   16    2      3.42      0.00
  -10   16    2      1.32      0.00
   -8   16    2      1.52      0.00
   -6   16    2     -0.18      0.00
   -4   16    2      3.14      0.00
   -2   16    2     16.81      0.00
    0   16    2     10.49      0.00
    2   16    2      0.39      0.00
    4   16    2      1.74      0.00
    6   16    2      1.68      0.00
    8   16    2      1.42      0.00
   10   16    2      1.82      0.00
   12   16    2      0.23      0.00
   14   16    2     -0.63      0.00
   16   16    2      0.51      0.00
   18   16    2      0.66      0.00
  -17   17    2     -0.02      0.00
  -15   17    2     -0.57      0.00
  -13   17    2     -1.25      0.00
  -11   17    2     -2.40      0.00
   -9   17    2     -1.12      0.00
   -7   17    2      0.67      0.00
   -5   17    2     -5.05      0.00
   -3   17    2     -7.13      0.00
   -1   17    2     -7.73      0.00
    1   17    2     -9.16      0.00
    3   17    2     -1.27      0.00
    5   17    2      2.49      0.00
    7   17    2     -1.24      0.00
    9   17    2     -1.86      0.00
   11   17    2     -1.03      0.00
   13   17    2     -0.71      0.00
   15   17    2      0.34      0.00
   17   17    2      0.29      0.00
  -16   18    2     -0.20      0.00
  -14   18    2      1.15      0.00
  -12   18    2      1.52      0.00
  -10   18    2      1.40      0.00
   -8   18    2      0.63      0.00
   -6   18    2      0.28      0.00
   -4   18    2      4.00      0.00
   -2   18    2      9.45      0.00
    0   18    2      7.20      0.00
    2   18    2      2.23      0.00
    4   18    2      0.27      0.00
    6   18    2      0.15      0.00
    8   18    2      0.49      0.00
   10   18    2      1.34      0.00
   12   18    2      0.30      0.00
   14   18    2     -0.35      0.00
  -13   19    2     -1.29      0.00
  -11   19    2     -1.99      0.00
   -9   19    2     -0.71      0.00
   -7   19    2      0.08      0.00
   -5   19    2     -1.71      0.00
   -3   19    2     -4.81      0.00
   -1   19    2     -6.71      0.00
    1   19    2     -4.07      0.00
    3   19    2     -0.02      0.00
    5   19    2      0.38      0.00
    7   19    2     -1.16      0.00
    9   19    2     -1.75      0.00
   11   19    2     -0.62      0.00
  -10   20    2      1.31      0.00
   -8   20    2      0.14      0.00
   -6   20    2      0.94      0.00
   -4   20    2      4.10      0.00
   -2   20    2      5.27      0.00
    0   20    2      5.19      0.00
    2   20    2      3.26      0.00
    4   20    2     -0.73      0.00
    6   20    2     -0.75      0.00
    8   20    2      0.49      0.00
   -5   21    2     -0.03      0.00
   -3   21    2     -3.25      0.00
   -1   21    2     -4.61      0.00
    1   21    2     -1.53      0.00
    3   21    2      0.14      0.00
  -28    0    3      0.26      0.00
  -26    0    3      0.14      0.00
  -24    0    3     -0.49      0.00
  -22    0    3      0.43      0.00
  -20    0    3     -0.93      0.00
  -18    0    3      0.98      0.00
  -16    0    3      2.02      0.00
  -14    0    3      0.45      0.00
  -12    0    3     10.27      0.00
  -10    0    3     12.15      0.00
   -8    0    3     -6.91      0.00
   -6    0    3     12.98      0.00
   -4    0    3     -7.80      0.00
   -2    0    3    -35.77      0.00
    2    0    3     44.59      0.00
    6    0    3     12.36      0.00
    8    0    3      5.63      0.00
   10    0    3     -5.94      0.00
   12    0    3     11.05      0.00
   14    0    3     -4.87      0.00
   16    0    3     -1.50      0.00
   18    0    3      7.03      0.00
   20    0    3     -1.57      0.00
   22    0    3      0.76      0.00
   24    0    3     -0.22      0.00
   26    0    3     -0.57      0.00
   28    0    3      0.52      0.00
  -29    1    3      0.85      0.00
  -27    1    3      0.92      0.00
  -25    1    3     -0.46      0.00
  -23    1    3      0.26      0.00
  -21    1    3      0.32      0.00
  -19    1    3     -0.97      0.00
  -17    1    3      0.16      0.00
  -15    1    3     -3.97      0.00
  -13    1    3     -6.71      0.00
  -11    1    3      3.80      0.00
   -9    1    3      4.32      0.00
   -7    1    3      7.41      0.00
   -5    1    3     -3.24      0.00
   -3    1    3    -81.01      0.00
   -1    1    3    -59.83      0.00
    1    1    3     31.45      0.00
    3    1    3     -0.97      0.00
    5    1    3    -11.78      0.00
    7    1    3      7.88      0.00
    9    1    3    -16.89      0.00
   11    1    3     -2.06      0.00
   13    1    3      6.61      0.00
   15    1    3     -3.69      0.00
   17    1    3      2.38      0.00
   19    1    3     -3.64      0.00
   21    1    3     -1.96      0.00
   23    1    3      1.99      0.00
   25    1    3     -0.91      0.00
   27    1    3      0.32      0.00
  -28    2    3      0.28      0.00
  -26    2    3     -0.01      0.00
  -24    2    3      0.88      0.00
  -22    2    3     -0.54      0.00
  -20    2    3     -0.67      0.00
  -18    2    3      0.92      0.00
  -16    2    3      0.99      0.00
  -14    2    3      2.43      0.00
  -12    2    3     10.51      0.00
  -10    2    3      9.38      0.00
   -8    2    3     -5.72      0.00
   -6    2    3      5.93      0.00
   -4    2    3      0.66      0.00
   -2    2    3    -21.01      0.00
    0    2    3     35.32      0.00
    2    2    3     29.51      0.00
    4    2    3     -8.58      0.00
    6    2    3     10.35      0.00
    8    2    3      5.88      0.00
   10    2    3     -4.05      0.00
   12    2    3      8.61      0.00
   14    2    3     -4.20      0.00
   16    2    3     -0.55      0.00
   18    2    3      5.81      0.00
   20    2    3     -0.11      0.00
   22    2    3      0.50      0.00
   24    2    3     -0.38      0.00
   26    2    3      0.07      0.00
  -29    3    3      0.78      0.00
  -27    3    3      0.27      0.00
  -25    3    3      0.64      0.00
  -23    3    3      0.63      0.00
  -21    3    3     -1.69      0.00
  -19    3    3     -0.27      0.00
  -17    3    3     -0.16      0.00
  -15    3    3     -3.91      0.00
  -13    3    3     -3.89      0.00
  -11    3    3      1.92      0.00
   -9    3    3      2.58      0.00
   -7    3    3      2.33      0.00
   -5    3    3     -9.51      0.00
   -3    3    3    -50.74      0.00
   -1    3    3    -43.88      0.00
    1    3    3      4.64      0.00
    3    3    3     -3.50      0.00
    5    3    3     -3.06      0.00
    7    3    3      3.33      0.00
    9    3    3    -13.20      0.00
   11    3    3     -2.20      0.00
   13    3    3      3.54      0.00
   15    3    3     -1.98      0.00
   17    3    3      0.79      0.00
   19    3    3     -2.47      0.00
   21    3    3     -1.41      0.00
   23    3    3      1.08      0.00
   25    3    3     -0.55      0.00
   27    3    3      0.64      0.00
  -28    4    3     -0.11      0.00
  -26    4    3     -0.31      0.00
  -24    4    3      1.32      0.00
  -22    4    3     -0.83      0.00
  -20    4    3     -1.53      0.00
  -18    4    3      1.20      0.00
  -16    4    3     -0.46      0.00
  -14    4    3      4.98      0.00
  -12    4    3     11.15      0.00
  -10    4    3      4.82      0.00
   -8    4    3     -6.54      0.00
   -6    4    3     -2.92      0.00
   -4    4    3      7.15      0.00
   -2    4    3     17.54      0.00
    0    4    3     17.66      0.00
    2    4    3      7.77      0.00
    4    4    3     -1.44      0.00
    6    4    3     10.91      0.00
    8    4    3      4.48      0.00
   10    4    3     -0.05      0.00
   12    4    3      3.54      0.00
   14    4    3     -3.34      0.00
   16    4    3     -0.63      0.00
   18    4    3      3.95      0.00
   20    4    3      0.30      0.00
   22    4    3      0.21      0.00
   24    4    3     -0.78      0.00
   26    4    3      0.33      0.00
  -27    5    3     -0.54      0.00
  -25    5    3      0.78      0.00
  -23    5    3      0.46      0.00
  -21    5    3     -3.29      0.00
  -19    5    3      0.02      0.00
  -17    5    3     -0.08      0.00
  -15    5    3     -4.23      0.00
  -13    5    3     -1.37      0.00
  -11    5    3     -0.56      0.00
   -9    5    3      1.72      0.00
   -7    5    3     -3.65      0.00
   -5    5    3    -15.46      0.00
   -3    5    3    -18.92      0.00
   -1    5    3    -25.51      0.00
    1    5    3    -24.56      0.00
    3    5    3     -5.70      0.00
    5    5    3      5.38      0.00
    7    5    3     -1.35      0.00
    9    5    3     -9.32      0.00
   11    5    3     -2.46      0.00
   13    5    3      0.89      0.00
   15    5    3     -1.79      0.00
   17    5    3     -0.34      0.00
   19    5    3     -2.35      0.00
   21    5    3     -1.20      0.00
   23    5    3      0.07      0.00
   25    5    3     -0.12      0.00
   27    5    3      0.38      0.00
  -28    6    3     -0.06      0.00
  -26    6    3     -0.74      0.00
  -24    6    3      1.22      0.00
  -22    6    3     -0.82      0.00
  -20    6    3     -1.25      0.00
  -18    6    3      1.42      0.00
  -16    6    3     -1.33      0.00
  -14    6    3      6.37      0.00
  -12    6    3      9.33      0.00
  -10    6    3      2.40      0.00
   -8    6    3     -4.66      0.00
   -6    6    3     -9.59      0.00
   -4    6    3     14.80      0.00
   -2    6    3     38.33      0.00
    0    6    3     10.27      0.00
    2    6    3    -10.06      0.00
    4    6    3      4.50      0.00
    6    6    3      8.26      0.00
    8    6    3      3.65      0.00
   10    6    3      2.52      0.00
   12    6    3      1.27      0.00
   14    6    3     -2.28      0.00
   16    6    3     -0.48      0.00
   18    6    3      2.57      0.00
   20    6    3      0.18      0.00
   22    6    3      0.15      0.00
   24    6    3     -0.69      0.00
   26    6    3      0.66      0.00
  -27    7    3     -0.32      0.00
  -25    7    3      0.10      0.00
  -23    7    3      0.21      0.00
  -21    7    3     -2.68      0.00
  -19    7    3      0.42      0.00
  -17    7    3      0.57      0.00
  -15    7    3     -3.52      0.00
  -13    7    3     -2.05      0.00
  -11    7    3     -1.55      0.00
   -9    7    3      1.64      0.00
   -7    7    3     -4.15      0.00
   -5    7    3    -15.77      0.00
   -3    7    3     -4.10      0.00
   -1    7    3    -16.27      0.00
    1    7    3    -31.54      0.00
    3    7    3     -6.32      0.00
    5    7    3      7.28      0.00
    7    7    3     -3.96      0.00
    9    7    3     -6.92      0.00
   11    7    3     -1.13      0.00
   13    7    3      0.64      0.00
   15    7    3     -1.28      0.00
   17    7    3     -0.65      0.00
   19    7    3     -1.72      0.00
   21    7    3     -1.72      0.00
   23    7    3      0.58      0.00
   25    7    3      0.02      0.00
  -26    8    3     -0.67      0.00
  -24    8    3      0.29      0.00
  -22    8    3      0.08      0.00
  -20    8    3     -0.01      0.00
  -18    8    3      0.90      0.00
  -16    8    3      0.66      0.00
  -14    8    3      4.20      0.00
  -12    8    3      7.34      0.00
  -10    8    3      1.74      0.00
   -8    8    3     -2.06      0.00
   -6    8    3     -7.34      0.00
   -4    8    3     14.13      0.00
   -2    8    3     37.01      0.00
    0    8    3      9.25      0.00
    2    8    3     -9.16      0.00
    4    8    3      2.66      0.00
    6    8    3      4.68      0.00
    8    8    3      3.80      0.00
   10    8    3      3.03      0.00
   12    8    3      2.76      0.00
   14    8    3     -1.58      0.00
   16    8    3     -0.17      0.00
   18    8    3      1.80      0.00
   20    8    3     -0.33      0.00
   22    8    3     -0.39      0.00
   24    8    3      0.14      0.00
  -25    9    3     -0.23      0.00
  -23    9    3     -0.61      0.00
  -21    9    3     -1.06      0.00
  -19    9    3     -0.08      0.00
  -17    9    3      0.87      0.00
  -15    9    3     -2.35      0.00
  -13    9    3     -4.33      0.00
  -11    9    3     -2.11      0.00
   -9    9    3      2.07      0.00
   -7    9    3     -2.02      0.00
   -5    9    3    -10.53      0.00
   -3    9    3     -8.91      0.00
   -1    9    3    -15.32      0.00
    1    9    3    -21.99      0.00
    3    9    3     -3.67      0.00
    5    9    3      2.36      0.00
    7    9    3     -4.31      0.00
    9    9    3     -5.09      0.00
   11    9    3     -0.73      0.00
   13    9    3      1.48      0.00
   15    9    3     -1.51      0.00
   17    9    3     -0.38      0.00
   19    9    3     -1.85      0.00
   21    9    3     -1.76      0.00
   23    9    3      0.21      0.00
   25    9    3     -0.09      0.00
  -26   10    3     -0.03      0.00
  -24   10    3     -0.24      0.00
  -22   10    3      0.56      0.00
  -20   10    3      0.47      0.00
  -18   10    3     -0.14      0.00
  -16   10    3      1.39      0.00
  -14   10    3      2.86      0.00
  -12   10    3      3.28      0.00
  -10   10    3      3.36      0.00
   -8   10    3     -1.53      0.00
   -6   10    3     -0.56      0.00
   -4   10    3      9.95      0.00
   -2   10    3     22.14      0.00
    0   10    3     12.04      0.00
    2   10    3     -0.91      0.00
    4   10    3     -2.10      0.00
    6   10    3      0.46      0.00
    8   10    3      3.43      0.00
   10   10    3      3.46      0.00
   12   10    3      2.71      0.00
   14   10    3     -0.40      0.00
   16   10    3     -0.43      0.00
   18   10    3      1.53      0.00
   20   10    3     -0.64      0.00
   22   10    3     -0.56      0.00
   24   10    3     -0.44      0.00
  -25   11    3      0.28      0.00
  -23   11    3     -0.66      0.00
  -21   11    3     -0.21      0.00
  -19   11    3     -0.58      0.00
  -17   11    3      0.44      0.00
  -15   11    3     -1.01      0.00
  -13   11    3     -5.77      0.00
  -11   11    3     -2.47      0.00
   -9   11    3      1.49      0.00
   -7   11    3      0.84      0.00
   -5   11    3     -4.43      0.00
   -3   11    3    -15.68      0.00
   -1   11    3    -16.97      0.00
    1   11    3     -7.93      0.00
    3   11    3     -1.73      0.00
    5   11    3     -2.80      0.00
    7   11    3     -4.00      0.00
    9   11    3     -3.48      0.00
   11   11    3     -0.54      0.00
   13   11    3      1.16      0.00
   15   11    3     -0.51      0.00
   17   11    3     -0.68      0.00
   19   11    3     -1.06      0.00
   21   11    3     -0.95      0.00
   23   11    3     -0.26      0.00
  -24   12    3      0.28      0.00
  -22   12    3      0.63      0.00
  -20   12    3      0.69      0.00
  -18   12    3     -0.88      0.00
  -16   12    3      2.16      0.00
  -14   12    3      1.84      0.00
  -12   12    3      1.96      0.00
  -10   12    3      2.85      0.00
   -8   12    3     -0.62      0.00
   -6   12    3      3.58      0.00
   -4   12    3      8.56      0.00
   -2   12    3      9.37      0.00
    0   12    3     14.55      0.00
    2   12    3      4.91      0.00
    4   12    3     -4.90      0.00
    6   12    3     -2.11      0.00
    8   12    3      3.88      0.00
   10   12    3      3.15      0.00
   12   12    3      2.94      0.00
   14   12    3     -0.19      0.00
   16   12    3      0.23      0.00
   18   12    3      0.58      0.00
   20   12    3      0.53      0.00
   22   12    3     -0.64      0.00
  -23   13    3     -0.32      0.00
  -21   13    3     -0.14      0.00
  -19   13    3     -0.76      0.00
  -17   13    3      0.22      0.00
  -15   13    3     -0.32      0.00
  -13   13    3     -5.20      0.00
  -11   13    3     -2.23      0.00
   -9   13    3      0.54      0.00
   -7   13    3      1.81      0.00
   -5   13    3     -0.05      0.00
   -3   13    3    -17.50      0.00
   -1   13    3    -15.32      0.00
    1   13    3     -0.54      0.00
    3   13    3     -0.59      0.00
    5   13    3     -4.83      0.00
    7   13    3     -2.54      0.00
    9   13    3     -2.48      0.00
   11   13    3     -0.69      0.00
   13   13    3      0.98      0.00
   15   13    3     -0.50      0.00
   17   13    3     -0.67      0.00
   19   13    3     -0.61      0.00
   21   13    3      0.22      0.00
  -22   14    3      0.59      0.00
  -20   14    3     -0.12      0.00
  -18   14    3     -0.80      0.00
  -16   14    3      1.41      0.00
  -14   14    3      1.56      0.00
  -12   14    3      1.39      0.00
  -10   14    3      2.84      0.00
   -8   14    3     -1.67      0.00
   -6   14    3      5.69      0.00
   -4   14    3      6.22      0.00
   -2   14    3      4.71      0.00
    0   14    3     12.29      0.00
    2   14    3      5.70      0.00
    4   14    3     -5.93      0.00
    6   14    3     -1.65      0.00
    8   14    3      3.22      0.00
   10   14    3      2.16      0.00
   12   14    3      2.30      0.00
   14   14    3     -0.11      0.00
   16   14    3     -0.53      0.00
   18   14    3      0.49      0.00
   20   14    3      0.20      0.00
  -21   15    3     -0.30      0.00
  -19   15    3     -0.69      0.00
  -17   15    3      0.08      0.00
  -15   15    3     -0.61      0.00
  -13   15    3     -3.85      0.00
  -11   15    3     -1.87      0.00
   -9   15    3     -0.32      0.00
   -7   15    3      1.25      0.00
   -5   15    3      0.70      0.00
   -3   15    3    -14.64      0.00
   -1   15    3    -11.83      0.00
    1   15    3      0.61      0.00
    3   15    3     -1.21      0.00
    5   15    3     -3.39      0.00
    7   15    3     -1.47      0.00
    9   15    3     -2.51      0.00
   11   15    3     -0.79      0.00
   13   15    3      0.51      0.00
   15   15    3     -0.74      0.00
   17   15    3     -1.01      0.00
   19   15    3     -0.54      0.00
  -18   16    3     -0.27      0.00
  -16   16    3      0.83      0.00
  -14   16    3      1.41      0.00
  -12   16    3      1.65      0.00
  -10   16    3      1.71      0.00
   -8   16    3     -1.52      0.00
   -6   16    3      3.86      0.00
   -4   16    3      5.35      0.00
   -2   16    3      3.74      0.00
    0   16    3      9.54      0.00
    2   16    3      2.92      0.00
    4   16    3     -4.43      0.00
    6   16    3      0.03      0.00
    8   16    3      2.08      0.00
   10   16    3      1.74      0.00
   12   16    3      1.61      0.00
   14   16    3     -0.16      0.00
   16   16    3     -0.45      0.00
   18   16    3     -0.25      0.00
  -17   17    3      0.24      0.00
  -15   17    3     -0.64      0.00
  -13   17    3     -2.32      0.00
  -11   17    3     -1.28      0.00
   -9   17    3     -0.83      0.00
   -7   17    3      1.04      0.00
   -5   17    3     -0.80      0.00
   -3   17    3     -9.04      0.00
   -1   17    3     -7.36      0.00
    1   17    3     -0.92      0.00
    3   17    3     -0.84      0.00
    5   17    3     -0.78      0.00
    7   17    3     -0.74      0.00
    9   17    3     -1.85      0.00
   11   17    3     -0.62      0.00
   13   17    3      0.50      0.00
   15   17    3     -0.33      0.00
  -16   18    3      0.36      0.00
  -14   18    3      1.08      0.00
  -12   18    3      2.19      0.00
  -10   18    3      0.62      0.00
   -8   18    3     -0.63      0.00
   -6   18    3      1.69      0.00
   -4   18    3      3.50      0.00
   -2   18    3      4.94      0.00
    0   18    3      5.30      0.00
    2   18    3      0.64      0.00
    4   18    3     -1.62      0.00
    6   18    3      0.40      0.00
    8   18    3      2.14      0.00
   10   18    3      1.00      0.00
   12   18    3      0.94      0.00
   14   18    3     -0.09      0.00
  -13   19    3     -1.04      0.00
  -11   19    3     -1.18      0.00
   -9   19    3     -0.41      0.00
   -7   19    3      0.25      0.00
   -5   19    3     -2.35      0.00
   -3   19    3     -4.98      0.00
   -1   19    3     -4.56      0.00
    1   19    3     -3.07      0.00
    3   19    3      0.30      0.00
    5   19    3      0.83      0.00
    7   19    3     -0.38      0.00
    9   19    3     -1.07      0.00
   11   19    3     -0.70      0.00
  -10   20    3      0.09      0.00
   -8   20    3     -0.25      0.00
   -6   20    3     -0.51      0.00
   -4   20    3      1.95      0.00
   -2   20    3      4.00      0.00
    0   20    3      1.80      0.00
    2   20    3     -0.29      0.00
    4   20    3     -0.21      0.00
    6   20    3      0.63      0.00
    8   20    3      1.54      0.00
   -5   21    3     -2.42      0.00
   -3   21    3     -2.11      0.00
   -1   21    3     -2.96      0.00
    1   21    3     -2.71      0.00
    3   21    3      0.93      0.00
  -28    0    4     -1.10      0.00
  -26    0    4      0.38      0.00
  -24    0    4      0.06      0.00
  -22    0    4     -1.07      0.00
  -20    0    4      1.29      0.00
  -18    0    4      0.08      0.00
  -16    0    4      3.48      0.00
  -14    0    4      5.79      0.00
  -12    0    4     -2.22      0.00
  -10    0    4     -5.34      0.00
   -8    0    4     -9.70      0.00
   -6    0    4     -2.37      0.00
   -4    0    4     60.52      0.00
   -2    0    4     50.21      0.00
    0    0    4    -33.02      0.00
    2    0    4    -13.83      0.00
    4    0    4     22.65      0.00
    6    0    4     -8.06      0.00
    8    0    4     15.79      0.00
   10    0    4      8.46      0.00
   12    0    4     -8.43      0.00
   14    0    4      4.87      0.00
   16    0    4     -1.33      0.00
   18    0    4      2.67      0.00
   20    0    4      3.58      0.00
   22    0    4     -2.25      0.00
   24    0    4      0.79      0.00
   26    0    4     -0.16      0.00
  -29    1    4     -0.32      0.00
  -27    1    4     -0.72      0.00
  -25    1    4      0.07      0.00
  -23    1    4     -0.13      0.00
  -21    1    4      0.16      0.00
  -19    1    4     -1.70      0.00
  -17    1    4     -1.02      0.00
  -15    1    4     -0.36      0.00
  -13    1    4     -9.40      0.00
  -11    1    4     -9.13      0.00
   -9    1    4      4.42      0.00
   -7    1    4     -0.98      0.00
   -5    1    4     12.22      0.00
   -3    1    4     35.69      0.00
   -1    1    4    -23.41      0.00
    1    1    4    -47.51      0.00
    3    1    4      9.32      0.00
    5    1    4     -3.53      0.00
    7    1    4    -12.92      0.00
    9    1    4      5.73      0.00
   11    1    4    -10.09      0.00
   13    1    4      1.96      0.00
   15    1    4      2.34      0.00
   17    1    4     -8.21      0.00
   19    1    4      0.50      0.00
   21    1    4     -0.48      0.00
   23    1    4     -0.15      0.00
   25    1    4      0.54      0.00
   27    1    4     -0.60      0.00
  -28    2    4     -0.92      0.00
  -26    2    4      0.03      0.00
  -24    2    4     -1.00      0.00
  -22    2    4      0.67      0.00
  -20    2    4      0.73      0.00
  -18    2    4     -0.02      0.00
  -16    2    4      3.88      0.00
  -14    2    4      3.99      0.00
  -12    2    4     -1.48      0.00
  -10    2    4     -3.31      0.00
   -8    2    4     -9.00      0.00
   -6    2    4      1.90      0.00
   -4    2    4     43.41      0.00
   -2    2    4     43.13      0.00
    0    2    4    -21.99      0.00
    2    2    4     -6.49      0.00
    4    2    4     13.73      0.00
    6    2    4     -4.39      0.00
    8    2    4     14.18      0.00
   10    2    4      7.71      0.00
   12    2    4     -6.62      0.00
   14    2    4      3.99      0.00
   16    2    4     -1.49      0.00
   18    2    4      2.77      0.00
   20    2    4      2.28      0.00
   22    2    4     -1.59      0.00
   24    2    4      0.69      0.00
   26    2    4     -0.76      0.00
  -29    3    4     -0.23      0.00
  -27    3    4     -0.38      0.00
  -25    3    4     -1.15      0.00
  -23    3    4      0.09      0.00
  -21    3    4      1.08      0.00
  -19    3    4     -2.15      0.00
  -17    3    4     -0.02      0.00
  -15    3    4     -2.37      0.00
  -13    3    4    -10.42      0.00
  -11    3    4     -5.25      0.00
   -9    3    4      5.77      0.00
   -7    3    4      3.70      0.00
   -5    3    4      6.24      0.00
   -3    3    4      7.00      0.00
   -1    3    4    -16.21      0.00
    1    3    4    -23.62      0.00
    3    3    4      3.09      0.00
    5    3    4     -7.00      0.00
    7    3    4     -9.65      0.00
    9    3    4      2.02      0.00
   11    3    4     -6.68      0.00
   13    3    4      2.28      0.00
   15    3    4      0.88      0.00
   17    3    4     -6.08      0.00
   19    3    4     -0.71      0.00
   21    3    4     -0.63      0.00
   23    3    4      0.32      0.00
   25    3    4     -0.01      0.00
   27    3    4     -0.65      0.00
  -28    4    4      0.05      0.00
  -26    4    4     -0.68      0.00
  -24    4    4     -1.01      0.00
  -22    4    4      2.29      0.00
  -20    4    4      0.96      0.00
  -18    4    4     -0.58      0.00
  -16    4    4      4.06      0.00
  -14    4    4      1.87      0.00
  -12    4    4     -0.52      0.00
  -10    4    4     -0.40      0.00
   -8    4    4     -3.46      0.00
   -6    4    4      5.37      0.00
   -4    4    4     18.67      0.00
   -2    4    4     19.84      0.00
    0    4    4     10.66      0.00
    2    4    4      0.17      0.00
    4    4    4      1.74      0.00
    6    4    4     -1.38      0.00
    8    4    4     12.68      0.00
   10    4    4      5.78      0.00
   12    4    4     -2.15      0.00
   14    4    4      2.92      0.00
   16    4    4      0.23      0.00
   18    4    4      2.34      0.00
   20    4    4      1.89      0.00
   22    4    4     -0.64      0.00
   24    4    4      0.34      0.00
   26    4    4     -0.75      0.00
  -27    5    4      0.35      0.00
  -25    5    4     -1.37      0.00
  -23    5    4      0.16      0.00
  -21    5    4      1.65      0.00
  -19    5    4     -2.14      0.00
  -17    5    4      0.58      0.00
  -15    5    4     -3.52      0.00
  -13    5    4    -10.84      0.00
  -11    5    4     -1.17      0.00
   -9    5    4      5.73      0.00
   -7    5    4      9.52      0.00
   -5    5    4     -0.57      0.00
   -3    5    4    -21.31      0.00
   -1    5    4     -9.16      0.00
    1    5    4      3.59      0.00
    3    5    4     -3.30      0.00
    5    5    4     -9.53      0.00
    7    5    4     -6.31      0.00
    9    5    4     -1.38      0.00
   11    5    4     -3.21      0.00
   13    5    4      2.34      0.00
   15    5    4      0.90      0.00
   17    5    4     -4.16      0.00
   19    5    4     -0.47      0.00
   21    5    4     -0.79      0.00
   23    5    4      0.81      0.00
   25    5    4     -0.39      0.00
  -28    6    4      0.26      0.00
  -26    6    4     -0.09      0.00
  -24    6    4     -0.89      0.00
  -22    6    4      2.92      0.00
  -20    6    4      0.81      0.00
  -18    6    4     -1.18      0.00
  -16    6    4      4.48      0.00
  -14    6    4      0.68      0.00
  -12    6    4      1.01      0.00
  -10    6    4      0.22      0.00
   -8    6    4     -0.93      0.00
   -6    6    4      8.47      0.00
   -4    6    4     -1.70      0.00
   -2    6    4      6.91      0.00
    0    6    4     26.81      0.00
    2    6    4      8.03      0.00
    4    6    4     -7.27      0.00
    6    6    4      2.32      0.00
    8    6    4     10.71      0.00
   10    6    4      3.80      0.00
   12    6    4     -0.27      0.00
   14    6    4      2.64      0.00
   16    6    4      0.70      0.00
   18    6    4      2.13      0.00
   20    6    4      1.91      0.00
   22    6    4     -0.56      0.00
   24    6    4      0.22      0.00
   26    6    4     -0.68      0.00
  -27    7    4      0.29      0.00
  -25    7    4     -0.51      0.00
  -23    7    4     -0.56      0.00
  -21    7    4      0.72      0.00
  -19    7    4     -1.98      0.00
  -17    7    4     -0.05      0.00
  -15    7    4     -3.35      0.00
  -13    7    4     -8.59      0.00
  -11    7    4     -0.84      0.00
   -9    7    4      4.46      0.00
   -7    7    4      9.42      0.00
   -5    7    4     -3.41      0.00
   -3    7    4    -31.44      0.00
   -1    7    4     -6.69      0.00
    1    7    4     11.95      0.00
    3    7    4     -3.00      0.00
    5    7    4     -8.56      0.00
    7    7    4     -4.44      0.00
    9    7    4     -2.91      0.00
   11    7    4     -3.62      0.00
   13    7    4      1.67      0.00
   15    7    4      0.41      0.00
   17    7    4     -2.97      0.00
   19    7    4     -0.44      0.00
   21    7    4     -0.27      0.00
   23    7    4     -0.05      0.00
   25    7    4     -0.17      0.00
  -26    8    4      0.47      0.00
  -24    8    4      0.13      0.00
  -22    8    4      1.48      0.00
  -20    8    4      0.39      0.00
  -18    8    4     -0.95      0.00
  -16    8    4      2.58      0.00
  -14    8    4      3.05      0.00
  -12    8    4      0.82      0.00
  -10    8    4     -0.26      0.00
   -8    8    4     -1.20      0.00
   -6    8    4      6.31      0.00
   -4    8    4     -3.15      0.00
   -2    8    4      4.11      0.00
    0    8    4     24.25      0.00
    2    8    4      7.21      0.00
    4    8    4     -5.52      0.00
    6    8    4      3.60      0.00
    8    8    4      8.01      0.00
   10    8    4      2.67      0.00
   12    8    4     -1.29      0.00
   14    8    4      2.66      0.00
   16    8    4      0.55      0.00
   18    8    4      2.04      0.00
   20    8    4      2.09      0.00
   22    8    4     -0.23      0.00
   24    8    4     -0.34      0.00
  -25    9    4      0.12      0.00
  -23    9    4     -0.61      0.00
  -21    9    4     -0.74      0.00
  -19    9    4     -0.74      0.00
  -17    9    4     -1.15      0.00
  -15    9    4     -2.32      0.00
  -13    9    4     -4.95      0.00
  -11    9    4     -2.09      0.00
   -9    9    4      2.25      0.00
   -7    9    4      6.61      0.00
   -5    9    4     -3.68      0.00
   -3    9    4    -20.64      0.00
   -1    9    4     -8.90      0.00
    1    9    4      6.42      0.00
    3    9    4      0.13      0.00
    5    9    4     -3.22      0.00
    7    9    4     -4.33      0.00
    9    9    4     -3.60      0.00
   11    9    4     -3.89      0.00
   13    9    4      0.27      0.00
   15    9    4      0.81      0.00
   17    9    4     -2.45      0.00
   19    9    4      0.23      0.00
   21    9    4      0.31      0.00
   23    9    4      0.17      0.00
   25    9    4     -0.01      0.00
  -26   10    4      0.21      0.00
  -24   10    4      0.93      0.00
  -22   10    4      0.50      0.00
  -20   10    4      0.71      0.00
  -18   10    4     -0.22      0.00
  -16   10    4      1.51      0.00
  -14   10    4      4.25      0.00
  -12   10    4      2.46      0.00
  -10   10    4     -2.43      0.00
   -8   10    4     -1.33      0.00
   -6   10    4      1.20      0.00
   -4   10    4      4.58      0.00
   -2   10    4      8.83      0.00
    0   10    4     11.84      0.00
    2   10    4      3.62      0.00
    4   10    4      0.90      0.00
    6   10    4      4.04      0.00
    8   10    4      5.65      0.00
   10   10    4      1.89      0.00
   12   10    4     -0.89      0.00
   14   10    4      1.29      0.00
   16   10    4      1.08      0.00
   18   10    4      1.48      0.00
   20   10    4      1.98      0.00
   22   10    4      0.16      0.00
   24   10    4      0.49      0.00
  -25   11    4     -0.14      0.00
  -23   11    4     -0.66      0.00
  -21   11    4     -1.11      0.00
  -19   11    4      0.35      0.00
  -17   11    4     -1.51      0.00
  -15   11    4     -1.94      0.00
  -13   11    4     -1.81      0.00
  -11   11    4     -3.01      0.00
   -9   11    4      1.40      0.00
   -7   11    4      1.95      0.00
   -5   11    4     -3.06      0.00
   -3   11    4     -8.05      0.00
   -1   11    4     -9.73      0.00
    1   11    4     -3.23      0.00
    3   11    4      4.34      0.00
    5   11    4      1.55      0.00
    7   11    4     -4.29      0.00
    9   11    4     -3.89      0.00
   11   11    4     -3.80      0.00
   13   11    4     -0.26      0.00
   15   11    4     -0.08      0.00
   17   11    4     -1.27      0.00
   19   11    4     -0.46      0.00
   21   11    4      0.50      0.00
   23   11    4      0.64      0.00
  -24   12    4      0.51      0.00
  -22   12    4      0.28      0.00
  -20   12    4      0.65      0.00
  -18   12    4      0.38      0.00
  -16   12    4      0.04      0.00
  -14   12    4      4.73      0.00
  -12   12    4      2.39      0.00
  -10   12    4     -1.67      0.00
   -8   12    4     -2.75      0.00
   -6   12    4     -2.23      0.00
   -4   12    4      8.35      0.00
   -2   12    4     12.19      0.00
    0   12    4      1.32      0.00
    2   12    4      0.89      0.00
    4   12    4      4.86      0.00
    6   12    4      3.61      0.00
    8   12    4      3.08      0.00
   10   12    4      1.82      0.00
   12   12    4     -0.91      0.00
   14   12    4      0.66      0.00
   16   12    4      0.69      0.00
   18   12    4      1.57      0.00
   20   12    4      0.07      0.00
   22   12    4      0.73      0.00
  -23   13    4     -0.70      0.00
  -21   13    4     -0.66      0.00
  -19   13    4      0.66      0.00
  -17   13    4     -1.34      0.00
  -15   13    4     -1.97      0.00
  -13   13    4     -0.69      0.00
  -11   13    4     -2.96      0.00
   -9   13    4      1.49      0.00
   -7   13    4     -1.02      0.00
   -5   13    4     -3.57      0.00
   -3   13    4     -0.86      0.00
   -1   13    4     -9.56      0.00
    1   13    4     -6.53      0.00
    3   13    4      5.51      0.00
    5   13    4      3.32      0.00
    7   13    4     -4.24      0.00
    9   13    4     -3.55      0.00
   11   13    4     -3.07      0.00
   13   13    4     -0.72      0.00
   15   13    4      0.12      0.00
   17   13    4     -0.66      0.00
   19   13    4     -0.73      0.00
   21   13    4     -0.15      0.00
  -22   14    4      0.27      0.00
  -20   14    4      0.99      0.00
  -18   14    4      0.47      0.00
  -16   14    4      0.11      0.00
  -14   14    4      3.65      0.00
  -12   14    4      2.30      0.00
  -10   14    4     -1.23      0.00
   -8   14    4     -1.93      0.00
   -6   14    4     -4.48      0.00
   -4   14    4      9.64      0.00
   -2   14    4     10.58      0.00
    0   14    4     -0.99      0.00
    2   14    4      0.33      0.00
    4   14    4      5.11      0.00
    6   14    4      2.34      0.00
    8   14    4      2.32      0.00
   10   14    4      1.90      0.00
   12   14    4     -0.43      0.00
   14   14    4      0.46      0.00
   16   14    4      1.42      0.00
   18   14    4      0.89      0.00
   20   14    4     -0.16      0.00
  -21   15    4     -0.15      0.00
  -19   15    4      0.59      0.00
  -17   15    4     -0.80      0.00
  -15   15    4     -1.45      0.00
  -13   15    4     -0.94      0.00
  -11   15    4     -1.91      0.00
   -9   15    4      1.69      0.00
   -7   15    4     -1.55      0.00
   -5   15    4     -3.11      0.00
   -3   15    4      0.56      0.00
   -1   15    4     -7.32      0.00
    1   15    4     -4.76      0.00
    3   15    4      5.27      0.00
    5   15    4      2.03      0.00
    7   15    4     -3.17      0.00
    9   15    4     -2.23      0.00
   11   15    4     -2.46      0.00
   13   15    4     -0.37      0.00
   15   15    4      0.53      0.00
   17   15    4      0.04      0.00
   19   15    4     -0.28      0.00
  -18   16    4      0.20      0.00
  -16   16    4      0.36      0.00
  -14   16    4      2.38      0.00
  -12   16    4      1.69      0.00
  -10   16    4      0.08      0.00
   -8   16    4     -1.76      0.00
   -6   16    4     -2.67      0.00
   -4   16    4      6.60      0.00
   -2   16    4      7.40      0.00
    0   16    4     -0.45      0.00
    2   16    4      1.00      0.00
    4   16    4      2.71      0.00
    6   16    4      0.75      0.00
    8   16    4      2.64      0.00
   10   16    4      1.22      0.00
   12   16    4     -0.23      0.00
   14   16    4      0.50      0.00
   16   16    4      1.18      0.00
  -17   17    4     -0.57      0.00
  -15   17    4     -1.21      0.00
  -13   17    4     -1.48      0.00
  -11   17    4     -0.95      0.00
   -9   17    4      1.53      0.00
   -7   17    4     -1.06      0.00
   -5   17    4     -1.91      0.00
   -3   17    4     -1.52      0.00
   -1   17    4     -4.92      0.00
    1   17    4     -2.00      0.00
    3   17    4      3.14      0.00
    5   17    4      0.25      0.00
    7   17    4     -2.19      0.00
    9   17    4     -1.72      0.00
   11   17    4     -1.78      0.00
   13   17    4     -0.43      0.00
   15   17    4      0.15      0.00
  -16   18    4      0.40      0.00
  -14   18    4      1.45      0.00
  -12   18    4      0.80      0.00
  -10   18    4      0.53      0.00
   -8   18    4     -1.44      0.00
   -6   18    4     -0.46      0.00
   -4   18    4      3.70      0.00
   -2   18    4      3.62      0.00
    0   18    4      1.73      0.00
    2   18    4      0.77      0.00
    4   18    4     -0.39      0.00
    6   18    4      0.73      0.00
    8   18    4      1.52      0.00
   10   18    4      1.23      0.00
   12   18    4     -0.21      0.00
   14   18    4     -0.07      0.00
  -13   19    4     -1.81      0.00
  -11   19    4     -0.08      0.00
   -9   19    4      0.65      0.00
   -7   19    4      0.67      0.00
   -5   19    4     -0.65      0.00
   -3   19    4     -2.25      0.00
   -1   19    4     -2.09      0.00
    1   19    4      0.19      0.00
    3   19    4      0.66      0.00
    5   19    4     -0.21      0.00
    7   19    4     -1.75      0.00
    9   19    4     -1.19      0.00
   11   19    4     -0.76      0.00
  -10   20    4      0.57      0.00
   -8   20    4     -0.69      0.00
   -6   20    4      1.43      0.00
   -4   20    4      1.68      0.00
   -2   20    4      2.10      0.00
    0   20    4      3.02      0.00
    2   20    4     -0.40      0.00
    4   20    4     -1.01      0.00
    6   20    4      0.15      0.00
    8   20    4      1.05      0.00
   -3   21    4     -2.33      0.00
   -1   21    4     -0.28      0.00
    1   21    4      0.25      0.00
  -28    0    5      1.19      0.00
  -26    0    5     -0.12      0.00
  -24    0    5     -0.25      0.00
  -22    0    5      0.54      0.00
  -20    0    5      1.83      0.00
  -18    0    5      0.94      0.00
  -16    0    5     -0.91      0.00
  -14    0    5      7.56      0.00
  -12    0    5      7.26      0.00
  -10    0    5     -2.86      0.00
   -8    0    5     -3.31      0.00
   -6    0    5    -19.47      0.00
   -4    0    5    -42.53      0.00
   -2    0    5     11.85      0.00
    0    0    5     50.58      0.00
    2    0    5     -0.30      0.00
    4    0    5     -6.59      0.00
    6    0    5     18.91      0.00
    8    0    5     -3.34      0.00
   10    0    5      8.58      0.00
   12    0    5      0.73      0.00
   14    0    5     -3.28      0.00
   16    0    5      8.17      0.00
   18    0    5      0.84      0.00
   20    0    5     -0.45      0.00
   22    0    5      0.77      0.00
   24    0    5     -0.68      0.00
   26    0    5      0.40      0.00
  -29    1    5      0.86      0.00
  -27    1    5     -0.18      0.00
  -25    1    5      0.37      0.00
  -23    1    5      0.73      0.00
  -21    1    5     -0.63      0.00
  -19    1    5     -0.09      0.00
  -17    1    5     -2.77      0.00
  -15    1    5     -3.57      0.00
  -13    1    5      1.58      0.00
  -11    1    5      3.11      0.00
   -9    1    5     11.42      0.00
   -7    1    5      3.26      0.00
   -5    1    5    -35.80      0.00
   -3    1    5    -33.35      0.00
   -1    1    5     29.41      0.00
    1    1    5     22.23      0.00
    3    1    5    -22.16      0.00
    5    1    5      1.42      0.00
    7    1    5    -10.96      0.00
    9    1    5    -13.96      0.00
   11    1    5      7.79      0.00
   13    1    5     -4.11      0.00
   15    1    5     -0.14      0.00
   17    1    5     -1.61      0.00
   19    1    5     -3.48      0.00
   21    1    5      1.30      0.00
   23    1    5     -0.47      0.00
   25    1    5      0.33      0.00
   27    1    5      0.34      0.00
  -28    2    5      1.15      0.00
  -26    2    5      0.31      0.00
  -24    2    5      0.45      0.00
  -22    2    5     -0.79      0.00
  -20    2    5      2.45      0.00
  -18    2    5      0.67      0.00
  -16    2    5     -0.37      0.00
  -14    2    5      8.82      0.00
  -12    2    5      5.15      0.00
  -10    2    5     -4.50      0.00
   -8    2    5     -3.29      0.00
   -6    2    5    -18.00      0.00
   -4    2    5    -25.14      0.00
   -2    2    5      7.41      0.00
    0    2    5     39.14      0.00
    2    2    5     -1.00      0.00
    4    2    5     -0.65      0.00
    6    2    5     14.98      0.00
    8    2    5     -1.08      0.00
   10    2    5      7.22      0.00
   12    2    5      0.58      0.00
   14    2    5     -2.40      0.00
   16    2    5      7.87      0.00
   18    2    5      0.85      0.00
   20    2    5      0.55      0.00
   22    2    5      0.27      0.00
   24    2    5     -0.47      0.00
   26    2    5      0.85      0.00
  -29    3    5      0.32      0.00
  -27    3    5      0.34      0.00
  -25    3    5      1.32      0.00
  -23    3    5     -0.96      0.00
  -21    3    5     -1.00      0.00
  -19    3    5      0.92      0.00
  -17    3    5     -3.30      0.00
  -15    3    5     -1.69      0.00
  -13    3    5      1.20      0.00
  -11    3    5      0.03      0.00
   -9    3    5      7.91      0.00
   -7    3    5      1.68      0.00
   -5    3    5    -17.36      0.00
   -3    3    5    -15.59      0.00
   -1    3    5      6.83      0.00
    1    3    5     10.21      0.00
    3    3    5     -9.58      0.00
    5    3    5      0.36      0.00
    7    3    5    -12.04      0.00
    9    3    5    -10.90      0.00
   11    3    5      4.28      0.00
   13    3    5     -3.44      0.00
   15    3    5     -0.12      0.00
   17    3    5     -2.04      0.00
   19    3    5     -2.18      0.00
   21    3    5      0.63      0.00
   23    3    5     -0.37      0.00
   25    3    5      0.94      0.00
   27    3    5      0.03      0.00
  -28    4    5      0.22      0.00
  -26    4    5      1.38      0.00
  -24    4    5      0.21      0.00
  -22    4    5     -1.52      0.00
  -20    4    5      2.39      0.00
  -18    4    5      0.41      0.00
  -16    4    5      1.10      0.00
  -14    4    5      9.60      0.00
  -12    4    5      1.68      0.00
  -10    4    5     -6.64      0.00
   -8    4    5     -7.52      0.00
   -6    4    5    -10.18      0.00
   -4    4    5      0.39      0.00
   -2    4    5      6.77      0.00
    0    4    5      6.49      0.00
    2    4    5      4.57      0.00
    4    4    5      6.13      0.00
    6    4    5     10.79      0.00
    8    4    5      1.11      0.00
   10    4    5      4.99      0.00
   12    4    5     -1.28      0.00
   14    4    5     -1.10      0.00
   16    4    5      5.04      0.00
   18    4    5      1.36      0.00
   20    4    5      0.78      0.00
   22    4    5     -0.33      0.00
   24    4    5      0.19      0.00
   26    4    5      0.61      0.00
  -27    5    5      0.04      0.00
  -25    5    5      1.42      0.00
  -23    5    5     -2.24      0.00
  -21    5    5     -1.35      0.00
  -19    5    5      1.57      0.00
  -17    5    5     -3.59      0.00
  -15    5    5     -0.80      0.00
  -13    5    5      1.10      0.00
  -11    5    5     -2.81      0.00
   -9    5    5      4.55      0.00
   -7    5    5     -1.34      0.00
   -5    5    5      2.91      0.00
   -3    5    5      1.29      0.00
   -1    5    5    -15.63      0.00
    1    5    5     -4.65      0.00
    3    5    5      4.19      0.00
    5    5    5     -1.14      0.00
    7    5    5    -12.52      0.00
    9    5    5     -7.65      0.00
   11    5    5      0.61      0.00
   13    5    5     -3.24      0.00
   15    5    5     -1.31      0.00
   17    5    5     -1.97      0.00
   19    5    5     -2.31      0.00
   21    5    5      0.42      0.00
   23    5    5     -0.42      0.00
   25    5    5      1.10      0.00
  -28    6    5     -0.03      0.00
  -26    6    5      0.67      0.00
  -24    6    5      0.83      0.00
  -22    6    5     -1.52      0.00
  -20    6    5      2.14      0.00
  -18    6    5      0.79      0.00
  -16    6    5      0.92      0.00
  -14    6    5      9.43      0.00
  -12    6    5     -0.32      0.00
  -10    6    5     -6.22      0.00
   -8    6    5     -9.07      0.00
   -6    6    5     -5.76      0.00
   -4    6    5     19.51      0.00
   -2    6    5      3.86      0.00
    0    6    5    -11.60      0.00
    2    6    5      3.39      0.00
    4    6    5     10.98      0.00
    6    6    5      6.56      0.00
    8    6    5      2.58      0.00
   10    6    5      4.33      0.00
   12    6    5     -1.39      0.00
   14    6    5     -1.04      0.00
   16    6    5      3.78      0.00
   18    6    5      1.01      0.00
   20    6    5      0.72      0.00
   22    6    5      0.13      0.00
   24    6    5     -0.04      0.00
   26    6    5      0.68      0.00
  -27    7    5     -0.32      0.00
  -25    7    5      0.35      0.00
  -23    7    5     -1.38      0.00
  -21    7    5     -1.04      0.00
  -19    7    5      1.58      0.00
  -17    7    5     -2.95      0.00
  -15    7    5     -1.54      0.00
  -13    7    5      0.38      0.00
  -11    7    5     -1.55      0.00
   -9    7    5      2.52      0.00
   -7    7    5     -0.56      0.00
   -5    7    5      9.98      0.00
   -3    7    5      8.46      0.00
   -1    7    5    -21.95      0.00
    1    7    5     -9.26      0.00
    3    7    5      6.70      0.00
    5    7    5     -1.65      0.00
    7    7    5    -11.31      0.00
    9    7    5     -5.29      0.00
   11    7    5      0.91      0.00
   13    7    5     -3.41      0.00
   15    7    5     -0.98      0.00
   17    7    5     -1.94      0.00
   19    7    5     -2.22      0.00
   21    7    5      0.16      0.00
   23    7    5      0.40      0.00
   25    7    5      0.37      0.00
  -26    8    5     -0.11      0.00
  -24    8    5      0.82      0.00
  -22    8    5      0.32      0.00
  -20    8    5      1.57      0.00
  -18    8    5      1.09      0.00
  -16    8    5      1.44      0.00
  -14    8    5      5.48      0.00
  -12    8    5      1.66      0.00
  -10    8    5     -4.62      0.00
   -8    8    5     -8.10      0.00
   -6    8    5     -3.45      0.00
   -4    8    5     17.85      0.00
   -2    8    5      5.22      0.00
    0    8    5    -11.47      0.00
    2    8    5      0.92      0.00
    4    8    5      7.82      0.00
    6    8    5      5.41      0.00
    8    8    5      3.54      0.00
   10    8    5      4.58      0.00
   12    8    5      0.08      0.00
   14    8    5     -1.45      0.00
   16    8    5      3.22      0.00
   18    8    5      0.47      0.00
   20    8    5      0.27      0.00
   22    8    5      0.20      0.00
   24    8    5      0.30      0.00
  -27    9    5     -0.59      0.00
  -25    9    5     -0.69      0.00
  -23    9    5     -0.62      0.00
  -21    9    5     -0.41      0.00
  -19    9    5      0.34      0.00
  -17    9    5     -1.51      0.00
  -15    9    5     -3.15      0.00
  -13    9    5     -0.75      0.00
  -11    9    5      0.91      0.00
   -9    9    5      2.74      0.00
   -7    9    5      0.52      0.00
   -5    9    5      6.54      0.00
   -3    9    5      1.77      0.00
   -1    9    5    -12.42      0.00
    1    9    5     -7.27      0.00
    3    9    5      2.18      0.00
    5    9    5     -3.10      0.00
    7    9    5     -8.00      0.00
    9    9    5     -3.87      0.00
   11    9    5      0.80      0.00
   13    9    5     -2.21      0.00
   15    9    5     -1.53      0.00
   17    9    5     -1.54      0.00
   19    9    5     -2.56      0.00
   21    9    5     -0.23      0.00
   23    9    5     -0.05      0.00
  -26   10    5     -0.06      0.00
  -24   10    5      0.38      0.00
  -22   10    5      1.22      0.00
  -20   10    5      0.31      0.00
  -18   10    5      1.27      0.00
  -16   10    5      1.07      0.00
  -14   10    5      2.53      0.00
  -12   10    5      2.12      0.00
  -10   10    5     -1.27      0.00
   -8   10    5     -6.80      0.00
   -6   10    5     -1.82      0.00
   -4   10    5      6.03      0.00
   -2   10    5      5.55      0.00
    0   10    5     -1.62      0.00
    2   10    5     -2.77      0.00
    4   10    5      1.11      0.00
    6   10    5      5.18      0.00
    8   10    5      4.00      0.00
   10   10    5      4.49      0.00
   12   10    5      0.48      0.00
   14   10    5     -0.44      0.00
   16   10    5      1.78      0.00
   18   10    5      0.82      0.00
   20   10    5     -0.60      0.00
   22   10    5     -0.18      0.00
  -25   11    5     -0.83      0.00
  -23   11    5     -0.32      0.00
  -21   11    5     -0.48      0.00
  -19   11    5     -0.60      0.00
  -17   11    5     -0.39      0.00
  -15   11    5     -3.62      0.00
  -13   11    5     -2.17      0.00
  -11   11    5      2.52      0.00
   -9   11    5      2.79      0.00
   -7   11    5      3.67      0.00
   -5   11    5      0.15      0.00
   -3   11    5     -4.70      0.00
   -1   11    5     -2.86      0.00
    1   11    5     -1.80      0.00
    3   11    5     -4.57      0.00
    5   11    5     -3.73      0.00
    7   11    5     -4.56      0.00
    9   11    5     -3.18      0.00
   11   11    5      0.57      0.00
   13   11    5     -1.05      0.00
   15   11    5     -0.95      0.00
   17   11    5     -1.88      0.00
   19   11    5     -1.11      0.00
   21   11    5     -0.79      0.00
   23   11    5     -0.58      0.00
  -24   12    5      0.61      0.00
  -22   12    5      1.00      0.00
  -20   12    5     -0.11      0.00
  -18   12    5      1.01      0.00
  -16   12    5      1.82      0.00
  -14   12    5      0.18      0.00
  -12   12    5      2.78      0.00
  -10   12    5     -1.25      0.00
   -8   12    5     -3.06      0.00
   -6   12    5     -0.81      0.00
   -4   12    5     -1.09      0.00
   -2   12    5      4.77      0.00
    0   12    5      6.05      0.00
    2   12    5     -4.72      0.00
    4   12    5     -3.28      0.00
    6   12    5      4.95      0.00
    8   12    5      4.59      0.00
   10   12    5      3.56      0.00
   12   12    5      1.23      0.00
   14   12    5     -0.08      0.00
   16   12    5      1.27      0.00
   18   12    5      0.68      0.00
   20   12    5      0.48      0.00
   22   12    5     -0.89      0.00
  -23   13    5     -0.33      0.00
  -21   13    5     -0.68      0.00
  -19   13    5     -0.76      0.00
  -17   13    5      0.06      0.00
  -15   13    5     -2.84      0.00
  -13   13    5     -2.55      0.00
  -11   13    5      2.28      0.00
   -9   13    5      2.58      0.00
   -7   13    5      5.72      0.00
   -5   13    5     -2.40      0.00
   -3   13    5     -7.45      0.00
   -1   13    5      2.18      0.00
    1   13    5     -0.03      0.00
    3   13    5     -6.38      0.00
    5   13    5     -3.33      0.00
    7   13    5     -2.31      0.00
    9   13    5     -2.56      0.00
   11   13    5     -0.10      0.00
   13   13    5     -0.10      0.00
   15   13    5     -1.27      0.00
   17   13    5     -1.58      0.00
   19   13    5      0.02      0.00
   21   13    5     -0.38      0.00
  -22   14    5      0.48      0.00
  -20   14    5     -0.49      0.00
  -18   14    5      0.61      0.00
  -16   14    5      1.61      0.00
  -14   14    5      0.15      0.00
  -12   14    5      1.88      0.00
  -10   14    5     -1.06      0.00
   -8   14    5     -1.58      0.00
   -6   14    5      1.02      0.00
   -4   14    5     -4.33      0.00
   -2   14    5      4.15      0.00
    0   14    5      5.79      0.00
    2   14    5     -4.93      0.00
    4   14    5     -3.59      0.00
    6   14    5      3.91      0.00
    8   14    5      3.76      0.00
   10   14    5      2.62      0.00
   12   14    5      0.99      0.00
   14   14    5     -0.04      0.00
   16   14    5     -0.05      0.00
   18   14    5      0.98      0.00
   20   14    5      0.27      0.00
  -21   15    5     -0.69      0.00
  -19   15    5     -0.73      0.00
  -17   15    5     -0.15      0.00
  -15   15    5     -2.12      0.00
  -13   15    5     -1.87      0.00
  -11   15    5      0.83      0.00
   -9   15    5      2.21      0.00
   -7   15    5      5.20      0.00
   -5   15    5     -2.74      0.00
   -3   15    5     -6.10      0.00
   -1   15    5      1.75      0.00
    1   15    5     -0.82      0.00
    3   15    5     -4.98      0.00
    5   15    5     -1.85      0.00
    7   15    5     -2.14      0.00
    9   15    5     -2.38      0.00
   11   15    5     -0.16      0.00
   13   15    5     -0.36      0.00
   15   15    5     -1.45      0.00
   17   15    5     -1.58      0.00
  -18   16    5      0.44      0.00
  -16   16    5      1.07      0.00
  -14   16    5      0.75      0.00
  -12   16    5      0.84      0.00
  -10   16    5     -1.63      0.00
   -8   16    5     -0.40      0.00
   -6   16    5      0.30      0.00
   -4   16    5     -2.20      0.00
   -2   16    5      2.80      0.00
    0   16    5      3.21      0.00
    2   16    5     -3.73      0.00
    4   16    5     -1.90      0.00
    6   16    5      3.11      0.00
    8   16    5      1.99      0.00
   10   16    5      2.36      0.00
   12   16    5      0.74      0.00
   14   16    5     -0.31      0.00
   16   16    5     -0.10      0.00
  -17   17    5     -0.20      0.00
  -15   17    5     -1.24      0.00
  -13   17    5     -1.09      0.00
  -11   17    5     -0.02      0.00
   -9   17    5      1.71      0.00
   -7   17    5      3.26      0.00
   -5   17    5     -1.64      0.00
   -3   17    5     -2.53      0.00
   -1   17    5     -0.04      0.00
    1   17    5     -1.33      0.00
    3   17    5     -1.79      0.00
    5   17    5     -0.58      0.00
    7   17    5     -2.18      0.00
    9   17    5     -1.59      0.00
   11   17    5     -0.07      0.00
   13   17    5      0.04      0.00
   15   17    5     -0.88      0.00
  -16   18    5      0.84      0.00
  -14   18    5      1.18      0.00
  -12   18    5      0.40      0.00
  -10   18    5     -1.21      0.00
   -8   18    5     -0.57      0.00
   -6   18    5     -0.45      0.00
   -4   18    5     -0.02      0.00
   -2   18    5      1.55      0.00
    0   18    5      0.68      0.00
    2   18    5     -1.76      0.00
    4   18    5      0.18      0.00
    6   18    5      1.49      0.00
    8   18    5      1.90      0.00
   10   18    5      1.21      0.00
   12   18    5      0.61      0.00
  -13   19    5     -0.34      0.00
  -11   19    5     -0.49      0.00
   -9   19    5      1.44      0.00
   -7   19    5      0.33      0.00
   -5   19    5     -0.50      0.00
   -3   19    5     -1.01      0.00
   -1   19    5     -1.91      0.00
    1   19    5     -0.99      0.00
    3   19    5      0.75      0.00
    5   19    5     -0.46      0.00
    7   19    5     -1.48      0.00
    9   19    5     -1.35      0.00
   11   19    5     -0.31      0.00
  -10   20    5     -0.87      0.00
   -8   20    5     -1.13      0.00
   -6   20    5     -1.43      0.00
   -4   20    5      0.91      0.00
   -2   20    5     -0.08      0.00
    0   20    5     -0.65      0.00
    2   20    5      0.45      0.00
    4   20    5     -0.21      0.00
    6   20    5      1.49      0.00
   -3   21    5      0.13      0.00
   -1   21    5     -2.30      0.00
    1   21    5      0.23      0.00
  -28    0    6      0.15      0.00
  -26    0    6     -0.23      0.00
  -24    0    6     -0.91      0.00
  -22    0    6     -0.58      0.00
  -20    0    6      0.32      0.00
  -18    0    6      1.72      0.00
  -16    0    6      1.79      0.00
  -14    0    6     -1.69      0.00
  -12    0    6     -1.71      0.00
  -10    0    6    -11.04      0.00
   -8    0    6     -4.38      0.00
   -6    0    6     25.34      0.00
   -4    0    6     21.51      0.00
   -2    0    6    -32.77      0.00
    0    0    6    -30.27      0.00
    2    0    6     19.49      0.00
    4    0    6      6.69      0.00
    6    0    6      4.99      0.00
    8    0    6     17.54      0.00
   10    0    6     -6.15      0.00
   12    0    6      2.51      0.00
   14    0    6      1.70      0.00
   16    0    6      1.22      0.00
   18    0    6      2.75      0.00
   20    0    6      0.24      0.00
   22    0    6      0.05      0.00
   24    0    6     -0.06      0.00
   26    0    6     -0.26      0.00
  -29    1    6     -1.41      0.00
  -27    1    6     -0.04      0.00
  -25    1    6      0.21      0.00
  -23    1    6      0.07      0.00
  -21    1    6     -2.04      0.00
  -19    1    6     -0.68      0.00
  -17    1    6      1.51      0.00
  -15    1    6     -6.11      0.00
  -13    1    6     -4.82      0.00
  -11    1    6      3.36      0.00
   -9    1    6      2.93      0.00
   -7    1    6     23.30      0.00
   -5    1    6     37.30      0.00
   -3    1    6     -0.68      0.00
   -1    1    6    -43.02      0.00
    1    1    6     -7.71      0.00
    3    1    6     10.02      0.00
    5    1    6    -17.71      0.00
    7    1    6     -3.19      0.00
    9    1    6     -5.63      0.00
   11    1    6     -2.83      0.00
   13    1    6      2.88      0.00
   15    1    6     -6.80      0.00
   17    1    6     -1.92      0.00
   19    1    6      0.38      0.00
   21    1    6     -0.74      0.00
   23    1    6      0.38      0.00
   25    1    6     -0.08      0.00
  -28    2    6     -0.29      0.00
  -26    2    6     -0.58      0.00
  -24    2    6     -0.67      0.00
  -22    2    6      0.52      0.00
  -20    2    6     -0.81      0.00
  -18    2    6      1.97      0.00
  -16    2    6      1.35      0.00
  -14    2    6     -2.33      0.00
  -12    2    6      0.27      0.00
  -10    2    6     -8.96      0.00
   -8    2    6     -5.72      0.00
   -6    2    6     18.12      0.00
   -4    2    6      9.66      0.00
   -2    2    6    -19.38      0.00
    0    2    6    -24.06      0.00
    2    2    6     14.92      0.00
    4    2    6      4.13      0.00
    6    2    6      8.05      0.00
    8    2    6     14.78      0.00
   10    2    6     -4.32      0.00
   12    2    6      1.69      0.00
   14    2    6      1.65      0.00
   16    2    6      0.71      0.00
   18    2    6      2.62      0.00
   20    2    6     -0.13      0.00
   22    2    6      0.30      0.00
   24    2    6     -0.42      0.00
   26    2    6     -0.45      0.00
  -29    3    6     -0.78      0.00
  -27    3    6     -0.90      0.00
  -25    3    6     -0.40      0.00
  -23    3    6      1.36      0.00
  -21    3    6     -2.11      0.00
  -19    3    6     -1.17      0.00
  -17    3    6      0.98      0.00
  -15    3    6     -7.64      0.00
  -13    3    6     -2.15      0.00
  -11    3    6      5.93      0.00
   -9    3    6      4.62      0.00
   -7    3    6     17.16      0.00
   -5    3    6     17.16      0.00
   -3    3    6     -1.66      0.00
   -1    3    6    -18.06      0.00
    1    3    6     -7.67      0.00
    3    3    6      0.39      0.00
    5    3    6    -13.61      0.00
    7    3    6     -3.49      0.00
    9    3    6     -5.18      0.00
   11    3    6     -1.20      0.00
   13    3    6      1.58      0.00
   15    3    6     -5.70      0.00
   17    3    6     -1.78      0.00
   19    3    6     -0.77      0.00
   21    3    6     -0.09      0.00
   23    3    6     -0.05      0.00
   25    3    6     -0.53      0.00
  -28    4    6      0.04      0.00
  -26    4    6     -1.75      0.00
  -24    4    6      1.16      0.00
  -22    4    6      0.99      0.00
  -20    4    6     -1.81      0.00
  -18    4    6      2.39      0.00
  -16    4    6      0.26      0.00
  -14    4    6     -2.24      0.00
  -12    4    6      3.29      0.00
  -10    4    6     -5.12      0.00
   -8    4    6     -4.05      0.00
   -6    4    6     -0.72      0.00
   -4    4    6     -5.42      0.00
   -2    4    6     -0.16      0.00
    0    4    6     -3.15      0.00
    2    4    6     -0.66      0.00
    4    4    6      2.81      0.00
    6    4    6     10.90      0.00
    8    4    6     11.48      0.00
   10    4    6     -1.31      0.00
   12    4    6      2.66      0.00
   14    4    6      1.36      0.00
   16    4    6      1.89      0.00
   18    4    6      1.80      0.00
   20    4    6      0.28      0.00
   22    4    6      0.50      0.00
   24    4    6     -1.32      0.00
   26    4    6      0.18      0.00
  -27    5    6     -0.75      0.00
  -25    5    6     -0.85      0.00
  -23    5    6      1.99      0.00
  -21    5    6     -1.87      0.00
  -19    5    6     -1.49      0.00
  -17    5    6      0.47      0.00
  -15    5    6     -7.75      0.00
  -13    5    6     -0.53      0.00
  -11    5    6      8.19      0.00
   -9    5    6      6.18      0.00
   -7    5    6     11.83      0.00
   -5    5    6     -4.67      0.00
   -3    5    6     -1.05      0.00
   -1    5    6      7.27      0.00
    1    5    6     -4.61      0.00
    3    5    6    -10.38      0.00
    5    5    6     -8.79      0.00
    7    5    6     -3.31      0.00
    9    5    6     -4.63      0.00
   11    5    6      0.70      0.00
   13    5    6      1.10      0.00
   15    5    6     -3.46      0.00
   17    5    6     -1.78      0.00
   19    5    6     -0.63      0.00
   21    5    6     -0.26      0.00
   23    5    6      0.03      0.00
   25    5    6     -0.70      0.00
  -28    6    6      0.24      0.00
  -26    6    6     -0.84      0.00
  -24    6    6      0.96      0.00
  -22    6    6      1.35      0.00
  -20    6    6     -1.96      0.00
  -18    6    6      2.02      0.00
  -16    6    6      1.25      0.00
  -14    6    6     -2.75      0.00
  -12    6    6      4.04      0.00
  -10    6    6     -2.81      0.00
   -8    6    6     -3.62      0.00
   -6    6    6    -11.78      0.00
   -4    6    6    -16.64      0.00
   -2    6    6     13.85      0.00
    0    6    6      8.61      0.00
    2    6    6     -6.74      0.00
    4    6    6      0.29      0.00
    6    6    6     12.64      0.00
    8    6    6      8.29      0.00
   10    6    6     -0.33      0.00
   12    6    6      3.07      0.00
   14    6    6      1.75      0.00
   16    6    6      1.54      0.00
   18    6    6      2.17      0.00
   20    6    6      0.36      0.00
   22    6    6     -0.22      0.00
   24    6    6     -0.60      0.00
  -27    7    6     -0.16      0.00
  -25    7    6     -0.70      0.00
  -23    7    6      0.40      0.00
  -21    7    6     -1.40      0.00
  -19    7    6     -1.80      0.00
  -17    7    6      0.21      0.00
  -15    7    6     -5.72      0.00
  -13    7    6     -0.85      0.00
  -11    7    6      6.04      0.00
   -9    7    6      7.73      0.00
   -7    7    6      7.00      0.00
   -5    7    6    -11.04      0.00
   -3    7    6     -3.13      0.00
   -1    7    6     15.87      0.00
    1    7    6     -1.84      0.00
    3    7    6    -11.27      0.00
    5    7    6     -7.12      0.00
    7    7    6     -3.03      0.00
    9    7    6     -4.86      0.00
   11    7    6     -0.50      0.00
   13    7    6      1.91      0.00
   15    7    6     -3.27      0.00
   17    7    6     -1.23      0.00
   19    7    6     -0.59      0.00
   21    7    6     -0.52      0.00
   23    7    6     -0.46      0.00
   25    7    6     -0.18      0.00
  -26    8    6      0.34      0.00
  -24    8    6      0.32      0.00
  -22    8    6      0.24      0.00
  -20    8    6     -1.03      0.00
  -18    8    6      1.45      0.00
  -16    8    6      1.82      0.00
  -14    8    6     -0.60      0.00
  -12    8    6      0.36      0.00
  -10    8    6     -1.63      0.00
   -8    8    6     -3.65      0.00
   -6    8    6    -12.44      0.00
   -4    8    6    -13.50      0.00
   -2    8    6     10.77      0.00
    0    8    6      9.69      0.00
    2    8    6     -4.39      0.00
    4    8    6      0.65      0.00
    6    8    6     10.22      0.00
    8    8    6      6.02      0.00
   10    8    6     -0.58      0.00
   12    8    6      2.46      0.00
   14    8    6      2.06      0.00
   16    8    6      1.07      0.00
   18    8    6      2.61      0.00
   20    8    6      0.33      0.00
   22    8    6     -0.30      0.00
   24    8    6     -0.44      0.00
  -27    9    6      0.30      0.00
  -25    9    6     -0.28      0.00
  -23    9    6     -0.86      0.00
  -21    9    6     -0.99      0.00
  -19    9    6     -1.30      0.00
  -17    9    6     -0.38      0.00
  -15    9    6     -2.33      0.00
  -13    9    6     -2.10      0.00
  -11    9    6      2.70      0.00
   -9    9    6      7.35      0.00
   -7    9    6      6.35      0.00
   -5    9    6     -5.64      0.00
   -3    9    6     -1.31      0.00
   -1    9    6      6.77      0.00
    1    9    6      2.44      0.00
    3    9    6     -6.08      0.00
    5    9    6     -6.14      0.00
    7    9    6     -3.80      0.00
    9    9    6     -4.76      0.00
   11    9    6     -0.86      0.00
   13    9    6      1.36      0.00
   15    9    6     -1.98      0.00
   17    9    6     -1.34      0.00
   19    9    6      0.44      0.00
   21    9    6     -0.35      0.00
   23    9    6     -0.07      0.00
  -26   10    6      0.83      0.00
  -24   10    6      0.31      0.00
  -22   10    6     -0.06      0.00
  -20   10    6      0.47      0.00
  -18   10    6      0.45      0.00
  -16   10    6      2.85      0.00
  -14   10    6      0.70      0.00
  -12   10    6     -1.60      0.00
  -10   10    6     -3.15      0.00
   -8   10    6     -3.03      0.00
   -6   10    6     -7.82      0.00
   -4   10    6     -3.45      0.00
   -2   10    6      2.49      0.00
    0   10    6      4.19      0.00
    2   10    6      2.80      0.00
    4   10    6      2.60      0.00
    6   10    6      6.07      0.00
    8   10    6      4.71      0.00
   10   10    6     -0.30      0.00
   12   10    6      1.60      0.00
   14   10    6      1.32      0.00
   16   10    6      1.78      0.00
   18   10    6      1.69      0.00
   20   10    6      1.24      0.00
   22   10    6      0.18      0.00
  -25   11    6     -0.08      0.00
  -23   11    6     -1.03      0.00
  -21   11    6     -0.28      0.00
  -19   11    6     -0.89      0.00
  -17   11    6     -1.01      0.00
  -15   11    6     -0.06      0.00
  -13   11    6     -2.09      0.00
  -11   11    6      0.20      0.00
   -9   11    6      6.14      0.00
   -7   11    6      4.10      0.00
   -5   11    6      2.79      0.00
   -3   11    6     -0.86      0.00
   -1   11    6     -2.30      0.00
    1   11    6      3.40      0.00
    3   11    6      1.61      0.00
    5   11    6     -5.72      0.00
    7   11    6     -4.90      0.00
    9   11    6     -3.70      0.00
   11   11    6     -1.40      0.00
   13   11    6      0.54      0.00
   15   11    6     -1.47      0.00
   17   11    6     -1.00      0.00
   19   11    6     -0.12      0.00
   21   11    6      0.54      0.00
  -24   12    6      0.23      0.00
  -22   12    6      0.27      0.00
  -20   12    6      0.75      0.00
  -18   12    6      0.04      0.00
  -16   12    6      2.03      0.00
  -14   12    6      2.43      0.00
  -12   12    6     -2.81      0.00
  -10   12    6     -2.47      0.00
   -8   12    6     -5.45      0.00
   -6   12    6     -3.13      0.00
   -4   12    6      1.75      0.00
   -2   12    6     -2.70      0.00
    0   12    6     -0.54      0.00
    2   12    6      7.18      0.00
    4   12    6      3.87      0.00
    6   12    6      2.48      0.00
    8   12    6      3.29      0.00
   10   12    6      0.62      0.00
   12   12    6      0.01      0.00
   14   12    6      1.27      0.00
   16   12    6      1.49      0.00
   18   12    6      0.83      0.00
   20   12    6      0.36      0.00
  -23   13    6     -0.51      0.00
  -21   13    6      0.04      0.00
  -19   13    6     -0.63      0.00
  -17   13    6     -1.37      0.00
  -15   13    6      0.41      0.00
  -13   13    6     -1.39      0.00
  -11   13    6     -0.01      0.00
   -9   13    6      3.87      0.00
   -7   13    6      1.86      0.00
   -5   13    6      5.82      0.00
   -3   13    6     -0.02      0.00
   -1   13    6     -6.13      0.00
    1   13    6      4.01      0.00
    3   13    6      4.24      0.00
    5   13    6     -4.64      0.00
    7   13    6     -4.97      0.00
    9   13    6     -2.91      0.00
   11   13    6     -1.05      0.00
   13   13    6     -0.29      0.00
   15   13    6     -0.28      0.00
   17   13    6     -1.21      0.00
   19   13    6     -0.59      0.00
  -22   14    6      0.57      0.00
  -20   14    6      0.86      0.00
  -18   14    6      0.11      0.00
  -16   14    6      1.33      0.00
  -14   14    6      2.09      0.00
  -12   14    6     -1.61      0.00
  -10   14    6     -2.48      0.00
   -8   14    6     -5.53      0.00
   -6   14    6     -1.72      0.00
   -4   14    6      3.84      0.00
   -2   14    6     -3.69      0.00
    0   14    6     -0.16      0.00
    2   14    6      7.28      0.00
    4   14    6      2.96      0.00
    6   14    6      1.60      0.00
    8   14    6      2.41      0.00
   10   14    6      1.10      0.00
   12   14    6     -0.02      0.00
   14   14    6      1.08      0.00
   16   14    6      2.02      0.00
   18   14    6     -0.26      0.00
  -21   15    6      0.21      0.00
  -19   15    6     -0.23      0.00
  -17   15    6     -1.05      0.00
  -15   15    6      0.17      0.00
  -13   15    6     -0.79      0.00
  -11   15    6      0.98      0.00
   -9   15    6      1.89      0.00
   -7   15    6      1.08      0.00
   -5   15    6      5.27      0.00
   -3   15    6      0.14      0.00
   -1   15    6     -4.05      0.00
    1   15    6      3.77      0.00
    3   15    6      3.27      0.00
    5   15    6     -3.31      0.00
    7   15    6     -3.39      0.00
    9   15    6     -2.03      0.00
   11   15    6     -0.87      0.00
   13   15    6      0.11      0.00
   15   15    6      0.33      0.00
   17   15    6     -0.59      0.00
  -18   16    6      0.16      0.00
  -16   16    6      0.97      0.00
  -14   16    6      1.23      0.00
  -12   16    6     -0.27      0.00
  -10   16    6     -1.74      0.00
   -8   16    6     -4.66      0.00
   -6   16    6     -0.69      0.00
   -4   16    6      1.44      0.00
   -2   16    6     -1.98      0.00
    0   16    6      1.34      0.00
    2   16    6      4.30      0.00
    4   16    6      1.76      0.00
    6   16    6      1.39      0.00
    8   16    6      2.39      0.00
   10   16    6      0.53      0.00
   12   16    6      0.07      0.00
   14   16    6      1.16      0.00
   16   16    6      1.43      0.00
  -17   17    6     -0.67      0.00
  -15   17    6     -0.52      0.00
  -13   17    6     -0.13      0.00
  -11   17    6      1.09      0.00
   -9   17    6      1.00      0.00
   -7   17    6      1.06      0.00
   -5   17    6      2.60      0.00
   -3   17    6     -0.38      0.00
   -1   17    6     -1.34      0.00
    1   17    6      2.18      0.00
    3   17    6      1.00      0.00
    5   17    6     -2.13      0.00
    7   17    6     -1.96      0.00
    9   17    6     -1.68      0.00
   11   17    6     -0.73      0.00
   13   17    6     -0.30      0.00
   15   17    6      0.08      0.00
  -14   18    6      0.48      0.00
  -12   18    6      0.10      0.00
  -10   18    6     -1.52      0.00
   -8   18    6     -2.23      0.00
   -6   18    6     -0.85      0.00
   -4   18    6     -0.45      0.00
   -2   18    6      0.18      0.00
    0   18    6      1.57      0.00
    2   18    6      1.43      0.00
    4   18    6      0.19      0.00
    6   18    6      2.11      0.00
    8   18    6      1.25      0.00
   10   18    6      0.62      0.00
   12   18    6     -0.19      0.00
  -13   19    6     -0.13      0.00
  -11   19    6      1.04      0.00
   -9   19    6      0.58      0.00
   -7   19    6      2.17      0.00
   -5   19    6      0.48      0.00
   -3   19    6      0.74      0.00
   -1   19    6      0.40      0.00
    1   19    6      0.23      0.00
    3   19    6     -0.28      0.00
    5   19    6     -1.05      0.00
    7   19    6     -1.40      0.00
    9   19    6     -0.68      0.00
   -8   20    6     -0.48      0.00
   -6   20    6     -0.36      0.00
   -4   20    6     -0.90      0.00
   -2   20    6      1.64      0.00
    0   20    6      1.04      0.00
    2   20    6     -0.89      0.00
    4   20    6      0.88      0.00
    6   20    6      0.89      0.00
  -28    0    7      0.04      0.00
  -26    0    7     -0.64      0.00
  -24    0    7     -0.37      0.00
  -22    0    7      2.11      0.00
  -20    0    7     -0.01      0.00
  -18    0    7     -1.66      0.00
  -16    0    7      4.24      0.00
  -14    0    7      3.64      0.00
  -12    0    7     -2.91      0.00
  -10    0    7     -1.30      0.00
   -8    0    7    -23.87      0.00
   -6    0    7    -38.17      0.00
   -4    0    7     -4.86      0.00
   -2    0    7     39.30      0.00
    0    0    7     13.13      0.00
    2    0    7    -12.53      0.00
    4    0    7     13.48      0.00
    6    0    7      9.98      0.00
    8    0    7      3.29      0.00
   10    0    7      3.98      0.00
   12    0    7     -2.24      0.00
   14    0    7      4.95      0.00
   16    0    7      1.73      0.00
   18    0    7     -0.24      0.00
   20    0    7      0.33      0.00
   22    0    7      0.35      0.00
   24    0    7     -0.83      0.00
   26    0    7      0.63      0.00
  -29    1    7      0.22      0.00
  -27    1    7      0.14      0.00
  -25    1    7      1.01      0.00
  -23    1    7      0.95      0.00
  -21    1    7      0.39      0.00
  -19    1    7     -1.32      0.00
  -17    1    7      0.11      0.00
  -15    1    7      2.60      0.00
  -13    1    7     -0.16      0.00
  -11    1    7      7.25      0.00
   -9    1    7      5.62      0.00
   -7    1    7    -17.31      0.00
   -5    1    7     -6.07      0.00
   -3    1    7     29.01      0.00
   -1    1    7     31.25      0.00
    1    1    7    -12.07      0.00
    3    1    7    -11.51      0.00
    5    1    7     -2.58      0.00
    7    1    7    -14.96      0.00
    9    1    7      1.83      0.00
   11    1    7      0.68      0.00
   13    1    7     -2.49      0.00
   15    1    7     -0.82      0.00
   17    1    7     -1.51      0.00
   19    1    7     -1.34      0.00
   21    1    7     -0.02      0.00
   23    1    7     -0.01      0.00
   25    1    7      0.24      0.00
  -28    2    7      0.71      0.00
  -26    2    7     -0.50      0.00
  -24    2    7     -0.59      0.00
  -22    2    7      1.41      0.00
  -20    2    7      0.97      0.00
  -18    2    7     -1.53      0.00
  -16    2    7      4.81      0.00
  -14    2    7      3.09      0.00
  -12    2    7     -4.74      0.00
  -10    2    7     -1.97      0.00
   -8    2    7    -19.15      0.00
   -6    2    7    -29.80      0.00
   -4    2    7     -1.34      0.00
   -2    2    7     24.17      0.00
    0    2    7     13.38      0.00
    2    2    7     -7.97      0.00
    4    2    7     13.07      0.00
    6    2    7      7.98      0.00
    8    2    7      4.48      0.00
   10    2    7      2.68      0.00
   12    2    7     -0.64      0.00
   14    2    7      4.14      0.00
   16    2    7      2.50      0.00
   18    2    7     -0.13      0.00
   20    2    7      0.46      0.00
   22    2    7      0.31      0.00
   24    2    7     -0.52      0.00
   26    2    7      0.70      0.00
  -29    3    7      0.07      0.00
  -27    3    7      1.24      0.00
  -25    3    7      0.19      0.00
  -23    3    7     -0.30      0.00
  -21    3    7      1.66      0.00
  -19    3    7     -1.21      0.00
  -17    3    7      0.08      0.00
  -15    3    7      3.58      0.00
  -13    3    7     -3.02      0.00
  -11    3    7      4.40      0.00
   -9    3    7      6.12      0.00
   -7    3    7     -3.96      0.00
   -5    3    7      6.30      0.00
   -3    3    7     14.64      0.00
   -1    3    7     13.84      0.00
    1    3    7     -1.94      0.00
    3    3    7     -6.91      0.00
    5    3    7     -7.08      0.00
    7    3    7    -12.53      0.00
    9    3    7      0.48      0.00
   11    3    7      0.04      0.00
   13    3    7     -1.80      0.00
   15    3    7     -0.88      0.00
   17    3    7     -1.30      0.00
   19    3    7     -0.87      0.00
   21    3    7     -0.57      0.00
   23    3    7      0.88      0.00
   25    3    7      0.23      0.00
  -28    4    7      0.62      0.00
  -26    4    7      0.78      0.00
  -24    4    7     -2.14      0.00
  -22    4    7      1.42      0.00
  -20    4    7      1.89      0.00
  -18    4    7     -1.43      0.00
  -16    4    7      5.84      0.00
  -14    4    7      1.12      0.00
  -12    4    7     -7.57      0.00
  -10    4    7     -3.41      0.00
   -8    4    7    -13.45      0.00
   -6    4    7     -9.13      0.00
   -4    4    7     -1.38      0.00
   -2    4    7      0.49      0.00
    0    4    7      6.45      0.00
    2    4    7      6.83      0.00
    4    4    7      9.01      0.00
    6    4    7      5.78      0.00
    8    4    7      4.27      0.00
   10    4    7      0.85      0.00
   12    4    7     -0.82      0.00
   14    4    7      3.30      0.00
   16    4    7      1.65      0.00
   18    4    7      0.86      0.00
   20    4    7      0.08      0.00
   22    4    7      0.19      0.00
   24    4    7      0.47      0.00
  -27    5    7      1.16      0.00
  -25    5    7     -0.29      0.00
  -23    5    7     -1.20      0.00
  -21    5    7      2.37      0.00
  -19    5    7     -1.16      0.00
  -17    5    7     -0.42      0.00
  -15    5    7      3.69      0.00
  -13    5    7     -4.11      0.00
  -11    5    7      0.49      0.00
   -9    5    7      6.61      0.00
   -7    5    7      8.43      0.00
   -5    5    7     19.07      0.00
   -3    5    7     -2.18      0.00
   -1    5    7     -3.89      0.00
    1    5    7      5.98      0.00
    3    5    7     -0.31      0.00
    5    5    7    -11.62      0.00
    7    5    7    -10.00      0.00
    9    5    7     -0.56      0.00
   11    5    7     -1.87      0.00
   13    5    7     -1.64      0.00
   15    5    7     -1.57      0.00
   17    5    7     -1.15      0.00
   19    5    7     -1.27      0.00
   21    5    7     -0.14      0.00
   23    5    7      0.74      0.00
   25    5    7      0.20      0.00
  -28    6    7      0.33      0.00
  -26    6    7      0.47      0.00
  -24    6    7     -1.20      0.00
  -22    6    7      0.80      0.00
  -20    6    7      2.25      0.00
  -18    6    7     -0.75      0.00
  -16    6    7      4.15      0.00
  -14    6    7      1.71      0.00
  -12    6    7     -7.84      0.00
  -10    6    7     -4.83      0.00
   -8    6    7     -8.30      0.00
   -6    6    7      3.12      0.00
   -4    6    7      0.90      0.00
   -2    6    7    -16.12      0.00
    0    6    7      1.63      0.00
    2    6    7     13.09      0.00
    4    6    7      7.91      0.00
    6    6    7      3.06      0.00
    8    6    7      4.67      0.00
   10    6    7      0.63      0.00
   12    6    7     -1.40      0.00
   14    6    7      2.14      0.00
   16    6    7      1.86      0.00
   18    6    7      0.49      0.00
   20    6    7      0.35      0.00
   22    6    7      0.65      0.00
   24    6    7     -0.14      0.00
  -27    7    7      0.23      0.00
  -25    7    7     -0.14      0.00
  -23    7    7     -0.15      0.00
  -21    7    7      1.49      0.00
  -19    7    7     -0.64      0.00
  -17    7    7     -1.40      0.00
  -15    7    7      2.64      0.00
  -13    7    7     -2.27      0.00
  -11    7    7      0.12      0.00
   -9    7    7      4.97      0.00
   -7    7    7     14.76      0.00
   -5    7    7     19.70      0.00
   -3    7    7     -4.96      0.00
   -1    7    7    -11.44      0.00
    1    7    7      6.73      0.00
    3    7    7      1.33      0.00
    5    7    7    -10.84      0.00
    7    7    7     -7.98      0.00
    9    7    7     -0.03      0.00
   11    7    7     -1.70      0.00
   13    7    7     -2.39      0.00
   15    7    7     -0.45      0.00
   17    7    7     -1.93      0.00
   19    7    7     -0.88      0.00
   21    7    7      0.37      0.00
   23    7    7      0.59      0.00
  -26    8    7      0.01      0.00
  -24    8    7      0.35      0.00
  -22    8    7      0.99      0.00
  -20    8    7      1.78      0.00
  -18    8    7     -0.35      0.00
  -16    8    7      2.12      0.00
  -14    8    7      1.51      0.00
  -12    8    7     -3.35      0.00
  -10    8    7     -6.75      0.00
   -8    8    7     -6.19      0.00
   -6    8    7      3.57      0.00
   -4    8    7      0.13      0.00
   -2    8    7    -12.69      0.00
    0    8    7     -2.40      0.00
    2    8    7     10.43      0.00
    4    8    7      7.45      0.00
    6    8    7      2.88      0.00
    8    8    7      4.67      0.00
   10    8    7      1.38      0.00
   12    8    7     -1.86      0.00
   14    8    7      1.43      0.00
   16    8    7      2.02      0.00
   18    8    7     -0.29      0.00
   20    8    7      0.78      0.00
   22    8    7      0.60      0.00
   24    8    7      0.03      0.00
  -27    9    7     -0.76      0.00
  -25    9    7      0.09      0.00
  -23    9    7      0.55      0.00
  -21    9    7      0.29      0.00
  -19    9    7     -0.43      0.00
  -17    9    7     -1.76      0.00
  -15    9    7      0.27      0.00
  -13    9    7      0.93      0.00
  -11    9    7      1.02      0.00
   -9    9    7      3.70      0.00
   -7    9    7     11.08      0.00
   -5    9    7     12.45      0.00
   -3    9    7     -1.92      0.00
   -1    9    7     -5.60      0.00
    1    9    7     -0.93      0.00
    3    9    7      0.39      0.00
    5    9    7     -7.29      0.00
    7    9    7     -6.04      0.00
    9    9    7      0.09      0.00
   11    9    7     -1.67      0.00
   13    9    7     -1.86      0.00
   15    9    7     -1.05      0.00
   17    9    7     -1.61      0.00
   19    9    7     -1.53      0.00
   21    9    7      0.32      0.00
   23    9    7     -0.11      0.00
  -26   10    7     -0.35      0.00
  -24   10    7      0.73      0.00
  -22   10    7      0.65      0.00
  -20   10    7      0.86      0.00
  -18   10    7      0.58      0.00
  -16   10    7     -0.47      0.00
  -14   10    7      2.06      0.00
  -12   10    7     -0.44      0.00
  -10   10    7     -5.75      0.00
   -8   10    7     -6.64      0.00
   -6   10    7     -1.80      0.00
   -4   10    7     -2.93      0.00
   -2   10    7     -2.35      0.00
    0   10    7     -3.58      0.00
    2   10    7      2.14      0.00
    4   10    7      6.68      0.00
    6   10    7      4.31      0.00
    8   10    7      3.68      0.00
   10   10    7      1.54      0.00
   12   10    7     -1.48      0.00
   14   10    7      1.15      0.00
   16   10    7      1.27      0.00
   18   10    7     -0.09      0.00
   20   10    7     -0.43      0.00
   22   10    7      0.43      0.00
  -25   11    7     -0.21      0.00
  -23   11    7      0.37      0.00
  -21   11    7     -0.65      0.00
  -19   11    7     -0.06      0.00
  -17   11    7     -1.48      0.00
  -15   11    7     -1.59      0.00
  -13   11    7      2.19      0.00
  -11   11    7      2.38      0.00
   -9   11    7      3.21      0.00
   -7   11    7      7.30      0.00
   -5   11    7      3.26      0.00
   -3   11    7      3.75      0.00
   -1   11    7     -0.10      0.00
    1   11    7     -6.33      0.00
    3   11    7     -3.37      0.00
    5   11    7     -2.83      0.00
    7   11    7     -3.90      0.00
    9   11    7     -1.06      0.00
   11   11    7     -0.16      0.00
   13   11    7     -1.40      0.00
   15   11    7     -1.14      0.00
   17   11    7     -1.11      0.00
   19   11    7     -1.01      0.00
   21   11    7     -0.67      0.00
  -24   12    7      0.47      0.00
  -22   12    7      0.20      0.00
  -20   12    7      0.70      0.00
  -18   12    7      0.98      0.00
  -16   12    7     -0.88      0.00
  -14   12    7      0.65      0.00
  -12   12    7      1.37      0.00
  -10   12    7     -5.03      0.00
   -8   12    7     -3.63      0.00
   -6   12    7     -6.33      0.00
   -4   12    7     -3.09      0.00
   -2   12    7      3.97      0.00
    0   12    7     -2.87      0.00
    2   12    7     -3.58      0.00
    4   12    7      5.02      0.00
    6   12    7      5.64      0.00
    8   12    7      2.81      0.00
   10   12    7      0.95      0.00
   12   12    7      0.10      0.00
   14   12    7      0.05      0.00
   16   12    7      1.72      0.00
   18   12    7      0.17      0.00
   20   12    7     -0.09      0.00
  -23   13    7     -0.30      0.00
  -21   13    7     -0.65      0.00
  -19   13    7      0.02      0.00
  -17   13    7     -0.72      0.00
  -15   13    7     -2.01      0.00
  -13   13    7      1.68      0.00
  -11   13    7      2.30      0.00
   -9   13    7      4.35      0.00
   -7   13    7      4.45      0.00
   -5   13    7     -0.30      0.00
   -3   13    7      5.09      0.00
   -1   13    7      2.24      0.00
    1   13    7     -8.43      0.00
    3   13    7     -4.21      0.00
    5   13    7     -0.67      0.00
    7   13    7     -2.31      0.00
    9   13    7     -1.57      0.00
   11   13    7      0.13      0.00
   13   13    7     -0.68      0.00
   15   13    7     -1.72      0.00
   17   13    7      0.08      0.00
   19   13    7     -0.51      0.00
  -22   14    7     -0.09      0.00
  -20   14    7      0.36      0.00
  -18   14    7      0.92      0.00
  -16   14    7     -0.62      0.00
  -14   14    7      0.22      0.00
  -12   14    7      0.33      0.00
  -10   14    7     -2.61      0.00
   -8   14    7     -2.32      0.00
   -6   14    7     -6.43      0.00
   -4   14    7     -3.37      0.00
   -2   14    7      4.33      0.00
    0   14    7     -2.87      0.00
    2   14    7     -4.58      0.00
    4   14    7      3.81      0.00
    6   14    7      4.36      0.00
    8   14    7      2.29      0.00
   10   14    7      0.33      0.00
   12   14    7      0.11      0.00
   14   14    7     -0.33      0.00
   16   14    7      0.85      0.00
   18   14    7      0.77      0.00
  -21   15    7     -0.68      0.00
  -19   15    7     -0.25      0.00
  -17   15    7     -0.30      0.00
  -15   15    7     -1.52      0.00
  -13   15    7      0.69      0.00
  -11   15    7      1.45      0.00
   -9   15    7      4.53      0.00
   -7   15    7      2.51      0.00
   -5   15    7     -0.48      0.00
   -3   15    7      3.93      0.00
   -1   15    7      0.23      0.00
    1   15    7     -6.92      0.00
    3   15    7     -3.03      0.00
    5   15    7     -0.77      0.00
    7   15    7     -1.76      0.00
    9   15    7     -1.61      0.00
   11   15    7      0.01      0.00
   13   15    7     -0.95      0.00
   15   15    7     -1.66      0.00
   17   15    7      0.05      0.00
  -18   16    7      0.61      0.00
  -16   16    7     -0.33      0.00
  -14   16    7     -0.09      0.00
  -12   16    7     -0.71      0.00
  -10   16    7     -1.21      0.00
   -8   16    7     -1.46      0.00
   -6   16    7     -4.71      0.00
   -4   16    7     -1.69      0.00
   -2   16    7      2.01      0.00
    0   16    7     -2.57      0.00
    2   16    7     -2.00      0.00
    4   16    7      1.89      0.00
    6   16    7      2.97      0.00
    8   16    7      1.23      0.00
   10   16    7      0.48      0.00
   12   16    7      0.10      0.00
   14   16    7     -0.68      0.00
   16   16    7      0.69      0.00
  -17   17    7     -0.19      0.00
  -15   17    7     -0.51      0.00
  -13   17    7     -0.28      0.00
  -11   17    7      1.37      0.00
   -9   17    7      2.93      0.00
   -7   17    7      2.00      0.00
   -5   17    7      1.26      0.00
   -3   17    7      2.29      0.00
   -1   17    7     -1.41      0.00
    1   17    7     -3.59      0.00
    3   17    7     -1.36      0.00
    5   17    7     -1.30      0.00
    7   17    7     -1.49      0.00
    9   17    7     -0.79      0.00
   11   17    7      0.04      0.00
   13   17    7     -0.38      0.00
  -14   18    7     -0.15      0.00
  -12   18    7     -0.75      0.00
  -10   18    7     -0.20      0.00
   -8   18    7     -1.90      0.00
   -6   18    7     -2.04      0.00
   -4   18    7     -1.09      0.00
   -2   18    7     -0.31      0.00
    0   18    7     -0.56      0.00
    2   18    7     -0.45      0.00
    4   18    7      1.53      0.00
    6   18    7      1.06      0.00
    8   18    7      1.18      0.00
   10   18    7      0.19      0.00
   12   18    7      0.47      0.00
  -11   19    7      0.72      0.00
   -9   19    7      1.36      0.00
   -7   19    7      0.84      0.00
   -5   19    7      2.11      0.00
   -3   19    7     -0.43      0.00
   -1   19    7     -1.36      0.00
    1   19    7     -0.74      0.00
    3   19    7     -0.60      0.00
    5   19    7     -1.44      0.00
    7   19    7     -1.12      0.00
    9   19    7     -0.76      0.00
   -8   20    7     -1.72      0.00
   -6   20    7     -1.01      0.00
   -4   20    7     -1.14      0.00
   -2   20    7     -1.22      0.00
    0   20    7      0.78      0.00
    2   20    7      0.74      0.00
    4   20    7      0.03      0.00
  -28    0    8      0.10      0.00
  -26    0    8     -0.98      0.00
  -24    0    8     -1.46      0.00
  -22    0    8     -0.82      0.00
  -20    0    8      1.67      0.00
  -18    0    8     -1.41      0.00
  -16    0    8     -3.20      0.00
  -14    0    8      0.60      0.00
  -12    0    8     -4.08      0.00
  -10    0    8     -4.10      0.00
   -8    0    8     16.30      0.00
   -6    0    8      1.41      0.00
   -4    0    8    -31.36      0.00
   -2    0    8    -32.75      0.00
    0    0    8      7.15      0.00
    2    0    8     14.59      0.00
    4    0    8      1.19      0.00
    6    0    8      9.43      0.00
    8    0    8      2.51      0.00
   10    0    8     -3.25      0.00
   12    0    8      2.44      0.00
   14    0    8      0.61      0.00
   16    0    8      0.59      0.00
   18    0    8      1.93      0.00
   20    0    8      0.28      0.00
   22    0    8     -0.01      0.00
   24    0    8      0.07      0.00
  -29    1    8     -0.63      0.00
  -27    1    8      1.19      0.00
  -25    1    8      0.58      0.00
  -23    1    8     -1.65      0.00
  -21    1    8      0.02      0.00
  -19    1    8      1.52      0.00
  -17    1    8     -3.20      0.00
  -15    1    8     -2.65      0.00
  -13    1    8      2.92      0.00
  -11    1    8      0.05      0.00
   -9    1    8     17.78      0.00
   -7    1    8     33.48      0.00
   -5    1    8      3.50      0.00
   -3    1    8    -27.02      0.00
   -1    1    8    -15.20      0.00
    1    1    8     10.42      0.00
    3    1    8     -7.28      0.00
    5    1    8    -13.28      0.00
    7    1    8     -3.53      0.00
    9    1    8     -2.79      0.00
   11    1    8     -0.67      0.00
   13    1    8     -2.55      0.00
   15    1    8     -1.36      0.00
   17    1    8      0.43      0.00
   19    1    8      0.11      0.00
   21    1    8     -1.09      0.00
   23    1    8      1.50      0.00
   25    1    8     -0.71      0.00
  -28    2    8     -0.80      0.00
  -26    2    8     -0.35      0.00
  -24    2    8     -1.07      0.00
  -22    2    8     -1.01      0.00
  -20    2    8      0.96      0.00
  -18    2    8     -1.05      0.00
  -16    2    8     -3.67      0.00
  -14    2    8      1.46      0.00
  -12    2    8     -2.38      0.00
  -10    2    8     -4.92      0.00
   -8    2    8      8.68      0.00
   -6    2    8     -3.35      0.00
   -4    2    8    -26.31      0.00
   -2    2    8    -21.24      0.00
    0    2    8      1.14      0.00
    2    2    8     12.19      0.00
    4    2    8      3.00      0.00
    6    2    8      9.64      0.00
    8    2    8      1.61      0.00
   10    2    8     -2.24      0.00
   12    2    8      0.85      0.00
   14    2    8      1.17      0.00
   16    2    8     -0.39      0.00
   18    2    8      2.15      0.00
   20    2    8      0.31      0.00
   22    2    8     -0.39      0.00
   24    2    8      0.08      0.00
  -29    3    8     -0.64      0.00
  -27    3    8      0.04      0.00
  -25    3    8      1.54      0.00
  -23    3    8     -0.91      0.00
  -21    3    8     -1.51      0.00
  -19    3    8      1.36      0.00
  -17    3    8     -3.48      0.00
  -15    3    8     -2.26      0.00
  -13    3    8      5.94      0.00
  -11    3    8      0.45      0.00
   -9    3    8     12.33      0.00
   -7    3    8     18.94      0.00
   -5    3    8      2.18      0.00
   -3    3    8     -8.63      0.00
   -1    3    8     -8.72      0.00
    1    3    8     -1.50      0.00
    3    3    8     -6.33      0.00
    5    3    8     -9.24      0.00
    7    3    8     -4.21      0.00
    9    3    8     -1.56      0.00
   11    3    8     -1.18      0.00
   13    3    8     -2.09      0.00
   15    3    8     -1.68      0.00
   17    3    8     -0.13      0.00
   19    3    8     -0.07      0.00
   21    3    8     -0.58      0.00
   23    3    8      0.40      0.00
   25    3    8     -0.39      0.00
  -28    4    8     -1.01      0.00
  -26    4    8     -0.53      0.00
  -24    4    8      0.85      0.00
  -22    4    8     -2.38      0.00
  -20    4    8      0.42      0.00
  -18    4    8      0.15      0.00
  -16    4    8     -4.63      0.00
  -14    4    8      3.63      0.00
  -12    4    8      1.00      0.00
  -10    4    8     -6.17      0.00
   -8    4    8     -3.20      0.00
   -6    4    8    -15.57      0.00
   -4    4    8    -10.22      0.00
   -2    4    8     -3.56      0.00
    0    4    8     -4.88      0.00
    2    4    8      2.18      0.00
    4    4    8      9.10      0.00
    6    4    8      8.62      0.00
    8    4    8      2.22      0.00
   10    4    8     -0.60      0.00
   12    4    8      1.21      0.00
   14    4    8      0.72      0.00
   16    4    8      0.20      0.00
   18    4    8      1.49      0.00
   20    4    8      0.62      0.00
   22    4    8     -0.60      0.00
   24    4    8     -0.49      0.00
  -27    5    8     -0.28      0.00
  -25    5    8      1.64      0.00
  -23    5    8     -0.15      0.00
  -21    5    8     -2.61      0.00
  -19    5    8      1.09      0.00
  -17    5    8     -2.90      0.00
  -15    5    8     -1.78      0.00
  -13    5    8      6.98      0.00
  -11    5    8      2.81      0.00
   -9    5    8      5.96      0.00
   -7    5    8      5.21      0.00
   -5    5    8     -0.05      0.00
   -3    5    8     12.05      0.00
   -1    5    8     -1.74      0.00
    1    5    8    -11.90      0.00
    3    5    8     -7.33      0.00
    5    5    8     -3.73      0.00
    7    5    8     -4.31      0.00
    9    5    8     -0.77      0.00
   11    5    8      0.38      0.00
   13    5    8     -1.33      0.00
   15    5    8     -1.29      0.00
   17    5    8     -0.67      0.00
   19    5    8      0.26      0.00
   21    5    8     -0.79      0.00
   23    5    8      0.38      0.00
   25    5    8     -0.42      0.00
  -28    6    8     -0.59      0.00
  -26    6    8     -0.08      0.00
  -24    6    8      0.32      0.00
  -22    6    8     -1.89      0.00
  -20    6    8      0.05      0.00
  -18    6    8      0.72      0.00
  -16    6    8     -3.28      0.00
  -14    6    8      2.09      0.00
  -12    6    8      3.19      0.00
  -10    6    8     -5.93      0.00
   -8    6    8    -11.86      0.00
   -6    6    8    -20.46      0.00
   -4    6    8     -1.73      0.00
   -2    6    8      9.70      0.00
    0    6    8     -7.46      0.00
    2    6    8     -3.13      0.00
    4    6    8     10.36      0.00
    6    6    8      8.32      0.00
    8    6    8      1.06      0.00
   10    6    8      0.77      0.00
   12    6    8      1.59      0.00
   14    6    8      0.51      0.00
   16    6    8      0.30      0.00
   18    6    8      1.64      0.00
   20    6    8      0.08      0.00
   22    6    8     -0.66      0.00
   24    6    8      0.22      0.00
  -27    7    8      0.07      0.00
  -25    7    8      0.55      0.00
  -23    7    8     -0.65      0.00
  -21    7    8     -1.98      0.00
  -19    7    8      0.18      0.00
  -17    7    8     -1.00      0.00
  -15    7    8     -2.04      0.00
  -13    7    8      4.58      0.00
  -11    7    8      3.96      0.00
   -9    7    8      4.37      0.00
   -7    7    8     -2.26      0.00
   -5    7    8      1.24      0.00
   -3    7    8     14.83      0.00
   -1    7    8      4.53      0.00
    1    7    8    -14.03      0.00
    3    7    8     -7.57      0.00
    5    7    8     -1.96      0.00
    7    7    8     -4.14      0.00
    9    7    8     -1.58      0.00
   11    7    8      1.15      0.00
   13    7    8     -0.15      0.00
   15    7    8     -2.32      0.00
   17    7    8      0.15      0.00
   19    7    8     -0.48      0.00
   21    7    8     -1.00      0.00
   23    7    8      0.33      0.00
  -26    8    8     -0.24      0.00
  -24    8    8     -0.87      0.00
  -22    8    8     -0.94      0.00
  -20    8    8      0.00      0.00
  -18    8    8      1.25      0.00
  -16    8    8     -1.61      0.00
  -14    8    8      0.43      0.00
  -12    8    8      1.07      0.00
  -10    8    8     -2.91      0.00
   -8    8    8    -12.89      0.00
   -6    8    8    -16.54      0.00
   -4    8    8     -1.30      0.00
   -2    8    8      7.84      0.00
    0    8    8     -1.97      0.00
    2    8    8     -3.31      0.00
    4    8    8      7.49      0.00
    6    8    8      6.91      0.00
    8    8    8      0.25      0.00
   10    8    8      0.90      0.00
   12    8    8      2.01      0.00
   14    8    8      0.18      0.00
   16    8    8      0.50      0.00
   18    8    8      1.84      0.00
   20    8    8     -0.72      0.00
   22    8    8     -0.10      0.00
  -25    9    8     -0.52      0.00
  -23    9    8     -0.73      0.00
  -21    9    8     -1.14      0.00
  -19    9    8     -0.34      0.00
  -17    9    8      0.55      0.00
  -15    9    8     -1.46      0.00
  -13    9    8      0.33      0.00
  -11    9    8      5.00      0.00
   -9    9    8      4.73      0.00
   -7    9    8      0.93      0.00
   -5    9    8      3.01      0.00
   -3    9    8      8.42      0.00
   -1    9    8      3.93      0.00
    1    9    8     -5.75      0.00
    3    9    8     -8.25      0.00
    5    9    8     -2.70      0.00
    7    9    8     -3.32      0.00
    9    9    8     -1.98      0.00
   11    9    8      2.05      0.00
   13    9    8     -0.06      0.00
   15    9    8     -1.66      0.00
   17    9    8      0.20      0.00
   19    9    8      0.21      0.00
   21    9    8     -1.03      0.00
   23    9    8      0.51      0.00
  -26   10    8     -0.04      0.00
  -24   10    8     -0.93      0.00
  -22   10    8      0.15      0.00
  -20   10    8      0.16      0.00
  -18   10    8      0.69      0.00
  -16   10    8      0.95      0.00
  -14   10    8     -1.79      0.00
  -12   10    8     -0.36      0.00
  -10   10    8     -1.95      0.00
   -8   10    8     -8.00      0.00
   -6   10    8     -8.66      0.00
   -4   10    8     -3.35      0.00
   -2   10    8      0.57      0.00
    0   10    8      4.78      0.00
    2   10    8      1.07      0.00
    4   10    8      2.93      0.00
    6   10    8      4.58      0.00
    8   10    8      1.00      0.00
   10   10    8      0.25      0.00
   12   10    8      1.78      0.00
   14   10    8      0.33      0.00
   16   10    8      0.92      0.00
   18   10    8      1.41      0.00
   20   10    8      0.48      0.00
   22   10    8      0.06      0.00
  -25   11    8     -0.17      0.00
  -23   11    8     -0.48      0.00
  -21   11    8     -0.51      0.00
  -19   11    8     -0.90      0.00
  -17   11    8      1.26      0.00
  -15   11    8     -0.43      0.00
  -13   11    8     -1.71      0.00
  -11   11    8      3.95      0.00
   -9   11    8      4.82      0.00
   -7   11    8      4.14      0.00
   -5   11    8      5.96      0.00
   -3   11    8     -0.61      0.00
   -1   11    8      3.21      0.00
    1   11    8      1.39      0.00
    3   11    8     -5.75      0.00
    5   11    8     -4.98      0.00
    7   11    8     -2.67      0.00
    9   11    8     -0.88      0.00
   11   11    8      0.55      0.00
   13   11    8      0.66      0.00
   15   11    8     -1.74      0.00
   17   11    8      0.12      0.00
   19   11    8      0.33      0.00
   21   11    8     -0.29      0.00
  -24   12    8     -0.26      0.00
  -22   12    8      0.50      0.00
  -20   12    8     -0.08      0.00
  -18   12    8      0.25      0.00
  -16   12    8      1.66      0.00
  -14   12    8     -1.08      0.00
  -12   12    8     -1.87      0.00
  -10   12    8     -1.68      0.00
   -8   12    8     -5.91      0.00
   -6   12    8     -2.35      0.00
   -4   12    8     -6.07      0.00
   -2   12    8     -3.59      0.00
    0   12    8      7.90      0.00
    2   12    8      4.45      0.00
    4   12    8      0.31      0.00
    6   12    8      1.83      0.00
    8   12    8      1.91      0.00
   10   12    8     -0.18      0.00
   12   12    8      0.39      0.00
   14   12    8      1.37      0.00
   16   12    8     -0.50      0.00
   18   12    8      1.10      0.00
   20   12    8      0.22      0.00
  -23   13    8      0.05      0.00
  -21   13    8     -0.55      0.00
  -19   13    8     -0.97      0.00
  -17   13    8      0.97      0.00
  -15   13    8      0.37      0.00
  -13   13    8     -1.40      0.00
  -11   13    8      2.46      0.00
   -9   13    8      2.62      0.00
   -7   13    8      5.98      0.00
   -5   13    8      5.46      0.00
   -3   13    8     -3.15      0.00
   -1   13    8      1.70      0.00
    1   13    8      4.71      0.00
    3   13    8     -3.80      0.00
    5   13    8     -5.27      0.00
    7   13    8     -2.11      0.00
    9   13    8     -0.09      0.00
   11   13    8      0.03      0.00
   13   13    8      0.77      0.00
   15   13    8     -1.23      0.00
   17   13    8     -0.79      0.00
   19   13    8      0.40      0.00
  -22   14    8      0.55      0.00
  -20   14    8      0.10      0.00
  -18   14    8     -0.16      0.00
  -16   14    8      1.37      0.00
  -14   14    8     -0.47      0.00
  -12   14    8     -1.13      0.00
  -10   14    8     -3.11      0.00
   -8   14    8     -3.26      0.00
   -6   14    8     -0.56      0.00
   -4   14    8     -5.24      0.00
   -2   14    8     -2.79      0.00
    0   14    8      7.66      0.00
    2   14    8      4.93      0.00
    4   14    8     -0.63      0.00
    6   14    8      1.13      0.00
    8   14    8      1.80      0.00
   10   14    8      0.14      0.00
   12   14    8      0.46      0.00
   14   14    8      1.31      0.00
   16   14    8     -0.29      0.00
   18   14    8      0.27      0.00
  -19   15    8     -0.57      0.00
  -17   15    8      0.54      0.00
  -15   15    8      0.68      0.00
  -13   15    8     -0.32      0.00
  -11   15    8      1.16      0.00
   -9   15    8      1.23      0.00
   -7   15    8      5.66      0.00
   -5   15    8      4.04      0.00
   -3   15    8     -1.90      0.00
   -1   15    8      1.93      0.00
    1   15    8      3.54      0.00
    3   15    8     -2.25      0.00
    5   15    8     -3.36      0.00
    7   15    8     -1.54      0.00
    9   15    8      0.48      0.00
   11   15    8      0.05      0.00
   13   15    8      1.20      0.00
   15   15    8     -0.77      0.00
   17   15    8     -0.47      0.00
  -18   16    8     -0.22      0.00
  -16   16    8      0.77      0.00
  -14   16    8      0.27      0.00
  -12   16    8     -0.63      0.00
  -10   16    8     -2.77      0.00
   -8   16    8     -2.15      0.00
   -6   16    8     -1.26      0.00
   -4   16    8     -4.01      0.00
   -2   16    8     -0.52      0.00
    0   16    8      5.79      0.00
    2   16    8      2.46      0.00
    4   16    8      0.97      0.00
    6   16    8      0.48      0.00
    8   16    8      1.62      0.00
   10   16    8      0.11      0.00
   12   16    8      0.41      0.00
   14   16    8      1.29      0.00
  -17   17    8      0.28      0.00
  -15   17    8      0.39      0.00
  -13   17    8      0.68      0.00
  -11   17    8     -0.35      0.00
   -9   17    8      1.33      0.00
   -7   17    8      3.10      0.00
   -5   17    8      2.13      0.00
   -3   17    8     -0.28      0.00
   -1   17    8      1.29      0.00
    1   17    8      0.93      0.00
    3   17    8     -1.13      0.00
    5   17    8     -1.61      0.00
    7   17    8     -0.82      0.00
    9   17    8      0.00      0.00
   11   17    8     -0.13      0.00
   13   17    8      0.56      0.00
  -14   18    8      0.48      0.00
  -12   18    8     -0.61      0.00
  -10   18    8     -1.67      0.00
   -8   18    8     -1.16      0.00
   -6   18    8     -2.57      0.00
   -4   18    8     -1.80      0.00
   -2   18    8      1.13      0.00
    0   18    8      2.06      0.00
    2   18    8      1.61      0.00
    4   18    8      0.76      0.00
    6   18    8      1.13      0.00
    8   18    8      0.46      0.00
   10   18    8      0.07      0.00
  -11   19    8     -0.31      0.00
   -9   19    8      1.16      0.00
   -7   19    8      1.90      0.00
   -5   19    8      1.18      0.00
   -3   19    8      1.70      0.00
   -1   19    8     -0.47      0.00
    1   19    8     -0.54      0.00
    3   19    8     -0.37      0.00
    5   19    8     -0.65      0.00
    7   19    8     -0.10      0.00
   -8   20    8     -0.91      0.00
   -6   20    8     -2.03      0.00
   -4   20    8      0.02      0.00
   -2   20    8      0.93      0.00
    0   20    8      0.22      0.00
    2   20    8      0.63      0.00
    4   20    8      1.45      0.00
  -28    0    9     -1.65      0.00
  -26    0    9     -0.57      0.00
  -24    0    9      1.69      0.00
  -22    0    9     -0.16      0.00
  -20    0    9     -1.67      0.00
  -18    0    9      2.57      0.00
  -16    0    9      1.88      0.00
  -14    0    9     -1.81      0.00
  -12    0    9      1.56      0.00
  -10    0    9    -12.84      0.00
   -8    0    9    -30.68      0.00
   -6    0    9     -1.75      0.00
   -4    0    9     24.41      0.00
   -2    0    9     14.42      0.00
    0    0    9     -9.82      0.00
    2    0    9      1.25      0.00
    4    0    9     14.45      0.00
    6    0    9      4.96      0.00
    8    0    9      0.54      0.00
   10    0    9      3.47      0.00
   12    0    9      0.64      0.00
   14    0    9      0.56      0.00
   16    0    9     -1.73      0.00
   18    0    9     -0.42      0.00
   20    0    9      1.39      0.00
   22    0    9     -1.87      0.00
   24    0    9      0.68      0.00
  -29    1    9      0.48      0.00
  -27    1    9      0.10      0.00
  -25    1    9      1.51      0.00
  -23    1    9      1.00      0.00
  -21    1    9     -1.74      0.00
  -19    1    9      1.63      0.00
  -17    1    9      3.87      0.00
  -15    1    9     -0.91      0.00
  -13    1    9      0.75      0.00
  -11    1    9      1.72      0.00
   -9    1    9    -12.63      0.00
   -7    1    9      0.24      0.00
   -5    1    9     31.00      0.00
   -3    1    9     25.46      0.00
   -1    1    9     -0.73      0.00
    1    1    9    -13.86      0.00
    3    1    9     -2.45      0.00
    5    1    9     -2.79      0.00
    7    1    9     -4.33      0.00
    9    1    9      3.28      0.00
   11    1    9      0.29      0.00
   13    1    9     -0.80      0.00
   15    1    9      1.24      0.00
   17    1    9     -2.41      0.00
   19    1    9     -0.55      0.00
   21    1    9      0.33      0.00
   23    1    9     -0.48      0.00
   25    1    9      0.59      0.00
  -28    2    9     -0.63      0.00
  -26    2    9     -1.42      0.00
  -24    2    9      1.48      0.00
  -22    2    9      0.47      0.00
  -20    2    9     -1.18      0.00
  -18    2    9      2.45      0.00
  -16    2    9      1.87      0.00
  -14    2    9     -2.98      0.00
  -12    2    9      1.31      0.00
  -10    2    9     -9.56      0.00
   -8    2    9    -23.01      0.00
   -6    2    9     -2.12      0.00
   -4    2    9     16.57      0.00
   -2    2    9      8.94      0.00
    0    2    9     -2.26      0.00
    2    2    9      0.86      0.00
    4    2    9     12.33      0.00
    6    2    9      4.61      0.00
    8    2    9      1.26      0.00
   10    2    9      2.97      0.00
   12    2    9      1.72      0.00
   14    2    9      0.02      0.00
   16    2    9     -0.40      0.00
   18    2    9     -0.85      0.00
   20    2    9      1.24      0.00
   22    2    9     -1.21      0.00
   24    2    9      0.35      0.00
  -29    3    9      0.80      0.00
  -27    3    9      0.45      0.00
  -25    3    9      0.02      0.00
  -23    3    9      1.67      0.00
  -21    3    9     -0.43      0.00
  -19    3    9      0.42      0.00
  -17    3    9      4.32      0.00
  -15    3    9     -1.75      0.00
  -13    3    9     -2.36      0.00
  -11    3    9      4.07      0.00
   -9    3    9     -3.19      0.00
   -7    3    9      8.77      0.00
   -5    3    9     19.99      0.00
   -3    3    9     11.11      0.00
   -1    3    9      3.37      0.00
    1    3    9     -5.08      0.00
    3    3    9     -6.81      0.00
    5    3    9     -3.98      0.00
    7    3    9     -3.39      0.00
    9    3    9      1.96      0.00
   11    3    9      0.96      0.00
   13    3    9     -0.63      0.00
   15    3    9      1.73      0.00
   17    3    9     -2.08      0.00
   19    3    9     -0.57      0.00
   21    3    9      0.35      0.00
   23    3    9      0.20      0.00
  -28    4    9     -0.10      0.00
  -26    4    9     -1.35      0.00
  -24    4    9     -0.23      0.00
  -22    4    9      2.49      0.00
  -20    4    9     -0.82      0.00
  -18    4    9      1.40      0.00
  -16    4    9      2.25      0.00
  -14    4    9     -5.52      0.00
  -12    4    9      0.07      0.00
  -10    4    9     -3.33      0.00
   -8    4    9    -10.23      0.00
   -6    4    9     -0.39      0.00
   -4    4    9     -3.47      0.00
   -2    4    9      1.78      0.00
    0    4    9      8.49      0.00
    2    4    9      4.51      0.00
    4    4    9      4.98      0.00
    6    4    9      4.67      0.00
    8    4    9      0.19      0.00
   10    4    9      2.16      0.00
   12    4    9      0.30      0.00
   14    4    9      0.96      0.00
   16    4    9     -0.18      0.00
   18    4    9     -0.42      0.00
   20    4    9      0.78      0.00
   22    4    9     -0.71      0.00
   24    4    9      0.59      0.00
  -27    5    9      0.31      0.00
  -25    5    9     -0.50      0.00
  -23    5    9      1.71      0.00
  -21    5    9      0.61      0.00
  -19    5    9     -0.86      0.00
  -17    5    9      3.94      0.00
  -15    5    9     -1.98      0.00
  -13    5    9     -4.54      0.00
  -11    5    9      3.99      0.00
   -9    5    9      7.64      0.00
   -7    5    9     14.81      0.00
   -5    5    9      9.27      0.00
   -3    5    9     -5.65      0.00
   -1    5    9      7.19      0.00
    1    5    9      3.19      0.00
    3    5    9     -8.87      0.00
    5    5    9     -6.39      0.00
    7    5    9     -2.22      0.00
    9    5    9      0.25      0.00
   11    5    9     -0.38      0.00
   13    5    9     -0.01      0.00
   15    5    9      1.11      0.00
   17    5    9     -1.53      0.00
   19    5    9     -0.75      0.00
   21    5    9      0.62      0.00
   23    5    9     -0.15      0.00
  -28    6    9     -0.05      0.00
  -26    6    9     -1.20      0.00
  -24    6    9      0.04      0.00
  -22    6    9      2.35      0.00
  -20    6    9     -0.07      0.00
  -18    6    9      0.49      0.00
  -16    6    9      1.64      0.00
  -14    6    9     -3.75      0.00
  -12    6    9     -2.36      0.00
  -10    6    9      0.15      0.00
   -8    6    9     -0.45      0.00
   -6    6    9     -0.94      0.00
   -4    6    9    -13.70      0.00
   -2    6    9     -5.75      0.00
    0    6    9     14.36      0.00
    2    6    9      7.23      0.00
    4    6    9      0.86      0.00
    6    6    9      3.55      0.00
    8    6    9      1.39      0.00
   10    6    9      0.02      0.00
   12    6    9     -0.51      0.00
   14    6    9      1.26      0.00
   16    6    9      0.19      0.00
   18    6    9     -0.42      0.00
   20    6    9      0.95      0.00
   22    6    9     -0.50      0.00
   24    6    9      0.05      0.00
  -27    7    9      0.37      0.00
  -25    7    9      0.42      0.00
  -23    7    9      1.43      0.00
  -21    7    9      0.21      0.00
  -19    7    9     -0.71      0.00
  -17    7    9      1.98      0.00
  -15    7    9     -0.25      0.00
  -13    7    9     -4.15      0.00
  -11    7    9      2.72      0.00
   -9    7    9     10.73      0.00
   -7    7    9     16.90      0.00
   -5    7    9      3.30      0.00
   -3    7    9     -7.74      0.00
   -1    7    9      2.82      0.00
    1    7    9      6.66      0.00
    3    7    9     -7.63      0.00
    5    7    9     -6.48      0.00
    7    7    9     -0.68      0.00
    9    7    9     -0.19      0.00
   11    7    9     -1.02      0.00
   13    7    9      0.16      0.00
   15    7    9      1.32      0.00
   17    7    9     -1.92      0.00
   19    7    9      0.44      0.00
   21    7    9      0.37      0.00
   23    7    9     -0.21      0.00
  -26    8    9     -0.10      0.00
  -24    8    9      0.75      0.00
  -22    8    9      1.32      0.00
  -20    8    9      0.61      0.00
  -18    8    9     -0.85      0.00
  -16    8    9      1.52      0.00
  -14    8    9     -1.07      0.00
  -12    8    9     -2.63      0.00
  -10    8    9     -1.74      0.00
   -8    8    9      2.11      0.00
   -6    8    9     -2.86      0.00
   -4    8    9    -11.16      0.00
   -2    8    9     -6.44      0.00
    0    8    9      9.38      0.00
    2    8    9      8.95      0.00
    4    8    9      0.75      0.00
    6    8    9      2.57      0.00
    8    8    9      2.31      0.00
   10    8    9     -1.30      0.00
   12    8    9     -1.27      0.00
   14    8    9      1.68      0.00
   16    8    9      0.01      0.00
   18    8    9     -0.42      0.00
   20    8    9      1.58      0.00
   22    8    9     -0.75      0.00
  -25    9    9      1.46      0.00
  -23    9    9      0.29      0.00
  -21    9    9     -0.07      0.00
  -19    9    9     -0.40      0.00
  -17    9    9      0.10      0.00
  -15    9    9      0.81      0.00
  -13    9    9     -1.35      0.00
  -11    9    9     -0.31      0.00
   -9    9    9      8.62      0.00
   -7    9    9     10.55      0.00
   -5    9    9      4.38      0.00
   -3    9    9     -2.93      0.00
   -1    9    9     -1.79      0.00
    1    9    9      1.62      0.00
    3    9    9     -2.46      0.00
    5    9    9     -5.12      0.00
    7    9    9     -0.82      0.00
    9    9    9      0.21      0.00
   11    9    9     -1.92      0.00
   13    9    9      0.51      0.00
   15    9    9      0.26      0.00
   17    9    9     -1.53      0.00
   19    9    9     -0.02      0.00
   21    9    9      0.24      0.00
  -26   10    9      0.05      0.00
  -24   10    9      0.70      0.00
  -22   10    9      0.47      0.00
  -20   10    9      0.86      0.00
  -18   10    9     -0.95      0.00
  -16   10    9      0.07      0.00
  -14   10    9      2.10      0.00
  -12   10    9     -3.10      0.00
  -10   10    9     -2.92      0.00
   -8   10    9     -1.65      0.00
   -6   10    9     -5.29      0.00
   -4   10    9     -4.48      0.00
   -2   10    9     -3.77      0.00
    0   10    9      1.00      0.00
    2   10    9      7.21      0.00
    4   10    9      3.46      0.00
    6   10    9      1.75      0.00
    8   10    9      1.48      0.00
   10   10    9     -1.08      0.00
   12   10    9     -1.88      0.00
   14   10    9      1.61      0.00
   16   10    9     -0.54      0.00
   18   10    9     -0.42      0.00
   20   10    9      0.42      0.00
  -25   11    9      0.69      0.00
  -23   11    9     -0.17      0.00
  -21   11    9     -0.24      0.00
  -19   11    9      0.23      0.00
  -17   11    9     -1.15      0.00
  -15   11    9      0.79      0.00
  -13   11    9      0.35      0.00
  -11   11    9     -0.51      0.00
   -9   11    9      4.78      0.00
   -7   11    9      5.13      0.00
   -5   11    9      4.81      0.00
   -3   11    9      4.10      0.00
   -1   11    9     -6.60      0.00
    1   11    9     -3.20      0.00
    3   11    9      0.21      0.00
    5   11    9     -1.97      0.00
    7   11    9     -1.55      0.00
    9   11    9      0.16      0.00
   11   11    9     -0.44      0.00
   13   11    9     -0.67      0.00
   15   11    9      0.80      0.00
   17   11    9     -1.33      0.00
   19   11    9     -0.26      0.00
  -24   12    9      0.20      0.00
  -22   12    9      0.40      0.00
  -20   12    9      1.07      0.00
  -18   12    9     -0.93      0.00
  -16   12    9     -0.65      0.00
  -14   12    9      1.76      0.00
  -12   12    9     -1.37      0.00
  -10   12    9     -2.66      0.00
   -8   12    9     -3.11      0.00
   -6   12    9     -6.63      0.00
   -4   12    9      0.95      0.00
   -2   12    9     -1.43      0.00
    0   12    9     -3.97      0.00
    2   12    9      4.44      0.00
    4   12    9      4.77      0.00
    6   12    9      1.94      0.00
    8   12    9     -0.04      0.00
   10   12    9     -0.27      0.00
   12   12    9     -1.41      0.00
   14   12    9      0.84      0.00
   16   12    9      0.95      0.00
   18   12    9     -0.79      0.00
  -23   13    9     -0.46      0.00
  -21   13    9      0.00      0.00
  -19   13    9      0.51      0.00
  -17   13    9     -1.17      0.00
  -15   13    9      0.07      0.00
  -13   13    9      0.48      0.00
  -11   13    9      0.75      0.00
   -9   13    9      3.20      0.00
   -7   13    9      1.30      0.00
   -5   13    9      5.74      0.00
   -3   13    9      4.97      0.00
   -1   13    9     -6.90      0.00
    1   13    9     -5.68      0.00
    3   13    9      1.22      0.00
    5   13    9      0.06      0.00
    7   13    9     -1.98      0.00
    9   13    9      0.02      0.00
   11   13    9      0.09      0.00
   13   13    9     -0.99      0.00
   15   13    9      1.07      0.00
   17   13    9     -0.35      0.00
  -22   14    9      0.30      0.00
  -20   14    9      0.80      0.00
  -18   14    9     -0.54      0.00
  -16   14    9     -0.94      0.00
  -14   14    9      0.92      0.00
  -12   14    9     -0.59      0.00
  -10   14    9     -0.54      0.00
   -8   14    9     -4.68      0.00
   -6   14    9     -5.56      0.00
   -4   14    9      1.13      0.00
   -2   14    9     -1.22      0.00
    0   14    9     -3.91      0.00
    2   14    9      1.99      0.00
    4   14    9      4.44      0.00
    6   14    9      1.20      0.00
    8   14    9     -0.71      0.00
   10   14    9     -0.32      0.00
   12   14    9     -1.79      0.00
   14   14    9      0.80      0.00
   16   14    9      0.71      0.00
  -19   15    9      0.45      0.00
  -17   15    9     -0.56      0.00
  -15   15    9     -0.59      0.00
  -13   15    9      0.14      0.00
  -11   15    9      1.52      0.00
   -9   15    9      1.86      0.00
   -7   15    9      0.35      0.00
   -5   15    9      4.76      0.00
   -3   15    9      2.63      0.00
   -1   15    9     -5.96      0.00
    1   15    9     -4.43      0.00
    3   15    9      0.41      0.00
    5   15    9      0.14      0.00
    7   15    9     -1.51      0.00
    9   15    9     -0.64      0.00
   11   15    9     -0.06      0.00
   13   15    9     -1.20      0.00
   15   15    9      0.84      0.00
  -18   16    9     -0.33      0.00
  -16   16    9     -0.91      0.00
  -14   16    9     -0.17      0.00
  -12   16    9      0.47      0.00
  -10   16    9     -0.06      0.00
   -8   16    9     -3.60      0.00
   -6   16    9     -3.34      0.00
   -4   16    9     -0.04      0.00
   -2   16    9     -1.05      0.00
    0   16    9     -2.33      0.00
    2   16    9      1.64      0.00
    4   16    9      1.50      0.00
    6   16    9      1.12      0.00
    8   16    9     -0.98      0.00
   10   16    9     -0.28      0.00
   12   16    9     -1.36      0.00
   14   16    9      0.16      0.00
  -17   17    9      0.08      0.00
  -15   17    9     -0.53      0.00
  -13   17    9     -0.24      0.00
  -11   17    9      1.73      0.00
   -9   17    9      0.64      0.00
   -7   17    9      2.16      0.00
   -5   17    9      3.23      0.00
   -3   17    9      0.64      0.00
   -1   17    9     -3.57      0.00
    1   17    9     -2.21      0.00
    3   17    9     -0.77      0.00
    5   17    9     -0.08      0.00
    7   17    9     -0.86      0.00
    9   17    9     -0.09      0.00
   11   17    9     -0.12      0.00
  -14   18    9     -0.65      0.00
  -12   18    9      1.09      0.00
  -10   18    9     -0.22      0.00
   -8   18    9     -2.11      0.00
   -6   18    9     -1.54      0.00
   -4   18    9     -1.31      0.00
   -2   18    9     -0.63      0.00
    0   18    9      0.61      0.00
    2   18    9      0.02      0.00
    4   18    9      1.08      0.00
    6   18    9     -0.30      0.00
    8   18    9     -0.07      0.00
   10   18    9      0.03      0.00
  -11   19    9      0.44      0.00
   -9   19    9      0.50      0.00
   -7   19    9      2.14      0.00
   -5   19    9      1.45      0.00
   -3   19    9     -0.87      0.00
   -1   19    9     -0.60      0.00
    1   19    9     -1.19      0.00
    3   19    9     -1.11      0.00
    5   19    9     -0.28      0.00
    7   19    9     -0.64      0.00
   -6   20    9     -1.12      0.00
   -4   20    9     -1.90      0.00
   -2   20    9      0.69      0.00
    0   20    9      0.98      0.00
    2   20    9      0.02      0.00
  -28    0   10      0.71      0.00
  -26    0   10     -1.42      0.00
  -24    0   10     -0.73      0.00
  -22    0   10      2.13      0.00
  -20    0   10     -1.28      0.00
  -18    0   10     -4.05      0.00
  -16    0   10      0.80      0.00
  -14    0   10      0.94      0.00
  -12    0   10      1.20      0.00
  -10    0   10     13.99      0.00
   -8    0   10      3.08      0.00
   -6    0   10    -30.63      0.00
   -4    0   10    -23.60      0.00
   -2    0   10      0.13      0.00
    0    0   10     12.96      0.00
    2    0   10      3.77      0.00
    4    0   10     -3.22      0.00
    6    0   10      3.90      0.00
    8    0   10     -1.36      0.00
   10    0   10     -3.02      0.00
   12    0   10      0.92      0.00
   14    0   10     -3.05      0.00
   16    0   10      2.90      0.00
   18    0   10      0.35      0.00
   20    0   10     -0.19      0.00
   22    0   10      0.77      0.00
   24    0   10     -0.90      0.00
  -29    1   10      0.86      0.00
  -27    1   10      1.33      0.00
  -25    1   10     -2.00      0.00
  -23    1   10     -0.25      0.00
  -21    1   10      1.46      0.00
  -19    1   10     -2.23      0.00
  -17    1   10     -1.17      0.00
  -15    1   10      1.37      0.00
  -13    1   10     -3.19      0.00
  -11    1   10      6.23      0.00
   -9    1   10     21.71      0.00
   -7    1   10      0.35      0.00
   -5    1   10    -21.24      0.00
   -3    1   10     -8.56      0.00
   -1    1   10      4.91      0.00
    1    1   10      3.52      0.00
    3    1   10    -11.81      0.00
    5    1   10     -6.65      0.00
    7    1   10      1.11      0.00
    9    1   10     -5.03      0.00
   11    1   10     -0.87      0.00
   13    1   10      0.83      0.00
   15    1   10      2.23      0.00
   17    1   10      1.31      0.00
   19    1   10     -1.21      0.00
   21    1   10      1.59      0.00
   23    1   10     -0.49      0.00
  -28    2   10     -0.01      0.00
  -26    2   10     -0.22      0.00
  -24    2   10     -1.29      0.00
  -22    2   10      1.38      0.00
  -20    2   10     -0.75      0.00
  -18    2   10     -4.17      0.00
  -16    2   10      1.05      0.00
  -14    2   10      2.21      0.00
  -12    2   10     -0.22      0.00
  -10    2   10      8.81      0.00
   -8    2   10     -1.27      0.00
   -6    2   10    -24.58      0.00
   -4    2   10    -17.13      0.00
   -2    2   10     -0.55      0.00
    0    2   10      7.06      0.00
    2    2   10      6.37      0.00
    4    2   10     -2.42      0.00
    6    2   10      3.62      0.00
    8    2   10     -1.96      0.00
   10    2   10     -2.56      0.00
   12    2   10     -0.43      0.00
   14    2   10     -2.42      0.00
   16    2   10      1.72      0.00
   18    2   10      0.93      0.00
   20    2   10     -0.35      0.00
   22    2   10      0.22      0.00
   24    2   10     -0.41      0.00
  -29    3   10      0.26      0.00
  -27    3   10      1.26      0.00
  -25    3   10     -0.43      0.00
  -23    3   10     -1.80      0.00
  -21    3   10      0.61      0.00
  -19    3   10     -1.06      0.00
  -17    3   10     -1.52      0.00
  -15    3   10      2.80      0.00
  -13    3   10     -1.96      0.00
  -11    3   10      0.27      0.00
   -9    3   10     12.41      0.00
   -7    3   10     -0.41      0.00
   -5    3   10     -6.61      0.00
   -3    3   10     -2.37      0.00
   -1    3   10     -3.63      0.00
    1    3   10     -0.59      0.00
    3    3   10     -5.78      0.00
    5    3   10     -5.94      0.00
    7    3   10      0.58      0.00
    9    3   10     -4.18      0.00
   11    3   10     -0.88      0.00
   13    3   10      0.55      0.00
   15    3   10      0.85      0.00
   17    3   10      1.29      0.00
   19    3   10     -0.95      0.00
   21    3   10      1.06      0.00
   23    3   10     -0.63      0.00
  -28    4   10     -0.11      0.00
  -26    4   10      0.29      0.00
  -24    4   10     -0.84      0.00
  -22    4   10     -0.71      0.00
  -20    4   10      0.75      0.00
  -18    4   10     -3.45      0.00
  -16    4   10      0.76      0.00
  -14    4   10      5.38      0.00
  -12    4   10     -2.00      0.00
  -10    4   10     -1.39      0.00
   -8    4   10     -7.50      0.00
   -6    4   10    -14.13      0.00
   -4    4   10     -1.10      0.00
   -2    4   10     -4.30      0.00
    0    4   10     -2.02      0.00
    2    4   10      7.93      0.00
    4    4   10      2.28      0.00
    6    4   10      1.99      0.00
    8    4   10     -0.06      0.00
   10    4   10     -2.24      0.00
   12    4   10      0.03      0.00
   14    4   10     -3.25      0.00
   16    4   10      1.62      0.00
   18    4   10      0.65      0.00
   20    4   10     -0.40      0.00
   22    4   10      0.15      0.00
   24    4   10     -0.46      0.00
  -27    5   10      1.29      0.00
  -25    5   10      0.29      0.00
  -23    5   10     -2.41      0.00
  -21    5   10     -0.46      0.00
  -19    5   10      0.40      0.00
  -17    5   10     -1.65      0.00
  -15    5   10      3.19      0.00
  -13    5   10     -0.40      0.00
  -11    5   10     -3.32      0.00
   -9    5   10      1.00      0.00
   -7    5   10      1.29      0.00
   -5    5   10      6.99      0.00
   -3    5   10      6.52      0.00
   -1    5   10    -12.58      0.00
    1    5   10     -5.20      0.00
    3    5   10     -0.36      0.00
    5    5   10     -3.41      0.00
    7    5   10     -0.40      0.00
    9    5   10     -2.02      0.00
   11    5   10      0.88      0.00
   13    5   10     -0.30      0.00
   15    5   10      0.38      0.00
   17    5   10      0.86      0.00
   19    5   10     -0.47      0.00
   21    5   10      0.52      0.00
   23    5   10     -0.06      0.00
  -28    6   10     -0.29      0.00
  -26    6   10      0.21      0.00
  -24    6   10     -1.07      0.00
  -22    6   10     -0.73      0.00
  -20    6   10      1.01      0.00
  -18    6   10     -2.45      0.00
  -16    6   10      0.46      0.00
  -14    6   10      5.07      0.00
  -12    6   10     -0.57      0.00
  -10    6   10     -8.02      0.00
   -8    6   10    -11.38      0.00
   -6    6   10     -5.75      0.00
   -4    6   10      6.90      0.00
   -2    6   10     -2.90      0.00
    0    6   10     -7.89      0.00
    2    6   10      6.97      0.00
    4    6   10      5.04      0.00
    6    6   10      0.83      0.00
    8    6   10     -0.15      0.00
   10    6   10     -0.12      0.00
   12    6   10     -0.79      0.00
   14    6   10     -2.58      0.00
   16    6   10      1.19      0.00
   18    6   10      0.30      0.00
   20    6   10     -0.45      0.00
   22    6   10      0.29      0.00
  -27    7   10      0.51      0.00
  -25    7   10     -0.22      0.00
  -23    7   10     -1.92      0.00
  -21    7   10     -0.62      0.00
  -19    7   10      0.61      0.00
  -17    7   10     -0.86      0.00
  -15    7   10      0.56      0.00
  -13    7   10      1.26      0.00
  -11    7   10     -3.33      0.00
   -9    7   10     -3.58      0.00
   -7    7   10      0.86      0.00
   -5    7   10     12.08      0.00
   -3    7   10      7.51      0.00
   -1    7   10    -10.13      0.00
    1    7   10     -9.66      0.00
    3    7   10      1.63      0.00
    5    7   10     -1.73      0.00
    7    7   10     -2.33      0.00
    9    7   10     -0.01      0.00
   11    7   10      1.62      0.00
   13    7   10     -0.64      0.00
   15    7   10     -0.30      0.00
   17    7   10      1.00      0.00
   19    7   10     -1.36      0.00
   21    7   10      0.68      0.00
  -26    8   10     -1.11      0.00
  -24    8   10     -0.68      0.00
  -22    8   10      0.14      0.00
  -20    8   10      0.30      0.00
  -18    8   10     -0.56      0.00
  -16    8   10     -0.82      0.00
  -14    8   10      3.51      0.00
  -12    8   10      1.15      0.00
  -10    8   10     -6.79      0.00
   -8    8   10    -10.92      0.00
   -6    8   10     -3.37      0.00
   -4    8   10      3.97      0.00
   -2    8   10      0.79      0.00
    0    8   10     -5.09      0.00
    2    8   10      2.49      0.00
    4    8   10      5.14      0.00
    6    8   10      0.38      0.00
    8    8   10     -0.64      0.00
   10    8   10      1.09      0.00
   12    8   10     -1.07      0.00
   14    8   10     -1.97      0.00
   16    8   10      1.07      0.00
   18    8   10     -0.10      0.00
   20    8   10     -0.82      0.00
   22    8   10      0.61      0.00
  -25    9   10     -1.12      0.00
  -23    9   10     -0.50      0.00
  -21    9   10     -0.94      0.00
  -19    9   10      0.72      0.00
  -17    9   10     -0.18      0.00
  -15    9   10     -1.59      0.00
  -13    9   10      1.16      0.00
  -11    9   10      0.57      0.00
   -9    9   10     -3.16      0.00
   -7    9   10      3.86      0.00
   -5    9   10      6.86      0.00
   -3    9   10      5.97      0.00
   -1    9   10     -4.12      0.00
    1    9   10     -8.23      0.00
    3    9   10     -1.63      0.00
    5    9   10     -0.22      0.00
    7    9   10     -2.10      0.00
    9    9   10      0.55      0.00
   11    9   10      2.88      0.00
   13    9   10     -1.18      0.00
   15    9   10      0.53      0.00
   17    9   10      0.63      0.00
   19    9   10     -0.76      0.00
   21    9   10      0.33      0.00
  -24   10   10     -0.05      0.00
  -22   10   10      0.54      0.00
  -20   10   10     -0.23      0.00
  -18   10   10      0.21      0.00
  -16   10   10     -0.39      0.00
  -14   10   10      0.63      0.00
  -12   10   10      3.27      0.00
  -10   10   10     -3.74      0.00
   -8   10   10     -5.51      0.00
   -6   10   10     -3.94      0.00
   -4   10   10     -1.97      0.00
   -2   10   10      4.23      0.00
    0   10   10      1.17      0.00
    2   10   10     -0.92      0.00
    4   10   10      2.27      0.00
    6   10   10      1.32      0.00
    8   10   10     -0.68      0.00
   10   10   10      0.73      0.00
   12   10   10     -0.13      0.00
   14   10   10     -1.56      0.00
   16   10   10      1.44      0.00
   18   10   10     -0.06      0.00
   20   10   10      0.21      0.00
  -25   11   10     -0.42      0.00
  -23   11   10     -0.36      0.00
  -21   11   10     -0.84      0.00
  -19   11   10      0.35      0.00
  -17   11   10      0.69      0.00
  -15   11   10     -2.14      0.00
  -13   11   10      0.68      0.00
  -11   11   10      1.34      0.00
   -9   11   10      0.10      0.00
   -7   11   10      4.83      0.00
   -5   11   10      2.72      0.00
   -3   11   10      1.56      0.00
   -1   11   10      2.83      0.00
    1   11   10     -5.56      0.00
    3   11   10     -3.97      0.00
    5   11   10     -0.55      0.00
    7   11   10     -0.66      0.00
    9   11   10      0.47      0.00
   11   11   10      2.22      0.00
   13   11   10     -0.26      0.00
   15   11   10     -0.37      0.00
   17   11   10      0.96      0.00
   19   11   10     -0.39      0.00
  -24   12   10      0.24      0.00
  -22   12   10      0.31      0.00
  -20   12   10     -0.59      0.00
  -18   12   10      0.74      0.00
  -16   12   10      0.07      0.00
  -14   12   10      0.39      0.00
  -12   12   10      1.62      0.00
  -10   12   10     -1.45      0.00
   -8   12   10     -2.34      0.00
   -6   12   10     -4.41      0.00
   -4   12   10     -5.77      0.00
   -2   12   10      5.46      0.00
    0   12   10      5.53      0.00
    2   12   10     -2.14      0.00
    4   12   10     -0.14      0.00
    6   12   10      1.45      0.00
    8   12   10     -0.09      0.00
   10   12   10     -0.42      0.00
   12   12   10      0.27      0.00
   14   12   10     -1.31      0.00
   16   12   10     -0.03      0.00
   18   12   10      0.44      0.00
  -23   13   10     -0.29      0.00
  -21   13   10     -0.95      0.00
  -19   13   10      0.22      0.00
  -17   13   10      1.06      0.00
  -15   13   10     -1.21      0.00
  -13   13   10     -0.05      0.00
  -11   13   10     -0.12      0.00
   -9   13   10      1.67      0.00
   -7   13   10      5.34      0.00
   -5   13   10      0.05      0.00
   -3   13   10      0.63      0.00
   -1   13   10      3.97      0.00
    1   13   10     -2.51      0.00
    3   13   10     -4.49      0.00
    5   13   10     -1.06      0.00
    7   13   10      0.91      0.00
    9   13   10      0.17      0.00
   11   13   10      2.10      0.00
   13   13   10     -0.11      0.00
   15   13   10     -1.12      0.00
   17   13   10      0.51      0.00
  -20   14   10     -0.63      0.00
  -18   14   10      0.39      0.00
  -16   14   10      0.60      0.00
  -14   14   10      0.51      0.00
  -12   14   10      0.25      0.00
  -10   14   10     -1.02      0.00
   -8   14   10      0.39      0.00
   -6   14   10     -4.31      0.00
   -4   14   10     -4.54      0.00
   -2   14   10      5.38      0.00
    0   14   10      5.11      0.00
    2   14   10     -0.96      0.00
    4   14   10     -1.62      0.00
    6   14   10      1.69      0.00
    8   14   10      0.55      0.00
   10   14   10     -0.46      0.00
   12   14   10      1.04      0.00
   14   14   10     -1.58      0.00
   16   14   10      0.17      0.00
  -19   15   10      0.15      0.00
  -17   15   10      0.91      0.00
  -15   15   10     -0.01      0.00
  -13   15   10     -0.81      0.00
  -11   15   10     -1.06      0.00
   -9   15   10      2.42      0.00
   -7   15   10      4.30      0.00
   -5   15   10      0.52      0.00
   -3   15   10      1.14      0.00
   -1   15   10      2.69      0.00
    1   15   10     -1.33      0.00
    3   15   10     -2.79      0.00
    5   15   10     -0.60      0.00
    7   15   10      1.16      0.00
    9   15   10      0.79      0.00
   11   15   10      1.96      0.00
   13   15   10      0.29      0.00
   15   15   10     -0.95      0.00
  -18   16   10     -0.16      0.00
  -16   16   10      0.77      0.00
  -14   16   10      0.76      0.00
  -12   16   10     -0.79      0.00
  -10   16   10     -0.19      0.00
   -8   16   10     -0.30      0.00
   -6   16   10     -3.78      0.00
   -4   16   10     -1.88      0.00
   -2   16   10      3.47      0.00
    0   16   10      3.78      0.00
    2   16   10     -0.41      0.00
    4   16   10     -0.20      0.00
    6   16   10      0.56      0.00
    8   16   10      0.81      0.00
   10   16   10     -0.05      0.00
   12   16   10      0.51      0.00
  -15   17   10      0.45      0.00
  -13   17   10     -1.10      0.00
  -11   17   10     -1.40      0.00
   -9   17   10      1.99      0.00
   -7   17   10      1.62      0.00
   -5   17   10      1.42      0.00
   -3   17   10      0.90      0.00
   -1   17   10      0.52      0.00
    1   17   10     -0.73      0.00
    3   17   10     -0.88      0.00
    5   17   10     -0.08      0.00
    7   17   10      0.75      0.00
    9   17   10      0.16      0.00
   11   17   10      1.42      0.00
  -14   18   10      0.80      0.00
  -12   18   10     -0.71      0.00
  -10   18   10      0.33      0.00
   -8   18   10     -1.58      0.00
   -6   18   10     -2.38      0.00
   -4   18   10     -0.31      0.00
   -2   18   10      1.62      0.00
    0   18   10      1.08      0.00
    2   18   10      1.44      0.00
    4   18   10     -0.71      0.00
    6   18   10      0.86      0.00
    8   18   10     -0.27      0.00
   -9   19   10      0.73      0.00
   -7   19   10      1.11      0.00
   -5   19   10      1.80      0.00
   -3   19   10      0.51      0.00
   -1   19   10     -1.37      0.00
    1   19   10      0.13      0.00
    3   19   10     -0.14      0.00
    5   19   10      0.57      0.00
   -2   20   10     -0.45      0.00
  -28    0   11     -1.77      0.00
  -26    0   11      2.53      0.00
  -24    0   11      0.45      0.00
  -22    0   11     -1.46      0.00
  -20    0   11      2.12      0.00
  -18    0   11      0.60      0.00
  -16    0   11     -0.96      0.00
  -14    0   11      4.62      0.00
  -12    0   11     -1.89      0.00
  -10    0   11    -15.86      0.00
   -8    0   11      1.58      0.00
   -6    0   11     22.91      0.00
   -4    0   11      6.46      0.00
   -2    0   11     -4.98      0.00
    0    0   11     -5.78      0.00
    2    0   11      8.46      0.00
    4    0   11      8.07      0.00
    6    0   11     -2.60      0.00
    8    0   11      4.97      0.00
   10    0   11      1.89      0.00
   12    0   11     -2.27      0.00
   14    0   11     -2.62      0.00
   16    0   11     -2.53      0.00
   18    0   11      1.22      0.00
   20    0   11     -1.94      0.00
   22    0   11      0.67      0.00
   24    0   11      0.23      0.00
  -29    1   11     -0.62      0.00
  -27    1   11      0.05      0.00
  -25    1   11      0.80      0.00
  -23    1   11     -2.20      0.00
  -21    1   11      0.46      0.00
  -19    1   11      4.03      0.00
  -17    1   11     -0.88      0.00
  -15    1   11     -2.54      0.00
  -13    1   11     -2.70      0.00
  -11    1   11    -13.05      0.00
   -9    1   11     -4.62      0.00
   -7    1   11     23.98      0.00
   -5    1   11     19.24      0.00
   -3    1   11     -2.36      0.00
   -1    1   11     -8.35      0.00
    1    1   11     -6.64      0.00
    3    1   11      6.62      0.00
    5    1   11     -1.09      0.00
    7    1   11     -0.48      0.00
    9    1   11      4.41      0.00
   11    1   11      0.54      0.00
   13    1   11      3.78      0.00
   15    1   11     -2.02      0.00
   17    1   11     -0.48      0.00
   19    1   11      0.03      0.00
   21    1   11     -0.57      0.00
   23    1   11      0.67      0.00
  -28    2   11     -1.18      0.00
  -26    2   11      1.14      0.00
  -24    2   11      1.56      0.00
  -22    2   11     -0.92      0.00
  -20    2   11      1.38      0.00
  -18    2   11      0.94      0.00
  -16    2   11     -1.59      0.00
  -14    2   11      4.23      0.00
  -12    2   11      1.31      0.00
  -10    2   11    -11.03      0.00
   -8    2   11      1.72      0.00
   -6    2   11     15.31      0.00
   -4    2   11      3.62      0.00
   -2    2   11     -1.23      0.00
    0    2   11     -2.49      0.00
    2    2   11      4.85      0.00
    4    2   11      7.92      0.00
    6    2   11     -2.35      0.00
    8    2   11      5.68      0.00
   10    2   11      1.08      0.00
   12    2   11     -0.97      0.00
   14    2   11     -2.75      0.00
   16    2   11     -1.59      0.00
   18    2   11      0.51      0.00
   20    2   11     -1.40      0.00
   22    2   11      0.90      0.00
  -29    3   11     -0.23      0.00
  -27    3   11     -0.38      0.00
  -25    3   11      0.23      0.00
  -23    3   11     -0.17      0.00
  -21    3   11     -0.52      0.00
  -19    3   11      3.23      0.00
  -17    3   11     -0.49      0.00
  -15    3   11     -4.44      0.00
  -13    3   11     -1.23      0.00
  -11    3   11     -4.20      0.00
   -9    3   11     -0.38      0.00
   -7    3   11     16.41      0.00
   -5    3   11      7.40      0.00
   -3    3   11      0.26      0.00
   -1    3   11     -0.91      0.00
    1    3   11     -7.35      0.00
    3    3   11      2.16      0.00
    5    3   11     -0.01      0.00
    7    3   11     -0.49      0.00
    9    3   11      3.90      0.00
   11    3   11      1.11      0.00
   13    3   11      3.89      0.00
   15    3   11     -0.89      0.00
   17    3   11     -0.76      0.00
   19    3   11      0.32      0.00
   21    3   11     -0.21      0.00
   23    3   11      0.45      0.00
  -28    4   11     -1.17      0.00
  -26    4   11      0.11      0.00
  -24    4   11      2.02      0.00
  -22    4   11      0.81      0.00
  -20    4   11     -0.49      0.00
  -18    4   11      0.85      0.00
  -16    4   11     -1.74      0.00
  -14    4   11      2.13      0.00
  -12    4   11      6.45      0.00
  -10    4   11     -1.28      0.00
   -8    4   11      0.31      0.00
   -6    4   11      1.31      0.00
   -4    4   11     -4.29      0.00
   -2    4   11      7.63      0.00
    0    4   11      3.08      0.00
    2    4   11     -0.47      0.00
    4    4   11      4.24      0.00
    6    4   11     -0.48      0.00
    8    4   11      3.19      0.00
   10    4   11      0.69      0.00
   12    4   11     -1.41      0.00
   14    4   11     -0.56      0.00
   16    4   11     -1.77      0.00
   18    4   11      0.38      0.00
   20    4   11     -0.72      0.00
   22    4   11      0.36      0.00
  -27    5   11     -0.64      0.00
  -25    5   11      0.22      0.00
  -23    5   11      0.76      0.00
  -21    5   11     -0.96      0.00
  -19    5   11      1.83      0.00
  -17    5   11      0.23      0.00
  -15    5   11     -5.83      0.00
  -13    5   11     -0.69      0.00
  -11    5   11      3.00      0.00
   -9    5   11      5.29      0.00
   -7    5   11      5.68      0.00
   -5    5   11     -2.71      0.00
   -3    5   11     -0.01      0.00
   -1    5   11      7.68      0.00
    1    5   11     -7.02      0.00
    3    5   11     -2.50      0.00
    5    5   11      0.19      0.00
    7    5   11     -0.52      0.00
    9    5   11      1.97      0.00
   11    5   11      0.88      0.00
   13    5   11      4.05      0.00
   15    5   11     -0.64      0.00
   17    5   11     -0.40      0.00
   19    5   11      0.24      0.00
   21    5   11     -0.07      0.00
   23    5   11     -0.08      0.00
  -28    6   11     -0.67      0.00
  -26    6   11     -0.21      0.00
  -24    6   11      2.21      0.00
  -22    6   11      1.13      0.00
  -20    6   11     -1.00      0.00
  -18    6   11      0.76      0.00
  -16    6   11     -0.86      0.00
  -14    6   11      1.21      0.00
  -12    6   11      6.52      0.00
  -10    6   11      6.14      0.00
   -8    6   11     -0.52      0.00
   -6    6   11     -8.14      0.00
   -4    6   11     -8.28      0.00
   -2    6   11      9.82      0.00
    0    6   11      8.65      0.00
    2    6   11     -3.11      0.00
    4    6   11      0.95      0.00
    6    6   11      1.49      0.00
    8    6   11      1.62      0.00
   10    6   11     -1.46      0.00
   12    6   11     -0.30      0.00
   14    6   11     -0.26      0.00
   16    6   11     -1.27      0.00
   18    6   11      0.40      0.00
   20    6   11     -0.51      0.00
   22    6   11      0.07      0.00
  -27    7   11      0.52      0.00
  -25    7   11      0.22      0.00
  -23    7   11      0.32      0.00
  -21    7   11     -0.90      0.00
  -19    7   11      1.13      0.00
  -17    7   11      0.42      0.00
  -15    7   11     -3.93      0.00
  -13    7   11     -2.79      0.00
  -11    7   11      5.29      0.00
   -9    7   11      6.83      0.00
   -7    7   11      2.64      0.00
   -5    7   11     -5.75      0.00
   -3    7   11     -0.13      0.00
   -1    7   11      6.39      0.00
    1    7   11     -2.02      0.00
    3    7   11     -5.01      0.00
    5    7   11      0.46      0.00
    7    7   11      0.94      0.00
    9    7   11     -0.16      0.00
   11    7   11      1.77      0.00
   13    7   11      3.13      0.00
   15    7   11     -0.11      0.00
   17    7   11     -0.18      0.00
   19    7   11      1.00      0.00
   21    7   11     -0.55      0.00
  -26    8   11      0.85      0.00
  -24    8   11      1.17      0.00
  -22    8   11      0.71      0.00
  -20    8   11     -0.37      0.00
  -18    8   11     -0.18      0.00
  -16    8   11      1.59      0.00
  -14    8   11      0.14      0.00
  -12    8   11      3.71      0.00
  -10    8   11      6.59      0.00
   -8    8   11     -0.24      0.00
   -6    8   11     -8.48      0.00
   -4    8   11     -6.44      0.00
   -2    8   11      5.31      0.00
    0    8   11      9.39      0.00
    2    8   11     -0.61      0.00
    4    8   11     -1.49      0.00
    6    8   11      2.57      0.00
    8    8   11      0.45      0.00
   10    8   11     -2.61      0.00
   12    8   11      0.35      0.00
   14    8   11     -0.31      0.00
   16    8   11     -0.84      0.00
   18    8   11      0.56      0.00
   20    8   11     -0.05      0.00
  -25    9   11      0.49      0.00
  -23    9   11     -0.96      0.00
  -21    9   11     -0.01      0.00
  -19    9   11      0.23      0.00
  -17    9   11      0.59      0.00
  -15    9   11     -1.80      0.00
  -13    9   11     -4.23      0.00
  -11    9   11      1.38      0.00
   -9    9   11      5.73      0.00
   -7    9   11      1.25      0.00
   -5    9   11      0.21      0.00
   -3    9   11     -3.41      0.00
   -1    9   11      1.75      0.00
    1    9   11      1.08      0.00
    3    9   11     -2.67      0.00
    5    9   11     -0.95      0.00
    7    9   11      1.24      0.00
    9    9   11     -0.55      0.00
   11    9   11      0.95      0.00
   13    9   11      2.68      0.00
   15    9   11     -0.87      0.00
   17    9   11      0.31      0.00
   19    9   11      0.36      0.00
   21    9   11     -0.10      0.00
  -24   10   11      0.41      0.00
  -22   10   11      0.57      0.00
  -20   10   11      0.02      0.00
  -18   10   11     -0.35      0.00
  -16   10   11      1.93      0.00
  -14   10   11      0.81      0.00
  -12   10   11     -0.09      0.00
  -10   10   11      4.25      0.00
   -8   10   11     -2.32      0.00
   -6   10   11     -4.54      0.00
   -4   10   11     -2.99      0.00
   -2   10   11     -0.64      0.00
    0   10   11      6.58      0.00
    2   10   11      2.94      0.00
    4   10   11     -1.34      0.00
    6   10   11      1.05      0.00
    8   10   11      0.14      0.00
   10   10   11     -2.82      0.00
   12   10   11     -0.29      0.00
   14   10   11     -0.18      0.00
   16   10   11     -1.31      0.00
   18   10   11      0.33      0.00
   20   10   11     -0.54      0.00
  -23   11   11     -0.62      0.00
  -21   11   11      0.17      0.00
  -19   11   11     -0.01      0.00
  -17   11   11      0.00      0.00
  -15   11   11     -0.59      0.00
  -13   11   11     -4.13      0.00
  -11   11   11     -0.65      0.00
   -9   11   11      1.85      0.00
   -7   11   11      2.84      0.00
   -5   11   11      3.89      0.00
   -3   11   11     -3.69      0.00
   -1   11   11     -4.53      0.00
    1   11   11      2.92      0.00
    3   11   11      0.10      0.00
    5   11   11     -1.56      0.00
    7   11   11      0.79      0.00
    9   11   11      0.15      0.00
   11   11   11      0.56      0.00
   13   11   11      1.66      0.00
   15   11   11     -0.06      0.00
   17   11   11     -0.24      0.00
   19   11   11      0.14      0.00
  -22   12   11      0.65      0.00
  -20   12   11      0.19      0.00
  -18   12   11     -0.87      0.00
  -16   12   11      1.43      0.00
  -14   12   11      0.61      0.00
  -12   12   11      0.88      0.00
  -10   12   11      1.49      0.00
   -8   12   11     -2.66      0.00
   -6   12   11     -1.67      0.00
   -4   12   11     -0.46      0.00
   -2   12   11     -3.40      0.00
    0   12   11      2.80      0.00
    2   12   11      4.86      0.00
    4   12   11     -0.49      0.00
    6   12   11     -0.31      0.00
    8   12   11      0.01      0.00
   10   12   11     -2.15      0.00
   12   12   11     -0.44      0.00
   14   12   11      0.46      0.00
   16   12   11     -0.32      0.00
   18   12   11     -0.25      0.00
  -21   13   11      0.52      0.00
  -19   13   11     -0.12      0.00
  -17   13   11     -0.50      0.00
  -15   13   11     -0.78      0.00
  -13   13   11     -2.26      0.00
  -11   13   11     -0.68      0.00
   -9   13   11     -0.53      0.00
   -7   13   11      3.03      0.00
   -5   13   11      5.21      0.00
   -3   13   11     -4.14      0.00
   -1   13   11     -5.65      0.00
    1   13   11      2.07      0.00
    3   13   11      1.90      0.00
    5   13   11     -1.24      0.00
    7   13   11     -0.54      0.00
    9   13   11      1.00      0.00
   11   13   11     -0.26      0.00
   13   13   11      1.73      0.00
   15   13   11      0.57      0.00
   17   13   11      0.02      0.00
  -20   14   11      0.23      0.00
  -18   14   11     -0.85      0.00
  -16   14   11      0.30      0.00
  -14   14   11      0.89      0.00
  -12   14   11      1.99      0.00
  -10   14   11      0.03      0.00
   -8   14   11     -3.38      0.00
   -6   14   11     -1.02      0.00
   -4   14   11     -0.68      0.00
   -2   14   11     -3.30      0.00
    0   14   11      1.82      0.00
    2   14   11      3.43      0.00
    4   14   11      0.78      0.00
    6   14   11     -1.60      0.00
    8   14   11     -0.52      0.00
   10   14   11     -1.95      0.00
   12   14   11     -1.14      0.00
   14   14   11      1.27      0.00
   16   14   11     -0.64      0.00
  -19   15   11      0.17      0.00
  -17   15   11     -0.55      0.00
  -15   15   11     -1.27      0.00
  -13   15   11     -0.42      0.00
  -11   15   11     -0.78      0.00
   -9   15   11     -1.42      0.00
   -7   15   11      2.73      0.00
   -5   15   11      3.05      0.00
   -3   15   11     -3.53      0.00
   -1   15   11     -4.20      0.00
    1   15   11      0.81      0.00
    3   15   11      1.65      0.00
    5   15   11     -0.96      0.00
    7   15   11     -0.96      0.00
    9   15   11      0.22      0.00
   11   15   11     -0.41      0.00
   13   15   11      1.14      0.00
  -18   16   11     -0.46      0.00
  -16   16   11     -0.52      0.00
  -14   16   11      1.14      0.00
  -12   16   11      2.50      0.00
  -10   16   11     -0.60      0.00
   -8   16   11     -1.90      0.00
   -6   16   11     -1.10      0.00
   -4   16   11     -1.76      0.00
   -2   16   11     -0.88      0.00
    0   16   11      0.39      0.00
    2   16   11      2.25      0.00
    4   16   11     -0.35      0.00
    6   16   11     -0.89      0.00
    8   16   11     -0.71      0.00
   10   16   11     -1.87      0.00
   12   16   11     -0.64      0.00
  -15   17   11     -1.08      0.00
  -13   17   11      0.17      0.00
  -11   17   11     -0.60      0.00
   -9   17   11     -0.36      0.00
   -7   17   11      2.91      0.00
   -5   17   11      0.86      0.00
   -3   17   11     -1.72      0.00
   -1   17   11     -2.08      0.00
    1   17   11     -0.52      0.00
    3   17   11      0.74      0.00
    5   17   11     -0.44      0.00
    7   17   11     -0.35      0.00
    9   17   11      0.20      0.00
  -12   18   11      1.90      0.00
  -10   18   11     -0.43      0.00
   -8   18   11     -0.45      0.00
   -6   18   11     -1.70      0.00
   -4   18   11     -1.06      0.00
   -2   18   11      0.42      0.00
    0   18   11      0.80      0.00
    2   18   11     -0.06      0.00
    4   18   11      0.23      0.00
    6   18   11     -1.24      0.00
    8   18   11      0.44      0.00
   -9   19   11      0.96      0.00
   -7   19   11      1.26      0.00
   -5   19   11      0.14      0.00
   -3   19   11     -0.17      0.00
   -1   19   11     -0.43      0.00
    1   19   11     -1.37      0.00
    3   19   11      0.34      0.00
  -28    0   12      0.97      0.00
  -26    0   12     -0.80      0.00
  -24    0   12      2.85      0.00
  -22    0   12      0.11      0.00
  -20    0   12     -3.78      0.00
  -18    0   12      0.97      0.00
  -16    0   12      3.10      0.00
  -14    0   12      4.47      0.00
  -12    0   12     14.45      0.00
  -10    0   12      8.02      0.00
   -8    0   12    -18.95      0.00
   -6    0   12    -17.55      0.00
   -4    0   12      5.52      0.00
   -2    0   12      8.22      0.00
    0    0   12      7.11      0.00
    2    0   12     -7.71      0.00
    4    0   12     -2.53      0.00
    6    0   12      1.87      0.00
    8    0   12     -4.19      0.00
   10    0   12     -1.84      0.00
   12    0   12     -3.43      0.00
   14    0   12      1.03      0.00
   16    0   12      0.53      0.00
   18    0   12     -0.17      0.00
   20    0   12      0.85      0.00
   22    0   12     -0.53      0.00
  -29    1   12      1.34      0.00
  -27    1   12     -1.70      0.00
  -25    1   12     -1.56      0.00
  -23    1   12      1.23      0.00
  -21    1   12     -1.71      0.00
  -19    1   12     -0.60      0.00
  -17    1   12      1.41      0.00
  -15    1   12     -5.33      0.00
  -13    1   12     -3.20      0.00
  -11    1   12      7.75      0.00
   -9    1   12     -4.07      0.00
   -7    1   12    -19.96      0.00
   -5    1   12     -5.01      0.00
   -3    1   12      4.79      0.00
   -1    1   12      3.73      0.00
    1    1   12     -2.66      0.00
    3    1   12     -8.42      0.00
    5    1   12      3.22      0.00
    7    1   12     -4.40      0.00
    9    1   12     -2.60      0.00
   11    1   12      2.12      0.00
   13    1   12      3.00      0.00
   15    1   12      2.70      0.00
   17    1   12     -0.71      0.00
   19    1   12      2.19      0.00
   21    1   12     -1.08      0.00
   23    1   12     -0.11      0.00
  -28    2   12      0.62      0.00
  -26    2   12      0.10      0.00
  -24    2   12      1.31      0.00
  -22    2   12      0.59      0.00
  -20    2   12     -3.16      0.00
  -18    2   12      0.41      0.00
  -16    2   12      4.05      0.00
  -14    2   12      3.43      0.00
  -12    2   12      9.83      0.00
  -10    2   12      5.79      0.00
   -8    2   12    -14.99      0.00
   -6    2   12    -11.85      0.00
   -4    2   12      4.17      0.00
   -2    2   12      4.40      0.00
    0    2   12      6.92      0.00
    2    2   12     -4.81      0.00
    4    2   12     -3.56      0.00
    6    2   12      1.96      0.00
    8    2   12     -5.12      0.00
   10    2   12     -1.14      0.00
   12    2   12     -4.65      0.00
   14    2   12      1.32      0.00
   16    2   12     -0.07      0.00
   18    2   12      0.12      0.00
   20    2   12      0.33      0.00
   22    2   12     -0.53      0.00
  -27    3   12     -0.64      0.00
  -25    3   12     -1.77      0.00
  -23    3   12     -0.57      0.00
  -21    3   12     -0.01      0.00
  -19    3   12     -0.57      0.00
  -17    3   12      1.41      0.00
  -15    3   12     -4.21      0.00
  -13    3   12     -7.18      0.00
  -11    3   12     -0.20      0.00
   -9    3   12     -2.14      0.00
   -7    3   12     -9.89      0.00
   -5    3   12      1.03      0.00
   -3    3   12     -2.17      0.00
   -1    3   12     -0.75      0.00
    1    3   12      1.10      0.00
    3    3   12     -5.30      0.00
    5    3   12      1.39      0.00
    7    3   12     -3.77      0.00
    9    3   12     -2.10      0.00
   11    3   12      1.68      0.00
   13    3   12      1.84      0.00
   15    3   12      1.92      0.00
   17    3   12      0.01      0.00
   19    3   12      1.14      0.00
   21    3   12     -0.87      0.00
  -28    4   12      0.90      0.00
  -26    4   12      0.39      0.00
  -24    4   12      0.06      0.00
  -22    4   12      0.75      0.00
  -20    4   12     -1.45      0.00
  -18    4   12     -0.18      0.00
  -16    4   12      4.98      0.00
  -14    4   12      2.94      0.00
  -12    4   12      1.34      0.00
  -10    4   12      1.42      0.00
   -8    4   12     -5.81      0.00
   -6    4   12     -1.28      0.00
   -4    4   12      2.89      0.00
   -2    4   12     -3.87      0.00
    0    4   12      6.32      0.00
    2    4   12      0.49      0.00
    4    4   12     -2.73      0.00
    6    4   12      0.78      0.00
    8    4   12     -2.79      0.00
   10    4   12     -2.07      0.00
   12    4   12     -3.81      0.00
   14    4   12     -0.61      0.00
   16    4   12      0.62      0.00
   18    4   12     -0.28      0.00
   20    4   12     -0.14      0.00
   22    4   12      0.28      0.00
  -27    5   12      0.33      0.00
  -25    5   12     -2.14      0.00
  -23    5   12     -1.42      0.00
  -21    5   12      0.92      0.00
  -19    5   12     -0.03      0.00
  -17    5   12      0.48      0.00
  -15    5   12     -2.39      0.00
  -13    5   12     -9.60      0.00
  -11    5   12     -7.13      0.00
   -9    5   12     -1.60      0.00
   -7    5   12      3.25      0.00
   -5    5   12      5.34      0.00
   -3    5   12     -6.25      0.00
   -1    5   12     -7.76      0.00
    1    5   12      4.77      0.00
    3    5   12     -0.92      0.00
    5    5   12     -0.45      0.00
    7    5   12     -2.03      0.00
    9    5   12     -0.35      0.00
   11    5   12      1.62      0.00
   13    5   12      0.43      0.00
   15    5   12      1.74      0.00
   17    5   12      0.22      0.00
   19    5   12      0.64      0.00
   21    5   12     -0.49      0.00
  -26    6   12      0.45      0.00
  -24    6   12     -0.36      0.00
  -22    6   12      0.93      0.00
  -20    6   12     -0.62      0.00
  -18    6   12     -0.80      0.00
  -16    6   12      4.63      0.00
  -14    6   12      3.15      0.00
  -12    6   12     -1.80      0.00
  -10    6   12     -2.70      0.00
   -8    6   12      0.55      0.00
   -6    6   12      4.66      0.00
   -4    6   12      2.27      0.00
   -2    6   12     -6.74      0.00
    0    6   12      2.58      0.00
    2    6   12      4.18      0.00
    4    6   12     -1.80      0.00
    6    6   12     -0.62      0.00
    8    6   12     -1.01      0.00
   10    6   12     -1.71      0.00
   12    6   12     -4.01      0.00
   14    6   12     -0.47      0.00
   16    6   12      0.21      0.00
   18    6   12     -0.59      0.00
   20    6   12      0.09      0.00
   22    6   12      0.31      0.00
  -27    7   12     -0.48      0.00
  -25    7   12     -1.46      0.00
  -23    7   12     -1.22      0.00
  -21    7   12      0.83      0.00
  -19    7   12      0.00      0.00
  -17    7   12     -0.68      0.00
  -15    7   12     -2.23      0.00
  -13    7   12     -6.69      0.00
  -11    7   12    -10.48      0.00
   -9    7   12     -1.36      0.00
   -7    7   12      6.56      0.00
   -5    7   12      7.10      0.00
   -3    7   12     -6.50      0.00
   -1    7   12     -8.82      0.00
    1    7   12      2.05      0.00
    3    7   12      3.09      0.00
    5    7   12     -2.30      0.00
    7    7   12     -1.53      0.00
    9    7   12      1.76      0.00
   11    7   12      0.18      0.00
   13    7   12      0.57      0.00
   15    7   12      0.91      0.00
   17    7   12      0.27      0.00
   19    7   12     -0.14      0.00
   21    7   12      0.20      0.00
  -26    8   12     -0.20      0.00
  -24    8   12      0.68      0.00
  -22    8   12      0.75      0.00
  -20    8   12     -0.59      0.00
  -18    8   12     -0.37      0.00
  -16    8   12      1.96      0.00
  -14    8   12      5.00      0.00
  -12    8   12     -0.34      0.00
  -10    8   12     -3.12      0.00
   -8    8   12      0.66      0.00
   -6    8   12      3.10      0.00
   -4    8   12      2.32      0.00
   -2    8   12     -2.87      0.00
    0    8   12     -1.35      0.00
    2    8   12      3.31      0.00
    4    8   12      0.36      0.00
    6    8   12     -2.11      0.00
    8    8   12      0.32      0.00
   10    8   12     -1.91      0.00
   12    8   12     -3.55      0.00
   14    8   12     -0.13      0.00
   16    8   12     -0.42      0.00
   18    8   12     -0.62      0.00
   20    8   12     -0.13      0.00
  -25    9   12     -1.09      0.00
  -23    9   12     -0.06      0.00
  -21    9   12     -0.22      0.00
  -19    9   12      0.44      0.00
  -17    9   12     -1.76      0.00
  -15    9   12     -1.94      0.00
  -13    9   12     -2.96      0.00
  -11    9   12     -7.44      0.00
   -9    9   12     -2.07      0.00
   -7    9   12      6.03      0.00
   -5    9   12      3.02      0.00
   -3    9   12     -0.79      0.00
   -1    9   12     -7.70      0.00
    1    9   12     -1.49      0.00
    3    9   12      3.41      0.00
    5    9   12     -1.20      0.00
    7    9   12     -0.93      0.00
    9    9   12      2.47      0.00
   11    9   12      0.42      0.00
   13    9   12      0.45      0.00
   15    9   12      1.26      0.00
   17    9   12     -0.02      0.00
   19    9   12      0.27      0.00
  -24   10   12      1.05      0.00
  -22   10   12      0.28      0.00
  -20   10   12     -0.32      0.00
  -18   10   12     -0.34      0.00
  -16   10   12      0.85      0.00
  -14   10   12      4.93      0.00
  -12   10   12      3.49      0.00
  -10   10   12     -1.46      0.00
   -8   10   12      0.15      0.00
   -6   10   12     -1.55      0.00
   -4   10   12      2.98      0.00
   -2   10   12      2.69      0.00
    0   10   12     -3.36      0.00
    2   10   12      0.32      0.00
    4   10   12      1.61      0.00
    6   10   12     -1.35      0.00
    8   10   12      0.05      0.00
   10   10   12     -1.22      0.00
   12   10   12     -2.29      0.00
   14   10   12     -0.09      0.00
   16   10   12      0.16      0.00
   18   10   12     -0.38      0.00
  -23   11   12     -0.35      0.00
  -21   11   12     -0.23      0.00
  -19   11   12      0.41      0.00
  -17   11   12     -1.33      0.00
  -15   11   12     -1.80      0.00
  -13   11   12     -1.37      0.00
  -11   11   12     -4.75      0.00
   -9   11   12     -0.39      0.00
   -7   11   12      2.26      0.00
   -5   11   12      1.19      0.00
   -3   11   12      1.96      0.00
   -1   11   12     -3.22      0.00
    1   11   12     -4.76      0.00
    3   11   12      2.04      0.00
    5   11   12      0.49      0.00
    7   11   12     -0.79      0.00
    9   11   12      2.25      0.00
   11   11   12      0.67      0.00
   13   11   12      0.41      0.00
   15   11   12      0.67      0.00
   17   11   12      0.54      0.00
  -22   12   12     -0.01      0.00
  -20   12   12     -0.15      0.00
  -18   12   12      0.25      0.00
  -16   12   12      0.53      0.00
  -14   12   12      3.94      0.00
  -12   12   12      2.97      0.00
  -10   12   12      1.14      0.00
   -8   12   12     -1.52      0.00
   -6   12   12     -4.04      0.00
   -4   12   12      3.03      0.00
   -2   12   12      5.43      0.00
    0   12   12     -2.46      0.00
    2   12   12     -2.44      0.00
    4   12   12      1.86      0.00
    6   12   12     -0.33      0.00
    8   12   12     -0.86      0.00
   10   12   12     -0.68      0.00
   12   12   12     -2.06      0.00
   14   12   12     -0.57      0.00
   16   12   12     -0.35      0.00
  -21   13   12     -0.40      0.00
  -19   13   12      0.63      0.00
  -17   13   12     -0.44      0.00
  -15   13   12     -1.31      0.00
  -13   13   12     -2.48      0.00
  -11   13   12     -2.81      0.00
   -9   13   12      0.64      0.00
   -7   13   12      0.86      0.00
   -5   13   12      0.33      0.00
   -3   13   12      3.05      0.00
   -1   13   12     -1.34      0.00
    1   13   12     -4.67      0.00
    3   13   12      0.24      0.00
    5   13   12      1.31      0.00
    7   13   12      0.20      0.00
    9   13   12      1.36      0.00
   11   13   12      1.34      0.00
   13   13   12     -0.69      0.00
   15   13   12      0.23      0.00
  -20   14   12     -0.28      0.00
  -18   14   12      0.39      0.00
  -16   14   12      1.11      0.00
  -14   14   12      1.97      0.00
  -12   14   12      2.07      0.00
  -10   14   12      2.66      0.00
   -8   14   12     -1.44      0.00
   -6   14   12     -3.27      0.00
   -4   14   12      2.74      0.00
   -2   14   12      5.19      0.00
    0   14   12     -2.05      0.00
    2   14   12     -2.13      0.00
    4   14   12      0.57      0.00
    6   14   12      1.27      0.00
    8   14   12     -0.63      0.00
   10   14   12     -0.26      0.00
   12   14   12     -1.14      0.00
   14   14   12     -1.12      0.00
  -19   15   12      0.41      0.00
  -17   15   12      0.25      0.00
  -15   15   12     -0.86      0.00
  -13   15   12     -3.37      0.00
  -11   15   12     -1.17      0.00
   -9   15   12      0.98      0.00
   -7   15   12      0.86      0.00
   -5   15   12      1.60      0.00
   -3   15   12      1.94      0.00
   -1   15   12     -0.80      0.00
    1   15   12     -2.97      0.00
    3   15   12     -0.36      0.00
    5   15   12      1.64      0.00
    7   15   12      0.63      0.00
    9   15   12      1.76      0.00
   11   15   12      1.32      0.00
   13   15   12     -0.51      0.00
  -16   16   12      1.36      0.00
  -14   16   12      0.51      0.00
  -12   16   12      1.30      0.00
  -10   16   12      2.18      0.00
   -8   16   12     -1.74      0.00
   -6   16   12     -1.73      0.00
   -4   16   12      2.59      0.00
   -2   16   12      2.29      0.00
    0   16   12      0.41      0.00
    2   16   12     -1.96      0.00
    4   16   12      0.92      0.00
    6   16   12      0.65      0.00
    8   16   12     -0.06      0.00
   10   16   12     -0.07      0.00
  -15   17   12     -0.89      0.00
  -13   17   12     -2.83      0.00
  -11   17   12     -0.92      0.00
   -9   17   12      0.10      0.00
   -7   17   12      0.57      0.00
   -5   17   12      2.13      0.00
   -3   17   12      0.08      0.00
   -1   17   12     -0.51      0.00
    1   17   12     -1.04      0.00
    3   17   12     -0.24      0.00
    5   17   12      1.19      0.00
    7   17   12     -0.09      0.00
    9   17   12      1.36      0.00
  -12   18   12      1.03      0.00
  -10   18   12      0.83      0.00
   -8   18   12     -1.63      0.00
   -6   18   12     -0.16      0.00
   -4   18   12      0.45      0.00
   -2   18   12      0.96      0.00
    0   18   12      0.59      0.00
    2   18   12     -0.16      0.00
    4   18   12     -0.26      0.00
    6   18   12      0.66      0.00
   -7   19   12      1.43      0.00
   -5   19   12      0.96      0.00
   -3   19   12     -0.80      0.00
   -1   19   12     -0.47      0.00
    1   19   12      0.16      0.00
  -28    0   13      1.09      0.00
  -26    0   13      2.25      0.00
  -24    0   13     -1.49      0.00
  -22    0   13      1.74      0.00
  -20    0   13      0.69      0.00
  -18    0   13     -1.85      0.00
  -16    0   13      5.52      0.00
  -14    0   13      5.31      0.00
  -12    0   13     -2.86      0.00
  -10    0   13      6.61      0.00
   -8    0   13     20.12      0.00
   -6    0   13      5.63      0.00
   -4    0   13     -6.64      0.00
   -2    0   13     -2.96      0.00
    0    0   13      0.05      0.00
    2    0   13      7.13      0.00
    4    0   13     -3.40      0.00
    6    0   13      2.65      0.00
    8    0   13      3.20      0.00
   10    0   13     -1.50      0.00
   12    0   13     -3.54      0.00
   14    0   13     -2.44      0.00
   16    0   13      0.38      0.00
   18    0   13     -2.42      0.00
   20    0   13      0.89      0.00
   22    0   13      0.39      0.00
  -27    1   13      0.14      0.00
  -25    1   13     -2.28      0.00
  -23    1   13     -1.06      0.00
  -21    1   13      3.08      0.00
  -19    1   13     -0.64      0.00
  -17    1   13     -3.79      0.00
  -15    1   13     -5.11      0.00
  -13    1   13    -13.13      0.00
  -11    1   13     -9.38      0.00
   -9    1   13     11.95      0.00
   -7    1   13     12.27      0.00
   -5    1   13     -7.10      0.00
   -3    1   13     -7.90      0.00
   -1    1   13     -5.83      0.00
    1    1   13      5.08      0.00
    3    1   13      6.47      0.00
    5    1   13     -2.10      0.00
    7    1   13      4.01      0.00
    9    1   13      2.02      0.00
   11    1   13      3.22      0.00
   13    1   13     -0.87      0.00
   15    1   13      0.08      0.00
   17    1   13      0.29      0.00
   19    1   13     -0.80      0.00
   21    1   13      0.41      0.00
  -28    2   13      0.99      0.00
  -26    2   13      1.76      0.00
  -24    2   13     -0.03      0.00
  -22    2   13      0.68      0.00
  -20    2   13      0.55      0.00
  -18    2   13     -1.42      0.00
  -16    2   13      4.83      0.00
  -14    2   13      7.57      0.00
  -12    2   13      1.07      0.00
  -10    2   13      5.61      0.00
   -8    2   13     14.85      0.00
   -6    2   13      3.10      0.00
   -4    2   13     -3.35      0.00
   -2    2   13     -0.38      0.00
    0    2   13     -1.73      0.00
    2    2   13      5.21      0.00
    4    2   13     -1.61      0.00
    6    2   13      2.03      0.00
    8    2   13      4.20      0.00
   10    2   13     -2.40      0.00
   12    2   13     -1.83      0.00
   14    2   13     -2.89      0.00
   16    2   13      0.58      0.00
   18    2   13     -2.09      0.00
   20    2   13      1.08      0.00
   22    2   13      0.41      0.00
  -27    3   13     -0.46      0.00
  -25    3   13     -1.18      0.00
  -23    3   13     -0.74      0.00
  -21    3   13      1.34      0.00
  -19    3   13      0.19      0.00
  -17    3   13     -4.37      0.00
  -15    3   13     -4.23      0.00
  -13    3   13     -6.64      0.00
  -11    3   13     -5.56      0.00
   -9    3   13      4.49      0.00
   -7    3   13      5.34      0.00
   -5    3   13     -6.27      0.00
   -3    3   13     -0.99      0.00
   -1    3   13     -5.65      0.00
    1    3   13      1.04      0.00
    3    3   13      5.73      0.00
    5    3   13     -0.75      0.00
    7    3   13      3.42      0.00
    9    3   13      2.29      0.00
   11    3   13      3.46      0.00
   13    3   13      0.26      0.00
   15    3   13      0.08      0.00
   17    3   13      0.09      0.00
   19    3   13      0.21      0.00
   21    3   13     -0.17      0.00
  -28    4   13     -0.12      0.00
  -26    4   13      1.88      0.00
  -24    4   13      1.22      0.00
  -22    4   13     -0.51      0.00
  -20    4   13     -0.18      0.00
  -18    4   13     -0.68      0.00
  -16    4   13      3.80      0.00
  -14    4   13     10.05      0.00
  -12    4   13      8.63      0.00
  -10    4   13      3.45      0.00
   -8    4   13      3.47      0.00
   -6    4   13     -2.01      0.00
   -4    4   13      2.50      0.00
   -2    4   13      5.24      0.00
    0    4   13     -4.86      0.00
    2    4   13      0.68      0.00
    4    4   13     -0.21      0.00
    6    4   13      1.87      0.00
    8    4   13      1.96      0.00
   10    4   13     -1.15      0.00
   12    4   13     -1.58      0.00
   14    4   13     -1.19      0.00
   16    4   13     -0.84      0.00
   18    4   13     -0.85      0.00
   20    4   13      0.95      0.00
  -27    5   13     -0.97      0.00
  -25    5   13     -0.07      0.00
  -23    5   13     -0.93      0.00
  -21    5   13      0.26      0.00
  -19    5   13      0.51      0.00
  -17    5   13     -3.98      0.00
  -15    5   13     -4.48      0.00
  -13    5   13     -0.96      0.00
  -11    5   13     -2.38      0.00
   -9    5   13     -2.03      0.00
   -7    5   13     -3.73      0.00
   -5    5   13     -3.49      0.00
   -3    5   13      3.39      0.00
   -1    5   13     -2.11      0.00
    1    5   13     -4.00      0.00
    3    5   13      3.83      0.00
    5    5   13      0.73      0.00
    7    5   13      1.28      0.00
    9    5   13      2.34      0.00
   11    5   13      3.16      0.00
   13    5   13      1.38      0.00
   15    5   13     -0.35      0.00
   17    5   13      0.28      0.00
   19    5   13      0.37      0.00
   21    5   13     -0.61      0.00
  -26    6   13      1.52      0.00
  -24    6   13      1.57      0.00
  -22    6   13     -0.86      0.00
  -20    6   13     -0.43      0.00
  -18    6   13      0.49      0.00
  -16    6   13      2.81      0.00
  -14    6   13      9.64      0.00
  -12    6   13     11.91      0.00
  -10    6   13      3.82      0.00
   -8    6   13     -4.74      0.00
   -6    6   13     -4.59      0.00
   -4    6   13      4.85      0.00
   -2    6   13      8.62      0.00
    0    6   13     -3.94      0.00
    2    6   13     -3.81      0.00
    4    6   13      1.50      0.00
    6    6   13      1.31      0.00
    8    6   13      0.09      0.00
   10    6   13     -0.88      0.00
   12    6   13     -0.52      0.00
   14    6   13     -1.11      0.00
   16    6   13     -0.97      0.00
   18    6   13     -0.13      0.00
   20    6   13      0.34      0.00
  -27    7   13     -0.08      0.00
  -25    7   13     -0.68      0.00
  -23    7   13     -0.71      0.00
  -21    7   13     -0.03      0.00
  -19    7   13      0.76      0.00
  -17    7   13     -2.67      0.00
  -15    7   13     -4.55      0.00
  -13    7   13     -1.61      0.00
  -11    7   13      0.77      0.00
   -9    7   13     -4.42      0.00
   -7    7   13     -4.35      0.00
   -5    7   13     -3.42      0.00
   -3    7   13      3.81      0.00
   -1    7   13      0.36      0.00
    1    7   13     -3.38      0.00
    3    7   13      0.51      0.00
    5    7   13      2.76      0.00
    7    7   13      0.21      0.00
    9    7   13      2.00      0.00
   11    7   13      3.87      0.00
   13    7   13      0.82      0.00
   15    7   13      0.38      0.00
   17    7   13      0.32      0.00
   19    7   13      0.60      0.00
  -26    8   13      1.21      0.00
  -24    8   13      0.45      0.00
  -22    8   13     -0.35      0.00
  -20    8   13     -0.20      0.00
  -18    8   13      0.83      0.00
  -16    8   13      3.37      0.00
  -14    8   13      5.62      0.00
  -12    8   13     11.10      0.00
  -10    8   13      4.56      0.00
   -8    8   13     -4.93      0.00
   -6    8   13     -3.79      0.00
   -4    8   13      3.00      0.00
   -2    8   13      7.29      0.00
    0    8   13      0.19      0.00
    2    8   13     -5.15      0.00
    4    8   13      0.79      0.00
    6    8   13      1.85      0.00
    8    8   13     -1.74      0.00
   10    8   13      0.17      0.00
   12    8   13     -0.51      0.00
   14    8   13     -0.91      0.00
   16    8   13     -0.49      0.00
   18    8   13     -0.10      0.00
   20    8   13      0.26      0.00
  -25    9   13     -0.76      0.00
  -23    9   13     -1.06      0.00
  -21    9   13      0.55      0.00
  -19    9   13      0.16      0.00
  -17    9   13     -0.79      0.00
  -15    9   13     -5.11      0.00
  -13    9   13     -4.44      0.00
  -11    9   13     -0.39      0.00
   -9    9   13     -2.00      0.00
   -7    9   13     -2.33      0.00
   -5    9   13     -1.76      0.00
   -3    9   13     -1.71      0.00
   -1    9   13      3.47      0.00
    1    9   13     -0.96      0.00
    3    9   13     -1.64      0.00
    5    9   13      2.35      0.00
    7    9   13     -0.21      0.00
    9    9   13      1.68      0.00
   11    9   13      3.08      0.00
   13    9   13      0.53      0.00
   15    9   13      0.13      0.00
   17    9   13      0.42      0.00
   19    9   13      0.17      0.00
  -24   10   13     -0.13      0.00
  -22   10   13      0.21      0.00
  -20   10   13     -0.30      0.00
  -18   10   13      1.06      0.00
  -16   10   13      2.72      0.00
  -14   10   13      3.16      0.00
  -12   10   13      6.87      0.00
  -10   10   13      4.32      0.00
   -8   10   13     -3.00      0.00
   -6   10   13     -1.25      0.00
   -4   10   13     -0.44      0.00
   -2   10   13      3.80      0.00
    0   10   13      4.14      0.00
    2   10   13     -3.75      0.00
    4   10   13     -0.88      0.00
    6   10   13      1.25      0.00
    8   10   13     -1.99      0.00
   10   10   13     -0.30      0.00
   12   10   13     -0.92      0.00
   14   10   13     -0.75      0.00
   16   10   13     -0.96      0.00
   18   10   13     -0.08      0.00
  -23   11   13     -0.32      0.00
  -21   11   13      0.13      0.00
  -19   11   13      0.05      0.00
  -17   11   13     -0.40      0.00
  -15   11   13     -4.34      0.00
  -13   11   13     -5.60      0.00
  -11   11   13     -1.78      0.00
   -9   11   13     -0.84      0.00
   -7   11   13      1.88      0.00
   -5   11   13     -2.42      0.00
   -3   11   13     -4.55      0.00
   -1   11   13      2.73      0.00
    1   11   13      2.44      0.00
    3   11   13     -2.24      0.00
    5   11   13      0.82      0.00
    7   11   13      0.69      0.00
    9   11   13      0.99      0.00
   11   11   13      2.43      0.00
   13   11   13      0.46      0.00
   15   11   13      0.23      0.00
   17   11   13     -0.14      0.00
  -22   12   13      0.16      0.00
  -20   12   13     -0.35      0.00
  -18   12   13      0.36      0.00
  -16   12   13      2.13      0.00
  -14   12   13      2.86      0.00
  -12   12   13      5.13      0.00
  -10   12   13      2.46      0.00
   -8   12   13     -0.22      0.00
   -6   12   13     -0.14      0.00
   -4   12   13     -2.32      0.00
   -2   12   13      1.14      0.00
    0   12   13      4.66      0.00
    2   12   13     -0.78      0.00
    4   12   13     -2.14      0.00
    6   12   13      0.76      0.00
    8   12   13     -1.02      0.00
   10   12   13     -0.96      0.00
   12   12   13      0.11      0.00
   14   12   13     -0.43      0.00
   16   12   13     -0.39      0.00
  -21   13   13      0.26      0.00
  -19   13   13     -0.24      0.00
  -17   13   13     -0.75      0.00
  -15   13   13     -2.87      0.00
  -13   13   13     -3.82      0.00
  -11   13   13     -3.30      0.00
   -9   13   13      0.13      0.00
   -7   13   13      2.86      0.00
   -5   13   13     -2.11      0.00
   -3   13   13     -5.34      0.00
   -1   13   13      1.97      0.00
    1   13   13      3.30      0.00
    3   13   13     -1.35      0.00
    5   13   13     -0.48      0.00
    7   13   13      0.60      0.00
    9   13   13      1.05      0.00
   11   13   13      1.56      0.00
   13   13   13      1.27      0.00
   15   13   13      0.19      0.00
  -20   14   13     -0.24      0.00
  -18   14   13     -0.18      0.00
  -16   14   13      1.11      0.00
  -14   14   13      3.60      0.00
  -12   14   13      3.31      0.00
  -10   14   13      0.71      0.00
   -8   14   13      0.36      0.00
   -6   14   13     -1.22      0.00
   -4   14   13     -1.86      0.00
   -2   14   13     -0.12      0.00
    0   14   13      4.38      0.00
    2   14   13      0.06      0.00
    4   14   13     -1.58      0.00
    6   14   13     -0.68      0.00
    8   14   13     -0.94      0.00
   10   14   13     -1.23      0.00
   12   14   13      0.06      0.00
   14   14   13      0.20      0.00
  -17   15   13     -1.08      0.00
  -15   15   13     -1.58      0.00
  -13   15   13     -2.05      0.00
  -11   15   13     -3.92      0.00
   -9   15   13      0.35      0.00
   -7   15   13      1.78      0.00
   -5   15   13     -2.34      0.00
   -3   15   13     -3.46      0.00
   -1   15   13      0.74      0.00
    1   15   13      2.39      0.00
    3   15   13     -0.48      0.00
    5   15   13     -1.36      0.00
    7   15   13      0.14      0.00
    9   15   13      0.39      0.00
   11   15   13      1.14      0.00
  -16   16   13      0.52      0.00
  -14   16   13      3.60      0.00
  -12   16   13      2.18      0.00
  -10   16   13      0.71      0.00
   -8   16   13      0.26      0.00
   -6   16   13     -1.86      0.00
   -4   16   13     -1.56      0.00
   -2   16   13      0.83      0.00
    0   16   13      1.18      0.00
    2   16   13      1.26      0.00
    4   16   13     -1.91      0.00
    6   16   13     -0.08      0.00
    8   16   13     -1.11      0.00
   10   16   13     -1.18      0.00
  -13   17   13     -1.30      0.00
  -11   17   13     -2.24      0.00
   -9   17   13      0.68      0.00
   -7   17   13      0.93      0.00
   -5   17   13     -1.68      0.00
   -3   17   13     -1.04      0.00
   -1   17   13     -0.68      0.00
    1   17   13      1.03      0.00
    3   17   13      0.02      0.00
    5   17   13     -0.83      0.00
    7   17   13      0.31      0.00
  -10   18   13      0.94      0.00
   -8   18   13      0.03      0.00
   -6   18   13     -1.85      0.00
   -4   18   13      0.36      0.00
   -2   18   13      0.25      0.00
    0   18   13      0.53      0.00
    2   18   13      0.28      0.00
    4   18   13     -0.63      0.00
  -28    0   14      0.05      0.00
  -26    0   14      1.92      0.00
  -24    0   14      1.94      0.00
  -22    0   14     -2.67      0.00
  -20    0   14      0.73      0.00
  -18    0   14      3.73      0.00
  -16    0   14      5.60      0.00
  -14    0   14     13.97      0.00
  -12    0   14     10.73      0.00
  -10    0   14     -7.73      0.00
   -8    0   14     -9.78      0.00
   -6    0   14      8.55      0.00
   -4    0   14      9.85      0.00
   -2    0   14      4.35      0.00
    0    0   14     -3.75      0.00
    2    0   14     -8.01      0.00
    4    0   14      1.45      0.00
    6    0   14     -3.21      0.00
    8    0   14     -1.68      0.00
   10    0   14     -2.22      0.00
   12    0   14      1.80      0.00
   14    0   14     -0.63      0.00
   16    0   14     -0.46      0.00
   18    0   14      0.77      0.00
   20    0   14     -0.12      0.00
  -27    1   14     -2.19      0.00
  -25    1   14      0.68      0.00
  -23    1   14     -1.07      0.00
  -21    1   14     -0.80      0.00
  -19    1   14      1.87      0.00
  -17    1   14     -4.69      0.00
  -15    1   14     -7.41      0.00
  -13    1   14     -2.51      0.00
  -11    1   14     -8.41      0.00
   -9    1   14    -16.99      0.00
   -7    1   14     -4.89      0.00
   -5    1   14      6.48      0.00
   -3    1   14      1.61      0.00
   -1    1   14      1.25      0.00
    1    1   14     -3.44      0.00
    3    1   14      1.83      0.00
    5    1   14      0.03      0.00
    7    1   14     -4.44      0.00
    9    1   14      1.11      0.00
   11    1   14      2.55      0.00
   13    1   14      2.44      0.00
   15    1   14     -0.51      0.00
   17    1   14      2.07      0.00
   19    1   14     -0.47      0.00
   21    1   14     -0.85      0.00
  -28    2   14      0.07      0.00
  -26    2   14      1.80      0.00
  -24    2   14      1.25      0.00
  -22    2   14     -1.48      0.00
  -20    2   14      0.24      0.00
  -18    2   14      3.61      0.00
  -16    2   14      5.37      0.00
  -14    2   14     10.42      0.00
  -12    2   14      8.98      0.00
  -10    2   14     -4.17      0.00
   -8    2   14     -6.22      0.00
   -6    2   14      7.37      0.00
   -4    2   14      6.75      0.00
   -2    2   14      3.75      0.00
    0    2   14     -1.48      0.00
    2    2   14     -7.48      0.00
    4    2   14     -0.16      0.00
    6    2   14     -2.35      0.00
    8    2   14     -3.10      0.00
   10    2   14     -1.13      0.00
   12    2   14     -0.07      0.00
   14    2   14      0.27      0.00
   16    2   14     -0.84      0.00
   18    2   14      0.29      0.00
   20    2   14      0.00      0.00
  -27    3   14     -1.84      0.00
  -25    3   14     -0.53      0.00
  -23    3   14     -0.22      0.00
  -21    3   14      0.18      0.00
  -19    3   14      0.75      0.00
  -17    3   14     -3.99      0.00
  -15    3   14     -9.77      0.00
  -13    3   14     -8.05      0.00
  -11    3   14     -6.94      0.00
   -9    3   14     -8.00      0.00
   -7    3   14     -2.27      0.00
   -5    3   14      2.36      0.00
   -3    3   14     -3.07      0.00
   -1    3   14      4.13      0.00
    1    3   14     -0.30      0.00
    3    3   14      0.37      0.00
    5    3   14     -0.36      0.00
    7    3   14     -3.81      0.00
    9    3   14      0.69      0.00
   11    3   14      1.71      0.00
   13    3   14      1.46      0.00
   15    3   14      0.30      0.00
   17    3   14      1.34      0.00
   19    3   14     -1.00      0.00
   21    3   14     -0.22      0.00
  -26    4   14      0.79      0.00
  -24    4   14      1.02      0.00
  -22    4   14     -0.01      0.00
  -20    4   14     -0.24      0.00
  -18    4   14      3.31      0.00
  -16    4   14      4.85      0.00
  -14    4   14      4.94      0.00
  -12    4   14      5.14      0.00
  -10    4   14      3.42      0.00
   -8    4   14      0.95      0.00
   -6    4   14      5.52      0.00
   -4    4   14      0.49      0.00
   -2    4   14      2.27      0.00
    0    4   14      2.88      0.00
    2    4   14     -5.28      0.00
    4    4   14     -1.42      0.00
    6    4   14     -1.70      0.00
    8    4   14     -2.24      0.00
   10    4   14     -2.32      0.00
   12    4   14     -0.55      0.00
   14    4   14     -0.40      0.00
   16    4   14      0.19      0.00
   18    4   14     -0.75      0.00
   20    4   14      0.54      0.00
  -27    5   14     -1.16      0.00
  -25    5   14     -1.64      0.00
  -23    5   14      0.77      0.00
  -21    5   14      0.52      0.00
  -19    5   14     -0.05      0.00
  -17    5   14     -3.52      0.00
  -15    5   14    -10.04      0.00
  -13    5   14    -13.10      0.00
  -11    5   14     -5.05      0.00
   -9    5   14      0.67      0.00
   -7    5   14      2.44      0.00
   -5    5   14     -3.29      0.00
   -3    5   14     -6.13      0.00
   -1    5   14      3.95      0.00
    1    5   14      4.83      0.00
    3    5   14     -0.89      0.00
    5    5   14     -0.49      0.00
    7    5   14     -1.34      0.00
    9    5   14     -0.06      0.00
   11    5   14      1.22      0.00
   13    5   14      0.38      0.00
   15    5   14      1.49      0.00
   17    5   14      0.46      0.00
   19    5   14     -0.74      0.00
  -26    6   14      0.64      0.00
  -24    6   14      0.76      0.00
  -22    6   14      0.43      0.00
  -20    6   14     -0.44      0.00
  -18    6   14      2.27      0.00
  -16    6   14      5.06      0.00
  -14    6   14      2.71      0.00
  -12    6   14      2.81      0.00
  -10    6   14      6.28      0.00
   -8    6   14      5.91      0.00
   -6    6   14      3.16      0.00
   -4    6   14     -1.86      0.00
   -2    6   14     -0.48      0.00
    0    6   14      4.10      0.00
    2    6   14     -1.74      0.00
    4    6   14     -3.39      0.00
    6    6   14     -0.11      0.00
    8    6   14     -2.21      0.00
   10    6   14     -2.42      0.00
   12    6   14     -1.43      0.00
   14    6   14     -0.05      0.00
   16    6   14      0.12      0.00
   18    6   14     -0.97      0.00
   20    6   14      1.03      0.00
  -25    7   14     -0.70      0.00
  -23    7   14      0.31      0.00
  -21    7   14      0.59      0.00
  -19    7   14     -0.71      0.00
  -17    7   14     -3.24      0.00
  -15    7   14     -8.27      0.00
  -13    7   14    -12.59      0.00
  -11    7   14     -6.90      0.00
   -9    7   14      4.51      0.00
   -7    7   14      2.45      0.00
   -5    7   14     -3.04      0.00
   -3    7   14     -7.33      0.00
   -1    7   14      1.92      0.00
    1    7   14      5.98      0.00
    3    7   14     -0.15      0.00
    5    7   14     -1.75      0.00
    7    7   14      0.50      0.00
    9    7   14     -0.63      0.00
   11    7   14      0.25      0.00
   13    7   14      0.51      0.00
   15    7   14      1.05      0.00
   17    7   14      0.24      0.00
   19    7   14     -0.64      0.00
  -26    8   14      0.80      0.00
  -24    8   14      1.00      0.00
  -22    8   14      0.05      0.00
  -20    8   14     -0.38      0.00
  -18    8   14      1.34      0.00
  -16    8   14      4.37      0.00
  -14    8   14      5.07      0.00
  -12    8   14      1.51      0.00
  -10    8   14      4.81      0.00
   -8    8   14      4.53      0.00
   -6    8   14      2.19      0.00
   -4    8   14      0.07      0.00
   -2    8   14     -2.18      0.00
    0    8   14      1.43      0.00
    2    8   14      1.23      0.00
    4    8   14     -3.26      0.00
    6    8   14     -0.35      0.00
    8    8   14     -1.33      0.00
   10    8   14     -3.39      0.00
   12    8   14     -0.98      0.00
   14    8   14     -0.32      0.00
   16    8   14     -0.22      0.00
   18    8   14     -0.53      0.00
  -25    9   14     -0.22      0.00
  -23    9   14      0.34      0.00
  -21    9   14     -0.07      0.00
  -19    9   14     -0.24      0.00
  -17    9   14     -3.44      0.00
  -15    9   14     -5.03      0.00
  -13    9   14     -9.44      0.00
  -11    9   14     -6.68      0.00
   -9    9   14      2.10      0.00
   -7    9   14      2.21      0.00
   -5    9   14     -1.96      0.00
   -3    9   14     -3.57      0.00
   -1    9   14     -2.81      0.00
    1    9   14      5.08      0.00
    3    9   14      1.63      0.00
    5    9   14     -1.82      0.00
    7    9   14      1.61      0.00
    9    9   14     -0.70      0.00
   11    9   14      0.51      0.00
   13    9   14      0.51      0.00
   15    9   14      1.05      0.00
   17    9   14      0.14      0.00
  -24   10   14      0.89      0.00
  -22   10   14     -0.26      0.00
  -20   10   14      0.10      0.00
  -18   10   14      0.42      0.00
  -16   10   14      4.23      0.00
  -14   10   14      6.60      0.00
  -12   10   14      3.12      0.00
  -10   10   14      2.20      0.00
   -8   10   14      1.60      0.00
   -6   10   14      1.49      0.00
   -4   10   14      3.39      0.00
   -2   10   14     -2.51      0.00
    0   10   14     -2.35      0.00
    2   10   14      2.69      0.00
    4   10   14     -1.65      0.00
    6   10   14     -0.41      0.00
    8   10   14     -0.67      0.00
   10   10   14     -2.75      0.00
   12   10   14     -0.38      0.00
   14   10   14     -0.30      0.00
   16   10   14      0.39      0.00
  -23   11   14     -0.16      0.00
  -21   11   14      0.27      0.00
  -19   11   14     -0.10      0.00
  -17   11   14     -2.59      0.00
  -15   11   14     -3.82      0.00
  -13   11   14     -6.36      0.00
  -11   11   14     -5.50      0.00
   -9   11   14      0.08      0.00
   -7   11   14      0.06      0.00
   -5   11   14      1.04      0.00
   -3   11   14     -1.11      0.00
   -1   11   14     -4.15      0.00
    1   11   14      1.78      0.00
    3   11   14      2.88      0.00
    5   11   14     -1.03      0.00
    7   11   14      0.76      0.00
    9   11   14      0.26      0.00
   11   11   14      0.22      0.00
   13   11   14      0.52      0.00
   15   11   14      0.80      0.00
  -22   12   14     -0.01      0.00
  -20   12   14      0.18      0.00
  -18   12   14      0.57      0.00
  -16   12   14      2.99      0.00
  -14   12   14      5.47      0.00
  -12   12   14      3.73      0.00
  -10   12   14      1.14      0.00
   -8   12   14     -1.37      0.00
   -6   12   14      1.37      0.00
   -4   12   14      5.09      0.00
   -2   12   14     -1.90      0.00
    0   12   14     -3.52      0.00
    2   12   14      1.51      0.00
    4   12   14      0.27      0.00
    6   12   14     -0.98      0.00
    8   12   14     -0.96      0.00
   10   12   14     -1.87      0.00
   12   12   14     -1.32      0.00
   14   12   14     -0.03      0.00
  -21   13   14      0.12      0.00
  -19   13   14      0.27      0.00
  -17   13   14     -1.49      0.00
  -15   13   14     -3.96      0.00
  -13   13   14     -4.96      0.00
  -11   13   14     -3.06      0.00
   -9   13   14     -1.50      0.00
   -7   13   14      0.19      0.00
   -5   13   14      1.67      0.00
   -3   13   14      0.48      0.00
   -1   13   14     -3.94      0.00
    1   13   14     -0.43      0.00
    3   13   14      2.63      0.00
    5   13   14     -0.10      0.00
    7   13   14      0.28      0.00
    9   13   14      0.47      0.00
   11   13   14     -0.08      0.00
   13   13   14     -0.19      0.00
  -18   14   14      0.86      0.00
  -16   14   14      2.01      0.00
  -14   14   14      3.17      0.00
  -12   14   14      4.53      0.00
  -10   14   14      1.18      0.00
   -8   14   14     -1.92      0.00
   -6   14   14      2.08      0.00
   -4   14   14      3.49      0.00
   -2   14   14     -0.46      0.00
    0   14   14     -3.90      0.00
    2   14   14      1.08      0.00
    4   14   14      0.89      0.00
    6   14   14      0.03      0.00
    8   14   14     -0.72      0.00
   10   14   14     -1.38      0.00
   12   14   14     -0.91      0.00
  -17   15   14     -0.57      0.00
  -15   15   14     -3.64      0.00
  -13   15   14     -3.68      0.00
  -11   15   14     -1.24      0.00
   -9   15   14     -1.55      0.00
   -7   15   14      1.33      0.00
   -5   15   14      1.71      0.00
   -3   15   14      0.10      0.00
   -1   15   14     -2.19      0.00
    1   15   14     -1.13      0.00
    3   15   14      1.79      0.00
    5   15   14      0.78      0.00
    7   15   14      0.35      0.00
    9   15   14      0.94      0.00
   11   15   14     -0.15      0.00
  -16   16   14      1.28      0.00
  -14   16   14      1.45      0.00
  -12   16   14      3.69      0.00
  -10   16   14      0.50      0.00
   -8   16   14     -0.97      0.00
   -6   16   14      1.68      0.00
   -4   16   14      2.24      0.00
   -2   16   14     -0.30      0.00
    0   16   14     -1.10      0.00
    2   16   14     -0.56      0.00
    4   16   14      1.63      0.00
    6   16   14     -0.18      0.00
    8   16   14     -0.43      0.00
  -13   17   14     -2.53      0.00
  -11   17   14     -1.56      0.00
   -9   17   14     -1.08      0.00
   -7   17   14      1.37      0.00
   -5   17   14      1.16      0.00
   -3   17   14     -0.56      0.00
   -1   17   14     -0.10      0.00
    1   17   14     -1.12      0.00
    3   17   14      0.91      0.00
    5   17   14      0.15      0.00
   -8   18   14     -0.42      0.00
   -6   18   14      0.90      0.00
   -4   18   14     -0.17      0.00
   -2   18   14      1.01      0.00
    0   18   14     -0.60      0.00
    2   18   14     -0.10      0.00
  -28    0   15      2.00      0.00
  -26    0   15     -0.38      0.00
  -24    0   15      0.84      0.00
  -22    0   15      1.11      0.00
  -20    0   15     -2.11      0.00
  -18    0   15      3.77      0.00
  -16    0   15      7.42      0.00
  -14    0   15      4.07      0.00
  -12    0   15     10.11      0.00
  -10    0   15     15.89      0.00
   -8    0   15      4.86      0.00
   -6    0   15     -7.89      0.00
   -4    0   15     -2.27      0.00
   -2    0   15     -0.44      0.00
    0    0   15      0.96      0.00
    2    0   15     -1.49      0.00
    4    0   15     -2.33      0.00
    6    0   15      4.49      0.00
    8    0   15     -0.07      0.00
   10    0   15     -1.59      0.00
   12    0   15     -2.53      0.00
   14    0   15      0.92      0.00
   16    0   15     -1.63      0.00
   18    0   15     -0.16      0.00
   20    0   15      1.06      0.00
  -27    1   15     -1.28      0.00
  -25    1   15     -1.94      0.00
  -23    1   15      1.43      0.00
  -21    1   15     -0.73      0.00
  -19    1   15     -3.31      0.00
  -17    1   15     -5.31      0.00
  -15    1   15    -12.41      0.00
  -13    1   15    -10.52      0.00
  -11    1   15      3.23      0.00
   -9    1   15      5.82      0.00
   -7    1   15     -8.01      0.00
   -5    1   15     -9.91      0.00
   -3    1   15     -2.70      0.00
   -1    1   15      2.13      0.00
    1    1   15      7.14      0.00
    3    1   15      0.80      0.00
    5    1   15      1.56      0.00
    7    1   15      2.46      0.00
    9    1   15     -0.16      0.00
   11    1   15     -1.88      0.00
   13    1   15     -0.13      0.00
   15    1   15      0.95      0.00
   17    1   15     -0.32      0.00
   19    1   15     -0.19      0.00
  -28    2   15      1.95      0.00
  -26    2   15     -0.06      0.00
  -24    2   15      0.71      0.00
  -22    2   15      0.28      0.00
  -20    2   15     -1.30      0.00
  -18    2   15      3.71      0.00
  -16    2   15      8.34      0.00
  -14    2   15      7.13      0.00
  -12    2   15      8.98      0.00
  -10    2   15     11.76      0.00
   -8    2   15      3.44      0.00
   -6    2   15     -4.91      0.00
   -4    2   15     -0.59      0.00
   -2    2   15     -1.35      0.00
    0    2   15     -0.88      0.00
    2    2   15     -0.66      0.00
    4    2   15     -1.12      0.00
    6    2   15      3.41      0.00
    8    2   15      1.46      0.00
   10    2   15     -2.54      0.00
   12    2   15     -0.74      0.00
   14    2   15     -0.39      0.00
   16    2   15     -0.76      0.00
   18    2   15      0.21      0.00
   20    2   15      0.78      0.00
  -27    3   15     -0.87      0.00
  -25    3   15     -1.49      0.00
  -23    3   15      0.19      0.00
  -21    3   15     -0.53      0.00
  -19    3   15     -2.42      0.00
  -17    3   15     -5.03      0.00
  -15    3   15     -7.90      0.00
  -13    3   15     -7.80      0.00
  -11    3   15     -2.19      0.00
   -9    3   15      0.20      0.00
   -7    3   15     -5.40      0.00
   -5    3   15     -5.63      0.00
   -3    3   15     -1.22      0.00
   -1    3   15     -1.66      0.00
    1    3   15      5.81      0.00
    3    3   15      2.44      0.00
    5    3   15      1.23      0.00
    7    3   15      2.70      0.00
    9    3   15      0.13      0.00
   11    3   15     -0.53      0.00
   13    3   15      0.10      0.00
   15    3   15      0.23      0.00
   17    3   15      0.60      0.00
   19    3   15     -0.23      0.00
  -26    4   15      1.07      0.00
  -24    4   15     -0.25      0.00
  -22    4   15     -0.58      0.00
  -20    4   15     -0.10      0.00
  -18    4   15      3.45      0.00
  -16    4   15      9.57      0.00
  -14    4   15     11.77      0.00
  -12    4   15      7.47      0.00
  -10    4   15      2.34      0.00
   -8    4   15      0.83      0.00
   -6    4   15     -0.25      0.00
   -4    4   15      3.71      0.00
   -2    4   15     -3.41      0.00
    0    4   15     -4.79      0.00
    2    4   15      0.29      0.00
    4    4   15     -0.66      0.00
    6    4   15      2.42      0.00
    8    4   15      1.16      0.00
   10    4   15     -0.90      0.00
   12    4   15     -0.39      0.00
   14    4   15     -0.76      0.00
   16    4   15     -0.86      0.00
   18    4   15      0.83      0.00
   20    4   15      0.11      0.00
  -27    5   15     -0.88      0.00
  -25    5   15     -0.72      0.00
  -23    5   15     -0.96      0.00
  -21    5   15      0.09      0.00
  -19    5   15     -1.80      0.00
  -17    5   15     -4.62      0.00
  -15    5   15     -4.91      0.00
  -13    5   15     -4.59      0.00
  -11    5   15     -7.76      0.00
   -9    5   15     -4.81      0.00
   -7    5   15     -3.95      0.00
   -5    5   15      0.08      0.00
   -3    5   15     -0.40      0.00
   -1    5   15     -3.36      0.00
    1    5   15      1.98      0.00
    3    5   15      4.06      0.00
    5    5   15      0.22      0.00
    7    5   15      1.76      0.00
    9    5   15      1.04      0.00
   11    5   15      0.38      0.00
   13    5   15      0.41      0.00
   15    5   15     -0.73      0.00
   17    5   15      1.21      0.00
   19    5   15     -0.78      0.00
  -26    6   15      1.03      0.00
  -24    6   15     -0.34      0.00
  -22    6   15     -0.65      0.00
  -20    6   15      0.45      0.00
  -18    6   15      3.25      0.00
  -16    6   15      8.49      0.00
  -14    6   15     13.46      0.00
  -12    6   15      7.05      0.00
  -10    6   15     -2.40      0.00
   -8    6   15     -2.02      0.00
   -6    6   15      3.43      0.00
   -4    6   15      5.20      0.00
   -2    6   15     -2.28      0.00
    0    6   15     -7.10      0.00
    2    6   15     -0.28      0.00
    4    6   15      1.05      0.00
    6    6   15     -0.13      0.00
    8    6   15      2.01      0.00
   10    6   15     -0.60      0.00
   12    6   15      0.46      0.00
   14    6   15     -1.52      0.00
   16    6   15     -0.43      0.00
   18    6   15      0.83      0.00
  -25    7   15     -1.12      0.00
  -23    7   15     -0.28      0.00
  -21    7   15     -0.05      0.00
  -19    7   15     -0.93      0.00
  -17    7   15     -4.44      0.00
  -15    7   15     -4.71      0.00
  -13    7   15     -3.54      0.00
  -11    7   15     -6.21      0.00
   -9    7   15     -6.81      0.00
   -7    7   15     -1.46      0.00
   -5    7   15     -0.09      0.00
   -3    7   15      1.82      0.00
   -1    7   15     -2.59      0.00
    1    7   15     -0.44      0.00
    3    7   15      4.01      0.00
    5    7   15      0.62      0.00
    7    7   15      0.97      0.00
    9    7   15      2.06      0.00
   11    7   15      1.07      0.00
   13    7   15      0.30      0.00
   15    7   15     -0.31      0.00
   17    7   15      0.92      0.00
   19    7   15     -0.79      0.00
  -24    8   15     -0.15      0.00
  -22    8   15     -0.20      0.00
  -20    8   15      0.31      0.00
  -18    8   15      2.87      0.00
  -16    8   15      6.78      0.00
  -14    8   15     10.71      0.00
  -12    8   15      8.48      0.00
  -10    8   15     -1.98      0.00
   -8    8   15     -1.86      0.00
   -6    8   15      2.74      0.00
   -4    8   15      3.90      0.00
   -2    8   15      0.37      0.00
    0    8   15     -5.91      0.00
    2    8   15     -1.99      0.00
    4    8   15      1.78      0.00
    6    8   15     -0.64      0.00
    8    8   15      1.58      0.00
   10    8   15      0.50      0.00
   12    8   15      0.07      0.00
   14    8   15     -1.10      0.00
   16    8   15     -0.20      0.00
   18    8   15      0.26      0.00
  -23    9   15     -0.22      0.00
  -21    9   15      0.13      0.00
  -19    9   15     -0.89      0.00
  -17    9   15     -3.56      0.00
  -15    9   15     -6.62      0.00
  -13    9   15     -3.54      0.00
  -11    9   15     -3.75      0.00
   -9    9   15     -3.74      0.00
   -7    9   15     -1.70      0.00
   -5    9   15     -1.17      0.00
   -3    9   15      1.40      0.00
   -1    9   15      1.69      0.00
    1    9   15     -2.45      0.00
    3    9   15      2.20      0.00
    5    9   15      1.04      0.00
    7    9   15     -0.15      0.00
    9    9   15      2.48      0.00
   11    9   15      0.66      0.00
   13    9   15      0.33      0.00
   15    9   15     -0.38      0.00
   17    9   15      0.64      0.00
  -24   10   15     -0.12      0.00
  -22   10   15      0.17      0.00
  -20   10   15     -0.43      0.00
  -18   10   15      2.51      0.00
  -16   10   15      4.64      0.00
  -14   10   15      7.57      0.00
  -12   10   15      7.22      0.00
  -10   10   15      0.63      0.00
   -8   10   15     -0.94      0.00
   -6   10   15      0.85      0.00
   -4   10   15      1.26      0.00
   -2   10   15      2.64      0.00
    0   10   15     -2.53      0.00
    2   10   15     -3.90      0.00
    4   10   15      1.36      0.00
    6   10   15     -0.73      0.00
    8   10   15      0.59      0.00
   10   10   15      0.36      0.00
   12   10   15     -0.48      0.00
   14   10   15     -0.80      0.00
   16   10   15     -0.61      0.00
  -23   11   15      0.13      0.00
  -21   11   15     -0.36      0.00
  -19   11   15     -0.63      0.00
  -17   11   15     -2.91      0.00
  -15   11   15     -6.19      0.00
  -13   11   15     -4.37      0.00
  -11   11   15     -1.73      0.00
   -9   11   15     -1.01      0.00
   -7   11   15     -0.84      0.00
   -5   11   15     -3.67      0.00
   -3   11   15      1.38      0.00
   -1   11   15      3.72      0.00
    1   11   15     -1.89      0.00
    3   11   15      0.17      0.00
    5   11   15      1.11      0.00
    7   11   15      0.08      0.00
    9   11   15      1.65      0.00
   11   11   15      0.95      0.00
   13   11   15      0.05      0.00
   15   11   15     -0.41      0.00
  -20   12   15     -0.46      0.00
  -18   12   15      1.51      0.00
  -16   12   15      4.31      0.00
  -14   12   15      5.85      0.00
  -12   12   15      5.18      0.00
  -10   12   15      2.24      0.00
   -8   12   15      0.22      0.00
   -6   12   15     -0.70      0.00
   -4   12   15     -0.91      0.00
   -2   12   15      3.23      0.00
    0   12   15     -0.26      0.00
    2   12   15     -3.19      0.00
    4   12   15      0.16      0.00
    6   12   15      0.49      0.00
    8   12   15      0.32      0.00
   10   12   15      0.30      0.00
   12   12   15      0.34      0.00
   14   12   15     -0.86      0.00
  -19   13   15     -0.76      0.00
  -17   13   15     -2.06      0.00
  -15   13   15     -3.87      0.00
  -13   13   15     -4.58      0.00
  -11   13   15     -1.73      0.00
   -9   13   15      1.13      0.00
   -7   13   15     -1.18      0.00
   -5   13   15     -3.42      0.00
   -3   13   15      0.52      0.00
   -1   13   15      4.04      0.00
    1   13   15     -0.72      0.00
    3   13   15     -1.07      0.00
    5   13   15      0.74      0.00
    7   13   15      0.40      0.00
    9   13   15      1.37      0.00
   11   13   15      1.27      0.00
   13   13   15      0.19      0.00
  -18   14   15      0.52      0.00
  -16   14   15      3.78      0.00
  -14   14   15      4.62      0.00
  -12   14   15      2.51      0.00
  -10   14   15      2.15      0.00
   -8   14   15      0.19      0.00
   -6   14   15     -1.88      0.00
   -4   14   15     -0.13      0.00
   -2   14   15      1.56      0.00
    0   14   15      1.73      0.00
    2   14   15     -2.73      0.00
    4   14   15     -0.54      0.00
    6   14   15      0.26      0.00
    8   14   15     -0.16      0.00
   10   14   15      0.50      0.00
  -17   15   15     -1.46      0.00
  -15   15   15     -2.03      0.00
  -13   15   15     -4.12      0.00
  -11   15   15     -2.07      0.00
   -9   15   15      1.26      0.00
   -7   15   15     -1.66      0.00
   -5   15   15     -2.10      0.00
   -3   15   15      0.18      0.00
   -1   15   15      2.50      0.00
    1   15   15      0.08      0.00
    3   15   15     -1.45      0.00
    5   15   15     -0.32      0.00
    7   15   15      0.36      0.00
    9   15   15      0.88      0.00
  -14   16   15      3.63      0.00
  -12   16   15      1.50      0.00
  -10   16   15      2.04      0.00
   -8   16   15     -0.85      0.00
   -6   16   15     -1.46      0.00
   -4   16   15     -0.30      0.00
   -2   16   15      0.70      0.00
    0   16   15      0.59      0.00
    2   16   15     -0.62      0.00
    4   16   15     -1.10      0.00
    6   16   15      0.56      0.00
  -11   17   15     -1.09      0.00
   -9   17   15      0.55      0.00
   -7   17   15     -0.97      0.00
   -5   17   15     -0.77      0.00
   -3   17   15     -0.10      0.00
   -1   17   15      0.38      0.00
    1   17   15      0.69      0.00
    3   17   15     -0.94      0.00
   -6   18   15     -1.00      0.00
   -4   18   15      0.68      0.00
   -2   18   15     -0.92      0.00
  -26    0   16      1.73      0.00
  -24    0   16     -0.82      0.00
  -22    0   16      1.02      0.00
  -20    0   16      3.16      0.00
  -18    0   16      4.46      0.00
  -16    0   16     11.66      0.00
  -14    0   16     10.72      0.00
  -12    0   16     -2.03      0.00
  -10    0   16     -3.94      0.00
   -8    0   16      7.03      0.00
   -6    0   16     10.92      0.00
   -4    0   16      1.69      0.00
   -2    0   16     -2.30      0.00
    0    0   16     -5.48      0.00
    2    0   16     -1.64      0.00
    4    0   16     -0.15      0.00
    6    0   16     -2.54      0.00
    8    0   16      2.20      0.00
   10    0   16      2.70      0.00
   12    0   16      1.29      0.00
   14    0   16     -1.26      0.00
   16    0   16      0.31      0.00
   18    0   16      0.37      0.00
  -27    1   16      0.01      0.00
  -25    1   16     -0.80      0.00
  -23    1   16     -0.98      0.00
  -21    1   16      1.83      0.00
  -19    1   16     -2.63      0.00
  -17    1   16     -6.96      0.00
  -15    1   16     -5.82      0.00
  -13    1   16     -9.81      0.00
  -11    1   16    -12.73      0.00
   -9    1   16     -3.30      0.00
   -7    1   16      6.86      0.00
   -5    1   16      3.03      0.00
   -3    1   16     -0.56      0.00
   -1    1   16      1.17      0.00
    1    1   16      1.36      0.00
    3    1   16      2.50      0.00
    5    1   16     -2.44      0.00
    7    1   16     -2.59      0.00
    9    1   16      1.33      0.00
   11    1   16      1.01      0.00
   13    1   16     -0.16      0.00
   15    1   16      0.34      0.00
   17    1   16      0.36      0.00
   19    1   16     -0.75      0.00
  -26    2   16      1.67      0.00
  -24    2   16     -0.32      0.00
  -22    2   16      1.16      0.00
  -20    2   16      2.38      0.00
  -18    2   16      4.21      0.00
  -16    2   16      9.69      0.00
  -14    2   16      9.00      0.00
  -12    2   16      1.09      0.00
  -10    2   16     -1.77      0.00
   -8    2   16      6.04      0.00
   -6    2   16      7.83      0.00
   -4    2   16      1.78      0.00
   -2    2   16     -1.07      0.00
    0    2   16     -4.52      0.00
    2    2   16     -2.70      0.00
    4    2   16     -0.85      0.00
    6    2   16     -1.72      0.00
    8    2   16      0.76      0.00
   10    2   16      3.25      0.00
   12    2   16     -0.18      0.00
   14    2   16      0.00      0.00
   16    2   16     -0.77      0.00
   18    2   16      0.32      0.00
  -27    3   16     -0.68      0.00
  -25    3   16     -0.10      0.00
  -23    3   16     -0.02      0.00
  -21    3   16      0.81      0.00
  -19    3   16     -3.09      0.00
  -17    3   16     -7.76      0.00
  -15    3   16     -9.69      0.00
  -13    3   16     -8.32      0.00
  -11    3   16     -6.13      0.00
   -9    3   16     -1.41      0.00
   -7    3   16      2.14      0.00
   -5    3   16      0.58      0.00
   -3    3   16      0.75      0.00
   -1    3   16      4.37      0.00
    1    3   16      0.29      0.00
    3    3   16      1.19      0.00
    5    3   16     -1.65      0.00
    7    3   16     -3.24      0.00
    9    3   16      0.98      0.00
   11    3   16     -0.13      0.00
   13    3   16      0.44      0.00
   15    3   16      0.31      0.00
   17    3   16     -0.42      0.00
   19    3   16     -0.33      0.00
  -26    4   16      0.99      0.00
  -24    4   16      0.92      0.00
  -22    4   16      0.80      0.00
  -20    4   16      1.17      0.00
  -18    4   16      3.82      0.00
  -16    4   16      6.26      0.00
  -14    4   16      6.37      0.00
  -12    4   16      6.19      0.00
  -10    4   16      4.09      0.00
   -8    4   16      3.05      0.00
   -6    4   16      3.31      0.00
   -4    4   16      0.17      0.00
   -2    4   16      2.29      0.00
    0    4   16     -2.06      0.00
    2    4   16     -4.34      0.00
    4    4   16     -0.09      0.00
    6    4   16     -1.81      0.00
    8    4   16      0.94      0.00
   10    4   16      0.92      0.00
   12    4   16      0.02      0.00
   14    4   16      0.52      0.00
   16    4   16     -0.97      0.00
   18    4   16      0.33      0.00
  -25    5   16     -0.07      0.00
  -23    5   16      0.86      0.00
  -21    5   16     -0.49      0.00
  -19    5   16     -2.83      0.00
  -17    5   16     -7.88      0.00
  -15    5   16    -11.92      0.00
  -13    5   16     -7.65      0.00
  -11    5   16      1.13      0.00
   -9    5   16      0.35      0.00
   -7    5   16     -1.55      0.00
   -5    5   16     -3.26      0.00
   -3    5   16      2.49      0.00
   -1    5   16      6.56      0.00
    1    5   16      1.05      0.00
    3    5   16     -0.39      0.00
    5    5   16      0.08      0.00
    7    5   16     -3.11      0.00
    9    5   16      0.02      0.00
   11    5   16     -0.71      0.00
   13    5   16      0.98      0.00
   15    5   16      0.65      0.00
   17    5   16     -0.79      0.00
   19    5   16      0.19      0.00
  -26    6   16      0.81      0.00
  -24    6   16      0.89      0.00
  -22    6   16      0.39      0.00
  -20    6   16      0.57      0.00
  -18    6   16      3.57      0.00
  -16    6   16      5.23      0.00
  -14    6   16      4.35      0.00
  -12    6   16      7.78      0.00
  -10    6   16      6.55      0.00
   -8    6   16      1.86      0.00
   -6    6   16     -0.55      0.00
   -4    6   16     -0.47      0.00
   -2    6   16      2.30      0.00
    0    6   16      0.68      0.00
    2    6   16     -4.41      0.00
    4    6   16     -0.76      0.00
    6    6   16     -0.05      0.00
    8    6   16     -0.62      0.00
   10    6   16      0.37      0.00
   12    6   16     -0.64      0.00
   14    6   16      1.09      0.00
   16    6   16     -1.15      0.00
   18    6   16      0.45      0.00
  -25    7   16      0.24      0.00
  -23    7   16      0.09      0.00
  -21    7   16     -0.25      0.00
  -19    7   16     -2.62      0.00
  -17    7   16     -6.45      0.00
  -15    7   16    -11.33      0.00
  -13    7   16     -7.89      0.00
  -11    7   16      1.16      0.00
   -9    7   16      2.30      0.00
   -7    7   16     -3.83      0.00
   -5    7   16     -2.79      0.00
   -3    7   16      0.72      0.00
   -1    7   16      6.86      0.00
    1    7   16      1.94      0.00
    3    7   16     -1.50      0.00
    5    7   16      0.41      0.00
    7    7   16     -2.73      0.00
    9    7   16     -1.01      0.00
   11    7   16     -0.86      0.00
   13    7   16      1.06      0.00
   15    7   16      0.37      0.00
   17    7   16     -0.44      0.00
  -24    8   16      0.25      0.00
  -22    8   16      0.23      0.00
  -20    8   16      0.44      0.00
  -18    8   16      3.29      0.00
  -16    8   16      5.56      0.00
  -14    8   16      4.19      0.00
  -12    8   16      4.39      0.00
  -10    8   16      5.59      0.00
   -8    8   16      1.10      0.00
   -6    8   16     -0.11      0.00
   -4    8   16     -1.02      0.00
   -2    8   16     -0.07      0.00
    0    8   16      1.95      0.00
    2    8   16     -2.84      0.00
    4    8   16     -1.50      0.00
    6    8   16      0.40      0.00
    8    8   16     -1.04      0.00
   10    8   16     -0.65      0.00
   12    8   16     -0.42      0.00
   14    8   16      0.60      0.00
   16    8   16     -0.86      0.00
  -23    9   16     -0.03      0.00
  -21    9   16      0.06      0.00
  -19    9   16     -1.65      0.00
  -17    9   16     -5.16      0.00
  -15    9   16     -8.08      0.00
  -13    9   16     -8.19      0.00
  -11    9   16     -0.73      0.00
   -9    9   16      1.24      0.00
   -7    9   16     -1.75      0.00
   -5    9   16     -1.97      0.00
   -3    9   16     -0.45      0.00
   -1    9   16      3.48      0.00
    1    9   16      4.00      0.00
    3    9   16     -1.21      0.00
    5    9   16     -0.01      0.00
    7    9   16     -1.35      0.00
    9    9   16     -1.46      0.00
   11    9   16     -0.21      0.00
   13    9   16      0.80      0.00
   15    9   16      0.51      0.00
  -22   10   16      0.07      0.00
  -20   10   16      0.92      0.00
  -18   10   16      2.59      0.00
  -16   10   16      6.12      0.00
  -14   10   16      4.46      0.00
  -12   10   16      2.19      0.00
  -10   10   16      2.56      0.00
   -8   10   16      1.11      0.00
   -6   10   16      1.30      0.00
   -4   10   16     -0.92      0.00
   -2   10   16     -2.83      0.00
    0   10   16      1.56      0.00
    2   10   16      0.02      0.00
    4   10   16     -1.79      0.00
    6   10   16      1.07      0.00
    8   10   16     -0.66      0.00
   10   10   16     -0.74      0.00
   12   10   16      0.06      0.00
   14   10   16      0.38      0.00
  -21   11   16      0.73      0.00
  -19   11   16     -1.03      0.00
  -17   11   16     -4.15      0.00
  -15   11   16     -6.08      0.00
  -13   11   16     -6.34      0.00
  -11   11   16     -2.76      0.00
   -9   11   16      0.24      0.00
   -7   11   16     -0.39      0.00
   -5   11   16      0.41      0.00
   -3   11   16     -1.71      0.00
   -1   11   16      0.73      0.00
    1   11   16      4.11      0.00
    3   11   16     -0.28      0.00
    5   11   16     -0.77      0.00
    7   11   16     -0.81      0.00
    9   11   16     -0.97      0.00
   11   11   16     -0.25      0.00
   13   11   16      0.80      0.00
  -20   12   16      0.75      0.00
  -18   12   16      1.98      0.00
  -16   12   16      4.20      0.00
  -14   12   16      4.35      0.00
  -12   12   16      1.61      0.00
  -10   12   16     -0.04      0.00
   -8   12   16      0.95      0.00
   -6   12   16      2.06      0.00
   -4   12   16     -0.02      0.00
   -2   12   16     -4.17      0.00
    0   12   16      0.93      0.00
    2   12   16      0.87      0.00
    4   12   16     -1.21      0.00
    6   12   16      0.16      0.00
    8   12   16     -0.66      0.00
   10   12   16     -1.02      0.00
   12   12   16     -0.35      0.00
  -19   13   16     -0.28      0.00
  -17   13   16     -3.63      0.00
  -15   13   16     -5.22      0.00
  -13   13   16     -3.77      0.00
  -11   13   16     -2.80      0.00
   -9   13   16     -0.80      0.00
   -7   13   16      1.08      0.00
   -5   13   16      0.69      0.00
   -3   13   16     -1.25      0.00
   -1   13   16     -0.94      0.00
    1   13   16      2.82      0.00
    3   13   16      0.82      0.00
    5   13   16     -1.38      0.00
    7   13   16     -0.67      0.00
    9   13   16     -0.98      0.00
   11   13   16     -0.62      0.00
  -18   14   16      1.54      0.00
  -16   14   16      2.20      0.00
  -14   14   16      4.06      0.00
  -12   14   16      2.32      0.00
  -10   14   16     -0.72      0.00
   -8   14   16      0.68      0.00
   -6   14   16      2.14      0.00
   -4   14   16     -0.85      0.00
   -2   14   16     -2.60      0.00
    0   14   16     -0.70      0.00
    2   14   16      2.03      0.00
    4   14   16     -0.24      0.00
    6   14   16      0.09      0.00
    8   14   16     -0.39      0.00
   10   14   16     -1.27      0.00
  -15   15   16     -4.00      0.00
  -13   15   16     -1.94      0.00
  -11   15   16     -1.87      0.00
   -9   15   16     -0.49      0.00
   -7   15   16      1.83      0.00
   -5   15   16      0.08      0.00
   -3   15   16     -0.34      0.00
   -1   15   16     -0.99      0.00
    1   15   16      1.48      0.00
    3   15   16      1.29      0.00
    5   15   16     -0.75      0.00
    7   15   16     -0.48      0.00
  -12   16   16      2.21      0.00
  -10   16   16     -0.86      0.00
   -8   16   16      1.17      0.00
   -6   16   16      0.69      0.00
   -4   16   16      0.06      0.00
   -2   16   16     -1.45      0.00
    0   16   16     -0.22      0.00
    2   16   16      0.87      0.00
    4   16   16      0.72      0.00
    6   16   16     -0.23      0.00
   -9   17   16      0.05      0.00
   -7   17   16      1.34      0.00
   -5   17   16     -0.02      0.00
   -3   17   16      0.42      0.00
   -1   17   16     -0.16      0.00
    1   17   16      0.07      0.00
  -26    0   17      0.88      0.00
  -24    0   17      1.46      0.00
  -22    0   17     -1.77      0.00
  -20    0   17      1.16      0.00
  -18    0   17      5.41      0.00
  -16    0   17      5.06      0.00
  -14    0   17      8.74      0.00
  -12    0   17     11.67      0.00
  -10    0   17      1.70      0.00
   -8    0   17     -6.49      0.00
   -6    0   17     -4.91      0.00
   -4    0   17      1.95      0.00
   -2    0   17     -1.10      0.00
    0    0   17     -1.91      0.00
    2    0   17     -2.20      0.00
    4    0   17      0.16      0.00
    6    0   17      4.10      0.00
    8    0   17     -0.56      0.00
   10    0   17      0.06      0.00
   12    0   17     -0.37      0.00
   14    0   17      0.56      0.00
   16    0   17     -0.61      0.00
   18    0   17      0.28      0.00
  -27    1   17     -1.16      0.00
  -25    1   17      0.29      0.00
  -23    1   17     -1.34      0.00
  -21    1   17     -2.72      0.00
  -19    1   17     -3.11      0.00
  -17    1   17     -9.04      0.00
  -15    1   17     -9.21      0.00
  -13    1   17     -0.03      0.00
  -11    1   17      1.97      0.00
   -9    1   17     -5.59      0.00
   -7    1   17     -8.74      0.00
   -5    1   17     -1.87      0.00
   -3    1   17      2.63      0.00
   -1    1   17      3.04      0.00
    1    1   17      2.08      0.00
    3    1   17     -0.18      0.00
    5    1   17      1.09      0.00
    7    1   17     -2.26      0.00
    9    1   17     -4.41      0.00
   11    1   17     -1.00      0.00
   13    1   17      0.27      0.00
   15    1   17      0.39      0.00
   17    1   17     -0.48      0.00
  -26    2   17      0.42      0.00
  -24    2   17      0.88      0.00
  -22    2   17     -1.36      0.00
  -20    2   17      1.74      0.00
  -18    2   17      5.77      0.00
  -16    2   17      6.80      0.00
  -14    2   17      8.36      0.00
  -12    2   17      7.96      0.00
  -10    2   17      1.69      0.00
   -8    2   17     -4.61      0.00
   -6    2   17     -2.77      0.00
   -4    2   17      0.29      0.00
   -2    2   17     -1.94      0.00
    0    2   17     -1.64      0.00
    2    2   17     -1.30      0.00
    4    2   17      0.57      0.00
    6    2   17      3.49      0.00
    8    2   17      0.75      0.00
   10    2   17     -0.56      0.00
   12    2   17      0.55      0.00
   14    2   17     -0.18      0.00
   16    2   17      0.39      0.00
   18    2   17      0.08      0.00
  -25    3   17     -0.82      0.00
  -23    3   17     -1.27      0.00
  -21    3   17     -1.52      0.00
  -19    3   17     -2.40      0.00
  -17    3   17     -6.85      0.00
  -15    3   17     -6.89      0.00
  -13    3   17     -4.23      0.00
  -11    3   17     -1.81      0.00
   -9    3   17     -3.63      0.00
   -7    3   17     -4.40      0.00
   -5    3   17     -1.64      0.00
   -3    3   17      0.61      0.00
   -1    3   17      1.13      0.00
    1    3   17      3.83      0.00
    3    3   17      0.19      0.00
    5    3   17      0.69      0.00
    7    3   17     -1.57      0.00
    9    3   17     -3.44      0.00
   11    3   17     -0.08      0.00
   13    3   17     -0.58      0.00
   15    3   17      0.95      0.00
   17    3   17     -0.16      0.00
  -26    4   17      0.15      0.00
  -24    4   17     -0.32      0.00
  -22    4   17     -0.08      0.00
  -20    4   17      2.34      0.00
  -18    4   17      6.13      0.00
  -16    4   17      9.54      0.00
  -14    4   17      7.10      0.00
  -12    4   17      1.49      0.00
  -10    4   17     -0.46      0.00
   -8    4   17      0.60      0.00
   -6    4   17     -0.40      0.00
   -4    4   17     -0.88      0.00
   -2    4   17     -5.18      0.00
    0    4   17     -1.45      0.00
    2    4   17      0.46      0.00
    4    4   17     -0.86      0.00
    6    4   17      4.37      0.00
    8    4   17      0.42      0.00
   10    4   17      1.21      0.00
   12    4   17     -0.63      0.00
   14    4   17     -0.18      0.00
   16    4   17      0.57      0.00
   18    4   17     -0.28      0.00
  -25    5   17     -0.90      0.00
  -23    5   17     -1.25      0.00
  -21    5   17     -0.11      0.00
  -19    5   17     -2.36      0.00
  -17    5   17     -4.97      0.00
  -15    5   17     -5.22      0.00
  -13    5   17     -6.90      0.00
  -11    5   17     -6.28      0.00
   -9    5   17     -1.09      0.00
   -7    5   17     -0.67      0.00
   -5    5   17      0.11      0.00
   -3    5   17     -1.90      0.00
   -1    5   17     -0.69      0.00
    1    5   17      3.97      0.00
    3    5   17      0.63      0.00
    5    5   17     -0.49      0.00
    7    5   17     -1.02      0.00
    9    5   17     -1.90      0.00
   11    5   17      0.39      0.00
   13    5   17     -1.23      0.00
   15    5   17      0.94      0.00
   17    5   17     -0.13      0.00
  -24    6   17     -0.40      0.00
  -22    6   17      0.51      0.00
  -20    6   17      2.10      0.00
  -18    6   17      5.47      0.00
  -16    6   17      9.79      0.00
  -14    6   17      7.13      0.00
  -12    6   17     -1.49      0.00
  -10    6   17     -1.51      0.00
   -8    6   17      2.96      0.00
   -6    6   17      2.29      0.00
   -4    6   17     -1.86      0.00
   -2    6   17     -5.95      0.00
    0    6   17     -2.37      0.00
    2    6   17      1.31      0.00
    4    6   17     -0.62      0.00
    6    6   17      3.08      0.00
    8    6   17      1.92      0.00
   10    6   17      0.93      0.00
   12    6   17     -0.49      0.00
   14    6   17     -0.59      0.00
   16    6   17      0.60      0.00
  -25    7   17     -0.80      0.00
  -23    7   17     -0.36      0.00
  -21    7   17     -0.19      0.00
  -19    7   17     -2.11      0.00
  -17    7   17     -4.95      0.00
  -15    7   17     -4.03      0.00
  -13    7   17     -5.54      0.00
  -11    7   17     -5.63      0.00
   -9    7   17     -1.30      0.00
   -7    7   17      1.83      0.00
   -5    7   17      0.03      0.00
   -3    7   17     -0.60      0.00
   -1    7   17     -2.22      0.00
    1    7   17      3.14      0.00
    3    7   17      1.59      0.00
    5    7   17     -0.91      0.00
    7    7   17     -0.41      0.00
    9    7   17     -0.52      0.00
   11    7   17      0.55      0.00
   13    7   17     -0.93      0.00
   15    7   17      0.88      0.00
  -24    8   17      0.28      0.00
  -22    8   17      0.09      0.00
  -20    8   17      1.46      0.00
  -18    8   17      4.30      0.00
  -16    8   17      8.14      0.00
  -14    8   17      7.34      0.00
  -12    8   17      0.82      0.00
  -10    8   17     -1.93      0.00
   -8    8   17      2.83      0.00
   -6    8   17      1.85      0.00
   -4    8   17     -0.80      0.00
   -2    8   17     -4.43      0.00
    0    8   17     -3.53      0.00
    2    8   17      1.34      0.00
    4    8   17      0.33      0.00
    6    8   17      2.41      0.00
    8    8   17      2.22      0.00
   10    8   17      1.07      0.00
   12    8   17     -0.64      0.00
   14    8   17     -0.48      0.00
   16    8   17      0.21      0.00
  -23    9   17     -0.34      0.00
  -21    9   17     -0.33      0.00
  -19    9   17     -2.24      0.00
  -17    9   17     -5.03      0.00
  -15    9   17     -4.36      0.00
  -13    9   17     -2.25      0.00
  -11    9   17     -3.58      0.00
   -9    9   17     -1.04      0.00
   -7    9   17      0.49      0.00
   -5    9   17      0.92      0.00
   -3    9   17      1.13      0.00
   -1    9   17     -1.48      0.00
    1    9   17      0.28      0.00
    3    9   17      1.96      0.00
    5    9   17     -1.09      0.00
    7    9   17     -0.78      0.00
    9    9   17      0.29      0.00
   11    9   17      0.18      0.00
   13    9   17     -0.53      0.00
   15    9   17      0.49      0.00
  -22   10   17     -0.25      0.00
  -20   10   17      0.25      0.00
  -18   10   17      3.51      0.00
  -16   10   17      5.69      0.00
  -14   10   17      6.50      0.00
  -12   10   17      2.82      0.00
  -10   10   17     -0.75      0.00
   -8   10   17      1.08      0.00
   -6   10   17      0.63      0.00
   -4   10   17      0.41      0.00
   -2   10   17     -1.72      0.00
    0   10   17     -3.98      0.00
    2   10   17     -0.27      0.00
    4   10   17      1.43      0.00
    6   10   17      1.03      0.00
    8   10   17      1.74      0.00
   10   10   17      0.68      0.00
   12   10   17     -0.88      0.00
   14   10   17     -0.39      0.00
  -21   11   17     -0.83      0.00
  -19   11   17     -1.80      0.00
  -17   11   17     -4.14      0.00
  -15   11   17     -4.13      0.00
  -13   11   17     -1.20      0.00
  -11   11   17     -0.78      0.00
   -9   11   17     -1.15      0.00
   -7   11   17     -0.39      0.00
   -5   11   17      0.32      0.00
   -3   11   17      3.00      0.00
   -1   11   17     -0.54      0.00
    1   11   17     -1.50      0.00
    3   11   17      1.73      0.00
    5   11   17     -0.86      0.00
    7   11   17     -0.78      0.00
    9   11   17      0.55      0.00
   11   11   17      0.09      0.00
   13   11   17     -0.45      0.00
  -20   12   17     -0.13      0.00
  -18   12   17      2.98      0.00
  -16   12   17      4.92      0.00
  -14   12   17      4.58      0.00
  -12   12   17      3.13      0.00
  -10   12   17      0.82      0.00
   -8   12   17     -0.59      0.00
   -6   12   17     -0.21      0.00
   -4   12   17      0.22      0.00
   -2   12   17      0.65      0.00
    0   12   17     -3.46      0.00
    2   12   17     -0.68      0.00
    4   12   17      1.95      0.00
    6   12   17      1.28      0.00
    8   12   17      1.52      0.00
   10   12   17      0.71      0.00
   12   12   17     -0.48      0.00
  -19   13   17     -1.42      0.00
  -17   13   17     -2.25      0.00
  -15   13   17     -3.41      0.00
  -13   13   17     -1.84      0.00
  -11   13   17      0.54      0.00
   -9   13   17     -0.56      0.00
   -7   13   17     -1.15      0.00
   -5   13   17      0.57      0.00
   -3   13   17      2.90      0.00
   -1   13   17      0.42      0.00
    1   13   17     -1.82      0.00
    3   13   17      0.51      0.00
    5   13   17     -0.05      0.00
    7   13   17     -0.47      0.00
    9   13   17      1.03      0.00
  -16   14   17      4.14      0.00
  -14   14   17      2.33      0.00
  -12   14   17      2.10      0.00
  -10   14   17      0.89      0.00
   -8   14   17     -1.00      0.00
   -6   14   17     -0.63      0.00
   -4   14   17      0.94      0.00
   -2   14   17      0.32      0.00
    0   14   17     -1.37      0.00
    2   14   17     -1.94      0.00
    4   14   17      1.54      0.00
    6   14   17      1.18      0.00
    8   14   17      0.91      0.00
  -15   15   17     -2.53      0.00
  -13   15   17     -2.29      0.00
  -11   15   17      0.43      0.00
   -9   15   17     -0.38      0.00
   -7   15   17     -1.05      0.00
   -5   15   17      0.97      0.00
   -3   15   17      1.58      0.00
   -1   15   17      0.79      0.00
    1   15   17     -1.71      0.00
    3   15   17     -0.61      0.00
    5   15   17     -0.25      0.00
  -12   16   17      0.97      0.00
  -10   16   17      0.77      0.00
   -8   16   17     -1.82      0.00
   -6   16   17      0.18      0.00
   -4   16   17     -0.42      0.00
   -2   16   17      0.45      0.00
    0   16   17     -0.85      0.00
    2   16   17     -0.83      0.00
   -5   17   17      0.49      0.00
   -3   17   17      0.32      0.00
  -26    0   18     -0.26      0.00
  -24    0   18      1.15      0.00
  -22    0   18      2.64      0.00
  -20    0   18      2.02      0.00
  -18    0   18      6.64      0.00
  -16    0   18      7.84      0.00
  -14    0   18      0.20      0.00
  -12    0   18     -1.76      0.00
  -10    0   18      5.43      0.00
   -8    0   18      6.90      0.00
   -6    0   18      2.82      0.00
   -4    0   18     -3.79      0.00
   -2    0   18     -1.17      0.00
    0    0   18     -1.10      0.00
    2    0   18      0.44      0.00
    4    0   18      0.74      0.00
    6    0   18      2.19      0.00
    8    0   18      5.88      0.00
   10    0   18      0.77      0.00
   12    0   18      0.33      0.00
   14    0   18     -0.48      0.00
   16    0   18      0.84      0.00
  -25    1   18     -1.60      0.00
  -23    1   18      1.26      0.00
  -21    1   18     -0.04      0.00
  -19    1   18     -3.58      0.00
  -17    1   18     -4.40      0.00
  -15    1   18     -7.01      0.00
  -13    1   18     -8.31      0.00
  -11    1   18     -0.70      0.00
   -9    1   18      5.22      0.00
   -7    1   18      4.14      0.00
   -5    1   18     -1.19      0.00
   -3    1   18     -0.06      0.00
   -1    1   18      2.41      0.00
    1    1   18      0.80      0.00
    3    1   18      0.81      0.00
    5    1   18     -3.35      0.00
    7    1   18     -1.65      0.00
    9    1   18      0.06      0.00
   11    1   18     -0.30      0.00
   13    1   18     -0.31      0.00
   15    1   18     -0.23      0.00
   17    1   18      0.27      0.00
  -26    2   18      0.39      0.00
  -24    2   18      1.26      0.00
  -22    2   18      2.05      0.00
  -20    2   18      1.43      0.00
  -18    2   18      5.78      0.00
  -16    2   18      6.78      0.00
  -14    2   18      1.89      0.00
  -12    2   18      0.49      0.00
  -10    2   18      3.55      0.00
   -8    2   18      5.52      0.00
   -6    2   18      1.82      0.00
   -4    2   18     -1.83      0.00
   -2    2   18     -1.02      0.00
    0    2   18     -1.88      0.00
    2    2   18      0.08      0.00
    4    2   18      0.27      0.00
    6    2   18      2.78      0.00
    8    2   18      4.31      0.00
   10    2   18      1.25      0.00
   12    2   18     -0.26      0.00
   14    2   18     -0.27      0.00
   16    2   18      0.10      0.00
  -25    3   18     -0.30      0.00
  -23    3   18      0.37      0.00
  -21    3   18     -0.92      0.00
  -19    3   18     -4.14      0.00
  -17    3   18     -6.26      0.00
  -15    3   18     -6.47      0.00
  -13    3   18     -3.22      0.00
  -11    3   18     -0.07      0.00
   -9    3   18      1.68      0.00
   -7    3   18      1.66      0.00
   -5    3   18      0.76      0.00
   -3    3   18      1.61      0.00
   -1    3   18      2.33      0.00
    1    3   18     -0.92      0.00
    3    3   18      1.05      0.00
    5    3   18     -3.57      0.00
    7    3   18     -2.04      0.00
    9    3   18     -0.52      0.00
   11    3   18     -0.32      0.00
   13    3   18      0.03      0.00
   15    3   18     -0.80      0.00
   17    3   18      0.39      0.00
  -24    4   18      1.41      0.00
  -22    4   18      0.52      0.00
  -20    4   18      0.83      0.00
  -18    4   18      4.21      0.00
  -16    4   18      5.07      0.00
  -14    4   18      5.28      0.00
  -12    4   18      4.23      0.00
  -10    4   18      1.97      0.00
   -8    4   18      0.77      0.00
   -6    4   18      1.76      0.00
   -4    4   18     -0.13      0.00
   -2    4   18      1.16      0.00
    0    4   18     -3.00      0.00
    2    4   18     -0.84      0.00
    4    4   18      1.63      0.00
    6    4   18      1.40      0.00
    8    4   18      4.00      0.00
   10    4   18     -0.45      0.00
   12    4   18      1.22      0.00
   14    4   18     -0.80      0.00
   16    4   18      0.08      0.00
  -25    5   18      0.04      0.00
  -23    5   18     -0.17      0.00
  -21    5   18     -1.71      0.00
  -19    5   18     -3.74      0.00
  -17    5   18     -7.51      0.00
  -15    5   18     -5.57      0.00
  -13    5   18      0.70      0.00
  -11    5   18      1.74      0.00
   -9    5   18     -2.53      0.00
   -7    5   18     -0.46      0.00
   -5    5   18      1.44      0.00
   -3    5   18      4.21      0.00
   -1    5   18      2.30      0.00
    1    5   18     -1.50      0.00
    3    5   18      1.10      0.00
    5    5   18     -3.10      0.00
    7    5   18     -2.45      0.00
    9    5   18     -1.10      0.00
   11    5   18      0.09      0.00
   13    5   18      0.49      0.00
   15    5   18     -0.74      0.00
  -24    6   18      1.03      0.00
  -22    6   18     -0.20      0.00
  -20    6   18      0.88      0.00
  -18    6   18      3.68      0.00
  -16    6   18      4.11      0.00
  -14    6   18      5.31      0.00
  -12    6   18      5.81      0.00
  -10    6   18      0.67      0.00
   -8    6   18     -1.67      0.00
   -6    6   18      0.10      0.00
   -4    6   18      1.33      0.00
   -2    6   18      2.08      0.00
    0    6   18     -2.50      0.00
    2    6   18     -1.22      0.00
    4    6   18      1.46      0.00
    6    6   18      1.82      0.00
    8    6   18      1.79      0.00
   10    6   18     -0.21      0.00
   12    6   18      0.91      0.00
   14    6   18     -0.59      0.00
   16    6   18      0.00      0.00
  -23    7   18     -0.57      0.00
  -21    7   18     -1.06      0.00
  -19    7   18     -3.20      0.00
  -17    7   18     -6.63      0.00
  -15    7   18     -6.04      0.00
  -13    7   18      0.26      0.00
  -11    7   18      1.63      0.00
   -9    7   18     -2.72      0.00
   -7    7   18     -2.34      0.00
   -5    7   18      1.94      0.00
   -3    7   18      3.81      0.00
   -1    7   18      3.20      0.00
    1    7   18     -1.56      0.00
    3    7   18     -0.22      0.00
    5    7   18     -2.60      0.00
    7    7   18     -2.86      0.00
    9    7   18     -1.40      0.00
   11    7   18      0.36      0.00
   13    7   18      0.39      0.00
   15    7   18     -0.36      0.00
  -22    8   18      0.10      0.00
  -20    8   18      0.98      0.00
  -18    8   18      3.83      0.00
  -16    8   18      3.64      0.00
  -14    8   18      2.77      0.00
  -12    8   18      3.66      0.00
  -10    8   18      1.30      0.00
   -8    8   18     -2.08      0.00
   -6    8   18     -0.40      0.00
   -4    8   18      0.14      0.00
   -2    8   18      1.91      0.00
    0    8   18     -0.64      0.00
    2    8   18     -1.90      0.00
    4    8   18      1.06      0.00
    6    8   18      1.57      0.00
    8    8   18      0.76      0.00
   10    8   18     -0.38      0.00
   12    8   18      0.59      0.00
   14    8   18     -0.41      0.00
  -23    9   18      0.12      0.00
  -21    9   18     -0.35      0.00
  -19    9   18     -2.27      0.00
  -17    9   18     -5.04      0.00
  -15    9   18     -5.54      0.00
  -13    9   18     -2.44      0.00
  -11    9   18      1.28      0.00
   -9    9   18     -1.74      0.00
   -7    9   18     -1.44      0.00
   -5    9   18      0.34      0.00
   -3    9   18      2.37      0.00
   -1    9   18      3.45      0.00
    1    9   18      0.10      0.00
    3    9   18     -1.54      0.00
    5    9   18     -1.77      0.00
    7    9   18     -2.29      0.00
    9    9   18     -1.27      0.00
   11    9   18      0.59      0.00
   13    9   18      0.48      0.00
  -22   10   18      0.27      0.00
  -20   10   18      1.46      0.00
  -18   10   18      3.39      0.00
  -16   10   18      3.73      0.00
  -14   10   18      0.94      0.00
  -12   10   18      1.16      0.00
  -10   10   18      1.42      0.00
   -8   10   18     -0.97      0.00
   -6   10   18     -0.71      0.00
   -4   10   18     -1.61      0.00
   -2   10   18      0.90      0.00
    0   10   18      1.38      0.00
    2   10   18     -1.14      0.00
    4   10   18      0.58      0.00
    6   10   18      2.21      0.00
    8   10   18      0.22      0.00
   10   10   18     -0.12      0.00
   12   10   18      0.51      0.00
  -19   11   18     -1.91      0.00
  -17   11   18     -3.97      0.00
  -15   11   18     -4.29      0.00
  -13   11   18     -3.24      0.00
  -11   11   18     -0.33      0.00
   -9   11   18     -0.03      0.00
   -7   11   18     -0.57      0.00
   -5   11   18     -0.10      0.00
   -3   11   18      0.22      0.00
   -1   11   18      3.04      0.00
    1   11   18      1.38      0.00
    3   11   18     -2.41      0.00
    5   11   18     -1.37      0.00
    7   11   18     -1.70      0.00
    9   11   18     -1.06      0.00
   11   11   18      0.71      0.00
  -18   12   18      2.06      0.00
  -16   12   18      2.94      0.00
  -14   12   18      0.91      0.00
  -12   12   18     -0.30      0.00
  -10   12   18      0.56      0.00
   -8   12   18      0.58      0.00
   -6   12   18     -0.98      0.00
   -4   12   18     -1.82      0.00
   -2   12   18     -0.70      0.00
    0   12   18      2.33      0.00
    2   12   18     -0.91      0.00
    4   12   18      0.03      0.00
    6   12   18      1.54      0.00
    8   12   18     -0.46      0.00
   10   12   18     -0.06      0.00
  -17   13   18     -3.56      0.00
  -15   13   18     -2.73      0.00
  -13   13   18     -2.20      0.00
  -11   13   18     -1.22      0.00
   -9   13   18      0.70      0.00
   -7   13   18      0.25      0.00
   -5   13   18     -0.59      0.00
   -3   13   18     -0.60      0.00
   -1   13   18      1.86      0.00
    1   13   18      1.66      0.00
    3   13   18     -1.90      0.00
    5   13   18     -1.94      0.00
    7   13   18     -1.29      0.00
    9   13   18     -1.21      0.00
  -16   14   18      2.02      0.00
  -14   14   18      1.90      0.00
  -12   14   18     -0.64      0.00
  -10   14   18      0.29      0.00
   -8   14   18      0.52      0.00
   -6   14   18     -0.77      0.00
   -4   14   18     -2.27      0.00
   -2   14   18     -0.37      0.00
    0   14   18      1.53      0.00
    2   14   18      0.88      0.00
    4   14   18      0.00      0.00
    6   14   18      0.89      0.00
  -13   15   18     -0.89      0.00
  -11   15   18     -0.80      0.00
   -9   15   18      1.04      0.00
   -7   15   18      0.39      0.00
   -5   15   18     -0.79      0.00
   -3   15   18     -0.15      0.00
   -1   15   18      0.66      0.00
    1   15   18      1.70      0.00
    3   15   18     -0.86      0.00
   -8   16   18      0.93      0.00
   -6   16   18     -1.20      0.00
   -4   16   18     -0.46      0.00
   -2   16   18     -0.86      0.00
    0   16   18      1.32      0.00
  -24    0   19     -0.64      0.00
  -22    0   19     -1.10      0.00
  -20    0   19      1.47      0.00
  -18    0   19      2.63      0.00
  -16    0   19      5.34      0.00
  -14    0   19      6.51      0.00
  -12    0   19      0.20      0.00
  -10    0   19     -5.29      0.00
   -8    0   19     -2.68      0.00
   -6    0   19      0.52      0.00
   -4    0   19      2.29      0.00
   -2    0   19     -2.93      0.00
    0    0   19     -0.05      0.00
    2    0   19     -0.57      0.00
    4    0   19      1.40      0.00
    6    0   19      3.09      0.00
    8    0   19     -0.56      0.00
   10    0   19      0.80      0.00
   12    0   19     -0.10      0.00
   14    0   19      0.67      0.00
   16    0   19     -0.46      0.00
  -25    1   19     -0.75      0.00
  -23    1   19     -2.04      0.00
  -21    1   19     -0.85      0.00
  -19    1   19     -3.70      0.00
  -17    1   19     -5.52      0.00
  -15    1   19     -0.69      0.00
  -13    1   19      0.43      0.00
  -11    1   19     -4.28      0.00
   -9    1   19     -4.83      0.00
   -7    1   19     -2.46      0.00
   -5    1   19      2.74      0.00
   -3    1   19      0.40      0.00
   -1    1   19     -0.30      0.00
    1    1   19     -0.17      0.00
    3    1   19     -1.81      0.00
    5    1   19     -2.82      0.00
    7    1   19     -5.24      0.00
    9    1   19     -1.22      0.00
   11    1   19      0.45      0.00
   13    1   19     -0.01      0.00
   15    1   19     -0.59      0.00
  -24    2   19     -0.33      0.00
  -22    2   19     -0.57      0.00
  -20    2   19      1.88      0.00
  -18    2   19      3.35      0.00
  -16    2   19      5.14      0.00
  -14    2   19      4.41      0.00
  -12    2   19     -0.33      0.00
  -10    2   19     -2.63      0.00
   -8    2   19     -2.42      0.00
   -6    2   19      0.37      0.00
   -4    2   19      0.63      0.00
   -2    2   19     -2.15      0.00
    0    2   19      0.77      0.00
    2    2   19     -0.77      0.00
    4    2   19      2.28      0.00
    6    2   19      2.31      0.00
    8    2   19      0.76      0.00
   10    2   19      0.01      0.00
   12    2   19      0.59      0.00
   14    2   19      0.65      0.00
   16    2   19     -0.14      0.00
  -25    3   19     -1.29      0.00
  -23    3   19     -0.84      0.00
  -21    3   19     -0.14      0.00
  -19    3   19     -2.66      0.00
  -17    3   19     -4.51      0.00
  -15    3   19     -2.85      0.00
  -13    3   19     -2.51      0.00
  -11    3   19     -2.30      0.00
   -9    3   19     -2.06      0.00
   -7    3   19     -1.90      0.00
   -5    3   19      0.52      0.00
   -3    3   19     -0.30      0.00
   -1    3   19      0.73      0.00
    1    3   19      0.98      0.00
    3    3   19     -2.25      0.00
    5    3   19     -2.30      0.00
    7    3   19     -4.45      0.00
    9    3   19     -0.45      0.00
   11    3   19     -0.07      0.00
   13    3   19      0.29      0.00
   15    3   19     -0.07      0.00
  -24    4   19      0.23      0.00
  -22    4   19      0.65      0.00
  -20    4   19      2.05      0.00
  -18    4   19      4.58      0.00
  -16    4   19      4.38      0.00
  -14    4   19      0.10      0.00
  -12    4   19     -1.07      0.00
  -10    4   19      0.61      0.00
   -8    4   19      0.45      0.00
   -6    4   19     -1.92      0.00
   -4    4   19     -0.77      0.00
   -2    4   19     -2.37      0.00
    0    4   19      1.88      0.00
    2    4   19     -0.51      0.00
    4    4   19      1.65      0.00
    6    4   19      3.39      0.00
    8    4   19      0.37      0.00
   10    4   19      0.65      0.00
   12    4   19     -0.52      0.00
   14    4   19      1.10      0.00
   16    4   19     -0.45      0.00
  -23    5   19     -0.09      0.00
  -21    5   19      0.44      0.00
  -19    5   19     -2.24      0.00
  -17    5   19     -3.53      0.00
  -15    5   19     -4.50      0.00
  -13    5   19     -4.62      0.00
  -11    5   19     -1.39      0.00
   -9    5   19      1.63      0.00
   -7    5   19     -1.42      0.00
   -5    5   19     -0.81      0.00
   -3    5   19     -2.04      0.00
   -1    5   19      1.44      0.00
    1    5   19      1.17      0.00
    3    5   19     -2.48      0.00
    5    5   19     -2.13      0.00
    7    5   19     -3.18      0.00
    9    5   19      0.07      0.00
   11    5   19     -0.60      0.00
   13    5   19      0.21      0.00
   15    5   19      0.09      0.00
  -24    6   19      0.39      0.00
  -22    6   19      0.94      0.00
  -20    6   19      1.66      0.00
  -18    6   19      4.59      0.00
  -16    6   19      4.12      0.00
  -14    6   19     -0.76      0.00
  -12    6   19     -1.82      0.00
  -10    6   19      2.96      0.00
   -8    6   19      1.88      0.00
   -6    6   19     -1.73      0.00
   -4    6   19     -2.65      0.00
   -2    6   19     -2.33      0.00
    0    6   19      1.70      0.00
    2    6   19     -0.18      0.00
    4    6   19      2.13      0.00
    6    6   19      2.77      0.00
    8    6   19      1.56      0.00
   10    6   19     -0.23      0.00
   12    6   19     -0.29      0.00
   14    6   19      0.62      0.00
  -23    7   19      0.31      0.00
  -21    7   19     -0.01      0.00
  -19    7   19     -2.05      0.00
  -17    7   19     -3.13      0.00
  -15    7   19     -2.78      0.00
  -13    7   19     -3.90      0.00
  -11    7   19     -0.99      0.00
   -9    7   19      2.22      0.00
   -7    7   19      0.19      0.00
   -5    7   19     -1.43      0.00
   -3    7   19     -2.01      0.00
   -1    7   19      0.53      0.00
    1    7   19      1.44      0.00
    3    7   19     -1.37      0.00
    5    7   19     -2.06      0.00
    7    7   19     -1.78      0.00
    9    7   19      0.31      0.00
   11    7   19     -0.55      0.00
   13    7   19      0.34      0.00
  -22    8   19      0.24      0.00
  -20    8   19      1.37      0.00
  -18    8   19      3.63      0.00
  -16    8   19      4.22      0.00
  -14    8   19      1.25      0.00
  -12    8   19     -1.24      0.00
  -10    8   19      1.95      0.00
   -8    8   19      2.41      0.00
   -6    8   19     -0.99      0.00
   -4    8   19     -2.05      0.00
   -2    8   19     -2.57      0.00
    0    8   19      0.40      0.00
    2    8   19      1.44      0.00
    4    8   19      1.97      0.00
    6    8   19      2.66      0.00
    8    8   19      1.58      0.00
   10    8   19     -0.32      0.00
   12    8   19     -0.41      0.00
  -21    9   19     -0.33      0.00
  -19    9   19     -2.20      0.00
  -17    9   19     -2.86      0.00
  -15    9   19     -0.95      0.00
  -13    9   19     -1.36      0.00
  -11    9   19     -1.67      0.00
   -9    9   19      1.67      0.00
   -7    9   19      0.67      0.00
   -5    9   19      0.19      0.00
   -3    9   19     -1.39      0.00
   -1    9   19     -1.02      0.00
    1    9   19      0.74      0.00
    3    9   19     -0.43      0.00
    5    9   19     -2.44      0.00
    7    9   19     -1.04      0.00
    9    9   19      0.12      0.00
   11    9   19     -0.27      0.00
   13    9   19      0.08      0.00
  -20   10   19      0.69      0.00
  -18   10   19      2.79      0.00
  -16   10   19      3.38      0.00
  -14   10   19      2.67      0.00
  -12   10   19      0.01      0.00
  -10   10   19      0.46      0.00
   -8   10   19      1.71      0.00
   -6   10   19      0.12      0.00
   -4   10   19     -0.40      0.00
   -2   10   19     -2.63      0.00
    0   10   19     -1.24      0.00
    2   10   19      1.80      0.00
    4   10   19      1.76      0.00
    6   10   19      1.54      0.00
    8   10   19      1.41      0.00
   10   10   19     -0.50      0.00
   12   10   19     -0.57      0.00
  -19   11   19     -1.52      0.00
  -17   11   19     -2.35      0.00
  -15   11   19     -0.51      0.00
  -13   11   19      0.34      0.00
  -11   11   19     -1.01      0.00
   -9   11   19      0.13      0.00
   -7   11   19      0.98      0.00
   -5   11   19      1.06      0.00
   -3   11   19     -0.07      0.00
   -1   11   19     -1.94      0.00
    1   11   19     -0.03      0.00
    3   11   19      0.38      0.00
    5   11   19     -2.44      0.00
    7   11   19     -0.46      0.00
    9   11   19      0.01      0.00
  -18   12   19      2.56      0.00
  -16   12   19      2.30      0.00
  -14   12   19      2.35      0.00
  -12   12   19      0.93      0.00
  -10   12   19     -0.03      0.00
   -8   12   19      0.04      0.00
   -6   12   19      1.05      0.00
   -4   12   19      0.23      0.00
   -2   12   19     -1.26      0.00
    0   12   19     -2.03      0.00
    2   12   19      2.23      0.00
    4   12   19      2.07      0.00
    6   12   19      1.29      0.00
    8   12   19      1.44      0.00
  -15   13   19     -1.02      0.00
  -13   13   19      0.63      0.00
  -11   13   19     -0.01      0.00
   -9   13   19     -0.71      0.00
   -7   13   19      0.90      0.00
   -5   13   19      1.49      0.00
   -3   13   19      0.62      0.00
   -1   13   19     -1.84      0.00
    1   13   19     -0.50      0.00
    3   13   19      0.30      0.00
    5   13   19     -1.28      0.00
    7   13   19     -0.01      0.00
  -14   14   19      0.76      0.00
  -12   14   19      1.21      0.00
  -10   14   19     -0.65      0.00
   -8   14   19      0.00      0.00
   -6   14   19      0.90      0.00
   -4   14   19      1.03      0.00
   -2   14   19     -1.08      0.00
    0   14   19     -1.49      0.00
    2   14   19      0.66      0.00
    4   14   19      2.08      0.00
  -11   15   19      0.28      0.00
   -9   15   19     -0.74      0.00
   -7   15   19      0.73      0.00
   -5   15   19      1.36      0.00
   -3   15   19      0.31      0.00
   -1   15   19     -1.10      0.00
    1   15   19     -1.30      0.00
  -24    0   20      1.40      0.00
  -22    0   20      0.30      0.00
  -20    0   20      1.56      0.00
  -18    0   20      3.48      0.00
  -16    0   20      0.17      0.00
  -14    0   20     -0.16      0.00
  -12    0   20      4.10      0.00
  -10    0   20      4.52      0.00
   -8    0   20      1.53      0.00
   -6    0   20     -1.62      0.00
   -4    0   20     -0.80      0.00
   -2    0   20      2.54      0.00
    0    0   20      0.13      0.00
    2    0   20      2.16      0.00
    4    0   20      3.52      0.00
    6    0   20      4.21      0.00
    8    0   20      1.93      0.00
   10    0   20     -1.63      0.00
   12    0   20      0.60      0.00
   14    0   20      0.73      0.00
  -25    1   20     -0.01      0.00
  -23    1   20      1.38      0.00
  -21    1   20      0.02      0.00
  -19    1   20     -1.23      0.00
  -17    1   20     -3.74      0.00
  -15    1   20     -4.09      0.00
  -13    1   20      0.54      0.00
  -11    1   20      3.51      0.00
   -9    1   20      1.02      0.00
   -7    1   20     -0.85      0.00
   -5    1   20     -2.63      0.00
   -3    1   20      2.00      0.00
   -1    1   20     -0.16      0.00
    1    1   20     -0.45      0.00
    3    1   20     -0.14      0.00
    5    1   20     -2.51      0.00
    7    1   20     -0.14      0.00
    9    1   20     -0.03      0.00
   11    1   20     -0.40      0.00
   13    1   20     -0.63      0.00
   15    1   20     -0.20      0.00
  -24    2   20      0.92      0.00
  -22    2   20     -0.09      0.00
  -20    2   20      1.07      0.00
  -18    2   20      3.22      0.00
  -16    2   20      1.08      0.00
  -14    2   20      0.85      0.00
  -12    2   20      3.38      0.00
  -10    2   20      2.44      0.00
   -8    2   20      2.29      0.00
   -6    2   20     -1.28      0.00
   -4    2   20      0.26      0.00
   -2    2   20      1.32      0.00
    0    2   20     -0.60      0.00
    2    2   20      2.66      0.00
    4    2   20      2.45      0.00
    6    2   20      4.78      0.00
    8    2   20      0.51      0.00
   10    2   20     -0.62      0.00
   12    2   20     -0.29      0.00
   14    2   20      0.57      0.00
  -23    3   20      0.21      0.00
  -21    3   20     -0.28      0.00
  -19    3   20     -2.04      0.00
  -17    3   20     -3.14      0.00
  -15    3   20     -1.30      0.00
  -13    3   20      0.98      0.00
  -11    3   20      0.38      0.00
   -9    3   20     -0.15      0.00
   -7    3   20      0.46      0.00
   -5    3   20     -0.96      0.00
   -3    3   20      1.26      0.00
   -1    3   20     -1.16      0.00
    1    3   20     -0.66      0.00
    3    3   20     -0.32      0.00
    5    3   20     -2.79      0.00
    7    3   20     -0.41      0.00
    9    3   20     -0.27      0.00
   11    3   20     -0.05      0.00
   13    3   20     -1.08      0.00
   15    3   20     -0.11      0.00
  -24    4   20      0.02      0.00
  -22    4   20     -0.87      0.00
  -20    4   20      0.68      0.00
  -18    4   20      2.66      0.00
  -16    4   20      2.90      0.00
  -14    4   20      3.22      0.00
  -12    4   20      1.70      0.00
  -10    4   20      0.05      0.00
   -8    4   20      1.27      0.00
   -6    4   20      1.41      0.00
   -4    4   20      0.66      0.00
   -2    4   20      0.45      0.00
    0    4   20     -1.33      0.00
    2    4   20      2.64      0.00
    4    4   20      2.71      0.00
    6    4   20      3.12      0.00
    8    4   20      0.75      0.00
   10    4   20     -0.58      0.00
   12    4   20      0.21      0.00
   14    4   20     -0.05      0.00
  -23    5   20     -0.36      0.00
  -21    5   20     -0.49      0.00
  -19    5   20     -2.25      0.00
  -17    5   20     -2.57      0.00
  -15    5   20      0.95      0.00
  -13    5   20      1.34      0.00
  -11    5   20     -1.99      0.00
   -9    5   20     -2.30      0.00
   -7    5   20      1.77      0.00
   -5    5   20      0.46      0.00
   -3    5   20      1.45      0.00
   -1    5   20     -1.67      0.00
    1    5   20     -0.31      0.00
    3    5   20     -0.64      0.00
    5    5   20     -2.66      0.00
    7    5   20     -0.95      0.00
    9    5   20     -0.01      0.00
   11    5   20      0.29      0.00
   13    5   20     -0.78      0.00
  -22    6   20     -0.89      0.00
  -20    6   20      0.60      0.00
  -18    6   20      2.33      0.00
  -16    6   20      2.68      0.00
  -14    6   20      3.32      0.00
  -12    6   20      1.37      0.00
  -10    6   20     -2.13      0.00
   -8    6   20      0.81      0.00
   -6    6   20      1.82      0.00
   -4    6   20      2.05      0.00
   -2    6   20     -0.11      0.00
    0    6   20     -1.19      0.00
    2    6   20      2.33      0.00
    4    6   20      1.91      0.00
    6    6   20      2.66      0.00
    8    6   20     -0.27      0.00
   10    6   20      0.24      0.00
   12    6   20     -0.18      0.00
  -21    7   20     -0.24      0.00
  -19    7   20     -2.11      0.00
  -17    7   20     -2.52      0.00
  -15    7   20     -0.27      0.00
  -13    7   20      1.27      0.00
  -11    7   20     -2.48      0.00
   -9    7   20     -2.75      0.00
   -7    7   20      0.87      0.00
   -5    7   20      1.46      0.00
   -3    7   20      1.35      0.00
   -1    7   20     -0.93      0.00
    1    7   20     -0.93      0.00
    3    7   20     -1.54      0.00
    5    7   20     -2.29      0.00
    7    7   20     -1.49      0.00
    9    7   20      0.08      0.00
   11    7   20      0.47      0.00
   13    7   20     -0.49      0.00
  -22    8   20     -0.26      0.00
  -20    8   20      0.51      0.00
  -18    8   20      1.99      0.00
  -16    8   20      0.97      0.00
  -14    8   20      1.55      0.00
  -12    8   20      1.66      0.00
  -10    8   20     -1.61      0.00
   -8    8   20     -0.27      0.00
   -6    8   20      1.24      0.00
   -4    8   20      1.71      0.00
   -2    8   20      0.46      0.00
    0    8   20     -0.47      0.00
    2    8   20      0.55      0.00
    4    8   20      2.10      0.00
    6    8   20      1.52      0.00
    8    8   20     -0.09      0.00
   10    8   20      0.07      0.00
   12    8   20     -0.05      0.00
  -21    9   20     -0.19      0.00
  -19    9   20     -1.49      0.00
  -17    9   20     -2.32      0.00
  -15    9   20     -1.80      0.00
  -13    9   20      0.30      0.00
  -11    9   20     -0.96      0.00
   -9    9   20     -2.54      0.00
   -7    9   20     -0.27      0.00
   -5    9   20      0.39      0.00
   -3    9   20      1.53      0.00
   -1    9   20      0.68      0.00
    1    9   20     -1.31      0.00
    3    9   20     -1.73      0.00
    5    9   20     -1.38      0.00
    7    9   20     -1.59      0.00
    9    9   20      0.35      0.00
   11    9   20      0.40      0.00
  -20   10   20      0.71      0.00
  -18   10   20      1.51      0.00
  -16   10   20      0.22      0.00
  -14   10   20     -0.03      0.00
  -12   10   20      1.25      0.00
  -10   10   20     -0.24      0.00
   -8   10   20     -0.92      0.00
   -6   10   20      0.07      0.00
   -4   10   20      0.58      0.00
   -2   10   20      1.62      0.00
    0   10   20      0.48      0.00
    2   10   20     -0.04      0.00
    4   10   20      2.23      0.00
    6   10   20      1.25      0.00
    8   10   20      0.02      0.00
   10   10   20      0.12      0.00
  -17   11   20     -1.70      0.00
  -15   11   20     -1.83      0.00
  -13   11   20     -0.83      0.00
  -11   11   20     -0.21      0.00
   -9   11   20     -1.15      0.00
   -7   11   20     -1.15      0.00
   -5   11   20     -0.60      0.00
   -3   11   20      1.11      0.00
   -1   11   20      1.57      0.00
    1   11   20     -1.24      0.00
    3   11   20     -2.07      0.00
    5   11   20     -0.74      0.00
    7   11   20     -1.40      0.00
    9   11   20      0.32      0.00
  -16   12   20      0.60      0.00
  -14   12   20     -0.76      0.00
  -12   12   20      0.44      0.00
  -10   12   20      0.45      0.00
   -8   12   20     -0.25      0.00
   -6   12   20     -1.10      0.00
   -4   12   20      0.15      0.00
   -2   12   20      1.16      0.00
    0   12   20      1.01      0.00
    2   12   20     -0.81      0.00
    4   12   20      1.52      0.00
    6   12   20      0.61      0.00
  -15   13   20     -0.89      0.00
  -13   13   20     -1.07      0.00
  -11   13   20     -0.19      0.00
   -9   13   20     -0.01      0.00
   -7   13   20     -1.48      0.00
   -5   13   20     -1.02      0.00
   -3   13   20      0.38      0.00
   -1   13   20      1.63      0.00
    1   13   20     -0.95      0.00
    3   13   20     -2.04      0.00
    5   13   20     -1.06      0.00
  -12   14   20     -0.64      0.00
  -10   14   20      1.03      0.00
   -8   14   20     -0.62      0.00
   -6   14   20     -0.91      0.00
   -4   14   20     -0.53      0.00
   -2   14   20      1.38      0.00
    0   14   20      1.04      0.00
    2   14   20      0.12      0.00
   -5   15   20     -1.03      0.00
   -3   15   20      0.32      0.00
  -24    0   21     -1.34      0.00
  -22    0   21     -1.04      0.00
  -20    0   21     -0.09      0.00
  -18    0   21      2.52      0.00
  -16    0   21      3.06      0.00
  -14    0   21     -1.15      0.00
  -12    0   21     -2.85      0.00
  -10    0   21     -0.09      0.00
   -8    0   21      2.61      0.00
   -6    0   21      2.65      0.00
   -4    0   21     -0.59      0.00
   -2    0   21     -1.09      0.00
    0    0   21      1.39      0.00
    2    0   21     -0.63      0.00
    4    0   21      0.89      0.00
    6    0   21      0.67      0.00
    8    0   21     -1.17      0.00
   10    0   21      0.86      0.00
   12    0   21      0.08      0.00
   14    0   21      0.88      0.00
  -23    1   21      0.17      0.00
  -21    1   21      0.13      0.00
  -19    1   21     -1.50      0.00
  -17    1   21     -0.01      0.00
  -15    1   21     -0.17      0.00
  -13    1   21     -3.68      0.00
  -11    1   21     -3.45      0.00
   -9    1   21     -1.34      0.00
   -7    1   21      0.76      0.00
   -5    1   21      0.54      0.00
   -3    1   21     -3.10      0.00
   -1    1   21     -0.20      0.00
    1    1   21     -1.90      0.00
    3    1   21     -3.14      0.00
    5    1   21     -3.51      0.00
    7    1   21     -1.32      0.00
    9    1   21      1.71      0.00
   11    1   21      0.03      0.00
   13    1   21     -0.96      0.00
  -24    2   21     -0.79      0.00
  -22    2   21     -0.88      0.00
  -20    2   21      0.29      0.00
  -18    2   21      2.12      0.00
  -16    2   21      1.89      0.00
  -14    2   21     -0.90      0.00
  -12    2   21     -1.59      0.00
  -10    2   21      1.05      0.00
   -8    2   21      0.90      0.00
   -6    2   21      2.60      0.00
   -4    2   21     -0.79      0.00
   -2    2   21     -0.02      0.00
    0    2   21      1.61      0.00
    2    2   21     -0.92      0.00
    4    2   21      1.91      0.00
    6    2   21     -0.13      0.00
    8    2   21      0.04      0.00
   10    2   21      0.06      0.00
   12    2   21      0.97      0.00
   14    2   21      0.68      0.00
  -23    3   21      0.98      0.00
  -21    3   21      0.31      0.00
  -19    3   21     -1.36      0.00
  -17    3   21     -1.38      0.00
  -15    3   21     -1.49      0.00
  -13    3   21     -2.40      0.00
  -11    3   21     -1.26      0.00
   -9    3   21     -1.54      0.00
   -7    3   21     -0.86      0.00
   -5    3   21     -0.27      0.00
   -3    3   21     -1.57      0.00
   -1    3   21      0.74      0.00
    1    3   21     -2.11      0.00
    3    3   21     -2.72      0.00
    5    3   21     -2.92      0.00
    7    3   21     -0.85      0.00
    9    3   21      1.34      0.00
   11    3   21      0.04      0.00
   13    3   21     -0.22      0.00
  -22    4   21     -0.51      0.00
  -20    4   21      0.44      0.00
  -18    4   21      1.42      0.00
  -16    4   21     -0.47      0.00
  -14    4   21     -1.15      0.00
  -12    4   21      1.36      0.00
  -10    4   21      1.87      0.00
   -8    4   21      0.07      0.00
   -6    4   21      0.36      0.00
   -4    4   21      0.26      0.00
   -2    4   21      0.75      0.00
    0    4   21      1.18      0.00
    2    4   21     -0.25      0.00
    4    4   21      1.40      0.00
    6    4   21      0.83      0.00
    8    4   21     -0.51      0.00
   10    4   21      0.09      0.00
   12    4   21      0.66      0.00
  -23    5   21      1.06      0.00
  -21    5   21      0.51      0.00
  -19    5   21     -1.44      0.00
  -17    5   21     -2.18      0.00
  -15    5   21     -2.44      0.00
  -13    5   21     -1.40      0.00
  -11    5   21      0.72      0.00
   -9    5   21     -0.85      0.00
   -7    5   21     -2.58      0.00
   -5    5   21     -1.13      0.00
   -3    5   21     -0.65      0.00
   -1    5   21      1.05      0.00
    1    5   21     -2.42      0.00
    3    5   21     -2.17      0.00
    5    5   21     -2.33      0.00
    7    5   21     -0.26      0.00
    9    5   21      0.48      0.00
   11    5   21      0.10      0.00
   13    5   21     -0.18      0.00
  -22    6   21     -0.35      0.00
  -20    6   21      0.50      0.00
  -18    6   21      1.03      0.00
  -16    6   21     -0.48      0.00
  -14    6   21     -0.94      0.00
  -12    6   21      2.36      0.00
  -10    6   21      3.25      0.00
   -8    6   21     -0.67      0.00
   -6    6   21     -0.41      0.00
   -4    6   21     -0.29      0.00
   -2    6   21      1.04      0.00
    0    6   21      0.81      0.00
    2    6   21      0.24      0.00
    4    6   21      1.74      0.00
    6    6   21      0.71      0.00
    8    6   21      0.10      0.00
   10    6   21     -0.52      0.00
   12    6   21      0.64      0.00
  -21    7   21      0.48      0.00
  -19    7   21     -1.05      0.00
  -17    7   21     -1.17      0.00
  -15    7   21     -1.32      0.00
  -13    7   21     -1.58      0.00
  -11    7   21      1.36      0.00
   -9    7   21     -0.43      0.00
   -7    7   21     -2.26      0.00
   -5    7   21     -1.87      0.00
   -3    7   21     -0.19      0.00
   -1    7   21      0.62      0.00
    1    7   21     -1.34      0.00
    3    7   21     -1.47      0.00
    5    7   21     -1.69      0.00
    7    7   21      0.01      0.00
    9    7   21      0.36      0.00
   11    7   21     -0.02      0.00
  -20    8   21      0.56      0.00
  -18    8   21      1.14      0.00
  -16    8   21      0.93      0.00
  -14    8   21     -0.38      0.00
  -12    8   21      1.45      0.00
  -10    8   21      3.02      0.00
   -8    8   21      0.38      0.00
   -6    8   21     -0.31      0.00
   -4    8   21     -0.42      0.00
   -2    8   21      0.36      0.00
    0    8   21      0.73      0.00
    2    8   21      1.47      0.00
    4    8   21      0.85      0.00
    6    8   21      1.32      0.00
    8    8   21     -0.16      0.00
   10    8   21     -0.43      0.00
  -19    9   21     -0.64      0.00
  -17    9   21     -0.14      0.00
  -15    9   21     -0.04      0.00
  -13    9   21     -1.61      0.00
  -11    9   21      0.31      0.00
   -9    9   21      0.28      0.00
   -7    9   21     -1.06      0.00
   -5    9   21     -1.22      0.00
   -3    9   21     -0.68      0.00
   -1    9   21     -0.52      0.00
    1    9   21     -0.24      0.00
    3    9   21     -1.56      0.00
    5    9   21     -1.48      0.00
    7    9   21      0.12      0.00
    9    9   21     -0.03      0.00
  -18   10   21      1.05      0.00
  -16   10   21      1.41      0.00
  -14   10   21      0.32      0.00
  -12   10   21      0.70      0.00
  -10   10   21      1.80      0.00
   -8   10   21      1.56      0.00
   -6   10   21      0.49      0.00
   -4   10   21     -0.30      0.00
   -2   10   21     -1.08      0.00
    0   10   21      0.57      0.00
    2   10   21      1.42      0.00
    4   10   21      0.23      0.00
    6   10   21      1.12      0.00
    8   10   21     -0.13      0.00
  -17   11   21     -0.07      0.00
  -15   11   21      0.35      0.00
  -13   11   21     -0.62      0.00
  -11   11   21     -0.64      0.00
   -9   11   21      0.15      0.00
   -7   11   21      0.03      0.00
   -5   11   21     -0.37      0.00
   -3   11   21     -1.05      0.00
   -1   11   21     -0.91      0.00
    1   11   21      0.23      0.00
    3   11   21     -1.15      0.00
    5   11   21     -1.16      0.00
    7   11   21      0.01      0.00
  -14   12   21      1.04      0.00
  -12   12   21      0.31      0.00
  -10   12   21      0.82      0.00
   -8   12   21      1.31      0.00
   -6   12   21      1.54      0.00
   -4   12   21     -0.33      0.00
   -2   12   21     -0.88      0.00
    0   12   21      0.36      0.00
    2   12   21      1.88      0.00
    4   12   21      0.44      0.00
  -13   13   21      0.26      0.00
  -11   13   21     -0.74      0.00
   -9   13   21     -0.25      0.00
   -7   13   21      0.78      0.00
   -5   13   21     -0.10      0.00
   -3   13   21     -0.68      0.00
   -1   13   21     -1.11      0.00
    1   13   21      0.47      0.00
   -8   14   21      1.69      0.00
   -6   14   21      1.13      0.00
   -4   14   21      0.18      0.00
   -2   14   21     -1.14      0.00
  -22    0   22     -0.80      0.00
  -20    0   22      0.02      0.00
  -18    0   22     -0.60      0.00
  -16    0   22     -0.12      0.00
  -14    0   22      3.45      0.00
  -12    0   22      3.44      0.00
  -10    0   22      1.38      0.00
   -8    0   22     -0.97      0.00
   -6    0   22     -0.28      0.00
   -4    0   22      2.72      0.00
   -2    0   22      1.34      0.00
    0    0   22      0.85      0.00
    2    0   22      2.81      0.00
    4    0   22      2.86      0.00
    6    0   22      0.80      0.00
    8    0   22     -1.35      0.00
   10    0   22     -0.75      0.00
   12    0   22      1.40      0.00
  -23    1   22      1.30      0.00
  -21    1   22      0.61      0.00
  -19    1   22     -1.43      0.00
  -17    1   22     -1.82      0.00
  -15    1   22      1.27      0.00
  -13    1   22      1.85      0.00
  -11    1   22     -1.16      0.00
   -9    1   22     -3.14      0.00
   -7    1   22     -2.73      0.00
   -5    1   22     -0.30      0.00
   -3    1   22      1.48      0.00
   -1    1   22     -1.42      0.00
    1    1   22      0.77      0.00
    3    1   22      0.22      0.00
    5    1   22     -0.35      0.00
    7    1   22      1.17      0.00
    9    1   22     -0.32      0.00
   11    1   22     -0.28      0.00
  -22    2   22     -0.79      0.00
  -20    2   22     -0.02      0.00
  -18    2   22      0.15      0.00
  -16    2   22      0.31      0.00
  -14    2   22      2.46      0.00
  -12    2   22      2.75      0.00
  -10    2   22      0.96      0.00
   -8    2   22      0.76      0.00
   -6    2   22     -0.53      0.00
   -4    2   22      2.40      0.00
   -2    2   22      0.37      0.00
    0    2   22      0.84      0.00
    2    2   22      3.01      0.00
    4    2   22      1.75      0.00
    6    2   22      1.34      0.00
    8    2   22     -2.08      0.00
   10    2   22     -0.23      0.00
   12    2   22      0.49      0.00
  -21    3   22      0.63      0.00
  -19    3   22     -0.82      0.00
  -17    3   22     -0.16      0.00
  -15    3   22      0.98      0.00
  -13    3   22     -0.30      0.00
  -11    3   22     -1.93      0.00
   -9    3   22     -1.61      0.00
   -7    3   22     -1.57      0.00
   -5    3   22     -0.80      0.00
   -3    3   22      0.14      0.00
   -1    3   22     -1.34      0.00
    1    3   22      0.65      0.00
    3    3   22     -0.19      0.00
    5    3   22     -0.35      0.00
    7    3   22      0.72      0.00
    9    3   22     -0.12      0.00
   11    3   22     -0.50      0.00
  -22    4   22     -0.85      0.00
  -20    4   22      0.42      0.00
  -18    4   22      1.30      0.00
  -16    4   22      1.36      0.00
  -14    4   22      1.40      0.00
  -12    4   22      0.53      0.00
  -10    4   22      1.29      0.00
   -8    4   22      1.86      0.00
   -6    4   22      0.97      0.00
   -4    4   22      0.50      0.00
   -2    4   22     -0.40      0.00
    0    4   22      1.67      0.00
    2    4   22      2.06      0.00
    4    4   22      1.94      0.00
    6    4   22      0.24      0.00
    8    4   22     -0.83      0.00
   10    4   22     -0.44      0.00
  -21    5   22      0.53      0.00
  -19    5   22     -0.07      0.00
  -17    5   22      0.87      0.00
  -15    5   22      0.77      0.00
  -13    5   22     -2.07      0.00
  -11    5   22     -2.83      0.00
   -9    5   22     -0.73      0.00
   -7    5   22     -0.03      0.00
   -5    5   22     -0.98      0.00
   -3    5   22     -0.65      0.00
   -1    5   22     -0.68      0.00
    1    5   22      0.45      0.00
    3    5   22     -0.44      0.00
    5    5   22     -0.28      0.00
    7    5   22      0.22      0.00
    9    5   22      0.51      0.00
   11    5   22     -0.58      0.00
  -20    6   22      0.34      0.00
  -18    6   22      1.32      0.00
  -16    6   22      0.91      0.00
  -14    6   22      1.09      0.00
  -12    6   22     -0.54      0.00
  -10    6   22      0.55      0.00
   -8    6   22      2.98      0.00
   -6    6   22      1.61      0.00
   -4    6   22      0.08      0.00
   -2    6   22     -0.58      0.00
    0    6   22      1.54      0.00
    2    6   22      1.55      0.00
    4    6   22      1.03      0.00
    6    6   22      0.32      0.00
    8    6   22     -0.82      0.00
   10    6   22     -0.11      0.00
  -19    7   22     -0.13      0.00
  -17    7   22     -0.14      0.00
  -15    7   22      0.30      0.00
  -13    7   22     -1.79      0.00
  -11    7   22     -3.20      0.00
   -9    7   22     -0.63      0.00
   -7    7   22      0.28      0.00
   -5    7   22     -0.44      0.00
   -3    7   22     -0.86      0.00
   -1    7   22     -0.46      0.00
    1    7   22     -0.51      0.00
    3    7   22     -0.40      0.00
    5    7   22     -0.54      0.00
    7    7   22      0.12      0.00
    9    7   22      0.30      0.00
  -18    8   22      0.27      0.00
  -16    8   22     -0.01      0.00
  -14    8   22      1.37      0.00
  -12    8   22     -0.14      0.00
  -10    8   22      0.14      0.00
   -8    8   22      2.11      0.00
   -6    8   22      1.59      0.00
   -4    8   22      0.01      0.00
   -2    8   22     -0.22      0.00
    0    8   22      0.80      0.00
    2    8   22      0.64      0.00
    4    8   22      1.29      0.00
    6    8   22     -0.15      0.00
    8    8   22     -0.24      0.00
  -17    9   22     -0.92      0.00
  -15    9   22     -0.17      0.00
  -13    9   22     -0.71      0.00
  -11    9   22     -2.44      0.00
   -9    9   22     -1.42      0.00
   -7    9   22     -0.48      0.00
   -5    9   22     -0.14      0.00
   -3    9   22     -0.15      0.00
   -1    9   22      0.00      0.00
    1    9   22     -1.04      0.00
    3    9   22      0.33      0.00
    5    9   22     -0.50      0.00
    7    9   22     -0.08      0.00
  -16   10   22     -0.37      0.00
  -14   10   22      1.13      0.00
  -12   10   22      0.37      0.00
  -10   10   22      0.28      0.00
   -8   10   22      0.62      0.00
   -6   10   22      1.05      0.00
   -4   10   22      0.32      0.00
   -2   10   22      0.82      0.00
    0   10   22      0.13      0.00
    2   10   22      0.78      0.00
    4   10   22      1.21      0.00
    6   10   22     -0.11      0.00
  -15   11   22     -0.42      0.00
  -13   11   22     -0.62      0.00
  -11   11   22     -1.08      0.00
   -9   11   22     -1.67      0.00
   -7   11   22     -1.14      0.00
   -5   11   22     -0.27      0.00
   -3   11   22      0.67      0.00
   -1   11   22     -0.15      0.00
    1   11   22     -0.96      0.00
    3   11   22      0.24      0.00
  -12   12   22      0.93      0.00
  -10   12   22      0.28      0.00
   -8   12   22      0.16      0.00
   -6   12   22      0.06      0.00
   -4   12   22      0.68      0.00
   -2   12   22      0.50      0.00
    0   12   22     -0.23      0.00
    2   12   22      0.11      0.00
   -9   13   22     -1.32      0.00
   -7   13   22     -1.59      0.00
   -5   13   22     -0.06      0.00
   -3   13   22      0.48      0.00
   -1   13   22      0.15      0.00
  -22    0   23     -0.78      0.00
  -20    0   23      0.87      0.00
  -18    0   23      1.32      0.00
  -16    0   23     -1.40      0.00
  -14    0   23     -1.79      0.00
  -12    0   23      1.60      0.00
  -10    0   23      3.63      0.00
   -8    0   23      3.20      0.00
   -6    0   23      0.43      0.00
   -4    0   23     -1.43      0.00
   -2    0   23      0.19      0.00
    0    0   23     -0.30      0.00
    2    0   23     -1.45      0.00
    4    0   23     -0.06      0.00
    6    0   23     -1.07      0.00
    8    0   23     -0.46      0.00
   10    0   23      0.25      0.00
  -21    1   23      0.93      0.00
  -19    1   23      0.77      0.00
  -17    1   23      0.22      0.00
  -15    1   23     -2.10      0.00
  -13    1   23     -3.04      0.00
  -11    1   23     -1.17      0.00
   -9    1   23      0.22      0.00
   -7    1   23      0.24      0.00
   -5    1   23     -1.57      0.00
   -3    1   23     -1.66      0.00
   -1    1   23      0.10      0.00
    1    1   23     -2.33      0.00
    3    1   23     -1.61      0.00
    5    1   23     -0.60      0.00
    7    1   23      1.30      0.00
    9    1   23      0.94      0.00
   11    1   23     -0.95      0.00
  -22    2   23     -0.88      0.00
  -20    2   23      0.70      0.00
  -18    2   23      0.50      0.00
  -16    2   23     -1.06      0.00
  -14    2   23     -0.48      0.00
  -12    2   23      1.48      0.00
  -10    2   23      3.30      0.00
   -8    2   23      1.86      0.00
   -6    2   23      1.28      0.00
   -4    2   23     -1.05      0.00
   -2    2   23      0.47      0.00
    0    2   23     -0.10      0.00
    2    2   23     -1.55      0.00
    4    2   23      0.63      0.00
    6    2   23     -1.40      0.00
    8    2   23      0.21      0.00
   10    2   23      0.03      0.00
  -21    3   23      0.44      0.00
  -19    3   23     -0.19      0.00
  -17    3   23     -0.42      0.00
  -15    3   23     -1.02      0.00
  -13    3   23     -1.66      0.00
  -11    3   23     -1.23      0.00
   -9    3   23     -1.21      0.00
   -7    3   23     -0.46      0.00
   -5    3   23     -0.43      0.00
   -3    3   23     -0.37      0.00
   -1    3   23     -0.50      0.00
    1    3   23     -2.02      0.00
    3    3   23     -1.10      0.00
    5    3   23     -0.31      0.00
    7    3   23      1.13      0.00
    9    3   23      0.83      0.00
  -20    4   23     -0.23      0.00
  -18    4   23     -0.73      0.00
  -16    4   23     -0.83      0.00
  -14    4   23      1.31      0.00
  -12    4   23      2.35      0.00
  -10    4   23      1.66      0.00
   -8    4   23      1.16      0.00
   -6    4   23      1.12      0.00
   -4    4   23      0.60      0.00
   -2    4   23      0.17      0.00
    0    4   23     -0.67      0.00
    2    4   23     -0.54      0.00
    4    4   23     -0.31      0.00
    6    4   23     -0.25      0.00
    8    4   23     -0.64      0.00
   10    4   23      0.39      0.00
  -19    5   23     -0.95      0.00
  -17    5   23     -0.70      0.00
  -15    5   23     -0.36      0.00
  -13    5   23     -0.25      0.00
  -11    5   23     -0.88      0.00
   -9    5   23     -2.29      0.00
   -7    5   23     -1.59      0.00
   -5    5   23      0.49      0.00
   -3    5   23      0.35      0.00
   -1    5   23     -1.33      0.00
    1    5   23     -1.50      0.00
    3    5   23     -0.63      0.00
    5    5   23     -0.22      0.00
    7    5   23      0.92      0.00
    9    5   23      0.27      0.00
  -20    6   23     -0.46      0.00
  -18    6   23     -0.65      0.00
  -16    6   23     -0.19      0.00
  -14    6   23      1.75      0.00
  -12    6   23      2.78      0.00
  -10    6   23      1.29      0.00
   -8    6   23     -0.14      0.00
   -6    6   23      0.93      0.00
   -4    6   23      1.02      0.00
   -2    6   23     -0.16      0.00
    0    6   23     -0.15      0.00
    2    6   23     -0.50      0.00
    4    6   23      0.09      0.00
    6    6   23     -0.30      0.00
    8    6   23     -0.30      0.00
  -19    7   23     -0.48      0.00
  -17    7   23      0.16      0.00
  -15    7   23     -0.66      0.00
  -13    7   23      0.01      0.00
  -11    7   23     -0.35      0.00
   -9    7   23     -2.44      0.00
   -7    7   23     -2.03      0.00
   -5    7   23      0.59      0.00
   -3    7   23      0.49      0.00
   -1    7   23     -0.90      0.00
    1    7   23     -0.55      0.00
    3    7   23     -0.49      0.00
    5    7   23      0.08      0.00
    7    7   23      0.38      0.00
  -18    8   23      0.41      0.00
  -16    8   23      0.04      0.00
  -14    8   23      0.86      0.00
  -12    8   23      2.39      0.00
  -10    8   23      1.49      0.00
   -8    8   23      0.08      0.00
   -6    8   23      0.51      0.00
   -4    8   23      0.89      0.00
   -2    8   23      0.00      0.00
    0    8   23      0.34      0.00
    2    8   23     -0.41      0.00
    4    8   23     -0.28      0.00
    6    8   23      0.06      0.00
  -17    9   23      0.38      0.00
  -15    9   23     -0.84      0.00
  -13    9   23     -0.55      0.00
  -11    9   23     -0.07      0.00
   -9    9   23     -1.52      0.00
   -7    9   23     -1.32      0.00
   -5    9   23      0.04      0.00
   -3    9   23      0.07      0.00
   -1    9   23     -0.59      0.00
    1    9   23     -0.09      0.00
    3    9   23     -0.91      0.00
    5    9   23      0.09      0.00
  -14   10   23      0.17      0.00
  -12   10   23      1.63      0.00
  -10   10   23      1.39      0.00
   -8   10   23      1.01      0.00
   -6   10   23      0.16      0.00
   -4   10   23      0.15      0.00
   -2   10   23     -0.33      0.00
    0   10   23      0.53      0.00
    2   10   23     -0.89      0.00
    4   10   23     -0.24      0.00
  -13   11   23     -0.55      0.00
  -11   11   23     -0.54      0.00
   -9   11   23     -0.44      0.00
   -7   11   23     -0.70      0.00
   -5   11   23     -0.15      0.00
   -3   11   23     -0.52      0.00
   -1   11   23      0.19      0.00
    1   11   23     -0.07      0.00
   -8   12   23      1.09      0.00
   -6   12   23      0.55      0.00
   -4   12   23     -0.48      0.00
   -2   12   23      0.16      0.00
  -20    0   24     -1.10      0.00
  -18    0   24     -0.34      0.00
  -16    0   24      1.10      0.00
  -14    0   24      2.48      0.00
  -12    0   24      0.92      0.00
  -10    0   24     -0.26      0.00
   -8    0   24     -0.26      0.00
   -6    0   24      0.90      0.00
   -4    0   24      1.71      0.00
   -2    0   24     -0.36      0.00
    0    0   24      1.42      0.00
    2    0   24      1.28      0.00
    4    0   24      0.22      0.00
    6    0   24     -0.87      0.00
    8    0   24     -0.91      0.00
  -19    1   24     -0.53      0.00
  -17    1   24      1.25      0.00
  -15    1   24      1.08      0.00
  -13    1   24     -1.47      0.00
  -11    1   24     -3.43      0.00
   -9    1   24     -2.48      0.00
   -7    1   24     -0.73      0.00
   -5    1   24      0.70      0.00
   -3    1   24      0.88      0.00
   -1    1   24     -0.30      0.00
    1    1   24      2.18      0.00
    3    1   24      0.06      0.00
    5    1   24      0.93      0.00
    7    1   24      0.64      0.00
    9    1   24      0.02      0.00
  -20    2   24     -0.85      0.00
  -18    2   24     -0.03      0.00
  -16    2   24      0.46      0.00
  -14    2   24      1.75      0.00
  -12    2   24      1.40      0.00
  -10    2   24      0.01      0.00
   -8    2   24      0.73      0.00
   -6    2   24     -0.11      0.00
   -4    2   24      1.14      0.00
   -2    2   24     -0.13      0.00
    0    2   24      1.07      0.00
    2    2   24      1.34      0.00
    4    2   24     -0.55      0.00
    6    2   24     -0.41      0.00
    8    2   24     -1.36      0.00
  -19    3   24      0.36      0.00
  -17    3   24      0.88      0.00
  -15    3   24     -0.39      0.00
  -13    3   24     -1.65      0.00
  -11    3   24     -2.32      0.00
   -9    3   24     -1.64      0.00
   -7    3   24     -1.05      0.00
   -5    3   24     -0.44      0.00
   -3    3   24      0.56      0.00
   -1    3   24      0.21      0.00
    1    3   24      1.57      0.00
    3    3   24      0.26      0.00
    5    3   24      0.43      0.00
    7    3   24      0.61      0.00
  -18    4   24      0.31      0.00
  -16    4   24     -0.20      0.00
  -14    4   24      0.66      0.00
  -12    4   24      1.05      0.00
  -10    4   24      1.38      0.00
   -8    4   24      1.09      0.00
   -6    4   24     -0.64      0.00
   -4    4   24     -0.31      0.00
   -2    4   24      0.76      0.00
    0    4   24      1.47      0.00
    2    4   24      0.22      0.00
    4    4   24      0.12      0.00
    6    4   24     -0.92      0.00
    8    4   24     -0.50      0.00
  -19    5   24      0.85      0.00
  -17    5   24      0.51      0.00
  -15    5   24     -1.41      0.00
  -13    5   24     -1.97      0.00
  -11    5   24     -1.57      0.00
   -9    5   24     -0.69      0.00
   -7    5   24     -0.88      0.00
   -5    5   24     -1.27      0.00
   -3    5   24      0.63      0.00
   -1    5   24      0.76      0.00
    1    5   24      1.01      0.00
    3    5   24      0.46      0.00
    5    5   24      0.24      0.00
    7    5   24      0.36      0.00
  -18    6   24      0.06      0.00
  -16    6   24     -0.40      0.00
  -14    6   24      0.16      0.00
  -12    6   24      0.53      0.00
  -10    6   24      1.81      0.00
   -8    6   24      2.18      0.00
   -6    6   24     -0.94      0.00
   -4    6   24     -0.68      0.00
   -2    6   24      1.17      0.00
    0    6   24      0.56      0.00
    2    6   24      0.16      0.00
    4    6   24     -0.36      0.00
    6    6   24     -0.34      0.00
  -17    7   24     -0.14      0.00
  -15    7   24     -0.74      0.00
  -13    7   24     -2.04      0.00
  -11    7   24     -1.37      0.00
   -9    7   24     -0.16      0.00
   -7    7   24     -0.30      0.00
   -5    7   24     -1.47      0.00
   -3    7   24      0.48      0.00
   -1    7   24      0.09      0.00
    1    7   24      0.69      0.00
    3    7   24      0.55      0.00
    5    7   24     -0.03      0.00
  -16    8   24      0.25      0.00
  -14    8   24      0.34      0.00
  -12    8   24      0.12      0.00
  -10    8   24      1.46      0.00
   -8    8   24      1.93      0.00
   -6    8   24     -0.61      0.00
   -4    8   24     -0.50      0.00
   -2    8   24      0.52      0.00
    0    8   24      0.01      0.00
    2    8   24      0.14      0.00
    4    8   24     -0.03      0.00
  -13    9   24     -1.33      0.00
  -11    9   24     -1.56      0.00
   -9    9   24     -0.37      0.00
   -7    9   24     -0.34      0.00
   -5    9   24     -0.54      0.00
   -3    9   24      0.17      0.00
   -1    9   24      0.01      0.00
    1    9   24      0.79      0.00
    3    9   24      0.77      0.00
  -12   10   24     -0.01      0.00
  -10   10   24      1.01      0.00
   -8   10   24      0.85      0.00
   -6   10   24      0.15      0.00
   -4   10   24      0.03      0.00
   -2   10   24      0.28      0.00
    0   10   24     -0.24      0.00
   -7   11   24     -0.22      0.00
   -5   11   24     -0.01      0.00
   -3   11   24      0.28      0.00
  -18    0   25     -1.31      0.00
  -16    0   25     -1.14      0.00
  -14    0   25      1.27      0.00
  -12    0   25      3.18      0.00
  -10    0   25      2.03      0.00
   -8    0   25      0.61      0.00
   -6    0   25     -0.26      0.00
   -4    0   25     -1.40      0.00
   -2    0   25      0.41      0.00
    0    0   25     -2.16      0.00
    2    0   25     -0.55      0.00
    4    0   25     -0.59      0.00
    6    0   25     -0.86      0.00
  -19    1   25      0.14      0.00
  -17    1   25     -0.04      0.00
  -15    1   25     -1.06      0.00
  -13    1   25     -0.88      0.00
  -11    1   25      0.43      0.00
   -9    1   25     -0.47      0.00
   -7    1   25     -0.24      0.00
   -5    1   25     -1.03      0.00
   -3    1   25      0.04      0.00
   -1    1   25     -0.03      0.00
    1    1   25     -1.39      0.00
    3    1   25      0.69      0.00
    5    1   25      0.10      0.00
    7    1   25      0.97      0.00
  -18    2   25     -1.15      0.00
  -16    2   25     -0.38      0.00
  -14    2   25      1.29      0.00
  -12    2   25      2.18      0.00
  -10    2   25      2.02      0.00
   -8    2   25      0.31      0.00
   -6    2   25      0.66      0.00
   -4    2   25     -1.14      0.00
   -2    2   25      0.03      0.00
    0    2   25     -1.49      0.00
    2    2   25     -0.96      0.00
    4    2   25      0.19      0.00
    6    2   25     -1.08      0.00
  -17    3   25      0.62      0.00
  -15    3   25     -0.47      0.00
  -13    3   25     -1.07      0.00
  -11    3   25     -0.39      0.00
   -9    3   25     -0.94      0.00
   -7    3   25      0.44      0.00
   -5    3   25      0.22      0.00
   -3    3   25     -0.40      0.00
   -1    3   25     -0.53      0.00
    1    3   25     -0.65      0.00
    3    3   25      0.57      0.00
    5    3   25      0.41      0.00
  -18    4   25     -0.64      0.00
  -16    4   25      0.62      0.00
  -14    4   25      1.24      0.00
  -12    4   25      1.47      0.00
  -10    4   25      1.19      0.00
   -8    4   25      0.84      0.00
   -6    4   25      1.30      0.00
   -4    4   25     -0.70      0.00
   -2    4   25     -0.75      0.00
    0    4   25     -1.51      0.00
    2    4   25     -0.57      0.00
    4    4   25     -0.26      0.00
    6    4   25     -0.27      0.00
  -17    5   25      0.83      0.00
  -15    5   25      0.14      0.00
  -13    5   25     -0.86      0.00
  -11    5   25     -0.84      0.00
   -9    5   25     -1.69      0.00
   -7    5   25      0.84      0.00
   -5    5   25      0.90      0.00
   -3    5   25     -1.06      0.00
   -1    5   25     -0.88      0.00
    1    5   25     -0.01      0.00
    3    5   25      0.44      0.00
    5    5   25      0.25      0.00
  -16    6   25      0.78      0.00
  -14    6   25      1.15      0.00
  -12    6   25      1.12      0.00
  -10    6   25      0.58      0.00
   -8    6   25      0.17      0.00
   -6    6   25      1.63      0.00
   -4    6   25     -0.55      0.00
   -2    6   25     -0.91      0.00
    0    6   25     -0.69      0.00
    2    6   25     -0.86      0.00
    4    6   25      0.22      0.00
  -15    7   25     -0.23      0.00
  -13    7   25     -0.15      0.00
  -11    7   25     -1.07      0.00
   -9    7   25     -1.93      0.00
   -7    7   25      0.48      0.00
   -5    7   25      1.07      0.00
   -3    7   25     -0.98      0.00
   -1    7   25      0.00      0.00
    1    7   25      0.15      0.00
    3    7   25      0.30      0.00
  -12    8   25      1.16      0.00
  -10    8   25      0.40      0.00
   -8    8   25     -0.05      0.00
   -6    8   25      1.22      0.00
   -4    8   25     -0.36      0.00
   -2    8   25     -0.16      0.00
    0    8   25     -0.74      0.00
  -11    9   25     -0.56      0.00
   -9    9   25     -1.45      0.00
   -7    9   25      0.33      0.00
   -5    9   25      0.09      0.00
   -3    9   25     -0.31      0.00
   -1    9   25      0.10      0.00
  -16    0   26      0.04      0.00
  -14    0   26      0.31      0.00
  -12    0   26     -0.84      0.00
  -10    0   26      0.53      0.00
   -8    0   26      0.58      0.00
   -6    0   26      0.83      0.00
   -4    0   26      0.31      0.00
   -2    0   26     -0.99      0.00
    0    0   26      1.41      0.00
    2    0   26     -0.89      0.00
    4    0   26      0.31      0.00
  -17    1   26      0.89      0.00
  -15    1   26     -1.07      0.00
  -13    1   26     -2.17      0.00
  -11    1   26     -1.62      0.00
   -9    1   26     -0.17      0.00
   -7    1   26     -0.43      0.00
   -5    1   26      1.07      0.00
   -3    1   26      0.02      0.00
   -1    1   26      1.03      0.00
    1    1   26      1.35      0.00
    3    1   26     -0.29      0.00
  -16    2   26     -0.15      0.00
  -14    2   26      0.54      0.00
  -12    2   26     -0.10      0.00
  -10    2   26      0.47      0.00
   -8    2   26      0.57      0.00
   -6    2   26     -0.12      0.00
   -4    2   26      0.32      0.00
   -2    2   26     -0.42      0.00
    0    2   26      0.58      0.00
    2    2   26     -0.47      0.00
    4    2   26     -0.34      0.00
  -15    3   26     -0.73      0.00
  -13    3   26     -1.23      0.00
  -11    3   26     -1.22      0.00
   -9    3   26     -0.50      0.00
   -7    3   26     -1.10      0.00
   -5    3   26      0.40      0.00
   -3    3   26      0.63      0.00
   -1    3   26      1.01      0.00
    1    3   26      1.07      0.00
    3    3   26     -0.20      0.00
  -14    4   26      0.77      0.00
  -12    4   26      0.20      0.00
  -10    4   26      1.03      0.00
   -8    4   26     -0.27      0.00
   -6    4   26     -0.96      0.00
   -4    4   26      0.81      0.00
   -2    4   26      0.45      0.00
    0    4   26      0.42      0.00
    2    4   26     -0.74      0.00
  -15    5   26     -0.63      0.00
  -13    5   26     -0.54      0.00
  -11    5   26     -1.00      0.00
   -9    5   26     -0.27      0.00
   -7    5   26     -1.60      0.00
   -5    5   26      0.29      0.00
   -3    5   26      1.15      0.00
   -1    5   26      1.00      0.00
    1    5   26      0.83      0.00
  -12    6   26      0.39      0.00
  -10    6   26      1.50      0.00
   -8    6   26     -0.14      0.00
   -6    6   26     -1.23      0.00
   -4    6   26      1.00      0.00
   -2    6   26      0.58      0.00
    0    6   26     -0.35      0.00
  -11    7   26     -0.35      0.00
   -9    7   26      0.03      0.00
   -7    7   26     -1.22      0.00
   -5    7   26     -0.06      0.00
   -3    7   26      0.85      0.00
   -1    7   26      0.39      0.00
   -8    8   26      0.00      0.00
   -6    8   26     -0.75      0.00
   -4    8   26      0.80      0.00
  -14    0   27      1.81      0.00
  -12    0   27      1.27      0.00
  -10    0   27      0.04      0.00
   -8    0   27      0.37      0.00
   -6    0   27     -0.72      0.00
   -4    0   27     -0.41      0.00
   -2    0   27     -0.08      0.00
    0    0   27     -1.69      0.00
  -13    1   27      0.55      0.00
  -11    1   27     -0.08      0.00
   -9    1   27     -1.13      0.00
   -7    1   27     -0.44      0.00
   -5    1   27     -0.43      0.00
   -3    1   27      1.07      0.00
   -1    1   27     -0.40      0.00
    1    1   27      0.31      0.00
  -14    2   27      1.23      0.00
  -12    2   27      0.81      0.00
  -10    2   27      0.42      0.00
   -8    2   27      0.48      0.00
   -6    2   27     -0.13      0.00
   -4    2   27     -0.43      0.00
   -2    2   27     -0.40      0.00
    0    2   27     -1.00      0.00
  -13    3   27      0.09      0.00
  -11    3   27     -0.40      0.00
   -9    3   27     -0.55      0.00
   -7    3   27      0.47      0.00
   -5    3   27     -0.34      0.00
   -3    3   27      0.08      0.00
   -1    3   27     -0.11      0.00
  -12    4   27      0.83      0.00
  -10    4   27      0.45      0.00
   -8    4   27      1.15      0.00
   -6    4   27      0.24      0.00
   -4    4   27     -1.10      0.00
   -2    4   27     -0.66      0.00
  -11    5   27     -0.55      0.00
   -9    5   27     -0.44      0.00
   -7    5   27      1.17      0.00
   -5    5   27     -0.86      0.00
   -3    5   27     -0.64      0.00
   -8    6   27      1.10      0.00
   -6    6   27      0.35      0.00
   -8    0   28      0.81      0.00
   -6    0   28      0.44      0.00
   -4    0   28     -0.81      0.00
   -9    1   28     -0.14      0.00
   -7    1   28      0.16      0.00
   -5    1   28      0.51      0.00
   -8    2   28      0.40      0.00
   -6    2   28      0.18      0.00
    2    0    0     35.55      0.00
    1    1    0      9.99      0.00
    3    1    0    -52.30      0.00
   29    1    0      0.31      0.00
    0    2    0    119.48      0.00
    2    2    0     39.21      0.00
   29    3    0      0.01      0.00
   29    5    0     -0.15      0.00
   28    6    0     -0.46      0.00
   29    7    0     -0.08      0.00
   28    8    0     -0.13      0.00
   27    9    0     -0.35      0.00
   29    9    0      0.02      0.00
   26   10    0     -0.26      0.00
   28   10    0      0.53      0.00
   25   11    0      0.07      0.00
   27   11    0     -0.20      0.00
   24   12    0     -0.44      0.00
   26   12    0      0.16      0.00
   25   13    0      0.11      0.00
   22   14    0     -0.46      0.00
   24   14    0     -0.28      0.00
   21   15    0      0.22      0.00
   23   15    0      0.33      0.00
   20   16    0     -0.24      0.00
   22   16    0      0.05      0.00
   19   17    0      0.15      0.00
   21   17    0      0.23      0.00
   16   18    0     -0.51      0.00
   18   18    0     -0.08      0.00
   20   18    0     -0.05      0.00
   15   19    0      0.49      0.00
   17   19    0      0.01      0.00
   12   20    0      0.57      0.00
   14   20    0      0.58      0.00
   16   20    0     -0.20      0.00
    7   21    0     -0.67      0.00
    9   21    0     -1.02      0.00
   11   21    0     -1.26      0.00
   13   21    0      0.13      0.00
   -2    0    1     -3.71      0.00
    0    0    1    -26.41      0.00
    2    0    1     61.03      0.00
   -3    1    1    -22.09      0.00
   -1    1    1   -131.60      0.00
    1    1    1    -52.44      0.00
   29    1    1      0.15      0.00
    0    2    1     -4.40      0.00
  -29    3    1      0.68      0.00
   29    3    1      0.24      0.00
  -29    5    1      0.75      0.00
   29    5    1      0.12      0.00
   28    6    1      0.26      0.00
  -29    7    1      0.35      0.00
   29    7    1     -0.09      0.00
  -28    8    1      0.58      0.00
   28    8    1      0.35      0.00
  -29    9    1     -0.13      0.00
  -27    9    1      0.06      0.00
   27    9    1     -0.34      0.00
  -28   10    1      0.04      0.00
  -26   10    1      0.08      0.00
   26   10    1      0.35      0.00
   28   10    1     -0.12      0.00
  -27   11    1     -0.17      0.00
   25   11    1      0.16      0.00
   27   11    1     -0.39      0.00
  -26   12    1     -0.09      0.00
   24   12    1     -0.15      0.00
   26   12    1      0.07      0.00
  -25   13    1      0.37      0.00
   23   13    1      0.32      0.00
   25   13    1     -0.13      0.00
  -24   14    1     -0.05      0.00
   22   14    1      0.10      0.00
   24   14    1     -0.32      0.00
  -23   15    1      0.18      0.00
  -21   15    1      0.08      0.00
   21   15    1      0.12      0.00
   23   15    1      0.16      0.00
  -22   16    1     -0.46      0.00
  -20   16    1     -0.03      0.00
   20   16    1      0.01      0.00
   22   16    1     -0.48      0.00
  -21   17    1      0.10      0.00
  -19   17    1     -0.02      0.00
   19   17    1      0.02      0.00
   21   17    1      0.04      0.00
  -20   18    1     -0.27      0.00
  -18   18    1      0.11      0.00
  -16   18    1     -0.13      0.00
   16   18    1     -0.26      0.00
   18   18    1      0.01      0.00
  -17   19    1      0.34      0.00
  -15   19    1     -0.27      0.00
   15   19    1      0.23      0.00
   17   19    1     -0.09      0.00
  -16   20    1     -0.21      0.00
  -14   20    1     -0.46      0.00
  -12   20    1      1.40      0.00
   12   20    1     -0.01      0.00
   14   20    1     -0.60      0.00
   16   20    1     -0.13      0.00
  -13   21    1     -0.37      0.00
  -11   21    1     -0.44      0.00
   -9   21    1     -1.13      0.00
   -7   21    1      0.30      0.00
    7   21    1     -0.06      0.00
    9   21    1     -0.33      0.00
   11   21    1     -0.20      0.00
   13   21    1     -0.32      0.00
   -2    0    2    112.95      0.00
    0    0    2     65.26      0.00
    2    0    2    -34.85      0.00
   -1    1    2     27.35      0.00
    1    1    2    -50.72      0.00
   29    1    2     -0.15      0.00
   29    3    2     -0.08      0.00
   28    4    2     -0.49      0.00
  -29    5    2     -0.51      0.00
   29    5    2     -0.02      0.00
   28    6    2      0.07      0.00
  -29    7    2     -0.36      0.00
   27    7    2     -0.53      0.00
   29    7    2     -0.07      0.00
  -28    8    2     -0.34      0.00
   28    8    2     -0.10      0.00
  -29    9    2     -0.08      0.00
  -27    9    2      0.03      0.00
   27    9    2     -0.11      0.00
  -28   10    2      0.18      0.00
   26   10    2      0.23      0.00
  -27   11    2      0.04      0.00
   25   11    2      0.08      0.00
   27   11    2     -0.06      0.00
  -26   12    2     -0.11      0.00
   24   12    2     -0.03      0.00
   26   12    2      0.22      0.00
  -25   13    2     -0.29      0.00
   23   13    2      0.32      0.00
   25   13    2      0.27      0.00
  -24   14    2     -0.40      0.00
   22   14    2     -0.48      0.00
   24   14    2      0.29      0.00
  -23   15    2      0.35      0.00
   21   15    2      0.00      0.00
   23   15    2      0.27      0.00
  -22   16    2      0.15      0.00
  -20   16    2      0.11      0.00
   20   16    2     -0.05      0.00
   22   16    2     -0.03      0.00
  -21   17    2      0.07      0.00
  -19   17    2      0.05      0.00
   19   17    2      0.02      0.00
   21   17    2      0.30      0.00
  -20   18    2      0.11      0.00
  -18   18    2     -0.36      0.00
   16   18    2      0.23      0.00
   18   18    2      0.16      0.00
  -17   19    2      0.02      0.00
  -15   19    2      0.20      0.00
   13   19    2      0.21      0.00
   15   19    2      0.33      0.00
   17   19    2     -0.05      0.00
  -16   20    2      0.17      0.00
  -14   20    2      0.85      0.00
  -12   20    2      0.65      0.00
   10   20    2      0.32      0.00
   12   20    2      0.63      0.00
   14   20    2      0.07      0.00
  -13   21    2     -1.19      0.00
  -11   21    2     -1.25      0.00
   -9   21    2     -0.23      0.00
   -7   21    2     -0.14      0.00
    5   21    2     -0.20      0.00
    7   21    2     -0.59      0.00
    9   21    2     -1.47      0.00
   11   21    2     -0.26      0.00
   13   21    2      0.11      0.00
    0    0    3     38.12      0.00
    4    0    3    -15.71      0.00
   29    1    3      0.29      0.00
   28    2    3      0.16      0.00
   29    3    3      0.07      0.00
   28    4    3      0.38      0.00
  -29    5    3      0.54      0.00
   29    5    3     -0.03      0.00
   28    6    3     -0.04      0.00
  -29    7    3      0.34      0.00
   27    7    3      0.18      0.00
   29    7    3      0.00      0.00
  -28    8    3      0.24      0.00
   26    8    3      0.12      0.00
   28    8    3      0.55      0.00
  -29    9    3      0.13      0.00
  -27    9    3     -0.19      0.00
   27    9    3     -0.13      0.00
  -28   10    3     -0.06      0.00
   26   10    3      0.10      0.00
  -27   11    3     -0.07      0.00
   25   11    3     -0.31      0.00
  -26   12    3      0.26      0.00
   24   12    3     -0.39      0.00
   26   12    3      0.14      0.00
  -25   13    3      0.49      0.00
   23   13    3     -0.33      0.00
   25   13    3     -0.17      0.00
  -24   14    3     -0.09      0.00
   22   14    3      0.07      0.00
   24   14    3     -0.69      0.00
  -23   15    3     -0.35      0.00
   21   15    3      0.36      0.00
   23   15    3     -0.21      0.00
  -22   16    3      0.14      0.00
  -20   16    3     -0.02      0.00
   20   16    3      0.10      0.00
   22   16    3     -0.15      0.00
  -21   17    3     -0.15      0.00
  -19   17    3     -0.02      0.00
   17   17    3     -0.83      0.00
   19   17    3     -0.28      0.00
  -20   18    3      0.01      0.00
  -18   18    3      0.10      0.00
   16   18    3     -0.09      0.00
   18   18    3      0.04      0.00
  -17   19    3     -0.05      0.00
  -15   19    3     -0.84      0.00
   13   19    3     -0.02      0.00
   15   19    3     -0.05      0.00
   17   19    3     -0.34      0.00
  -16   20    3     -0.15      0.00
  -14   20    3      1.02      0.00
  -12   20    3      1.71      0.00
   10   20    3      0.85      0.00
   12   20    3      0.06      0.00
   14   20    3     -0.45      0.00
  -13   21    3     -0.26      0.00
  -11   21    3     -1.06      0.00
   -9   21    3     -0.47      0.00
   -7   21    3      0.07      0.00
    5   21    3      0.77      0.00
    7   21    3     -0.25      0.00
    9   21    3     -0.29      0.00
   11   21    3     -0.53      0.00
   28    0    4     -0.51      0.00
   29    1    4      0.39      0.00
   28    2    4      0.05      0.00
   29    3    4      0.48      0.00
   28    4    4      0.04      0.00
  -29    5    4     -0.09      0.00
   27    5    4     -0.35      0.00
   29    5    4      0.38      0.00
   28    6    4      0.45      0.00
  -29    7    4     -0.19      0.00
   27    7    4     -0.48      0.00
  -28    8    4     -0.03      0.00
   26    8    4      0.06      0.00
   28    8    4     -0.26      0.00
  -29    9    4     -0.16      0.00
  -27    9    4      0.14      0.00
   27    9    4     -0.46      0.00
  -28   10    4      0.15      0.00
   26   10    4      0.03      0.00
  -27   11    4     -0.23      0.00
   25   11    4      0.07      0.00
  -26   12    4     -0.14      0.00
   24   12    4      0.29      0.00
  -25   13    4     -0.27      0.00
   23   13    4      0.74      0.00
  -24   14    4      0.59      0.00
   22   14    4      0.16      0.00
  -23   15    4     -0.39      0.00
   21   15    4     -0.21      0.00
  -22   16    4      0.30      0.00
  -20   16    4      0.43      0.00
   18   16    4      1.16      0.00
   20   16    4     -0.38      0.00
  -21   17    4     -0.22      0.00
  -19   17    4      0.05      0.00
   17   17    4      0.15      0.00
   19   17    4      0.06      0.00
  -20   18    4      0.05      0.00
  -18   18    4      0.09      0.00
   16   18    4      0.72      0.00
   18   18    4      0.48      0.00
  -17   19    4     -0.08      0.00
  -15   19    4     -0.83      0.00
   13   19    4      0.05      0.00
   15   19    4     -0.26      0.00
  -16   20    4      0.66      0.00
  -14   20    4      0.53      0.00
  -12   20    4      0.71      0.00
   10   20    4      0.82      0.00
   12   20    4      0.22      0.00
   14   20    4      0.11      0.00
  -13   21    4     -1.51      0.00
  -11   21    4      0.16      0.00
   -9   21    4      0.59      0.00
   -7   21    4      0.96      0.00
   -5   21    4      0.18      0.00
    3   21    4     -0.13      0.00
    5   21    4      0.12      0.00
    7   21    4     -1.38      0.00
    9   21    4     -0.89      0.00
   11   21    4     -0.28      0.00
   28    0    5      0.20      0.00
   29    1    5     -0.60      0.00
   28    2    5     -0.36      0.00
   29    3    5     -0.47      0.00
   28    4    5     -0.23      0.00
  -29    5    5     -0.16      0.00
   27    5    5     -0.42      0.00
   29    5    5     -0.17      0.00
   28    6    5     -0.51      0.00
  -29    7    5     -0.01      0.00
   27    7    5     -0.09      0.00
  -28    8    5      0.21      0.00
   26    8    5      0.27      0.00
   28    8    5      0.12      0.00
  -29    9    5      0.13      0.00
   25    9    5      0.03      0.00
   27    9    5      0.09      0.00
  -28   10    5      0.16      0.00
   24   10    5     -0.36      0.00
   26   10    5      0.38      0.00
  -27   11    5     -0.17      0.00
   25   11    5     -0.05      0.00
  -26   12    5      0.26      0.00
   24   12    5      0.14      0.00
  -25   13    5     -0.58      0.00
   23   13    5     -0.57      0.00
  -24   14    5      0.34      0.00
   22   14    5     -0.42      0.00
  -23   15    5     -0.38      0.00
   19   15    5      0.13      0.00
   21   15    5     -0.18      0.00
  -22   16    5      0.32      0.00
  -20   16    5     -0.18      0.00
   18   16    5     -0.04      0.00
   20   16    5      0.30      0.00
  -21   17    5     -0.11      0.00
  -19   17    5     -0.34      0.00
   17   17    5     -1.21      0.00
   19   17    5      0.21      0.00
  -20   18    5      0.06      0.00
  -18   18    5      0.18      0.00
   14   18    5      0.41      0.00
   16   18    5     -0.03      0.00
   18   18    5     -0.04      0.00
  -17   19    5     -0.50      0.00
  -15   19    5     -0.68      0.00
   13   19    5      0.05      0.00
   15   19    5     -0.17      0.00
  -16   20    5      0.26      0.00
  -14   20    5      1.39      0.00
  -12   20    5     -0.09      0.00
    8   20    5      1.02      0.00
   10   20    5      0.56      0.00
   12   20    5     -0.02      0.00
   14   20    5      0.21      0.00
  -13   21    5     -0.09      0.00
  -11   21    5     -0.48      0.00
   -9   21    5      0.48      0.00
   -7   21    5     -0.10      0.00
   -5   21    5     -0.32      0.00
    3   21    5      0.82      0.00
    5   21    5     -0.52      0.00
    7   21    5     -0.64      0.00
    9   21    5     -0.80      0.00
   11   21    5     -0.26      0.00
   28    0    6      0.23      0.00
   27    1    6     -0.42      0.00
   29    1    6     -0.49      0.00
   28    2    6      0.61      0.00
   27    3    6     -0.07      0.00
   29    3    6     -0.53      0.00
   28    4    6      0.22      0.00
  -29    5    6     -0.18      0.00
   27    5    6      0.27      0.00
   26    6    6      0.02      0.00
   28    6    6      0.36      0.00
  -29    7    6     -0.22      0.00
   27    7    6     -0.13      0.00
  -28    8    6      0.34      0.00
   26    8    6      0.11      0.00
  -29    9    6     -0.36      0.00
   25    9    6     -0.15      0.00
   27    9    6     -0.11      0.00
  -28   10    6      0.41      0.00
   24   10    6      0.31      0.00
   26   10    6     -0.15      0.00
  -27   11    6     -0.13      0.00
   23   11    6      0.03      0.00
   25   11    6     -0.09      0.00
  -26   12    6      0.60      0.00
   22   12    6      0.89      0.00
   24   12    6     -0.19      0.00
  -25   13    6     -0.26      0.00
   21   13    6      0.41      0.00
   23   13    6     -0.15      0.00
  -24   14    6      0.48      0.00
   20   14    6      0.50      0.00
   22   14    6      0.41      0.00
  -23   15    6     -0.24      0.00
   19   15    6     -0.30      0.00
   21   15    6      0.20      0.00
  -22   16    6      0.25      0.00
  -20   16    6      0.59      0.00
   18   16    6      0.20      0.00
   20   16    6      0.07      0.00
  -21   17    6     -0.17      0.00
  -19   17    6     -0.14      0.00
   17   17    6     -0.11      0.00
   19   17    6     -0.07      0.00
  -20   18    6      0.22      0.00
  -18   18    6      0.37      0.00
  -16   18    6      0.40      0.00
   14   18    6      0.13      0.00
   16   18    6      1.08      0.00
  -17   19    6     -0.12      0.00
  -15   19    6     -0.84      0.00
   11   19    6     -0.25      0.00
   13   19    6     -0.46      0.00
   15   19    6     -0.28      0.00
  -16   20    6      0.47      0.00
  -14   20    6     -0.09      0.00
  -12   20    6      0.37      0.00
  -10   20    6     -0.71      0.00
    8   20    6      1.36      0.00
   10   20    6      0.53      0.00
   12   20    6      0.08      0.00
  -13   21    6     -0.19      0.00
  -11   21    6      0.67      0.00
   -9   21    6      0.86      0.00
   -7   21    6      1.31      0.00
   -5   21    6      0.20      0.00
   -3   21    6      0.47      0.00
   -1   21    6      0.92      0.00
    1   21    6     -1.12      0.00
    3   21    6      0.19      0.00
    5   21    6     -0.65      0.00
    7   21    6     -1.06      0.00
    9   21    6     -0.38      0.00
   28    0    7      0.72      0.00
   27    1    7     -0.10      0.00
   29    1    7      0.21      0.00
   28    2    7      0.44      0.00
   27    3    7     -0.24      0.00
   26    4    7      0.00      0.00
   28    4    7      0.66      0.00
  -29    5    7     -0.19      0.00
   27    5    7     -0.36      0.00
   26    6    7      0.35      0.00
  -29    7    7     -0.22      0.00
   25    7    7     -0.12      0.00
   27    7    7      0.11      0.00
  -28    8    7     -0.04      0.00
   26    8    7      0.22      0.00
  -29    9    7     -0.15      0.00
   25    9    7      0.11      0.00
  -28   10    7     -0.15      0.00
   24   10    7     -0.32      0.00
  -27   11    7     -0.52      0.00
   23   11    7     -0.12      0.00
   25   11    7      0.08      0.00
  -26   12    7     -0.11      0.00
   22   12    7      0.07      0.00
   24   12    7      0.26      0.00
  -25   13    7     -0.23      0.00
   21   13    7     -0.53      0.00
   23   13    7     -0.04      0.00
  -24   14    7     -0.04      0.00
   20   14    7     -0.48      0.00
   22   14    7      0.45      0.00
  -23   15    7     -0.35      0.00
   19   15    7     -0.40      0.00
   21   15    7     -0.29      0.00
  -22   16    7      0.14      0.00
  -20   16    7      0.07      0.00
   18   16    7     -0.02      0.00
   20   16    7      0.04      0.00
  -21   17    7     -0.22      0.00
  -19   17    7     -0.33      0.00
   15   17    7     -1.05      0.00
   17   17    7      0.02      0.00
  -20   18    7      0.13      0.00
  -18   18    7      0.04      0.00
  -16   18    7      0.33      0.00
   14   18    7      0.19      0.00
   16   18    7      0.08      0.00
  -17   19    7     -0.35      0.00
  -15   19    7      0.10      0.00
  -13   19    7     -0.20      0.00
   11   19    7     -0.04      0.00
   13   19    7      0.05      0.00
   15   19    7     -0.58      0.00
  -16   20    7      0.06      0.00
  -14   20    7      0.15      0.00
  -12   20    7     -0.73      0.00
  -10   20    7     -0.33      0.00
    6   20    7      1.19      0.00
    8   20    7     -0.02      0.00
   10   20    7     -0.02      0.00
   12   20    7      0.33      0.00
  -13   21    7     -0.05      0.00
  -11   21    7      0.14      0.00
   -9   21    7      0.33      0.00
   -7   21    7      1.10      0.00
   -5   21    7      1.13      0.00
   -3   21    7     -0.54      0.00
   -1   21    7     -0.90      0.00
    1   21    7      0.58      0.00
    3   21    7     -1.01      0.00
    5   21    7     -0.80      0.00
    7   21    7     -0.61      0.00
    9   21    7     -0.46      0.00
   26    0    8     -0.17      0.00
   28    0    8     -0.19      0.00
   27    1    8     -0.55      0.00
   26    2    8     -0.29      0.00
   28    2    8     -0.04      0.00
   27    3    8     -0.55      0.00
   26    4    8      0.28      0.00
   28    4    8     -0.23      0.00
  -29    5    8     -0.40      0.00
   27    5    8     -0.26      0.00
   26    6    8     -0.26      0.00
  -29    7    8     -0.10      0.00
   25    7    8     -0.29      0.00
   27    7    8     -0.38      0.00
  -28    8    8      0.24      0.00
   24    8    8     -0.10      0.00
   26    8    8     -0.16      0.00
  -29    9    8     -0.04      0.00
  -27    9    8      0.79      0.00
   25    9    8     -0.33      0.00
  -28   10    8      0.60      0.00
   24   10    8      0.07      0.00
  -27   11    8      0.47      0.00
   23   11    8      0.02      0.00
  -26   12    8      0.03      0.00
   22   12    8      0.29      0.00
  -25   13    8      0.08      0.00
   21   13    8     -0.49      0.00
  -24   14    8      0.35      0.00
   20   14    8      0.51      0.00
  -23   15    8     -0.02      0.00
  -21   15    8     -0.14      0.00
   19   15    8      0.37      0.00
  -22   16    8      0.25      0.00
  -20   16    8      0.44      0.00
   16   16    8     -0.46      0.00
   18   16    8      0.43      0.00
  -21   17    8     -0.20      0.00
  -19   17    8     -0.09      0.00
   15   17    8     -0.47      0.00
   17   17    8     -0.15      0.00
  -20   18    8      0.16      0.00
  -18   18    8      0.22      0.00
  -16   18    8     -0.26      0.00
   12   18    8      0.07      0.00
   14   18    8      0.35      0.00
   16   18    8     -0.02      0.00
  -17   19    8      0.30      0.00
  -15   19    8      0.08      0.00
  -13   19    8      0.54      0.00
    9   19    8      0.18      0.00
   11   19    8     -0.25      0.00
   13   19    8      0.06      0.00
  -16   20    8     -0.10      0.00
  -14   20    8      0.08      0.00
  -12   20    8      0.00      0.00
  -10   20    8     -0.38      0.00
    6   20    8      0.32      0.00
    8   20    8      0.86      0.00
   10   20    8      0.09      0.00
   12   20    8     -0.06      0.00
  -13   21    8      0.19      0.00
  -11   21    8     -0.02      0.00
   -9   21    8      0.68      0.00
   -7   21    8      0.40      0.00
   -5   21    8      1.19      0.00
   -3   21    8      1.09      0.00
   -1   21    8     -0.91      0.00
    1   21    8     -0.87      0.00
    3   21    8      0.32      0.00
    5   21    8     -0.40      0.00
    7   21    8      0.04      0.00
    9   21    8      0.14      0.00
   26    0    9      0.26      0.00
   28    0    9     -0.41      0.00
   27    1    9     -0.06      0.00
   26    2    9      0.54      0.00
   25    3    9      0.16      0.00
   27    3    9      0.11      0.00
   26    4    9      0.09      0.00
  -29    5    9      0.69      0.00
   25    5    9      0.31      0.00
   27    5    9     -0.24      0.00
   26    6    9      0.48      0.00
  -29    7    9      0.06      0.00
   25    7    9      0.36      0.00
  -28    8    9     -0.62      0.00
   24    8    9      0.38      0.00
   26    8    9      0.25      0.00
  -29    9    9     -0.26      0.00
  -27    9    9      0.00      0.00
   23    9    9     -0.26      0.00
   25    9    9      0.38      0.00
  -28   10    9     -0.93      0.00
   22   10    9     -0.21      0.00
   24   10    9     -0.04      0.00
  -27   11    9      0.18      0.00
   21   11    9     -0.31      0.00
   23   11    9      0.34      0.00
  -26   12    9     -0.21      0.00
   20   12    9      0.67      0.00
   22   12    9     -0.06      0.00
  -25   13    9      0.09      0.00
   19   13    9     -0.30      0.00
   21   13    9     -0.08      0.00
  -24   14    9     -0.12      0.00
   18   14    9     -0.35      0.00
   20   14    9      0.28      0.00
  -23   15    9     -0.22      0.00
  -21   15    9     -0.42      0.00
   17   15    9     -0.30      0.00
   19   15    9     -0.10      0.00
  -22   16    9      0.25      0.00
  -20   16    9      0.10      0.00
   16   16    9      0.73      0.00
   18   16    9     -0.40      0.00
  -21   17    9     -0.21      0.00
  -19   17    9     -0.02      0.00
   13   17    9     -0.50      0.00
   15   17    9      0.49      0.00
   17   17    9     -0.09      0.00
  -20   18    9      0.10      0.00
  -18   18    9     -0.60      0.00
  -16   18    9     -0.14      0.00
   12   18    9     -0.71      0.00
   14   18    9      0.28      0.00
  -17   19    9      0.26      0.00
  -15   19    9     -0.16      0.00
  -13   19    9     -0.15      0.00
    9   19    9      0.01      0.00
   11   19    9     -0.07      0.00
   13   19    9     -0.18      0.00
  -14   20    9     -0.24      0.00
  -12   20    9      0.43      0.00
  -10   20    9     -0.28      0.00
   -8   20    9     -0.81      0.00
    4   20    9     -0.23      0.00
    6   20    9     -0.24      0.00
    8   20    9     -0.62      0.00
   10   20    9      0.17      0.00
  -11   21    9     -0.14      0.00
   -9   21    9      0.68      0.00
   -7   21    9      1.95      0.00
   -5   21    9      0.07      0.00
   -3   21    9     -0.08      0.00
   -1   21    9      0.06      0.00
    1   21    9     -0.75      0.00
    3   21    9     -1.00      0.00
    5   21    9     -0.08      0.00
    7   21    9     -0.23      0.00
   26    0   10      0.31      0.00
   25    1   10     -0.23      0.00
   27    1   10      0.50      0.00
   26    2   10     -0.10      0.00
   25    3   10      0.00      0.00
   27    3   10      0.17      0.00
   26    4   10      0.27      0.00
  -29    5   10     -0.06      0.00
   25    5   10     -0.25      0.00
   24    6   10     -0.18      0.00
   26    6   10      0.05      0.00
  -29    7   10      0.35      0.00
   23    7   10     -0.07      0.00
   25    7   10     -0.29      0.00
  -28    8   10     -0.14      0.00
   24    8   10     -0.59      0.00
  -29    9   10      0.66      0.00
  -27    9   10      0.35      0.00
   23    9   10      0.12      0.00
  -28   10   10      0.07      0.00
  -26   10   10     -1.19      0.00
   22   10   10     -0.14      0.00
   24   10   10     -0.08      0.00
  -27   11   10      0.19      0.00
   21   11   10      0.30      0.00
   23   11   10     -0.18      0.00
  -26   12   10     -0.45      0.00
   20   12   10     -0.17      0.00
   22   12   10     -0.33      0.00
  -25   13   10     -0.11      0.00
   19   13   10     -0.24      0.00
   21   13   10     -0.02      0.00
  -24   14   10      0.20      0.00
  -22   14   10      0.32      0.00
   18   14   10     -0.07      0.00
   20   14   10      0.17      0.00
  -23   15   10     -0.43      0.00
  -21   15   10     -0.27      0.00
   17   15   10      0.48      0.00
   19   15   10     -0.27      0.00
  -22   16   10      0.27      0.00
  -20   16   10      0.01      0.00
   14   16   10     -0.73      0.00
   16   16   10     -0.18      0.00
   18   16   10     -0.20      0.00
  -21   17   10     -0.15      0.00
  -19   17   10      0.54      0.00
  -17   17   10      0.48      0.00
   13   17   10      0.14      0.00
   15   17   10     -0.43      0.00
  -18   18   10     -0.14      0.00
  -16   18   10     -0.07      0.00
   10   18   10      0.00      0.00
   12   18   10      0.17      0.00
   14   18   10     -0.54      0.00
  -17   19   10      0.32      0.00
  -15   19   10      0.37      0.00
  -13   19   10     -0.99      0.00
  -11   19   10     -0.47      0.00
    7   19   10      0.69      0.00
    9   19   10     -0.19      0.00
   11   19   10      0.85      0.00
  -14   20   10      0.43      0.00
  -12   20   10      0.31      0.00
  -10   20   10      0.12      0.00
   -8   20   10     -1.80      0.00
   -6   20   10     -0.86      0.00
   -4   20   10      0.30      0.00
    0   20   10      1.00      0.00
    2   20   10      0.91      0.00
    4   20   10      0.30      0.00
    6   20   10      0.21      0.00
    8   20   10      0.22      0.00
   10   20   10     -0.12      0.00
  -11   21   10     -0.36      0.00
   -9   21   10     -0.12      0.00
   -7   21   10      0.35      0.00
   -5   21   10      1.66      0.00
   -3   21   10     -0.58      0.00
   -1   21   10     -0.91      0.00
    1   21   10      0.19      0.00
    3   21   10      0.27      0.00
    5   21   10      0.62      0.00
   26    0   11     -0.73      0.00
   25    1   11     -0.05      0.00
   24    2   11     -0.14      0.00
   26    2   11     -0.21      0.00
   25    3   11     -0.12      0.00
   24    4   11      0.05      0.00
   26    4   11     -0.39      0.00
  -29    5   11      0.13      0.00
   25    5   11      0.04      0.00
   24    6   11      0.01      0.00
  -29    7   11      0.02      0.00
   23    7   11      0.21      0.00
   25    7   11     -0.08      0.00
  -28    8   11     -0.34      0.00
   22    8   11     -0.36      0.00
   24    8   11      0.45      0.00
  -29    9   11      0.04      0.00
  -27    9   11      0.93      0.00
   23    9   11      0.03      0.00
  -28   10   11     -0.44      0.00
  -26   10   11      0.94      0.00
   22   10   11      0.12      0.00
  -27   11   11      0.85      0.00
  -25   11   11     -0.19      0.00
   21   11   11      0.19      0.00
  -26   12   11      0.28      0.00
  -24   12   11      0.41      0.00
   20   12   11      0.06      0.00
  -25   13   11      0.00      0.00
  -23   13   11     -0.45      0.00
   19   13   11      0.11      0.00
   21   13   11      0.43      0.00
  -24   14   11      0.58      0.00
  -22   14   11      0.44      0.00
   18   14   11      0.11      0.00
  -23   15   11     -0.13      0.00
  -21   15   11      0.06      0.00
   15   15   11      0.36      0.00
   17   15   11      0.16      0.00
  -22   16   11      0.22      0.00
  -20   16   11     -0.41      0.00
   14   16   11      0.42      0.00
   16   16   11      0.01      0.00
  -21   17   11     -0.03      0.00
  -19   17   11      0.05      0.00
  -17   17   11     -0.02      0.00
   11   17   11     -0.05      0.00
   13   17   11      0.78      0.00
   15   17   11      0.06      0.00
  -18   18   11     -0.46      0.00
  -16   18   11     -0.16      0.00
  -14   18   11      0.93      0.00
   10   18   11     -1.29      0.00
   12   18   11     -0.63      0.00
   14   18   11      0.11      0.00
  -17   19   11      0.40      0.00
  -15   19   11     -0.68      0.00
  -13   19   11     -0.11      0.00
  -11   19   11     -0.98      0.00
    5   19   11     -0.41      0.00
    7   19   11     -0.13      0.00
    9   19   11      0.23      0.00
   11   19   11      0.03      0.00
  -14   20   11      0.68      0.00
  -12   20   11      0.69      0.00
  -10   20   11      0.23      0.00
   -8   20   11     -0.17      0.00
   -6   20   11     -1.68      0.00
   -4   20   11     -0.39      0.00
   -2   20   11      1.45      0.00
    0   20   11     -0.37      0.00
    2   20   11      0.09      0.00
    4   20   11     -0.91      0.00
    6   20   11     -0.63      0.00
    8   20   11      0.08      0.00
   -9   21   11      1.07      0.00
   -7   21   11      0.81      0.00
   -5   21   11      0.05      0.00
   -3   21   11      0.96      0.00
   -1   21   11     -0.73      0.00
    1   21   11     -0.78      0.00
    3   21   11      0.01      0.00
    5   21   11     -0.08      0.00
   24    0   12     -0.13      0.00
   26    0   12     -0.48      0.00
   25    1   12      0.45      0.00
   24    2   12      0.08      0.00
   26    2   12     -0.82      0.00
  -29    3   12      0.98      0.00
   23    3   12      0.00      0.00
   25    3   12      0.29      0.00
   24    4   12     -0.14      0.00
  -29    5   12      0.46      0.00
   23    5   12      0.26      0.00
   25    5   12      0.02      0.00
  -28    6   12      0.17      0.00
   24    6   12     -0.02      0.00
  -29    7   12      0.30      0.00
   23    7   12     -0.27      0.00
  -28    8   12     -0.63      0.00
   22    8   12      0.50      0.00
   24    8   12     -0.32      0.00
  -29    9   12      0.12      0.00
  -27    9   12     -0.76      0.00
   21    9   12     -0.01      0.00
   23    9   12     -0.14      0.00
  -28   10   12     -0.60      0.00
  -26   10   12     -0.24      0.00
   20   10   12      0.03      0.00
   22   10   12      0.12      0.00
  -27   11   12     -0.71      0.00
  -25   11   12     -0.37      0.00
   19   11   12      0.15      0.00
   21   11   12     -0.07      0.00
  -26   12   12      0.02      0.00
  -24   12   12      0.53      0.00
   18   12   12      0.05      0.00
   20   12   12     -0.60      0.00
  -25   13   12     -0.78      0.00
  -23   13   12     -0.27      0.00
   17   13   12      0.30      0.00
   19   13   12      0.15      0.00
  -24   14   12      0.01      0.00
  -22   14   12     -0.06      0.00
   16   14   12      0.11      0.00
   18   14   12     -0.35      0.00
  -23   15   12     -0.41      0.00
  -21   15   12      0.14      0.00
   15   15   12      0.18      0.00
   17   15   12      0.15      0.00
  -22   16   12     -0.04      0.00
  -20   16   12      0.11      0.00
  -18   16   12     -0.10      0.00
   12   16   12     -1.16      0.00
   14   16   12     -0.15      0.00
   16   16   12     -0.52      0.00
  -19   17   12      0.48      0.00
  -17   17   12      0.24      0.00
   11   17   12      0.87      0.00
   13   17   12     -0.09      0.00
  -18   18   12     -0.36      0.00
  -16   18   12      0.53      0.00
  -14   18   12      0.41      0.00
    8   18   12     -0.51      0.00
   10   18   12     -0.22      0.00
   12   18   12     -0.51      0.00
  -15   19   12     -0.70      0.00
  -13   19   12     -1.59      0.00
  -11   19   12     -0.44      0.00
   -9   19   12     -0.53      0.00
    3   19   12     -0.03      0.00
    5   19   12      1.07      0.00
    7   19   12     -0.32      0.00
    9   19   12      0.78      0.00
  -12   20   12      1.02      0.00
  -10   20   12     -0.25      0.00
   -8   20   12     -0.66      0.00
   -6   20   12     -0.03      0.00
   -4   20   12     -0.62      0.00
   -2   20   12     -0.02      0.00
    0   20   12      1.45      0.00
    2   20   12     -0.31      0.00
    4   20   12      0.45      0.00
    6   20   12      0.11      0.00
   -9   21   12     -0.38      0.00
   -7   21   12      0.87      0.00
   -5   21   12      0.25      0.00
   -3   21   12     -0.99      0.00
   -1   21   12      0.25      0.00
    1   21   12      0.04      0.00
    3   21   12      0.35      0.00
   24    0   13     -0.31      0.00
  -29    1   13     -1.21      0.00
   23    1   13      0.09      0.00
   25    1   13      0.48      0.00
   24    2   13     -0.28      0.00
  -29    3   13     -1.05      0.00
   23    3   13      0.14      0.00
   25    3   13      0.43      0.00
   22    4   13     -0.27      0.00
   24    4   13      0.14      0.00
  -29    5   13     -0.45      0.00
   23    5   13     -0.07      0.00
  -28    6   13      0.00      0.00
   22    6   13      0.04      0.00
   24    6   13      0.10      0.00
  -29    7   13      0.06      0.00
   21    7   13     -0.95      0.00
   23    7   13      0.35      0.00
  -28    8   13      0.59      0.00
   22    8   13      0.05      0.00
  -29    9   13      0.57      0.00
  -27    9   13      0.10      0.00
   21    9   13     -0.63      0.00
  -28   10   13      0.57      0.00
  -26   10   13      0.82      0.00
   20   10   13     -0.02      0.00
   22   10   13      0.27      0.00
  -27   11   13      0.35      0.00
  -25   11   13     -0.85      0.00
   19   11   13      0.49      0.00
   21   11   13     -0.60      0.00
  -26   12   13      0.57      0.00
  -24   12   13      0.12      0.00
   18   12   13     -0.31      0.00
   20   12   13      0.39      0.00
  -25   13   13      0.15      0.00
  -23   13   13     -0.22      0.00
   17   13   13      0.11      0.00
   19   13   13      0.41      0.00
  -24   14   13      0.46      0.00
  -22   14   13     -0.03      0.00
   16   14   13     -0.61      0.00
   18   14   13     -0.04      0.00
  -23   15   13      0.24      0.00
  -21   15   13     -0.08      0.00
  -19   15   13      0.06      0.00
   13   15   13      0.71      0.00
   15   15   13      0.10      0.00
   17   15   13      0.27      0.00
  -20   16   13     -0.55      0.00
  -18   16   13     -0.07      0.00
   12   16   13      0.30      0.00
   14   16   13     -0.16      0.00
  -19   17   13      0.24      0.00
  -17   17   13     -0.57      0.00
  -15   17   13     -0.66      0.00
    9   17   13      0.38      0.00
   11   17   13      0.99      0.00
   13   17   13      0.05      0.00
  -18   18   13     -0.16      0.00
  -16   18   13      0.79      0.00
  -14   18   13      2.18      0.00
  -12   18   13      1.54      0.00
    6   18   13      0.04      0.00
    8   18   13     -0.49      0.00
   10   18   13     -0.89      0.00
  -15   19   13     -0.51      0.00
  -13   19   13     -1.10      0.00
  -11   19   13     -1.08      0.00
   -9   19   13      0.51      0.00
   -7   19   13     -0.22      0.00
   -5   19   13      0.26      0.00
   -3   19   13     -0.06      0.00
   -1   19   13     -0.92      0.00
    1   19   13      0.00      0.00
    3   19   13      0.14      0.00
    5   19   13     -0.54      0.00
    7   19   13      0.15      0.00
    9   19   13      0.40      0.00
  -12   20   13      0.81      0.00
  -10   20   13      0.96      0.00
   -8   20   13     -0.70      0.00
   -6   20   13     -0.54      0.00
   -4   20   13      0.58      0.00
   -2   20   13      0.32      0.00
    0   20   13     -0.57      0.00
    2   20   13      0.39      0.00
    4   20   13     -0.91      0.00
    6   20   13      0.34      0.00
   -5   21   13      0.85      0.00
   -3   21   13      0.02      0.00
   -1   21   13     -0.88      0.00
   22    0   14     -0.12      0.00
   24    0   14     -0.28      0.00
  -29    1   14     -0.59      0.00
   23    1   14      0.08      0.00
   22    2   14     -0.26      0.00
   24    2   14     -0.27      0.00
  -29    3   14     -0.08      0.00
   23    3   14     -0.29      0.00
  -28    4   14      0.85      0.00
   22    4   14      0.23      0.00
   24    4   14     -0.46      0.00
  -29    5   14      0.04      0.00
   21    5   14      0.06      0.00
   23    5   14     -0.26      0.00
  -28    6   14      0.51      0.00
   22    6   14     -0.11      0.00
  -29    7   14     -0.10      0.00
  -27    7   14     -1.26      0.00
   21    7   14      0.05      0.00
   23    7   14     -0.55      0.00
  -28    8   14     -0.13      0.00
   20    8   14      0.89      0.00
   22    8   14     -0.09      0.00
  -27    9   14     -0.63      0.00
   19    9   14     -0.13      0.00
   21    9   14     -0.28      0.00
  -28   10   14     -0.26      0.00
  -26   10   14      0.55      0.00
   18   10   14     -0.57      0.00
   20   10   14      0.99      0.00
  -27   11   14     -0.68      0.00
  -25   11   14      0.30      0.00
   17   11   14      0.38      0.00
   19   11   14     -0.37      0.00
  -26   12   14      0.08      0.00
  -24   12   14      0.35      0.00
   16   12   14      0.01      0.00
   18   12   14     -0.37      0.00
  -25   13   14     -0.45      0.00
  -23   13   14      0.23      0.00
   15   13   14      0.57      0.00
   17   13   14      0.13      0.00
  -24   14   14     -0.28      0.00
  -22   14   14      0.11      0.00
  -20   14   14     -0.03      0.00
   14   14   14     -0.26      0.00
   16   14   14      0.18      0.00
  -21   15   14      0.45      0.00
  -19   15   14      0.09      0.00
   13   15   14     -0.08      0.00
   15   15   14      0.36      0.00
  -20   16   14      0.06      0.00
  -18   16   14      0.37      0.00
   10   16   14     -1.01      0.00
   12   16   14     -0.65      0.00
   14   16   14      0.10      0.00
  -19   17   14      0.11      0.00
  -17   17   14     -0.54      0.00
  -15   17   14     -2.74      0.00
    7   17   14      0.06      0.00
    9   17   14      0.78      0.00
   11   17   14     -0.09      0.00
  -16   18   14      0.44      0.00
  -14   18   14      1.23      0.00
  -12   18   14      1.79      0.00
  -10   18   14      0.36      0.00
    4   18   14      0.41      0.00
    6   18   14      0.06      0.00
    8   18   14     -0.45      0.00
   10   18   14     -0.73      0.00
  -13   19   14     -1.41      0.00
  -11   19   14     -1.27      0.00
   -9   19   14     -0.32      0.00
   -7   19   14      1.04      0.00
   -5   19   14     -0.23      0.00
   -3   19   14     -0.25      0.00
   -1   19   14      0.35      0.00
    1   19   14     -0.47      0.00
    3   19   14      0.39      0.00
    5   19   14     -0.10      0.00
    7   19   14      0.08      0.00
  -10   20   14      0.31      0.00
   -8   20   14      0.31      0.00
   -6   20   14     -0.68      0.00
   -4   20   14     -0.13      0.00
   -2   20   14      0.61      0.00
    0   20   14      0.51      0.00
    2   20   14     -0.35      0.00
    4   20   14      0.56      0.00
   22    0   15      0.23      0.00
  -29    1   15      0.02      0.00
   21    1   15      0.42      0.00
   23    1   15      0.06      0.00
   22    2   15      0.58      0.00
  -29    3   15     -0.43      0.00
   21    3   15     -0.04      0.00
   23    3   15      0.39      0.00
  -28    4   15      1.07      0.00
   22    4   15      0.42      0.00
  -29    5   15     -0.36      0.00
   21    5   15     -0.21      0.00
   23    5   15      0.25      0.00
  -28    6   15      0.78      0.00
   20    6   15     -0.11      0.00
   22    6   15      0.65      0.00
  -29    7   15     -0.17      0.00
  -27    7   15     -0.50      0.00
   21    7   15     -0.12      0.00
  -28    8   15      0.61      0.00
  -26    8   15      0.24      0.00
   20    8   15      0.23      0.00
  -27    9   15     -0.71      0.00
  -25    9   15     -0.75      0.00
   19    9   15     -1.07      0.00
   21    9   15      0.19      0.00
  -26   10   15     -0.07      0.00
   18   10   15      0.35      0.00
   20   10   15      0.03      0.00
  -25   11   15     -0.80      0.00
   17   11   15      0.41      0.00
   19   11   15     -0.72      0.00
  -24   12   15     -0.12      0.00
  -22   12   15     -0.12      0.00
   16   12   15     -0.15      0.00
   18   12   15      0.21      0.00
  -23   13   15     -0.37      0.00
  -21   13   15     -0.07      0.00
   15   13   15     -0.28      0.00
   17   13   15      0.35      0.00
  -22   14   15     -0.38      0.00
  -20   14   15     -0.15      0.00
   12   14   15      0.15      0.00
   14   14   15     -0.32      0.00
   16   14   15     -0.28      0.00
  -21   15   15     -0.23      0.00
  -19   15   15     -0.37      0.00
   11   15   15      0.90      0.00
   13   15   15     -0.02      0.00
   15   15   15     -0.13      0.00
  -20   16   15     -0.20      0.00
  -18   16   15      0.49      0.00
  -16   16   15      2.65      0.00
    8   16   15     -0.29      0.00
   10   16   15      0.22      0.00
   12   16   15      0.42      0.00
  -17   17   15     -0.65      0.00
  -15   17   15     -1.10      0.00
  -13   17   15     -2.48      0.00
    5   17   15     -0.12      0.00
    7   17   15      0.39      0.00
    9   17   15      0.77      0.00
   11   17   15      0.38      0.00
  -16   18   15      1.74      0.00
  -14   18   15      1.97      0.00
  -12   18   15      1.79      0.00
  -10   18   15      1.00      0.00
   -8   18   15     -0.44      0.00
    0   18   15      0.93      0.00
    2   18   15     -0.42      0.00
    4   18   15      0.10      0.00
    6   18   15      0.27      0.00
    8   18   15     -0.32      0.00
  -13   19   15     -1.09      0.00
  -11   19   15     -0.84      0.00
   -9   19   15     -0.13      0.00
   -7   19   15     -0.01      0.00
   -5   19   15      0.50      0.00
   -3   19   15     -0.54      0.00
   -1   19   15     -0.20      0.00
    1   19   15      0.34      0.00
    3   19   15     -0.42      0.00
    5   19   15     -0.13      0.00
   -8   20   15     -0.40      0.00
   -6   20   15      0.20      0.00
   -4   20   15     -0.24      0.00
   -2   20   15     -0.38      0.00
    0   20   15     -0.19      0.00
  -28    0   16      0.54      0.00
   20    0   16     -0.72      0.00
   22    0   16      0.15      0.00
  -29    1   16     -1.59      0.00
   21    1   16     -0.91      0.00
   23    1   16      0.75      0.00
  -28    2   16      0.31      0.00
   20    2   16     -0.46      0.00
   22    2   16     -0.20      0.00
  -29    3   16     -0.97      0.00
   21    3   16     -0.77      0.00
  -28    4   16      0.54      0.00
   20    4   16      0.16      0.00
   22    4   16     -0.14      0.00
  -29    5   16     -0.66      0.00
  -27    5   16     -0.70      0.00
   21    5   16     -0.64      0.00
  -28    6   16      0.54      0.00
   20    6   16      0.29      0.00
  -29    7   16     -0.20      0.00
  -27    7   16     -0.59      0.00
   19    7   16     -0.11      0.00
   21    7   16     -0.51      0.00
  -28    8   16      0.45      0.00
  -26    8   16      0.97      0.00
   18    8   16      0.88      0.00
   20    8   16     -0.09      0.00
  -27    9   16      0.31      0.00
  -25    9   16     -0.27      0.00
   17    9   16     -0.15      0.00
   19    9   16     -0.02      0.00
  -26   10   16      0.62      0.00
  -24   10   16      0.19      0.00
   16   10   16     -0.31      0.00
   18   10   16      0.68      0.00
  -25   11   16      0.25      0.00
  -23   11   16     -0.34      0.00
   15   11   16      0.47      0.00
   17   11   16     -0.10      0.00
  -24   12   16      0.30      0.00
  -22   12   16      0.25      0.00
   14   12   16      0.59      0.00
   16   12   16     -0.45      0.00
  -23   13   16      0.42      0.00
  -21   13   16      0.25      0.00
   13   13   16      0.55      0.00
   15   13   16      0.23      0.00
  -22   14   16      0.37      0.00
  -20   14   16      0.36      0.00
   12   14   16      0.03      0.00
   14   14   16      0.13      0.00
  -21   15   16      0.24      0.00
  -19   15   16     -0.21      0.00
  -17   15   16     -2.53      0.00
    9   15   16     -0.56      0.00
   11   15   16     -0.55      0.00
   13   15   16      0.35      0.00
  -18   16   16      0.64      0.00
  -16   16   16      1.31      0.00
  -14   16   16      2.51      0.00
    8   16   16     -0.51      0.00
   10   16   16     -0.59      0.00
   12   16   16     -0.26      0.00
  -17   17   16     -1.59      0.00
  -15   17   16     -2.66      0.00
  -13   17   16     -1.75      0.00
  -11   17   16     -1.50      0.00
    3   17   16      0.59      0.00
    5   17   16     -0.74      0.00
    7   17   16     -0.38      0.00
    9   17   16     -0.22      0.00
  -14   18   16      1.32      0.00
  -12   18   16      0.94      0.00
  -10   18   16      0.12      0.00
   -8   18   16     -0.08      0.00
   -6   18   16      0.10      0.00
   -4   18   16     -0.40      0.00
   -2   18   16      0.47      0.00
    0   18   16     -0.89      0.00
    2   18   16      0.75      0.00
    4   18   16      0.06      0.00
    6   18   16      0.14      0.00
  -11   19   16     -0.64      0.00
   -9   19   16      0.12      0.00
   -7   19   16      0.48      0.00
   -5   19   16     -0.10      0.00
   -3   19   16      0.72      0.00
   -1   19   16      0.06      0.00
    1   19   16     -0.19      0.00
    3   19   16     -0.03      0.00
  -28    0   17      0.10      0.00
   20    0   17      1.29      0.00
   22    0   17     -1.01      0.00
  -29    1   17      0.20      0.00
   19    1   17      0.89      0.00
   21    1   17     -0.03      0.00
  -28    2   17      0.47      0.00
   20    2   17      1.18      0.00
   22    2   17     -0.65      0.00
  -29    3   17     -0.11      0.00
  -27    3   17     -0.72      0.00
   19    3   17      0.34      0.00
   21    3   17      0.02      0.00
  -28    4   17      0.59      0.00
   20    4   17      0.73      0.00
  -29    5   17     -0.14      0.00
  -27    5   17     -0.77      0.00
   19    5   17     -0.24      0.00
   21    5   17      0.00      0.00
  -28    6   17      0.37      0.00
  -26    6   17      0.12      0.00
   18    6   17     -0.12      0.00
   20    6   17      0.45      0.00
  -27    7   17     -0.54      0.00
   17    7   17     -0.37      0.00
   19    7   17      0.06      0.00
  -28    8   17     -0.05      0.00
  -26    8   17      0.09      0.00
   18    8   17     -0.12      0.00
  -27    9   17     -0.89      0.00
  -25    9   17      0.01      0.00
   17    9   17     -0.60      0.00
   19    9   17      0.05      0.00
  -26   10   17      0.21      0.00
  -24   10   17      0.30      0.00
   16   10   17     -0.18      0.00
   18   10   17      0.04      0.00
  -25   11   17     -0.56      0.00
  -23   11   17      0.06      0.00
   15   11   17      0.29      0.00
   17   11   17     -0.48      0.00
  -24   12   17     -0.04      0.00
  -22   12   17     -0.38      0.00
   14   12   17     -0.50      0.00
   16   12   17     -0.01      0.00
  -23   13   17     -0.53      0.00
  -21   13   17     -0.29      0.00
   11   13   17      0.30      0.00
   13   13   17     -0.30      0.00
   15   13   17      0.21      0.00
  -22   14   17     -0.31      0.00
  -20   14   17     -0.09      0.00
  -18   14   17      2.04      0.00
   10   14   17      1.05      0.00
   12   14   17     -0.58      0.00
   14   14   17     -0.03      0.00
  -19   15   17     -0.71      0.00
  -17   15   17     -1.24      0.00
    7   15   17     -0.15      0.00
    9   15   17      0.71      0.00
   11   15   17      0.26      0.00
  -18   16   17      1.39      0.00
  -16   16   17      2.67      0.00
  -14   16   17      1.89      0.00
    4   16   17      0.63      0.00
    6   16   17      1.15      0.00
    8   16   17      0.60      0.00
   10   16   17      0.58      0.00
  -15   17   17     -1.19      0.00
  -13   17   17     -1.29      0.00
  -11   17   17      0.17      0.00
   -9   17   17     -0.14      0.00
   -7   17   17     -0.21      0.00
   -1   17   17      0.47      0.00
    1   17   17     -0.62      0.00
    3   17   17     -0.50      0.00
    5   17   17     -0.18      0.00
    7   17   17      0.23      0.00
  -14   18   17      1.44      0.00
  -12   18   17      0.92      0.00
  -10   18   17     -0.04      0.00
   -8   18   17     -0.56      0.00
   -6   18   17     -0.31      0.00
   -4   18   17     -0.12      0.00
   -2   18   17     -0.59      0.00
    0   18   17      0.40      0.00
    2   18   17     -0.34      0.00
    4   18   17      0.73      0.00
   -9   19   17      0.46      0.00
   -7   19   17      0.47      0.00
   -5   19   17      0.21      0.00
   -3   19   17     -0.27      0.00
   -1   19   17      0.20      0.00
    1   19   17     -0.27      0.00
  -28    0   18      0.46      0.00
   18    0   18     -1.08      0.00
   20    0   18      0.10      0.00
  -29    1   18     -0.26      0.00
  -27    1   18     -0.57      0.00
   19    1   18     -1.33      0.00
   21    1   18      0.79      0.00
  -28    2   18      0.25      0.00
   18    2   18     -0.73      0.00
   20    2   18      0.07      0.00
  -29    3   18     -0.29      0.00
  -27    3   18     -0.39      0.00
   19    3   18     -0.90      0.00
  -28    4   18      0.20      0.00
  -26    4   18      0.92      0.00
   18    4   18     -0.08      0.00
   20    4   18      0.23      0.00
  -29    5   18     -0.45      0.00
  -27    5   18      0.00      0.00
   17    5   18      0.43      0.00
   19    5   18     -0.33      0.00
  -28    6   18      0.41      0.00
  -26    6   18      0.67      0.00
   18    6   18     -0.10      0.00
  -27    7   18     -0.33      0.00
  -25    7   18      0.09      0.00
   17    7   18      0.15      0.00
   19    7   18     -0.45      0.00
  -26    8   18      0.38      0.00
  -24    8   18      0.25      0.00
   16    8   18      0.24      0.00
   18    8   18     -0.16      0.00
  -25    9   18     -0.65      0.00
   15    9   18      0.06      0.00
   17    9   18      0.16      0.00
  -26   10   18      0.20      0.00
  -24   10   18      0.17      0.00
   14   10   18     -0.37      0.00
   16   10   18      0.47      0.00
  -25   11   18      0.06      0.00
  -23   11   18     -0.02      0.00
  -21   11   18      0.58      0.00
   13   11   18      0.42      0.00
   15   11   18      0.22      0.00
  -24   12   18      0.29      0.00
  -22   12   18      0.27      0.00
  -20   12   18      1.15      0.00
   12   12   18      0.15      0.00
   14   12   18     -0.10      0.00
  -21   13   18      0.31      0.00
  -19   13   18     -1.37      0.00
   11   13   18      0.42      0.00
   13   13   18      0.26      0.00
  -20   14   18      0.62      0.00
  -18   14   18      1.14      0.00
    8   14   18     -0.38      0.00
   10   14   18     -0.48      0.00
   12   14   18      0.20      0.00
  -19   15   18     -0.85      0.00
  -17   15   18     -2.47      0.00
  -15   15   18     -1.65      0.00
    5   15   18     -1.58      0.00
    7   15   18     -0.85      0.00
    9   15   18     -0.86      0.00
   11   15   18      0.17      0.00
  -18   16   18      0.56      0.00
  -16   16   18      1.28      0.00
  -14   16   18      1.18      0.00
  -12   16   18      0.11      0.00
  -10   16   18     -0.31      0.00
    2   16   18      0.63      0.00
    4   16   18      0.46      0.00
    6   16   18      0.19      0.00
    8   16   18     -0.18      0.00
  -15   17   18     -1.48      0.00
  -13   17   18     -0.58      0.00
  -11   17   18     -0.24      0.00
   -9   17   18      0.91      0.00
   -7   17   18      0.26      0.00
   -5   17   18     -0.05      0.00
   -3   17   18      0.14      0.00
   -1   17   18      0.16      0.00
    1   17   18      0.40      0.00
    3   17   18     -0.57      0.00
    5   17   18     -1.10      0.00
  -12   18   18      0.01      0.00
  -10   18   18     -0.24      0.00
   -8   18   18     -0.44      0.00
   -6   18   18     -0.18      0.00
   -4   18   18     -0.33      0.00
   -2   18   18      0.04      0.00
    0   18   18      0.15      0.00
    2   18   18      0.52      0.00
  -28    0   19      0.41      0.00
  -26    0   19      1.63      0.00
   18    0   19      1.13      0.00
   20    0   19     -0.64      0.00
  -29    1   19      0.19      0.00
  -27    1   19     -0.02      0.00
   17    1   19      0.84      0.00
   19    1   19     -0.15      0.00
  -28    2   19      0.32      0.00
  -26    2   19      0.89      0.00
   18    2   19      0.85      0.00
   20    2   19     -0.47      0.00
  -29    3   19      0.12      0.00
  -27    3   19     -0.41      0.00
   17    3   19      0.39      0.00
   19    3   19     -0.30      0.00
  -28    4   19      0.19      0.00
  -26    4   19      0.06      0.00
   18    4   19      0.25      0.00
  -27    5   19     -0.71      0.00
  -25    5   19     -0.93      0.00
   17    5   19      0.05      0.00
   19    5   19     -0.55      0.00
  -28    6   19      0.04      0.00
  -26    6   19      0.10      0.00
   16    6   19     -0.21      0.00
   18    6   19      0.14      0.00
  -27    7   19     -0.11      0.00
  -25    7   19     -0.72      0.00
   15    7   19     -0.07      0.00
   17    7   19      0.32      0.00
  -26    8   19      0.25      0.00
  -24    8   19      0.41      0.00
   14    8   19      0.08      0.00
   16    8   19     -0.06      0.00
  -25    9   19      0.06      0.00
  -23    9   19     -0.22      0.00
   15    9   19     -0.22      0.00
   17    9   19      0.23      0.00
  -24   10   19     -0.05      0.00
  -22   10   19     -0.28      0.00
   14   10   19     -0.06      0.00
   16   10   19     -0.24      0.00
  -23   11   19      0.10      0.00
  -21   11   19     -0.84      0.00
   11   11   19     -0.34      0.00
   13   11   19      0.23      0.00
   15   11   19     -0.30      0.00
  -22   12   19     -0.45      0.00
  -20   12   19      0.56      0.00
   10   12   19     -0.59      0.00
   12   12   19     -0.27      0.00
   14   12   19     -0.27      0.00
  -21   13   19     -0.35      0.00
  -19   13   19     -0.75      0.00
  -17   13   19     -1.56      0.00
    9   13   19      0.19      0.00
   11   13   19     -0.10      0.00
  -20   14   19      0.33      0.00
  -18   14   19      1.82      0.00
  -16   14   19      1.52      0.00
    6   14   19      1.08      0.00
    8   14   19      0.95      0.00
   10   14   19      0.00      0.00
  -17   15   19     -1.06      0.00
  -15   15   19     -1.15      0.00
  -13   15   19      0.16      0.00
    3   15   19     -0.24      0.00
    5   15   19     -0.66      0.00
    7   15   19     -0.09      0.00
    9   15   19      0.22      0.00
  -16   16   19      1.04      0.00
  -14   16   19      0.46      0.00
  -12   16   19      0.03      0.00
  -10   16   19     -0.36      0.00
   -8   16   19     -0.77      0.00
   -6   16   19      1.10      0.00
   -4   16   19     -0.06      0.00
   -2   16   19      0.10      0.00
    0   16   19     -1.09      0.00
    2   16   19      0.49      0.00
    4   16   19      1.35      0.00
    6   16   19      0.88      0.00
  -13   17   19     -0.03      0.00
  -11   17   19      0.34      0.00
   -9   17   19     -0.23      0.00
   -7   17   19      0.36      0.00
   -5   17   19      0.38      0.00
   -3   17   19      0.28      0.00
   -1   17   19     -0.54      0.00
    1   17   19     -0.54      0.00
    3   17   19     -0.44      0.00
   -8   18   19     -0.02      0.00
   -6   18   19     -0.07      0.00
   -4   18   19      0.35      0.00
   -2   18   19     -0.24      0.00
    0   18   19      0.15      0.00
  -28    0   20     -0.13      0.00
  -26    0   20      0.35      0.00
   16    0   20     -0.54      0.00
   18    0   20      0.15      0.00
  -27    1   20     -0.76      0.00
   17    1   20     -0.65      0.00
   19    1   20      0.40      0.00
  -28    2   20      0.10      0.00
  -26    2   20      0.70      0.00
   16    2   20     -0.55      0.00
   18    2   20      0.29      0.00
  -27    3   20     -0.23      0.00
  -25    3   20     -0.11      0.00
   17    3   20     -0.24      0.00
  -28    4   20      0.20      0.00
  -26    4   20      0.87      0.00
   16    4   20     -0.01      0.00
   18    4   20      0.57      0.00
  -27    5   20      0.19      0.00
  -25    5   20     -0.64      0.00
   15    5   20     -0.05      0.00
   17    5   20      0.21      0.00
  -26    6   20      0.42      0.00
  -24    6   20     -0.12      0.00
   14    6   20      0.01      0.00
   16    6   20     -0.15      0.00
  -25    7   20     -0.27      0.00
  -23    7   20     -0.45      0.00
   15    7   20     -0.06      0.00
   17    7   20      0.02      0.00
  -26    8   20      0.23      0.00
  -24    8   20     -0.16      0.00
   14    8   20      0.23      0.00
   16    8   20     -0.38      0.00
  -25    9   20     -0.36      0.00
  -23    9   20      0.30      0.00
   13    9   20      0.17      0.00
   15    9   20     -0.08      0.00
  -24   10   20      0.13      0.00
  -22   10   20      0.07      0.00
   12   10   20     -0.01      0.00
   14   10   20      0.18      0.00
  -23   11   20      0.15      0.00
  -21   11   20      0.21      0.00
  -19   11   20     -1.36      0.00
   11   11   20      0.57      0.00
   13   11   20      0.06      0.00
  -22   12   20      0.15      0.00
  -20   12   20      0.25      0.00
  -18   12   20      0.86      0.00
    8   12   20     -0.09      0.00
   10   12   20      0.40      0.00
   12   12   20     -0.31      0.00
  -21   13   20      0.07      0.00
  -19   13   20     -1.12      0.00
  -17   13   20     -1.03      0.00
    7   13   20     -1.13      0.00
    9   13   20      0.13      0.00
   11   13   20      0.27      0.00
  -18   14   20      0.74      0.00
  -16   14   20      0.76      0.00
  -14   14   20     -0.13      0.00
    4   14   20      0.65      0.00
    6   14   20      0.21      0.00
    8   14   20      0.03      0.00
  -17   15   20     -0.65      0.00
  -15   15   20     -0.15      0.00
  -13   15   20     -0.37      0.00
  -11   15   20      0.02      0.00
   -9   15   20      0.28      0.00
   -7   15   20     -1.20      0.00
   -1   15   20      0.93      0.00
    1   15   20      0.15      0.00
    3   15   20     -1.49      0.00
    5   15   20     -0.95      0.00
    7   15   20     -0.48      0.00
  -14   16   20     -0.11      0.00
  -12   16   20     -0.13      0.00
  -10   16   20      0.26      0.00
   -8   16   20      0.29      0.00
   -6   16   20     -1.01      0.00
   -4   16   20      0.13      0.00
   -2   16   20      0.30      0.00
    0   16   20      1.02      0.00
    2   16   20      0.28      0.00
    4   16   20      0.29      0.00
  -11   17   20      0.24      0.00
   -9   17   20      0.24      0.00
   -7   17   20     -0.50      0.00
   -5   17   20     -0.50      0.00
   -3   17   20     -0.16      0.00
   -1   17   20      0.22      0.00
    1   17   20     -0.21      0.00
  -28    0   21      0.21      0.00
  -26    0   21      0.02      0.00
   16    0   21      0.45      0.00
  -27    1   21     -0.39      0.00
  -25    1   21     -0.59      0.00
   15    1   21      0.40      0.00
   17    1   21     -0.22      0.00
  -26    2   21      0.06      0.00
   16    2   21      0.36      0.00
  -27    3   21     -0.46      0.00
  -25    3   21     -0.16      0.00
   15    3   21      0.04      0.00
   17    3   21     -0.42      0.00
  -26    4   21      0.32      0.00
  -24    4   21      0.20      0.00
   14    4   21      0.61      0.00
   16    4   21     -0.21      0.00
  -27    5   21     -0.41      0.00
  -25    5   21      0.45      0.00
   15    5   21     -0.02      0.00
  -26    6   21      0.61      0.00
  -24    6   21      0.21      0.00
   14    6   21      0.44      0.00
   16    6   21     -0.30      0.00
  -25    7   21      0.03      0.00
  -23    7   21      0.78      0.00
   13    7   21     -0.03      0.00
   15    7   21      0.15      0.00
  -24    8   21      0.09      0.00
  -22    8   21     -0.41      0.00
   12    8   21      0.06      0.00
   14    8   21      0.34      0.00
  -23    9   21      0.06      0.00
  -21    9   21      0.44      0.00
   11    9   21      0.19      0.00
   13    9   21     -0.43      0.00
  -22   10   21     -0.29      0.00
  -20   10   21      0.29      0.00
   10   10   21     -0.43      0.00
   12   10   21     -0.22      0.00
  -21   11   21      0.16      0.00
  -19   11   21     -0.16      0.00
    9   11   21     -0.23      0.00
   11   11   21      0.09      0.00
  -20   12   21      0.38      0.00
  -18   12   21      0.74      0.00
  -16   12   21      0.58      0.00
    6   12   21      0.93      0.00
    8   12   21      0.02      0.00
   10   12   21     -0.54      0.00
  -19   13   21     -0.07      0.00
  -17   13   21     -0.56      0.00
  -15   13   21      0.21      0.00
    3   13   21     -0.54      0.00
    5   13   21     -0.35      0.00
    7   13   21      0.03      0.00
    9   13   21     -0.42      0.00
  -18   14   21      0.21      0.00
  -16   14   21      0.13      0.00
  -14   14   21      0.37      0.00
  -12   14   21      0.76      0.00
  -10   14   21     -0.18      0.00
    0   14   21     -0.01      0.00
    2   14   21      1.16      0.00
    4   14   21      0.85      0.00
    6   14   21      0.64      0.00
    8   14   21      0.13      0.00
  -15   15   21     -0.10      0.00
  -13   15   21      0.36      0.00
  -11   15   21     -0.49      0.00
   -9   15   21     -0.27      0.00
   -7   15   21      0.67      0.00
   -5   15   21      0.14      0.00
   -3   15   21     -0.74      0.00
   -1   15   21     -0.77      0.00
    1   15   21     -0.43      0.00
    3   15   21     -0.12      0.00
    5   15   21     -0.10      0.00
  -12   16   21     -0.13      0.00
  -10   16   21      0.17      0.00
   -8   16   21      0.47      0.00
   -6   16   21      1.22      0.00
   -4   16   21     -0.11      0.00
   -2   16   21     -0.08      0.00
    0   16   21     -0.28      0.00
    2   16   21      0.67      0.00
   -7   17   21      0.14      0.00
   -5   17   21      0.12      0.00
  -26    0   22      0.36      0.00
  -24    0   22     -0.24      0.00
   14    0   22     -0.38      0.00
   16    0   22      0.18      0.00
  -27    1   22      0.38      0.00
  -25    1   22      0.82      0.00
   13    1   22     -1.01      0.00
   15    1   22     -0.59      0.00
  -26    2   22      0.13      0.00
  -24    2   22     -0.65      0.00
   14    2   22     -0.10      0.00
   16    2   22      0.27      0.00
  -25    3   22      0.19      0.00
  -23    3   22      0.81      0.00
   13    3   22     -1.09      0.00
   15    3   22     -0.10      0.00
  -26    4   22     -0.27      0.00
  -24    4   22     -1.21      0.00
   12    4   22      0.31      0.00
   14    4   22      0.12      0.00
   16    4   22      0.57      0.00
  -25    5   22     -0.45      0.00
  -23    5   22      0.72      0.00
   13    5   22     -0.63      0.00
   15    5   22      0.15      0.00
  -24    6   22     -0.69      0.00
  -22    6   22     -0.96      0.00
   12    6   22      0.07      0.00
   14    6   22      0.03      0.00
  -25    7   22     -0.04      0.00
  -23    7   22      0.47      0.00
  -21    7   22      0.29      0.00
   11    7   22     -0.03      0.00
   13    7   22     -0.81      0.00
  -24    8   22     -0.30      0.00
  -22    8   22     -0.80      0.00
  -20    8   22     -0.19      0.00
   10    8   22     -0.23      0.00
   12    8   22      0.30      0.00
  -23    9   22      0.51      0.00
  -21    9   22      0.14      0.00
  -19    9   22     -0.42      0.00
    9    9   22      0.51      0.00
   11    9   22      0.04      0.00
   13    9   22     -0.35      0.00
  -22   10   22     -0.68      0.00
  -20   10   22     -0.39      0.00
  -18   10   22     -0.24      0.00
    8   10   22      0.09      0.00
   10   10   22     -0.26      0.00
   12   10   22      0.30      0.00
  -21   11   22      0.23      0.00
  -19   11   22     -0.45      0.00
  -17   11   22     -0.67      0.00
    5   11   22     -0.39      0.00
    7   11   22     -0.02      0.00
    9   11   22      0.33      0.00
  -20   12   22     -0.47      0.00
  -18   12   22     -0.01      0.00
  -16   12   22      0.14      0.00
  -14   12   22     -0.06      0.00
    4   12   22      0.62      0.00
    6   12   22     -0.06      0.00
    8   12   22      0.40      0.00
  -17   13   22      0.07      0.00
  -15   13   22     -0.44      0.00
  -13   13   22     -0.69      0.00
  -11   13   22     -0.41      0.00
    1   13   22     -1.08      0.00
    3   13   22     -0.25      0.00
    5   13   22     -0.46      0.00
    7   13   22     -0.19      0.00
  -16   14   22      0.15      0.00
  -14   14   22     -0.14      0.00
  -12   14   22      0.19      0.00
  -10   14   22      0.70      0.00
   -8   14   22     -0.73      0.00
   -6   14   22      0.27      0.00
   -4   14   22      0.42      0.00
   -2   14   22      0.81      0.00
    0   14   22     -0.03      0.00
    2   14   22     -0.01      0.00
    4   14   22     -0.02      0.00
    6   14   22     -0.07      0.00
  -13   15   22     -0.37      0.00
  -11   15   22     -0.24      0.00
   -9   15   22     -0.95      0.00
   -7   15   22     -1.14      0.00
   -5   15   22     -0.17      0.00
   -3   15   22      0.57      0.00
   -1   15   22      0.17      0.00
    1   15   22     -0.17      0.00
    3   15   22     -0.57      0.00
   -8   16   22      0.07      0.00
   -6   16   22     -0.34      0.00
   -4   16   22      0.47      0.00
   -2   16   22      0.07      0.00
  -26    0   23     -0.72      0.00
  -24    0   23     -1.14      0.00
   12    0   23      0.66      0.00
   14    0   23      0.93      0.00
  -25    1   23      0.32      0.00
  -23    1   23      0.77      0.00
   13    1   23      0.24      0.00
   15    1   23     -0.17      0.00
  -26    2   23     -0.34      0.00
  -24    2   23     -0.85      0.00
   12    2   23      1.05      0.00
   14    2   23      0.59      0.00
  -25    3   23      0.76      0.00
  -23    3   23      0.87      0.00
   11    3   23     -0.42      0.00
   13    3   23      0.12      0.00
  -24    4   23     -0.41      0.00
  -22    4   23     -0.98      0.00
   12    4   23      0.75      0.00
   14    4   23      0.15      0.00
  -25    5   23      0.88      0.00
  -23    5   23      0.73      0.00
  -21    5   23      0.15      0.00
   11    5   23      0.04      0.00
   13    5   23     -0.28      0.00
  -24    6   23     -0.55      0.00
  -22    6   23     -0.63      0.00
   10    6   23      0.03      0.00
   12    6   23      0.73      0.00
  -23    7   23      0.81      0.00
  -21    7   23      0.55      0.00
    9    7   23      0.53      0.00
   11    7   23     -0.34      0.00
   13    7   23      0.26      0.00
  -22    8   23     -0.41      0.00
  -20    8   23     -0.06      0.00
    8    8   23     -0.42      0.00
   10    8   23     -0.11      0.00
   12    8   23      0.60      0.00
  -21    9   23      0.83      0.00
  -19    9   23      0.36      0.00
    7    9   23      0.18      0.00
    9    9   23      0.20      0.00
   11    9   23     -0.16      0.00
  -20   10   23      0.14      0.00
  -18   10   23      0.67      0.00
  -16   10   23      0.24      0.00
    6   10   23      0.07      0.00
    8   10   23     -0.30      0.00
   10   10   23     -0.16      0.00
  -19   11   23      0.44      0.00
  -17   11   23      0.11      0.00
  -15   11   23     -0.49      0.00
    3   11   23     -0.62      0.00
    5   11   23      0.10      0.00
    7   11   23     -0.31      0.00
    9   11   23      0.25      0.00
  -18   12   23      0.21      0.00
  -16   12   23     -0.03      0.00
  -14   12   23      0.67      0.00
  -12   12   23      0.31      0.00
  -10   12   23      1.43      0.00
    0   12   23      0.53      0.00
    2   12   23     -0.31      0.00
    4   12   23     -0.10      0.00
    6   12   23      0.02      0.00
  -15   13   23      0.12      0.00
  -13   13   23     -0.41      0.00
  -11   13   23     -0.48      0.00
   -9   13   23      0.07      0.00
   -7   13   23      0.00      0.00
   -5   13   23     -0.57      0.00
   -3   13   23     -0.20      0.00
   -1   13   23      0.13      0.00
    1   13   23      0.43      0.00
    3   13   23     -0.05      0.00
    5   13   23      0.19      0.00
  -14   14   23      0.30      0.00
  -12   14   23      0.48      0.00
  -10   14   23      0.74      0.00
   -8   14   23      1.41      0.00
   -6   14   23     -0.01      0.00
   -4   14   23     -0.46      0.00
   -2   14   23     -0.23      0.00
    0   14   23      0.17      0.00
    2   14   23      0.10      0.00
   -9   15   23      0.28      0.00
   -7   15   23      0.06      0.00
   -5   15   23     -0.37      0.00
   -3   15   23     -0.38      0.00
   -1   15   23      0.09      0.00
  -24    0   24     -0.38      0.00
  -22    0   24     -1.24      0.00
   10    0   24      0.77      0.00
   12    0   24     -0.28      0.00
  -25    1   24      0.63      0.00
  -23    1   24      0.67      0.00
  -21    1   24     -0.66      0.00
   11    1   24     -0.42      0.00
   13    1   24     -0.91      0.00
  -24    2   24     -0.46      0.00
  -22    2   24     -0.89      0.00
   10    2   24      0.66      0.00
   12    2   24     -0.35      0.00
  -25    3   24      0.29      0.00
  -23    3   24      0.74      0.00
  -21    3   24     -0.04      0.00
    9    3   24     -0.18      0.00
   11    3   24     -0.47      0.00
   13    3   24     -0.62      0.00
  -24    4   24     -0.54      0.00
  -22    4   24     -0.32      0.00
  -20    4   24      0.17      0.00
   10    4   24      0.01      0.00
   12    4   24      0.01      0.00
  -23    5   24      0.73      0.00
  -21    5   24      0.54      0.00
    9    5   24      0.23      0.00
   11    5   24     -0.63      0.00
  -22    6   24     -0.56      0.00
  -20    6   24      0.28      0.00
    8    6   24     -0.62      0.00
   10    6   24      0.15      0.00
   12    6   24     -0.03      0.00
  -23    7   24      0.28      0.00
  -21    7   24      0.27      0.00
  -19    7   24      0.26      0.00
    7    7   24      0.46      0.00
    9    7   24     -0.04      0.00
   11    7   24     -0.26      0.00
  -22    8   24     -0.82      0.00
  -20    8   24     -0.31      0.00
  -18    8   24     -0.47      0.00
    6    8   24     -0.20      0.00
    8    8   24     -0.37      0.00
   10    8   24      0.22      0.00
  -21    9   24      0.03      0.00
  -19    9   24     -0.53      0.00
  -17    9   24     -0.03      0.00
  -15    9   24     -0.05      0.00
    5    9   24      0.05      0.00
    7    9   24      0.18      0.00
    9    9   24      0.26      0.00
  -20   10   24     -0.63      0.00
  -18   10   24     -0.30      0.00
  -16   10   24      0.26      0.00
  -14   10   24      0.67      0.00
    2   10   24      0.51      0.00
    4   10   24     -0.10      0.00
    6   10   24      0.09      0.00
    8   10   24     -0.20      0.00
  -17   11   24     -0.01      0.00
  -15   11   24      0.05      0.00
  -13   11   24     -0.66      0.00
  -11   11   24     -0.93      0.00
   -9   11   24     -0.98      0.00
   -1   11   24     -0.42      0.00
    1   11   24      0.88      0.00
    3   11   24      0.53      0.00
    5   11   24      0.08      0.00
    7   11   24      0.18      0.00
  -16   12   24      0.19      0.00
  -14   12   24      0.16      0.00
  -12   12   24      0.65      0.00
  -10   12   24      0.00      0.00
   -8   12   24      0.40      0.00
   -6   12   24      0.07      0.00
   -4   12   24      0.36      0.00
   -2   12   24     -0.43      0.00
    0   12   24     -0.36      0.00
    2   12   24      0.02      0.00
    4   12   24     -0.06      0.00
  -13   13   24     -0.06      0.00
  -11   13   24     -0.77      0.00
   -9   13   24     -0.93      0.00
   -7   13   24     -0.46      0.00
   -5   13   24      0.68      0.00
   -3   13   24     -0.14      0.00
   -1   13   24     -0.10      0.00
    1   13   24      0.16      0.00
    3   13   24      0.24      0.00
  -10   14   24     -0.12      0.00
   -8   14   24     -0.27      0.00
   -6   14   24      0.52      0.00
   -4   14   24      0.30      0.00
   -2   14   24     -0.21      0.00
  -24    0   25     -0.36      0.00
  -22    0   25      0.75      0.00
  -20    0   25      0.19      0.00
    8    0   25     -0.29      0.00
   10    0   25      0.00      0.00
   12    0   25      0.89      0.00
  -23    1   25      0.87      0.00
  -21    1   25      1.20      0.00
    9    1   25     -0.63      0.00
   11    1   25      0.44      0.00
  -24    2   25     -0.37      0.00
  -22    2   25      0.42      0.00
  -20    2   25      0.05      0.00
    8    2   25      0.15      0.00
   10    2   25     -0.01      0.00
   12    2   25      0.74      0.00
  -23    3   25      0.37      0.00
  -21    3   25      0.65      0.00
  -19    3   25     -0.04      0.00
    7    3   25      0.72      0.00
    9    3   25     -0.07      0.00
   11    3   25      0.19      0.00
  -22    4   25     -0.26      0.00
  -20    4   25     -0.64      0.00
    8    4   25     -0.30      0.00
   10    4   25      0.25      0.00
  -23    5   25      0.16      0.00
  -21    5   25      0.09      0.00
  -19    5   25      0.04      0.00
    7    5   25      0.70      0.00
    9    5   25     -0.25      0.00
   11    5   25      0.24      0.00
  -22    6   25     -0.19      0.00
  -20    6   25     -0.45      0.00
  -18    6   25     -0.16      0.00
    6    6   25     -0.36      0.00
    8    6   25     -0.12      0.00
   10    6   25      0.09      0.00
  -21    7   25      0.42      0.00
  -19    7   25      0.26      0.00
  -17    7   25      0.70      0.00
    5    7   25      0.19      0.00
    7    7   25      0.33      0.00
    9    7   25      0.01      0.00
  -20    8   25      0.16      0.00
  -18    8   25      0.13      0.00
  -16    8   25     -0.17      0.00
  -14    8   25      1.00      0.00
    2    8   25     -0.72      0.00
    4    8   25     -0.10      0.00
    6    8   25     -0.20      0.00
    8    8   25     -0.12      0.00
  -19    9   25      0.49      0.00
  -17    9   25     -0.01      0.00
  -15    9   25     -0.31      0.00
  -13    9   25     -0.01      0.00
    1    9   25     -0.04      0.00
    3    9   25      0.07      0.00
    5    9   25     -0.13      0.00
    7    9   25      0.36      0.00
  -18   10   25     -0.03      0.00
  -16   10   25     -0.29      0.00
  -14   10   25      0.33      0.00
  -12   10   25      1.08      0.00
  -10   10   25      0.28      0.00
   -8   10   25      0.32      0.00
   -6   10   25      0.07      0.00
   -4   10   25     -0.27      0.00
   -2   10   25     -0.03      0.00
    0   10   25     -0.71      0.00
    2   10   25     -0.78      0.00
    4   10   25     -0.08      0.00
    6   10   25     -0.15      0.00
  -15   11   25     -0.31      0.00
  -13   11   25     -0.09      0.00
  -11   11   25     -0.47      0.00
   -9   11   25     -0.35      0.00
   -7   11   25     -0.20      0.00
   -5   11   25     -0.17      0.00
   -3   11   25     -0.10      0.00
   -1   11   25      0.45      0.00
    1   11   25     -0.15      0.00
    3   11   25      0.01      0.00
  -14   12   25      0.15      0.00
  -12   12   25      0.21      0.00
  -10   12   25      0.78      0.00
   -8   12   25      0.29      0.00
   -6   12   25     -0.24      0.00
   -4   12   25     -0.24      0.00
   -2   12   25      0.37      0.00
    0   12   25     -0.46      0.00
    2   12   25     -0.38      0.00
  -11   13   25      0.23      0.00
   -9   13   25      0.01      0.00
   -7   13   25      0.00      0.00
   -5   13   25     -0.61      0.00
   -3   13   25      0.50      0.00
   -1   13   25      0.11      0.00
  -22    0   26     -1.16      0.00
  -20    0   26      0.08      0.00
  -18    0   26     -0.19      0.00
    6    0   26     -0.56      0.00
    8    0   26      0.63      0.00
   10    0   26     -0.40      0.00
  -23    1   26     -0.76      0.00
  -21    1   26     -0.09      0.00
  -19    1   26      1.32      0.00
    5    1   26      0.97      0.00
    7    1   26      0.19      0.00
    9    1   26      0.32      0.00
  -22    2   26     -0.94      0.00
  -20    2   26     -0.17      0.00
  -18    2   26     -0.45      0.00
    6    2   26     -0.24      0.00
    8    2   26      0.15      0.00
   10    2   26     -0.29      0.00
  -21    3   26      0.14      0.00
  -19    3   26      0.84      0.00
  -17    3   26      0.01      0.00
    5    3   26      0.38      0.00
    7    3   26      0.29      0.00
    9    3   26     -0.03      0.00
  -22    4   26     -0.38      0.00
  -20    4   26     -0.20      0.00
  -18    4   26     -1.00      0.00
  -16    4   26     -0.39      0.00
    4    4   26      0.07      0.00
    6    4   26     -0.61      0.00
    8    4   26      0.19      0.00
  -21    5   26      0.38      0.00
  -19    5   26      0.15      0.00
  -17    5   26     -0.34      0.00
    3    5   26     -0.16      0.00
    5    5   26      0.14      0.00
    7    5   26      0.12      0.00
    9    5   26      0.28      0.00
  -20    6   26     -0.41      0.00
  -18    6   26     -0.92      0.00
  -16    6   26     -0.38      0.00
  -14    6   26      0.60      0.00
    2    6   26     -0.31      0.00
    4    6   26     -0.20      0.00
    6    6   26     -0.35      0.00
    8    6   26      0.11      0.00
  -19    7   26     -0.01      0.00
  -17    7   26     -0.13      0.00
  -15    7   26     -0.17      0.00
  -13    7   26     -0.78      0.00
    1    7   26      0.71      0.00
    3    7   26     -0.08      0.00
    5    7   26     -0.04      0.00
    7    7   26      0.27      0.00
  -18    8   26     -0.51      0.00
  -16    8   26      0.14      0.00
  -14    8   26     -0.03      0.00
  -12    8   26      0.32      0.00
  -10    8   26      1.28      0.00
   -2    8   26     -0.12      0.00
    0    8   26     -0.02      0.00
    2    8   26     -0.28      0.00
    4    8   26      0.18      0.00
    6    8   26     -0.33      0.00
  -17    9   26      0.57      0.00
  -15    9   26     -0.22      0.00
  -13    9   26     -0.68      0.00
  -11    9   26     -0.37      0.00
   -9    9   26      0.14      0.00
   -7    9   26     -0.77      0.00
   -5    9   26      0.45      0.00
   -3    9   26      0.11      0.00
   -1    9   26      0.62      0.00
    1    9   26      0.57      0.00
    3    9   26      0.00      0.00
    5    9   26      0.21      0.00
  -16   10   26      0.01      0.00
  -14   10   26      0.08      0.00
  -12   10   26      0.06      0.00
  -10   10   26      0.84      0.00
   -8   10   26     -0.12      0.00
   -6   10   26      0.34      0.00
   -4   10   26      0.36      0.00
   -2   10   26     -0.07      0.00
    0   10   26      0.04      0.00
    2   10   26      0.00      0.00
  -13   11   26     -0.36      0.00
  -11   11   26     -0.03      0.00
   -9   11   26     -0.45      0.00
   -7   11   26      0.20      0.00
   -5   11   26      0.28      0.00
   -3   11   26      0.00      0.00
   -1   11   26      0.23      0.00
    1   11   26      0.45      0.00
  -10   12   26     -0.10      0.00
   -8   12   26      0.01      0.00
   -6   12   26      0.45      0.00
   -4   12   26     -0.02      0.00
   -2   12   26     -0.13      0.00
  -20    0   27     -1.38      0.00
  -18    0   27     -0.96      0.00
  -16    0   27      0.86      0.00
    2    0   27      0.50      0.00
    4    0   27     -0.74      0.00
    6    0   27     -0.29      0.00
    8    0   27     -0.43      0.00
  -21    1   27     -0.02      0.00
  -19    1   27      0.08      0.00
  -17    1   27      0.55      0.00
  -15    1   27      0.16      0.00
    3    1   27      0.08      0.00
    5    1   27     -0.22      0.00
    7    1   27     -0.32      0.00
  -20    2   27     -0.86      0.00
  -18    2   27     -0.61      0.00
  -16    2   27      0.59      0.00
    2    2   27      0.07      0.00
    4    2   27     -0.08      0.00
    6    2   27     -0.48      0.00
    8    2   27     -0.20      0.00
  -21    3   27      0.38      0.00
  -19    3   27      0.57      0.00
  -17    3   27      0.68      0.00
  -15    3   27     -0.42      0.00
    1    3   27      0.45      0.00
    3    3   27      0.02      0.00
    5    3   27      0.12      0.00
    7    3   27     -0.24      0.00
  -20    4   27     -0.19      0.00
  -18    4   27      0.14      0.00
  -16    4   27      0.18      0.00
  -14    4   27      0.35      0.00
    0    4   27     -1.03      0.00
    2    4   27      0.27      0.00
    4    4   27     -0.04      0.00
    6    4   27     -0.13      0.00
  -19    5   27      1.01      0.00
  -17    5   27      0.51      0.00
  -15    5   27     -0.45      0.00
  -13    5   27     -0.25      0.00
   -1    5   27      0.03      0.00
    1    5   27      0.43      0.00
    3    5   27      0.00      0.00
    5    5   27      0.19      0.00
  -18    6   27      0.10      0.00
  -16    6   27     -0.04      0.00
  -14    6   27      0.00      0.00
  -12    6   27      0.56      0.00
  -10    6   27      0.04      0.00
   -4    6   27     -1.00      0.00
   -2    6   27     -0.66      0.00
    0    6   27     -0.35      0.00
    2    6   27     -0.06      0.00
    4    6   27      0.36      0.00
    6    6   27     -0.22      0.00
  -17    7   27      0.42      0.00
  -15    7   27     -0.46      0.00
  -13    7   27      0.04      0.00
  -11    7   27     -1.05      0.00
   -9    7   27     -0.27      0.00
   -7    7   27      0.80      0.00
   -5    7   27     -0.63      0.00
   -3    7   27     -0.47      0.00
   -1    7   27      0.31      0.00
    1    7   27      0.26      0.00
    3    7   27     -0.15      0.00
    5    7   27      0.38      0.00
  -16    8   27     -0.28      0.00
  -14    8   27      0.45      0.00
  -12    8   27      0.18      0.00
  -10    8   27     -0.06      0.00
   -8    8   27      0.73      0.00
   -6    8   27      0.21      0.00
   -4    8   27     -0.65      0.00
   -2    8   27     -0.21      0.00
    0    8   27     -0.51      0.00
    2    8   27      0.15      0.00
  -15    9   27      0.14      0.00
  -13    9   27     -0.05      0.00
  -11    9   27     -0.54      0.00
   -9    9   27     -0.31      0.00
   -7    9   27      0.26      0.00
   -5    9   27     -0.90      0.00
   -3    9   27      0.04      0.00
   -1    9   27     -0.22      0.00
    1    9   27      0.14      0.00
  -12   10   27      0.05      0.00
  -10   10   27     -0.02      0.00
   -8   10   27      0.39      0.00
   -6   10   27     -0.47      0.00
   -4   10   27     -0.16      0.00
   -2   10   27     -0.26      0.00
    0   10   27     -0.24      0.00
   -9   11   27      0.22      0.00
   -7   11   27     -0.64      0.00
   -5   11   27     -0.27      0.00
  -18    0   28     -0.54      0.00
  -16    0   28     -0.54      0.00
  -14    0   28     -0.50      0.00
  -12    0   28     -0.46      0.00
  -10    0   28      1.13      0.00
   -2    0   28     -0.40      0.00
    0    0   28      0.24      0.00
    2    0   28     -0.27      0.00
    4    0   28      0.65      0.00
    6    0   28      0.30      0.00
  -19    1   28      0.74      0.00
  -17    1   28     -0.51      0.00
  -15    1   28     -1.23      0.00
  -13    1   28     -0.50      0.00
  -11    1   28     -0.32      0.00
   -3    1   28     -0.24      0.00
   -1    1   28      0.90      0.00
    1    1   28      0.09      0.00
    3    1   28     -0.07      0.00
    5    1   28      0.51      0.00
  -18    2   28     -0.45      0.00
  -16    2   28     -0.14      0.00
  -14    2   28     -0.21      0.00
  -12    2   28     -0.08      0.00
  -10    2   28      0.77      0.00
   -4    2   28     -0.59      0.00
   -2    2   28     -0.23      0.00
    0    2   28     -0.35      0.00
    2    2   28      0.11      0.00
    4    2   28      0.22      0.00
  -19    3   28      0.18      0.00
  -17    3   28     -0.17      0.00
  -15    3   28     -0.29      0.00
  -13    3   28     -0.42      0.00
  -11    3   28     -0.40      0.00
   -9    3   28     -0.62      0.00
   -7    3   28     -0.30      0.00
   -5    3   28      0.57      0.00
   -3    3   28      0.30      0.00
   -1    3   28      0.57      0.00
    1    3   28      0.07      0.00
    3    3   28     -0.22      0.00
    5    3   28      0.22      0.00
  -18    4   28     -0.54      0.00
  -16    4   28      0.30      0.00
  -14    4   28      0.09      0.00
  -12    4   28     -0.03      0.00
  -10    4   28      0.57      0.00
   -8    4   28     -0.46      0.00
   -6    4   28      0.30      0.00
   -4    4   28      0.61      0.00
   -2    4   28     -0.29      0.00
    0    4   28     -0.17      0.00
    2    4   28     -0.06      0.00
    4    4   28      0.13      0.00
  -17    5   28      0.29      0.00
  -15    5   28      0.08      0.00
  -13    5   28     -0.26      0.00
  -11    5   28     -0.46      0.00
   -9    5   28     -0.56      0.00
   -7    5   28     -0.68      0.00
   -5    5   28      1.02      0.00
   -3    5   28      0.62      0.00
   -1    5   28      0.33      0.00
    1    5   28      0.10      0.00
    3    5   28     -0.45      0.00
  -16    6   28      0.32      0.00
  -14    6   28      0.24      0.00
  -12    6   28      0.25      0.00
  -10    6   28      0.66      0.00
   -8    6   28     -0.69      0.00
   -6    6   28      0.51      0.00
   -4    6   28      0.63      0.00
   -2    6   28     -0.13      0.00
    0    6   28     -0.49      0.00
    2    6   28      0.29      0.00
  -15    7   28      0.26      0.00
  -13    7   28     -0.33      0.00
  -11    7   28      0.20      0.00
   -9    7   28     -0.66      0.00
   -7    7   28     -0.43      0.00
   -5    7   28      0.52      0.00
   -3    7   28      0.47      0.00
   -1    7   28      0.01      0.00
    1    7   28      0.04      0.00
  -12    8   28      0.42      0.00
  -10    8   28      0.42      0.00
   -8    8   28     -0.25      0.00
   -6    8   28      0.53      0.00
   -4    8   28      0.44      0.00
   -2    8   28     -0.09      0.00
    0    8   28     -0.02      0.00
  -11    9   28     -0.05      0.00
   -9    9   28     -0.25      0.00
   -7    9   28     -0.18      0.00
   -5    9   28      0.65      0.00
   -3    9   28      0.04      0.00
    0    0    0      0.00      0.00
# SQUEEZE RESULTS
# Note: Data are Listed for all Voids in the P1 Unit Cell
# i.e. Centre of Gravity, Solvent Accessible Volume,
# Recovered number of Electrons in the Void and
# Details about the Squeezed Material
loop_
  _platon_squeeze_void_nr
  _platon_squeeze_void_average_x
  _platon_squeeze_void_average_y
  _platon_squeeze_void_average_z
  _platon_squeeze_void_volume
  _platon_squeeze_void_count_electrons
  _platon_squeeze_void_content
   1  0.500  0.000  0.000       223        27 ' '
   2  1.000  0.000  0.500       470        47 ' '
   3  0.250  0.250  0.500        11         1 ' '
   4  0.750  0.250  0.500        11         1 ' '
   5  0.500  0.500  0.500       470        47 ' '
   6  0.000  0.500  0.000       223        27 ' '
   7  0.250  0.750  0.500        11         1 ' '
   8  0.750  0.750  0.500        11         1 ' '
_platon_squeeze_details
(replace by semicolon in column 1 when used as .sqf)
TITL 11 in C2/m
CELL   24.6340   17.7440   23.3280     90.00    103.22     90.00
SPGR C2/m
# Solvent Accessible Volume =    1435.4
# Electrons Found in S.A.V. =     148.9
# Note: Atoms in Void as Cxxx and Qxxx all others
C101 1.000 0.500 0.000 !       4.23 eA-3
C102 0.015 0.503 0.953 !       3.40 eA-3
C103 0.031 0.499 0.094 !       2.65 eA-3
C104 0.906 0.502 0.969 !       2.32 eA-3
C105 0.913 0.503 0.914 !       2.31 eA-3
C106 0.625 0.438 0.603 !       2.20 eA-3
Q107 0.116 0.504 0.578 !       1.81 eA-3
Q108 0.681 0.251 0.782 !       1.59 eA-3
Q109 0.686 0.230 0.804 !       1.59 eA-3
Q110 0.210 0.501 0.734 !       1.57 eA-3
Q111 0.343 0.096 0.273 !       1.53 eA-3
Q112 0.296 0.500 0.719 !       1.48 eA-3
Q113 0.934 0.505 0.359 !       1.46 eA-3
Q114 0.759 0.432 0.447 !       1.41 eA-3
Q115 0.155 0.095 0.347 !       1.38 eA-3
Q116 0.741 0.264 0.210 !       1.34 eA-3
C117 0.336 0.501 0.359 !       1.32 eA-3
Q118 0.043 0.497 0.711 !       1.32 eA-3
Q119 0.623 0.128 0.593 !       1.31 eA-3
Q120 0.194 0.278 0.636 !       1.30 eA-3
Q121 0.181 0.045 0.396 !       1.27 eA-3
Q122 0.655 0.238 0.770 !       1.27 eA-3
Q123 0.354 0.503 0.836 !       1.21 eA-3
Q124 0.235 0.248 0.690 !       1.20 eA-3
C125 0.172 0.078 0.605 !       1.20 eA-3
Q126 0.779 0.504 0.453 !       1.14 eA-3
Q127 0.203 0.390 0.692 !       1.13 eA-3
Q128 0.298 0.498 0.586 !       1.12 eA-3
Q129 0.671 0.315 0.258 !       1.11 eA-3
Q130 0.789 0.077 0.587 !       1.08 eA-3
Q131 0.602 0.204 0.720 !       1.08 eA-3
Q132 0.422 0.095 0.370 !       1.06 eA-3
Q133 0.093 0.358 0.813 !       1.05 eA-3
Q134 0.618 0.506 0.250 !       1.04 eA-3
C135 0.696 0.495 0.578 !       1.01 eA-3
Q136 0.182 0.392 0.560 !       1.01 eA-3
Q137 0.869 0.407 0.416 !       1.00 eA-3
Q138 0.273 0.506 0.219 !       0.99 eA-3
C139 0.587 0.497 0.610 !       0.97 eA-3
Q140 0.835 0.468 0.446 !       0.96 eA-3
Q141 0.859 0.074 0.819 !       0.96 eA-3
Q142 0.039 0.435 0.717 !       0.95 eA-3
Q143 0.433 0.143 0.259 !       0.94 eA-3
Q144 0.173 0.495 0.914 !       0.94 eA-3
Q145 0.844 0.063 0.142 !       0.92 eA-3
Q146 0.071 0.363 0.680 !       0.92 eA-3
Q147 0.203 0.327 0.596 !       0.92 eA-3
Q148 0.314 0.359 0.849 !       0.91 eA-3
Q149 0.881 0.508 0.125 !       0.91 eA-3
Q150 0.815 0.203 0.776 !       0.90 eA-3
Q151 0.781 0.249 0.243 !       0.89 eA-3
Q152 0.765 0.174 0.619 !       0.89 eA-3
Q153 0.767 0.478 0.343 !       0.89 eA-3
Q154 0.626 0.425 0.239 !       0.89 eA-3
Q155 0.720 0.281 0.324 !       0.87 eA-3
Q156 0.134 0.278 0.790 !       0.86 eA-3
Q157 0.483 0.205 0.139 !       0.85 eA-3
Q158 0.799 0.470 0.077 !       0.84 eA-3
Q159 0.845 0.373 0.122 !       0.83 eA-3
Q160 0.260 0.439 0.238 !       0.83 eA-3
Q161 0.107 0.172 0.972 !       0.82 eA-3
Q162 0.133 0.302 0.647 !       0.82 eA-3
Q163 0.283 0.438 0.736 !       0.81 eA-3
Q164 0.976 0.507 0.469 !       0.81 eA-3
Q165 0.188 0.137 0.366 !       0.81 eA-3
Q166 0.273 0.475 0.693 !       0.80 eA-3
Q167 0.663 0.110 0.896 !       0.79 eA-3
Q168 0.603 0.109 0.840 !       0.79 eA-3
Q169 0.488 0.506 0.930 !       0.78 eA-3
Q170 0.510 0.325 0.823 !       0.77 eA-3
Q171 0.131 0.280 0.671 !       0.77 eA-3
Q172 0.563 0.505 0.016 !       0.76 eA-3
Q173 0.736 0.423 0.937 !       0.76 eA-3
Q174 0.289 0.127 0.230 !       0.75 eA-3
Q175 0.016 0.137 0.291 !       0.72 eA-3
Q176 0.921 0.140 0.223 !       0.72 eA-3
Q177 0.789 0.356 0.268 !       0.71 eA-3
Q178 0.867 0.143 0.105 !       0.71 eA-3
Q179 0.393 0.184 0.205 !       0.71 eA-3
Q180 0.500 0.234 0.506 !       0.70 eA-3
Q181 0.768 0.292 0.150 !       0.70 eA-3
Q182 0.050 0.455 0.781 !       0.70 eA-3
Q183 0.915 0.207 0.605 !       0.70 eA-3
Q184 0.681 0.506 0.109 !       0.70 eA-3
Q185 0.257 0.408 0.775 !       0.69 eA-3
Q186 0.283 0.473 0.905 !       0.68 eA-3
Q187 0.313 0.106 0.240 !       0.68 eA-3
Q188 0.258 0.079 0.201 !       0.68 eA-3
Q189 0.566 0.494 0.109 !       0.67 eA-3
Q190 0.949 0.434 0.238 !       0.67 eA-3
Q191 0.586 0.174 0.182 !       0.66 eA-3
Q192 0.280 0.092 0.184 !       0.66 eA-3
Q193 0.872 0.505 0.235 !       0.66 eA-3
Q194 0.313 0.423 0.872 !       0.65 eA-3
Q195 0.626 0.052 0.739 !       0.64 eA-3
Q196 0.438 0.157 0.971 !       0.64 eA-3
Q197 0.627 0.207 0.352 !       0.64 eA-3
Q198 0.792 0.441 0.809 !       0.64 eA-3
C199 0.547 0.503 0.508 !       0.63 eA-3
(replace by semicolon in column 1 when used as .sqf)
;
_shelx_fab_checksum              91297
loop_
_space_group_symop_operation_xyz
'x, y, z'
'-x, y, -z'
'x+1/2, y+1/2, z'
'-x+1/2, y+1/2, -z'
'-x, -y, -z'
'x, -y, z'
'-x+1/2, -y+1/2, -z'
'x+1/2, -y+1/2, z'
loop_
_atom_site_label
_atom_site_type_symbol
_atom_site_fract_x
_atom_site_fract_y
_atom_site_fract_z
_atom_site_U_iso_or_equiv
_atom_site_adp_type
_atom_site_occupancy
_atom_site_site_symmetry_order
_atom_site_calc_flag
_atom_site_refinement_flags_posn
_atom_site_refinement_flags_adp
_atom_site_refinement_flags_occupancy
_atom_site_disorder_assembly
_atom_site_disorder_group
Lu1 Lu 0.7488(3) 0.5472(4) 0.3329(3) 0.1041(17) Uani 0.1611 1 d . U P A 1
N1 N 0.7875(4) 0.5000 0.2666(5) 0.0344(9) Uani 1 2 d S T P A 1
Lu2 Lu 0.74962(15) 0.3777(2) 0.2456(2) 0.0973(12) Uani 0.2322 1 d . U P A 1
Lu3 Lu 0.7110(3) 0.5000 0.2927(3) 0.122(2) Uani 0.2124 2 d S TU P A 1
Lu4 Lu 0.7696(3) 0.5000 0.3518(3) 0.150(2) Uani 0.2933 2 d S TU P A 1
Lu5 Lu 0.7776(3) 0.4013(3) 0.2025(3) 0.182(2) Uani 0.2621 1 d . U P A 1
Lu6 Lu 0.8093(5) 0.3821(5) 0.3062(5) 0.144(3) Uani 0.1421 1 d . U P A 1
Lu7 Lu 0.7225(4) 0.4291(7) 0.2835(5) 0.141(3) Uani 0.1218 1 d . U P A 1
Lu8 Lu 0.7900(5) 0.5695(8) 0.3452(5) 0.121(3) Uani 0.1009 1 d . U P A 1
Lu9 Lu 0.8407(6) 0.3960(8) 0.2777(7) 0.170(5) Uani 0.1155 1 d . U P A 1
Lu10 Lu 0.8134(8) 0.4556(10) 0.1856(8) 0.226(5) Uani 0.1113 1 d . U P A 1
C1 C 0.6631(2) 0.3624(4) 0.1714(3) 0.102(8) Uani 0.5 1 d G U P A -1
C2 C 0.63833(19) 0.3912(4) 0.2192(3) 0.098(7) Uani 0.5 1 d G U P A -1
C3 C 0.6559(2) 0.3409(4) 0.2699(3) 0.100(7) Uani 0.5 1 d G U P A -1
C4 C 0.6948(3) 0.2842(4) 0.2541(3) 0.117(8) Uani 0.5 1 d G U P A -1
C5 C 0.7028(3) 0.3013(3) 0.1943(3) 0.114(8) Uani 0.5 1 d G U P A -1
C6 C 0.7548(3) 0.2869(3) 0.1695(3) 0.116(8) Uani 0.5 1 d G U P A -1
C7 C 0.7685(3) 0.3349(4) 0.1214(2) 0.110(7) Uani 0.5 1 d G U P A -1
C8 C 0.7208(3) 0.3951(4) 0.10919(19) 0.097(7) Uani 0.5 1 d G U P A -1
C9 C 0.6772(2) 0.4220(4) 0.1332(2) 0.096(7) Uani 0.5 1 d G U P A -1
C10 C 0.66222(19) 0.5038(4) 0.1398(2) 0.072(5) Uani 0.5 1 d G U P A -1
C11 C 0.63933(14) 0.5213(4) 0.1823(3) 0.079(6) Uani 0.5 1 d G U P A -1
C12 C 0.62584(14) 0.4660(4) 0.2323(3) 0.086(6) Uani 0.5 1 d G U P A -1
C13 C 0.62329(16) 0.4885(5) 0.2869(3) 0.089(6) Uani 0.5 1 d G U P A -1
C14 C 0.6443(2) 0.4402(5) 0.3355(3) 0.097(7) Uani 0.5 1 d G U P A -1
C15 C 0.6604(2) 0.3757(5) 0.3318(3) 0.089(6) Uani 0.5 1 d G U P A -1
C16 C 0.7095(3) 0.3394(5) 0.3750(3) 0.088(6) Uani 0.5 1 d G U P A -1
C17 C 0.7458(3) 0.2795(4) 0.3589(3) 0.115(7) Uani 0.5 1 d G U P A -1
C18 C 0.7525(3) 0.2655(3) 0.2964(3) 0.111(7) Uani 0.5 1 d G U P A -1
C19 C 0.7999(4) 0.2428(3) 0.2695(4) 0.110(7) Uani 0.5 1 d G U P A -1
C20 C 0.8100(4) 0.2648(3) 0.2093(3) 0.116(8) Uani 0.5 1 d G U P A -1
C21 C 0.8564(3) 0.2979(4) 0.1848(3) 0.106(7) Uani 0.5 1 d G U P A -1
C22 C 0.8312(3) 0.3415(4) 0.1314(3) 0.102(7) Uani 0.5 1 d G U P A -1
C23 C 0.8633(3) 0.4039(4) 0.1221(3) 0.103(7) Uani 0.5 1 d G U P A -1
C24 C 0.8223(3) 0.4448(4) 0.09074(19) 0.101(7) Uani 0.5 1 d G U P A -1
C25 C 0.7580(3) 0.4417(4) 0.08352(15) 0.091(7) Uani 0.5 1 d G U P A -1
C26 C 0.7371(3) 0.5249(4) 0.08264(14) 0.075(6) Uani 0.5 1 d G U P A -1
C27 C 0.6929(2) 0.5414(4) 0.10764(18) 0.072(6) Uani 0.5 1 d G U P A -1
C28 C 0.6955(2) 0.6254(4) 0.1279(2) 0.065(5) Uani 0.5 1 d G U P A -1
C29 C 0.6707(2) 0.6441(4) 0.1770(3) 0.081(7) Uani 0.5 1 d G U P A -1
C30 C 0.64341(17) 0.5973(4) 0.2086(3) 0.096(7) Uani 0.5 1 d G U P A -1
C31 C 0.6410(2) 0.6152(4) 0.2670(3) 0.099(7) Uani 0.5 1 d G U P A -1
C32 C 0.6320(2) 0.5634(5) 0.3077(3) 0.103(7) Uani 0.5 1 d G U P A -1
C33 C 0.6605(3) 0.5607(5) 0.3670(3) 0.108(7) Uani 0.5 1 d G U P A -1
C34 C 0.6699(3) 0.4844(5) 0.3848(3) 0.105(7) Uani 0.5 1 d G U P A -1
C35 C 0.7075(3) 0.4614(5) 0.4158(2) 0.104(7) Uani 0.5 1 d G U P A -1
C36 C 0.7455(3) 0.3842(5) 0.4225(2) 0.096(6) Uani 0.5 1 d G U P A -1
C37 C 0.8046(3) 0.3622(5) 0.4261(2) 0.095(4) Uani 0.5 1 d G U P A -1
C38 C 0.8041(3) 0.3037(4) 0.3793(3) 0.095(4) Uani 0.5 1 d G U P A -1
C39 C 0.8572(3) 0.2962(4) 0.3604(3) 0.095(4) Uani 0.5 1 d G U P A -1
C40 C 0.8672(3) 0.2724(4) 0.3026(3) 0.095(4) Uani 0.5 1 d G U P A -1
C41 C 0.9136(3) 0.3173(4) 0.2901(3) 0.085(6) Uani 0.5 1 d G U P A -1
C42 C 0.9071(3) 0.3237(4) 0.2201(3) 0.099(7) Uani 0.5 1 d G U P A -1
C43 C 0.9323(2) 0.3936(5) 0.2148(3) 0.101(7) Uani 0.5 1 d G U P A -1
C44 C 0.9115(3) 0.4320(5) 0.1595(3) 0.094(6) Uani 0.5 1 d G U P A -1
C45 C 0.9221(2) 0.5120(5) 0.1691(3) 0.104(6) Uani 0.5 1 d G U P A -1
C46 C 0.8840(3) 0.5519(4) 0.1321(3) 0.094(6) Uani 0.5 1 d G U P A -1
C47 C 0.8417(3) 0.5280(4) 0.0960(2) 0.086(6) Uani 0.5 1 d G U P A -1
C48 C 0.7879(3) 0.5779(4) 0.08500(19) 0.074(6) Uani 0.5 1 d G U P A -1
C49 C 0.7935(3) 0.6502(4) 0.1108(3) 0.080(6) Uani 0.5 1 d G U P A -1
C50 C 0.7418(3) 0.6762(4) 0.1284(3) 0.063(5) Uani 0.5 1 d G U P A -1
C51 C 0.7428(3) 0.7264(3) 0.1785(3) 0.090(7) Uani 0.5 1 d G U P A -1
C52 C 0.6971(3) 0.7098(3) 0.2057(3) 0.094(7) Uani 0.5 1 d G U P A -1
C53 C 0.7027(3) 0.7184(4) 0.2656(3) 0.126(8) Uani 0.5 1 d G U P A -1
C54 C 0.6711(3) 0.6767(4) 0.2939(3) 0.120(8) Uani 0.5 1 d G U P A -1
C55 C 0.6967(3) 0.6740(4) 0.3519(3) 0.122(7) Uani 0.5 1 d G U P A -1
C56 C 0.7009(3) 0.6134(5) 0.3880(3) 0.115(7) Uani 0.5 1 d G U P A -1
C57 C 0.7428(3) 0.5665(5) 0.4331(2) 0.105(7) Uani 0.5 1 d G U P A -1
C58 C 0.7653(3) 0.4936(6) 0.44884(17) 0.121(6) Uani 0.5 1 d G U P A -1
C59 C 0.8227(3) 0.4951(6) 0.44776(14) 0.130(7) Uani 0.5 1 d G U P A -1
C60 C 0.8412(3) 0.4178(5) 0.43763(17) 0.122(7) Uani 0.5 1 d G U P A -1
C61 C 0.8839(2) 0.4294(5) 0.40563(19) 0.141(8) Uani 0.5 1 d G U P A -1
C62 C 0.8948(2) 0.3612(5) 0.3792(3) 0.109(7) Uani 0.5 1 d G U P A -1
C63 C 0.9294(2) 0.3741(5) 0.3360(3) 0.097(7) Uani 0.5 1 d G U P A -1
C64 C 0.95172(15) 0.4458(5) 0.3212(3) 0.120(7) Uani 0.5 1 d G U P A -1
C65 C 0.95338(16) 0.4499(5) 0.2596(3) 0.109(7) Uani 0.5 1 d G U P A -1
C66 C 0.95124(17) 0.5225(5) 0.2296(3) 0.110(7) Uani 0.5 1 d G U P A -1
C67 C 0.95098(16) 0.5882(5) 0.2686(3) 0.117(7) Uani 0.5 1 d G U P A -1
C68 C 0.9213(2) 0.6415(4) 0.2256(3) 0.112(7) Uani 0.5 1 d G U P A -1
C69 C 0.8933(3) 0.6290(4) 0.1640(3) 0.098(6) Uani 0.5 1 d G U P A -1
C70 C 0.8456(3) 0.6795(4) 0.1491(3) 0.098(7) Uani 0.5 1 d G U P A -1
C71 C 0.8447(3) 0.7254(3) 0.2011(3) 0.107(7) Uani 0.5 1 d G U P A -1
C72 C 0.7935(3) 0.7488(3) 0.2191(4) 0.114(7) Uani 0.5 1 d G U P A -1
C73 C 0.7912(3) 0.7473(3) 0.2815(4) 0.127(8) Uani 0.5 1 d G U P A -1
C74 C 0.7447(3) 0.7460(4) 0.3084(4) 0.129(8) Uani 0.5 1 d G U P A -1
C75 C 0.7486(3) 0.6967(4) 0.3550(3) 0.132(7) Uani 0.5 1 d G U P A -1
C76 C 0.7953(4) 0.6886(5) 0.4024(3) 0.131(6) Uani 0.5 1 d G U P A -1
C77 C 0.7863(3) 0.6129(5) 0.4224(2) 0.131(6) Uani 0.5 1 d G U P A -1
C78 C 0.8357(3) 0.5688(5) 0.43140(17) 0.140(6) Uani 0.5 1 d DG U P A -1
C79 C 0.8845(3) 0.5643(5) 0.4188(2) 0.142(6) Uani 0.5 1 d G U P A -1
C80 C 0.9100(2) 0.5030(5) 0.3988(2) 0.134(6) Uani 0.5 1 d G U P A -1
C81 C 0.93613(15) 0.5117(5) 0.3524(3) 0.136(7) Uani 0.5 1 d G U P A -1
C82 C 0.93674(17) 0.5818(5) 0.3259(3) 0.142(8) Uani 0.5 1 d G U P A -1
C83 C 0.9112(2) 0.6432(5) 0.3459(3) 0.148(9) Uani 0.5 1 d G U P A -1
C84 C 0.8919(3) 0.7060(4) 0.3088(3) 0.136(8) Uani 0.5 1 d G U P A -1
C85 C 0.8917(3) 0.7019(4) 0.2477(4) 0.127(8) Uani 0.5 1 d G U P A -1
C86 C 0.8425(3) 0.7299(4) 0.3262(3) 0.128(8) Uani 0.5 1 d G U P A -1
C87 C 0.8455(3) 0.6947(5) 0.3815(3) 0.131(8) Uani 0.5 1 d G U P A -1
C88 C 0.8851(3) 0.6344(5) 0.3924(3) 0.131(8) Uani 0.5 1 d DG U P A -1
Ni1A Ni 0.54414(5) 0.5000 0.07083(6) 0.0187(3) Uani 1 2 d S T P B 2
C1A C 0.7126(4) 0.3797(6) -0.0688(5) 0.043(2) Uani 1 1 d . . . B 2
H1AA H 0.7266 0.3447 -0.0933 0.064 Uiso 1 1 calc R U . B 2
H1AB H 0.7091 0.3549 -0.0332 0.064 Uiso 1 1 calc R U . B 2
H1AC H 0.7381 0.4213 -0.0592 0.064 Uiso 1 1 calc R U . B 2
N2A N 0.5455(3) 0.3898(4) 0.0718(3) 0.0344(9) Uani 1 1 d . . . B 2
C2A C 0.6554(3) 0.4090(5) -0.1017(4) 0.0285(18) Uani 1 1 d . . . B 2
H2AA H 0.6594 0.4349 -0.1371 0.034 Uiso 1 1 calc R U . B 2
H2AB H 0.6306 0.3665 -0.1136 0.034 Uiso 1 1 calc R U . B 2
Ni2A Ni 1.0000 0.5000 0.5000 0.0313(5) Uani 1 4 d S T P C 2
N3A N 0.5065(4) 0.5000 0.1367(5) 0.0344(9) Uani 1 2 d S T P B 2
C3A C 0.6296(3) 0.4618(4) -0.0650(3) 0.0223(16) Uani 1 1 d . . . B 2
C4A C 0.6007(3) 0.4390(4) -0.0210(3) 0.0199(15) Uani 1 1 d . . . B 2
N4A N 1.0352(3) 0.4217(4) 0.4619(3) 0.0344(9) Uani 1 1 d . . . C 2
C5A C 0.5922(3) 0.3649(5) -0.0074(4) 0.0240(16) Uani 1 1 d . . . B 2
H5A H 0.6044 0.3277 -0.0296 0.029 Uiso 1 1 calc R U . B 2
C6A C 0.5674(3) 0.3423(4) 0.0362(4) 0.0222(16) Uani 1 1 d . . . B 2
C7A C 0.5609(3) 0.2638(4) 0.0513(4) 0.0281(18) Uani 1 1 d . . . B 2
C8A C 0.5807(4) 0.1984(5) 0.0206(5) 0.035(2) Uani 1 1 d . . . B 2
H8AA H 0.5733 0.2086 -0.0213 0.042 Uiso 1 1 calc R U . B 2
H8AB H 0.5601 0.1536 0.0263 0.042 Uiso 1 1 calc R U . B 2
C9A C 0.6435(4) 0.1838(6) 0.0439(5) 0.054(3) Uani 1 1 d . . . B 2
H9AA H 0.6549 0.1428 0.0225 0.081 Uiso 1 1 calc R U . B 2
H9AB H 0.6507 0.1712 0.0850 0.081 Uiso 1 1 calc R U . B 2
H9AC H 0.6640 0.2283 0.0388 0.081 Uiso 1 1 calc R U . B 2
C10A C 0.5353(3) 0.2644(5) 0.0963(4) 0.0308(19) Uani 1 1 d . . . B 2
C11A C 0.5191(4) 0.1985(5) 0.1297(5) 0.039(2) Uani 1 1 d . . . B 2
H11A H 0.5164 0.1536 0.1054 0.047 Uiso 1 1 calc R U . B 2
H11B H 0.4826 0.2079 0.1373 0.047 Uiso 1 1 calc R U . B 2
C12A C 0.5607(5) 0.1841(7) 0.1883(5) 0.061(3) Uani 1 1 d . . . B 2
H12A H 0.5970 0.1747 0.1811 0.092 Uiso 1 1 calc R U . B 2
H12B H 0.5490 0.1410 0.2072 0.092 Uiso 1 1 calc R U . B 2
H12C H 0.5623 0.2274 0.2132 0.092 Uiso 1 1 calc R U . B 2
C13A C 0.5253(3) 0.3422(4) 0.1088(3) 0.0221(16) Uani 1 1 d . . . B 2
C14A C 0.4990(3) 0.3650(5) 0.1516(4) 0.0274(18) Uani 1 1 d . . . B 2
H14A H 0.4864 0.3278 0.1734 0.033 Uiso 1 1 calc R U . B 2
C15A C 0.4899(3) 0.4386(5) 0.1645(3) 0.0238(16) Uani 1 1 d . . . B 2
C16A C 0.4632(3) 0.4624(5) 0.2106(4) 0.0304(18) Uani 1 1 d . . . B 2
C17A C 0.4425(4) 0.4089(6) 0.2511(4) 0.038(2) Uani 1 1 d . . . B 2
H17A H 0.4225 0.3680 0.2278 0.045 Uiso 1 1 calc R U . B 2
H17B H 0.4162 0.4354 0.2691 0.045 Uiso 1 1 calc R U . B 2
C18A C 0.4883(5) 0.3756(7) 0.2994(4) 0.054(3) Uani 1 1 d . . . B 2
H18A H 0.5148 0.3498 0.2820 0.082 Uiso 1 1 calc R U . B 2
H18B H 0.4722 0.3407 0.3223 0.082 Uiso 1 1 calc R U . B 2
H18C H 0.5067 0.4153 0.3244 0.082 Uiso 1 1 calc R U . B 2
C19A C 1.0000 0.3080(7) 0.5000 0.039(3) Uani 1 2 d S T P C 2
H19A H 1.0000 0.2555 0.5000 0.047 Uiso 1 2 calc R U P C 2
C20A C 1.0314(4) 0.3442(5) 0.4669(4) 0.037(2) Uani 1 1 d . . . C 2
C21A C 1.0647(4) 0.3060(5) 0.4327(4) 0.041(2) Uani 1 1 d . . . C 2
C22A C 1.0728(5) 0.2223(6) 0.4306(5) 0.053(3) Uani 1 1 d . . . C 2
H22A H 1.0817 0.2091 0.3934 0.063 Uiso 1 1 calc R U . C 2
H22B H 1.0382 0.1972 0.4323 0.063 Uiso 1 1 calc R U . C 2
C23A C 1.1189(6) 0.1940(7) 0.4807(6) 0.073(4) Uani 1 1 d . . . C 2
H23A H 1.1245 0.1411 0.4757 0.109 Uiso 1 1 calc R U . C 2
H23B H 1.1085 0.2023 0.5174 0.109 Uiso 1 1 calc R U . C 2
H23C H 1.1527 0.2207 0.4806 0.109 Uiso 1 1 calc R U . C 2
C24A C 1.0886(5) 0.3599(6) 0.4058(5) 0.048(3) Uani 1 1 d . . . C 2
C25A C 1.1297(6) 0.3520(7) 0.3672(5) 0.064(3) Uani 1 1 d . . . C 2
H25A H 1.1277 0.3010 0.3519 0.077 Uiso 1 1 calc R U . C 2
H25B H 1.1191 0.3861 0.3341 0.077 Uiso 1 1 calc R U . C 2
C26A C 1.1879(6) 0.3682(8) 0.3983(7) 0.076(4) Uani 1 1 d . . . C 2
H26A H 1.2118 0.3637 0.3713 0.114 Uiso 1 1 calc R U . C 2
H26B H 1.1994 0.3329 0.4300 0.114 Uiso 1 1 calc R U . C 2
H26C H 1.1902 0.4185 0.4139 0.114 Uiso 1 1 calc R U . C 2
C27A C 1.0701(4) 0.4312(5) 0.4239(4) 0.042(2) Uani 1 1 d . . . C 2
C28A C 1.0860(7) 0.5000 0.4056(6) 0.044(3) Uani 1 2 d S T P C 2
H28A H 1.1089 0.5000 0.3790 0.053 Uiso 1 2 calc R U P C 2
N1A N 0.5833(4) 0.5000 0.0057(5) 0.0344(9) Uani 1 2 d S T P B 2
C1D C 0.732(3) 0.0000 0.182(3) 0.31(5) Uani 1 2 d S T P D 3
H1D H 0.7409 0.0000 0.1451 0.376 Uiso 1 2 calc R U P D 3
C4D C 0.6745(17) 0.0000 0.2555(19) 0.163(18) Uani 1 2 d S T P D 3
H4D H 0.6492 0.0000 0.2796 0.195 Uiso 1 2 calc R U P D 3
C2D C 0.7261(14) 0.0606(12) 0.2046(14) 0.193(16) Uani 1 1 d . . . D 3
H2D H 0.7456 0.1031 0.1975 0.232 Uiso 1 1 calc R U . D 3
C3D C 0.6922(9) 0.0633(10) 0.2387(8) 0.110(7) Uani 1 1 d . . . D 3
H3D H 0.6806 0.1092 0.2511 0.132 Uiso 1 1 calc R U . D 3
loop_
_atom_site_aniso_label
_atom_site_aniso_U_11
_atom_site_aniso_U_22
_atom_site_aniso_U_33
_atom_site_aniso_U_23
_atom_site_aniso_U_13
_atom_site_aniso_U_12
Lu1 0.120(4) 0.117(4) 0.097(4) -0.017(3) 0.070(4) 0.029(3)
N1 0.028(2) 0.032(2) 0.039(2) 0.000 -0.0017(17) 0.000
Lu2 0.082(2) 0.0671(18) 0.127(3) -0.0102(19) -0.0099(19) -0.0305(16)
Lu3 0.071(3) 0.180(6) 0.123(4) 0.000 0.036(3) 0.000
Lu4 0.148(5) 0.205(6) 0.110(4) 0.000 0.057(3) 0.000
Lu5 0.176(5) 0.139(4) 0.192(5) -0.093(4) -0.042(4) -0.003(3)
Lu6 0.153(7) 0.089(4) 0.156(7) 0.028(4) -0.033(5) 0.010(5)
Lu7 0.094(4) 0.154(6) 0.162(6) -0.009(5) 0.004(4) -0.038(5)
Lu8 0.122(6) 0.136(7) 0.115(5) -0.016(5) 0.047(5) -0.009(5)
Lu9 0.155(9) 0.127(7) 0.201(10) 0.008(7) -0.015(7) 0.052(7)
Lu10 0.228(10) 0.183(9) 0.241(9) -0.062(8) 0.002(9) -0.022(8)
C1 0.090(13) 0.092(13) 0.095(13) -0.001(12) -0.035(12) -0.045(12)
C2 0.062(11) 0.096(12) 0.114(13) 0.009(12) -0.025(11) -0.058(11)
C3 0.090(12) 0.096(13) 0.099(12) 0.032(11) -0.009(11) -0.069(11)
C4 0.132(14) 0.084(13) 0.116(13) 0.020(12) -0.014(13) -0.062(12)
C5 0.132(14) 0.077(13) 0.110(14) -0.010(12) -0.019(13) -0.049(12)
C6 0.147(15) 0.064(12) 0.113(14) -0.044(12) -0.017(13) -0.014(13)
C7 0.141(14) 0.092(13) 0.086(12) -0.057(11) 0.004(13) 0.004(13)
C8 0.116(14) 0.103(13) 0.057(11) -0.036(11) -0.012(11) -0.013(12)
C9 0.086(12) 0.096(13) 0.080(12) -0.012(11) -0.036(11) -0.018(12)
C10 0.045(8) 0.082(10) 0.066(9) -0.002(13) -0.032(7) -0.008(13)
C11 0.028(8) 0.102(13) 0.093(12) 0.011(11) -0.017(8) -0.005(9)
C12 0.021(8) 0.112(13) 0.112(12) 0.010(11) -0.011(9) -0.020(9)
C13 0.031(7) 0.121(14) 0.117(12) 0.001(13) 0.019(9) -0.014(11)
C14 0.056(11) 0.143(14) 0.098(13) 0.008(13) 0.029(11) -0.029(12)
C15 0.074(11) 0.102(13) 0.096(12) 0.027(11) 0.030(10) -0.053(11)
C16 0.106(12) 0.085(12) 0.077(11) 0.038(10) 0.031(10) -0.048(11)
C17 0.146(13) 0.079(12) 0.105(12) 0.054(11) -0.002(12) -0.032(11)
C18 0.152(14) 0.056(11) 0.108(13) 0.039(11) -0.006(12) -0.057(11)
C19 0.168(14) 0.038(11) 0.101(12) 0.007(11) -0.018(12) 0.007(12)
C20 0.163(15) 0.054(12) 0.120(14) -0.029(12) 0.006(13) 0.013(12)
C21 0.129(14) 0.076(13) 0.108(13) -0.035(12) 0.018(12) 0.039(12)
C22 0.131(14) 0.092(13) 0.082(12) -0.051(11) 0.023(12) 0.040(12)
C23 0.125(14) 0.121(14) 0.076(12) -0.027(11) 0.047(11) 0.047(12)
C24 0.119(14) 0.139(14) 0.049(10) -0.019(11) 0.029(11) 0.025(13)
C25 0.112(14) 0.123(14) 0.029(9) -0.017(10) -0.002(10) 0.003(12)
C26 0.080(11) 0.109(14) 0.023(7) 0.005(9) -0.017(8) 0.001(10)
C27 0.058(10) 0.087(12) 0.051(10) -0.003(10) -0.026(9) 0.004(10)
C28 0.052(10) 0.067(11) 0.061(10) 0.024(10) -0.020(9) 0.014(9)
C29 0.062(11) 0.071(12) 0.092(13) 0.009(11) -0.019(11) 0.027(11)
C30 0.047(11) 0.100(13) 0.122(13) 0.014(12) -0.017(11) 0.020(11)
C31 0.049(10) 0.117(14) 0.132(14) -0.011(13) 0.022(11) 0.041(11)
C32 0.044(10) 0.141(14) 0.129(14) -0.014(13) 0.030(11) 0.023(11)
C33 0.075(12) 0.153(15) 0.111(13) -0.025(13) 0.055(11) 0.017(12)
C34 0.082(11) 0.153(15) 0.096(12) -0.004(13) 0.053(10) -0.009(13)
C35 0.117(13) 0.153(14) 0.056(11) 0.011(11) 0.048(10) -0.008(12)
C36 0.116(12) 0.115(13) 0.062(10) 0.049(10) 0.033(10) -0.016(11)
C37 0.115(7) 0.082(6) 0.070(6) 0.051(5) -0.016(6) 0.025(6)
C38 0.115(7) 0.082(6) 0.070(6) 0.051(5) -0.016(6) 0.025(6)
C39 0.115(7) 0.082(6) 0.070(6) 0.051(5) -0.016(6) 0.025(6)
C40 0.115(7) 0.082(6) 0.070(6) 0.051(5) -0.016(6) 0.025(6)
C41 0.083(11) 0.088(12) 0.082(11) 0.023(10) 0.012(10) 0.056(10)
C42 0.096(13) 0.089(13) 0.119(13) -0.002(12) 0.039(11) 0.052(11)
C43 0.074(12) 0.118(14) 0.127(13) 0.006(12) 0.054(11) 0.044(12)
C44 0.087(12) 0.115(14) 0.100(12) 0.010(11) 0.066(10) 0.042(11)
C45 0.079(10) 0.139(15) 0.113(12) 0.016(13) 0.063(9) 0.010(12)
C46 0.071(11) 0.140(14) 0.091(12) 0.029(12) 0.057(10) 0.014(11)
C47 0.094(12) 0.125(14) 0.050(10) 0.015(10) 0.039(9) 0.024(11)
C48 0.075(11) 0.119(13) 0.031(9) 0.029(10) 0.023(9) 0.013(11)
C49 0.074(11) 0.095(12) 0.077(11) 0.053(10) 0.031(10) 0.003(11)
C50 0.061(10) 0.060(10) 0.070(11) 0.031(9) 0.015(9) 0.017(9)
C51 0.101(12) 0.034(10) 0.123(14) 0.017(11) 0.000(12) 0.023(10)
C52 0.105(13) 0.056(11) 0.108(13) -0.008(11) 0.002(12) 0.050(11)
C53 0.140(14) 0.082(13) 0.142(14) -0.030(13) 0.008(13) 0.058(12)
C54 0.111(13) 0.109(14) 0.140(14) -0.030(13) 0.026(13) 0.062(12)
C55 0.121(13) 0.115(13) 0.129(14) -0.058(12) 0.026(13) 0.056(12)
C56 0.115(13) 0.136(15) 0.104(13) -0.046(12) 0.048(12) 0.033(13)
C57 0.136(13) 0.134(14) 0.054(10) -0.036(11) 0.040(11) 0.022(13)
C58 0.143(13) 0.169(14) 0.055(9) -0.004(14) 0.028(10) 0.013(15)
C59 0.154(13) 0.170(14) 0.047(9) 0.000(14) -0.018(10) 0.016(15)
C60 0.125(13) 0.164(13) 0.050(10) 0.040(12) -0.034(11) 0.016(13)
C61 0.118(13) 0.177(14) 0.086(12) 0.009(13) -0.061(11) 0.024(14)
C62 0.101(12) 0.116(13) 0.079(12) 0.020(12) -0.040(11) 0.043(12)
C63 0.054(11) 0.103(13) 0.114(13) 0.038(12) -0.022(11) 0.030(11)
C64 0.056(11) 0.144(14) 0.137(13) 0.002(13) -0.025(12) 0.022(12)
C65 0.049(10) 0.136(15) 0.145(14) 0.021(13) 0.032(11) 0.020(12)
C66 0.056(10) 0.139(16) 0.144(14) 0.013(13) 0.040(11) -0.002(11)
C67 0.057(11) 0.138(15) 0.151(14) 0.002(13) 0.011(12) -0.041(12)
C68 0.076(12) 0.107(14) 0.160(14) 0.022(13) 0.039(12) -0.052(11)
C69 0.074(11) 0.116(13) 0.120(13) 0.043(12) 0.055(11) -0.022(11)
C70 0.090(12) 0.090(13) 0.117(13) 0.052(12) 0.034(12) -0.025(11)
C71 0.110(13) 0.055(11) 0.152(15) 0.038(12) 0.021(13) -0.043(11)
C72 0.146(14) 0.030(10) 0.152(15) 0.009(12) 0.004(13) -0.003(12)
C73 0.164(15) 0.036(11) 0.156(15) -0.029(12) -0.012(14) -0.004(12)
C74 0.168(14) 0.066(12) 0.136(14) -0.057(11) -0.002(13) 0.049(12)
C75 0.154(12) 0.107(11) 0.123(11) -0.083(10) 0.005(11) 0.057(11)
C76 0.146(11) 0.126(11) 0.107(10) -0.080(10) -0.002(10) 0.042(11)
C77 0.141(11) 0.148(11) 0.089(10) -0.064(10) -0.007(10) 0.032(11)
C78 0.136(11) 0.171(11) 0.087(9) -0.045(10) -0.029(10) 0.024(11)
C79 0.122(10) 0.169(11) 0.098(10) -0.035(11) -0.054(9) 0.017(11)
C80 0.103(10) 0.152(11) 0.100(10) -0.022(12) -0.075(8) 0.015(12)
C81 0.089(10) 0.150(12) 0.124(11) -0.014(12) -0.072(9) 0.009(12)
C82 0.081(12) 0.148(15) 0.161(14) -0.013(14) -0.048(13) -0.030(13)
C83 0.119(14) 0.122(14) 0.162(15) -0.036(14) -0.051(14) -0.035(14)
C84 0.131(14) 0.088(13) 0.163(15) -0.014(14) -0.021(14) -0.055(13)
C85 0.117(13) 0.086(13) 0.168(15) 0.015(13) 0.011(13) -0.072(11)
C86 0.142(15) 0.059(12) 0.156(15) -0.054(12) -0.022(14) -0.016(12)
C87 0.137(14) 0.107(13) 0.122(14) -0.072(12) -0.024(13) 0.000(13)
C88 0.123(14) 0.116(14) 0.114(14) -0.050(13) -0.054(13) -0.006(13)
Ni1A 0.0101(6) 0.0162(7) 0.0277(7) 0.000 0.0004(5) 0.000
C1A 0.028(5) 0.046(6) 0.053(6) -0.013(5) 0.009(4) 0.011(4)
N2A 0.028(2) 0.032(2) 0.039(2) 0.000 -0.0017(17) 0.000
C2A 0.023(4) 0.032(5) 0.030(4) -0.006(4) 0.006(3) 0.001(3)
Ni2A 0.0361(12) 0.0243(11) 0.0261(11) 0.000 -0.0081(9) 0.000
N3A 0.028(2) 0.032(2) 0.039(2) 0.000 -0.0017(17) 0.000
C3A 0.015(3) 0.028(4) 0.024(4) -0.003(3) 0.003(3) 0.001(3)
C4A 0.011(3) 0.020(4) 0.027(4) -0.001(3) 0.001(3) 0.001(3)
N4A 0.028(2) 0.032(2) 0.039(2) 0.000 -0.0017(17) 0.000
C5A 0.013(3) 0.024(4) 0.033(4) -0.001(3) 0.002(3) 0.001(3)
C6A 0.011(3) 0.016(4) 0.038(4) -0.001(3) 0.003(3) 0.001(3)
C7A 0.018(4) 0.016(4) 0.049(5) 0.005(4) 0.003(4) 0.002(3)
C8A 0.031(4) 0.017(4) 0.060(6) 0.001(4) 0.013(4) 0.003(3)
C9A 0.041(6) 0.044(6) 0.079(8) 0.006(6) 0.018(5) 0.022(5)
C10A 0.018(4) 0.023(4) 0.051(5) 0.007(4) 0.006(4) 0.000(3)
C11A 0.032(5) 0.025(4) 0.064(6) 0.009(4) 0.017(4) 0.001(4)
C12A 0.053(7) 0.052(7) 0.076(8) 0.034(6) 0.010(6) 0.000(6)
C13A 0.014(3) 0.020(4) 0.031(4) 0.007(3) 0.003(3) 0.000(3)
C14A 0.019(4) 0.029(4) 0.033(4) 0.011(4) 0.004(3) 0.001(3)
C15A 0.015(3) 0.030(4) 0.026(4) 0.004(3) 0.002(3) 0.001(3)
C16A 0.025(4) 0.041(5) 0.027(4) 0.000(4) 0.008(3) -0.004(4)
C17A 0.035(5) 0.045(6) 0.037(5) 0.007(4) 0.017(4) -0.004(4)
C18A 0.057(7) 0.070(8) 0.035(5) 0.015(5) 0.007(5) -0.005(6)
C19A 0.046(8) 0.020(6) 0.046(8) 0.000 0.001(6) 0.000
C20A 0.048(5) 0.028(5) 0.027(4) -0.004(4) -0.007(4) 0.001(4)
C21A 0.055(6) 0.029(5) 0.034(5) -0.006(4) -0.001(4) 0.000(4)
C22A 0.072(8) 0.033(5) 0.057(7) -0.011(5) 0.022(6) -0.003(5)
C23A 0.115(12) 0.044(7) 0.062(8) 0.002(6) 0.024(8) 0.025(7)
C24A 0.065(7) 0.033(5) 0.045(6) -0.010(5) 0.010(5) 0.003(5)
C25A 0.107(11) 0.035(6) 0.059(7) -0.014(5) 0.037(7) -0.004(6)
C26A 0.093(11) 0.059(8) 0.093(10) -0.020(7) 0.056(9) -0.008(8)
C27A 0.054(6) 0.033(5) 0.035(5) -0.002(4) 0.000(4) 0.000(4)
C28A 0.064(10) 0.038(8) 0.034(7) 0.000 0.017(7) 0.000
N1A 0.028(2) 0.032(2) 0.039(2) 0.000 -0.0017(17) 0.000
C1D 0.48(10) 0.08(2) 0.53(11) 0.000 0.44(9) 0.000
C4D 0.22(4) 0.051(15) 0.27(5) 0.000 0.17(4) 0.000
C2D 0.32(4) 0.066(12) 0.28(3) -0.032(18) 0.23(3) -0.027(18)
C3D 0.163(19) 0.073(11) 0.103(14) -0.005(10) 0.049(13) 0.034(12)
loop_
_atom_type_symbol
_atom_type_description
_atom_type_scat_dispersion_real
_atom_type_scat_dispersion_imag
_atom_type_scat_source
C C 0.0027 0.0014 'International Tables Vol C Tables 4.2.6.8 and 6.1.1.4'
H H 0.0000 0.0000 'International Tables Vol C Tables 4.2.6.8 and 6.1.1.4'
N N 0.0053 0.0028 'International Tables Vol C Tables 4.2.6.8 and 6.1.1.4'
Ni Ni 0.3436 0.9622 'International Tables Vol C Tables 4.2.6.8 and 6.1.1.4'
Lu Lu -0.2922 5.1425 'International Tables Vol C Tables 4.2.6.8 and 6.1.1.4'
loop_
_geom_angle_atom_site_label_1
_geom_angle_atom_site_label_2
_geom_angle_atom_site_label_3
_geom_angle
_geom_angle_site_symmetry_1
_geom_angle_site_symmetry_3
Lu4 Lu1 Lu8 80.6(10) . .
Lu4 Lu1 Lu7 140.1(10) . 6_565
Lu8 Lu1 Lu7 112.4(12) . 6_565
Lu4 Lu1 Lu3 89.4(8) . .
Lu8 Lu1 Lu3 146.1(8) . .
Lu7 Lu1 Lu3 58.3(7) 6_565 .
Lu4 Lu1 Lu1 35.4(7) . 6_565
Lu8 Lu1 Lu1 111.8(9) . 6_565
Lu7 Lu1 Lu1 109.5(7) 6_565 6_565
Lu3 Lu1 Lu1 54.2(3) . 6_565
Lu4 Lu1 Lu6 106.8(7) . 6_565
Lu8 Lu1 Lu6 34.8(8) . 6_565
Lu7 Lu1 Lu6 77.6(7) 6_565 6_565
Lu3 Lu1 Lu6 122.9(5) . 6_565
Lu1 Lu1 Lu6 125.7(3) 6_565 6_565
Lu4 Lu1 N1 74.5(5) . .
Lu8 Lu1 N1 77.7(7) . .
Lu7 Lu1 N1 72.1(6) 6_565 .
Lu3 Lu1 N1 68.4(4) . .
Lu1 Lu1 N1 67.2(2) 6_565 .
Lu6 Lu1 N1 64.5(3) 6_565 .
Lu4 Lu1 C56 116.9(7) . .
Lu8 Lu1 C56 104.1(8) . .
Lu7 Lu1 C56 97.0(6) 6_565 .
Lu3 Lu1 C56 109.3(5) . .
Lu1 Lu1 C56 121.3(3) 6_565 .
Lu6 Lu1 C56 110.4(5) 6_565 .
N1 Lu1 C56 168.5(5) . .
Lu4 Lu1 Lu8 17.8(5) . 6_565
Lu8 Lu1 Lu8 86.2(11) . 6_565
Lu7 Lu1 Lu8 122.4(7) 6_565 6_565
Lu3 Lu1 Lu8 75.9(4) . 6_565
Lu1 Lu1 Lu8 25.5(3) 6_565 6_565
Lu6 Lu1 Lu8 104.3(4) 6_565 6_565
N1 Lu1 Lu8 59.0(3) . 6_565
C56 Lu1 Lu8 132.1(5) . 6_565
Lu4 Lu1 C77 88.1(7) . .
Lu8 Lu1 C77 55.1(7) . .
Lu7 Lu1 C77 130.8(8) 6_565 .
Lu3 Lu1 C77 157.4(5) . .
Lu1 Lu1 C77 119.3(3) 6_565 .
Lu6 Lu1 C77 79.2(4) 6_565 .
N1 Lu1 C77 132.0(5) . .
C56 Lu1 C77 52.93(16) . .
Lu8 Lu1 C77 105.1(5) 6_565 .
Lu4 Lu1 C57 80.4(6) . .
Lu8 Lu1 C57 87.3(8) . .
Lu7 Lu1 C57 135.4(6) 6_565 .
Lu3 Lu1 C57 123.0(5) . .
Lu1 Lu1 C57 98.2(3) 6_565 .
Lu6 Lu1 C57 113.6(5) 6_565 .
N1 Lu1 C57 152.5(5) . .
C56 Lu1 C57 38.43(10) . .
Lu8 Lu1 C57 97.5(5) 6_565 .
C77 Lu1 C57 34.52(11) . .
Lu4 Lu1 Lu7 63.2(7) . .
Lu8 Lu1 Lu7 125.9(9) . .
Lu7 Lu1 Lu7 80.0(9) 6_565 .
Lu3 Lu1 Lu7 27.6(4) . .
Lu1 Lu1 Lu7 29.5(3) 6_565 .
Lu6 Lu1 Lu7 119.9(4) 6_565 .
N1 Lu1 Lu7 55.6(3) . .
C56 Lu1 Lu7 127.3(5) . .
Lu8 Lu1 Lu7 48.5(4) 6_565 .
C77 Lu1 Lu7 148.5(5) . .
C57 Lu1 Lu7 121.4(5) . .
Lu3 N1 Lu4 48.8(4) . .
Lu3 N1 Lu7 36.1(4) . 6_565
Lu4 N1 Lu7 60.4(5) . 6_565
Lu3 N1 Lu7 36.1(4) . .
Lu4 N1 Lu7 60.4(5) . .
Lu7 N1 Lu7 72.0(8) 6_565 .
Lu3 N1 Lu1 39.1(3) . 6_565
Lu4 N1 Lu1 27.7(2) . 6_565
Lu7 N1 Lu1 68.1(5) 6_565 6_565
Lu7 N1 Lu1 34.0(4) . 6_565
Lu3 N1 Lu1 39.1(3) . .
Lu4 N1 Lu1 27.7(2) . .
Lu7 N1 Lu1 34.0(4) 6_565 .
Lu7 N1 Lu1 68.1(5) . .
Lu1 N1 Lu1 45.6(5) 6_565 .
Lu3 N1 Lu8 67.4(5) . 6_565
Lu4 N1 Lu8 36.4(4) . 6_565
Lu7 N1 Lu8 93.3(6) 6_565 6_565
Lu7 N1 Lu8 52.9(5) . 6_565
Lu1 N1 Lu8 28.3(3) 6_565 6_565
Lu1 N1 Lu8 63.5(5) . 6_565
Lu3 N1 Lu8 67.4(5) . .
Lu4 N1 Lu8 36.4(4) . .
Lu7 N1 Lu8 52.9(5) 6_565 .
Lu7 N1 Lu8 93.3(6) . .
Lu1 N1 Lu8 63.5(5) 6_565 .
Lu1 N1 Lu8 28.3(3) . .
Lu8 N1 Lu8 68.3(8) 6_565 .
Lu3 N1 Lu9 120.3(5) . 6_565
Lu4 N1 Lu9 97.7(6) . 6_565
Lu7 N1 Lu9 86.5(6) 6_565 6_565
Lu7 N1 Lu9 154.7(8) . 6_565
Lu1 N1 Lu9 125.3(7) 6_565 6_565
Lu1 N1 Lu9 86.6(6) . 6_565
Lu8 N1 Lu9 117.5(7) 6_565 6_565
Lu8 N1 Lu9 62.5(6) . 6_565
Lu3 N1 Lu9 120.3(5) . .
Lu4 N1 Lu9 97.7(6) . .
Lu7 N1 Lu9 154.7(8) 6_565 .
Lu7 N1 Lu9 86.4(6) . .
Lu1 N1 Lu9 86.6(6) 6_565 .
Lu1 N1 Lu9 125.3(7) . .
Lu8 N1 Lu9 62.5(6) 6_565 .
Lu8 N1 Lu9 117.5(7) . .
Lu9 N1 Lu9 110.6(9) 6_565 .
Lu3 N1 Lu10 132.9(7) . 6_565
Lu4 N1 Lu10 159.0(5) . 6_565
Lu7 N1 Lu10 108.3(6) 6_565 6_565
Lu7 N1 Lu10 136.1(7) . 6_565
Lu1 N1 Lu10 169.7(7) 6_565 6_565
Lu1 N1 Lu10 135.6(5) . 6_565
Lu8 N1 Lu10 158.3(7) 6_565 6_565
Lu8 N1 Lu10 122.7(6) . 6_565
Lu9 N1 Lu10 62.7(7) 6_565 6_565
Lu9 N1 Lu10 96.4(8) . 6_565
Lu3 N1 Lu10 132.9(7) . .
Lu4 N1 Lu10 159.0(5) . .
Lu7 N1 Lu10 136.1(7) 6_565 .
Lu7 N1 Lu10 108.3(6) . .
Lu1 N1 Lu10 135.6(5) 6_565 .
Lu1 N1 Lu10 169.7(7) . .
Lu8 N1 Lu10 122.7(6) 6_565 .
Lu8 N1 Lu10 158.3(7) . .
Lu9 N1 Lu10 96.4(8) 6_565 .
Lu9 N1 Lu10 62.7(7) . .
Lu10 N1 Lu10 40.6(10) 6_565 .
Lu5 Lu2 Lu7 125.9(5) . .
Lu5 Lu2 Lu6 95.9(5) . .
Lu7 Lu2 Lu6 84.7(6) . .
Lu5 Lu2 C5 94.8(4) . .
Lu7 Lu2 C5 119.0(5) . .
Lu6 Lu2 C5 139.6(4) . .
Lu5 Lu2 C4 135.0(4) . .
Lu7 Lu2 C4 92.3(5) . .
Lu6 Lu2 C4 112.1(4) . .
C5 Lu2 C4 41.44(11) . .
Lu5 Lu2 Lu9 64.8(5) . .
Lu7 Lu2 Lu9 105.1(5) . .
Lu6 Lu2 Lu9 31.2(5) . .
C5 Lu2 Lu9 134.7(5) . .
C4 Lu2 Lu9 133.0(5) . .
Lu5 Lu2 C18 131.4(4) . .
Lu7 Lu2 C18 100.7(5) . .
Lu6 Lu2 C18 73.2(4) . .
C5 Lu2 C18 70.57(19) . .
C4 Lu2 C18 40.82(11) . .
Lu9 Lu2 C18 92.5(5) . .
Lu5 Lu2 N1 69.0(4) . .
Lu7 Lu2 N1 62.4(4) . .
Lu6 Lu2 N1 65.4(4) . .
C5 Lu2 N1 153.4(4) . .
C4 Lu2 N1 154.5(4) . .
Lu9 Lu2 N1 58.4(4) . .
C18 Lu2 N1 136.0(4) . .
Lu5 Lu2 C6 63.7(3) . .
Lu7 Lu2 C6 157.7(4) . .
Lu6 Lu2 C6 115.8(5) . .
C5 Lu2 C6 39.38(13) . .
C4 Lu2 C6 72.41(19) . .
Lu9 Lu2 C6 97.2(5) . .
C18 Lu2 C6 78.6(2) . .
N1 Lu2 C6 132.6(4) . .
Lu5 Lu2 C1 90.9(3) . .
Lu7 Lu2 C1 92.9(4) . .
Lu6 Lu2 C1 172.9(5) . .
C5 Lu2 C1 37.31(10) . .
C4 Lu2 C1 61.29(14) . .
Lu9 Lu2 C1 155.2(5) . .
C18 Lu2 C1 100.9(2) . .
N1 Lu2 C1 119.2(3) . .
C6 Lu2 C1 65.70(16) . .
Lu5 Lu2 Lu1 122.2(3) . 6_565
Lu7 Lu2 Lu1 26.0(4) . 6_565
Lu6 Lu2 Lu1 58.7(5) . 6_565
C5 Lu2 Lu1 139.5(4) . 6_565
C4 Lu2 Lu1 102.5(3) . 6_565
Lu9 Lu2 Lu1 80.8(5) . 6_565
C18 Lu2 Lu1 92.8(3) . 6_565
N1 Lu2 Lu1 53.5(3) . 6_565
C6 Lu2 Lu1 171.1(3) . 6_565
C1 Lu2 Lu1 118.8(3) . 6_565
Lu5 Lu2 Lu8 113.5(4) . 6_565
Lu7 Lu2 Lu8 51.0(5) . 6_565
Lu6 Lu2 Lu8 33.7(5) . 6_565
C5 Lu2 Lu8 150.4(4) . 6_565
C4 Lu2 Lu8 109.0(4) . 6_565
Lu9 Lu2 Lu8 58.3(5) . 6_565
C18 Lu2 Lu8 83.5(4) . 6_565
N1 Lu2 Lu8 53.7(4) . 6_565
C6 Lu2 Lu8 149.0(4) . 6_565
C1 Lu2 Lu8 143.5(4) . 6_565
Lu1 Lu2 Lu8 25.0(3) 6_565 6_565
Lu7 Lu3 Lu7 145.2(11) 6_565 .
Lu7 Lu3 Lu1 122.3(8) 6_565 6_565
Lu7 Lu3 Lu1 54.3(5) . 6_565
Lu7 Lu3 Lu1 54.3(5) 6_565 .
Lu7 Lu3 Lu1 122.3(8) . .
Lu1 Lu3 Lu1 71.7(7) 6_565 .
Lu7 Lu3 Lu4 87.7(6) 6_565 .
Lu7 Lu3 Lu4 87.7(6) . .
Lu1 Lu3 Lu4 35.9(3) 6_565 .
Lu1 Lu3 Lu4 35.9(3) . .
Lu7 Lu3 N1 73.3(5) 6_565 .
Lu7 Lu3 N1 73.3(5) . .
Lu1 Lu3 N1 72.4(4) 6_565 .
Lu1 Lu3 N1 72.4(4) . .
Lu4 Lu3 N1 66.2(4) . .
Lu7 Lu3 C13 109.4(6) 6_565 .
Lu7 Lu3 C13 98.6(5) . .
Lu1 Lu3 C13 118.8(4) 6_565 .
Lu1 Lu3 C13 126.4(5) . .
Lu4 Lu3 C13 133.4(5) . .
N1 Lu3 C13 159.4(5) . .
Lu7 Lu3 C12 110.2(6) 6_565 .
Lu7 Lu3 C12 81.4(6) . .
Lu1 Lu3 C12 127.4(4) 6_565 .
Lu1 Lu3 C12 155.7(4) . .
Lu4 Lu3 C12 160.7(3) . .
N1 Lu3 C12 124.5(5) . .
C13 Lu3 C12 34.89(12) . .
Lu7 Lu3 C32 77.5(5) 6_565 .
Lu7 Lu3 C32 134.5(6) . .
Lu1 Lu3 C32 128.5(5) 6_565 .
Lu1 Lu3 C32 93.4(4) . .
Lu4 Lu3 C32 116.5(4) . .
N1 Lu3 C32 150.5(2) . .
C13 Lu3 C32 36.44(11) . .
C12 Lu3 C32 63.25(19) . .
Lu7 Lu3 C14 134.0(6) 6_565 .
Lu7 Lu3 C14 80.6(6) . .
Lu1 Lu3 C14 82.6(4) 6_565 .
Lu1 Lu3 C14 113.5(5) . .
Lu4 Lu3 C14 101.3(4) . .
N1 Lu3 C14 151.2(3) . .
C13 Lu3 C14 36.42(11) . .
C12 Lu3 C14 61.41(17) . .
C32 Lu3 C14 58.04(16) . .
Lu7 Lu3 Lu8 53.9(6) 6_565 .
Lu7 Lu3 Lu8 113.3(7) . .
Lu1 Lu3 Lu8 68.6(5) 6_565 .
Lu1 Lu3 Lu8 14.4(3) . .
Lu4 Lu3 Lu8 33.9(3) . .
N1 Lu3 Lu8 58.1(4) . .
C13 Lu3 Lu8 140.6(4) . .
C12 Lu3 Lu8 163.9(4) . .
C32 Lu3 Lu8 106.4(4) . .
C14 Lu3 Lu8 125.4(5) . .
Lu7 Lu3 Lu8 113.3(7) 6_565 6_565
Lu7 Lu3 Lu8 53.9(6) . 6_565
Lu1 Lu3 Lu8 14.4(3) 6_565 6_565
Lu1 Lu3 Lu8 68.6(5) . 6_565
Lu4 Lu3 Lu8 33.9(3) . 6_565
N1 Lu3 Lu8 58.1(4) . 6_565
C13 Lu3 Lu8 132.4(4) . 6_565
C12 Lu3 Lu8 133.9(4) . 6_565
C32 Lu3 Lu8 141.2(5) . 6_565
C14 Lu3 Lu8 96.7(4) . 6_565
Lu8 Lu3 Lu8 62.1(7) . 6_565
Lu1 Lu4 Lu1 109.2(14) 6_565 .
Lu1 Lu4 Lu8 50.9(6) 6_565 6_565
Lu1 Lu4 Lu8 148.8(10) . 6_565
Lu1 Lu4 Lu8 148.8(10) 6_565 .
Lu1 Lu4 Lu8 50.9(6) . .
Lu8 Lu4 Lu8 131.2(12) 6_565 .
Lu1 Lu4 Lu3 54.7(7) 6_565 .
Lu1 Lu4 Lu3 54.7(7) . .
Lu8 Lu4 Lu3 99.8(7) 6_565 .
Lu8 Lu4 Lu3 99.8(7) . .
Lu1 Lu4 N1 77.8(5) 6_565 .
Lu1 Lu4 N1 77.8(5) . .
Lu8 Lu4 N1 74.4(5) 6_565 .
Lu8 Lu4 N1 74.4(5) . .
Lu3 Lu4 N1 64.9(4) . .
Lu1 Lu4 Lu7 22.0(6) 6_565 .
Lu1 Lu4 Lu7 91.5(8) . .
Lu8 Lu4 Lu7 62.2(7) 6_565 .
Lu8 Lu4 Lu7 126.8(7) . .
Lu3 Lu4 Lu7 37.8(3) . .
N1 Lu4 Lu7 60.0(4) . .
Lu1 Lu4 Lu7 91.5(8) 6_565 6_565
Lu1 Lu4 Lu7 22.0(6) . 6_565
Lu8 Lu4 Lu7 126.8(7) 6_565 6_565
Lu8 Lu4 Lu7 62.2(7) . 6_565
Lu3 Lu4 Lu7 37.8(3) . 6_565
N1 Lu4 Lu7 60.0(4) . 6_565
Lu7 Lu4 Lu7 71.6(7) . 6_565
Lu1 Lu4 C58 104.6(6) 6_565 .
Lu1 Lu4 C58 109.4(6) . .
Lu8 Lu4 C58 99.8(6) 6_565 .
Lu8 Lu4 C58 105.1(6) . .
Lu3 Lu4 C58 124.0(5) . .
N1 Lu4 C58 170.6(5) . .
Lu7 Lu4 C58 124.3(5) . .
Lu7 Lu4 C58 128.4(5) 6_565 .
Lu1 Lu4 C59 120.0(6) 6_565 .
Lu1 Lu4 C59 124.1(7) . .
Lu8 Lu4 C59 86.3(7) 6_565 .
Lu8 Lu4 C59 90.2(7) . .
Lu3 Lu4 C59 159.9(5) . .
N1 Lu4 C59 135.1(5) . .
Lu7 Lu4 C59 141.5(4) . .
Lu7 Lu4 C59 145.7(4) 6_565 .
C58 Lu4 C59 35.85(12) . .
Lu1 Lu4 C57 122.0(7) 6_565 .
Lu1 Lu4 C57 75.2(5) . .
Lu8 Lu4 C57 134.5(6) 6_565 .
Lu8 Lu4 C57 79.8(5) . .
Lu3 Lu4 C57 106.8(4) . .
N1 Lu4 C57 150.7(2) . .
Lu7 Lu4 C57 131.4(5) . .
Lu7 Lu4 C57 95.6(4) 6_565 .
C58 Lu4 C57 34.66(10) . .
C59 Lu4 C57 57.53(17) . .
Lu1 Lu4 C35 73.5(6) 6_565 .
Lu1 Lu4 C35 99.7(7) . .
Lu8 Lu4 C35 96.6(6) 6_565 .
Lu8 Lu4 C35 128.3(6) . .
Lu3 Lu4 C35 87.8(4) . .
N1 Lu4 C35 148.6(5) . .
Lu7 Lu4 C35 89.0(4) . .
Lu7 Lu4 C35 107.9(5) 6_565 .
C58 Lu4 C35 38.15(12) . .
C59 Lu4 C35 72.3(2) . .
C57 Lu4 C35 49.51(14) . .
Lu2 Lu5 Lu10 146.8(8) . .
Lu2 Lu5 Lu9 77.0(6) . .
Lu10 Lu5 Lu9 82.6(9) . .
Lu2 Lu5 C7 119.1(5) . .
Lu10 Lu5 C7 94.2(9) . .
Lu9 Lu5 C7 128.0(5) . .
Lu2 Lu5 C6 81.2(4) . .
Lu10 Lu5 C6 130.8(9) . .
Lu9 Lu5 C6 109.8(5) . .
C7 Lu5 C6 40.12(11) . .
Lu2 Lu5 N1 75.8(4) . .
Lu10 Lu5 N1 71.4(8) . .
Lu9 Lu5 N1 62.0(5) . .
C7 Lu5 N1 162.2(5) . .
C6 Lu5 N1 156.8(6) . .
Lu2 Lu5 C8 111.7(4) . .
Lu10 Lu5 C8 93.0(9) . .
Lu9 Lu5 C8 167.8(6) . .
C7 Lu5 C8 40.64(12) . .
C6 Lu5 C8 64.80(16) . .
N1 Lu5 C8 127.4(4) . .
Lu2 Lu5 Lu6 48.2(4) . .
Lu10 Lu5 Lu6 107.3(8) . .
Lu9 Lu5 Lu6 28.9(5) . .
C7 Lu5 Lu6 137.8(4) . .
C6 Lu5 Lu6 102.8(4) . .
N1 Lu5 Lu6 58.9(3) . .
C8 Lu5 Lu6 159.4(5) . .
Lu2 Lu5 C5 51.6(3) . .
Lu10 Lu5 C5 160.2(9) . .
Lu9 Lu5 C5 115.2(6) . .
C7 Lu5 C5 68.30(19) . .
C6 Lu5 C5 37.20(14) . .
N1 Lu5 C5 123.6(5) . .
C8 Lu5 C5 67.77(18) . .
Lu6 Lu5 C5 92.3(4) . .
Lu2 Lu5 C20 82.5(4) . .
Lu10 Lu5 C20 117.2(9) . .
Lu9 Lu5 C20 74.9(5) . .
C7 Lu5 C20 60.77(17) . .
C6 Lu5 C20 36.27(12) . .
N1 Lu5 C20 134.8(4) . .
C8 Lu5 C20 97.3(2) . .
Lu6 Lu5 C20 77.0(4) . .
C5 Lu5 C20 63.2(2) . .
Lu2 Lu5 C22 138.2(4) . .
Lu10 Lu5 C22 70.0(8) . .
Lu9 Lu5 C22 97.5(5) . .
C7 Lu5 C22 35.89(13) . .
C6 Lu5 C22 61.38(18) . .
N1 Lu5 C22 138.3(5) . .
C8 Lu5 C22 70.3(2) . .
Lu6 Lu5 C22 119.7(4) . .
C5 Lu5 C22 97.7(2) . .
C20 Lu5 C22 56.47(16) . .
Lu2 Lu5 Lu7 28.2(3) . .
Lu10 Lu5 Lu7 122.1(8) . .
Lu9 Lu5 Lu7 79.0(6) . .
C7 Lu5 Lu7 139.2(4) . .
C6 Lu5 Lu7 107.1(5) . .
N1 Lu5 Lu7 51.4(4) . .
C8 Lu5 Lu7 112.8(4) . .
Lu6 Lu5 Lu7 53.0(4) . .
C5 Lu5 Lu7 72.4(4) . .
C20 Lu5 Lu7 110.0(5) . .
C22 Lu5 Lu7 166.3(5) . .
Lu9 Lu6 Lu8 127.6(13) . 6_565
Lu9 Lu6 Lu2 95.3(11) . .
Lu8 Lu6 Lu2 101.4(8) 6_565 .
Lu9 Lu6 Lu1 130.0(10) . 6_565
Lu8 Lu6 Lu1 25.6(6) 6_565 6_565
Lu2 Lu6 Lu1 75.8(5) . 6_565
Lu9 Lu6 C39 98.0(10) . .
Lu8 Lu6 C39 105.8(8) 6_565 .
Lu2 Lu6 C39 132.2(6) . .
Lu1 Lu6 C39 124.5(6) 6_565 .
Lu9 Lu6 C38 137.5(11) . .
Lu8 Lu6 C38 78.4(8) 6_565 .
Lu2 Lu6 C38 113.3(6) . .
Lu1 Lu6 C38 88.7(6) 6_565 .
C39 Lu6 C38 39.41(17) . .
Lu9 Lu6 Lu7 120.8(10) . .
Lu8 Lu6 Lu7 58.8(7) 6_565 .
Lu2 Lu6 Lu7 42.6(4) . .
Lu1 Lu6 Lu7 33.2(4) 6_565 .
C39 Lu6 Lu7 140.0(7) . .
C38 Lu6 Lu7 101.2(6) . .
Lu9 Lu6 N1 72.6(9) . .
Lu8 Lu6 N1 67.9(6) 6_565 .
Lu2 Lu6 N1 69.5(4) . .
Lu1 Lu6 N1 58.1(4) 6_565 .
C39 Lu6 N1 157.9(6) . .
C38 Lu6 N1 145.7(7) . .
Lu7 Lu6 N1 56.3(4) . .
Lu9 Lu6 Lu5 59.7(9) . .
Lu8 Lu6 Lu5 119.1(7) 6_565 .
Lu2 Lu6 Lu5 35.9(3) . .
Lu1 Lu6 Lu5 97.1(4) 6_565 .
C39 Lu6 Lu5 134.7(6) . .
C38 Lu6 Lu5 143.2(5) . .
Lu7 Lu6 Lu5 68.6(4) . .
N1 Lu6 Lu5 58.1(3) . .
Lu9 Lu6 C62 81.2(10) . .
Lu8 Lu6 C62 90.4(7) 6_565 .
Lu2 Lu6 C62 167.1(7) . .
Lu1 Lu6 C62 115.9(6) 6_565 .
C39 Lu6 C62 37.30(15) . .
C38 Lu6 C62 63.8(2) . .
Lu7 Lu6 C62 148.7(7) . .
N1 Lu6 C62 120.6(5) . .
Lu5 Lu6 C62 140.0(7) . .
Lu9 Lu6 C40 71.0(10) . .
Lu8 Lu6 C40 143.0(8) 6_565 .
Lu2 Lu6 C40 108.7(6) . .
Lu1 Lu6 C40 158.7(6) 6_565 .
C39 Lu6 C40 37.30(18) . .
C38 Lu6 C40 70.3(3) . .
Lu7 Lu6 C40 145.7(6) . .
N1 Lu6 C40 143.3(7) . .
Lu5 Lu6 C40 97.9(5) . .
C62 Lu6 C40 58.4(2) . .
Lu9 Lu6 C18 124.3(13) . .
Lu8 Lu6 C18 107.5(9) 6_565 .
Lu2 Lu6 C18 63.0(3) . .
Lu1 Lu6 C18 95.7(5) 6_565 .
C39 Lu6 C18 71.6(3) . .
C38 Lu6 C18 54.5(2) . .
Lu7 Lu6 C18 78.5(5) . .
N1 Lu6 C18 130.3(5) . .
Lu5 Lu6 C18 88.8(4) . .
C62 Lu6 C18 108.6(4) . .
C40 Lu6 C18 69.6(3) . .
Lu1 Lu7 Lu3 67.4(8) 6_565 .
Lu1 Lu7 Lu2 121.9(9) 6_565 .
Lu3 Lu7 Lu2 143.6(10) . .
Lu1 Lu7 Lu8 30.6(6) 6_565 6_565
Lu3 Lu7 Lu8 92.7(8) . 6_565
Lu2 Lu7 Lu8 91.3(7) . 6_565
Lu1 Lu7 N1 73.9(5) 6_565 .
Lu3 Lu7 N1 70.6(5) . .
Lu2 Lu7 N1 78.5(5) . .
Lu8 Lu7 N1 65.0(5) 6_565 .
Lu1 Lu7 Lu4 17.8(4) 6_565 .
Lu3 Lu7 Lu4 54.5(5) . .
Lu2 Lu7 Lu4 123.0(6) . .
Lu8 Lu7 Lu4 38.3(5) 6_565 .
N1 Lu7 Lu4 59.5(4) . .
Lu1 Lu7 C3 124.8(8) 6_565 .
Lu3 Lu7 C3 120.9(7) . .
Lu2 Lu7 C3 84.5(5) . .
Lu8 Lu7 C3 126.3(7) 6_565 .
N1 Lu7 C3 160.0(7) . .
Lu4 Lu7 C3 140.2(6) . .
Lu1 Lu7 Lu6 69.2(6) 6_565 .
Lu3 Lu7 Lu6 123.0(7) . .
Lu2 Lu7 Lu6 52.7(5) . .
Lu8 Lu7 Lu6 38.6(5) 6_565 .
N1 Lu7 Lu6 63.2(4) . .
Lu4 Lu7 Lu6 73.7(4) . .
C3 Lu7 Lu6 113.7(6) . .
Lu1 Lu7 C15 87.1(7) 6_565 .
Lu3 Lu7 C15 96.9(7) . .
Lu2 Lu7 C15 117.8(6) . .
Lu8 Lu7 C15 101.3(6) 6_565 .
N1 Lu7 C15 160.0(7) . .
Lu4 Lu7 C15 100.6(6) . .
C3 Lu7 C15 39.95(18) . .
Lu6 Lu7 C15 115.9(6) . .
Lu1 Lu7 C2 150.4(9) 6_565 .
Lu3 Lu7 C2 100.7(7) . .
Lu2 Lu7 C2 84.3(5) . .
Lu8 Lu7 C2 163.0(7) 6_565 .
N1 Lu7 C2 129.4(6) . .
Lu4 Lu7 C2 152.1(7) . .
C3 Lu7 C2 37.07(15) . .
Lu6 Lu7 C2 134.1(7) . .
C15 Lu7 C2 66.9(3) . .
Lu1 Lu7 Lu1 41.0(6) 6_565 .
Lu3 Lu7 Lu1 30.2(5) . .
Lu2 Lu7 Lu1 133.8(5) . .
Lu8 Lu7 Lu1 62.7(5) 6_565 .
N1 Lu7 Lu1 56.4(4) . .
Lu4 Lu7 Lu1 25.2(2) . .
C3 Lu7 Lu1 141.7(6) . .
Lu6 Lu7 Lu1 94.2(4) . .
C15 Lu7 Lu1 105.0(6) . .
C2 Lu7 Lu1 130.7(6) . .
Lu1 Lu7 C12 125.9(9) 6_565 .
Lu3 Lu7 C12 67.1(6) . .
Lu2 Lu7 C12 112.1(6) . .
Lu8 Lu7 C12 156.4(8) 6_565 .
N1 Lu7 C12 115.4(6) . .
Lu4 Lu7 C12 119.7(6) . .
C3 Lu7 C12 61.8(2) . .
Lu6 Lu7 C12 164.7(7) . .
C15 Lu7 C12 71.0(3) . .
C2 Lu7 C12 33.66(14) . .
Lu1 Lu7 C12 97.1(5) . .
Lu1 Lu8 Lu4 48.5(7) . .
Lu1 Lu8 Lu6 119.6(13) . 6_565
Lu4 Lu8 Lu6 144.8(10) . 6_565
Lu1 Lu8 Lu7 37.0(7) . 6_565
Lu4 Lu8 Lu7 79.6(8) . 6_565
Lu6 Lu8 Lu7 82.6(8) 6_565 6_565
Lu1 Lu8 C77 98.6(8) . .
Lu4 Lu8 C77 98.9(7) . .
Lu6 Lu8 C77 116.3(9) 6_565 .
Lu7 Lu8 C77 117.5(7) 6_565 .
Lu1 Lu8 C78 122.1(10) . .
Lu4 Lu8 C78 91.0(8) . .
Lu6 Lu8 C78 116.2(9) 6_565 .
Lu7 Lu8 C78 155.2(8) 6_565 .
C77 Lu8 C78 41.0(2) . .
Lu1 Lu8 N1 74.0(7) . .
Lu4 Lu8 N1 69.1(6) . .
Lu6 Lu8 N1 75.7(6) 6_565 .
Lu7 Lu8 N1 62.1(5) 6_565 .
C77 Lu8 N1 168.0(8) . .
C78 Lu8 N1 135.5(7) . .
Lu1 Lu8 Lu1 42.7(8) . 6_565
Lu4 Lu8 Lu1 13.4(4) . 6_565
Lu6 Lu8 Lu1 132.3(8) 6_565 6_565
Lu7 Lu8 Lu1 68.8(5) 6_565 6_565
C77 Lu8 Lu1 110.7(6) . 6_565
C78 Lu8 Lu1 104.1(7) . 6_565
N1 Lu8 Lu1 57.5(4) . 6_565
Lu1 Lu8 Lu9 123.1(10) . 6_565
Lu4 Lu8 Lu9 126.4(8) . 6_565
Lu6 Lu8 Lu9 23.4(6) 6_565 6_565
Lu7 Lu8 Lu9 89.8(7) 6_565 6_565
C77 Lu8 Lu9 131.5(8) . 6_565
C78 Lu8 Lu9 114.0(7) . 6_565
N1 Lu8 Lu9 59.7(5) . 6_565
Lu1 Lu8 Lu9 116.6(6) 6_565 6_565
Lu1 Lu8 Lu3 19.5(5) . .
Lu4 Lu8 Lu3 46.3(6) . .
Lu6 Lu8 Lu3 109.8(8) 6_565 .
Lu7 Lu8 Lu3 33.4(4) 6_565 .
C77 Lu8 Lu3 117.7(6) . .
C78 Lu8 Lu3 133.8(7) . .
N1 Lu8 Lu3 54.5(4) . .
Lu1 Lu8 Lu3 35.5(3) 6_565 .
Lu9 Lu8 Lu3 107.0(6) 6_565 .
Lu1 Lu8 Lu8 68.2(9) . 6_565
Lu4 Lu8 Lu8 24.4(6) . 6_565
Lu6 Lu8 Lu8 127.5(6) 6_565 6_565
Lu7 Lu8 Lu8 90.7(5) 6_565 6_565
C77 Lu8 Lu8 112.9(5) . 6_565
C78 Lu8 Lu8 89.7(5) . 6_565
N1 Lu8 Lu8 55.9(4) . 6_565
Lu1 Lu8 Lu8 25.5(3) 6_565 6_565
Lu9 Lu8 Lu8 105.4(5) 6_565 6_565
Lu3 Lu8 Lu8 58.9(3) . 6_565
Lu1 Lu8 C76 112.9(9) . .
Lu4 Lu8 C76 133.4(7) . .
Lu6 Lu8 C76 81.1(8) 6_565 .
Lu7 Lu8 C76 108.6(7) 6_565 .
C77 Lu8 C76 35.8(2) . .
C78 Lu8 C76 62.2(3) . .
N1 Lu8 C76 155.8(7) . .
Lu1 Lu8 C76 143.2(6) 6_565 .
Lu9 Lu8 C76 99.9(7) 6_565 .
Lu3 Lu8 C76 130.5(6) . .
Lu8 Lu8 C76 148.2(4) 6_565 .
Lu6 Lu9 Lu5 91.4(10) . .
Lu6 Lu9 Lu2 53.4(8) . .
Lu5 Lu9 Lu2 38.1(3) . .
Lu6 Lu9 C41 114.5(12) . .
Lu5 Lu9 C41 124.4(8) . .
Lu2 Lu9 C41 132.1(8) . .
Lu6 Lu9 N1 77.9(9) . .
Lu5 Lu9 N1 63.7(4) . .
Lu2 Lu9 N1 64.1(4) . .
C41 Lu9 N1 163.2(9) . .
Lu6 Lu9 Lu8 29.0(8) . 6_565
Lu5 Lu9 Lu8 98.5(7) . 6_565
Lu2 Lu9 Lu8 66.7(6) . 6_565
C41 Lu9 Lu8 128.3(8) . 6_565
N1 Lu9 Lu8 57.7(5) . 6_565
Lu6 Lu9 C40 80.9(11) . .
Lu5 Lu9 C40 111.7(7) . .
Lu2 Lu9 C40 98.6(7) . .
C41 Lu9 C40 37.7(2) . .
N1 Lu9 C40 158.1(9) . .
Lu8 Lu9 C40 104.1(8) 6_565 .
Lu6 Lu9 C63 106.9(11) . .
Lu5 Lu9 C63 158.3(9) . .
Lu2 Lu9 C63 155.9(9) . .
C41 Lu9 C63 37.1(2) . .
N1 Lu9 C63 130.6(8) . .
Lu8 Lu9 C63 103.2(7) 6_565 .
C40 Lu9 C63 61.6(3) . .
Lu6 Lu9 Lu10 122.1(11) . .
Lu5 Lu9 Lu10 36.9(5) . .
Lu2 Lu9 Lu10 72.7(6) . .
C41 Lu9 Lu10 116.9(9) . .
N1 Lu9 Lu10 59.2(6) . .
Lu8 Lu9 Lu10 114.7(7) 6_565 .
C40 Lu9 Lu10 131.2(8) . .
C63 Lu9 Lu10 130.1(10) . .
Lu6 Lu9 C62 71.7(10) . .
Lu5 Lu9 C62 161.1(9) . .
Lu2 Lu9 C62 123.9(8) . .
C41 Lu9 C62 59.2(3) . .
N1 Lu9 C62 118.7(7) . .
Lu8 Lu9 C62 71.0(6) 6_565 .
C40 Lu9 C62 58.3(3) . .
C63 Lu9 C62 35.3(2) . .
Lu10 Lu9 C62 161.9(9) . .
Lu6 Lu9 C39 55.6(9) . .
Lu5 Lu9 C39 128.7(8) . .
Lu2 Lu9 C39 97.1(7) . .
C41 Lu9 C39 59.4(3) . .
N1 Lu9 C39 129.6(8) . .
Lu8 Lu9 C39 71.8(6) 6_565 .
C40 Lu9 C39 34.8(2) . .
C63 Lu9 C39 58.8(3) . .
Lu10 Lu9 C39 162.7(8) . .
C62 Lu9 C39 33.8(2) . .
Lu6 Lu9 C42 138.9(13) . .
Lu5 Lu9 C42 91.4(6) . .
Lu2 Lu9 C42 116.6(7) . .
C41 Lu9 C42 36.9(2) . .
N1 Lu9 C42 138.3(8) . .
Lu8 Lu9 C42 163.9(8) 6_565 .
C40 Lu9 C42 60.2(3) . .
C63 Lu9 C42 67.2(4) . .
Lu10 Lu9 C42 80.6(7) . .
C62 Lu9 C42 95.8(4) . .
C39 Lu9 C42 92.1(4) . .
Lu5 Lu10 Lu10 132.6(8) . 6_565
Lu5 Lu10 N1 72.2(9) . .
Lu10 Lu10 N1 69.7(5) 6_565 .
Lu5 Lu10 C24 114.5(10) . .
Lu10 Lu10 C24 94.8(5) 6_565 .
N1 Lu10 C24 160.9(9) . .
Lu5 Lu10 C23 111.3(10) . .
Lu10 Lu10 C23 113.3(5) 6_565 .
N1 Lu10 C23 163.8(10) . .
C24 Lu10 C23 33.4(3) . .
Lu5 Lu10 Lu9 60.5(9) . .
Lu10 Lu10 Lu9 116.7(5) 6_565 .
N1 Lu10 Lu9 58.1(6) . .
C24 Lu10 Lu9 141.1(9) . .
C23 Lu10 Lu9 108.8(8) . .
Lu5 Lu10 C25 87.6(9) . .
Lu10 Lu10 C25 95.8(4) 6_565 .
N1 Lu10 C25 129.7(9) . .
C24 Lu10 C25 37.9(3) . .
C23 Lu10 C25 66.5(5) . .
Lu9 Lu10 C25 144.6(9) . .
Lu5 Lu10 C22 77.4(8) . .
Lu10 Lu10 C22 144.8(5) 6_565 .
N1 Lu10 C22 145.5(10) . .
C24 Lu10 C22 50.9(4) . .
C23 Lu10 C22 33.9(3) . .
Lu9 Lu10 C22 92.9(7) . .
C25 Lu10 C22 63.3(4) . .
Lu5 Lu10 C44 127.7(10) . .
Lu10 Lu10 C44 99.1(4) 6_565 .
N1 Lu10 C44 133.6(8) . .
C24 Lu10 C44 58.0(5) . .
C23 Lu10 C44 31.6(3) . .
Lu9 Lu10 C44 93.1(8) . .
C25 Lu10 C44 95.4(7) . .
C22 Lu10 C44 58.5(4) . .
Lu5 Lu10 C47 146.1(11) . .
Lu10 Lu10 C47 61.3(4) 6_565 .
N1 Lu10 C47 131.0(7) . .
C24 Lu10 C47 35.3(3) . .
C23 Lu10 C47 54.6(5) . .
Lu9 Lu10 C47 149.1(10) . .
C25 Lu10 C47 58.7(5) . .
C22 Lu10 C47 83.4(6) . .
C44 Lu10 C47 59.0(5) . .
Lu5 Lu10 C7 54.2(6) . .
Lu10 Lu10 C7 142.5(4) 6_565 .
N1 Lu10 C7 125.4(9) . .
C24 Lu10 C7 60.8(4) . .
C23 Lu10 C7 62.7(4) . .
Lu9 Lu10 C7 98.4(8) . .
C25 Lu10 C7 47.2(3) . .
C22 Lu10 C7 33.6(2) . .
C44 Lu10 C7 91.5(6) . .
C47 Lu10 C7 95.4(6) . .
Lu5 Lu10 Lu2 16.5(5) . .
Lu10 Lu10 Lu2 120.7(4) 6_565 .
N1 Lu10 Lu2 55.9(5) . .
C24 Lu10 Lu2 130.8(7) . .
C23 Lu10 Lu2 125.7(7) . .
Lu9 Lu10 Lu2 51.5(6) . .
C25 Lu10 Lu2 100.9(7) . .
C22 Lu10 Lu2 92.2(6) . .
C44 Lu10 Lu2 134.7(7) . .
C47 Lu10 Lu2 158.9(8) . .
C7 Lu10 Lu2 70.7(5) . .
C9 C1 C5 121.2 . .
C9 C1 C2 113.7 . .
C5 C1 C2 109.5 . .
C9 C1 Lu2 93.49(15) . .
C5 C1 Lu2 54.83(16) . .
C2 C1 Lu2 82.50(18) . .
C9 C1 Lu5 67.75(19) . .
C5 C1 Lu5 63.10(17) . .
C2 C1 Lu5 106.31(15) . .
Lu2 C1 Lu5 29.81(17) . .
C9 C1 Lu7 96.3(2) . .
C5 C1 Lu7 79.6(3) . .
C2 C1 Lu7 52.9(2) . .
Lu2 C1 Lu7 31.2(2) . .
Lu5 C1 Lu7 53.8(3) . .
C12 C2 C3 116.0 . .
C12 C2 C1 129.4 . .
C3 C2 C1 107.5 . .
C12 C2 Lu7 78.4(3) . .
C3 C2 Lu7 66.8(3) . .
C1 C2 Lu7 97.1(3) . .
C12 C2 Lu2 107.25(14) . .
C3 C2 Lu2 70.23(14) . .
C1 C2 Lu2 64.28(15) . .
Lu7 C2 Lu2 34.5(3) . .
C12 C2 Lu3 51.97(14) . .
C3 C2 Lu3 84.28(16) . .
C1 C2 Lu3 111.69(14) . .
Lu7 C2 Lu3 26.5(3) . .
Lu2 C2 Lu3 57.66(15) . .
C2 C3 C4 107.4 . .
C2 C3 C15 116.9 . .
C4 C3 C15 125.9 . .
C2 C3 Lu7 76.1(3) . .
C4 C3 Lu7 90.9(4) . .
C15 C3 Lu7 72.3(4) . .
C2 C3 Lu2 77.49(14) . .
C4 C3 Lu2 57.30(15) . .
C15 C3 Lu2 103.09(15) . .
Lu7 C3 Lu2 36.0(3) . .
C5 C4 C3 109.0 . .
C5 C4 C18 109.7 . .
C3 C4 C18 121.9 . .
C5 C4 Lu2 62.63(18) . .
C3 C4 Lu2 87.47(19) . .
C18 C4 Lu2 74.13(16) . .
C5 C4 Lu7 87.9(3) . .
C3 C4 Lu7 55.7(2) . .
C18 C4 Lu7 84.4(2) . .
Lu2 C4 Lu7 34.3(3) . .
C1 C5 C4 105.7 . .
C1 C5 C6 121.6 . .
C4 C5 C6 128.3 . .
C1 C5 Lu2 87.86(19) . .
C4 C5 Lu2 75.94(19) . .
C6 C5 Lu2 85.6(2) . .
C1 C5 Lu5 85.57(18) . .
C4 C5 Lu5 108.87(19) . .
C6 C5 Lu5 59.51(18) . .
Lu2 C5 Lu5 33.64(19) . .
C7 C6 C20 106.3 . .
C7 C6 C5 122.2 . .
C20 C6 C5 121.3 . .
C7 C6 Lu5 69.9(3) . .
C20 C6 Lu5 84.46(19) . .
C5 C6 Lu5 83.3(2) . .
C7 C6 Lu2 103.26(15) . .
C20 C6 Lu2 85.02(15) . .
C5 C6 Lu2 55.05(14) . .
Lu5 C6 Lu2 35.1(2) . .
C6 C7 C22 108.9 . .
C6 C7 C8 103.5 . .
C22 C7 C8 132.3 . .
C6 C7 Lu5 70.0(3) . .
C22 C7 Lu5 85.8(2) . .
C8 C7 Lu5 73.4(2) . .
C6 C7 Lu10 99.6(5) . .
C22 C7 Lu10 65.1(4) . .
C8 C7 Lu10 75.8(4) . .
Lu5 C7 Lu10 31.7(5) . .
C9 C8 C25 125.5 . .
C9 C8 C7 140.4 . .
C25 C8 C7 86.8 . .
C9 C8 Lu5 87.8(2) . .
C25 C8 Lu5 93.3(3) . .
C7 C8 Lu5 65.97(19) . .
C9 C8 Lu10 101.7(4) . .
C25 C8 Lu10 62.8(5) . .
C7 C8 Lu10 71.0(4) . .
Lu5 C8 Lu10 30.8(5) . .
C8 C9 C1 107.7 . .
C8 C9 C10 126.4 . .
C1 C9 C10 122.0 . .
C8 C9 Lu5 60.31(18) . .
C1 C9 Lu5 81.3(2) . .
C10 C9 Lu5 106.62(15) . .
C8 C9 Lu2 84.35(15) . .
C1 C9 Lu2 56.28(12) . .
C10 C9 Lu2 106.26(13) . .
Lu5 C9 Lu2 28.74(19) . .
C11 C10 C27 135.0 . .
C11 C10 C9 118.0 . .
C27 C10 C9 103.6 . .
C10 C11 C30 122.7 . .
C10 C11 C12 127.5 . .
C30 C11 C12 105.2 . .
C10 C11 Lu3 112.46(14) . .
C30 C11 Lu3 76.84(14) . .
C12 C11 Lu3 56.19(14) . .
C13 C12 C2 122.7 . .
C13 C12 C11 124.3 . .
C2 C12 C11 109.0 . .
C13 C12 Lu3 65.20(19) . .
C2 C12 Lu3 99.44(16) . .
C11 C12 Lu3 88.54(19) . .
C13 C12 Lu7 82.6(3) . .
C2 C12 Lu7 68.0(3) . .
C11 C12 Lu7 100.0(3) . .
Lu3 C12 Lu7 31.5(3) . .
C12 C13 C32 124.4 . .
C12 C13 C14 119.3 . .
C32 C13 C14 107.0 . .
C12 C13 Lu3 79.9(2) . .
C32 C13 Lu3 79.44(18) . .
C14 C13 Lu3 80.2(2) . .
C12 C13 Lu7 67.4(3) . .
C32 C13 Lu7 108.2(3) . .
C14 C13 Lu7 67.6(3) . .
Lu3 C13 Lu7 29.1(2) . .
C15 C14 C34 119.0 . .
C15 C14 C13 124.9 . .
C34 C14 C13 109.2 . .
C15 C14 Lu3 96.99(16) . .
C34 C14 Lu3 82.6(2) . .
C13 C14 Lu3 63.4(2) . .
C15 C14 Lu7 66.0(3) . .
C34 C14 Lu7 100.8(3) . .
C13 C14 Lu7 80.8(3) . .
Lu3 C14 Lu7 31.2(3) . .
C14 C15 C16 124.7 . .
C14 C15 C3 119.0 . .
C16 C15 C3 108.8 . .
C14 C15 Lu7 85.0(4) . .
C16 C15 Lu7 88.9(3) . .
C3 C15 Lu7 67.8(3) . .
C14 C15 Lu3 57.23(14) . .
C16 C15 Lu3 101.73(17) . .
C3 C15 Lu3 87.31(18) . .
Lu7 C15 Lu3 28.0(3) . .
C36 C16 C17 106.2 . .
C36 C16 C15 121.0 . .
C17 C16 C15 124.3 . .
C36 C16 Lu7 96.6(2) . .
C17 C16 Lu7 92.0(3) . .
C15 C16 Lu7 57.1(2) . .
C38 C17 C16 108.0 . .
C38 C17 C18 92.6 . .
C16 C17 C18 124.0 . .
C38 C17 Lu6 50.38(19) . .
C16 C17 Lu6 94.2(3) . .
C18 C17 Lu6 60.1(3) . .
C19 C18 C17 135.1 . .
C19 C18 C4 118.2 . .
C17 C18 C4 106.6 . .
C19 C18 Lu2 87.30(18) . .
C17 C18 Lu2 110.64(18) . .
C4 C18 Lu2 65.05(14) . .
C19 C18 Lu6 77.7(3) . .
C17 C18 Lu6 87.6(3) . .
C4 C18 Lu6 107.0(2) . .
Lu2 C18 Lu6 43.8(2) . .
C18 C19 C20 128.3 . .
C18 C19 C40 119.1 . .
C20 C19 C40 89.5 . .
C18 C19 Lu6 68.1(3) . .
C20 C19 Lu6 92.2(3) . .
C40 C19 Lu6 64.2(2) . .
C18 C19 Lu2 58.88(15) . .
C20 C19 Lu2 75.40(15) . .
C40 C19 Lu2 99.77(12) . .
Lu6 C19 Lu2 39.5(2) . .
C18 C19 Lu9 90.7(3) . .
C20 C19 Lu9 72.2(4) . .
C40 C19 Lu9 53.5(3) . .
Lu6 C19 Lu9 23.6(3) . .
Lu2 C19 Lu9 46.7(3) . .
C21 C20 C6 108.5 . .
C21 C20 C19 138.0 . .
C6 C20 C19 108.5 . .
C21 C20 Lu5 81.9(2) . .
C6 C20 Lu5 59.28(15) . .
C19 C20 Lu5 100.7(2) . .
C21 C20 Lu2 110.08(13) . .
C6 C20 Lu2 61.66(12) . .
C19 C20 Lu2 71.89(14) . .
Lu5 C20 Lu2 30.6(2) . .
C21 C20 Lu9 76.3(4) . .
C6 C20 Lu9 102.7(3) . .
C19 C20 Lu9 76.8(4) . .
Lu5 C20 Lu9 44.8(3) . .
Lu2 C20 Lu9 47.0(3) . .
C42 C21 C22 118.0 . .
C42 C21 C20 123.6 . .
C22 C21 C20 108.4 . .
C42 C21 Lu5 104.90(14) . .
C22 C21 Lu5 66.79(18) . .
C20 C21 Lu5 65.5(2) . .
C42 C21 Lu9 67.4(3) . .
C22 C21 Lu9 102.5(3) . .
C20 C21 Lu9 73.0(4) . .
Lu5 C21 Lu9 42.9(3) . .
C23 C22 C21 113.6 . .
C23 C22 C7 128.8 . .
C21 C22 C7 107.8 . .
C23 C22 Lu10 66.8(5) . .
C21 C22 Lu10 95.0(5) . .
C7 C22 Lu10 81.3(5) . .
C23 C22 Lu5 99.4(2) . .
C21 C22 Lu5 81.40(18) . .
C7 C22 Lu5 58.34(15) . .
Lu10 C22 Lu5 32.6(5) . .
C24 C23 C44 125.8 . .
C24 C23 C22 97.5 . .
C44 C23 C22 127.8 . .
C24 C23 Lu10 71.7(5) . .
C44 C23 Lu10 87.6(4) . .
C22 C23 Lu10 79.3(5) . .
C23 C24 C47 107.2 . .
C23 C24 C25 132.3 . .
C47 C24 C25 109.3 . .
C23 C24 Lu10 74.9(5) . .
C47 C24 Lu10 86.5(5) . .
C25 C24 Lu10 77.7(5) . .
C8 C25 C24 134.1 . .
C8 C25 C26 107.6 . .
C24 C25 C26 107.0 . .
C8 C25 Lu10 85.5(5) . .
C24 C25 Lu10 64.4(5) . .
C26 C25 Lu10 91.5(4) . .
C8 C25 Lu5 55.32(18) . .
C24 C25 Lu5 87.78(18) . .
C26 C25 Lu5 103.66(15) . .
Lu10 C25 Lu5 30.5(5) . .
C27 C26 C48 124.2 . .
C27 C26 C25 119.1 . .
C48 C26 C25 108.1 . .
C27 C26 Lu10 99.3(4) . .
C48 C26 Lu10 82.3(4) . .
C25 C26 Lu10 56.6(3) . .
C10 C27 C26 136.4 . .
C10 C27 C28 106.9 . .
C26 C27 C28 110.5 . .
C50 C28 C29 108.8 . .
C50 C28 C27 124.9 . .
C29 C28 C27 117.5 . .
C30 C29 C52 117.8 . .
C30 C29 C28 128.7 . .
C52 C29 C28 109.1 . .
C29 C30 C31 120.8 . .
C29 C30 C11 108.9 . .
C31 C30 C11 126.3 . .
C29 C30 Lu3 116.94(14) . .
C31 C30 Lu3 67.58(16) . .
C11 C30 Lu3 72.87(16) . .
C32 C31 C54 111.5 . .
C32 C31 C30 124.4 . .
C54 C31 C30 118.5 . .
C32 C31 Lu3 61.78(16) . .
C54 C31 Lu3 104.56(17) . .
C30 C31 Lu3 82.93(19) . .
C31 C32 C33 125.5 . .
C31 C32 C13 115.2 . .
C33 C32 C13 108.0 . .
C31 C32 Lu3 87.05(18) . .
C33 C32 Lu3 83.4(2) . .
C13 C32 Lu3 64.11(17) . .
C31 C32 Lu1 83.97(19) . .
C33 C32 Lu1 62.13(15) . .
C13 C32 Lu1 92.5(2) . .
Lu3 C32 Lu1 30.49(19) . .
C56 C33 C32 119.3 . .
C56 C33 C34 119.3 . .
C32 C33 C34 109.4 . .
C56 C33 Lu1 64.3(2) . .
C32 C33 Lu1 88.0(2) . .
C34 C33 Lu1 84.7(2) . .
C56 C33 Lu3 95.97(16) . .
C32 C33 Lu3 64.05(19) . .
C34 C33 Lu3 74.23(16) . .
Lu1 C33 Lu3 32.7(2) . .
C35 C34 C14 118.4 . .
C35 C34 C33 126.4 . .
C14 C34 C33 106.1 . .
C35 C34 Lu3 98.78(17) . .
C14 C34 Lu3 64.65(17) . .
C33 C34 Lu3 73.90(14) . .
C35 C34 Lu1 82.4(2) . .
C14 C34 Lu1 95.49(18) . .
C33 C34 Lu1 64.38(19) . .
Lu3 C34 Lu1 30.91(19) . .
C35 C34 Lu4 63.57(17) . .
C14 C34 Lu4 95.14(17) . .
C33 C34 Lu4 85.24(15) . .
Lu3 C34 Lu4 38.2(2) . .
Lu1 C34 Lu4 21.54(15) . .
C34 C35 C58 135.6 . .
C34 C35 C36 137.4 . .
C58 C35 C36 79.8 . .
C34 C35 Lu4 92.6(2) . .
C58 C35 Lu4 64.9(2) . .
C36 C35 Lu4 82.55(18) . .
C34 C35 Lu1 74.65(19) . .
C58 C35 Lu1 73.2(2) . .
C36 C35 Lu1 103.14(17) . .
Lu4 C35 Lu1 21.00(16) . .
C34 C35 Lu3 59.48(14) . .
C58 C35 Lu3 99.67(14) . .
C36 C35 Lu3 98.18(13) . .
Lu4 C35 Lu3 36.1(2) . .
Lu1 C35 Lu3 28.44(18) . .
C16 C36 C37 108.1 . .
C16 C36 C35 98.3 . .
C37 C36 C35 138.6 . .
C16 C36 Lu4 97.17(18) . .
C37 C36 Lu4 83.64(19) . .
C35 C36 Lu4 61.49(17) . .
C60 C37 C36 115.3 . .
C60 C37 C38 123.7 . .
C36 C37 C38 107.1 . .
C60 C37 Lu6 85.9(2) . .
C36 C37 Lu6 99.8(2) . .
C38 C37 Lu6 50.8(2) . .
C17 C38 C39 138.0 . .
C17 C38 C37 106.4 . .
C39 C38 C37 114.6 . .
C17 C38 Lu6 99.1(3) . .
C39 C38 Lu6 67.6(3) . .
C37 C38 Lu6 97.6(3) . .
C38 C39 C62 112.2 . .
C38 C39 C40 129.6 . .
C62 C39 C40 105.4 . .
C38 C39 Lu6 73.0(4) . .
C62 C39 Lu6 81.0(3) . .
C40 C39 Lu6 81.4(4) . .
C38 C39 Lu9 99.3(3) . .
C62 C39 Lu9 70.5(4) . .
C40 C39 Lu9 63.0(4) . .
Lu6 C39 Lu9 26.3(4) . .
C41 C40 C39 108.8 . .
C41 C40 C19 141.0 . .
C39 C40 C19 98.5 . .
C41 C40 Lu9 68.1(4) . .
C39 C40 Lu9 82.2(4) . .
C19 C40 Lu9 89.4(4) . .
C41 C40 Lu6 93.5(3) . .
C39 C40 Lu6 61.3(3) . .
C19 C40 Lu6 75.5(3) . .
Lu9 C40 Lu6 28.1(4) . .
C63 C41 C40 108.5 . .
C63 C41 C42 130.2 . .
C40 C41 C42 109.7 . .
C63 C41 Lu9 74.7(4) . .
C40 C41 Lu9 74.2(5) . .
C42 C41 Lu9 86.2(4) . .
C63 C41 Lu6 74.2(2) . .
C40 C41 Lu6 56.1(2) . .
C42 C41 Lu6 102.5(2) . .
Lu9 C41 Lu6 21.2(4) . .
C43 C42 C21 125.9 . .
C43 C42 C41 102.0 . .
C21 C42 C41 116.1 . .
C43 C42 Lu9 87.3(4) . .
C21 C42 Lu9 83.4(3) . .
C41 C42 Lu9 56.9(3) . .
C42 C43 C44 115.0 . .
C42 C43 C65 129.5 . .
C44 C43 C65 108.2 . .
C42 C43 Lu9 64.4(3) . .
C44 C43 Lu9 106.3(3) . .
C65 C43 Lu9 79.7(3) . .
C23 C44 C43 117.9 . .
C23 C44 C45 122.9 . .
C43 C44 C45 108.0 . .
C23 C44 Lu10 60.7(4) . .
C43 C44 Lu10 91.4(4) . .
C45 C44 Lu10 87.2(4) . .
C46 C45 C66 133.5 . .
C46 C45 C44 110.3 . .
C66 C45 C44 108.1 . .
C46 C45 Lu10 74.9(4) . .
C66 C45 Lu10 100.3(4) . .
C44 C45 Lu10 63.5(3) . .
C47 C46 C45 127.7 . .
C47 C46 C69 129.0 . .
C45 C46 C69 98.9 . .
C47 C46 Lu10 66.6(4) . .
C45 C46 Lu10 79.1(4) . .
C69 C46 Lu10 110.5(3) . .
C46 C47 C24 124.7 . .
C46 C47 C48 117.4 . .
C24 C47 C48 107.0 . .
C46 C47 Lu10 87.8(4) . .
C24 C47 Lu10 58.2(4) . .
C48 C47 Lu10 92.2(4) . .
C49 C48 C26 124.3 . .
C49 C48 C47 116.7 . .
C26 C48 C47 107.9 . .
C48 C49 C70 124.3 . .
C48 C49 C50 113.0 . .
C70 C49 C50 113.6 . .
C28 C50 C51 104.6 . .
C28 C50 C49 121.5 . .
C51 C50 C49 123.1 . .
C72 C51 C52 114.4 . .
C72 C51 C50 123.0 . .
C52 C51 C50 110.8 . .
C53 C52 C29 119.6 . .
C53 C52 C51 121.0 . .
C29 C52 C51 106.2 . .
C54 C53 C74 105.4 . .
C54 C53 C52 119.9 . .
C74 C53 C52 132.0 . .
C53 C54 C55 108.5 . .
C53 C54 C31 121.2 . .
C55 C54 C31 120.2 . .
C75 C55 C56 105.8 . .
C75 C55 C54 105.5 . .
C56 C55 C54 126.9 . .
C75 C55 Lu1 76.8(2) . .
C56 C55 Lu1 57.67(17) . .
C54 C55 Lu1 89.83(19) . .
C75 C55 Lu8 56.5(3) . .
C56 C55 Lu8 65.8(3) . .
C54 C55 Lu8 99.1(2) . .
Lu1 C55 Lu8 20.8(3) . .
C55 C56 C33 111.9 . .
C55 C56 C57 142.9 . .
C33 C56 C57 101.2 . .
C55 C56 Lu1 91.9(2) . .
C33 C56 Lu1 82.7(3) . .
C57 C56 Lu1 75.7(2) . .
C55 C56 Lu8 87.2(3) . .
C33 C56 Lu8 104.6(3) . .
C57 C56 Lu8 68.0(3) . .
Lu1 C56 Lu8 22.3(3) . .
C55 C56 Lu4 109.77(14) . .
C33 C56 Lu4 81.08(18) . .
C57 C56 Lu4 58.31(16) . .
Lu1 C56 Lu4 18.6(2) . .
Lu8 C56 Lu4 27.8(3) . .
C77 C57 C58 108.0 . .
C77 C57 C56 88.9 . .
C58 C57 C56 146.0 . .
C77 C57 Lu1 72.1(2) . .
C58 C57 Lu1 90.9(2) . .
C56 C57 Lu1 65.9(2) . .
C77 C57 Lu4 78.15(19) . .
C58 C57 Lu4 66.65(18) . .
C56 C57 Lu4 89.3(2) . .
Lu1 C57 Lu4 24.45(18) . .
C77 C57 Lu8 49.6(3) . .
C58 C57 Lu8 90.3(3) . .
C56 C57 Lu8 78.4(3) . .
Lu1 C57 Lu8 24.4(3) . .
Lu4 C57 Lu8 31.1(3) . .
C57 C58 C59 108.0 . .
C57 C58 C35 87.1 . .
C59 C58 C35 142.7 . .
C57 C58 Lu4 78.69(19) . .
C59 C58 Lu4 73.2(2) . .
C35 C58 Lu4 76.9(2) . .
C57 C58 Lu1 58.76(17) . .
C59 C58 Lu1 84.37(17) . .
C35 C58 Lu1 74.6(2) . .
Lu4 C58 Lu1 20.20(14) . .
C57 C58 Lu8 61.0(3) . .
C59 C58 Lu8 65.4(3) . .
C35 C58 Lu8 95.6(3) . .
Lu4 C58 Lu8 26.3(3) . .
Lu1 C58 Lu8 21.1(2) . .
C58 C59 C78 108.0 . .
C58 C59 C60 109.3 . .
C78 C59 C60 135.5 . .
C58 C59 Lu4 71.0(2) . .
C78 C59 Lu4 79.54(18) . .
C60 C59 Lu4 90.39(18) . .
C58 C59 Lu8 85.9(3) . .
C78 C59 Lu8 49.4(3) . .
C60 C59 Lu8 110.7(3) . .
Lu4 C59 Lu8 30.2(3) . .
C37 C60 C61 123.1 . .
C37 C60 C59 120.2 . .
C61 C60 C59 103.9 . .
C37 C60 Lu4 87.41(17) . .
C61 C60 Lu4 88.29(17) . .
C59 C60 Lu4 57.17(15) . .
C62 C61 C60 109.9 . .
C62 C61 C80 125.3 . .
C60 C61 C80 124.7 . .
C62 C61 Lu6 61.7(3) . .
C60 C61 Lu6 88.1(3) . .
C80 C61 Lu6 113.7(2) . .
C62 C61 Lu9 56.9(3) . .
C60 C61 Lu9 110.8(3) . .
C80 C61 Lu9 97.5(3) . .
Lu6 C61 Lu9 22.8(3) . .
C61 C62 C63 111.3 . .
C61 C62 C39 128.8 . .
C63 C62 C39 109.8 . .
C61 C62 Lu6 87.3(3) . .
C63 C62 Lu6 92.4(3) . .
C39 C62 Lu6 61.7(3) . .
C61 C62 Lu9 95.1(3) . .
C63 C62 Lu9 65.4(4) . .
C39 C62 Lu9 75.7(4) . .
Lu6 C62 Lu9 27.1(4) . .
C41 C63 C64 118.7 . .
C41 C63 C62 107.2 . .
C64 C63 C62 127.1 . .
C41 C63 Lu9 68.2(4) . .
C64 C63 Lu9 94.0(4) . .
C62 C63 Lu9 79.3(5) . .
C41 C63 Lu6 76.7(3) . .
C64 C63 Lu6 108.7(2) . .
C62 C63 Lu6 56.8(2) . .
Lu9 C63 Lu6 22.6(4) . .
C65 C64 C63 112.1 . .
C65 C64 C81 121.2 . .
C63 C64 C81 114.9 . .
C65 C64 Lu9 84.5(4) . .
C63 C64 Lu9 55.1(3) . .
C81 C64 Lu9 94.9(3) . .
C64 C65 C43 126.3 . .
C64 C65 C66 120.9 . .
C43 C65 C66 107.1 . .
C45 C66 C65 108.1 . .
C45 C66 C67 129.3 . .
C65 C66 C67 113.8 . .
C68 C67 C82 119.7 . .
C68 C67 C66 99.2 . .
C82 C67 C66 122.6 . .
C67 C68 C85 116.7 . .
C67 C68 C69 129.2 . .
C85 C68 C69 107.3 . .
C70 C69 C68 108.3 . .
C70 C69 C46 114.0 . .
C68 C69 C46 126.2 . .
C69 C70 C71 108.0 . .
C69 C70 C49 118.0 . .
C71 C70 C49 121.3 . .
C85 C71 C70 107.4 . .
C85 C71 C72 116.9 . .
C70 C71 C72 124.5 . .
C51 C72 C73 115.0 . .
C51 C72 C71 113.9 . .
C73 C72 C71 120.3 . .
C74 C73 C72 130.8 . .
C74 C73 C86 109.2 . .
C72 C73 C86 118.9 . .
C53 C74 C75 104.8 . .
C53 C74 C73 103.7 . .
C75 C74 C73 116.0 . .
C55 C75 C74 104.9 . .
C55 C75 C76 128.0 . .
C74 C75 C76 125.4 . .
C55 C75 Lu8 97.4(3) . .
C74 C75 Lu8 117.0(3) . .
C76 C75 Lu8 72.8(3) . .
C55 C75 Lu1 74.61(18) . .
C74 C75 Lu1 118.30(17) . .
C76 C75 Lu1 90.7(2) . .
Lu8 C75 Lu1 23.2(3) . .
C75 C76 C87 109.8 . .
C75 C76 C77 101.0 . .
C87 C76 C77 112.6 . .
C75 C76 Lu8 74.5(3) . .
C87 C76 Lu8 79.9(3) . .
C77 C76 Lu8 52.7(3) . .
C57 C77 C78 108.0 . .
C57 C77 C76 140.2 . .
C78 C77 C76 111.7 . .
C57 C77 Lu8 97.4(4) . .
C78 C77 Lu8 72.9(4) . .
C76 C77 Lu8 91.5(5) . .
C57 C77 Lu1 73.3(2) . .
C78 C77 Lu1 90.5(2) . .
C76 C77 Lu1 103.2(2) . .
Lu8 C77 Lu1 26.2(3) . .
C57 C77 Lu4 69.06(18) . .
C78 C77 Lu4 70.8(2) . .
C76 C77 Lu4 121.96(16) . .
Lu8 C77 Lu4 31.4(4) . .
Lu1 C77 Lu4 23.60(19) . .
C79 C78 C59 106.3 . .
C79 C78 C77 143.4 . .
C59 C78 C77 108.0 . .
C79 C78 Lu8 96.1(4) . .
C59 C78 Lu8 99.2(4) . .
C77 C78 Lu8 66.1(4) . .
C79 C78 Lu4 106.36(19) . .
C59 C78 Lu4 66.36(17) . .
C77 C78 Lu4 76.60(19) . .
Lu8 C78 Lu4 32.9(4) . .
C79 C78 Lu1 112.37(13) . .
C59 C78 Lu1 85.2(2) . .
C77 C78 Lu1 58.89(15) . .
Lu8 C78 Lu1 18.9(4) . .
Lu4 C78 Lu1 21.55(14) . .
C78 C79 C88 98.6 . .
C78 C79 C80 129.4 . .
C88 C79 C80 120.0 . .
C78 C79 Lu8 53.5(3) . .
C88 C79 Lu8 76.7(3) . .
C80 C79 Lu8 102.4(3) . .
C81 C80 C79 120.0 . .
C81 C80 C61 118.2 . .
C79 C80 C61 114.4 . .
C80 C81 C82 120.0 . .
C80 C81 C64 121.0 . .
C82 C81 C64 117.5 . .
C81 C82 C83 120.0 . .
C81 C82 C67 120.2 . .
C83 C82 C67 118.0 . .
C88 C83 C82 120.0 . .
C88 C83 C84 114.3 . .
C82 C83 C84 121.5 . .
C83 C84 C85 119.4 . .
C83 C84 C86 104.3 . .
C85 C84 C86 119.3 . .
C84 C85 C71 123.5 . .
C84 C85 C68 120.3 . .
C71 C85 C68 108.9 . .
C87 C86 C84 104.9 . .
C87 C86 C73 126.4 . .
C84 C86 C73 120.5 . .
C86 C87 C88 112.5 . .
C86 C87 C76 118.2 . .
C88 C87 C76 119.2 . .
C86 C87 Lu8 99.4(3) . .
C88 C87 Lu8 73.2(3) . .
C76 C87 Lu8 67.8(3) . .
C83 C88 C79 120.0 . .
C83 C88 C87 101.3 . .
C79 C88 C87 132.3 . .
C83 C88 Lu8 104.5(3) . .
C79 C88 Lu8 72.2(3) . .
C87 C88 Lu8 75.3(3) . .
N2A Ni1A N2A 177.9(4) . 6_565
N2A Ni1A N3A 90.0(2) . .
N2A Ni1A N3A 90.0(2) 6_565 .
N2A Ni1A N1A 90.0(2) . .
N2A Ni1A N1A 90.0(2) 6_565 .
N3A Ni1A N1A 178.9(4) . .
C6A N2A C13A 104.4(7) . .
C6A N2A Ni1A 127.7(6) . .
C13A N2A Ni1A 127.8(6) . .
C3A C2A C1A 112.6(7) . .
N4A Ni2A N4A 180.0(3) 6_565 2_756
N4A Ni2A N4A 89.5(5) 6_565 5_766
N4A Ni2A N4A 90.5(5) 2_756 5_766
N4A Ni2A N4A 90.5(5) 6_565 .
N4A Ni2A N4A 89.5(5) 2_756 .
N4A Ni2A N4A 180.0 5_766 .
C15A N3A C15A 104.6(10) 6_565 .
C15A N3A Ni1A 127.7(5) 6_565 .
C15A N3A Ni1A 127.7(5) . .
C3A C3A C4A 106.4(4) 6_565 .
C3A C3A C2A 128.5(5) 6_565 .
C4A C3A C2A 125.0(7) . .
N1A C4A C5A 124.8(7) . .
N1A C4A C3A 111.2(7) . .
C5A C4A C3A 124.0(7) . .
C27A N4A C20A 103.9(8) . .
C27A N4A Ni2A 127.7(6) . .
C20A N4A Ni2A 128.4(7) . .
C6A C5A C4A 124.7(7) . .
C5A C6A N2A 125.2(7) . .
C5A C6A C7A 123.7(7) . .
N2A C6A C7A 111.1(7) . .
C10A C7A C6A 106.2(7) . .
C10A C7A C8A 129.8(8) . .
C6A C7A C8A 124.0(8) . .
C7A C8A C9A 111.8(8) . .
C7A C10A C13A 107.3(7) . .
C7A C10A C11A 128.7(8) . .
C13A C10A C11A 124.1(8) . .
C10A C11A C12A 112.8(8) . .
C14A C13A N2A 124.9(7) . .
C14A C13A C10A 124.1(7) . .
N2A C13A C10A 111.0(7) . .
C13A C14A C15A 124.8(7) . .
C14A C15A N3A 124.7(8) . .
C14A C15A C16A 124.6(8) . .
N3A C15A C16A 110.7(8) . .
C16A C16A C15A 107.0(5) 6_565 .
C16A C16A C17A 129.0(5) 6_565 .
C15A C16A C17A 123.9(8) . .
C16A C17A C18A 114.1(8) . .
C20A C19A C20A 124.1(12) . 2_756
C19A C20A N4A 124.8(9) . .
C19A C20A C21A 123.9(9) . .
N4A C20A C21A 111.3(9) . .
C24A C21A C20A 106.8(9) . .
C24A C21A C22A 127.6(10) . .
C20A C21A C22A 125.6(10) . .
C21A C22A C23A 112.6(9) . .
C21A C24A C27A 106.5(9) . .
C21A C24A C25A 129.5(10) . .
C27A C24A C25A 123.9(10) . .
C26A C25A C24A 113.4(10) . .
N4A C27A C28A 124.8(10) . .
N4A C27A C24A 111.6(9) . .
C28A C27A C24A 123.7(10) . .
C27A C28A C27A 124.5(14) . 6_565
C4A N1A C4A 104.8(10) . 6_565
C4A N1A Ni1A 127.6(5) . .
C4A N1A Ni1A 127.6(5) 6_565 .
C2D C1D C2D 123(5) 6 .
C3D C4D C3D 120(3) 6 .
C1D C2D C3D 117(3) . .
C2D C3D C4D 118(2) . .
loop_
_geom_bond_atom_site_label_1
_geom_bond_atom_site_label_2
_geom_bond_distance
_geom_bond_site_symmetry_2
Lu1 Lu4 1.028(7) .
Lu1 Lu8 1.066(12) .
Lu1 Lu7 1.259(12) 6_565
Lu1 Lu3 1.431(9) .
Lu1 Lu1 1.676(15) 6_565
Lu1 Lu6 2.147(14) 6_565
Lu1 N1 2.162(11) .
Lu1 C56 2.262(6) .
Lu1 Lu8 2.296(14) 6_565
Lu1 C77 2.385(9) .
Lu1 C57 2.401(7) .
Lu1 Lu7 2.409(13) .
N1 Lu3 2.109(12) .
N1 Lu4 2.132(13) .
N1 Lu7 2.142(13) 6_565
N1 Lu7 2.142(13) .
N1 Lu1 2.162(11) 6_565
N1 Lu8 2.198(14) 6_565
N1 Lu8 2.198(14) .
N1 Lu9 2.244(14) 6_565
N1 Lu9 2.244(13) .
N1 Lu10 2.27(2) 6_565
N1 Lu10 2.27(2) .
Lu2 Lu5 1.408(8) .
Lu2 Lu7 1.525(13) .
Lu2 Lu6 1.792(9) .
Lu2 C5 1.992(6) .
Lu2 C4 2.176(6) .
Lu2 Lu9 2.222(15) .
Lu2 C18 2.308(6) .
Lu2 C6 2.423(7) .
Lu2 C1 2.435(6) .
Lu2 Lu1 2.437(8) 6_565
Lu2 Lu8 2.490(14) 6_565
Lu3 Lu7 1.319(13) 6_565
Lu3 Lu7 1.319(13) .
Lu3 Lu1 1.431(9) 6_565
Lu3 Lu4 1.754(11) .
Lu3 C13 2.142(7) .
Lu3 C12 2.323(8) .
Lu3 C32 2.341(7) .
Lu3 C14 2.360(7) .
Lu3 Lu8 2.391(14) .
Lu3 Lu8 2.392(14) 6_565
Lu4 Lu1 1.028(7) 6_565
Lu4 Lu8 1.354(14) 6_565
Lu4 Lu8 1.354(14) .
Lu4 Lu7 2.151(12) .
Lu4 Lu7 2.151(12) 6_565
Lu4 C58 2.293(7) .
Lu4 C59 2.321(9) .
Lu4 C57 2.449(7) .
Lu4 C35 2.466(8) .
Lu5 Lu10 1.42(2) .
Lu5 Lu9 2.064(14) .
Lu5 C7 2.197(7) .
Lu5 C6 2.198(7) .
Lu5 C8 2.305(7) .
Lu5 Lu6 2.390(12) .
Lu5 C5 2.533(9) .
Lu5 C20 2.545(8) .
Lu5 C22 2.574(8) .
Lu5 Lu7 2.613(14) .
Lu6 Lu9 1.157(16) .
Lu6 Lu8 1.410(15) 6_565
Lu6 Lu1 2.146(14) 6_565
Lu6 C39 2.154(9) .
Lu6 C38 2.228(11) .
Lu6 Lu7 2.243(15) .
Lu6 C62 2.416(10) .
Lu6 C40 2.427(12) .
Lu6 C18 2.479(11) .
Lu7 Lu1 1.259(12) 6_565
Lu7 Lu8 1.935(16) 6_565
Lu7 C3 2.236(10) .
Lu7 C15 2.301(11) .
Lu7 C2 2.361(10) .
Lu7 C12 2.495(11) .
Lu8 Lu6 1.410(15) 6_565
Lu8 Lu7 1.935(16) 6_565
Lu8 C77 1.979(11) .
Lu8 C78 2.068(13) .
Lu8 Lu1 2.296(14) 6_565
Lu8 Lu9 2.306(19) 6_565
Lu8 Lu8 2.47(3) 6_565
Lu8 C76 2.486(13) .
Lu9 C41 2.241(13) .
Lu9 Lu8 2.306(19) 6_565
Lu9 C40 2.324(14) .
Lu9 C63 2.327(13) .
Lu9 Lu10 2.35(2) .
Lu9 C62 2.514(15) .
Lu9 C39 2.584(16) .
Lu9 C42 2.670(16) .
Lu10 Lu10 1.58(3) 6_565
Lu10 C24 2.28(2) .
Lu10 C23 2.32(2) .
Lu10 C25 2.471(18) .
Lu10 C22 2.479(17) .
Lu10 C44 2.66(2) .
Lu10 C47 2.68(2) .
Lu10 C7 2.702(17) .
C1 C9 1.4736 .
C1 C5 1.4770 .
C1 C2 1.4804 .
C2 C12 1.4116 .
C2 C3 1.4661 .
C3 C4 1.4915 .
C3 C15 1.5514 .
C4 C5 1.4843 .
C4 C18 1.5688 .
C5 C6 1.5419 .
C6 C7 1.5076 .
C6 C20 1.5123 .
C7 C22 1.5131 .
C7 C8 1.5668 .
C8 C9 1.4033 .
C8 C25 1.4606 .
C9 C10 1.5141 .
C10 C11 1.2853 .
C10 C27 1.3566 .
C11 C30 1.4751 .
C11 C12 1.6145 .
C12 C13 1.3496 .
C13 C32 1.4143 .
C13 C14 1.4221 .
C14 C15 1.2207 .
C14 C34 1.4149 .
C15 C16 1.5299 .
C16 C36 1.4823 .
C16 C17 1.4902 .
C17 C38 1.4687 .
C17 C18 1.5258 .
C18 C19 1.5008 .
C19 C20 1.5313 .
C19 C40 1.7426 .
C20 C21 1.5091 .
C21 C42 1.4077 .
C21 C22 1.4761 .
C22 C23 1.4074 .
C23 C24 1.3206 .
C23 C44 1.3935 .
C24 C47 1.5485 .
C24 C25 1.5541 .
C25 C26 1.5622 .
C26 C27 1.3782 .
C26 C48 1.5577 .
C27 C28 1.5603 .
C28 C50 1.4521 .
C28 C29 1.4556 .
C29 C30 1.3816 .
C29 C52 1.4251 .
C30 C31 1.4129 .
C31 C32 1.3750 .
C31 C54 1.3869 .
C32 C33 1.4021 .
C33 C56 1.3711 .
C33 C34 1.4208 .
C34 C35 1.1133 .
C35 C58 1.5635 .
C35 C36 1.6478 .
C36 C37 1.4902 .
C37 C60 1.3218 .
C37 C38 1.5048 .
C38 C39 1.4791 .
C39 C62 1.4822 .
C39 C40 1.4875 .
C40 C41 1.4765 .
C41 C63 1.4569 .
C41 C42 1.6078 .
C42 C43 1.4041 .
C43 C44 1.4461 .
C43 C65 1.4539 .
C44 C45 1.4521 .
C45 C46 1.3247 .
C45 C66 1.4415 .
C46 C47 1.2567 .
C46 C69 1.5477 .
C47 C48 1.5646 .
C48 C49 1.4097 .
C49 C70 1.4805 .
C49 C50 1.4961 .
C50 C51 1.4658 .
C51 C72 1.4402 .
C51 C52 1.4427 .
C52 C53 1.3811 .
C53 C54 1.3521 .
C53 C74 1.3547 .
C54 C55 1.3562 .
C55 C75 1.3265 .
C55 C56 1.3550 .
C56 C57 1.5400 .
C57 C77 1.4198 .
C57 C58 1.4200 .
C58 C59 1.4200 .
C59 C78 1.4200 .
C59 C60 1.4812 .
C60 C61 1.4368 .
C61 C62 1.4118 .
C61 C80 1.4808 .
C62 C63 1.4785 .
C63 C64 1.4584 .
C64 C65 1.4489 .
C64 C81 1.4745 .
C65 C66 1.4612 .
C66 C67 1.4793 .
C67 C68 1.4503 .
C67 C82 1.4616 .
C68 C85 1.4556 .
C68 C69 1.4619 .
C69 C70 1.4546 .
C70 C71 1.4655 .
C71 C85 1.4547 .
C71 C72 1.4772 .
C72 C73 1.4704 .
C73 C74 1.4267 .
C73 C86 1.4763 .
C74 C75 1.3812 .
C75 C76 1.4077 .
C76 C87 1.4350 .
C76 C77 1.4539 .
C77 C78 1.4201 .
C78 C79 1.3031 .
C79 C88 1.3900 .
C79 C80 1.3900 .
C80 C81 1.3900 .
C81 C82 1.3900 .
C82 C83 1.3900 .
C83 C88 1.3900 .
C83 C84 1.4250 .
C84 C85 1.4279 .
C84 C86 1.4308 .
C86 C87 1.4179 .
C87 C88 1.4306 .
Ni1A N2A 1.956(8) .
Ni1A N2A 1.956(8) 6_565
Ni1A N3A 1.969(11) .
Ni1A N1A 1.977(12) .
C1A C2A 1.535(12) .
N2A C6A 1.378(11) .
N2A C13A 1.378(11) .
C2A C3A 1.505(11) .
Ni2A N4A 1.956(8) 6_565
Ni2A N4A 1.956(8) 2_756
Ni2A N4A 1.956(8) 5_766
Ni2A N4A 1.956(8) .
N3A C15A 1.377(10) 6_565
N3A C15A 1.377(10) .
C3A C3A 1.356(16) 6_565
C3A C4A 1.435(10) .
C4A N1A 1.367(10) .
C4A C5A 1.379(11) .
N4A C27A 1.378(13) .
N4A C20A 1.385(12) .
C5A C6A 1.362(11) .
C6A C7A 1.455(11) .
C7A C10A 1.344(12) .
C7A C8A 1.502(12) .
C8A C9A 1.539(13) .
C10A C13A 1.443(11) .
C10A C11A 1.509(12) .
C11A C12A 1.531(15) .
C13A C14A 1.369(11) .
C14A C15A 1.372(12) .
C15A C16A 1.445(11) .
C16A C16A 1.334(18) 6_565
C16A C17A 1.509(12) .
C17A C18A 1.521(14) .
C19A C20A 1.372(12) .
C19A C20A 1.372(11) 2_756
C20A C21A 1.438(14) .
C21A C24A 1.352(15) .
C21A C22A 1.501(14) .
C22A C23A 1.516(17) .
C24A C27A 1.442(14) .
C24A C25A 1.505(16) .
C25A C26A 1.478(19) .
C27A C28A 1.379(12) .
C28A C27A 1.379(12) 6_565
N1A C4A 1.367(10) 6_565
C1D C2D 1.22(3) 6
C1D C2D 1.22(3) .
C4D C3D 1.30(2) 6
C4D C3D 1.30(2) .
C2D C3D 1.28(3) .
