#------------------------------------------------------------------------------
#$Date: 2018-10-30 01:17:58 +0200 (Tue, 30 Oct 2018) $
#$Revision: 211694 $
#$URL: file:///home/coder/svn-repositories/cod/cif/1/55/01/1550132.cif $
#------------------------------------------------------------------------------
#
# This file is available in the Crystallography Open Database (COD),
# http://www.crystallography.net/
#
# All data on this site have been placed in the public domain by the
# contributors.
#
data_1550132
loop_
_publ_author_name
'Condakes, Matthew'
'Rosen, Rachel'
'Harwood, Stephen'
'Maimone, Thomas'
_publ_section_title
;
 A Copper-Catalyzed Double Coupling Enables a 3-Step Synthesis of the
 Quassinoid Core Architecture
;
_journal_name_full               'Chemical Science'
_journal_paper_doi               10.1039/C8SC03835J
_journal_year                    2019
_chemical_formula_moiety         'C11 H16 O'
_chemical_formula_sum            'C11 H16 O'
_chemical_formula_weight         164.24
_space_group_crystal_system      tetragonal
_space_group_IT_number           88
_space_group_name_Hall           '-I 4ad'
_space_group_name_H-M_alt        'I 41/a'
_symmetry_space_group_name_Hall  '-I 4ad'
_symmetry_space_group_name_H-M   'I 41/a :2'
_atom_sites_solution_hydrogens   difmap
_atom_sites_solution_primary     dual
_audit_creation_date             2018-03-30
_audit_creation_method
;
Olex2 1.2-ac3
(compiled 2017.08.10 svn.r3458 for OlexSys, GUI svn.r5381)
;
_audit_update_record
;
2018-07-19 deposited with the CCDC.
2018-10-29 downloaded from the CCDC.
;
_cell_angle_alpha                90
_cell_angle_beta                 90
_cell_angle_gamma                90
_cell_formula_units_Z            16
_cell_length_a                   22.7253(4)
_cell_length_b                   22.7253(4)
_cell_length_c                   7.5782(2)
_cell_measurement_reflns_used    5853
_cell_measurement_temperature    100(2)
_cell_measurement_theta_max      77.6360
_cell_measurement_theta_min      3.8740
_cell_volume                     3913.68(14)
_computing_cell_refinement       'CrysAlisPro 1.171.39.45f (Rigaku OD, 2018)'
_computing_data_collection       'CrysAlisPro 1.171.39.45f (Rigaku OD, 2018)'
_computing_data_reduction        'CrysAlisPro 1.171.39.45f (Rigaku OD, 2018)'
_computing_molecular_graphics    'Olex2 (Dolomanov et al., 2009)'
_computing_publication_material  'Olex2 (Dolomanov et al., 2009)'
_computing_structure_refinement  'ShelXL (Sheldrick, 2015)'
_computing_structure_solution    'ShelXT (Sheldrick, 2015)'
_diffrn_ambient_temperature      100(2)
_diffrn_detector                 'CCD plate'
_diffrn_detector_type            'Pilatus 200K'
_diffrn_measured_fraction_theta_full 0.998
_diffrn_measured_fraction_theta_max 0.972
_diffrn_measurement_details
;
List of Runs (angles in degrees, time in seconds):

  # Type    Start    End  Width  t~exp~   \w     \q     \k     \f   Frames
#--------------------------------------------------------------------------
  1  \w    -15.00  31.00   0.50    1.41    --    0.00 -99.00-120.00   92
  2  \w    -77.00   7.00   0.50    1.41    --    0.00 -38.00 -30.00  168
  3  \w    -79.00   6.00   0.50    1.41    --    0.00 -17.00 175.00  170
  4  \w    138.00 174.00   0.50    5.64    --  106.00  15.00   0.00   72
  5  \w    104.00 135.00   0.50    5.64    --  106.00  15.00   0.00   62
  6  \w     40.00  66.00   0.50    5.64    --  106.00 -30.00-150.00   52
  7  \w     33.00  68.00   0.50    5.64    --  106.00 -45.00   0.00   70
  8  \w     31.00  66.00   0.50    5.64    --  106.00 -30.00  30.00   70
  9  \w     31.00  74.00   0.50    5.64    --  106.00 -45.00  30.00   86
 10  \w     31.00  60.00   0.50    5.64    --  106.00 -30.00 120.00   58
 11  \w     33.00  72.00   0.50    5.64    --  106.00 -45.00 120.00   78
 12  \w     35.00 135.00   0.50    5.64    --  106.00-150.00 172.00  200
 13  \w    -78.00 -48.00   0.50    5.64    -- -100.00  45.00  60.00   60
 14  \w   -112.00 -24.00   0.50    5.64    -- -100.00 111.00 153.00  176
 15  \w   -108.00 -33.00   0.50    5.64    -- -100.00 111.00 150.00  150
 16  \w   -175.00 -80.00   0.50    5.64    -- -100.00-123.00 -25.00  190
;
_diffrn_measurement_device       'four-circle diffractometer'
_diffrn_measurement_device_type  'ROD, Synergy Custom DW system, Pilatus 200K'
_diffrn_measurement_method       '\w scans'
_diffrn_orient_matrix_type
'CrysAlisPro convention (1999,Acta A55,543-557)'
_diffrn_orient_matrix_UB_11      -0.0025809000
_diffrn_orient_matrix_UB_12      0.0650540000
_diffrn_orient_matrix_UB_13      0.0561698000
_diffrn_orient_matrix_UB_21      -0.0149869000
_diffrn_orient_matrix_UB_22      0.0177579000
_diffrn_orient_matrix_UB_23      -0.1909423000
_diffrn_orient_matrix_UB_31      -0.0660984000
_diffrn_orient_matrix_UB_32      -0.0066393000
_diffrn_orient_matrix_UB_33      0.0413164000
_diffrn_radiation_monochromator  mirror
_diffrn_radiation_probe          x-ray
_diffrn_radiation_type           CuK\a
_diffrn_radiation_wavelength     1.54184
_diffrn_reflns_av_R_equivalents  0.0386
_diffrn_reflns_av_unetI/netI     0.0215
_diffrn_reflns_Laue_measured_fraction_full 0.998
_diffrn_reflns_Laue_measured_fraction_max 0.972
_diffrn_reflns_limit_h_max       14
_diffrn_reflns_limit_h_min       -28
_diffrn_reflns_limit_k_max       27
_diffrn_reflns_limit_k_min       -28
_diffrn_reflns_limit_l_max       9
_diffrn_reflns_limit_l_min       -9
_diffrn_reflns_number            10823
_diffrn_reflns_point_group_measured_fraction_full 0.998
_diffrn_reflns_point_group_measured_fraction_max 0.972
_diffrn_reflns_theta_full        67.684
_diffrn_reflns_theta_max         79.073
_diffrn_reflns_theta_min         3.890
_diffrn_source                   'Rotating-anode X-ray tube'
_diffrn_source_type              'Rigaku (Cu) X-ray Source'
_exptl_absorpt_coefficient_mu    0.533
_exptl_absorpt_correction_T_max  1.00000
_exptl_absorpt_correction_T_min  0.72366
_exptl_absorpt_correction_type   multi-scan
_exptl_absorpt_process_details
;
CrysAlisPro 1.171.39.45f (Rigaku Oxford Diffraction, 2018)
Empirical absorption correction using spherical harmonics,
 implemented in SCALE3 ABSPACK scaling algorithm.
;
_exptl_crystal_colour            colourless
_exptl_crystal_colour_primary    colourless
_exptl_crystal_density_diffrn    1.115
_exptl_crystal_description       needle
_exptl_crystal_F_000             1440
_exptl_crystal_size_max          0.24
_exptl_crystal_size_mid          0.06
_exptl_crystal_size_min          0.05
_refine_diff_density_max         0.223
_refine_diff_density_min         -0.185
_refine_diff_density_rms         0.043
_refine_ls_extinction_method     none
_refine_ls_goodness_of_fit_ref   1.081
_refine_ls_hydrogen_treatment    refall
_refine_ls_matrix_type           full
_refine_ls_number_parameters     173
_refine_ls_number_reflns         2055
_refine_ls_number_restraints     0
_refine_ls_restrained_S_all      1.081
_refine_ls_R_factor_all          0.0579
_refine_ls_R_factor_gt           0.0529
_refine_ls_shift/su_max          0.000
_refine_ls_shift/su_mean         0.000
_refine_ls_structure_factor_coef Fsqd
_refine_ls_weighting_details
'w=1/[\s^2^(Fo^2^)+(0.0628P)^2^+4.5410P] where P=(Fo^2^+2Fc^2^)/3'
_refine_ls_weighting_scheme      calc
_refine_ls_wR_factor_gt          0.1395
_refine_ls_wR_factor_ref         0.1431
_reflns_Friedel_coverage         0.000
_reflns_number_gt                1828
_reflns_number_total             2055
_reflns_threshold_expression     'I > 2\s(I)'
_cod_data_source_file            c8sc03835j2.cif
_cod_data_source_block           mc003
_cod_original_cell_volume        3913.68(17)
_cod_database_code               1550132
_shelx_shelxl_version_number     2017/1
_chemical_oxdiff_formula         'C11 H16 O1'
_shelx_space_group_comment
;
The symmetry employed for this shelxl refinement is uniquely defined
by the following loop, which should always be used as a source of
symmetry information in preference to the above space-group names.
They are only intended as comments.
;
_shelx_estimated_absorpt_t_max   0.974
_shelx_estimated_absorpt_t_min   0.883
_reflns_odcompleteness_completeness 99.63
_reflns_odcompleteness_iscentric 1
_reflns_odcompleteness_theta     74.33
_olex2_refinement_description
;
;
_shelx_res_file
;
TITL mc003_a.res in I4(1)/a
    mc003.res
    created by SHELXL-2017/1 at 10:05:01 on 30-Mar-2018
REM Old TITL mc003_a.res in I4(1)/a
REM SHELXT solution in I4(1)/a
REM R1 0.151, Rweak 0.054, Alpha 0.021, Orientation as input
REM Formula found by SHELXT: C10 O2
CELL 1.54184 22.7253 22.7253 7.5782 90 90 90
ZERR 16 0.0004 0.0004 0.0002 0 0 0
LATT 2
SYMM 0.5-X,-Y,0.5+Z
SYMM 0.75-Y,0.25+X,0.25+Z
SYMM 0.75+Y,0.75-X,0.75+Z
SFAC C H O
UNIT 176 256 16

L.S. 10
PLAN  20
SIZE 0.05 0.06 0.24
TEMP -173(2)
BOND $H
list 4
fmap 2
ACTA
REM <olex2.extras>
REM <HklSrc "%.\\MC003.hkl">
REM </olex2.extras>

WGHT    0.062800    4.541000
FVAR       0.31392
O1    3    0.213911    0.457326    0.378709    11.00000    0.03261    0.03368 =
         0.03472    0.00704   -0.00450   -0.00645
C9    1    0.164855    0.335816    0.584337    11.00000    0.02609    0.03069 =
         0.03095   -0.00280   -0.00022   -0.00014
C2    1    0.156306    0.393858    0.555610    11.00000    0.02497    0.03138 =
         0.03095   -0.00073    0.00040   -0.00046
C3    1    0.162257    0.420866    0.373949    11.00000    0.02625    0.03036 =
         0.03339    0.00088   -0.00239   -0.00137
C6    1    0.183503    0.294124    0.437464    11.00000    0.03427    0.02864 =
         0.03366   -0.00224   -0.00145    0.00380
C10   1    0.157916    0.310763    0.761966    11.00000    0.03566    0.03380 =
         0.03224   -0.00029    0.00092   -0.00097
C1    1    0.142447    0.437956    0.698052    11.00000    0.03691    0.03071 =
         0.03513   -0.00334    0.00220    0.00142
C4    1    0.167180    0.376431    0.225941    11.00000    0.03725    0.03619 =
         0.02795    0.00234   -0.00029   -0.00409
C7    1    0.135258    0.253498    0.374317    11.00000    0.04755    0.02899 =
         0.03795   -0.00227   -0.00386   -0.00079
C5    1    0.209258    0.327585    0.279377    11.00000    0.03678    0.03738 =
         0.03344   -0.00668    0.00457    0.00179
C11   1    0.165902    0.255015    0.808687    11.00000    0.05461    0.03555 =
         0.03786    0.00479   -0.00127   -0.00241
C8    1    0.079170    0.256444    0.412670    11.00000    0.04457    0.03945 =
         0.05569   -0.00361   -0.00510   -0.00749
H1    2    0.211542    0.483707    0.294573    11.00000    0.05474
H11A  2    0.158989    0.241370    0.935883    11.00000    0.05275
H11B  2    0.177748    0.223983    0.721921    11.00000    0.05688
H8A   2    0.062202    0.288281    0.492166    11.00000    0.05781
H8B   2    0.048824    0.227564    0.365080    11.00000    0.06151
H3    2    0.126607    0.447328    0.352271    11.00000    0.03610
H4A   2    0.126657    0.359723    0.201725    11.00000    0.03374
H6    2    0.216386    0.269537    0.489615    11.00000    0.03482
H4B   2    0.180083    0.396593    0.118855    11.00000    0.03931
H5A   2    0.249588    0.344579    0.315732    11.00000    0.04569
H1A   2    0.176553    0.446994    0.770414    11.00000    0.07202
H5B   2    0.216758    0.299995    0.179896    11.00000    0.03307
H10   2    0.146723    0.337444    0.856555    11.00000    0.03677
H1B   2    0.108132    0.426996    0.773278    11.00000    0.06224
H7    2    0.150177    0.221211    0.291048    11.00000    0.04856
H1C   2    0.133439    0.475710    0.650260    11.00000    0.08130
HKLF 4




REM  mc003_a.res in I4(1)/a
REM R1 =  0.0529 for    1828 Fo > 4sig(Fo)  and  0.0579 for all    2055 data
REM    173 parameters refined using      0 restraints

END

WGHT      0.0630      4.5375

REM Highest difference peak  0.223,  deepest hole -0.185,  1-sigma level  0.043
Q1    1   0.0908  0.2375  0.2694  11.00000  0.05    0.22
Q2    1   0.0908  0.4488  0.6910  11.00000  0.05    0.19
Q3    1   0.1008  0.5006  0.5059  11.00000  0.05    0.17
Q4    1   0.2619  0.4500  0.3807  11.00000  0.05    0.16
Q5    1   0.1992  0.3726  0.6209  11.00000  0.05    0.15
Q6    1   0.1071  0.4694  0.6186  11.00000  0.05    0.15
Q7    1   0.1811  0.3014  0.5529  11.00000  0.05    0.14
Q8    1   0.2176  0.5090  0.4358  11.00000  0.05    0.14
Q9    1   0.1608  0.3261  0.6597  11.00000  0.05    0.14
Q10   1   0.0552  0.2670  0.1247  11.00000  0.05    0.13
Q11   1   0.2123  0.3297  0.1302  11.00000  0.05    0.13
Q12   1   0.1437  0.3559  0.5741  11.00000  0.05    0.12
Q13   1   0.1903  0.3117  0.3487  11.00000  0.05    0.12
Q14   1   0.1057  0.2099  0.6203  11.00000  0.05    0.12
Q15   1   0.1884  0.3483  0.2460  11.00000  0.05    0.12
Q16   1   0.0975  0.3209  0.5532  11.00000  0.05    0.12
Q17   1   0.1466  0.4264  0.8336  11.00000  0.05    0.12
Q18   1   0.1311  0.4138  0.8130  11.00000  0.05    0.11
Q19   1   0.1005  0.2008  1.0259  11.00000  0.05    0.11
Q20   1   0.2180  0.3096  0.7950  11.00000  0.05    0.11
;
_shelx_res_checksum              41973
_shelx_hkl_file
;
   0   0  -2    0.44    0.60
   0   0   4  315.96    9.93
   0   0   6    0.02    1.03
   0   0   8    0.05    1.32
   0  -1   1  852.68   23.11
   1   0  -1  830.29   23.16
   0   1  -1  785.71   23.06
   0   1   3  107.42    3.96
  -1   0   3  113.61    3.94
   1   0  -3  116.01    3.72
  -1   0  -5   46.32    1.90
   0   1   5   46.46    1.87
   0  -1   7   35.17    2.00
  -1   0   7   40.38    2.11
   0   1   7   36.28    2.04
   1   0   7   35.46    1.94
   0  -1  -9   14.30    1.15
   1  -1   2 1705.88   47.59
   1  -1  -2 1605.23   47.71
   1   1  -2 1765.49   47.71
   1   1   4    7.26    1.22
  -1  -1   4    8.35    1.11
  -1   1  -4    7.85    1.51
  -1   1   4    7.50    1.17
   1  -1  -4    6.76    0.77
   1  -1   6   27.04    1.56
  -1   1  -6   25.33    1.53
   1   1   6   24.93    1.52
  -1  -1  -6   20.66    1.51
  -1   1   6   24.09    1.54
  -1  -1   6   24.83    1.55
  -1  -1   8    2.85    1.29
   1  -1   8    3.84    1.25
  -1   1   8    1.99    1.34
  -1  -1  -8    1.12    1.61
  -2   1   1  539.29   15.30
   2  -1  -1  538.70   15.31
   1   2  -1  570.78   15.36
   2  -1  -3  347.48   10.22
  -2   1   3  327.96   10.22
   1   2   3  347.78   10.42
  -1  -2  -5   34.59    1.65
  -2   1  -5   36.59    1.71
   1   2   5   34.59    1.58
  -1  -2   7    7.22    1.43
   1   2   7    6.67    1.33
   2  -1   7    6.96    1.28
  -2   1   7    8.73    1.57
  -2   1  -7    8.72    1.19
   2  -1  -9    0.39    0.89
  -1  -2  -9    0.09    0.87
   1   2  -9   -0.39    0.87
  -2   1  -9    0.53    0.72
   0  -2   0 1259.85   34.17
   0  -2   0 1158.84   34.18
   0   2   0 1232.44   34.18
   0  -2   2  423.36   11.31
   2   0  -2  382.20   11.36
   2   0  -4   96.05    3.44
  -2   0   4   95.48    3.61
   0   2  -4   85.89    4.15
   0   2   4   99.75    3.81
  -2   0  -6  126.75    4.27
   2   0   6  129.50    4.20
   0   2   6  127.47    4.27
   0  -2   8   17.97    1.50
   0   2  -8   17.89    1.83
  -2   0   8   18.70    1.61
   0  -2  -8   15.82    1.87
   2   0   8   15.69    1.39
  -1   2  -1 3206.38   91.67
   2   1  -1 3377.50   91.64
   2   1  -1 3221.32   91.62
   2   1  -3   16.54    1.19
  -2  -1   3   18.40    1.19
  -1   2  -3   13.63    1.63
  -1   2   3   16.65    1.38
   1  -2  -3   16.02    1.11
   2   1   5  413.62   12.36
  -1   2  -5  429.14   12.41
  -1   2   5  435.08   12.43
  -2  -1  -5  432.79   12.46
   1  -2   7    8.56    1.34
  -1   2   7   10.51    1.50
  -2  -1  -7    7.19    1.26
   2   1   7    7.84    1.32
  -2  -1   7    8.25    1.51
  -1   2  -9   14.07    1.07
   1  -2  -9   12.28    1.13
  -2  -1  -9   13.00    1.08
  -2   2   0   11.99    0.67
  -2   2   0   14.04    0.90
   2   2   0   14.03    0.71
  -2  -2   0   16.63    0.87
  -2  -2   0   16.60    0.71
   2   2   0   18.25    0.65
   2  -2   0   18.12    0.68
  -2   2  -2  729.11   21.96
   2  -2   2  754.67   21.49
   2   2  -2  705.74   21.92
  -2  -2   2  802.65   21.91
   2   2  -2  792.34   21.75
  -2   2  -4  645.31   20.32
   2   2  -4  694.62   20.45
  -2  -2   4  652.97   19.57
   2  -2  -4  662.97   19.49
  -2   2   4  674.59   19.76
   2   2   4  693.77   20.02
   2   2   6  257.76    7.72
  -2   2   6  261.75    7.83
  -2  -2  -6  253.00    7.81
  -2   2  -6  245.88    7.74
  -2  -2  -8   47.51    2.58
  -2  -2   8   54.74    2.42
   2  -2   8   52.51    2.29
  -2   2  -8   56.86    2.55
  -3   2   1  398.42   11.30
   3  -2  -1  383.86   11.29
  -3   2  -1  380.67   11.34
   2   3  -1  404.19   11.36
  -3   2   3   15.97    1.30
   3  -2  -3   16.71    1.36
   2   3  -3   17.44    1.74
  -3   2  -3   18.14    1.76
   2   3   3   16.73    1.45
  -2  -3  -5  119.98    3.92
   2   3   5  113.98    3.77
  -3   2  -5  116.08    3.85
   2   3   7   37.51    2.01
   3  -2   7   40.94    1.94
  -3   2  -7   37.47    1.96
  -3   2  -7   40.53    2.46
  -3   2  -9    2.45    0.73
   2   3  -9    2.64    0.84
  -2  -3  -9    4.12    0.85
  -2  -3  -9    1.50    0.69
   3  -2  -9    2.79    0.94
  -3   2  -9    2.47    0.86
  -1  -3   0    0.44    0.55
  -1  -3   0    0.26    0.48
   3  -1   0    0.34    0.62
   1   3   0   -0.05    0.45
   3  -1   0    0.13    0.26
   3  -1   2    1.74    0.40
   3  -1  -2    1.34    0.96
  -1  -3   2    2.98    0.91
  -3   1   4    0.92    0.83
   1   3   4    1.79    1.07
  -3   1  -4    1.88    1.23
   3  -1  -4    2.45    0.77
  -3   1  -6    2.85    1.19
  -1  -3  -6    1.89    1.22
   3  -1   6    3.04    0.98
   1   3   6    3.40    1.08
   3  -1   8   10.63    1.27
   1   3  -8   13.84    1.66
  -1  -3  -8    9.35    1.65
  -1  -3   8   12.54    1.53
   3   0  -1 2160.51   58.48
  -3   0   1 2145.82   58.47
   0  -3  -1 2099.31   58.68
   3   0  -1 2091.63   58.77
   3   0  -3  450.46   12.70
   0  -3   3  480.54   12.71
  -3   0   3  429.89   12.48
   0   3  -3  393.23   12.95
   0   3   3  434.10   12.74
   0  -3  -3  381.63   12.30
  -3   0  -5   47.03    2.04
   0   3   5   47.01    1.94
   3   0   7   25.23    1.64
  -3   0  -7   22.81    1.66
   0   3   7   24.10    1.85
   0  -3   7   24.96    1.74
   0  -3  -9   22.83    1.30
   0   3  -9   24.47    1.26
   3   1   0    0.29    0.24
  -3  -1   0    0.26    0.29
   1  -3   0   -0.19    0.59
  -1   3   0   -0.02    0.52
   1  -3   2  148.78    4.64
  -3  -1   2  151.42    4.55
  -1   3  -2  141.71    5.02
   3   1  -2  149.89    4.83
  -3  -1   4  126.96    4.48
   3   1  -4  140.67    4.60
  -1   3   4  135.56    4.80
   3   1  -4  139.39    5.33
  -1   3  -4  133.33    5.26
  -1   3  -6  185.47    5.98
   3   1   6  198.09    6.01
  -1   3   6  204.58    6.15
  -3  -1  -6  185.06    6.09
   1  -3  -8   -0.02    1.54
  -1   3  -8    0.12    1.43
  -3  -1  -8    0.24    1.50
   1  -3   8    0.26    1.17
  -3  -2   1  231.95    6.26
   3   2  -1  229.93    6.71
   3   2  -1  232.31    6.60
  -2   3  -1  195.50    6.59
  -3  -2  -1  201.04    6.35
   2  -3   3  904.43   26.52
  -2   3   3  909.21   26.75
   3   2  -3  965.92   27.17
   3   2  -3 1003.79   26.81
  -2   3  -3  885.41   27.12
   2  -3  -3  878.55   26.72
  -3  -2   3  960.47   26.54
   3   2   5   94.46    3.26
  -3  -2  -5   97.86    3.44
   3   2   7    1.38    1.12
  -3  -2  -7    1.59    1.27
  -2   3  -7    2.06    1.06
  -3  -2  -7    0.72    1.72
   2  -3   7    0.88    1.14
  -2   3   7   -0.89    1.48
  -2   3  -9    6.60    0.76
  -3  -2  -9    4.65    0.78
   3   2  -9    7.65    0.95
   2  -3  -9    7.36    0.98
  -3  -2  -9    8.10    0.91
  -2   3  -9    6.49    0.87
  -3  -3   0   -0.41    0.59
   3   3   0    0.01    0.46
  -3   3   0   -0.18    0.55
   3   3   0   -0.08    0.53
   3  -3   0   -0.09    0.56
   3   3  -2 1083.53   30.81
  -3   3  -2  997.80   30.78
  -3   3   2 1036.09   30.60
  -3  -3   2 1143.48   30.92
   3   3  -2 1136.41   30.73
  -3  -3   4    1.16    0.71
   3   3   4    1.63    1.01
   3   3  -4    2.65    1.25
  -3   3   4    2.29    0.95
   3  -3  -4    2.56    0.83
  -3   3  -4    1.70    1.18
  -3  -3  -6  816.06   22.64
   3   3   6  774.48   22.47
  -3   3  -6  766.04   22.51
  -3  -3  -8    1.17    1.40
   3  -3   8    1.98    1.08
  -3   3  -8    3.21    1.39
   3   4   1  164.32    5.42
  -4   3  -1  168.81    5.34
   4  -3   1  168.65    5.42
  -3  -4  -1  177.09    5.24
   4  -3  -1  179.02    5.37
   3   4  -3   31.31    1.99
  -4   3  -3   26.79    1.95
   4  -3  -3   29.56    1.84
  -4   3   3   26.39    1.62
  -3  -4   3   23.98    1.94
   4  -3   3   29.81    1.26
   3   4   5  101.92    3.43
  -3  -4  -5   99.07    3.49
  -4   3   5  102.96    3.52
  -4   3  -5  100.23    3.50
  -4   3  -7  116.62    4.24
   4  -3   7  127.16    4.17
  -3  -4  -7  124.20    4.51
   3   4  -9   17.26    1.05
  -3  -4  -9   22.84    1.10
   4  -3  -9   20.63    1.20
  -3  -4  -9   15.37    0.92
  -4   3  -9   21.46    1.07
  -4   3  -9   19.07    0.99
   2   4   0 7369.44  198.56
   4  -2   0 7623.10  198.74
  -2  -4   0 7908.56  198.61
   2   4   0 7366.78  198.68
   2   4  -2  161.25    5.19
  -2  -4   2  160.47    5.17
  -4   2  -2  145.29    5.14
  -4   2   4    7.43    1.07
   4  -2  -4    7.66    1.08
  -4   2  -4    5.74    1.45
   2   4  -4    8.27    1.39
   2   4   4    6.92    1.21
  -4   2   6   78.55    3.04
  -2  -4  -6   75.26    3.04
  -4   2  -6   79.94    3.00
   2   4   6   70.14    2.85
   4  -2   6   77.65    2.79
  -4   2  -8    9.88    1.55
   4  -2   8    6.91    1.14
  -2  -4   8    8.77    1.36
  -2  -4  -8    9.28    1.54
  -4   1  -1  324.85    9.79
  -1  -4   1  330.67    9.74
  -1  -4  -1  321.48    9.91
  -4   1   1  351.44    9.73
   4  -1  -1  349.21    9.74
  -1  -4   3 1294.41   35.84
  -4   1  -3 1192.27   36.04
  -4   1   3 1232.78   35.52
   1   4   3 1248.79   35.82
   4  -1  -3 1271.20   35.83
  -4   1  -5  208.28    6.39
  -1  -4  -5  196.28    6.38
  -4   1  -5  210.44    6.29
  -4   1   5  213.26    6.33
   1   4   5  203.50    6.28
  -4   1  -7  180.89    6.22
   4  -1   7  193.90    6.15
  -1  -4  -9   98.56    2.75
   4  -1  -9  100.50    2.86
   1   4  -9   97.88    2.74
   0   4   0 1791.88   50.34
   0  -4   0 1835.27   50.34
   0   4   0 1748.25   50.35
   0  -4   2   37.22    1.71
   0   4  -2   34.71    1.89
  -4   0   4  138.37    4.93
   0   4   4  154.22    5.41
   4   0  -4  150.44    5.86
   4   0  -4  152.51    5.15
   0   4  -4  147.54    5.71
  -4   0  -6    0.59    1.28
  -4   0  -6   -1.12    1.00
  -4   0   6    0.76    1.17
   4   0   6    1.38    0.88
   0   4   6   -0.18    1.17
   0  -4  -8    5.40    1.53
   0   4  -8    7.86    1.48
   0  -4   8    6.06    1.31
   4   1   1  717.33   20.61
   4   1  -1  779.19   20.78
  -1   4  -1  714.12   20.87
   4   1  -1  743.35   21.01
  -4  -1   1  751.68   20.54
   4   1  -3   45.30    2.56
  -4  -1   3   46.82    1.98
  -1   4  -3   48.86    2.52
   4   1  -3   50.08    2.27
  -1   4   3   49.80    2.33
   1  -4   3   53.98    2.22
  -4  -1  -5   15.05    1.28
   4   1   5   15.25    1.01
  -4  -1  -5   14.82    1.15
  -1   4   5   14.85    1.16
  -4  -1  -7   52.29    2.71
   4   1   7   48.75    2.15
   1  -4   7   52.49    2.32
  -1   4   7   44.45    2.44
  -4  -1  -7   44.50    2.33
  -1   4  -9    1.53    0.75
  -1   4  -9    0.88    0.65
   1  -4  -9    1.11    0.80
  -4  -1  -9    2.67    0.84
  -4  -2   0 3130.58   85.20
   2  -4   0 2835.96   85.40
  -2   4   0 2913.96   85.34
   4   2   0 3038.95   85.19
   4   2   0 3212.43   85.44
  -4  -2   0 3119.41   85.51
   4   2  -2  273.89    8.03
  -2   4   2  255.91    7.90
  -4  -2   2  264.34    7.52
   4   2  -2  271.11    8.00
  -2   4  -2  257.93    8.04
  -2   4  -4  417.40   13.97
   4   2  -4  452.75   14.12
  -2   4   4  454.58   12.79
  -4  -2   4  414.97   13.13
   4   2   4  441.83   13.80
  -2   4   4  427.87   13.56
   4   2   6   38.34    1.76
  -2   4  -6   36.21    1.82
  -2   4   6   36.79    2.04
  -4  -2   6   40.60    1.94
  -4  -2  -6   36.18    2.02
  -2   4  -8   14.87    1.58
  -4  -2  -8   15.78    1.70
   2  -4   8   14.83    1.32
   3  -4   1  216.12    6.92
   4   3  -1  217.96    6.92
  -4  -3  -1  233.68    6.70
   4   3  -1  227.49    6.77
  -3   4  -1  212.43    6.80
  -3   4  -3  474.65   14.45
   4   3  -3  491.22   14.42
   3  -4   3  448.33   13.76
  -3   4   3  452.78   14.08
  -4  -3  -5  103.13    3.48
   4   3   5   93.69    3.23
  -4  -3  -5   99.93    3.40
  -4  -3   7   22.06    1.77
  -4  -3  -7   20.48    2.02
  -3   4  -7   22.91    1.94
   3  -4   7   21.42    1.51
  -3   4  -7   20.67    1.53
  -4  -3  -9   13.61    0.95
  -3   4  -9   11.21    0.79
  -4  -3  -9   10.98    0.80
   3  -4  -9   11.83    0.97
  -3   4  -9   12.71    0.89
   4   3  -9   11.31    0.97
  -4   4   0    0.12    0.59
   4   4   0    0.30    0.67
   4   4   0    0.39    0.53
   4  -4   0    0.62    0.71
  -4  -4   0   -0.04    0.77
   4   4  -2   81.08    3.00
   4  -4  -2   80.22    2.94
  -4  -4   2   84.60    3.26
   4   4  -2   83.60    3.07
   4   4   2   83.01    2.99
  -4   4   2   77.94    2.88
  -4   4  -2   74.30    2.99
  -4  -4  -2   73.41    2.42
   4   4  -4   52.55    2.80
   4  -4  -4   48.65    2.43
  -4   4  -4   53.04    2.89
  -4   4   4   50.58    2.37
  -4   4   4   43.54    1.83
   4   4   4   40.84    2.52
  -4  -4  -6  137.13    4.72
   4   4   6  127.33    4.40
  -4   4  -6  132.83    4.54
  -4  -4  -6  133.07    4.72
  -4   4  -8    1.58    0.96
  -4  -4  -8    1.78    1.33
  -4   4  -8    2.09    1.29
   4  -4   8    1.91    1.00
   5  -4  -1    2.98    0.95
   5  -4  -1    4.16    0.76
   5  -4   1    3.83    0.95
  -5   4  -1    4.52    0.76
   4   5   1    3.79    0.84
   4   5  -1    4.60    0.80
   4   5   3   57.99    2.72
   4   5  -3   60.42    2.74
  -4  -5   3   62.80    3.07
  -5   4  -3   55.08    2.76
  -5   4   3   58.70    2.53
  -4  -5  -5   54.14    2.36
  -5   4   5   48.89    2.13
  -5   4  -5   45.20    2.11
   4   5   5   46.91    1.94
  -5   4  -5   49.87    2.16
  -5   4  -7   86.68    3.33
  -5   4  -7   95.66    3.51
   5  -4   7   82.47    3.09
  -4  -5  -7   83.62    3.48
  -4  -5   7   97.58    3.37
  -5   4  -9   25.56    1.07
  -4  -5  -9   16.86    0.90
   5  -4  -9   28.31    1.20
  -4  -5  -9   30.01    1.08
   4   5  -9   17.19    1.01
  -5   4  -9   23.37    1.00
   3   5   0    0.01    0.64
   5  -3   0    0.77    0.95
  -3  -5   0    0.03    0.68
   3   5   0    0.12    0.86
   5  -3   0    0.29    0.54
  -3  -5   2 1631.34   43.65
   5  -3  -2 1586.31   43.30
   3   5   2 1503.78   43.42
  -5   3  -2 1442.26   43.44
  -5   3   2 1485.61   43.26
   3   5  -2 1540.89   43.43
  -5   3  -4  114.81    4.63
   3   5  -4  119.27    4.56
  -5   3   4  100.70    3.92
   5  -3  -4   99.53    4.15
  -5   3   4  111.24    3.39
  -5   3   4   98.95    3.39
  -5   3  -6  280.07    8.26
  -5   3   6  274.79    8.29
  -5   3  -6  286.04    8.33
  -5   3  -6  263.13    8.06
   5  -3   8    3.08    0.94
  -3  -5  -8    2.33    1.33
  -5   3  -8    5.65    1.36
  -5   3  -8    3.45    1.13
  -2  -5   1 2116.52   58.48
   2   5  -1 2309.12   58.80
   5  -2  -1 2149.48   58.61
   2   5   1 2189.73   58.76
  -5   2   3  583.59   17.41
   2   5  -3  601.21   17.87
  -5   2  -3  546.79   17.83
  -2  -5   3  610.69   17.87
  -2  -5  -5  159.60    5.03
  -5   2  -5  154.50    4.88
  -5   2   5  164.48    4.89
   2   5   5  140.23    4.80
  -5   2  -5  147.31    4.90
  -5   2  -7   31.33    1.97
   5  -2   7   35.37    1.71
  -2  -5  -7   28.96    2.20
  -5   2  -7   38.57    2.31
  -5   2   7   34.37    2.20
   5  -2  -9    2.45    0.84
  -5   2  -9    1.10    0.71
  -2  -5  -9    1.79    0.68
  -2  -5  -9    0.80    0.53
   2   5  -9    2.12    0.67
  -5   2  -9    1.62    0.64
   5  -1   0    0.67    0.80
   1   5   0    0.45    0.79
  -1  -5   0    1.15    0.80
  -1  -5   2  666.75   18.39
   5  -1  -2  637.43   18.57
  -5   1   4  102.94    3.86
   5  -1  -4  115.99    4.22
   1   5   4  108.83    4.31
  -5   1  -4  104.99    4.62
  -5   1  -6    7.02    1.17
   5  -1   6    7.82    1.00
  -5   1   6    9.51    1.41
   1   5   6    7.01    1.21
  -5   1  -6    8.04    1.43
  -1  -5  -8   15.19    1.66
  -1  -5   8   19.94    1.57
   1   5  -8   19.60    1.63
   0  -5   1  205.53    6.21
   5   0  -1  216.69    5.99
  -5   0   1  208.26    6.03
   0  -5  -1  199.77    6.34
   5   0  -1  206.21    6.52
   0  -5   3 2296.88   69.59
   0   5   3 2555.21   69.75
  -5   0   3 2484.19   69.30
   5   0  -3 2654.37   69.83
   0   5  -3 2332.73   69.86
  -5   0  -5    1.43    0.94
  -5   0  -5    1.41    1.16
   0   5   5    2.18    0.96
  -5   0   5    1.60    0.94
   5   0   5    1.78    0.71
  -5   0   7  126.04    4.17
   0  -5   7  120.14    4.01
   5   0   7  108.12    3.84
  -5   0  -7  106.82    4.08
   0  -5  -9   12.65    0.86
   0   5  -9   11.41    0.78
   0  -5  -9    4.72    0.65
   0   5  -9    6.34    0.69
   1  -5   0    0.47    0.91
  -1   5   0    0.91    0.84
   5   1   0    0.33    0.76
  -5  -1   2  697.67   20.21
   1  -5   2  672.10   20.48
  -1   5  -2  686.78   20.69
   5   1  -2  768.86   20.70
   5   1  -2  753.47   20.85
  -1   5   2  743.54   20.67
  -1   5  -4  174.01    6.24
  -1   5   4  155.48    5.79
  -1   5   4  161.67    4.99
   5   1  -4  175.02    6.31
  -5  -1   4  154.84    5.31
   5   1  -4  178.27    5.77
  -5  -1  -6   23.81    1.97
  -5  -1   6   25.79    1.63
   5   1   6   22.01    1.36
  -1   5   6   26.45    1.73
  -5  -1  -6   21.52    1.58
  -1   5  -6   19.40    1.42
  -5  -1  -6   21.11    1.75
  -1   5  -8   64.25    2.58
  -5  -1   8   59.76    2.63
   1  -5   8   62.73    2.47
  -5  -1  -8   61.86    2.64
   5   2  -1  183.62    5.29
  -2   5  -1  168.51    5.48
   2  -5   1  173.38    5.60
   5   2   1  174.71    5.21
   5   2  -3  111.06    4.31
  -2   5   3  109.33    4.10
  -2   5  -3  104.80    4.26
  -5  -2  -5  118.09    3.64
  -5  -2  -5  114.35    3.69
   5   2   5   94.41    3.36
  -2   5   5  102.15    3.62
  -5  -2  -7   17.73    2.01
   2  -5   7   19.60    1.53
  -2   5  -7   17.10    1.36
  -2   5  -7   19.65    1.85
   5   2   7   18.16    1.36
  -5  -2  -7   20.05    1.84
  -5  -2   7   20.46    1.73
   5   2  -9    1.38    0.76
  -5  -2  -9    2.44    0.64
   2  -5  -9    2.18    0.72
  -2   5  -9    2.53    0.64
  -5  -2  -9    1.67    0.78
   3  -5   0   -0.33    0.75
   5   3   0   -0.23    0.63
   3  -5   0    0.10    1.00
  -5  -3   0   -0.05    0.56
  -3   5   0   -0.39    0.79
  -5  -3   2 2415.58   70.78
   5   3  -2 2750.38   71.53
  -3   5   2 2517.13   71.36
   5   3  -2 2721.59   71.37
   3  -5  -2 2566.44   71.38
  -3   5  -2 2661.85   71.46
   5   3  -4    1.85    1.06
  -5  -3  -4    1.51    0.96
  -3   5   4    1.97    0.70
  -3   5  -4    2.35    1.16
  -3   5   4    1.95    0.97
  -5  -3  -6  164.34    5.23
  -3   5  -6  152.66    4.99
  -5  -3  -6  140.56    5.04
   5   3   6  147.55    4.86
  -5  -3  -6  167.44    5.26
  -5  -3  -8   -0.02    1.32
   3  -5   8   -0.08    0.99
  -5  -3   8   -0.29    1.30
  -3   5  -8   -0.62    1.23
  -5  -4  -1  295.03    8.57
   4  -5  -1  290.37    8.71
   4  -5  -1  296.82    8.62
   5   4  -1  309.71    8.56
   5   4   1  268.50    8.54
  -4   5  -1  290.40    8.63
   4  -5   1  272.88    8.83
   4  -5   1  278.02    8.73
   5   4   3   52.06    2.48
   5   4  -3   52.75    2.52
  -4   5   3   53.25    2.40
  -4   5  -3   51.43    2.55
   4  -5   3   47.47    2.02
  -5  -4  -5   10.84    1.39
  -4   5  -5    9.09    1.20
  -5  -4  -5    9.80    1.25
  -4   5   5    8.53    1.22
  -5  -4  -5    9.96    1.36
   5   4   5   10.14    0.95
  -5  -4  -7    1.94    1.60
  -4   5  -7    2.96    1.54
   4  -5   7    3.70    1.10
  -4   5  -7    2.99    1.21
  -5  -4   7    2.83    1.36
   4  -5  -9    3.07    0.71
  -4   5  -9    3.83    0.60
  -5  -4  -9    2.23    0.55
   5   4  -9    3.59    0.69
  -5  -4  -9    5.06    0.69
   5   5   0    0.31    0.61
  -5   5   0    0.04    0.58
   5   5   0    0.23    0.52
   5  -5   0    0.65    0.70
   5  -5  -2  416.55   12.44
  -5  -5  -2  409.34   12.03
   5   5  -2  441.99   12.46
  -5   5   2  407.88   12.43
  -5  -5   2  452.48   12.93
  -5   5  -2  394.35   12.42
   5   5   2  422.51   12.47
  -5   5   4    1.08    0.85
  -5   5  -4    0.31    0.82
  -5  -5  -4    0.95    0.92
  -5   5   4    0.20    0.81
  -5  -5  -4    0.39    0.89
   5  -5  -4   -0.41    0.91
  -5  -5  -4   -0.08    0.95
  -5   5  -4    0.70    0.74
  -5  -5  -6   14.34    1.72
  -5   5  -6   15.41    1.70
  -5   5  -6   14.51    1.33
  -5   5   6   15.87    1.63
  -5  -5  -6   16.59    1.90
  -5   5  -6   15.30    1.59
   5  -5   8    2.98    0.95
  -5   5  -8    3.90    1.05
  -5  -5  -8    3.05    1.02
  -5   5  -8    1.04    1.01
  -5   5  -8    3.59    1.16
  -5  -5   8    4.10    1.29
  -5  -5  -8    3.22    1.16
   5   6   1  311.56    9.16
  -5  -6   1  312.31    9.53
   6  -5   1  280.59    9.25
  -6   5   1  301.63    9.39
  -5  -6  -1  322.17    9.22
   6  -5  -1  300.55    9.27
   5   6  -1  331.08    9.26
  -5  -6   1  343.71    9.50
  -6   5  -1  283.12    9.08
   6  -5  -1  306.23    9.14
  -6   5   3  125.56    4.37
   5   6   3  127.37    4.55
  -6   5  -3  130.03    4.54
  -5  -6   3  140.98    5.07
   6  -5   3  122.94    3.91
  -6   5   3  124.20    3.72
   5   6  -3  138.48    4.57
  -6   5  -5    1.80    1.18
  -6   5  -5    2.85    1.29
  -5  -6  -5    3.24    1.38
  -5  -6  -5    2.84    1.18
  -6   5   5    3.52    1.12
   6  -5   7    2.01    0.92
  -5  -6   7    0.96    1.36
  -6   5  -7    2.77    1.52
  -5  -6  -7    1.48    1.40
  -6   5  -7    0.38    1.38
  -5  -6  -9    3.32    0.42
  -6   5  -9    6.37    0.55
   4   6   0  604.91   16.03
   4   6   0  545.68   15.79
   6  -4   0  575.23   16.14
   6  -4   0  513.13   15.80
  -4  -6   0  568.88   16.10
  -4  -6   2  391.12   12.22
   4   6   2  401.21   11.98
   4   6  -2  410.49   11.97
  -6   4   2  383.72   11.85
  -6   4  -2  392.46   11.87
   6  -4  -2  412.10   11.87
  -6   4   4   61.97    2.90
  -6   4   4   70.51    2.49
  -6   4  -4   68.61    2.49
  -6   4  -4   69.16    2.47
   6  -4  -4   65.67    3.30
  -6   4   4   70.74    2.43
  -4  -6  -4   69.99    2.63
  -4  -6  -4   70.22    2.66
  -6   4  -6   83.06    3.11
  -6   4  -6   86.98    3.34
  -6   4  -6   84.02    3.31
  -4  -6  -6   86.03    3.29
  -6   4   6   85.93    3.37
  -4  -6  -8   21.54    1.50
  -6   4  -8   23.84    1.51
   6  -4   8   17.89    1.19
  -6   4  -8   17.89    1.46
  -6   4  -8   25.84    1.42
  -4  -6  -8   18.85    1.24
  -3  -6   1  271.83    7.73
  -3  -6   1  257.23    7.21
   3   6   1  255.96    7.52
   6  -3  -1  256.54    7.31
   3   6  -1  255.56    7.57
  -3  -6  -1  257.31    7.57
   6  -3  -1  242.85    7.43
   3   6   3    6.73    1.22
   3   6  -3    7.11    1.21
   6  -3  -3    6.65    1.32
  -6   3  -3    5.80    1.24
  -3  -6   3    5.98    1.19
  -3  -6  -3    4.33    0.48
   6  -3   3    6.56    0.51
  -6   3   3    7.17    0.96
  -3  -6  -5  136.47    4.52
  -6   3  -5  133.61    4.35
  -6   3  -5  127.74    4.32
  -6   3   5  124.17    4.28
  -6   3  -7    0.08    1.37
  -6   3   7    0.03    1.43
   6  -3   7    0.79    0.90
  -3  -6  -7    0.43    1.47
  -6   3  -7    1.57    1.58
   3   6  -9    0.20    0.48
  -6   3  -9    0.68    0.56
  -3  -6  -9    0.48    0.42
   6  -3  -9    0.48    0.75
  -6   3  -9    0.61    0.61
  -2  -6   0   31.63    1.38
   2   6   0   28.62    1.30
   6  -2   0   31.34    1.52
  -2  -6   2   51.21    2.36
   2   6   2   54.02    2.36
  -2  -6   2   50.54    2.04
   2   6  -2   52.90    2.33
   6  -2  -2   54.47    2.08
  -6   2  -2   51.40    2.27
  -2  -6   2   57.07    2.69
   6  -2  -4  109.37    4.42
  -6   2  -4  120.27    3.75
  -6   2  -4  119.93    4.83
  -6   2   4  100.89    4.01
  -6   2  -4  115.72    3.69
  -6   2   4  116.09    3.60
  -6   2  -4  108.13    3.77
  -6   2   4  113.52    3.62
  -6   2   6    8.89    1.43
  -6   2  -6    9.14    1.25
   6  -2   6    8.83    0.98
  -6   2  -6    8.84    1.64
  -6   2  -6   10.35    1.51
  -6   2  -8   -0.66    1.14
  -2  -6   8    0.24    1.19
   2   6  -8    0.34    1.19
  -6   2  -8    0.78    1.29
  -6   2  -8   -0.20    1.16
  -2  -6  -8    1.32    1.20
  -6   1  -1  195.75    6.33
  -1  -6   1  212.75    6.44
   6  -1  -1  227.33    6.39
   1   6   1  222.26    6.62
  -1  -6  -1  209.75    6.66
  -6   1   1  230.49    6.50
   1   6   3   77.09    3.25
   6  -1  -3   76.08    3.32
  -6   1   3   76.07    2.82
  -6   1  -3   74.29    3.40
   1   6   5   12.94    1.19
  -6   1   5   13.68    1.21
  -6   1  -5   12.71    1.27
  -6   1  -5   13.75    1.40
  -1  -6  -7    1.28    1.50
  -6   1  -7   -0.03    1.42
  -6   1   7    0.17    1.53
  -6   1  -7    0.28    1.01
   6  -1   7    0.27    0.94
  -6   1  -9   26.72    1.05
   6  -1  -9   29.18    1.26
   1   6  -9   25.66    0.97
   0   6   0 9886.51  282.09
   0   6   0 9380.81  282.05
   0  -6   0 9999.00  282.02
   0   6  -2  496.75   14.98
   0  -6   2  500.20   14.84
   6   0  -2  525.12   15.19
   0  -6   4   66.53    3.16
   0   6   4   62.82    2.39
   6   0  -4   79.93    3.68
  -6   0  -4   60.28    3.40
  -6   0  -4   66.47    2.45
   6   0  -4   72.63    3.16
   0   6   4   72.13    2.37
   6   0   6  128.78    4.33
  -6   0  -6  139.22    4.72
  -6   0   6  145.62    4.62
  -6   0  -6  135.83    4.54
   0   6  -8    9.17    1.31
   0  -6   8    8.33    1.26
   0  -6  -8    6.88    1.36
   6   1   1 6394.55  188.54
   6   1  -1 6975.78  188.33
  -1   6  -1 6905.87  188.80
   1  -6   1 6756.01  188.74
   1  -6  -1 6357.88  188.75
   6   1  -1 6717.50  188.46
   1  -6   3  501.82   14.52
  -1   6   3  465.61   14.62
   6   1  -3  514.21   14.83
  -1   6  -3  470.45   14.74
   6   1  -3  480.60   14.71
  -1   6   5    5.64    1.04
  -6  -1  -5    5.84    1.30
  -6  -1  -5    6.17    1.24
  -6  -1  -5    6.10    1.17
   6   1   5    5.16    0.73
   6   1   7    1.90    0.92
  -6  -1  -7    3.69    1.55
  -6  -1   7    2.40    1.47
  -1   6  -7    4.17    1.57
  -6  -1  -7    2.79    1.68
   1  -6  -9    0.39    0.47
  -1   6  -9    0.16    0.52
  -6  -1  -9   -0.44    0.69
  -6  -2   0 1554.59   42.68
  -2   6   0 1481.30   43.00
   2  -6   0 1431.80   43.06
   6   2   0 1561.69   43.10
  -2   6   2   -0.38    0.99
  -2   6  -2    1.97    0.99
   6   2  -2    1.12    0.88
   2  -6   2    0.61    1.26
  -6  -2   2    1.69    0.43
   6   2  -2    2.35    1.08
  -6  -2  -4   13.37    1.17
  -2   6   4   13.86    0.97
  -6  -2  -4   11.12    1.14
   6   2  -4   17.11    1.46
  -6  -2  -4   12.07    1.11
   6   2  -4   15.11    1.64
  -2   6   4   15.06    1.50
   6   2   6   16.87    1.23
  -6  -2  -6   20.11    1.62
  -6  -2  -6   17.84    1.80
  -2   6  -6   18.27    1.44
  -6  -2   6   21.34    1.58
  -6  -2  -6   20.58    1.82
   2  -6   8    5.56    1.11
  -6  -2  -8    4.71    1.16
   2  -6  -8    3.07    1.30
  -2   6  -8    4.44    1.20
  -6  -2  -8    4.51    1.29
  -6  -2   8    5.37    1.35
   3  -6  -1  113.54    3.69
   3  -6   1  109.26    3.79
   6   3  -1  116.72    3.41
  -3   6  -1   97.48    3.58
   3  -6   1  105.14    3.83
  -6  -3  -1  101.33    3.35
   6   3  -3  356.02   10.51
  -3   6   3  313.82   10.32
   6   3  -3  357.79   10.49
  -3   6  -3  322.52   10.46
   3  -6   3  325.50   10.05
  -6  -3  -5  163.56    4.99
  -6  -3  -5  156.52    4.95
   6   3   5  143.22    4.66
  -6  -3  -5  173.19    5.05
  -3   6  -5  131.78    4.81
  -6  -3  -7    6.39    1.61
  -3   6  -7    5.16    1.14
  -3   6  -7    5.72    1.51
  -6  -3   7    6.99    1.38
  -6  -3  -7    5.82    1.67
  -6  -3  -9    1.82    0.63
   6   3  -9    1.56    0.70
  -3   6  -9    1.39    0.48
  -6  -3  -9    1.24    0.56
   6   4   0 7001.35  187.65
   6   4   0 6820.68  187.22
  -6  -4   0 7044.47  187.37
   4  -6   0 6522.64  187.55
  -4   6  -2  150.10    5.23
   6   4  -2  159.73    5.10
  -4   6   2  154.76    5.26
   4  -6  -2  154.46    5.28
   6   4  -2  167.78    5.41
  -4   6   4   10.09    0.94
  -6  -4  -4   12.10    1.19
  -4   6   4   12.22    1.10
  -6  -4  -4   11.55    1.13
  -6  -4  -4    8.90    1.12
   6   4  -4   12.62    1.45
  -6  -4  -6   80.63    3.31
  -4   6  -6   76.60    3.18
  -6  -4  -6   81.50    3.27
  -4   6  -8   13.35    1.13
  -6  -4  -8   11.35    1.35
  -6  -4   8   12.83    1.41
   4  -6   8   10.73    1.09
  -6  -4  -8   11.90    1.17
  -4   6  -8   11.18    1.24
   5  -6  -1  173.85    5.91
   6   5   1  180.11    5.72
   5  -6  -1  199.12    5.88
   6   5  -1  201.83    5.76
  -6  -5   1  193.00    6.28
   5  -6   1  166.84    5.94
  -5   6   1  182.62    6.03
  -5   6  -1  183.06    5.82
   5  -6   1  186.51    6.13
   6   5  -3  699.23   19.80
  -5   6   3  686.45   19.80
   5  -6   3  645.55   19.35
  -5   6  -3  710.03   19.96
   6   5   3  622.91   19.79
  -6  -5  -5    2.01    1.27
  -5   6  -5    0.91    1.07
  -5   6  -5    1.46    0.90
  -6  -5  -5    1.03    1.32
  -5   6   5    2.49    1.16
  -6  -5  -5    1.17    1.16
  -5   6  -5    1.01    1.18
  -6  -5  -7   31.41    2.02
  -5   6  -7   34.29    2.04
   5  -6   7   30.55    1.64
  -5   6  -7   29.61    1.85
  -6  -5   7   30.96    1.89
  -6  -5  -9   10.23    0.61
   6   5  -9   11.05    0.69
   6  -6   0  309.88    9.49
   6  -6   0  299.56    9.26
  -6  -6   0  322.62    9.60
   6   6   0  313.78    8.98
   6  -6  -2  335.43    9.97
   6   6   2  345.12    9.93
   6  -6  -2  332.79    9.90
   6   6  -2  347.88    9.88
  -6   6  -2  314.21    9.86
  -6   6   2  332.36    9.98
  -6  -6  -4   17.58    1.40
  -6   6  -4   15.83    1.12
  -6  -6  -4   15.43    1.45
  -6   6  -4   18.45    1.14
  -6   6   4   17.52    1.23
  -6   6   4   16.80    1.12
  -6  -6  -4   13.29    1.19
  -6  -6  -6   23.36    1.76
  -6   6  -6   21.30    1.70
  -6   6  -6   19.64    1.53
  -6   6  -8    0.59    1.00
  -6   6  -8    1.76    0.90
   6  -6   8    0.84    0.76
  -6  -6  -8    1.21    1.02
  -6  -6  -8    1.39    0.85
  -6  -6   8    1.23    1.10
  -6   6  -8    1.27    1.01
   7  -6   1   18.28    1.39
  -6  -7  -1   18.88    1.28
  -6  -7   1   20.34    1.49
   6   7  -1   20.83    1.25
   7  -6  -1   19.83    1.24
   6   7   1   18.86    1.21
  -7   6  -1   17.95    1.15
  -7   6   1   17.52    1.59
  -6  -7   1   19.30    1.63
   7  -6  -1   16.30    1.32
  -6  -7  -1   19.07    1.24
  -7   6  -3  265.74    8.39
   6   7   3  287.27    9.34
  -7   6   3  278.72    9.16
  -7   6  -3  299.05    9.27
  -7   6   3  308.66    8.47
   6   7  -3  323.21    9.37
  -6  -7   3  292.57    9.87
  -7   6  -5   45.87    2.35
  -7   6  -5   50.92    2.14
  -7   6  -5   50.04    2.17
  -6  -7   7  112.78    3.88
   7  -6   7  105.91    3.57
  -6  -7  -7  104.09    3.79
  -7   6  -7   96.21    3.62
  -7   6  -7  114.59    3.95
  -7   6  -7  123.25    3.90
  -6  -7  -7  103.24    3.64
  -7   6  -7  127.66    3.79
   7  -5   0    0.30    0.95
   7  -5   0   -0.11    0.70
  -5  -7   0    0.99    0.91
  -5  -7   0    0.43    0.74
   5   7   0   -0.54    0.53
   7  -5  -2   43.36    1.88
   5   7  -2   48.44    1.95
  -5  -7   2   46.11    2.32
  -5  -7  -2   43.62    1.86
   5   7   2   42.41    1.88
  -7   5   2   45.46    1.99
  -7   5  -2   42.64    1.80
  -7   5  -4   -0.03    0.87
  -7   5   4    1.30    0.78
  -7   5   4    0.40    0.90
  -5  -7  -4    0.84    1.18
  -5  -7  -4    0.05    0.88
  -7   5  -4    0.45    0.77
  -5  -7  -6  101.22    3.78
  -7   5  -6  113.39    3.89
  -7   5  -6  104.72    3.75
  -7   5  -6  107.71    3.95
  -7   5  -8   11.19    1.24
  -7   5  -8   15.35    1.12
  -7   5  -8   14.11    1.25
  -5  -7  -8   11.33    1.15
  -5  -7   8   13.49    1.32
  -5  -7  -8   11.21    0.96
   7  -4  -1  272.74    8.24
   4   7  -1  310.25    8.61
   7  -4   1  294.66    8.79
  -4  -7  -1  272.34    8.39
   7  -4  -1  283.55    8.45
  -4  -7  -1  285.69    8.51
  -4  -7   1  275.52    8.72
   4   7   1  293.00    8.43
  -7   4   1  278.87    8.60
  -7   4  -1  242.33    8.19
  -4  -7   1  306.35    8.74
   7  -4  -3  406.55   11.94
  -7   4   3  371.68   11.06
  -7   4   3  353.39   10.46
  -4  -7   3  376.76   10.66
  -4  -7   3  406.03   11.80
   4   7   3  386.97   11.40
  -7   4  -3  363.89   11.26
   7  -4   3  321.40   10.50
   4   7  -3  418.15   11.48
  -7   4  -5   11.41    1.39
  -7   4   5   12.38    1.35
  -4  -7  -5    7.67    1.28
  -7   4  -5   11.64    1.37
  -7   4  -7   38.23    2.13
  -7   4  -7   34.55    2.03
  -4  -7  -7   34.61    1.96
   7  -4   7   33.84    1.57
  -7   4  -9    2.91    0.52
  -7   4  -9    1.86    0.47
   7  -4  -9    1.80    0.61
  -3  -7   0    0.64    0.91
   7  -3   0   -0.20    0.96
   3   7   0    0.09    0.78
   3   7   0    0.02    0.72
  -3  -7   0   -0.14    0.77
   7  -3   0   -0.19    0.53
  -3  -7   0    0.80    0.87
  -3  -7   2  120.79    3.99
   7  -3  -2  135.20    4.27
   3   7  -2  135.46    4.51
  -3  -7   2  139.25    4.68
  -7   3  -2  116.69    4.21
   3   7   2  132.16    4.50
  -3  -7  -2  123.05    4.38
  -7   3   2  128.43    4.30
  -3  -7   2  133.46    4.85
  -7   3  -4  168.19    5.10
  -7   3   4  158.39    5.02
  -7   3  -4  156.53    6.02
  -7   3  -4  147.84    5.18
  -7   3   4  177.63    4.99
  -7   3  -4  163.06    5.04
   7  -3  -4  144.41    5.95
  -7   3   6   91.79    3.45
  -7   3  -6   83.79    3.21
  -7   3  -6   94.34    3.41
  -3  -7  -6   83.79    3.32
   7  -3   6   84.13    2.96
  -7   3  -6   93.87    3.45
  -7   3  -8    3.80    1.23
   3   7  -8    4.34    1.13
  -7   3  -8    4.67    1.06
  -3  -7  -8    4.47    1.09
  -7   3  -8    2.59    1.21
  -2  -7  -1  154.40    4.86
   2   7   1  143.43    4.68
   7  -2  -1  147.17    4.54
   2   7  -1  160.47    4.86
  -2  -7   1  156.21    4.96
  -7   2  -1  131.68    4.33
  -2  -7  -1  149.38    4.80
  -2  -7   1  143.07    4.49
   2   7  -3  236.98    7.91
  -7   2   3  234.42    7.43
   7  -2  -3  240.84    8.13
  -2  -7   3  241.61    7.49
  -7   2  -3  223.50    7.83
  -7   2  -5  354.28   10.74
  -7   2  -5  358.08   10.71
  -7   2   5  362.01   10.68
  -7   2  -5  366.74   10.72
  -7   2  -7   90.43    3.27
  -2  -7  -7   73.38    3.09
  -7   2  -7   88.34    3.23
  -7   2   7   85.37    3.19
   7  -2   7   75.97    2.71
  -2  -7   9    0.10    0.61
   7  -2  -9    0.17    0.69
  -2  -7  -9    0.00    0.31
  -7   2  -9    0.31    0.54
  -7   2  -9    0.31    0.60
   7  -1   0   -0.59    0.68
   1   7   0    0.24    0.89
  -1  -7   0   -0.16    0.90
  -1  -7   2  237.69    6.88
   1   7   2  241.04    7.17
  -1  -7   2  229.35    7.07
  -7   1  -2  216.95    6.95
   7  -1  -2  231.85    6.72
   7  -1  -2  235.89    7.45
  -1  -7   2  255.73    7.63
  -7   1  -4    4.51    1.07
  -7   1  -4    2.39    1.18
  -7   1   4    3.82    0.76
  -1  -7   4    5.23    1.16
   7  -1  -4    3.59    1.02
   7  -1  -4    3.51    1.26
  -7   1   6  100.93    3.60
  -7   1  -6  108.49    3.75
  -7   1  -6  102.94    3.56
  -7   1  -8   19.34    1.41
  -1  -7  -8   15.82    1.44
  -1  -7   8   18.46    1.40
   1   7  -8   18.05    1.39
   0   7   1   60.47    2.47
   7   0   1   56.55    2.27
   7   0  -1   63.76    2.04
   7   0  -1   65.11    2.02
   0   7  -1   56.56    2.44
   0  -7  -1   62.30    2.53
   0  -7   1   57.13    2.33
   7   0  -3    5.49    1.24
  -7   0   3    3.75    0.71
   0  -7   3    4.87    1.00
   0   7   3    2.64    1.03
   0   7  -3    4.78    1.22
  -7   0  -3    3.81    1.19
   7   0  -3    3.03    1.13
  -7   0  -5   15.00    1.33
  -7   0   5   15.35    1.20
  -7   0  -5   14.03    1.41
  -7   0   7   14.67    1.73
   7   0   7   13.42    1.10
  -7   0  -7   17.10    1.76
   0  -7  -9    6.28    0.47
   0  -7   9   17.72    0.85
  -1   7   0   -0.05    0.86
   7   1   0   -0.08    0.73
   1  -7   0    0.02    0.90
  -1   7   0   -0.20    1.00
   7   1  -2  521.87   15.34
  -7  -1   2  489.98   14.47
   1  -7   2  505.64   15.01
   1  -7  -2  498.86   15.10
  -1   7  -2  518.19   15.13
   1  -7   2  488.49   14.98
   7   1  -4  163.88    6.32
  -1   7   4  192.91    5.52
   7   1  -4  203.88    6.90
  -7  -1  -4  177.33    5.62
  -7  -1  -4  183.08    5.61
  -7  -1  -4  155.92    6.62
  -7  -1  -6   72.84    3.05
  -7  -1  -6   77.71    3.12
   7   1   6   68.35    2.60
  -7  -1   6   79.78    2.92
  -7  -1  -6   73.88    2.94
  -1   7  -8   17.45    1.34
   1  -7   8   17.45    1.31
  -7  -1   8   15.41    1.57
  -7  -1  -8   18.62    1.54
   2  -7   1  767.77   22.85
   2  -7  -1  807.11   22.80
  -2   7  -1  805.78   22.77
   7   2   1  739.12   22.49
   2  -7   1  747.99   22.75
   2  -7  -1  820.76   22.77
   7   2  -1  820.84   22.34
  -2   7   3  781.43   24.31
  -2   7  -3  758.56   24.40
   7   2  -3  912.84   24.47
   7   2  -3  866.98   24.56
   2  -7   3  848.61   24.18
  -7  -2  -5    9.61    1.31
  -7  -2  -5   12.16    1.39
  -7  -2  -5   10.39    1.44
  -7  -2  -7   38.42    2.34
  -7  -2  -7   38.90    2.30
  -7  -2   7   32.61    2.09
  -2   7  -7   38.98    2.11
  -2   7  -7   34.54    1.73
  -7  -2  -9    7.34    0.64
   7   2  -9    6.83    0.75
  -7  -2  -9    7.18    0.69
   3  -7   0   -0.24    0.97
   3  -7   0   -1.21    0.84
  -7  -3   0   -0.09    0.53
  -3   7   0   -0.20    0.73
   7   3   0   -0.11    0.65
   3  -7  -2  377.39   11.79
   3  -7   2  387.26   11.92
  -3   7   2  407.67   11.89
   3  -7   2  389.98   12.17
   7   3  -2  392.64   11.56
   7   3  -2  411.04   12.06
  -3   7  -2  373.11   11.82
  -7  -3  -4   77.71    2.92
   7   3  -4   87.53    3.80
  -3   7   4   84.91    2.82
  -7  -3  -4   85.11    2.95
   7   3  -4   81.87    3.63
  -3   7  -6   42.29    2.19
  -7  -3  -6   38.68    2.19
  -7  -3  -6   44.71    2.32
  -7  -3  -6   44.73    2.39
  -7  -3   6   40.49    2.09
  -7  -3  -8    0.72    1.18
  -3   7  -8    0.94    0.98
   3  -7   8    0.62    0.97
   3  -7  -8   -0.20    1.19
  -7  -3   8   -0.56    1.21
  -7  -3  -8    0.30    0.99
  -4   7  -1    7.80    1.02
  -4   7   1    6.33    1.24
   4  -7   1    6.90    1.20
  -7  -4   1    6.70    1.45
   7   4  -1    7.26    0.76
   7   4  -1    7.03    0.95
   4  -7   1    4.95    1.13
   4  -7  -1    8.11    1.11
  -4   7   3  899.62   27.95
   7   4  -3  998.81   27.94
  -4   7  -3  929.02   28.08
  -7  -4  -3  976.47   27.22
  -4   7   3  963.01   27.19
   7   4  -3 1057.71   28.26
   4  -7   3  911.07   27.65
  -4   7  -5    5.54    0.91
  -7  -4  -5    4.67    1.40
  -4   7  -5    3.80    1.12
  -7  -4  -5    5.08    1.28
  -7  -4  -5    1.60    1.30
  -7  -4   7  216.15    6.59
  -4   7  -7  232.02    6.64
  -7  -4  -7  214.06    6.65
  -7  -4  -9   29.55    1.11
   7   4  -9   30.78    1.13
  -7  -5   0    0.18    0.99
   7   5   0   -0.08    0.46
   5  -7   0    0.65    0.84
   7   5  -2 1425.15   39.35
  -5   7   2 1302.34   39.14
   5  -7   2 1383.83   39.43
   7   5   2 1341.69   39.04
  -5   7  -2 1310.90   39.09
   5  -7  -2 1372.40   39.20
   5  -7  -2 1424.74   39.18
   7   5  -2 1396.34   38.94
  -5   7  -4   -0.51    0.73
  -7  -5  -4   -0.28    0.93
  -7  -5  -4   -0.11    1.02
  -5   7  -4    0.22    0.80
  -5   7  -6   14.33    1.32
  -5   7  -6   15.39    1.55
  -7  -5  -6   17.07    1.68
  -7  -5  -6   13.70    2.01
  -5   7  -8   19.65    1.25
   5  -7   8   19.26    1.18
  -7  -5  -8   16.81    1.17
  -7  -5   8   19.44    1.43
  -5   7  -8   18.65    1.14
  -7  -5  -8   18.91    1.37
   6  -7   1  351.17   10.74
   6  -7  -1  344.05   10.69
   7   6   1  348.58   10.40
   6  -7  -1  365.19   10.61
  -6   7  -1  320.27   10.44
  -7  -6   1  336.69   10.99
  -7  -6   1  381.79   10.71
   7   6  -1  369.19   10.43
  -7  -6  -1  355.43   10.66
  -7  -6  -1  355.84   10.43
   6  -7   1  333.96   10.85
  -6   7   1  346.36   10.83
   7   6  -3  399.17   11.63
  -6   7   3  352.41   11.61
   7   6   3  371.65   11.68
  -6   7  -3  391.56   11.76
  -7  -6  -3  370.54   10.83
  -7  -6  -5   20.04    1.54
  -6   7  -5   16.09    1.31
  -7  -6  -5   16.74    1.75
  -6   7  -5   16.31    1.37
  -7  -6  -7   10.31    1.22
  -6   7  -7   12.84    1.28
  -6   7  -7   13.36    1.40
  -6   7  -7   10.02    1.44
  -7  -6  -7    9.02    1.40
   6  -7   7   10.61    1.07
  -7  -6   7    9.20    1.40
  -7  -7   0   -0.43    0.71
  -7  -7   0    0.12    0.97
   7   7   0   -0.11    0.49
   7  -7   0    0.53    0.78
   7  -7   0    0.45    0.90
  -7   7  -2  979.00   29.14
   7  -7  -2 1029.38   29.40
   7   7   2 1001.93   29.21
   7   7  -2 1066.69   29.17
   7  -7  -2 1014.64   29.29
  -7  -7  -2  970.25   29.13
   7  -7   2 1054.84   29.76
  -7   7   2 1005.78   29.45
  -7   7  -4   26.63    1.36
  -7   7   4   25.98    1.35
  -7   7  -4   26.89    1.42
  -7  -7  -4   25.99    1.46
  -7  -7  -6  128.94    4.28
  -7   7  -6  126.27    4.22
  -7   7  -6  115.76    4.20
  -7   7  -8   16.71    1.10
  -7  -7   8   17.61    1.27
  -7   7  -8   16.38    1.21
  -7  -7  -8   14.59    1.11
  -7  -7  -8   13.01    0.97
  -7  -8  -1   14.55    1.16
   8  -7   1   11.67    1.30
   7   8   1   14.62    1.09
  -7  -8   1   13.59    1.48
  -8   7   1   13.21    1.46
  -7  -8   1   16.88    1.43
   8  -7  -1   17.39    1.46
   7   8  -1   15.98    1.18
  -8   7  -1   13.75    1.03
  -7  -8  -1   14.33    1.28
   8  -7  -1   14.86    1.17
   8  -7   1   16.76    1.64
   7   8  -3   91.89    3.44
  -8   7   3   73.30    2.61
  -8   7  -3   71.46    2.54
  -7  -8  -3   66.62    3.17
   8  -7  -3   83.54    3.43
  -8   7  -3   80.44    2.74
  -7  -8  -3   78.56    2.59
   8  -7  -3   81.08    3.39
  -8   7  -3   88.58    3.42
   7   8   3   78.31    3.40
  -8   7   3   83.08    3.51
  -8   7  -5    0.84    1.09
  -8   7  -5    0.60    1.42
  -8   7  -5   -0.70    1.04
  -8   7  -5    0.60    0.88
  -7  -8  -5    0.95    1.07
  -8   7   5    0.39    0.92
  -8   7  -7    3.44    1.20
  -7  -8  -7    2.26    1.12
   8  -7   7    2.54    0.76
  -7  -8   7    1.19    1.22
  -8   7  -7    1.26    1.05
  -8   7  -7    2.74    1.03
  -7  -8  -7    2.62    0.90
  -8   7  -7    2.65    1.49
   8  -6   0   56.90    2.50
  -6  -8   0   59.27    2.57
   8  -6   0   50.24    2.10
  -6  -8   0   62.53    2.37
   6   8   0   51.41    1.94
  -6  -8  -2    5.82    1.03
   6   8  -2    5.63    0.95
  -6  -8  -2    4.08    0.76
   8  -6  -2    4.79    1.04
  -8   6   2    5.47    1.14
   6   8   2    4.90    0.99
  -8   6  -2    4.30    0.81
   8  -6  -2    5.38    0.96
  -8   6  -4   23.27    1.31
  -8   6  -4   24.70    1.40
  -6  -8  -4   26.44    1.36
  -8   6  -6    4.56    1.31
  -6  -8  -6    5.45    1.25
  -8   6  -6    4.15    1.44
  -8   6  -6    5.59    1.16
  -8   6  -6    3.77    1.34
  -8   6  -8    2.10    0.88
  -8   6  -8    2.01    0.81
   6   8  -8    1.29    0.81
  -6  -8  -8    2.20    0.66
  -8   6  -8    1.95    1.09
  -6  -8   8    1.43    1.01
  -5  -8   1  229.53    6.66
  -5  -8  -1  203.01    6.34
   8  -5   1  214.13    6.68
  -5  -8  -1  191.82    6.26
  -8   5  -1  166.08    5.91
   5   8   1  190.05    6.15
   5   8  -1  213.57    6.38
   8  -5  -1  216.47    6.14
   8  -5  -1  193.73    6.32
  -5  -8   1  208.25    6.65
  -8   5  -3   45.65    2.24
  -5  -8  -3   38.01    2.21
   5   8   3   47.49    2.45
  -5  -8   3   46.80    2.71
  -8   5  -3   39.28    1.64
   5   8  -3   53.31    2.46
  -8   5   3   44.98    1.69
  -8   5   3   47.29    2.25
  -8   5  -5    7.43    1.27
  -5  -8  -5    5.20    1.19
  -8   5  -5    6.06    1.39
  -8   5   5    7.53    1.32
  -8   5  -7  111.45    3.96
  -8   5  -7  118.79    3.90
  -5  -8  -7  108.89    3.75
  -8   5  -7  120.11    3.80
   8  -4   0  297.54    8.54
  -4  -8   0  300.91    8.55
  -4  -8   0  288.94    8.55
  -4  -8   0  292.71    8.25
   4   8   0  308.53    8.50
   4   8   0  271.70    8.18
  -8   4   2    6.29    1.10
  -4  -8   2    6.59    0.64
  -8   4  -2    7.28    0.88
  -4  -8   2    7.40    1.23
   8  -4  -2    6.95    1.02
   4   8  -2    7.67    1.07
  -4  -8   2    6.69    1.45
  -4  -8  -2    7.41    1.05
   4   8   2    7.63    1.09
  -4  -8  -2    5.69    0.79
  -8   4   4    5.88    0.80
  -8   4  -4    5.92    0.99
  -4  -8  -4    3.28    0.91
  -8   4  -4    6.77    0.97
  -8   4   4    5.76    0.95
  -8   4  -6   61.41    2.55
  -8   4   6   52.90    2.62
  -4  -8  -6   48.87    2.41
  -8   4  -6   60.98    2.50
  -8   4  -6   62.46    2.75
   8  -4   6   51.46    2.03
   4   8  -8    7.92    0.98
  -4  -8  -8    6.22    0.82
  -8   4  -8    8.78    1.34
  -4  -8   8    8.99    1.16
  -8   4  -8    8.19    1.18
  -8   4  -8   11.62    1.08
   3   8   1    6.29    0.94
  -3  -8   1    8.89    0.78
   8  -3  -1    6.03    0.62
   3   8  -1    7.80    1.09
  -8   3  -1    7.69    0.63
   8  -3  -1    7.32    0.93
  -3  -8  -1    5.96    1.04
  -3  -8   1    7.72    1.22
  -3  -8   1    7.44    1.10
  -8   3  -3  113.13    3.01
  -3  -8   3  126.68    4.24
   3   8  -3  131.10    4.07
   8  -3  -3  117.52    4.36
   3   8   3  120.96    4.00
  -8   3  -3  117.84    3.78
  -8   3   3  125.38    2.99
  -3  -8   3  119.51    3.33
  -8   3   3  109.80    3.48
  -8   3   5  364.97   11.31
  -8   3  -5  377.76   11.40
  -8   3  -7   23.74    1.95
  -8   3  -7   20.43    1.60
  -3  -8  -7   24.41    1.72
  -8   3  -7   30.73    1.95
  -8   3  -7   31.82    1.77
   8  -3  -9    2.03    0.58
  -8   3  -9    1.88    0.49
  -8   3  -9    1.43    0.46
  -2  -8   0  623.84   18.34
   8  -2   0  643.78   18.25
   2   8   0  604.52   18.16
  -2  -8   0  639.70   18.18
   2   8   0  639.45   18.29
  -2  -8   2   80.34    3.18
  -2  -8   2   71.41    2.65
   8  -2  -2   87.57    3.61
  -8   2  -2   65.08    2.70
   2   8   2   79.87    3.12
   8  -2  -2   77.96    2.73
  -2  -8   2   86.16    3.52
  -2  -8  -2   72.72    3.03
  -8   2   2   73.56    2.80
   2   8  -2   79.75    3.13
  -8   2   4   80.53    2.58
   8  -2  -4   71.21    3.73
  -8   2  -4   73.81    2.83
  -8   2  -4   73.77    2.75
  -8   2   4   77.33    2.65
  -2  -8   4   77.37    3.68
  -8   2  -4   74.59    2.67
  -8   2  -6    1.57    1.63
  -8   2  -6    2.92    1.54
  -2  -8  -6    1.83    1.31
  -8   2   6    2.25    1.33
  -8   2  -6    1.90    1.23
  -8   2  -8   35.85    2.12
   2   8  -8   42.49    1.90
  -8   2  -8   55.05    2.03
  -8   2  -8   54.40    2.17
  -1  -8  -1  466.06   12.90
  -1  -8   1  458.41   13.04
  -1  -8   1  470.72   12.65
  -1  -8  -1  439.12   12.88
   1   8   1  446.69   12.79
   8  -1  -1  475.84   12.50
  -1  -8   3  254.53    7.64
  -8   1  -3  231.95    7.83
  -1  -8   3  256.55    8.01
   8  -1  -3  266.60    8.06
   8  -1  -3  254.39    8.24
  -8   1  -5   11.23    1.45
  -8   1  -5    9.41    1.30
  -8   1   5    9.12    1.15
  -1  -8  -7    0.55    1.28
  -8   1   7    0.44    1.34
  -8   1  -7   -0.25    1.52
  -8   1  -7   -0.41    1.17
  -8   1  -7    0.02    1.28
  -1  -8   9   -0.17    0.58
   8  -1  -9    0.56    0.64
  -8   1  -9    0.31    0.50
   0  -8   0  871.49   25.67
   8   0   0  918.80   25.54
   8   0   0  897.96   25.88
   0   8   0  924.20   25.74
   0   8   0  866.45   25.70
   0  -8   2  224.60    6.74
   8   0  -2  236.80    7.13
   0   8   2  205.06    6.68
  -8   0  -2  172.82    6.33
   8   0  -2  235.73    6.47
   0   8  -2  227.91    6.80
   0  -8   2  229.71    6.56
   8   0   2  180.88    5.98
   0  -8   4   13.34    1.50
  -8   0  -4   15.69    1.29
  -8   0   4   14.97    1.05
   8   0  -4   14.21    1.65
   0   8   4   16.29    0.96
  -8   0  -4   11.94    1.62
  -8   0   6   42.36    2.10
  -8   0  -6   40.50    2.36
  -8   0  -6   40.34    2.15
   0   8  -8    1.21    0.92
   0  -8   8    0.27    1.01
   1  -8   1  152.13    4.54
   8   1  -1  162.32    4.03
  -1   8  -1  161.62    4.76
   1  -8  -1  152.80    4.69
   8   1   1  146.00    4.41
   8   1  -1  147.61    4.80
  -1   8   1  148.26    4.63
  -1   8  -3  561.49   16.08
  -1   8   3  501.10   15.87
   8   1  -3  579.05   15.95
   8   1  -3  532.06   16.11
   1  -8   3  546.46   15.88
  -8  -1  -3  495.06   15.06
   1  -8   3  558.02   15.89
  -8  -1  -5   13.91    1.37
  -8  -1   5   13.87    1.21
  -8  -1  -5   11.14    1.45
  -8  -1  -5   12.06    1.44
  -1   8  -7    8.96    1.39
  -8  -1  -7    8.58    1.72
  -8  -1  -7    6.07    1.73
  -8  -1   7    7.15    1.42
   8   1  -9   10.08    0.81
  -8  -1  -9   10.73    0.73
  -2   8   0  572.52   16.55
   8   2   0  585.49   16.49
   2  -8   0  572.34   16.50
   2  -8   0  575.23   16.48
  -2   8   0  517.35   16.37
   8   2  -2   81.36    2.83
   8   2  -2   81.11    3.37
  -2   8   2   72.61    3.11
   2  -8   2   78.31    3.16
   2  -8   2   77.18    3.50
  -2   8  -2   82.99    3.22
   2  -8  -2   76.84    3.18
   8   2  -4  150.38    5.68
  -2   8   4  141.75    4.58
  -8  -2  -4  154.66    4.70
  -8  -2  -4  145.68    4.70
  -8  -2  -6  119.10    4.30
  -8  -2  -6  108.80    4.13
  -2   8  -6  111.88    4.04
  -8  -2  -6  121.78    4.21
  -8  -2   6  119.93    4.03
  -2   8  -8   62.09    2.31
  -8  -2  -8   64.21    2.52
  -8  -2  -8   64.32    2.38
   2  -8   8   65.05    2.40
  -8  -2   8   61.33    2.52
   8   3  -1   -0.11    0.70
   8   3   1   -0.77    0.62
  -3   8  -1    0.19    0.88
   3  -8  -1    0.33    0.87
  -8  -3  -1    0.49    0.46
   3  -8  -1   -0.44    1.02
   3  -8   1   -0.79    1.05
   8   3  -1    1.29    0.48
   3  -8   1   -0.65    1.02
   3  -8   3  822.54   24.80
   8   3  -3  902.88   24.91
   8   3  -3  877.07   24.56
   3  -8   3  791.84   24.40
  -3   8  -3  912.64   24.93
  -8  -3  -3  815.74   23.84
  -3   8   3  840.38   24.74
  -3   8   3  844.24   23.82
  -3   8  -5    6.46    1.12
  -8  -3  -5    5.71    1.48
  -8  -3  -5    3.32    1.31
  -3   8  -7   51.43    2.26
  -8  -3   7   52.08    2.32
  -3   8  -7   44.43    2.09
  -8  -3  -7   52.25    2.25
  -8  -3  -7   50.58    2.43
  -8  -3  -7   47.65    2.68
   8   3  -9   15.94    0.80
  -8  -3  -9   14.04    0.77
  -8  -3  -9   13.67    0.71
   8   4   0   76.39    2.94
   8   4   0   75.64    2.51
  -8  -4   0   77.66    2.62
   4  -8   0   84.64    3.09
   4  -8   0   73.06    3.08
   8   4  -2    8.80    1.17
  -4   8   2    6.90    1.17
   4  -8   2    7.47    1.32
  -4   8  -2    7.47    1.07
   4  -8  -2    7.98    1.16
   4  -8   2   10.02    1.49
   8   4  -2    8.71    0.90
   4  -8  -2    8.84    1.22
  -4   8  -4   28.30    1.31
  -8  -4  -4   30.12    1.55
  -8  -4  -4   32.02    1.68
  -4   8   4   33.33    1.44
  -4   8  -6   33.25    1.84
  -8  -4  -6   36.35    2.08
  -8  -4  -6   28.77    2.08
  -8  -4  -6   31.69    2.29
  -8  -4   6   29.46    1.76
  -8  -4   8    7.42    1.22
   4  -8   8    6.60    0.94
  -4   8  -8    8.40    0.95
  -8  -4  -8    7.71    1.01
  -8  -4  -8    7.00    1.15
   8   5  -1 2564.00   68.88
   8   5   1 2310.68   68.38
   5  -8   1 2347.15   68.86
  -5   8  -1 2385.51   68.63
   8   5  -1 2558.73   68.35
  -5   8   1 2389.48   68.90
   5  -8  -1 2397.31   68.71
   5  -8   1 2480.58   68.88
   8   5  -3   43.27    2.34
  -5   8   3   29.98    1.43
   5  -8   3   32.31    1.79
  -8  -5  -3   37.10    1.53
  -5   8   3   38.21    2.18
  -5   8  -3   40.80    2.23
   8   5  -3   39.85    1.99
   5  -8  -3   35.87    2.19
   5  -8   3   40.74    2.42
   8   5   3   33.64    2.05
  -8  -5  -5   49.50    2.56
  -5   8   5   50.92    2.10
  -8  -5  -5   48.35    2.46
  -5   8  -5   50.31    2.15
  -8  -5  -5   57.39    2.32
  -5   8  -5   49.88    2.14
  -8  -5  -7   46.14    2.04
  -8  -5  -7   42.66    2.23
  -8  -5   7   48.16    2.20
  -5   8  -7   48.72    2.13
  -5   8  -7   46.45    2.19
   6  -8   0   16.82    1.29
  -8  -6   0   15.42    1.53
   8   6   0   15.19    0.77
  -6   8  -2    2.10    0.89
  -8  -6  -2    2.04    0.76
   6  -8  -2    1.60    1.03
  -6   8   2    1.50    1.03
   8   6  -2    2.28    0.74
   6  -8  -2    1.09    0.89
   8   6   2    2.15    0.92
   6  -8   2    2.14    1.19
  -8  -6  -4    0.02    1.21
  -6   8  -4    2.74    0.83
  -6   8  -4    1.64    0.78
  -8  -6  -4    1.56    0.98
  -8  -6  -6   97.35    3.39
  -6   8  -6   94.81    3.34
  -8  -6  -6   90.74    3.21
  -6   8  -8    8.40    0.86
  -6   8  -8    5.52    0.93
  -8  -6   8    8.92    1.10
   6  -8   8    5.77    0.77
  -8  -6  -8    6.42    0.98
  -8  -6  -8    6.19    0.84
   8   7   1   67.41    2.51
   7  -8   1   63.41    2.91
  -8  -7   1   76.84    2.92
  -8  -7  -1   66.02    2.89
   8   7  -1   75.80    2.63
  -8  -7   1   61.96    3.09
  -7   8   1   62.23    3.02
   7  -8  -1   76.52    3.04
  -8  -7  -1   66.95    2.57
  -7   8  -1   60.14    2.58
   7  -8  -1   64.21    2.76
  -7   8   3   28.72    1.34
   8   7   3   29.47    1.92
   8   7  -3   32.11    1.83
  -8  -7  -3   30.94    1.34
   7  -8  -3   27.44    1.91
  -7   8  -3   34.91    2.01
  -7   8  -3   28.09    1.43
  -8  -7  -3   30.45    1.60
  -7   8  -3   26.73    1.21
  -8  -7  -5    9.49    1.03
  -7   8  -5   11.31    1.20
  -8  -7  -5    9.75    1.32
  -7   8  -5    9.83    1.14
  -7   8  -7   35.12    1.91
  -7   8  -7   35.03    1.56
  -7   8  -7   25.94    1.46
  -8  -7  -7   28.17    1.71
  -7   8  -7   30.53    1.67
  -8  -7   7   30.09    1.71
  -8  -7  -7   29.87    1.53
   7  -8   7   28.73    1.44
  -8  -8   0    1.97    0.77
   8   8   0    0.62    0.46
  -8  -8   0    0.82    1.10
   8  -8   0    1.00    0.78
   8  -8   0    3.04    1.06
   8  -8  -2   17.07    1.40
  -8  -8   2   17.77    1.87
  -8  -8  -2   17.51    1.35
  -8  -8   2   17.47    1.07
   8   8   2   18.69    1.38
  -8   8   2   18.15    1.65
  -8   8  -2   17.83    1.35
  -8  -8  -2   18.07    1.11
   8   8  -2   19.67    1.36
   8  -8   2   19.04    1.83
   8  -8  -2   17.67    1.59
  -8  -8  -4   71.54    2.46
  -8   8  -4   71.59    2.65
  -8   8   4   68.89    2.56
  -8   8  -4   71.36    2.42
  -8  -8  -4   74.49    2.59
  -8   8  -4   68.04    2.49
  -8  -8  -6   -0.30    0.88
  -8   8  -6   -0.41    0.94
  -8  -8  -6    0.20    1.21
  -8   8  -6    0.03    1.27
  -8   8  -6    0.51    1.16
  -8   8  -8   23.66    1.13
  -8  -8  -8   22.40    1.04
  -8   8  -8   20.83    1.30
  -8  -9  -1  212.08    6.69
   8   9   1  188.71    6.37
  -8  -9  -1  208.78    6.92
  -8  -9   1  205.97    6.22
   9  -8   1  207.12    7.06
   9  -8  -1  214.53    6.99
   9  -8   1  188.93    6.75
  -8  -9  -1  201.12    6.24
  -9   8  -1  207.38    6.44
   8   9  -1  218.57    6.66
  -8  -9   1  208.81    7.28
   9  -8  -1  187.94    6.55
  -9   8  -3    0.19    0.68
  -8  -9  -3   -0.03    0.70
  -8  -9  -3   -0.32    0.83
  -9   8   3    0.05    0.77
  -9   8  -3    0.20    0.54
  -9   8  -3   -1.01    0.91
  -9   8  -5   11.61    1.07
  -9   8   5    9.50    1.22
  -9   8  -5   12.30    1.23
  -8  -9  -5    9.48    1.20
  -9   8  -5   13.48    1.40
  -8  -9  -5   10.87    1.01
  -9   8  -7   35.64    1.71
  -8  -9   7   36.17    1.74
  -9   8  -7   35.99    1.99
  -8  -9  -7   32.24    1.49
  -9   8  -7   32.72    1.66
  -9   8  -7   36.73    1.60
   9  -7   0   -0.31    0.98
  -7  -9   0    0.07    0.79
   9  -7   0    0.03    0.69
  -7  -9   0   -0.69    1.02
   7   9   0    0.12    0.56
   9  -7  -2  617.25   17.66
  -7  -9   2  591.09   17.06
   7   9   2  619.74   17.69
  -9   7   2  610.71   18.00
  -9   7  -2  561.91   17.45
  -7  -9  -2  561.74   17.68
  -7  -9  -2  564.38   17.09
   9  -7  -2  631.50   17.90
   7   9  -2  684.22   17.86
  -9   7   4   69.73    2.47
  -7  -9  -4   64.60    2.42
  -9   7  -4   72.87    2.63
  -7  -9  -4   67.81    2.33
  -9   7  -4   65.70    2.46
  -9   7  -4   65.87    2.37
  -7  -9  -6   22.36    1.37
  -9   7  -6   23.93    1.79
  -9   7  -6   25.94    1.68
  -7  -9  -6   23.98    1.59
  -9   7  -6   27.18    2.05
   7   9  -8    0.07    0.59
  -9   7  -8    0.40    0.75
  -7  -9  -8    0.92    0.51
  -9   7  -8    0.57    0.97
  -7  -9   8    0.62    0.88
  -6  -9   1  459.49   12.54
  -6  -9   1  398.16   12.50
   9  -6   1  462.65   12.66
  -9   6  -1  364.43   11.73
   6   9   1  406.26   11.97
   9  -6  -1  345.11   11.77
   9  -6  -1  414.48   12.23
  -6  -9  -1  435.14   12.24
   6   9  -1  438.79   12.21
  -6  -9  -1  421.63   12.25
  -9   6  -3  400.74   12.12
  -9   6   3  435.06   12.17
  -9   6  -3  461.64   12.33
  -9   6  -3  420.62   12.09
  -6  -9  -3  372.54   12.96
   9  -6  -3  354.88   12.77
  -9   6   3  433.47   13.11
  -9   6   3  442.84   12.21
  -9   6  -5    7.49    1.60
  -9   6  -5    6.50    1.34
  -9   6   5    7.32    1.02
  -9   6  -5    7.01    1.23
  -9   6  -5    9.28    1.07
  -6  -9  -5    5.49    1.15
  -9   6  -7    7.99    1.23
  -6  -9  -7    8.01    1.11
  -9   6  -7    9.66    1.21
  -9   6  -7    9.51    1.34
  -6  -9  -7    6.48    0.88
  -9   6  -7    7.30    1.54
   9  -5   0   -0.65    0.92
   9  -5   0    0.07    0.56
  -5  -9   0   -0.07    0.82
   5   9   0    0.13    0.64
  -9   5  -2   65.89    2.64
  -9   5   2   66.97    2.97
   5   9  -2   81.99    3.12
   5   9   2   73.21    3.00
  -5  -9   2   79.81    3.52
  -5  -9  -2   68.81    3.00
  -5  -9  -2   77.24    2.79
   9  -5   2   74.94    3.44
   9  -5  -2   69.25    2.77
   9  -5  -2   74.49    2.96
  -5  -9   2   70.01    3.37
  -9   5   4   38.44    1.61
  -9   5  -4   39.10    1.76
  -9   5  -4   36.40    1.65
  -9   5  -4   38.22    1.54
  -9   5  -6   75.85    2.68
  -9   5  -6   66.13    2.83
  -5  -9  -6   66.46    2.70
  -9   5  -6   60.13    2.92
  -9   5  -6   70.26    2.80
  -9   5  -8   18.78    1.20
   5   9  -8   17.07    0.97
  -9   5  -8   15.14    1.34
  -9   5  -8   18.61    1.14
  -5  -9   8   18.27    1.24
  -9   4  -1   96.63    3.21
  -4  -9   1  116.84    4.05
   9  -4   1  101.68    4.01
   4   9  -1  119.96    3.87
   4   9   1  102.07    3.61
  -4  -9  -1  107.24    3.73
   9  -4  -1  106.99    3.68
  -4  -9   1  112.63    4.03
   9  -4  -1   87.12    3.23
  -4  -9  -1  110.28    3.87
  -4  -9   1  115.84    3.40
  -9   4   3   12.17    0.87
   4   9   3   13.28    1.45
   9  -4  -3   14.24    1.82
  -9   4  -3   13.36    0.96
  -9   4   3   12.72    1.26
   4   9  -3   14.60    1.36
  -4  -9   3   14.74    1.63
  -9   4  -3   11.54    1.19
  -4  -9  -3   11.75    1.34
  -9   4   5   73.73    2.79
  -9   4  -5   77.29    2.88
  -9   4  -5   74.81    2.71
  -9   4  -7   69.02    3.14
  -9   4  -7   89.89    2.98
  -4  -9  -7   80.13    2.91
  -9   4  -7   68.94    2.89
  -9   4  -7   88.85    3.16
   3   9   0   -0.75    0.82
  -3  -9   0   -0.54    0.91
   9  -3   0    0.27    0.90
  -3  -9   0   -0.09    0.76
  -3  -9   0   -0.17    0.86
   3   9   0    0.25    0.77
   3   9  -2  695.02   18.99
  -9   3   2  641.07   18.69
  -3  -9   2  659.02   18.37
  -3  -9  -2  670.17   19.04
  -3  -9   2  662.31   19.17
   3   9   2  672.65   18.91
   9  -3  -2  670.89   18.60
  -3  -9   2  717.12   19.51
  -9   3   4  115.52    3.89
  -9   3   4  121.35    3.81
  -9   3  -4  119.80    4.00
  -9   3  -4  126.42    4.16
  -9   3  -4  116.72    3.88
  -9   3  -6   58.35    2.44
  -9   3  -6   53.96    2.58
  -9   3  -6   59.83    2.30
  -9   3  -6   50.36    2.39
  -9   3   6   51.23    2.43
  -9   3  -8    4.94    1.31
  -3  -9  -8    3.79    0.67
  -9   3  -8    7.42    1.04
   3   9  -8    6.21    0.83
  -9   3  -8    8.04    1.14
   2   9  -1   31.55    1.67
   9  -2  -1   32.73    1.33
  -2  -9   1   31.98    1.83
   2   9   1   29.90    1.58
  -2  -9  -1   26.34    1.57
  -2  -9  -1   32.57    1.72
  -2  -9   1   28.87    1.34
  -9   2   3    8.15    0.97
  -9   2   3    8.93    0.77
  -2  -9   3    9.67    1.31
  -2  -9   3    8.91    0.98
   2   9   3   10.77    1.36
  -2  -9  -3    6.75    1.14
   9  -2  -3    8.92    1.43
  -9   2  -3    8.79    0.88
   2   9  -3   10.70    1.27
  -9   2  -3    9.08    1.16
  -9   2  -5  130.76    4.45
  -9   2  -5  140.11    4.44
  -9   2   5  124.21    4.34
  -9   2  -7    9.13    1.38
  -9   2  -7    6.85    1.32
  -9   2  -7    9.41    1.64
  -2  -9  -7    6.22    1.24
  -9   2  -7    8.00    1.66
  -9   2  -9    1.13    0.44
  -2  -9   9    1.45    0.47
   9  -2  -9    0.95    0.51
  -9   2  -9    1.02    0.41
   9  -1   0    0.18    0.64
  -1  -9   0    0.05    0.80
  -1  -9   0   -0.24    0.95
   1   9   0    1.82    0.87
   9  -1  -2   18.29    1.03
  -1  -9   2   18.03    1.15
   9  -1  -2   18.56    1.16
   1   9   2   18.42    1.47
  -9   1  -2   13.16    1.07
   9  -1  -2   18.81    1.76
  -1  -9  -2   18.19    1.50
  -1  -9   2   20.58    1.79
   9  -1   2   14.84    1.00
  -1  -9   2   18.04    1.45
  -9   1  -4   52.15    2.21
   1   9   4   51.46    1.84
  -9   1   4   46.26    1.91
  -9   1  -6   32.35    2.19
  -9   1   6   34.61    1.93
  -9   1  -6   37.77    2.05
  -1  -9  -8    0.91    0.65
  -1  -9   8    1.69    1.05
  -9   1  -8    0.67    0.98
   1   9  -8    1.39    0.76
   0  -9   1  522.89   15.03
   0   9   1  490.46   15.12
   9   0  -1  535.78   15.52
   0   9  -1  513.83   15.25
   9   0  -1  519.92   14.69
   0  -9  -1  518.87   15.22
   9   0   1  487.89   15.04
   9   0  -3  284.01    9.38
   0   9  -3  305.32    9.29
   0  -9   3  293.43    9.18
   0   9   3  277.98    8.18
   0  -9   3  295.98    8.93
  -9   0   5   54.28    2.24
  -9   0  -5   53.96    2.45
  -9   0   7   42.25    2.11
   0   9  -7   42.67    1.95
  -9   0  -7   47.99    2.45
   1  -9   0   -0.51    0.91
   9   1   0    0.71    0.70
  -1   9   0    0.59    0.86
  -1   9   0    1.71    1.11
   9   1   0   -0.17    0.48
   9   1   2   95.78    3.54
  -1   9  -2  146.06    4.53
   9   1  -2  134.70    4.73
  -9  -1  -2   97.89    3.90
   9   1  -2  138.35    3.92
   1  -9   2  134.66    4.40
   1  -9   2  136.81    4.31
   1  -9  -2  132.56    4.54
  -9  -1  -4    2.27    1.01
  -1   9   4    2.44    0.76
  -9  -1  -4    2.26    1.00
  -9  -1   4    2.06    0.77
  -9  -1  -4    1.78    1.06
  -9  -1  -6    9.51    1.57
  -1   9  -6    9.17    1.27
  -9  -1   6    8.98    1.37
  -9  -1  -6   10.03    1.61
  -9  -1  -6    9.89    1.81
  -1   9  -8   24.01    1.20
  -9  -1  -8   23.59    1.51
   1  -9   8   26.51    1.40
   2  -9  -1  381.77    9.38
   9   2  -1  382.45    9.48
   2  -9   1  371.38    9.21
   9   2   1  362.17    8.96
  -2   9   1  362.89    9.32
  -2   9  -1  363.15    9.26
   2  -9   1  390.58    9.54
   2  -9  -1  366.45    9.32
   9   2  -1  337.84    8.36
  -9  -2  -3    0.70    0.78
   2  -9   3    1.37    0.81
  -2   9   3   -0.48    0.99
   9   2  -3   -0.99    0.97
  -2   9  -3    0.39    0.92
   2  -9   3    1.38    1.00
  -2   9   3    0.80    0.61
   9   2  -3    1.13    0.86
   2  -9  -3    0.39    0.89
  -9  -2  -5   14.94    1.49
  -9  -2  -5   19.22    1.53
  -9  -2   5   17.31    1.30
  -2   9  -7    0.78    0.97
  -9  -2   7    0.64    1.29
  -9  -2  -7    1.15    1.68
  -9  -2  -7   -0.02    1.49
  -2   9  -7   -0.06    1.07
  -9  -2  -7    0.04    1.21
  -9  -2  -9   35.10    1.25
   9   2  -9   35.67    1.31
  -9  -2  -9   38.71    1.29
   3  -9   0    0.62    1.04
   9   3   0   -0.24    0.65
  -3   9   0   -0.31    0.80
   3  -9   0    0.68    0.95
  -3   9   0   -0.24    1.03
   9   3  -2   73.99    3.19
   3  -9   2   70.03    3.00
   9   3  -2   65.30    2.48
  -3   9   2   63.13    2.97
   3  -9  -2   80.28    3.19
  -3   9  -2   72.73    3.03
   3  -9   2   66.06    3.35
  -9  -3  -4   35.39    1.74
  -9  -3  -4   33.85    1.65
  -9  -3  -4   33.35    1.72
  -3   9   4   37.82    1.53
  -9  -3  -6    9.22    1.31
  -9  -3   6    7.31    1.26
  -9  -3  -6   11.38    1.62
  -3   9  -6    7.95    1.25
  -9  -3  -6    6.74    1.83
  -9  -3  -6    6.77    1.63
  -9  -3  -8   43.44    1.77
  -9  -3   8   40.25    1.86
   3  -9   8   42.67    1.74
  -3   9  -8   37.43    1.56
  -9  -3  -8   40.60    1.86
   4  -9  -1 1011.22   30.60
   4  -9   1 1025.14   30.56
   4  -9  -1 1083.72   30.63
   4  -9   1 1025.45   30.67
  -4   9  -1 1051.86   30.48
   9   4  -1 1110.58   29.97
   9   4  -1 1026.36   30.60
  -9  -4  -3    1.48    0.90
   9   4  -3    3.40    0.84
  -4   9   3    2.41    1.07
   9   4  -3    2.20    1.00
  -9  -4  -3    2.26    0.82
  -4   9   3    1.61    0.67
   4  -9   3    2.65    1.12
   4  -9   3    1.87    0.53
   4  -9   3    2.59    0.83
  -4   9  -3    1.43    0.97
   4  -9  -3    2.13    1.01
  -9  -4  -5   80.77    3.34
  -4   9  -5   76.28    2.96
  -4   9   5   87.21    3.01
  -4   9  -7    5.78    1.21
  -4   9  -7    8.53    1.18
  -9  -4   7    6.90    1.34
  -9  -4  -7    6.47    1.45
  -9  -4  -7    7.87    1.20
   5  -9   0    0.20    1.01
   9   5   0    0.54    0.43
   9   5   0    0.54    0.65
   5  -9   0    0.44    0.97
  -5   9   2  138.89    5.03
   5  -9  -2  146.38    5.04
   9   5   2  127.83    4.69
   9   5  -2  148.19    4.53
   5  -9  -2  149.78    5.10
  -5   9  -2  150.20    4.98
   5  -9   2  135.37    5.27
   5  -9   2  148.50    5.20
  -9  -5  -4   13.03    1.45
  -9  -5  -4   13.92    1.22
  -5   9  -4   11.06    0.95
  -5   9  -4   11.91    1.01
  -5   9   4   13.94    1.10
  -9  -5  -4   13.33    1.00
  -9  -5  -4   12.07    1.35
  -9  -5  -6   81.08    3.00
  -9  -5  -6   77.38    2.79
  -9  -5   6   65.30    2.79
  -5   9  -6   78.81    2.85
  -9  -5  -6   69.22    3.39
  -5   9  -6   69.28    2.81
  -5   9  -8    1.16    0.64
  -9  -5  -8    1.82    0.94
  -9  -5   8    0.18    0.97
  -9  -5  -8    1.85    0.82
   5  -9   8    0.34    0.73
  -6   9  -1  808.75   23.38
  -6   9   1  813.63   23.78
  -9  -6  -1  757.07   23.03
   6  -9   1  806.93   23.66
   9   6   1  785.99   23.09
   6  -9   1  779.99   23.65
   6  -9  -1  767.41   23.57
   6  -9  -1  823.13   23.53
  -9  -6   3   46.84    1.89
  -9  -6  -3   50.11    1.85
  -9  -6  -3   44.67    2.01
   6  -9  -3   48.99    2.66
  -6   9  -3   56.20    2.64
  -9  -6  -3   42.35    1.97
   9   6   3   40.47    2.36
   6  -9   3   41.77    1.65
   9   6  -3   52.55    2.34
  -9  -6  -3   46.23    1.70
  -6   9   5  146.46    4.99
  -9  -6  -5  165.03    4.99
  -6   9  -5  166.03    5.02
  -9  -6  -5  141.17    5.28
  -9  -6  -5  163.22    5.11
  -6   9  -5  159.22    5.06
  -9  -6  -7    3.33    1.22
  -6   9  -7    2.08    1.27
  -9  -6  -7    2.17    0.99
  -9  -6   7    2.11    1.09
  -6   9  -7    2.49    1.02
   9   7   0   -0.27    0.36
  -9  -7   0   -0.03    0.72
   7  -9   0    0.32    0.89
  -9  -7   0    1.27    1.12
  -7   9   2  135.40    5.11
  -7   9  -2  145.46    4.87
   9   7  -2  156.12    4.70
   7  -9  -2  143.47    5.02
  -9  -7   2  132.49    4.14
   9   7   2  129.63    4.67
  -9  -7  -2  133.49    4.22
  -9  -7  -2  121.57    4.14
  -9  -7   2  137.13    4.14
   7  -9   2  145.41    5.29
  -9  -7  -2  111.33    4.48
   7  -9  -2  143.96    5.10
  -9  -7  -4   12.74    1.00
  -9  -7  -4   13.66    1.19
  -7   9  -4   13.07    0.89
  -7   9  -4   14.17    1.15
  -9  -7  -4   11.25    1.49
  -9  -7  -4   11.50    1.57
  -7   9  -4   10.66    0.96
  -9  -7  -6  105.89    3.80
  -9  -7  -6  114.35    3.68
  -7   9  -6  114.30    3.65
  -7   9  -6  106.03    3.70
  -7   9  -6  103.46    3.86
  -7   9  -8   -0.34    0.59
  -9  -7  -8    0.87    0.64
  -7   9  -8    0.76    0.78
  -9  -7   8    1.18    0.87
  -9  -8  -1  447.99   12.99
   9   8  -1  495.66   13.35
   8  -9  -1  493.95   13.92
  -9  -8   1  512.62   13.82
  -8   9  -1  433.44   13.37
  -9  -8  -1  407.10   13.27
   8  -9   1  446.93   13.79
  -9  -8   1  451.56   12.96
  -9  -8  -1  444.04   13.79
   9   8   1  419.35   13.14
   8  -9  -1  435.90   13.54
  -9  -8   1  434.81   14.14
  -8   9   3    4.48    0.80
  -9  -8  -3    4.04    0.79
  -8   9  -3    3.67    0.97
  -9  -8  -3    4.18    0.64
  -9  -8  -3    4.22    0.75
  -8   9  -3    3.50    0.70
  -8   9  -5    9.15    0.98
  -9  -8  -5    9.41    1.01
  -8   9  -5    7.52    1.20
  -8   9  -5    8.40    1.09
  -9  -8  -7   26.71    1.39
  -8   9  -7   33.88    1.86
   8  -9   7   28.74    1.31
  -9  -8   7   32.66    1.62
  -8   9  -7   28.83    1.46
  -9  -8  -7   24.58    1.52
  -8   9  -7   26.53    1.45
  -9  -9   0   -0.66    1.02
   9  -9   0    0.21    0.96
   9  -9   0   -0.45    0.82
  -9  -9   0    0.87    0.76
  -9  -9   2  275.35    8.00
   9   9  -2  299.40    8.64
  -9  -9  -2  260.73    8.02
  -9  -9   2  273.73    8.02
  -9  -9   2  271.86    7.99
   9   9   2  240.33    8.46
   9  -9  -2  265.61    8.78
  -9  -9  -4  195.20    5.77
  -9   9  -4  184.63    5.99
  -9  -9  -4  196.29    5.86
  -9   9   4  189.90    5.92
  -9   9  -4  204.04    5.76
  -9  -9  -6   65.21    2.65
  -9  -9  -6   67.54    2.52
  -9   9  -6   76.23    2.57
  -9   9  -6   67.88    2.91
  -9   9  -6   74.46    2.66
   9  -9  -8    5.02    0.46
  -9   9  -8   10.79    0.93
  -9 -10  -1  820.81   24.00
  -9 -10   1  832.88   23.98
  -9 -10  -1  840.87   24.90
  -9 -10   1  860.38   23.90
 -10   9   3    7.48    0.91
  -9 -10  -3    6.55    0.98
 -10   9  -3    5.08    0.78
  -9 -10   3    8.14    0.85
 -10   9  -3    6.75    1.11
  -9 -10  -3    4.53    0.89
 -10   9  -5   45.53    2.15
 -10   9   5   37.67    1.92
 -10   9  -5   45.30    1.82
  -9 -10  -5   41.09    1.87
 -10   9  -5   44.04    1.91
  -9 -10  -5   41.82    1.76
 -10   9  -7   25.66    1.34
 -10   9  -7   26.05    1.74
  -9 -10  -7   22.21    1.12
 -10   9  -7   24.01    1.43
  -9 -10   7   26.62    1.41
  -8 -10   0    8.44    1.27
  10  -8   0   10.03    1.31
  -8 -10   0    7.82    1.05
  10  -8   0    6.77    0.95
  -8 -10  -2   40.59    2.37
 -10   8   2   45.85    2.65
  -8 -10   2   51.18    1.93
   8  10   2   47.36    2.30
 -10   8  -2   44.82    1.77
   8  10  -2   59.36    2.51
  10  -8  -2   54.29    2.66
  -8 -10   2   52.57    2.01
  -8 -10  -2   46.23    2.04
  -8 -10   2   53.53    1.96
 -10   8  -4   25.99    1.57
 -10   8  -4   24.05    1.27
 -10   8   4   27.23    1.45
 -10   8  -4   24.56    1.36
 -10   8  -6    0.03    1.62
 -10   8  -6   -0.11    0.94
 -10   8  -6    0.71    1.10
  -8 -10  -6    0.24    0.76
  -8 -10  -6    1.66    0.94
 -10   8  -6    0.33    1.42
 -10   8  -8    6.23    0.94
 -10   8  -8    5.61    0.62
  -8 -10   8    6.38    0.85
   7  10   1  245.37    7.93
  10  -7  -1  268.47    8.38
  10  -7   1  280.49    8.67
  -7 -10  -1  269.71    8.39
  -7 -10  -1  275.77    8.32
  -7 -10   1  287.63    8.63
 -10   7  -1  267.98    7.62
   7  10  -1  284.05    8.29
  -7 -10   1  277.92    8.85
 -10   7   1  259.91    7.61
 -10   7  -3  109.53    3.62
 -10   7   3  106.59    3.46
 -10   7  -3  102.18    3.39
  -7 -10  -3  101.38    3.49
 -10   7   3  115.62    3.53
 -10   7  -3  104.67    3.35
 -10   7   5   15.70    1.31
 -10   7  -5   16.01    1.56
 -10   7  -5   16.41    1.18
  -7 -10  -5   13.81    1.03
  -7 -10  -5   12.96    1.21
 -10   7  -5   15.35    1.35
 -10   7  -5   14.90    1.82
 -10   7  -7   29.92    1.87
 -10   7  -7   29.19    1.46
  -7 -10   7   31.56    1.63
 -10   7  -7   22.99    1.55
  -7 -10  -7   22.75    1.22
 -10   7  -7   28.08    1.56
  -6 -10   0  401.73   11.32
  10  -6   0  411.61   11.39
  -6 -10   0  414.52   11.56
   6  10   0  371.70   10.79
 -10   6  -2   56.56    2.13
  10  -6  -2   67.16    2.85
 -10   6  -2   54.86    2.28
 -10   6   2   64.96    2.20
  -6 -10   2   64.73    2.27
  -6 -10  -2   63.51    2.86
  10  -6  -2   55.24    2.48
   6  10   2   65.17    2.76
  10  -6   2   68.56    3.24
  -6 -10   2   78.96    3.44
 -10   6  -2   63.98    2.21
 -10   6   2   63.19    2.93
   6  10  -2   78.59    2.98
 -10   6  -4    0.19    0.74
 -10   6  -4   -0.74    1.02
 -10   6   4    0.64    0.78
 -10   6  -4    0.49    0.92
 -10   6  -6   52.71    2.68
  -6 -10  -6   50.55    2.00
 -10   6  -6   59.09    2.22
  -6 -10  -6   45.52    2.13
 -10   6  -6   53.76    2.50
 -10   6  -6   55.99    2.36
 -10   6  -8    3.67    0.81
 -10   6  -8    3.64    1.09
  -6 -10   8    4.66    0.90
  10  -5   1  793.90   20.95
  -5 -10   1  787.88   19.99
  -5 -10  -1  792.88   20.70
  -5 -10   1  813.41   20.96
  10  -5  -1  753.43   20.52
  -5 -10   1  801.52   21.05
   5  10   1  742.71   20.39
   5  10  -1  812.17   20.70
  -5 -10  -1  768.91   20.60
 -10   5   3   17.06    1.01
 -10   5   3   15.93    1.14
 -10   5  -3   15.77    0.94
  -5 -10   3   17.52    0.90
 -10   5  -3   15.50    1.04
  -5 -10  -5   12.03    1.19
 -10   5  -5   10.41    1.67
 -10   5  -5   13.73    1.35
 -10   5  -5   14.99    1.21
 -10   5  -7   11.19    1.39
 -10   5  -7   11.07    1.23
 -10   5  -7    8.20    1.32
  -5 -10  -7    8.70    0.86
 -10   5  -7   10.00    1.60
   4  10   0  264.75    8.23
  -4 -10   0  278.99    8.62
  -4 -10   0  274.50    8.55
  10  -4   0  261.53    8.42
  -4 -10   0  274.84    8.26
  10  -4  -2   11.61    0.97
   4  10  -2   16.24    1.40
 -10   4  -2   10.72    0.81
  -4 -10  -2   11.50    1.27
  -4 -10   2   12.59    1.44
   4  10   2   12.99    1.28
  -4 -10  -2   11.48    1.06
 -10   4  -2    9.66    0.81
  10  -4  -2   12.27    1.12
  -4 -10   2   15.65    1.68
 -10   4  -4   39.86    2.23
 -10   4  -4   43.30    2.01
 -10   4  -4   43.44    1.89
 -10   4   4   42.43    1.91
 -10   4   4   43.95    1.75
 -10   4  -4   43.94    1.76
  -4 -10  -6   -0.26    1.04
 -10   4  -6   -1.01    1.69
 -10   4  -6    0.64    1.38
 -10   4  -6    1.09    1.39
 -10   4  -6   -0.84    1.15
 -10   4  -8    1.09    0.88
 -10   4  -8   -0.35    1.14
 -10   4  -8    1.19    0.96
  -4 -10   8   -0.08    0.95
   3  10   1    0.26    0.81
  10  -3  -1   -0.03    0.70
  -3 -10   1    0.57    1.06
  -3 -10   1    1.43    0.72
  -3 -10   1    1.38    1.00
  -3 -10  -1    0.54    0.99
   3  10  -1    0.04    0.87
  10  -3   1    0.22    1.10
  10  -3  -1    0.24    0.23
  -3 -10   3    1.43    0.50
 -10   3   3    1.49    0.81
 -10   3  -3    1.75    0.63
 -10   3  -3    1.57    0.79
 -10   3   3    1.11    0.66
 -10   3  -5    1.47    0.98
  -3 -10  -5    1.26    0.98
 -10   3   5    0.54    1.12
 -10   3  -5    1.70    1.17
 -10   3  -5    2.06    1.40
 -10   3  -7   11.89    1.34
 -10   3  -7   11.90    1.75
   3  10  -7    9.00    1.14
 -10   3  -7   10.46    1.52
 -10   3  -7    7.60    1.40
  -2 -10   0  293.41    9.45
   2  10   0  287.20    9.25
  -2 -10   0  319.35    9.30
   2  10   0  304.06    9.41
  10  -2   0  315.21    9.28
  10  -2  -2    0.83    1.16
   2  10  -2    1.94    0.96
 -10   2  -2    0.11    0.69
  -2 -10   2    1.29    0.69
   2  10   2    0.48    0.87
  10  -2   2    0.87    0.62
  10  -2  -2    1.13    0.63
 -10   2   2    0.70    0.88
  10  -2  -2    1.39    0.57
 -10   2  -2    0.92    0.52
  -2 -10   2    1.01    1.20
  -2 -10  -2    1.12    0.92
 -10   2   4   38.60    1.70
 -10   2   4   38.19    1.61
 -10   2  -4   40.56    1.94
 -10   2  -4   36.56    1.96
 -10   2  -4   42.50    1.82
 -10   2  -4   41.23    1.67
 -10   2  -6   97.90    3.13
 -10   2   6   85.91    3.20
 -10   2  -6   90.45    3.47
 -10   2  -6   94.75    3.29
 -10   2  -6   85.62    3.27
 -10   2  -8   11.36    1.43
 -10   2  -8   13.03    1.14
 -10   2  -8   14.06    1.24
  -1 -10   1  146.08    4.70
   1  10   1  133.65    4.82
  -1 -10  -1  147.97    5.05
  10  -1  -1  151.19    4.48
  -1 -10   1  139.74    5.05
  -1 -10  -1  146.38    4.95
  10  -1  -1  144.33    5.27
  10  -1  -3  101.04    4.38
 -10   1  -3   95.82    3.23
  10  -1  -3   93.70    3.75
 -10   1  -3   88.16    3.08
 -10   1   3  107.22    3.25
 -10   1   3   86.15    3.01
   1  10   3  104.19    3.09
  -1 -10   3  108.62    4.19
 -10   1  -3   96.78    3.32
  -1 -10   3  100.48    3.10
 -10   1  -5   44.64    1.92
 -10   1   5   39.94    1.96
 -10   1  -5   44.31    2.22
 -10   1  -7   12.64    1.79
 -10   1  -7   14.69    1.45
   1  10  -7   13.18    1.20
 -10   1  -7   10.12    1.48
  -1 -10  -9   30.52    1.13
 -10   1  -9   38.97    1.20
   0  10   0    2.55    0.98
   0  10   0    4.05    0.92
   0 -10   0    2.41    0.95
  10   0   0    3.00    0.87
  10   0   0    3.03    0.65
   0  10  -2  227.33    6.52
   0 -10  -2  219.86    6.57
   0  10   2  228.67    6.50
   0 -10   2  245.75    6.60
  10   0   2  170.35    5.57
  10   0  -2  183.96    5.60
   0 -10   2  231.72    6.18
  10   0  -2  230.81    6.90
 -10   0  -4  218.49    6.85
 -10   0   4  211.82    6.68
   0  10   4  231.76    6.70
 -10   0  -4  235.14    6.93
   0  10  -6    4.26    1.12
 -10   0   6    4.16    1.23
 -10   0  -6    3.91    1.50
 -10   0  -6    1.26    1.64
   0 -10   8   11.91    1.13
  -1  10  -1   84.25    3.29
  10   1  -1   83.11    2.58
  10   1   1   75.08    2.99
  10   1  -1   82.11    3.41
   1 -10  -1   83.33    3.36
  -1  10   1   80.96    3.28
   1 -10   1   82.89    3.17
   1 -10   3    4.06    0.98
  -1  10   3    4.49    0.74
   1 -10   3    4.75    1.01
 -10  -1  -3    4.24    0.85
 -10  -1  -3    3.76    0.95
  10   1  -3    3.13    0.84
 -10  -1  -3    4.16    1.01
 -10  -1  -5  355.53   10.47
 -10  -1   5  358.48   10.39
 -10  -1  -5  338.12   10.53
 -10  -1  -7   39.46    2.17
 -10  -1   7   33.87    1.90
  -1  10  -7   36.63    1.72
 -10  -1  -7   36.50    2.33
 -10  -1  -9    2.22    0.48
  -2  10   0   27.18    1.81
   2 -10   0   26.87    1.73
   2 -10   0   27.21    1.72
  10   2   0   26.45    1.23
  -2  10   0   28.38    1.67
  10   2   0   25.24    1.56
   2 -10  -2   21.62    1.67
   2 -10   2   24.89    2.08
 -10  -2  -2   21.36    1.11
   2 -10   2   26.23    1.63
 -10  -2   2   24.56    1.29
  -2  10  -2   25.36    1.75
   2 -10  -2   23.13    1.75
  10   2  -2   20.50    1.05
  -2  10   4  118.23    3.69
 -10  -2  -4  112.37    3.87
 -10  -2  -4  111.36    3.67
 -10  -2  -4  115.38    3.88
 -10  -2   4  112.92    3.65
 -10  -2  -4  109.62    3.76
 -10  -2  -6   11.50    1.88
 -10  -2  -6   11.89    1.38
 -10  -2  -6   12.00    1.63
  -2  10  -6   10.78    1.24
 -10  -2   6   10.23    1.33
 -10  -2  -6   10.74    1.70
 -10  -2  -8   62.27    2.26
 -10  -2  -8   57.51    2.32
   2 -10   8   62.18    2.24
  -3  10   1    3.63    1.13
  10   3   1    3.54    0.73
  10   3  -1    3.40    0.82
 -10  -3  -1    0.37    0.33
  -3  10  -1    3.47    0.97
   3 -10   1    4.70    1.07
   3 -10  -1    2.87    0.98
   3 -10   1    4.44    1.19
   3 -10  -1    4.69    1.13
 -10  -3  -3   41.22    1.75
 -10  -3  -3   35.60    1.51
 -10  -3  -3   37.85    1.69
   3 -10   3   44.31    2.40
 -10  -3   3   33.36    1.62
 -10  -3  -3   38.22    1.65
  -3  10   3   41.52    1.56
   3 -10   3   35.93    2.06
   3 -10   3   36.68    1.48
 -10  -3  -5   23.68    1.69
  -3  10   5   24.92    1.39
 -10  -3  -5   21.08    1.82
 -10  -3  -5   23.48    1.45
  -3  10  -5   18.46    1.32
 -10  -3   5   23.86    1.40
  -3  10  -7   39.39    1.86
 -10  -3   7   40.62    2.03
 -10  -3  -7   43.17    2.01
 -10  -3  -7   43.64    2.19
 -10  -3  -7   42.00    2.62
  -3  10  -7   42.12    1.81
   4 -10   0  761.04   20.24
  10   4   0  705.65   20.01
  10   4   0  648.81   19.37
  10   4   0  674.71   19.32
   4 -10   0  715.31   20.14
   4 -10   2  111.29    4.50
   4 -10   2  112.34    4.18
  -4  10   2  108.75    4.19
   4 -10  -2  116.97    4.25
  10   4  -2  113.39    3.49
 -10  -4  -2  104.95    3.26
  -4  10  -2  123.30    4.23
  -4  10   4    2.06    0.80
 -10  -4  -4    2.34    0.81
 -10  -4  -4    2.59    1.10
  -4  10  -4    1.93    0.74
 -10  -4  -4    2.51    1.18
 -10  -4  -6    9.88    1.90
 -10  -4  -6   13.61    1.59
 -10  -4  -6   13.28    1.31
  -4  10  -6   10.70    1.21
 -10  -4   6   12.38    1.27
 -10  -4  -6    9.60    1.77
 -10  -4  -8   -0.26    0.93
 -10  -4  -8    0.20    0.81
   4 -10   8    0.82    0.79
  -5  10   1  195.08    7.07
  10   5  -1  208.99    6.95
   5 -10   1  196.61    7.05
  -5  10  -1  201.14    6.79
  10   5  -1  219.02    6.26
   5 -10   1  206.67    7.00
  10   5   1  207.43    6.49
   5 -10  -1  216.84    7.00
 -10  -5  -3   11.62    0.87
 -10  -5  -3   12.13    1.21
 -10  -5  -3   10.96    0.81
 -10  -5   3   12.74    1.07
 -10  -5  -3   11.83    1.04
   5 -10   3    9.54    1.12
 -10  -5  -3   11.24    1.21
  -5  10   3   13.08    0.97
   5 -10   3   11.93    0.80
  -5  10  -5    2.79    0.88
  -5  10  -5    2.12    0.95
 -10  -5  -5    2.33    1.28
 -10  -5  -5    1.96    0.99
  -5  10   5    2.01    0.93
 -10  -5  -5    2.37    1.59
 -10  -5  -7   86.23    2.92
 -10  -5   7   86.59    3.01
  -5  10  -7   83.25    3.00
 -10  -5  -7   82.42    3.06
 -10  -6   0  793.56   14.56
   6 -10   0  844.96   15.75
   6 -10   0  816.89   15.85
  10   6   2  200.28    6.85
  10   6  -2  230.64    6.71
   6 -10  -2  215.61    7.34
   6 -10   2  239.32    7.55
 -10  -6  -2  213.59    6.36
 -10  -6  -2  197.24    6.35
  -6  10  -2  233.72    7.25
   6 -10  -2  219.15    7.32
 -10  -6   2  204.07    6.31
  -6  10   2  227.92    7.49
 -10  -6   2  217.25    6.33
   6 -10   2  223.94    7.69
 -10  -6  -2  203.67    6.29
 -10  -6  -4    0.32    1.32
  -6  10  -4    0.73    0.85
 -10  -6  -4   -0.61    1.02
  -6  10   4    0.22    0.87
 -10  -6  -4   -0.22    0.77
 -10  -6   6   82.16    2.94
 -10  -6  -6   81.99    2.92
  -6  10  -6   83.28    2.81
 -10  -6  -6   83.13    3.10
  -6  10  -6   75.25    3.01
  -6  10  -6   76.92    2.87
 -10  -6  -8    5.62    0.73
 -10  -6  -8    3.98    0.84
   6 -10   8    4.02    0.59
  -7  10   1    4.15    1.30
 -10  -7   1    4.87    0.82
  10   7   1    3.05    0.69
   7 -10   1    3.53    1.14
   7 -10  -1    4.03    1.14
 -10  -7   1    5.52    0.80
  -7  10  -1    4.96    0.89
 -10  -7  -1    4.83    0.85
 -10  -7  -1    5.80    0.88
   7 -10  -1    3.87    0.99
   7 -10   1    3.72    1.13
 -10  -7  -1    2.81    0.70
   7 -10   3  326.24    9.74
 -10  -7  -3  317.11    9.76
 -10  -7  -3  332.15    9.81
 -10  -7  -3  336.93    9.74
 -10  -7  -3  343.95   10.04
 -10  -7  -3  343.67   10.03
 -10  -7  -3  355.74    9.83
  -7  10  -5    2.39    0.78
 -10  -7  -5    2.37    1.22
  -7  10  -5    3.10    0.95
  -7  10  -5    1.16    1.01
 -10  -7  -5    1.97    0.93
  -7  10  -7   51.85    2.28
  -7  10  -7   48.31    1.94
 -10  -7   7   57.60    2.16
   7 -10   7   55.98    1.99
 -10  -7  -7   44.67    2.11
 -10  -7  -7   50.33    2.02
   8 -10   0   70.78    3.12
 -10  -8   0   70.98    3.47
   8 -10   0   75.71    3.34
 -10  -8   0   73.99    2.63
 -10  -8  -2    1.80    0.80
 -10  -8  -2    1.95    0.72
  10   8   2    0.89    0.75
   8 -10  -2    1.23    0.92
 -10  -8   2    1.63    0.71
 -10  -8  -2    1.68    0.85
 -10  -8   2    2.23    0.72
 -10  -8   2    2.22    0.79
  -8  10  -2    2.49    0.84
  -8  10  -4   33.89    1.50
  -8  10  -4   36.69    1.77
 -10  -8  -4   33.75    1.54
 -10  -8  -4   34.89    1.68
 -10  -8  -6    3.87    1.12
  -8  10  -6    4.99    0.89
  -8  10  -6    3.72    0.99
  -8  10  -6    4.44    1.36
 -10  -8  -6    3.72    0.96
  -8  10  -8    0.76    0.65
 -10  -8  -8    1.26    0.48
   8 -10  -8    0.50    0.42
 -10  -9   1   13.47    1.07
 -10  -9  -1   13.80    1.13
   9 -10   1    9.63    1.35
 -10  -9   1   10.47    0.85
 -10  -9  -1   13.22    1.11
 -10  -9   1   14.14    1.09
   9 -10  -1   10.75    1.26
 -10  -9  -3   57.78    2.09
  -9  10   3   55.87    2.16
 -10  -9   3   57.88    2.05
 -10  -9  -3   54.20    2.15
  -9  10  -3   53.69    2.29
 -10  -9  -3   53.99    2.12
 -10  -9  -3   54.43    2.00
  -9  10   5    9.41    1.20
  -9  10  -5   11.27    1.33
 -10  -9  -5   10.20    1.03
  -9  10  -5   12.05    1.10
 -10  -9  -5   10.32    1.22
  -9  10  -5   11.72    1.00
 -10  -9   7   11.86    1.12
  -9  10  -7    9.83    1.43
  -9  10  -7    9.54    0.90
  -9  10  -7    8.05    1.07
 -10  -9  -7    8.95    0.87
 -10 -10   0    6.68    1.04
 -10 -10   0    7.92    0.90
 -10 -10   0    8.23    1.36
 -10 -10   2   96.98    3.23
 -10 -10   2   95.09    3.22
 -10 -10  -2   92.80    3.26
 -10 -10   2   93.15    3.20
 -10 -10  -2   94.18    3.30
 -10 -10  -4   12.32    0.95
 -10 -10  -4   11.58    1.11
 -10  10  -4   12.84    1.33
 -10  10  -4   14.95    1.01
 -10  10  -4   14.51    1.08
 -10  10   4   11.49    1.26
 -10  10  -6    0.93    1.37
 -10 -10  -6    0.58    0.80
 -10  10  -6    0.94    0.93
 -10  10  -8   15.47    0.86
 -10 -11   1   20.18    1.34
 -10 -11  -1   18.58    1.38
 -10 -11   1   15.87    1.05
 -10 -11   1   18.28    1.12
 -11  10  -3  130.31    4.36
 -10 -11   3  147.91    4.46
 -11  10  -3  147.96    4.72
 -10 -11  -3  137.64    4.50
 -10 -11  -3  143.21    4.58
 -10 -11   3  143.80    4.44
 -11  10   3  135.39    4.51
 -11  10   5  119.02    4.20
 -11  10  -5  119.40    4.80
 -11  10  -5  134.93    4.45
 -11  10  -5  128.19    4.15
 -11  10  -5  134.15    4.12
 -11  10  -7    7.11    1.32
 -11  10  -7    6.17    1.04
  -9 -11   0   -0.18    0.75
  -9 -11   2  138.26    4.37
  -9 -11   2  139.64    4.37
  -9 -11   2  138.27    4.37
 -11   9  -2  126.59    4.19
  -9 -11  -2  136.73    4.42
 -11   9  -4    7.11    1.04
 -11   9   4    6.24    1.10
 -11   9  -4    7.04    1.23
 -11   9  -4    8.04    0.93
 -11   9  -6    5.91    1.00
 -11   9  -6    6.76    1.54
 -11   9  -6    5.05    1.08
  -9 -11  -6    4.96    0.78
 -11   9  -8   11.23    0.82
  11  -8  -1  228.95    7.41
 -11   8   1  221.09    6.43
  -8 -11  -1  205.97    7.15
   8  11  -1  216.24    7.06
  -8 -11  -1  214.14    7.38
  -8 -11   1  242.00    7.62
  -8 -11   1  218.83    6.48
 -11   8  -1  198.15    6.35
  -8 -11   1  217.35    6.48
 -11   8   3  273.63    8.13
 -11   8  -3  265.93    8.07
 -11   8  -3  276.44    8.03
  -8 -11   3  289.14    8.13
  -8 -11  -3  259.25    8.15
 -11   8  -5  153.64    4.80
 -11   8   5  165.00    4.93
 -11   8  -5  140.83    4.84
 -11   8  -5  145.99    5.11
 -11   8  -5  154.83    5.38
 -11   8  -7    2.44    1.41
  -8 -11   7    3.45    1.03
 -11   8  -7    2.22    0.96
 -11   8  -7    4.28    1.14
  -7 -11   0   -0.37    0.74
  -7 -11   0    0.05    0.83
  11  -7   0   -0.72    0.94
  -7 -11   0    0.17    0.89
 -11   7  -2   16.57    1.23
 -11   7  -2   15.56    1.04
  -7 -11   2   17.29    1.80
   7  11  -2   20.63    1.51
   7  11   2   15.61    1.36
 -11   7   2   18.31    1.07
  11  -7  -2   22.38    1.65
  -7 -11   2   17.25    1.12
  -7 -11   2   19.24    1.17
  -7 -11  -2   17.13    1.56
 -11   7  -2   17.66    0.97
 -11   7   4    3.10    0.96
 -11   7  -4    1.90    1.15
 -11   7  -4    3.23    0.83
 -11   7  -4    2.00    0.95
 -11   7  -6   22.54    1.41
  -7 -11  -6   18.18    1.09
 -11   7  -6   24.84    1.56
 -11   7  -6   21.58    1.88
  -7 -11   8    0.33    0.75
 -11   7  -8    1.73    0.61
 -11   7  -8    0.27    0.91
 -11   6   1  159.26    5.01
   6  11   1  155.32    5.39
  -6 -11  -1  177.97    5.85
  -6 -11   1  185.70    6.12
  11  -6  -1  176.70    5.72
 -11   6   1  164.53    5.00
 -11   6   1  153.41    4.99
  -6 -11  -1  169.76    5.76
  -6 -11   1  175.38    6.14
 -11   6  -1  163.68    5.01
  11  -6   1  179.96    6.08
 -11   6  -1  166.47    5.00
   6  11  -1  175.95    5.74
 -11   6  -1  155.69    4.95
 -11   6  -3   16.92    1.10
 -11   6   3   17.90    1.06
 -11   6   3   16.21    1.17
  -6 -11   3   16.47    0.92
 -11   6  -3   16.77    1.01
  -6 -11  -3   16.63    1.22
 -11   6  -5   25.52    1.88
 -11   6  -5   22.65    1.39
 -11   6  -5   24.05    1.57
 -11   6  -5   20.57    1.88
 -11   6  -7    1.39    1.48
 -11   6  -7   -1.00    1.11
 -11   6  -7    0.11    0.99
 -11   6  -7    0.65    1.19
  11  -5   0    0.97    0.89
  -5 -11   0    0.56    0.88
   5  11   0   -0.09    0.70
  -5 -11  -2   50.23    2.67
   5  11  -2   62.08    2.73
  -5 -11   2   53.66    2.08
 -11   5  -2   55.28    2.10
   5  11   2   50.02    2.51
  11  -5   2   60.94    3.10
  -5 -11   2   53.58    2.07
  11  -5  -2   59.92    2.55
 -11   5   2   58.05    2.03
 -11   5  -2   53.18    1.97
 -11   5  -2   53.70    1.99
 -11   5  -2   48.83    1.96
  -5 -11   2   63.54    3.23
 -11   5   2   56.75    1.99
 -11   5  -4   11.30    1.33
 -11   5  -4   13.55    1.03
 -11   5   4   14.12    1.09
 -11   5  -4   12.00    1.20
 -11   5  -6   42.12    2.05
 -11   5  -6   41.33    1.86
 -11   5  -6   37.74    2.19
  -5 -11   8   30.71    1.39
 -11   5  -8   30.69    1.32
 -11   5  -8   29.75    1.38
  11  -4   1  106.32    4.17
 -11   4  -1  105.29    3.35
   4  11   1   98.61    3.78
 -11   4   1  101.87    3.33
  -4 -11   1  114.08    4.34
  -4 -11  -1  107.56    4.02
  11  -4  -1  109.68    3.83
  -4 -11   1  114.20    3.60
  -4 -11  -1  101.39    4.01
 -11   4   1  106.26    3.37
 -11   4  -1  101.02    3.33
   4  11  -1  117.37    4.13
 -11   4   3   17.07    1.17
 -11   4  -3   16.45    1.19
 -11   4  -3   15.73    1.09
  -4 -11   3   15.76    0.92
 -11   4   3   15.75    0.98
 -11   4  -3   14.47    0.93
 -11   4  -3   15.02    0.93
 -11   4  -5   11.93    1.38
 -11   4  -5   11.17    1.14
 -11   4  -5    9.90    1.68
 -11   4  -7   46.28    1.98
 -11   4  -7   41.41    2.05
 -11   4  -7   45.46    2.39
   3  11   0   -0.59    0.81
  11  -3   0    0.45    0.80
  -3 -11   0    0.25    0.80
  -3 -11   0   -0.13    0.89
  -3 -11   0    0.19    0.93
 -11   3   2    3.70    0.66
  -3 -11   2    4.38    1.09
  11  -3  -2    3.51    0.77
   3  11   2    3.98    0.98
 -11   3  -2    2.94    0.66
 -11   3  -2    2.91    0.77
 -11   3  -2    3.68    0.70
  -3 -11  -2    4.19    1.03
  -3 -11   2    6.13    1.35
 -11   3   2    3.24    0.71
 -11   3   2    6.24    1.02
   3  11  -2    5.53    1.12
  11  -3  -2    2.84    1.37
 -11   3   4    6.18    0.82
 -11   3   4    5.09    0.99
 -11   3  -4    7.02    0.93
 -11   3  -4    7.69    1.13
 -11   3  -6   16.65    1.43
 -11   3  -6   15.63    1.73
 -11   3  -6   19.21    1.69
 -11   3  -8    6.03    1.01
 -11   3  -8    6.06    1.25
 -11   3  -8    8.62    0.97
   2  11   1    0.27    0.85
  -2 -11  -1    0.75    0.96
  -2 -11   1    1.70    0.96
  11  -2  -1    0.82    0.94
  11  -2  -1    0.36    0.54
  -2 -11   1   -0.70    0.74
  11  -2   1    2.42    1.06
  -2 -11   1    2.33    1.07
  -2 -11  -1    0.97    0.90
  11  -2   1    0.77    0.96
   2  11  -1    0.79    0.85
 -11   2   3    6.81    0.74
 -11   2   3    8.34    1.00
 -11   2  -3    8.49    0.98
 -11   2  -3    7.62    0.78
 -11   2  -3    7.98    0.95
  -2 -11   3    7.37    0.70
 -11   2  -3    8.18    1.20
 -11   2  -5   65.63    2.87
 -11   2  -5   70.00    2.70
 -11   2  -5   65.48    2.51
 -11   2   5   60.08    2.54
 -11   2  -5   67.60    2.84
 -11   2  -7    1.25    1.22
 -11   2  -7    1.30    1.61
 -11   2  -7    1.35    1.32
 -11   2  -7   -0.10    1.38
   1  11   0    0.19    0.94
  11  -1   0    0.15    0.88
  11  -1   0    0.12    0.57
  -1 -11   0   -0.24    0.88
  -1 -11   0    0.05    0.92
  -1 -11   2  101.68    3.55
  11  -1  -2  113.53    2.75
   1  11   2  103.44    3.50
  -1 -11   2  111.66    3.14
  -1 -11   2  122.08    4.19
  -1 -11  -2  102.31    3.55
   1  11   4  177.58    5.41
 -11   1  -4  180.28    5.65
 -11   1  -4  184.21    5.48
 -11   1   4  171.10    5.47
 -11   1  -6  169.01    5.36
 -11   1   6  160.50    5.41
 -11   1  -6  176.18    5.61
 -11   1  -8    2.23    0.93
  -1 -11   8    0.71    0.89
   0 -11   1    3.36    0.88
  11   0  -1    3.36    0.88
  11   0   1    3.55    0.89
   0 -11  -1    4.36    1.15
   0  11   1    5.55    1.07
   0  11  -1    4.61    1.07
  11   0  -1    4.44    0.51
 -11   0  -3  332.58    9.96
 -11   0   3  359.98    9.80
 -11   0  -3  327.52   10.00
   0  11   3  353.10    9.86
 -11   0   3  319.15    9.94
   0 -11   3  331.27    9.86
 -11   0  -3  334.71   10.04
 -11   0  -5    9.65    1.70
 -11   0   5    8.81    1.13
 -11   0  -5    9.80    1.56
 -11   0  -7   43.56    2.39
 -11   0  -7   32.46    2.08
  -1  11   0    1.27    1.07
  11   1   0   -0.18    0.80
  11   1   0    0.12    0.50
   1 -11   0    0.15    0.91
  -1  11  -2   41.53    2.18
  11   1   2   27.70    1.29
   1 -11   2   38.59    2.14
  -1  11   2   37.23    2.11
 -11  -1   2   38.69    1.58
   1 -11  -2   38.59    2.24
   1 -11   2   35.25    1.85
 -11  -1  -2   34.43    1.41
   1 -11  -2   30.82    2.02
 -11  -1  -4   45.74    2.15
  -1  11   4   48.99    1.88
 -11  -1  -4   44.63    2.02
 -11  -1   4   44.76    1.80
 -11  -1  -6   58.03    2.54
 -11  -1   6   56.57    2.31
 -11  -1  -6   52.23    2.59
   1 -11   8   -0.20    0.84
 -11  -1  -8   -0.25    0.95
  -2  11   1   37.01    2.18
   2 -11   1   43.46    2.11
   2 -11   1   44.34    2.41
  11   2   1   37.24    1.88
  -2  11  -1   42.20    2.16
   2 -11  -1   39.36    2.22
   2 -11  -1   40.34    2.22
  11   2  -1   39.49    2.17
 -11  -2   3  161.19    5.17
 -11  -2  -3  169.10    5.14
 -11  -2  -3  163.25    5.04
 -11  -2  -3  176.81    5.21
  -2  11   3  166.02    5.07
   2 -11   3  156.63    5.03
   2 -11   3  148.16    5.86
 -11  -2  -3  172.00    5.24
 -11  -2  -5  235.88    7.74
 -11  -2   5  240.57    7.48
 -11  -2  -5  255.12    7.52
 -11  -2  -5  259.35    7.65
 -11  -2  -5  247.13    7.75
 -11  -2  -7   33.22    1.80
 -11  -2  -7   29.13    2.29
 -11  -2   7   35.43    1.79
 -11  -2  -7   33.45    1.93
   3 -11   0    0.13    0.83
  11   3   0   -0.05    0.41
  11   3   0   -0.34    0.61
   3 -11   0   -0.05    0.97
 -11  -3   2   96.89    3.16
   3 -11  -2  100.86    4.02
 -11  -3  -2   87.91    2.99
   3 -11   2  102.27    3.81
   3 -11   2  100.68    4.34
 -11  -3   2   96.62    3.00
 -11  -3  -2   83.98    2.97
  -3  11  -2  107.18    3.99
 -11  -3   2   93.08    2.99
 -11  -3  -2   92.83    3.04
   3 -11  -2   93.11    3.96
  -3  11   4   35.09    1.65
 -11  -3  -4   37.32    1.81
 -11  -3  -4   34.85    1.62
 -11  -3  -4   39.93    2.00
 -11  -3   4   35.29    1.53
 -11  -3  -6    3.54    1.66
 -11  -3   6    1.73    1.10
  -3  11  -6    0.87    0.93
 -11  -3  -6    2.45    1.16
 -11  -3  -6    2.37    1.46
   3 -11   8   13.97    0.97
 -11  -3  -8   13.57    1.05
 -11  -3  -8   13.74    1.15
 -11  -4   1    1.62    0.68
   4 -11  -1    2.08    0.96
   4 -11   1    0.85    0.94
 -11  -4  -1    2.05    0.73
 -11  -4   1    0.90    0.65
   4 -11  -1    1.10    0.96
  11   4  -1    2.24    0.76
 -11  -4  -1    2.83    0.74
 -11  -4  -1    1.63    0.71
   4 -11   1    2.76    1.19
  -4  11  -1    1.93    0.95
  -4  11   3   13.13    1.01
 -11  -4   3   14.93    1.15
 -11  -4  -3   13.69    0.99
 -11  -4  -3   13.90    0.91
 -11  -4  -3   15.32    1.14
 -11  -4  -3   13.19    0.87
   4 -11   3   16.20    0.91
 -11  -4  -3   17.71    1.29
 -11  -4  -3   16.13    1.24
 -11  -4  -5   21.44    2.00
  -4  11   5   22.93    1.44
 -11  -4  -5   24.62    1.50
 -11  -4  -5   23.65    2.00
 -11  -4  -5   27.52    1.76
 -11  -4   5   23.40    1.38
  -4  11  -7   15.60    1.31
 -11  -4   7   19.29    1.36
 -11  -4  -7   17.14    1.33
 -11  -4  -7   13.18    1.45
  11   5   0    0.18    0.36
  11   5   0    0.07    0.33
   5 -11   0    0.25    0.94
 -11  -5   0    0.53    0.73
  11   5   0    0.87    0.61
   5 -11   0    1.23    1.02
 -11  -5  -2   15.57    1.14
   5 -11   2   13.90    0.85
 -11  -5   2   16.18    1.00
 -11  -5  -2   15.84    1.06
 -11  -5  -2   14.19    1.07
  -5  11  -2   17.16    1.49
 -11  -5  -2   15.73    0.99
   5 -11  -2   16.89    1.63
 -11  -5   2   17.17    0.98
   5 -11   2   18.91    1.87
  11   5   2   13.81    1.25
   5 -11   2   16.33    1.55
 -11  -5  -4  144.96    4.82
 -11  -5  -4  153.36    4.69
  -5  11   4  138.20    4.59
  -5  11  -4  139.55    4.61
 -11  -5  -4  147.27    4.56
 -11  -5  -6  260.73    7.42
 -11  -5  -6  258.86    7.55
  -5  11  -6  237.15    7.29
 -11  -5   6  252.71    7.39
 -11  -5  -8    1.06    0.70
   5 -11   8    1.58    0.63
 -11  -5  -8    1.25    0.80
  -6  11   1    7.87    1.43
   6 -11   1   11.42    1.47
   6 -11  -1    9.52    1.31
 -11  -6  -1   10.98    0.92
  11   6  -1   12.51    1.25
 -11  -6  -1    8.76    0.93
 -11  -6   1    9.53    0.90
  -6  11  -1    9.62    1.17
  11   6   1    9.59    0.90
 -11  -6  -1   10.54    0.95
 -11  -6   1   11.04    0.93
 -11  -6   1   11.41    0.95
   6 -11   1    8.25    1.30
 -11  -6  -3  163.86    4.82
 -11  -6  -3  160.11    4.74
 -11  -6   3  145.98    4.81
 -11  -6  -3  146.76    4.69
  -6  11   3  155.94    4.77
 -11  -6  -3  163.01    4.99
 -11  -6  -3  145.84    4.71
 -11  -6  -3  154.31    4.97
   6 -11   3  148.35    4.70
 -11  -6  -5   98.33    3.38
 -11  -6  -5   92.25    3.89
  -6  11   5   97.08    3.43
 -11  -6  -5   99.46    3.93
 -11  -6  -5  101.06    3.54
  -6  11  -5  102.29    3.42
 -11  -6   7    5.00    1.03
 -11  -6  -7    5.32    1.00
 -11  -6  -7    3.62    1.13
  -6  11  -7    5.10    1.22
   7 -11   0   -0.29    1.02
 -11  -7   0   -0.05    0.76
   7 -11   0    1.11    0.94
   7 -11  -2  135.47    5.20
 -11  -7  -2  125.20    4.03
 -11  -7  -2  136.89    4.18
 -11  -7   2  128.20    4.10
 -11  -7   2  129.96    4.10
   7 -11   2  130.28    5.48
 -11  -7  -2  135.34    4.19
  -7  11  -2  132.86    4.89
 -11  -7   2  137.86    4.13
 -11  -7  -2  132.20    4.27
 -11  -7  -2  135.21    4.11
 -11  -7   2  136.31    4.13
   7 -11   2  117.14    4.00
  -7  11   4    6.08    1.07
 -11  -7  -4    6.86    0.95
  -7  11  -4    7.61    1.11
 -11  -7  -4    6.71    1.16
 -11  -7  -4    3.57    1.42
 -11  -7  -6   10.95    1.17
  -7  11  -6   11.31    1.03
 -11  -7  -6   11.97    1.40
  -7  11  -6   13.02    1.47
 -11  -7   6   11.73    1.17
 -11  -7  -8   57.23    1.46
   7 -11  -8   52.71    1.39
  -8  11  -1    4.70    0.87
 -11  -8  -1    5.23    0.78
 -11  -8   1    3.40    0.87
 -11  -8   1    2.86    0.66
   8 -11   1    2.74    1.10
 -11  -8  -1    3.55    0.94
 -11  -8   1    3.63    0.91
   8 -11  -1    1.89    1.01
 -11  -8   1    2.88    0.84
 -11  -8  -1    3.33    0.88
 -11  -8   3   65.60    2.26
 -11  -8  -3   61.76    2.24
 -11  -8  -3   59.28    2.30
 -11  -8  -3   67.27    2.36
 -11  -8  -3   59.11    2.29
  -8  11  -5  120.23    4.07
 -11  -8  -5  120.40    3.94
 -11  -8  -5  119.45    4.03
  -8  11  -7    1.23    1.22
   8 -11   7    0.46    0.67
 -11  -8  -7    0.68    0.78
  -8  11  -7    0.11    0.80
 -11  -9   0   -0.14    0.92
 -11  -9   0   -0.06    0.91
   9 -11   0    0.85    0.92
 -11  -9   0    0.08    0.69
 -11  -9  -2   69.10    2.61
   9 -11  -2   67.76    2.35
 -11  -9  -2   76.16    2.61
 -11  -9   2   75.47    2.54
 -11  -9   2   74.74    2.54
   9 -11   2   63.33    2.31
 -11  -9   2   71.82    2.53
  -9  11  -4   39.67    1.93
 -11  -9  -4   36.65    1.67
 -11  -9  -4   37.88    1.80
  -9  11  -6    0.60    1.35
 -11  -9  -6    0.75    0.85
  -9  11  -6    0.16    0.82
 -11  -9  -6   -0.19    1.02
 -11  -9   6    0.32    0.90
  -9  11  -8    0.71    0.43
 -11 -10  -1  191.89    6.09
 -11 -10   1  195.45    6.04
 -11 -10   1  199.79    5.91
 -11 -10   1  196.57    5.95
 -11 -10  -1  190.96    6.06
 -11 -10   1  191.21    6.01
 -11 -10   3  106.20    3.42
 -10  11  -3   96.15    3.65
 -11 -10   3  102.35    3.38
 -11 -10  -3  101.07    3.47
 -11 -10  -3  101.78    3.51
 -10  11   3  109.00    3.49
 -10  11  -5   94.07    3.36
 -10  11   5   85.16    3.19
 -11 -10  -5   93.74    3.07
 -10  11  -5   88.54    3.04
 -11 -10  -5   85.63    3.12
 -10  11  -7    4.40    1.29
 -11 -10  -7    1.84    0.60
 -10  11  -7    2.72    0.89
  10 -11  -7    1.95    0.61
 -11 -11   0   -0.04    0.84
 -11 -11   0    1.10    0.97
 -11 -11   0   -0.15    0.66
 -11 -11   0   -0.28    0.98
 -11 -11   2   21.24    1.32
 -11 -11  -2   19.42    1.44
 -11 -11   2   22.07    1.34
 -11 -11  -2   19.98    1.41
 -11 -11   2   20.71    1.31
 -11  11  -4   21.53    1.57
 -11  11   4   17.31    1.34
 -11  11  -6   13.46    1.53
 -11 -12   1   45.92    1.85
 -11 -12   1   44.16    1.88
 -11 -12   1   43.01    2.01
 -11 -12  -1   40.73    2.05
 -11 -12  -1   41.93    1.99
 -11 -12   1   40.71    1.95
 -12  11   3   11.79    1.13
 -12  11  -3   11.30    1.47
 -11 -12  -3   11.42    1.21
 -11 -12  -3   11.06    1.14
 -11 -12   3   12.12    1.02
 -11 -12   3   11.29    1.08
 -12  11   5    0.36    1.07
 -12  11  -5    0.55    0.88
 -12  11  -5    1.16    1.27
 -12  11  -5    0.62    1.92
 -12  11  -7    1.40    1.16
 -12  11  -7    0.93    0.80
 -10 -12   0  318.51    8.82
 -10 -12   0  299.43    8.74
 -10 -12  -2    2.66    1.01
 -10 -12   2    0.74    0.87
 -10 -12   2    1.28    0.95
 -10 -12  -2    1.52    1.06
 -10 -12   2    2.92    0.95
 -12  10  -4  111.12    3.74
 -12  10  -4  107.61    3.68
 -12  10  -4  113.87    4.05
 -12  10  -6    1.07    0.88
 -12  10  -6    0.80    1.37
  -9 -12  -1    2.95    1.05
 -12   9  -1    2.53    0.80
  -9 -12   1    4.05    0.84
  -9 -12   1    3.90    1.03
  -9 -12   1    3.29    0.83
 -12   9   1    4.10    0.89
  -9 -12  -3   38.25    1.87
  -9 -12  -3   38.84    1.79
 -12   9  -3   37.12    1.68
 -12   9  -3   39.12    1.66
 -12   9   3   36.16    1.73
  -9 -12   3   41.36    1.72
  -9 -12   3   40.94    1.73
 -12   9  -5   37.82    1.73
 -12   9  -5   35.59    1.80
 -12   9   5   41.18    1.86
 -12   9  -5   39.61    2.17
 -12   9  -5   35.47    2.51
 -12   9  -7    0.40    0.75
 -12   9  -7   -0.08    1.26
 -12   9  -7    0.76    1.01
  -9 -12   7    0.56    0.88
  -8 -12   0  367.54   12.14
 -12   8   0  372.81   11.21
  -8 -12   2  127.27    4.15
 -12   8   2  129.00    4.03
 -12   8  -2  120.57    4.19
 -12   8  -2  124.27    3.95
  -8 -12   2  137.01    4.23
 -12   8  -2  123.75    4.00
  -8 -12  -2  123.22    4.22
  -8 -12   2  126.09    4.15
 -12   8   4   13.23    1.21
 -12   8  -4   14.14    1.47
 -12   8  -4   12.39    1.10
 -12   8  -4   11.51    1.17
 -12   8  -6   20.43    1.85
 -12   8  -6   20.42    1.36
 -12   8  -6   19.34    1.44
 -12   8  -8    2.73    0.74
 -12   7   1   34.82    1.58
  -7 -12  -1   33.81    2.11
 -12   7  -1   34.84    1.57
  -7 -12   1   38.19    2.36
  12  -7  -1   36.62    2.10
 -12   7   1   37.31    1.51
   7  12  -1   34.69    1.98
 -12   7  -1   34.72    1.46
  -7 -12   1   36.21    1.56
 -12   7   1   34.70    1.57
 -12   7  -1   33.66    1.57
 -12   7  -1   32.63    1.48
  -7 -12   1   35.77    1.54
  -7 -12  -1   30.36    2.03
 -12   7   3   40.68    1.72
 -12   7  -3   42.01    1.78
 -12   7   3   40.42    1.84
 -12   7  -3   37.47    1.65
  -7 -12  -3   42.17    1.87
  -7 -12   3   44.37    1.81
 -12   7  -5  188.58    6.40
 -12   7  -5  200.79    6.14
 -12   7  -5  203.86    6.57
 -12   7  -5  193.49    6.05
 -12   7  -7    4.96    1.02
 -12   7  -7    3.65    1.38
 -12   7  -7    5.61    0.96
 -12   7  -7    4.40    1.18
  12  -6   0  233.89    7.43
  -6 -12   0  248.09    7.79
  -6 -12   0  231.27    7.53
 -12   6  -2   94.42    3.02
 -12   6   2   93.13    3.03
  -6 -12   2   88.89    2.86
 -12   6   2   95.04    3.03
  -6 -12   2   91.11    3.11
 -12   6  -2   86.92    3.08
 -12   6  -2   83.93    2.91
  12  -6  -2   91.43    3.65
  -6 -12   2   88.73    3.09
 -12   6  -2   84.35    2.96
 -12   6  -2   95.11    3.03
 -12   6   4   70.39    2.55
 -12   6  -4   73.32    2.82
 -12   6  -4   67.36    2.48
 -12   6  -4   64.19    2.56
 -12   6  -6   37.56    2.19
 -12   6  -6   39.31    1.84
 -12   6  -6   35.92    1.94
 -12   6  -8    8.75    1.03
  -6 -12   8   11.03    0.84
 -12   6  -8    8.41    0.77
  12  -5   1  150.81    5.53
 -12   5  -1  140.93    4.57
   5  12   1  140.64    5.06
  -5 -12   1  166.10    5.81
  -5 -12   1  158.17    5.76
 -12   5   1  144.57    4.61
 -12   5  -1  142.82    4.59
 -12   5  -1  144.67    4.59
  -5 -12  -1  155.09    5.40
  -5 -12   1  152.28    4.65
 -12   5   1  148.18    4.63
   5  12  -1  157.64    5.39
 -12   5   1  154.68    4.62
  12  -5  -1  155.13    5.20
  -5 -12  -1  154.31    5.46
 -12   5  -3    8.79    0.88
 -12   5   3   10.41    1.09
 -12   5  -3   11.13    1.16
 -12   5  -3    9.32    0.90
  -5 -12   3   10.69    0.80
 -12   5  -3   10.51    1.01
 -12   5   3    9.16    0.93
 -12   5  -5    0.15    1.55
 -12   5  -5    0.97    1.05
 -12   5  -5    0.18    1.20
 -12   5  -7   27.28    1.53
 -12   5  -7   25.72    1.93
 -12   5  -7   28.67    1.61
  -4 -12   0  573.04   16.50
   4  12   0  530.79   15.97
  12  -4   0  565.78   16.16
  -4 -12   0  587.75   16.50
 -12   4   0  511.59   15.45
  -4 -12   0  547.00   15.96
 -12   4   2   36.59    1.58
  -4 -12   2   35.63    1.40
 -12   4   2   33.46    1.41
 -12   4  -2   38.19    1.51
 -12   4  -2   31.07    1.51
 -12   4   2   34.01    1.53
 -12   4  -2   35.42    1.59
   4  12   2   34.01    2.06
 -12   4  -2   34.42    1.44
  -4 -12   2   32.42    1.58
 -12   4   2   37.66    1.74
 -12   4   2   40.07    1.53
 -12   4  -2   40.28    1.53
  -4 -12   2   34.36    1.60
 -12   4   4   73.93    2.65
 -12   4  -4   77.58    2.70
 -12   4  -4   77.57    2.82
 -12   4  -6    2.22    1.34
 -12   4  -6    3.81    1.18
 -12   4  -6    1.39    1.45
  -4 -12   8   69.75    2.28
 -12   4  -8   73.91    2.28
  -3 -12  -1    6.15    1.13
 -12   3  -1    6.55    0.75
  -3 -12   1    5.73    1.17
   3  12   1    5.67    0.99
  12  -3   1    6.12    1.14
 -12   3  -1    7.37    0.87
   3  12  -1    7.91    1.12
  12  -3  -1    6.69    0.85
  -3 -12   1    7.80    0.90
  12  -3  -1    6.17    1.25
 -12   3  -1    6.31    0.80
 -12   3   1    7.37    0.84
  -3 -12   1    7.48    1.36
 -12   3   1    8.99    0.96
 -12   3   1    5.83    0.82
 -12   3   3  394.65   11.43
 -12   3   3  417.98   11.61
 -12   3  -3  410.49   11.62
 -12   3  -3  384.21   11.49
 -12   3  -3  379.12   11.43
 -12   3  -3  419.98   11.41
 -12   3  -3  360.60   11.72
  -3 -12   3  390.74   11.45
 -12   3  -3  391.51   11.42
 -12   3  -5   36.49    2.12
 -12   3  -5   35.81    2.20
 -12   3  -5   36.75    1.77
 -12   3  -5   36.32    1.98
 -12   3  -7    0.13    1.54
 -12   3  -7    1.22    1.27
 -12   3  -7    1.14    1.13
 -12   3  -7    1.75    1.31
  12  -2   0   79.21    3.03
  -2 -12   0   79.60    3.42
   2  12   0   78.66    3.20
  -2 -12   0   82.24    3.20
 -12   2   0   84.23    2.70
 -12   2  -2   20.62    1.10
 -12   2   2   22.29    1.14
 -12   2   2   21.49    1.18
 -12   2  -2   19.43    1.14
   2  12   2   19.39    1.60
 -12   2  -2   20.02    1.09
 -12   2   2   22.09    1.13
 -12   2  -2   17.13    1.06
  -2 -12   2   20.33    1.20
  -2 -12   2   22.68    1.02
 -12   2  -2   18.56    1.17
 -12   2   2   23.11    1.41
 -12   2  -4    2.59    0.87
   2  12   4    1.43    0.62
 -12   2  -4    1.59    1.26
 -12   2  -4    2.08    1.08
 -12   2  -6   17.60    1.49
 -12   2  -6   13.51    1.65
 -12   2  -6   14.95    1.81
 -12   2  -8    0.93    0.78
 -12   2  -8    1.65    0.87
  12  -1   1  182.62    6.31
 -12   1   1  190.15    5.67
  12  -1   1  166.21    6.24
 -12   1  -1  187.81    5.66
  -1 -12   1  199.35    6.23
  -1 -12   1  196.23    6.75
  -1 -12  -1  187.39    6.45
  12  -1  -1  194.00    5.87
 -12   1  -1  190.49    5.66
  -1 -12  -1  185.87    6.50
 -12   1   1  189.06    5.66
   1  12   1  191.78    6.44
  12  -1  -1  169.19    6.73
 -12   1  -3    2.25    0.65
 -12   1  -3    2.61    1.12
 -12   1   3    3.36    0.60
  -1 -12   3    3.34    0.65
   1  12   3    3.57    0.63
 -12   1  -3    3.92    0.98
 -12   1   3    4.60    0.99
 -12   1  -3    2.61    0.71
 -12   1  -3    2.58    0.76
 -12   1  -5   36.91    2.21
 -12   1  -5   35.41    1.78
 -12   1  -5   39.14    2.16
 -12   1   5   31.44    1.71
 -12   1  -7    0.50    1.63
 -12   1  -7    1.04    1.20
 -12   1  -7    0.29    1.34
   0  12   0  694.00   20.42
  12   0   0  693.96   19.94
   0 -12   0  724.06   20.35
   0 -12   2   12.99    0.82
   0 -12   2   14.20    1.44
   0  12   2   12.59    1.43
   0 -12   2   12.27    1.17
 -12   0   2   14.06    0.92
 -12   0  -2   13.84    0.92
 -12   0  -2   12.00    1.10
 -12   0  -2   13.74    0.94
 -12   0   2   14.41    0.95
 -12   0  -4    2.73    1.24
   0  12   4    1.83    0.73
 -12   0   6   51.56    2.22
 -12   0  -6   50.64    2.62
   0 -12   8   10.52    0.94
  12   1  -1  462.87   14.01
  -1  12   1  478.45   13.84
  -1  12  -1  486.37   13.85
 -12  -1  -1  440.59   12.84
  12   1  -1  420.37   12.75
   1 -12   1  466.37   13.57
 -12  -1  -1  445.54   12.84
 -12  -1   1  436.87   12.86
 -12  -1   1  460.09   12.85
   1 -12  -1  454.61   13.76
 -12  -1  -1  470.33   12.87
 -12  -1   1  466.40   12.86
 -12  -1  -3   12.82    1.17
 -12  -1  -3   14.81    0.90
 -12  -1  -3   12.51    0.87
 -12  -1  -3   13.17    1.13
  -1  12   3   14.24    0.95
 -12  -1  -3   13.26    1.28
 -12  -1   5    1.53    0.98
 -12  -1  -5    3.38    1.41
 -12  -1  -5    1.31    1.57
 -12  -1  -5    1.35    1.54
 -12  -1  -7    3.72    1.34
 -12  -1  -7    3.86    1.74
 -12  -2   0 1016.63   29.13
  12   2   0 1016.17   29.28
  12   2   0 1041.96   29.97
 -12  -2   0 1019.98   29.12
   2 -12   0 1124.11   30.05
   2 -12   0 1038.01   30.11
 -12  -2  -2   38.96    1.71
 -12  -2  -2   39.25    1.62
 -12  -2   2   39.86    1.84
 -12  -2   2   39.40    1.67
   2 -12   2   41.58    2.19
 -12  -2  -2   38.87    1.59
 -12  -2  -2   36.51    1.74
 -12  -2   2   43.92    1.64
   2 -12   2   40.54    1.55
 -12  -2   2   43.12    1.63
 -12  -2  -2   43.06    1.63
 -12  -2  -4  140.16    4.66
  -2  12   4  141.90    4.49
 -12  -2  -4  145.43    4.59
 -12  -2  -4  135.57    4.47
 -12  -2  -6   31.05    1.74
 -12  -2   6   26.74    1.63
 -12  -2  -6   31.38    1.98
 -12  -2  -8    4.36    0.85
   2 -12   8    5.15    0.80
 -12  -2  -8    4.53    0.94
 -12  -3  -1  295.79    8.88
  -3  12   1  304.71    9.93
  12   3   1  263.24    9.24
 -12  -3   1  296.60    8.89
   3 -12   1  311.97    9.69
   3 -12  -1  322.22    9.90
   3 -12   1  306.10   10.05
 -12  -3   1  307.58    8.88
 -12  -3  -1  306.66    8.89
  12   3  -1  307.00    9.90
   3 -12  -1  299.72    9.83
  -3  12  -1  318.90    9.81
 -12  -3  -1  303.49    8.87
 -12  -3   1  315.90    8.88
 -12  -3  -3   67.57    2.49
 -12  -3  -3   73.37    2.73
  -3  12   3   78.56    2.61
 -12  -3   3   76.26    2.72
 -12  -3  -3   73.68    2.60
 -12  -3  -3   83.09    2.72
   3 -12   3   75.57    2.57
 -12  -3  -3   79.92    2.82
 -12  -3  -3   73.23    2.53
  -3  12   5    5.52    1.02
 -12  -3  -5    6.14    1.70
 -12  -3   5    6.37    0.97
 -12  -3  -5    5.93    1.43
 -12  -3  -5    4.92    1.11
 -12  -3  -5    4.42    1.56
 -12  -3  -7   -1.04    1.11
  -3  12  -7    0.06    0.90
 -12  -3  -7   -0.33    1.21
   4 -12   0  731.04   21.01
   4 -12   0  710.75   20.85
 -12  -4   0  695.74   19.91
 -12  -4   0  718.10   19.96
  12   4   0  649.42   20.59
 -12  -4   0  692.75   19.94
 -12  -4  -2    2.79    0.72
   4 -12   2    1.70    0.60
 -12  -4   2    1.74    0.68
 -12  -4   2    2.20    0.78
 -12  -4  -2    1.83    0.71
 -12  -4   2    3.82    1.03
 -12  -4  -2    2.90    0.85
 -12  -4  -2    1.99    0.93
 -12  -4   2    2.59    0.71
 -12  -4  -2    1.07    0.75
  -4  12   4  626.51   17.13
 -12  -4  -4  610.99   17.28
 -12  -4  -4  589.34   17.06
 -12  -4  -4  620.98   17.16
 -12  -4  -6   43.41    1.99
 -12  -4   6   37.80    1.81
 -12  -4  -6   41.96    2.13
 -12  -4  -8   10.21    0.86
   4 -12   8   11.23    0.78
   5 -12  -1    2.54    0.99
 -12  -5  -1    3.11    0.80
 -12  -5   1    3.02    0.78
 -12  -5   1    2.93    0.88
  12   5  -1    2.79    0.76
   5 -12   1    4.81    1.13
 -12  -5  -1    3.90    0.89
  -5  12  -1    2.35    0.91
 -12  -5   1    2.49    0.74
   5 -12   1    2.14    1.18
 -12  -5  -1    1.96    0.76
 -12  -5  -3  101.78    3.30
 -12  -5   3   99.21    3.42
  -5  12   3  105.82    3.35
 -12  -5  -3  111.25    3.45
 -12  -5  -3   86.86    3.24
 -12  -5  -3  108.79    3.56
 -12  -5  -3   96.70    3.31
 -12  -5  -3  107.54    3.56
   5 -12   3  100.23    3.28
 -12  -5  -5    0.25    1.59
  -5  12   5    0.56    0.92
  -5  12  -5   -0.45    0.80
 -12  -5  -5    0.49    1.29
 -12  -5   5    1.40    0.82
 -12  -5  -5    0.16    1.66
 -12  -5  -5   -0.79    1.04
 -12  -5  -7    1.44    1.15
  -5  12  -7    0.52    1.05
 -12  -5  -7    0.36    0.98
   6 -12   0  112.34    4.54
 -12  -6   0  120.34    3.62
 -12  -6   0  112.59    3.67
 -12  -6   0  105.40    3.64
   6 -12   2  298.29    9.41
 -12  -6  -2  300.98    9.55
 -12  -6   2  317.00    9.48
 -12  -6  -2  326.76    9.45
 -12  -6  -2  329.36    9.50
 -12  -6  -2  325.11    9.60
 -12  -6  -2  349.76    9.56
 -12  -6   2  333.15    9.49
 -12  -6   2  332.94    9.49
 -12  -6  -2  328.11    9.52
  -6  12   4   65.55    2.45
  -6  12  -4   60.51    2.44
 -12  -6  -4   63.30    2.39
 -12  -6  -4   63.88    2.52
 -12  -6  -4   57.93    2.76
  -6  12  -6    0.98    1.16
 -12  -6  -6    1.00    1.04
 -12  -6  -6    2.58    1.30
 -12  -6   6    0.98    0.93
 -12  -6  -8   21.31    0.96
   6 -12  -8   20.71    0.96
   7 -12   1   23.72    1.13
 -12  -7   1   25.08    1.34
 -12  -7  -1   25.69    1.26
 -12  -7   1   25.00    1.20
  -7  12  -1   20.87    1.59
   7 -12   1   22.67    2.03
 -12  -7   1   24.85    1.33
   7 -12  -1   23.71    1.16
 -12  -7  -1   27.19    1.42
 -12  -7  -1   25.70    1.34
 -12  -7   1   25.71    1.31
   7 -12  -1   23.77    1.86
 -12  -7  -3    5.15    0.80
   7 -12   3    4.87    0.72
 -12  -7  -3    5.94    1.37
 -12  -7  -3    4.83    0.85
 -12  -7   3    6.57    1.01
 -12  -7  -3    4.82    0.86
 -12  -7  -3    4.30    1.04
 -12  -7   3    4.64    0.75
 -12  -7  -3    3.33    1.28
  -7  12   5   69.80    2.66
  -7  12  -5   69.36    2.66
 -12  -7  -5   70.90    2.65
 -12  -7  -5   74.74    2.79
 -12  -7   5   67.71    2.54
 -12  -7  -7   22.91    1.43
  -7  12  -7   24.83    1.54
 -12  -7  -7   26.34    1.35
   8 -12   0   49.16    2.03
   8 -12   0   55.35    3.01
 -12  -8   0   66.36    2.38
 -12  -8   0   71.66    2.28
 -12  -8   0   67.47    2.22
 -12  -8   0   63.52    2.34
 -12  -8  -2    6.95    0.95
 -12  -8   2    5.43    0.85
 -12  -8  -2    5.83    0.78
 -12  -8  -2    6.22    1.01
 -12  -8   2    6.25    0.87
   8 -12  -2    5.85    0.84
 -12  -8   2    5.72    0.83
 -12  -8  -2    7.89    1.00
 -12  -8   2    7.52    0.90
   8 -12   2    5.53    0.66
  -8  12  -4    2.79    1.05
 -12  -8  -4    1.87    0.89
 -12  -8  -4   -0.15    1.09
  -8  12  -6    9.06    1.44
 -12  -8  -6    8.75    1.06
 -12  -8  -6    7.65    1.22
 -12  -9  -1   10.25    1.13
 -12  -9   1   10.74    1.05
 -12  -9   1   11.49    0.90
   9 -12   1    9.85    0.74
   9 -12  -1    9.56    0.84
 -12  -9  -1    9.58    1.12
 -12  -9   1   10.61    1.10
 -12  -9  -3  221.22    6.65
  -9  12  -3  206.93    6.87
 -12  -9  -3  233.53    6.74
 -12  -9  -3  216.03    6.74
 -12  -9   3  227.28    6.67
 -12  -9   3  228.47    6.66
 -12  -9  -3  210.04    6.70
  -9  12  -5   22.67    1.51
 -12  -9  -5   20.51    1.32
 -12  -9  -5   19.53    1.46
 -12  -9  -7   16.14    0.95
  -9  12  -7   13.58    0.95
  -9  12  -7   17.54    1.38
   9 -12  -7   15.33    0.93
 -12 -10   0  309.75    9.04
 -12 -10   0  296.14    9.20
 -12 -10   0  287.63    9.16
 -12 -10   2  115.81    3.73
 -12 -10  -2  113.96    3.76
 -12 -10   2  114.47    3.70
  10 -12  -2  107.68    3.50
 -12 -10  -2  114.16    3.81
 -12 -10   2  118.57    3.70
 -10  12   4  173.44    5.33
 -10  12  -4  167.69    5.41
 -12 -10  -4  163.65    5.21
 -12 -10  -4  160.37    5.12
 -12 -10  -6    2.93    0.81
 -10  12  -6    3.93    1.36
 -12 -11   1    8.04    0.88
 -12 -11   1    7.50    0.95
 -12 -11   1   10.13    1.19
 -12 -11  -1    9.73    1.26
 -12 -11  -1    8.49    1.14
 -12 -11   1    8.86    1.12
 -11  12   3   71.79    2.68
 -12 -11   3   72.63    2.57
 -12 -11  -3   64.96    2.63
 -12 -11   3   73.17    2.54
 -12 -11  -3   63.69    2.59
 -11  12  -3   72.70    2.85
 -11  12   5    7.53    1.24
 -11  12  -5    6.31    1.30
 -12 -11  -5    6.27    0.88
  11 -12  -5    7.01    0.88
 -11  12  -7   -0.80    1.06
 -11  12  -7    0.67    0.68
 -12 -12   0  282.39    7.98
 -12 -12   0  269.67    7.89
 -12 -12   0  251.79    8.03
 -12 -12   0  240.54    7.97
 -12 -12  -2    3.63    1.03
 -12 -12   2    4.62    1.05
 -12 -12   2    3.92    1.05
 -12 -12   2    4.46    1.05
 -12 -12  -2    4.39    1.17
 -12  12   4  482.01   14.37
 -12  12  -4  503.74   14.51
 -12  12  -6   19.35    1.60
 -12 -13  -1  153.70    5.19
 -12 -13   1  163.58    5.24
 -12 -13   1  156.03    5.12
 -12 -13   1  157.77    5.10
 -12 -13  -1  172.68    5.30
 -12 -13  -1  159.90    5.29
 -12 -13   1  156.54    5.21
 -13  12   3   29.31    1.63
 -12 -13   3   27.29    1.46
 -12 -13  -3   25.83    1.62
 -12 -13  -3   23.85    1.51
 -13  12   5   25.16    1.52
 -13  12  -5   26.38    1.78
 -13  12  -5   26.56    2.27
 -13  12  -7    7.09    0.98
 -13  12  -7    4.71    0.67
 -11 -13   0    0.24    0.95
 -11 -13   0   -0.32    0.83
 -11 -13   0   -0.16    1.15
 -11 -13   2   58.23    2.38
 -11 -13   2   56.91    2.37
 -11 -13  -2   55.00    2.49
 -11 -13  -2   52.16    2.38
 -11 -13   2   59.43    2.37
 -13  11   4    5.78    1.22
 -13  11  -4    5.57    1.44
 -13  11  -4    5.43    0.99
 -10 -13   1   81.52    2.94
 -10 -13   1   84.55    3.12
 -10 -13  -1   76.32    3.10
 -10 -13   1   83.96    2.94
 -10 -13  -3    3.97    0.98
 -10 -13   3    2.84    0.90
 -13  10   3    4.57    0.98
 -13  10  -3    4.32    0.85
 -13  10  -3    5.85    1.01
 -10 -13  -3    2.92    1.10
 -10 -13   3    4.64    0.94
 -13  10   5    1.77    1.03
 -13  10  -5    3.04    1.04
 -13  10  -5    1.53    1.42
 -13  10  -5    4.13    0.95
 -13  10  -5    2.31    1.86
 -13  10  -7   46.99    1.97
 -13  10  -7   40.31    1.74
 -13   9   0    0.16    0.83
  -9 -13   0    0.16    0.90
  -9 -13   0   -0.67    0.81
  -9 -13  -2   44.03    2.11
 -13   9  -2   44.16    2.11
  -9 -13   2   45.27    2.01
 -13   9  -2   40.35    1.75
 -13   9  -2   44.15    1.83
  -9 -13   2   46.70    2.01
  -9 -13   2   47.85    2.10
 -13   9   2   43.19    1.85
 -13   9   4    3.55    1.03
 -13   9  -4    4.27    1.36
 -13   9  -4    3.63    0.94
 -13   9  -4    5.16    1.04
 -13   9  -6   12.73    1.17
 -13   9  -6   11.35    1.55
  -8 -13   1   52.04    2.04
 -13   8   1   49.01    1.94
 -13   8  -1   49.95    1.91
 -13   8  -1   44.38    1.92
  -8 -13   1   53.56    2.06
 -13   8   1   50.76    2.05
  -8 -13   3    4.36    0.96
  -8 -13  -3    5.38    1.06
 -13   8   3    4.29    0.91
 -13   8   3    4.37    1.12
 -13   8  -3    3.81    1.23
 -13   8  -3    5.42    1.01
 -13   8  -3    3.07    0.88
  -8 -13   3    3.31    0.91
 -13   8  -5   40.45    2.29
 -13   8  -5   38.64    1.83
 -13   8  -5   40.70    1.96
 -13   8  -5   41.48    2.53
 -13   8  -7    6.59    1.36
  -8 -13   7    4.84    0.95
 -13   8  -7    5.66    0.89
 -13   8  -7    6.07    1.12
  -7 -13   0    0.88    0.55
 -13   7   0    0.43    0.86
 -13   7   0    0.24    0.72
 -13   7   0   -0.12    0.84
  -7 -13   2  189.28    5.89
  -7 -13   2  198.15    5.90
 -13   7   2  193.00    5.78
 -13   7  -2  195.76    5.89
 -13   7  -2  178.74    5.68
  -7 -13  -2  185.23    5.58
 -13   7  -2  178.53    5.73
  -7 -13   2  186.54    5.61
 -13   7   4    4.19    1.02
 -13   7  -4    5.67    1.13
 -13   7  -4    4.26    0.96
 -13   7  -6    1.02    1.17
 -13   7  -6    1.46    1.02
 -13   7  -6    0.44    1.46
 -13   7  -8    7.88    0.87
  -7 -13   8   12.21    0.72
 -13   6   1   31.24    1.46
  13  -6  -1   23.86    1.69
 -13   6   1   29.32    1.37
 -13   6  -1   27.14    1.30
  -6 -13   1   25.82    1.35
  -6 -13   1   24.72    1.13
 -13   6  -1   25.20    1.37
  -6 -13  -1   24.27    1.14
 -13   6  -1   26.74    1.35
 -13   6   1   26.63    1.42
 -13   6  -1   23.33    1.37
 -13   6   1   24.50    1.36
 -13   6   3   32.41    1.52
 -13   6  -3   31.31    1.58
 -13   6  -3   33.91    1.74
 -13   6  -3   30.67    1.50
  -6 -13   3   32.60    1.39
 -13   6   3   32.24    1.68
  -6 -13   3   31.82    1.62
  -6 -13  -3   32.24    1.68
 -13   6  -5   82.00    2.98
 -13   6  -5   85.50    3.10
 -13   6  -5   80.03    3.45
 -13   6  -7   34.96    1.60
 -13   6  -7   32.98    1.65
 -13   6  -7   32.04    1.78
  -5 -13   0    0.01    0.59
  13  -5   0   -0.25    0.83
 -13   5   0    0.15    0.82
 -13   5   0    1.04    0.74
  -5 -13   0    0.08    0.74
 -13   5   0    0.55    0.75
  -5 -13   2   30.43    1.29
  -5 -13   2   32.47    1.58
 -13   5   2   34.36    1.54
 -13   5  -2   26.75    1.46
 -13   5   2   32.36    1.50
 -13   5  -2   30.71    1.56
 -13   5  -2   27.82    1.38
 -13   5  -2   29.61    1.46
  -5 -13  -2   28.31    1.30
 -13   5  -2   30.80    1.44
 -13   5   2   33.46    1.46
 -13   5   4  233.93    6.82
 -13   5  -4  224.28    6.83
 -13   5  -4  216.49    6.88
 -13   5  -6    1.67    1.13
 -13   5  -6    2.63    1.28
 -13   5  -6    4.34    1.52
 -13   5  -8    1.20    0.87
  -5 -13   8    3.03    0.68
 -13   5  -8    3.36    0.65
  13  -4   1   55.74    2.83
  -4 -13   1   62.07    2.02
 -13   4  -1   54.32    2.15
 -13   4  -1   56.86    2.13
   4  13   1   48.81    2.56
  -4 -13  -1   58.93    2.82
 -13   4   1   60.18    2.12
  -4 -13   1   58.59    2.15
 -13   4  -1   58.14    2.08
 -13   4  -1   53.13    2.09
 -13   4   1   59.78    2.22
  13  -4  -1   58.61    2.53
  -4 -13  -1   54.61    1.96
 -13   4   1   57.63    2.16
  -4 -13   1   58.35    2.17
 -13   4  -1   55.89    2.14
 -13   4   1   57.53    2.14
 -13   4  -3  140.18    4.49
 -13   4  -3  134.01    4.31
 -13   4  -3  134.04    4.38
  -4 -13   3  134.75    4.28
 -13   4   3  134.22    4.28
 -13   4  -3  142.21    4.31
 -13   4   3  147.22    4.50
 -13   4  -3  129.70    4.30
 -13   4  -3  118.62    4.63
 -13   4   3  149.60    4.34
 -13   4  -5   96.85    3.75
 -13   4  -5  100.35    3.58
 -13   4  -5  103.68    3.49
 -13   4  -5   99.19    3.91
 -13   4  -7    2.84    1.20
 -13   4  -7    4.55    1.12
 -13   4  -7    4.05    1.30
  13  -3   0    0.16    0.69
  -3 -13   0   -1.16    0.81
  -3 -13   0    0.34    0.62
 -13   3   0   -0.61    0.73
  -3 -13   0   -0.06    0.95
   3  13   0    0.60    0.81
  -3 -13   0    0.86    0.74
  13  -3   0    0.22    0.94
  -3 -13   0   -0.12    0.88
 -13   3   0    0.07    0.76
 -13   3   0   -0.21    0.87
  -3 -13   2   23.68    1.11
 -13   3  -2   22.84    1.31
 -13   3   2   18.68    1.04
 -13   3   2   24.07    1.32
 -13   3  -2   22.06    1.19
  -3 -13   2   22.57    1.33
 -13   3   2   24.23    1.55
 -13   3   2   25.48    1.30
 -13   3  -2   23.39    1.24
 -13   3  -2   22.30    1.28
 -13   3  -2   24.70    1.23
 -13   3   2   24.67    1.24
 -13   3  -4  105.56    3.85
 -13   3   4  108.64    3.56
 -13   3  -4  111.44    3.96
 -13   3  -4  111.18    3.66
 -13   3  -4  111.91    3.75
 -13   3  -6    9.30    1.34
 -13   3  -6   10.02    1.53
 -13   3  -6    7.08    1.67
 -13   3  -8    2.69    0.79
 -13   3  -8    3.07    0.75
  -3 -13  -8    2.23    0.61
  -2 -13  -1   29.71    1.94
 -13   2   1   29.76    1.50
  13  -2   1   23.46    1.75
  13  -2   1   30.86    1.90
   2  13   1   29.14    1.87
 -13   2   1   30.93    1.37
 -13   2  -1   28.24    1.31
  -2 -13   1   28.72    1.34
 -13   2   1   29.91    1.37
  -2 -13   1   30.35    1.68
  -2 -13  -1   23.42    1.20
 -13   2  -1   28.33    1.39
 -13   2   1   31.15    1.38
 -13   2  -1   27.27    1.45
  13  -2  -1   25.72    2.06
  -2 -13   1   28.77    1.37
 -13   2  -1   26.67    1.35
 -13   2   3  281.72    7.65
 -13   2   3  282.22    7.59
 -13   2   3  263.68    7.80
 -13   2  -3  251.07    7.79
 -13   2  -3  248.26    7.62
 -13   2  -3  243.75    7.69
 -13   2  -3  241.47    7.58
 -13   2  -3  268.39    7.93
  -2 -13   3  250.22    7.62
 -13   2  -3  240.67    7.58
 -13   2  -5  129.03    4.46
 -13   2  -5  117.33    4.37
 -13   2  -5  126.50    4.13
 -13   2  -5  120.23    4.21
 -13   2  -7   23.83    1.64
 -13   2  -7   24.63    1.51
 -13   2  -7   20.26    1.70
   1  13   0   -0.15    0.93
  13  -1   0    0.26    0.55
  13  -1   0    0.06    0.85
  -1 -13   0   -0.99    0.94
 -13   1   0   -0.48    0.74
 -13   1   0   -0.21    0.74
  -1 -13   0   -0.82    1.06
 -13   1  -2    3.36    1.03
 -13   1  -2    3.38    0.78
  -1 -13   2    3.01    0.61
 -13   1  -2    3.74    0.79
 -13   1   2    4.42    0.89
  -1 -13   2    2.96    0.80
 -13   1  -2    3.21    0.75
  -1 -13   2    3.07    0.89
 -13   1   2    3.26    0.77
 -13   1   2    3.22    0.78
 -13   1  -2    3.91    0.76
 -13   1  -4   13.61    1.46
   1  13   4   12.65    0.94
 -13   1  -4   12.27    1.16
 -13   1  -4   12.55    1.48
 -13   1  -6    8.25    1.73
 -13   1  -6    7.74    1.75
 -13   1  -6    8.04    1.35
 -13   1  -8   38.45    1.54
  -1 -13   8   35.57    1.48
  13   0  -1  133.74    5.44
   0 -13   1  150.98    5.08
  13   0   1  134.71    4.93
   0 -13   1  150.28    4.47
   0 -13  -1  124.14    4.23
 -13   0  -1  147.97    4.40
 -13   0   1  146.50    4.38
   0  13   1  148.79    5.33
   0 -13  -1  143.12    5.23
 -13   0  -1  148.99    4.39
 -13   0   1  148.11    4.40
 -13   0  -3   31.89    1.48
 -13   0  -3   35.55    1.79
   0  13   3   38.19    1.52
 -13   0  -3   37.29    1.81
 -13   0   3   33.20    1.75
 -13   0   3   36.80    1.55
 -13   0  -3   37.16    1.87
   0 -13   3   36.50    1.54
 -13   0  -3   36.84    1.53
 -13   0  -5    4.31    1.61
 -13   0   5    3.36    0.94
 -13  -1   0   -0.69    0.75
  13   1   0    0.08    0.41
   1 -13   0    0.64    0.97
 -13  -1   0    0.13    0.85
  13   1   0   -0.59    0.75
   1 -13   0   -0.42    1.05
 -13  -1  -2  119.84    3.97
 -13  -1   2  129.69    4.15
 -13  -1  -2  121.08    4.03
   1 -13   2  130.48    4.66
 -13  -1   2  131.08    3.97
 -13  -1  -2  117.56    4.01
 -13  -1  -2  123.82    4.05
 -13  -1   2  126.89    3.98
 -13  -1  -2  128.45    3.97
 -13  -1  -2  128.56    3.99
 -13  -1  -4   40.97    2.05
  -1  13   4   36.58    1.61
 -13  -1  -4   40.00    1.89
 -13  -1  -4   34.39    1.98
 -13  -1  -6    4.00    1.83
 -13  -1  -6    4.44    1.71
 -13  -1   6    5.39    1.08
 -13  -1  -6    5.09    1.52
 -13  -1  -8    3.84    0.84
   1 -13   8    4.75    0.74
  13   2   1   46.39    2.26
 -13  -2  -1   55.34    2.07
  -2  13   1   57.55    2.88
 -13  -2  -1   52.88    1.95
 -13  -2   1   53.78    1.98
  13   2  -1   46.57    2.61
   2 -13   1   58.10    2.65
  13   2   1   41.13    2.22
 -13  -2   1   56.27    2.00
   2 -13  -1   58.33    2.85
 -13  -2  -1   54.62    2.02
   2 -13  -1   42.51    1.84
 -13  -2  -1   58.31    2.04
 -13  -2   1   56.13    2.10
 -13  -2   1   58.26    2.03
 -13  -2  -3   59.42    2.18
 -13  -2  -3   61.53    2.42
  -2  13   3   59.29    2.21
 -13  -2   3   59.49    2.41
 -13  -2  -3   60.95    2.29
 -13  -2  -3   62.66    2.39
 -13  -2  -3   62.11    2.19
 -13  -2  -3   60.95    2.44
 -13  -2  -5    1.19    1.50
 -13  -2  -5    1.36    1.12
 -13  -2   5    1.78    0.87
 -13  -2  -5    0.24    1.35
 -13  -2  -7    4.50    1.15
 -13  -2  -7    4.81    1.30
   3 -13   0   -0.38    1.00
   3 -13   0   -0.01    0.66
 -13  -3   0    0.92    0.76
 -13  -3   0    0.37    0.84
 -13  -3   0   -0.53    0.69
 -13  -3   0   -0.49    0.78
   3 -13   0    0.13    0.98
 -13  -3   2   84.00    2.70
 -13  -3  -2   81.70    2.68
 -13  -3   2   74.36    2.70
 -13  -3   2   80.84    2.85
 -13  -3  -2   74.13    2.68
 -13  -3  -2   72.84    2.64
 -13  -3  -2   79.40    2.76
 -13  -3  -2   72.95    2.71
 -13  -3   2   79.61    2.67
 -13  -3  -2   82.14    2.69
   3 -13   2   72.12    2.59
 -13  -3  -4  462.83   13.45
  -3  13   4  443.45   13.25
 -13  -3  -4  455.67   13.26
 -13  -3  -4  456.37   13.34
 -13  -3  -4  462.61   13.47
 -13  -3  -6   21.32    2.27
 -13  -3  -6   22.37    1.57
 -13  -3  -6   24.07    1.80
 -13  -3  -6   17.97    2.01
   3 -13   8   62.20    1.90
   3 -13  -8   59.44    1.89
 -13  -3  -8   55.53    1.94
 -13  -4  -1  364.94   10.68
   4 -13   1  360.22   10.60
 -13  -4   1  377.23   10.67
 -13  -4   1  371.76   10.64
   4 -13  -1  334.97   10.53
 -13  -4  -1  352.61   10.61
 -13  -4   1  374.07   10.67
 -13  -4  -1  382.30   10.68
 -13  -4  -1  371.43   10.69
 -13  -4   1  381.08   10.69
 -13  -4  -3   15.63    1.37
  -4  13   3   13.30    1.05
 -13  -4   3   15.59    1.25
 -13  -4  -3   16.23    1.16
 -13  -4  -3   18.47    1.36
   4 -13   3   15.39    1.00
 -13  -4  -3   11.85    0.98
 -13  -4  -3   17.47    1.43
 -13  -4  -3   15.41    1.02
 -13  -4   3   17.44    1.01
 -13  -4  -5    1.83    1.62
  -4  13   5    0.04    0.84
 -13  -4  -5    2.82    1.14
 -13  -4   5    0.28    0.81
 -13  -4  -5    1.90    1.31
  -4  13  -7    6.58    1.02
 -13  -4  -7    8.56    1.12
 -13  -4  -7    5.73    1.20
  13   5   0   -0.37    0.57
   5 -13   0   -0.20    0.68
 -13  -5   0    0.12    0.69
 -13  -5   0    0.36    0.84
 -13  -5   0    0.07    0.79
 -13  -5   0    0.02    0.77
 -13  -5   2    3.69    0.80
 -13  -5  -2    3.85    0.82
 -13  -5   2    3.95    0.78
 -13  -5  -2    3.31    0.94
   5 -13   2    3.07    0.63
 -13  -5  -2    4.86    0.87
 -13  -5   2    5.17    0.92
 -13  -5  -2    2.87    0.80
 -13  -5  -2    4.24    1.01
   5 -13  -2    2.89    0.80
 -13  -5  -2    3.70    1.01
 -13  -5  -4   92.64    3.57
  -5  13  -4   95.60    3.25
 -13  -5  -4   92.93    3.26
 -13  -5  -4   84.32    3.52
  -5  13   4   88.98    3.27
  -5  13  -6    0.28    1.10
 -13  -5  -6    1.16    1.11
 -13  -5  -6    0.91    1.29
 -13  -5  -8    1.55    0.55
   5 -13   8    1.25    0.37
 -13  -5  -8    0.44    0.61
   5 -13  -8    2.33    0.55
 -13  -6   1  719.30   20.42
 -13  -6  -1  719.95   20.47
 -13  -6   1  725.49   20.37
 -13  -6  -1  722.73   20.36
   6 -13   1  670.18   20.34
 -13  -6  -1  721.47   20.39
 -13  -6   1  720.45   20.41
   6 -13  -1  701.67   20.31
 -13  -6  -1  710.52   20.45
 -13  -6   1  707.47   20.43
 -13  -6  -1  748.18   20.44
 -13  -6  -3  388.82   11.35
  -6  13   3  378.49   11.12
 -13  -6   3  382.32   11.04
 -13  -6   3  401.47   11.06
 -13  -6   3  363.05   11.15
 -13  -6  -3  371.96   11.28
 -13  -6  -3  426.65   11.21
   6 -13   3  361.38   11.06
 -13  -6  -3  388.05   11.10
 -13  -6  -3  384.95   11.10
 -13  -6  -3  336.40   11.03
 -13  -6  -5   11.95    1.99
  -6  13   5   11.13    1.23
  -6  13  -5   11.52    1.07
 -13  -6  -5   12.98    1.46
 -13  -6  -5   13.25    1.29
  -6  13  -7   12.61    1.21
 -13  -6  -7   12.20    1.08
 -13  -6  -7   12.01    1.21
 -13  -7   0   -0.14    0.81
 -13  -7   0    0.13    0.85
 -13  -7   0   -0.09    0.67
 -13  -7   0   -0.08    0.83
 -13  -7   0    0.32    0.62
   7 -13   0   -0.39    0.73
 -13  -7  -2    5.21    0.92
 -13  -7  -2    6.83    1.06
   7 -13   2    4.91    0.70
 -13  -7   2    6.13    0.85
 -13  -7   2    4.74    0.88
 -13  -7  -2    5.66    0.85
   7 -13  -2    4.96    0.90
 -13  -7   2    5.71    0.89
 -13  -7  -2    5.56    1.19
 -13  -7  -2    6.46    0.97
  -7  13  -4  116.73    3.96
 -13  -7  -4  119.81    3.88
 -13  -7  -4  123.96    4.00
 -13  -7  -6   65.64    2.46
 -13  -7  -6   61.02    2.55
  -7  13  -6   64.06    2.61
   7 -13  -8    0.29    0.34
 -13  -8  -1  137.30    4.42
   8 -13   1  138.56    4.24
 -13  -8  -1  140.82    4.31
 -13  -8   1  134.98    4.26
 -13  -8  -1  127.62    4.23
 -13  -8   1  139.77    4.27
 -13  -8   1  148.81    4.37
 -13  -8   1  136.53    4.39
   8 -13  -1  120.33    4.18
 -13  -8  -1  136.19    4.44
 -13  -8   1  141.14    4.39
 -13  -8   3  247.98    8.04
   8 -13   3  262.23    7.95
 -13  -8  -3  254.32    8.00
 -13  -8  -3  289.52    8.08
 -13  -8   3  277.16    7.95
   8 -13  -3  271.35    7.97
 -13  -8  -3  266.12    7.99
 -13  -8  -3  261.05    7.99
 -13  -8   3  274.18    7.95
  -8  13   5    0.24    0.95
  -8  13  -5    0.92    0.95
 -13  -8  -5    0.04    0.96
 -13  -8  -5    0.22    1.17
  -8  13  -7   20.26    1.37
 -13  -8  -7   19.53    1.08
   8 -13  -7   21.26    1.10
 -13  -9   0    0.15    0.84
 -13  -9   0   -0.12    0.71
 -13  -9   0   -0.40    0.74
 -13  -9   0    0.09    0.92
 -13  -9   0   -0.37    0.93
 -13  -9   2    7.65    0.93
 -13  -9   2    9.37    0.99
 -13  -9  -2    7.49    1.02
 -13  -9  -2    7.92    0.90
 -13  -9  -2    7.99    1.13
   9 -13  -2    8.13    0.95
 -13  -9  -2   10.20    1.12
 -13  -9   2    8.60    1.03
   9 -13   2    7.59    0.76
 -13  -9   2    8.54    0.99
  -9  13  -4  101.03    3.54
 -13  -9  -4  100.52    3.34
 -13  -9  -4   90.84    3.39
 -13  -9  -6   12.49    1.06
  -9  13  -6   14.88    1.52
 -13 -10  -1   55.94    2.24
 -13 -10   1   56.25    2.06
 -13 -10   1   50.59    2.15
  10 -13  -1   46.10    1.88
  10 -13   1   47.77    1.85
 -13 -10  -1   54.90    2.23
 -13 -10   1   52.48    2.16
 -13 -10   3   69.68    2.50
 -13 -10  -3   68.18    2.58
 -13 -10  -3   67.04    2.46
 -10  13  -3   74.40    2.86
 -13 -10  -3   65.48    2.61
  10 -13  -3   72.61    2.48
 -13 -10  -3   63.65    2.54
 -13 -10   3   69.73    2.50
 -10  13  -5  175.58    5.40
 -13 -10  -5  166.54    5.18
 -13 -10  -5  158.58    5.21
  10 -13  -5  168.91    5.14
  10 -13  -7    0.27    0.41
 -10  13  -7    1.38    0.56
 -13 -11   0   -0.50    1.02
 -13 -11   0    0.24    0.69
 -13 -11   0   -0.09    0.88
 -13 -11   0   -1.01    1.14
 -13 -11  -2    5.83    1.12
 -13 -11   2    5.65    1.01
 -13 -11   2    6.82    1.08
 -13 -11   2    6.02    1.00
 -13 -11  -2    6.97    1.19
  11 -13  -4   44.54    1.77
 -11  13  -4   48.25    2.22
 -11  13  -6   11.64    1.41
  11 -13  -6    9.79    0.81
 -13 -12   1  358.89   10.45
 -13 -12  -1  353.36   10.55
 -13 -12  -1  375.40   10.61
 -13 -12   1  353.42   10.51
 -13 -12   1  333.04   10.36
 -13 -12  -1  346.41   10.50
 -13 -12   1  346.79   10.48
 -13 -12  -3    0.11    0.93
 -12  13  -3    0.41    1.32
 -13 -12   3    0.53    0.81
 -12  13   3    0.28    1.14
 -13 -12  -3    0.86    1.02
 -12  13   5   17.90    1.45
 -12  13  -5   24.15    1.62
 -12  13  -5   21.58    2.27
 -12  13  -7    4.34    0.88
 -12  13  -7    1.51    0.49
 -13 -13   0    0.24    1.24
 -13 -13   0   -0.28    0.99
 -13 -13   0   -2.22    1.33
 -13 -13   0   -0.14    0.80
 -13 -13  -2   32.63    1.85
 -13 -13   2   30.06    1.73
 -13 -13   2   32.32    1.77
 -13 -13  -2   29.13    1.87
 -13 -13   2   33.22    1.75
 -13  13   4   39.76    1.97
 -13  13  -4   40.91    2.14
 -13  13  -6   12.59    1.37
 -13 -14   1   98.84    3.50
 -13 -14  -1  108.29    3.64
 -13 -14  -1   91.18    3.64
 -13 -14   1   95.36    3.58
 -13 -14   1   98.79    3.45
 -13 -14  -1   92.59    3.41
 -13 -14   1   96.51    3.58
 -13 -14  -1   95.14    3.63
 -13 -14  -3  112.25    3.86
 -14  13   3  118.05    3.86
 -13 -14   3  112.58    3.75
 -13 -14  -3  108.11    3.79
 -13 -14   3  107.80    3.69
 -14  13   5   40.69    1.82
 -14  13  -5   43.62    2.46
 -14  13  -5   45.38    2.12
 -13 -14  -7    1.48    0.53
 -12 -14   0    0.25    1.25
 -12 -14   0    0.08    1.05
 -12 -14   0    0.09    1.28
 -12 -14   0    0.74    0.90
 -12 -14   2   34.38    1.84
 -14  12  -2   32.96    2.02
 -12 -14   2   33.51    1.82
 -12 -14  -2   32.69    1.97
 -12 -14  -2   32.03    1.89
 -12 -14   2   33.66    1.82
 -14  12   4   17.04    1.32
 -12 -14  -4   12.67    1.04
 -14  12  -4   15.59    1.64
 -14  12  -6    2.44    1.38
 -14  12  -6    2.85    1.21
 -11 -14  -1   52.00    2.42
 -11 -14   1   47.68    2.31
 -11 -14  -1   45.66    2.33
 -11 -14  -1   55.32    2.38
 -11 -14   1   52.18    2.22
 -11 -14   1   49.34    2.29
 -11 -14   1   50.63    2.17
 -11 -14  -3    7.30    1.10
 -14  11   3    8.96    1.19
 -11 -14   3    8.54    1.03
 -11 -14   3    7.94    1.04
 -11 -14  -3    6.66    1.23
 -14  11   5  164.76    5.31
 -14  11  -5  176.67    5.84
 -14  11  -5  174.12    5.66
 -14  11  -7   14.28    0.91
 -10 -14   0  119.21    3.96
 -10 -14   0  116.20    4.14
 -14  10   0  108.99    3.80
 -14  10  -2    5.41    0.97
 -10 -14   2    5.18    1.20
 -14  10  -2    5.08    1.23
 -10 -14   2    4.34    1.14
 -10 -14   2    5.52    1.18
 -10 -14  -2    6.76    1.25
 -14  10  -4  126.65    4.35
 -14  10  -4  122.49    3.98
 -14  10  -4  129.01    4.06
 -14  10  -6    5.37    1.55
 -14  10  -6    6.40    0.90
 -14  10  -6    6.43    1.44
  -9 -14   1   78.69    2.81
 -14   9   1   76.98    2.67
 -14   9  -1   71.10    2.62
 -14   9  -1   66.16    2.63
 -14   9   1   74.84    2.75
  -9 -14  -1   77.96    2.98
  -9 -14  -1   74.47    2.98
  -9 -14   1   79.27    2.82
  -9 -14   1   80.45    3.00
  -9 -14   3   36.92    1.71
 -14   9   3   31.90    1.70
 -14   9  -3   36.54    1.75
 -14   9  -3   35.56    1.96
 -14   9  -3   36.09    1.62
  -9 -14  -3   31.74    1.85
  -9 -14   3   35.09    1.69
  -9 -14  -3   33.49    1.48
  -9 -14  -3   31.80    1.74
 -14   9  -5   13.30    2.00
 -14   9  -5   11.99    1.68
 -14   9  -5   10.71    1.12
  -9 -14  -5   10.77    0.95
 -14   9  -5   11.68    1.22
 -14   9  -7   27.13    1.16
 -14   9  -7   31.27    1.47
 -14   8   0    1.65    1.13
 -14   8   0    4.61    0.98
 -14   8   0    4.50    0.87
  -8 -14   0    3.94    1.00
  -8 -14   0    3.46    0.93
  -8 -14  -2  166.41    4.97
 -14   8   2  161.64    5.18
 -14   8  -2  160.26    5.07
 -14   8  -2  168.25    5.30
 -14   8  -2  158.99    5.12
  -8 -14   2  166.13    5.29
  -8 -14  -2  159.56    5.36
  -8 -14   2  165.93    5.32
  -8 -14   2  159.14    5.27
  -8 -14   2  165.54    4.97
 -14   8   4   20.35    1.37
 -14   8  -4   24.61    1.42
 -14   8  -4   23.19    1.49
 -14   8  -6    2.84    1.43
 -14   8  -6    0.25    1.65
 -14   8  -6    0.98    0.97
 -14   8  -6    2.20    1.06
 -14   7   1    0.86    0.98
  -7 -14   1    0.21    0.51
 -14   7  -1    0.39    0.91
 -14   7  -1    1.62    0.93
 -14   7   1    0.23    1.04
  -7 -14   1    1.18    0.88
 -14   7  -1    1.50    0.91
 -14   7   1    1.68    0.85
 -14   7  -1    0.92    0.79
 -14   7  -1    1.14    0.98
  -7 -14  -1    0.66    0.66
 -14   7   3  248.06    7.65
 -14   7   3  265.38    7.79
 -14   7  -3  249.39    7.64
 -14   7  -3  244.29    7.68
 -14   7  -3  261.55    7.87
  -7 -14  -3  258.71    7.55
  -7 -14   3  257.11    7.77
  -7 -14  -3  250.96    7.82
  -7 -14   3  261.90    7.60
 -14   7  -5    5.68    1.23
 -14   7  -5    4.42    1.64
 -14   7  -5    4.90    1.10
 -14   7  -7   14.49    1.10
  -7 -14   7   15.28    1.11
 -14   7  -7   14.17    1.34
 -14   6   0   14.25    1.17
 -14   6   0   13.58    1.04
  -6 -14   0   12.63    1.12
  -6 -14   0   12.25    1.08
  -6 -14   0   11.02    0.82
 -14   6   0   11.84    1.07
 -14   6  -2    4.05    0.92
 -14   6  -2    5.65    1.05
 -14   6  -2    2.23    0.91
 -14   6   2    3.90    0.95
  -6 -14   2    3.56    0.66
 -14   6  -2    4.84    1.05
 -14   6   2    5.23    0.99
 -14   6  -2    4.55    0.87
  -6 -14   2    3.38    1.00
  -6 -14  -2    2.45    0.75
 -14   6  -4   49.29    2.70
 -14   6   4   46.16    2.01
 -14   6  -4   50.63    2.08
 -14   6  -4   52.67    2.21
 -14   6  -6    1.25    1.68
 -14   6  -6    0.21    1.08
 -14   6  -6    0.36    1.17
 -14   6  -6    0.33    1.53
  -6 -14   8    1.25    0.45
  -5 -14   1   48.85    1.96
  -5 -14   1   49.57    1.77
 -14   5  -1   44.51    1.90
 -14   5   1   51.72    1.96
 -14   5   1   49.31    1.98
 -14   5  -1   48.18    1.89
 -14   5  -1   48.57    1.95
  -5 -14  -1   41.46    1.73
 -14   5  -1   46.68    1.93
  -5 -14   1   46.51    1.99
 -14   5  -1   45.33    1.94
 -14   5   1   49.27    1.97
 -14   5   1   50.72    2.07
 -14   5  -3   70.21    2.63
 -14   5   3   69.25    2.57
 -14   5   3   79.68    2.86
 -14   5  -3   76.35    2.83
 -14   5  -3   72.76    2.66
 -14   5  -3   71.50    2.73
  -5 -14   3   79.04    2.60
 -14   5  -5    2.19    1.61
 -14   5  -5    3.72    1.14
 -14   5  -5    3.39    1.28
 -14   5  -7    3.42    0.98
 -14   5  -7    2.37    1.05
 -14   5  -7    2.78    1.26
  14  -4   0    2.20    0.81
 -14   4   0    4.57    0.98
 -14   4   0    3.03    0.88
 -14   4   0    3.27    0.85
  -4 -14   0    1.51    0.83
  -4 -14   0    2.13    0.67
  -4 -14   2   11.61    0.84
 -14   4  -2   10.48    1.01
  -4 -14   2   12.13    1.12
 -14   4   2   10.32    0.83
 -14   4   2   12.66    1.12
 -14   4  -2   11.66    1.07
 -14   4  -2   10.70    0.99
 -14   4  -2   10.87    1.13
 -14   4  -2    9.93    1.00
 -14   4   2   11.25    1.06
  -4 -14  -2    9.60    0.90
  -4 -14   2   11.54    1.19
 -14   4   2   12.06    1.07
 -14   4   4   52.40    1.92
 -14   4  -4   45.12    2.38
 -14   4  -4   46.51    2.03
 -14   4  -4   45.51    2.14
 -14   4  -4   39.10    2.41
 -14   4  -6   59.30    2.77
 -14   4  -6   57.73    2.36
 -14   4  -6   53.41    2.43
 -14   4  -6   56.13    2.67
 -14   4  -8   10.05    0.75
  -4 -14   8   10.01    0.73
 -14   4  -8   11.11    0.71
  -3 -14   1   56.97    1.94
   3  14   1   49.22    2.63
 -14   3  -1   50.55    2.07
  14  -3   1   46.37    2.59
 -14   3   1   53.85    2.17
 -14   3   1   54.91    2.05
 -14   3  -1   50.91    1.97
 -14   3  -1   50.89    1.99
 -14   3   1   54.38    2.09
  -3 -14   1   50.95    2.06
  -3 -14  -1   48.94    1.87
 -14   3  -1   54.06    2.08
 -14   3  -1   54.21    2.10
 -14   3   1   52.21    2.05
 -14   3  -3   68.27    2.60
 -14   3   3   64.80    2.39
 -14   3  -3   74.99    2.88
 -14   3   3   73.47    2.70
 -14   3  -3   71.02    2.69
 -14   3  -3   72.02    2.54
 -14   3  -3   69.52    2.47
 -14   3   3   66.19    2.50
  -3 -14   3   69.36    2.45
 -14   3  -3   66.17    2.46
 -14   3   3   69.02    2.47
 -14   3  -5  206.24    6.49
 -14   3  -5  196.85    6.25
 -14   3  -5  200.15    6.34
 -14   3  -7   -0.20    1.01
 -14   3  -7   -0.06    1.29
 -14   3  -7    0.11    1.09
 -14   2   0   34.90    1.49
 -14   2   0   33.13    1.58
  -2 -14   0   33.68    1.48
  -2 -14   0   26.85    1.29
  -2 -14   0   32.68    1.51
  -2 -14   0   27.46    1.82
 -14   2   0   31.28    1.45
  -2 -14   2   13.78    0.91
  -2 -14   2   11.39    1.19
 -14   2   2   16.84    1.43
 -14   2   2   15.49    1.18
 -14   2  -2   13.82    1.07
 -14   2  -2   15.87    1.08
 -14   2  -2   15.53    1.25
 -14   2  -2   17.23    1.09
  -2 -14   2   13.84    1.17
 -14   2   2   16.31    1.13
  -2 -14  -2   11.46    0.99
 -14   2  -2   14.09    1.35
 -14   2  -2   13.61    1.04
 -14   2   2   16.61    1.10
 -14   2  -4  104.38    3.67
 -14   2  -4   98.36    3.77
 -14   2  -4  101.06    3.44
 -14   2  -4   94.99    3.53
 -14   2  -6   29.85    2.11
 -14   2  -6   28.41    2.06
 -14   2  -6   27.54    1.77
 -14   2  -6   28.23    1.89
 -14   2  -8    3.83    0.75
 -14   2  -8    4.02    0.70
  -2 -14  -8    3.55    0.60
 -14   1   1    6.06    0.91
  -1 -14   1    6.84    0.71
 -14   1  -1    3.32    0.70
  -1 -14  -1    6.56    0.87
 -14   1   1    6.59    0.90
 -14   1  -1    4.92    0.85
  -1 -14   1    5.44    0.83
  -1 -14   1    5.38    0.89
 -14   1  -1    6.06    0.90
 -14   1   1    5.70    0.91
  -1 -14  -1    5.15    0.78
  14  -1   1    4.92    0.94
 -14   1  -1    4.60    0.93
 -14   1  -1    5.49    0.88
 -14   1  -3   -0.29    1.21
 -14   1  -3    0.97    0.72
 -14   1   3    0.35    0.73
  -1 -14   3   -0.28    0.71
   1  14   3    0.05    0.60
 -14   1  -3   -0.64    1.05
 -14   1  -3    1.02    1.09
 -14   1   3    0.20    1.06
 -14   1  -3    0.33    0.90
 -14   1  -3    0.07    0.74
 -14   1   3    0.60    0.77
 -14   1  -5   15.67    1.83
 -14   1  -5   16.93    1.46
 -14   1  -7    1.18    1.10
 -14   1  -7    1.32    1.38
 -14   0   0 1300.87   33.98
   0 -14   0 1298.73   34.93
   0 -14   0 1343.81   34.04
   0 -14   2    5.25    0.70
 -14   0  -2    5.93    0.89
 -14   0   2    4.64    0.83
 -14   0  -2    3.93    0.91
 -14   0  -2    3.60    0.87
   0 -14  -2    5.43    0.84
 -14   0  -2    6.24    0.86
 -14   0   2    7.00    0.92
 -14   0  -2    4.46    1.06
 -14   0  -4   62.24    2.60
   0  14   4   57.47    2.16
 -14   0  -4   60.10    2.59
 -14   0  -6   19.56    2.05
 -14   0  -6   20.07    1.96
   0 -14   8   13.70    0.84
   0 -14  -8   12.91    0.81
 -14  -1  -1    1.04    0.78
 -14  -1   1    1.54    0.77
   1 -14   1    1.02    0.72
 -14  -1  -1    0.18    0.84
 -14  -1   1    0.48    0.77
   1 -14   1    1.12    0.89
 -14  -1  -1    1.18    0.97
   1 -14   1    0.85    0.75
 -14  -1   1    0.61    0.95
 -14  -1  -3   26.21    1.61
  -1  14   3   28.27    1.34
 -14  -1  -3   23.83    1.57
 -14  -1   3   27.56    1.34
 -14  -1  -3   29.33    1.37
 -14  -1   3   28.25    1.36
 -14  -1  -3   28.60    1.68
 -14  -1  -3   25.74    1.34
 -14  -1  -5   39.10    2.41
 -14  -1  -5   44.40    2.24
 -14  -1  -7   16.92    1.47
 -14  -2   0 1096.41   30.42
 -14  -2   0 1070.38   30.44
 -14  -2   0 1055.63   30.44
   2 -14   0 1113.42   30.49
 -14  -2   0 1112.77   30.47
 -14  -2  -2  173.31    5.56
 -14  -2   2  180.30    5.62
 -14  -2  -2  170.51    5.56
 -14  -2  -2  189.36    5.60
 -14  -2  -2  180.54    5.66
 -14  -2   2  185.48    5.74
 -14  -2   2  185.32    5.58
 -14  -2  -2  178.95    5.61
 -14  -2  -2  178.80    5.56
 -14  -2   2  196.01    5.60
 -14  -2  -4   35.52    2.07
  -2  14   4   34.42    1.66
 -14  -2  -4   33.97    1.78
 -14  -2  -4   37.63    1.96
 -14  -2  -4   39.29    2.09
 -14  -2  -6    7.73    1.82
 -14  -2  -6    8.06    1.35
 -14  -2  -6    8.08    1.52
 -14  -2  -6    8.43    1.80
 -14  -2  -8    0.36    0.61
   2 -14   8    0.04    0.57
 -14  -2  -8    0.42    0.68
   3 -14   1  178.07    5.40
   3 -14  -1  166.44    5.33
 -14  -3   1  178.20    5.44
 -14  -3  -1  173.33    5.41
 -14  -3  -1  170.74    5.47
 -14  -3   1  191.50    5.49
 -14  -3   1  182.82    5.51
   3 -14   1  173.60    5.50
 -14  -3  -1  181.31    5.47
 -14  -3   1  179.71    5.45
 -14  -3  -1  166.49    5.37
 -14  -3  -1  184.30    5.49
  -3  14   3    7.76    0.95
 -14  -3  -3    7.50    1.17
 -14  -3  -3    7.72    1.16
 -14  -3   3    6.52    1.19
 -14  -3  -3    6.68    1.03
 -14  -3  -3    7.41    0.88
 -14  -3   3    7.60    0.89
 -14  -3  -3    7.45    0.91
   3 -14   3    8.26    0.88
 -14  -3   3    7.89    0.88
 -14  -3  -3    6.71    1.27
  -3  14   5   28.03    1.53
 -14  -3  -5   31.67    1.77
 -14  -3  -5   33.61    1.96
 -14  -3  -5   28.01    2.18
  -3  14  -7   -0.12    0.73
 -14  -3  -7    1.07    1.02
 -14  -3  -7   -0.18    1.09
 -14  -4   0  155.08    4.60
 -14  -4   0  153.75    4.65
 -14  -4   0  144.12    4.62
 -14  -4   0  150.23    4.64
   4 -14   0  147.06    4.60
 -14  -4  -2  105.21    3.61
 -14  -4   2  122.66    3.64
 -14  -4   2  104.86    3.61
   4 -14   2  111.06    3.56
 -14  -4  -2  106.37    3.60
 -14  -4   2  115.40    3.61
   4 -14  -2  100.54    3.51
 -14  -4  -2  112.41    3.71
 -14  -4  -2  110.20    3.72
 -14  -4  -2  115.59    3.64
 -14  -4  -2  102.23    3.59
  -4  14   4   19.92    1.35
  -4  14  -4   17.79    1.21
 -14  -4  -4   19.57    1.41
 -14  -4  -4   18.19    1.59
 -14  -4  -4   17.77    1.82
 -14  -4  -4   17.10    1.76
 -14  -4  -6    1.07    1.92
 -14  -4  -6    4.81    1.20
 -14  -4  -6    4.39    1.39
 -14  -4  -8   20.09    0.89
   4 -14   8   17.73    0.75
 -14  -4  -8   16.20    0.90
   4 -14  -8   21.04    0.87
   5 -14  -1  486.15   14.41
   5 -14   1  497.62   14.46
 -14  -5   1  500.03   14.48
 -14  -5  -1  509.72   14.49
 -14  -5   1  504.23   14.54
 -14  -5   1  507.11   14.52
 -14  -5   1  491.90   14.51
 -14  -5  -1  506.71   14.55
 -14  -5  -1  507.07   14.52
 -14  -5  -1  490.26   14.53
 -14  -5  -1  525.40   14.54
 -14  -5  -3    5.10    1.32
 -14  -5  -3    8.32    1.31
  -5  14   3    4.77    0.96
 -14  -5   3    7.48    1.18
 -14  -5  -3    5.97    1.03
 -14  -5   3    6.66    0.87
 -14  -5   3    7.57    0.89
 -14  -5  -3    6.76    0.91
   5 -14   3    7.21    0.86
 -14  -5  -3    7.28    1.23
 -14  -5  -3    6.56    0.88
 -14  -5  -5   63.76    3.13
  -5  14   5   60.91    2.50
 -14  -5  -5   68.43    2.63
 -14  -5  -5   68.58    2.77
  -5  14  -7   57.70    2.16
 -14  -5  -7   52.95    2.22
 -14  -6   0  110.86    3.47
 -14  -6   0  107.23    3.52
 -14  -6   0  109.72    3.53
 -14  -6   0  107.89    3.54
   6 -14   2  306.23    8.93
   6 -14  -2  290.68    8.87
 -14  -6   2  291.02    8.94
 -14  -6  -2  311.41    8.95
 -14  -6  -2  319.75    9.05
 -14  -6   2  300.54    8.93
 -14  -6  -2  301.75    9.10
 -14  -6  -2  304.72    9.00
 -14  -6   2  301.47    8.95
 -14  -6  -2  295.28    9.00
 -14  -6  -4   41.95    2.43
  -6  14   4   52.01    2.11
  -6  14  -4   44.96    2.06
 -14  -6  -4   46.07    2.10
 -14  -6  -4   53.58    2.30
 -14  -6  -4   47.17    2.65
  -6  14  -6    6.74    1.19
 -14  -6  -6    5.11    1.24
 -14  -6  -6    7.74    1.15
   6 -14  -8   10.23    0.51
 -14  -7  -1    1.40    0.88
 -14  -7   1    2.12    0.88
   7 -14   1    1.54    0.66
 -14  -7   1    1.70    0.82
 -14  -7  -1    2.48    0.84
 -14  -7  -1    1.33    0.96
 -14  -7   1    0.99    1.01
 -14  -7   1    2.52    0.92
 -14  -7  -1    2.56    0.99
   7 -14  -1    2.52    0.83
 -14  -7  -3    2.98    0.87
 -14  -7   3    3.10    0.78
 -14  -7  -3    2.95    0.89
   7 -14   3    3.23    0.76
  -7  14   3    4.14    0.98
 -14  -7   3    2.93    1.06
 -14  -7  -3    3.61    1.01
   7 -14  -3    2.42    1.01
 -14  -7  -3    3.76    1.18
 -14  -7  -3    3.19    1.46
 -14  -7   3    4.24    0.86
  -7  14   5   23.53    1.52
  -7  14  -5   24.13    1.38
 -14  -7  -5   23.41    1.52
 -14  -7  -5   24.05    1.67
  -7  14  -7   13.25    1.18
 -14  -7  -7   10.91    0.93
   7 -14   7   13.28    0.86
   7 -14  -7   13.78    0.95
 -14  -8   0  162.44    5.18
 -14  -8   0  178.86    5.25
 -14  -8   0  164.51    5.32
 -14  -8   0  175.40    5.27
 -14  -8   0  160.70    5.32
 -14  -8  -2    2.43    0.94
 -14  -8   2    2.72    0.88
   8 -14   2    1.97    0.70
 -14  -8   2    2.91    0.91
 -14  -8  -2    2.18    0.88
 -14  -8  -2    2.95    0.98
 -14  -8  -2    2.29    1.04
   8 -14  -2    2.49    0.96
 -14  -8   2    2.55    0.87
  -8  14   4  342.12    9.79
  -8  14  -4  303.71    9.78
 -14  -8  -4  319.51    9.71
 -14  -8  -4  341.81    9.79
   8 -14  -4  328.02    9.68
 -14  -8  -6   21.86    1.31
 -14  -8  -6   21.31    1.44
   8 -14  -6   24.24    1.33
  -8  14  -6   21.83    1.60
   9 -14  -1   11.21    0.99
   9 -14   1    9.85    0.86
 -14  -9  -1   11.77    1.22
 -14  -9   1   11.48    0.99
 -14  -9  -1   10.91    1.01
 -14  -9   1   12.15    0.98
 -14  -9  -1   12.96    1.13
 -14  -9   1   11.97    1.20
 -14  -9   1   11.88    1.19
 -14  -9  -1   11.76    1.17
 -14  -9   1   11.22    1.19
 -14  -9  -3   14.49    1.32
   9 -14  -3   15.55    1.18
 -14  -9  -3   13.65    1.16
  -9  14  -3   12.33    1.41
 -14  -9  -3   13.40    1.14
 -14  -9  -3   12.91    1.17
 -14  -9   3   14.60    1.08
 -14  -9   3   12.68    1.03
 -14  -9  -5    0.67    1.07
  -9  14   5    0.58    1.14
  -9  14  -5    0.41    1.02
 -14  -9  -5    0.32    0.94
   9 -14  -5    0.64    0.93
 -14  -9  -7   11.97    0.70
   9 -14  -7    9.04    0.68
  10 -14   0  128.87    4.22
 -14 -10   0  133.44    4.47
 -14 -10   0  132.59    4.46
 -14 -10   2  118.71    3.95
 -14 -10  -2  114.64    3.90
 -14 -10   2  120.79    4.02
  10 -14   2  119.14    3.88
 -14 -10  -2  116.38    3.95
 -14 -10   2  122.58    4.03
  10 -14  -2  124.06    3.91
 -14 -10  -2  127.32    4.17
 -14 -10  -2  129.23    4.13
 -14 -10   2  130.49    4.08
 -10  14  -4   37.34    1.94
 -14 -10  -4   33.20    1.74
  10 -14  -4   34.89    1.61
 -14 -10  -6    2.04    0.73
 -10  14  -6    3.52    1.29
  10 -14  -6    3.08    0.78
 -14 -11   1  172.26    5.47
 -14 -11  -1  180.77    5.61
 -14 -11  -1  173.47    5.63
 -14 -11  -1  173.17    5.57
 -14 -11   1  169.56    5.51
 -14 -11   1  174.25    5.54
 -14 -11   3  130.34    4.15
 -11  14   3  125.03    4.30
 -14 -11  -3  130.33    4.30
 -14 -11  -3  119.35    4.21
 -14 -11   3  129.12    4.17
  11 -14  -3  127.44    4.09
 -14 -11  -5   59.24    2.26
  11 -14  -5   64.46    2.24
 -11  14  -7    0.35    0.84
 -14 -12   0   22.01    1.66
 -14 -12   0   22.80    1.28
 -14 -12   0   21.68    1.68
 -14 -12   0   25.23    1.46
 -14 -12  -2    6.33    1.26
 -14 -12   2    7.76    1.15
 -14 -12   2    6.20    1.08
 -14 -12  -2    7.71    1.28
 -14 -12   2    6.54    1.13
 -12  14   4  213.77    6.82
 -12  14  -4  220.66    6.86
 -12  14  -6   23.68    1.58
 -14 -13   1    6.14    1.28
 -14 -13  -1    5.21    1.00
 -14 -13  -1    5.53    1.28
 -14 -13  -1    4.53    1.40
 -14 -13  -1    4.62    1.20
 -14 -13   1    5.75    0.96
 -14 -13   1    5.42    1.23
 -14 -13   1    4.38    1.05
 -14 -13  -3    5.14    1.04
 -14 -13   3    5.92    0.99
 -13  14   3    5.93    1.15
 -13  14  -3    5.29    1.42
 -14 -13   3    5.39    0.93
 -14 -13  -3    4.55    1.11
 -13  14   5   46.76    2.02
 -13  14  -5   51.86    2.25
 -13  14  -5   52.17    2.66
 -13  14  -7    0.69    0.58
 -14 -13  -7    0.61    0.49
 -14 -14   0  338.55   10.39
 -14 -14   0  319.46   10.32
 -14 -14   0  339.68   10.22
 -14  14  -2  170.62    5.63
 -14 -14  -2  172.21    5.60
 -14 -14  -2  162.97    5.47
 -14 -14   2  166.20    5.37
 -14 -14  -2  162.78    5.44
 -14 -14   2  168.45    5.40
 -14  14   4   46.97    2.14
 -14  14  -4   53.82    2.39
 -14  14  -6    1.89    1.09
 -14  14  -6   -0.15    1.02
 -14 -15  -1    6.10    1.42
 -14 -15   1    6.54    1.38
 -14 -15   1    4.74    1.07
 -14 -15   1    7.56    1.32
 -14 -15  -1    6.57    1.35
 -14 -15  -1    5.29    1.48
 -14 -15   1    4.98    1.42
 -14 -15  -1    6.49    1.06
 -15  14   3   21.36    1.44
 -14 -15  -3   19.36    1.41
 -14 -15  -3   21.83    1.83
 -14 -15   3   17.92    1.18
 -14 -15  -3   17.11    1.33
 -14 -15   3   18.95    1.29
 -13 -15   0    0.34    1.38
 -13 -15   0   -0.18    1.32
 -13 -15   0   -0.68    0.98
 -13 -15   0   -0.03    1.12
 -13 -15  -2  175.93    5.71
 -15  13  -2  169.77    5.75
 -13 -15   2  164.50    5.63
 -13 -15  -2  188.03    5.85
 -13 -15   2  177.56    5.60
 -13 -15  -2  167.89    5.62
 -13 -15   2  175.52    5.60
 -15  13   4   13.67    1.28
 -15  13  -4   13.84    1.60
 -15  13  -6    1.89    1.09
 -15  13  -6    2.77    1.04
 -12 -15  -1    5.07    1.44
 -12 -15   1    4.14    1.42
 -12 -15  -1    5.27    1.50
 -12 -15   1    5.01    1.22
 -12 -15   1    3.61    1.31
 -12 -15  -1    3.54    1.08
 -12 -15  -1    3.69    1.30
 -12 -15   1    3.20    1.03
 -15  12   3   37.21    1.80
 -15  12  -3   37.39    2.17
 -12 -15   3   33.02    1.67
 -12 -15  -3   38.54    1.92
 -12 -15  -3   32.51    1.77
 -12 -15   3   38.92    1.77
 -15  12  -5    0.80    1.35
 -11 -15   0    0.23    1.31
 -11 -15   0   -0.61    1.11
 -11 -15   0    0.62    0.99
 -15  11  -2   46.06    2.27
 -11 -15   2   45.39    2.19
 -11 -15   2   48.96    2.22
 -11 -15  -2   42.45    2.29
 -11 -15  -2   43.10    2.21
 -11 -15   2   46.46    2.20
 -15  11  -4  158.69    4.89
 -11 -15  -4  133.70    4.82
 -15  11  -6   10.06    1.40
 -15  11  -6    8.73    1.32
 -15  10  -1   39.34    1.86
 -10 -15   1   42.78    2.06
 -10 -15  -1   45.58    2.16
 -10 -15   1   42.62    1.99
 -10 -15   1   43.89    2.21
 -10 -15  -1   43.50    2.29
 -15  10   3   45.24    1.94
 -10 -15  -3   37.84    2.06
 -15  10  -3   44.27    2.20
 -15  10  -3   40.19    1.81
 -10 -15   3   41.64    1.87
 -15  10  -3   41.56    1.85
 -10 -15   3   38.10    1.87
 -10 -15  -3   38.99    1.93
 -15  10  -5    0.76    0.92
 -15  10  -7    2.05    0.71
 -15   9   0    0.70    0.96
 -15   9   0    0.13    0.83
  -9 -15   0   -0.49    1.03
  -9 -15   0   -0.08    0.95
 -15   9  -2  100.55    3.46
  -9 -15   2  101.64    3.63
 -15   9   2  104.36    3.50
 -15   9  -2   97.31    3.40
 -15   9  -2  100.87    3.65
  -9 -15   2  107.78    3.76
  -9 -15  -2   99.49    3.72
  -9 -15  -4   39.79    1.62
 -15   9   4   38.19    1.82
 -15   9  -4   38.86    1.78
 -15   9  -4   41.07    1.90
  -9 -15  -4   33.64    1.70
 -15   9  -4   39.34    2.61
 -15   9  -6   76.02    2.87
 -15   9  -6   71.37    2.76
  -8 -15   1   36.04    1.43
  -8 -15   1   34.59    1.79
  -8 -15  -1   32.84    1.45
 -15   8   1   35.58    1.68
 -15   8  -1   34.03    1.62
 -15   8  -1   30.79    1.72
 -15   8   1   35.46    1.83
  -8 -15   1   34.49    1.76
 -15   8  -1   34.38    1.69
 -15   8   3   94.46    3.39
 -15   8   3   98.55    3.54
  -8 -15   3  100.36    3.45
 -15   8  -3  103.50    3.66
 -15   8  -3  101.61    3.41
  -8 -15   3   96.99    3.49
  -8 -15  -3  104.53    3.30
 -15   8  -3  102.36    3.51
  -8 -15  -3   94.77    3.52
 -15   8  -5    9.64    1.76
 -15   8  -5    8.17    1.14
 -15   8  -5    9.05    1.26
  -8 -15  -5    8.54    0.99
 -15   8  -7    1.01    0.63
 -15   8  -7   -0.47    0.91
 -15   7   0    0.20    1.02
  -7 -15   0   -0.70    0.86
 -15   7   0    0.91    0.87
 -15   7   0   -0.21    1.04
  -7 -15   2    2.86    0.63
 -15   7   2    2.56    0.80
 -15   7  -2    3.77    1.08
 -15   7  -2    2.71    1.12
 -15   7   2    4.10    1.04
 -15   7  -2    3.41    0.94
  -7 -15   2    1.46    1.07
  -7 -15  -2    2.68    0.83
 -15   7   4   22.16    1.35
 -15   7  -4   22.32    1.45
 -15   7  -4   22.79    1.57
  -7 -15  -4   21.32    1.32
 -15   7  -6   20.74    1.86
 -15   7  -6   20.24    1.35
 -15   7  -6   20.17    1.43
  -7 -15  -6   17.56    1.15
 -15   7  -6   20.85    1.77
  -6 -15   1  220.19    6.53
 -15   6   1  220.04    6.74
 -15   6  -1  229.01    6.72
 -15   6   1  228.34    6.68
  -6 -15   1  217.70    6.76
 -15   6  -1  222.04    6.63
 -15   6  -1  211.24    6.65
  -6 -15   1  209.97    6.71
  -6 -15  -1  226.10    6.84
  -6 -15  -1  208.20    6.47
 -15   6  -1  212.90    6.69
 -15   6   1  218.88    6.74
 -15   6  -1  217.46    6.66
 -15   6   1  213.62    6.70
 -15   6  -3  203.59    7.02
 -15   6   3  197.28    6.53
 -15   6   3  230.78    6.80
 -15   6  -3  224.03    6.81
 -15   6  -3  217.68    6.62
 -15   6  -3  233.96    6.72
  -6 -15   3  221.92    6.55
  -6 -15  -3  219.35    6.52
  -6 -15   3  220.38    6.75
  -6 -15  -3  196.49    6.75
 -15   6  -5    0.17    1.62
 -15   6  -5   -0.06    1.08
 -15   6  -5    1.07    1.22
 -15   6  -7   12.65    0.99
 -15   6  -7   12.19    1.05
 -15   5   0    0.52    0.95
 -15   5   0   -0.27    0.70
 -15   5   0    0.30    1.02
 -15   5   0    0.25    0.86
  -5 -15   0   -0.29    0.72
  -5 -15   0   -1.00    0.88
  -5 -15   0   -0.02    0.86
 -15   5   2   85.91    3.09
 -15   5   2   99.45    3.35
 -15   5  -2   93.33    3.31
 -15   5  -2   94.33    3.23
 -15   5  -2   95.29    3.34
  -5 -15   2   96.01    3.42
  -5 -15   2   92.34    3.43
 -15   5  -2   88.12    3.25
  -5 -15  -2   96.27    3.14
 -15   5  -2   98.35    3.30
 -15   5   2  101.44    3.37
 -15   5   2   99.79    3.31
  -5 -15   2   99.38    3.16
 -15   5  -4  262.31    7.64
 -15   5  -4  248.62    7.71
 -15   5  -4  247.03    7.41
 -15   5  -4  244.69    7.47
 -15   5  -4  251.44    7.79
 -15   5  -6    4.70    1.63
 -15   5  -6    4.46    1.16
 -15   5  -6    4.69    1.25
 -15   5  -6    2.76    1.59
  -5 -15   8    0.57    0.37
  -4 -15   1   14.43    0.95
 -15   4   1   13.43    1.21
 -15   4   1   15.83    1.18
 -15   4  -1   13.13    1.06
 -15   4  -1   13.29    1.12
  -4 -15   1   13.18    1.12
 -15   4   1   16.31    1.37
  -4 -15  -1   13.91    1.22
  -4 -15  -1   13.27    0.99
 -15   4  -1   11.76    1.18
 -15   4  -1   14.93    1.22
 -15   4  -1   13.20    1.18
 -15   4   1   12.75    1.13
 -15   4   3  100.66    3.29
 -15   4   3   88.68    3.11
 -15   4   3   98.68    3.49
 -15   4  -3  102.18    3.47
 -15   4  -3   97.71    3.28
 -15   4  -3   97.05    3.39
 -15   4  -3   80.35    3.17
  -4 -15  -3  100.07    3.20
  -4 -15   3   97.25    3.20
 -15   4  -3  107.23    3.71
 -15   4  -3   89.34    3.24
 -15   4  -5    0.31    1.57
 -15   4  -5    1.96    1.22
 -15   4  -5    3.79    1.38
 -15   4  -7    0.37    0.94
 -15   4  -7    1.93    1.03
 -15   4  -7    0.55    1.16
  -4 -15  -7   -0.03    0.80
 -15   3   0   -0.38    0.94
 -15   3   0    0.38    0.86
 -15   3   0    0.52    1.00
  -3 -15   0    0.50    0.82
  -3 -15   0   -0.50    0.84
  -3 -15   0    0.04    0.70
 -15   3  -2    7.61    1.28
  -3 -15   2    6.65    0.79
 -15   3  -2    6.14    0.99
 -15   3  -2    6.48    0.96
 -15   3  -2    6.24    0.99
 -15   3   2    8.36    1.14
 -15   3  -2    7.15    1.02
  -3 -15   2    6.87    1.08
 -15   3  -2    6.38    1.16
  -3 -15  -2    6.57    0.91
 -15   3   2    7.61    1.39
 -15   3   2    6.31    1.04
 -15   3   2    8.07    1.00
 -15   3  -4   74.51    2.98
 -15   3  -4   69.55    2.73
 -15   3  -4   71.20    2.84
 -15   3  -4   73.22    3.08
 -15   3  -6    1.48    1.61
 -15   3  -6    3.82    1.24
 -15   3  -6    2.03    1.35
 -15   3  -6    1.23    1.62
 -15   3  -8    0.87    0.46
 -15   3  -8    1.57    0.47
  -3 -15  -8    1.36    0.39
  -2 -15   1  148.09    4.76
  -2 -15   1  145.81    4.58
 -15   2   1  154.30    4.70
 -15   2  -1  131.53    4.54
 -15   2  -1  146.95    4.65
 -15   2   1  146.07    4.77
  -2 -15   1  151.92    4.73
  -2 -15  -1  167.94    4.85
 -15   2  -1  147.64    4.71
 -15   2  -1  139.62    4.68
  -2 -15  -1  134.64    4.51
 -15   2  -1  153.60    4.72
 -15   2   1  146.23    4.71
 -15   2  -1  148.83    4.68
 -15   2   1  163.79    4.75
 -15   2  -3    0.64    0.80
 -15   2   3    0.85    0.79
  -2 -15   3    0.80    0.73
 -15   2  -3    1.78    1.10
 -15   2  -3    1.48    1.13
 -15   2   3    2.06    1.15
 -15   2  -3    1.20    0.96
 -15   2  -3    1.17    1.20
 -15   2  -3    0.11    0.80
 -15   2   3    1.60    0.90
 -15   2  -3    1.17    1.25
 -15   2  -5   24.09    2.01
 -15   2  -5   22.25    1.63
 -15   2  -5   25.73    1.86
 -15   2  -7    8.18    1.38
 -15   2  -7   11.60    1.19
 -15   2  -7   11.60    1.21
 -15   1   0    0.26    0.91
  -1 -15   0   -0.03    0.72
 -15   1   0   -0.11    0.87
  -1 -15   0    0.36    0.73
  -1 -15   0    1.02    0.82
  -1 -15   2  112.19    3.77
 -15   1  -2  114.86    3.89
 -15   1   2  124.58    3.97
 -15   1  -2  120.19    3.88
 -15   1  -2  114.62    3.86
 -15   1   2  124.90    3.91
  -1 -15  -2  113.79    3.77
 -15   1  -2  121.97    4.01
 -15   1  -2  110.25    3.85
 -15   1   2  128.58    3.90
 -15   1  -4   48.52    2.34
   1  15   4   45.50    1.77
 -15   1  -4   50.63    2.15
 -15   1  -4   48.10    2.37
 -15   1  -6   72.61    3.15
 -15   1  -6   75.94    2.84
 -15   1  -8   11.68    0.73
  -1 -15   8   12.47    0.70
  -1 -15  -8   10.69    0.65
 -15   0  -1   -0.04    0.85
 -15   0   1   -0.35    0.89
   0 -15   1    0.42    0.65
 -15   0  -1   -0.74    0.69
 -15   0  -1   -0.38    0.86
   0 -15   1   -0.82    0.76
   0 -15  -1    0.12    0.79
 -15   0   1    0.70    0.91
   0 -15  -1   -0.90    0.80
   0 -15   1    0.73    0.84
 -15   0  -3   17.11    1.40
   0  15   3   16.31    1.03
 -15   0   3   15.17    1.46
 -15   0   3   18.02    1.14
 -15   0   3   17.32    1.16
 -15   0  -3   13.53    1.11
 -15   0  -3   16.36    1.47
   0 -15   3   15.91    1.10
 -15   0  -3   14.99    1.11
 -15   0  -5  145.01    4.97
 -15   0  -7   54.79    2.50
   1 -15   0   -0.15    0.70
 -15  -1   0   -0.52    0.86
 -15  -1   0   -0.61    1.04
   1 -15   0   -0.13    0.77
 -15  -1   0    0.55    0.83
 -15  -1   2   45.62    1.89
 -15  -1  -2   43.47    1.89
 -15  -1  -2   44.18    2.03
 -15  -1   2   45.60    2.20
 -15  -1  -2   41.47    1.95
 -15  -1  -2   42.26    1.86
 -15  -1   2   46.54    1.89
 -15  -1  -4  360.98   10.64
 -15  -1  -4  350.52   10.59
  -1  15   4  351.98   10.34
 -15  -1  -4  348.52   10.53
 -15  -1  -6   16.28    2.04
 -15  -1  -6   16.82    1.65
 -15  -1  -8    1.17    0.57
   1 -15   8    2.17    0.44
   2 -15   1   13.62    1.16
 -15  -2   1   15.86    1.17
 -15  -2  -1   14.81    1.16
   2 -15   1   13.39    1.05
 -15  -2  -1   17.01    1.32
 -15  -2   1   15.54    1.40
 -15  -2  -1   16.61    1.20
 -15  -2   1   16.61    1.13
 -15  -2  -1   15.96    1.18
 -15  -2   1   16.36    1.16
 -15  -2  -3   37.83    1.87
  -2  15   3   35.03    1.60
 -15  -2   3   36.59    1.91
 -15  -2  -3   38.51    1.83
 -15  -2  -3   39.81    1.95
 -15  -2   3   38.77    1.67
 -15  -2  -3   34.23    1.63
 -15  -2  -3   35.81    1.93
 -15  -2  -3   33.36    1.61
 -15  -2   3   37.34    1.64
 -15  -2  -5    3.31    1.66
 -15  -2  -5    1.66    1.24
 -15  -2  -5    2.36    1.48
 -15  -2  -7    3.42    1.00
 -15  -2  -7    2.98    1.11
 -15  -3   0    0.41    0.94
 -15  -3   0    0.10    1.04
   3 -15   0   -0.24    0.79
 -15  -3   0    0.37    0.84
   3 -15   0   -0.11    0.70
 -15  -3   0    0.14    0.90
   3 -15   2   36.29    1.59
 -15  -3   2   37.74    1.69
 -15  -3   2   34.14    1.74
   3 -15  -2   35.97    1.67
 -15  -3  -2   39.78    1.91
 -15  -3  -2   38.17    1.74
 -15  -3   2   40.43    1.99
 -15  -3  -2   38.42    1.76
 -15  -3  -2   35.51    1.79
 -15  -3  -2   37.31    1.70
 -15  -3   2   37.09    1.68
 -15  -3  -4    2.91    1.45
  -3  15   4    3.29    0.97
 -15  -3  -4    4.42    1.18
 -15  -3  -4    4.21    1.41
 -15  -3  -4    1.66    1.57
 -15  -3  -6   32.23    2.36
 -15  -3  -6   32.10    1.82
 -15  -3  -6   34.21    1.93
 -15  -3  -8    0.61    0.44
 -15  -3  -8   -0.11    0.46
   3 -15  -8    1.04    0.42
   4 -15   1  243.97    7.11
   4 -15  -1  219.13    7.12
 -15  -4   1  234.67    7.13
 -15  -4  -1  237.52    7.14
 -15  -4   1  235.37    7.15
 -15  -4  -1  237.55    7.19
 -15  -4  -1  251.51    7.23
 -15  -4   1  243.63    7.21
 -15  -4   1  241.14    7.16
   4 -15   1  212.43    7.17
   4 -15  -1  234.56    7.06
 -15  -4  -1  247.12    7.20
 -15  -4  -3    0.81    0.79
 -15  -4   3    1.88    0.80
   4 -15   3    1.34    0.75
 -15  -4  -3    1.07    1.16
  -4  15   3    1.62    0.89
 -15  -4   3    1.57    1.09
 -15  -4  -3    1.24    1.05
 -15  -4  -3    2.20    1.23
 -15  -4  -3    1.97    0.84
 -15  -4   3    1.54    0.84
   4 -15  -3    1.56    1.03
 -15  -4  -3    0.96    1.31
 -15  -4  -5  117.44    4.38
  -4  15   5  112.32    3.87
 -15  -4  -5  118.30    4.03
 -15  -4  -5  125.20    4.14
  -4  15  -7    7.91    0.80
 -15  -4  -7    9.56    1.02
 -15  -4  -7    8.94    1.14
   4 -15  -7   10.34    1.02
 -15  -5   0    0.45    0.94
 -15  -5   0   -0.19    0.84
 -15  -5   0    0.91    1.06
 -15  -5   0    0.10    0.94
   5 -15   0    0.02    0.81
 -15  -5  -2    1.29    0.92
 -15  -5   2    1.55    0.92
 -15  -5  -2    2.45    1.20
   5 -15   2    2.64    0.75
 -15  -5   2    1.65    0.95
 -15  -5  -2    1.01    0.95
 -15  -5  -2    0.38    0.90
 -15  -5   2    1.69    0.88
   5 -15  -2    1.50    0.97
 -15  -5  -2    0.56    1.14
 -15  -5  -4    1.89    1.51
  -5  15   4    4.37    1.11
  -5  15  -4    2.96    0.95
 -15  -5  -4    3.67    1.17
 -15  -5  -4    3.71    1.40
 -15  -5  -4    2.25    1.55
 -15  -5  -6   69.07    2.78
  -5  15  -6   68.79    2.63
   6 -15  -1  112.73    3.91
   6 -15   1  130.72    3.99
 -15  -6   1  125.69    4.00
 -15  -6  -1  125.48    4.01
 -15  -6  -1  126.81    4.08
 -15  -6   1  120.68    4.01
 -15  -6  -1  121.99    4.08
 -15  -6   1  120.27    4.00
 -15  -6   1  123.40    4.09
 -15  -6  -1  120.61    4.04
 -15  -6  -3    4.30    0.91
 -15  -6   3    5.02    0.88
   6 -15   3    4.17    0.85
  -6  15   3    2.74    0.95
 -15  -6   3    4.59    1.14
 -15  -6  -3    3.38    1.07
 -15  -6  -3    5.26    1.35
 -15  -6   3    4.51    0.87
   6 -15  -3    3.36    1.12
 -15  -6  -3    3.31    0.91
 -15  -6  -3    2.93    1.48
  -6  15   5    1.24    1.03
  -6  15  -5    2.28    0.81
 -15  -6  -5    1.42    1.11
 -15  -6  -5    2.81    1.30
  -6  15  -7   59.46    2.05
 -15  -6  -7   55.47    2.01
 -15  -7   0    0.87    0.95
 -15  -7   0    0.25    1.04
 -15  -7   0    1.01    0.89
 -15  -7   0   -0.13    0.98
 -15  -7  -2  180.39    5.67
 -15  -7   2  177.95    5.62
 -15  -7  -2  183.39    5.65
 -15  -7  -2  195.69    5.73
 -15  -7  -2  181.82    5.70
   7 -15  -2  175.16    5.58
 -15  -7   2  184.16    5.62
 -15  -7   2  178.22    5.62
   7 -15   2  170.54    5.56
  -7  15   4   71.16    2.87
  -7  15  -4   74.69    2.84
 -15  -7  -4   76.30    2.87
 -15  -7  -4   80.56    3.04
   7 -15  -4   78.24    2.85
  -7  15  -6   29.93    1.69
 -15  -7  -6   32.17    1.60
 -15  -7  -6   31.28    1.73
   8 -15   1  183.37    5.44
 -15  -8   1  177.05    5.46
 -15  -8  -1  170.34    5.45
 -15  -8  -1  177.95    5.51
   8 -15  -1  183.03    5.43
 -15  -8  -1  163.80    5.50
 -15  -8   1  173.78    5.53
 -15  -8   1  169.08    5.53
 -15  -8  -1  175.54    5.57
 -15  -8   1  182.26    5.56
 -15  -8  -1  175.12    5.57
  -8  15   3  117.90    4.22
 -15  -8   3  116.64    4.26
 -15  -8  -3  134.32    4.22
 -15  -8  -3  125.41    4.20
   8 -15  -3  138.66    4.22
 -15  -8   3  129.84    4.12
   8 -15   3  124.59    4.13
 -15  -8  -3  127.46    4.20
 -15  -8   3  131.07    4.15
  -8  15   5    0.85    1.01
  -8  15  -5    1.66    0.94
 -15  -8  -5    1.14    1.01
 -15  -8  -5    0.55    1.16
   8 -15  -5    0.56    1.03
  -8  15  -7    5.83    0.90
 -15  -8  -7    4.42    0.62
   8 -15  -7    4.60    0.62
 -15  -9   0    0.99    1.13
 -15  -9   0   -0.33    0.78
   9 -15   0   -0.65    0.70
 -15  -9   0   -0.20    0.79
 -15  -9   0   -0.20    1.00
 -15  -9   0   -0.80    1.07
 -15  -9  -2  302.39    9.15
 -15  -9   2  294.61    9.11
 -15  -9  -2  300.15    9.11
   9 -15  -2  321.22    9.10
 -15  -9   2  311.15    9.16
 -15  -9  -2  312.86    9.24
 -15  -9  -2  312.45    9.23
 -15  -9   2  305.52    9.16
   9 -15   2  301.97    9.07
  -9  15   4   17.66    1.52
  -9  15  -4   21.42    1.55
 -15  -9  -4   17.22    1.37
 -15  -9  -4   19.75    1.51
   9 -15  -4   20.46    1.38
 -15  -9  -6   15.99    1.10
   9 -15  -6   19.59    1.13
  -9  15  -6   18.25    1.44
  10 -15   1  116.97    3.90
  10 -15  -1  118.44    3.89
 -15 -10   1  126.86    4.13
 -15 -10  -1  119.90    4.00
 -15 -10   1  118.84    3.93
 -15 -10  -1  110.82    3.89
 -15 -10   1  125.88    4.02
 -15 -10  -1  129.55    4.16
 -15 -10  -1  127.84    4.21
 -15 -10  -1  129.01    4.17
 -15 -10   1  129.25    4.14
 -15 -10  -3    7.14    1.10
 -15 -10  -3    7.23    1.16
 -15 -10  -3    6.98    1.10
 -15 -10  -3    7.61    1.03
 -10  15  -3    9.81    1.42
  10 -15  -3    8.38    1.11
 -15 -10   3    8.00    0.97
 -15 -10   3    8.40    1.03
 -10  15  -5   -0.63    1.00
 -15 -10  -5    0.13    0.83
  10 -15  -5    0.53    0.86
 -10  15  -7    2.10    0.74
 -15 -11   0    0.10    1.19
 -15 -11   0   -0.51    1.07
  11 -15   0    0.47    0.63
 -15 -11   0   -0.63    0.87
 -15 -11   2    8.58    1.19
 -15 -11  -2    8.98    1.25
  11 -15  -2    7.12    0.96
 -15 -11  -2    8.32    1.25
 -15 -11   2    8.41    1.14
  11 -15   2    7.60    0.80
 -11  15  -4    8.66    1.31
 -15 -11  -4    7.07    0.96
  11 -15  -4    9.25    0.96
 -11  15  -6    4.94    1.13
 -15 -12   1   78.03    2.85
 -15 -12  -1   76.98    3.07
 -15 -12  -1   82.17    2.97
 -15 -12   1   78.88    2.95
 -15 -12  -1   82.40    3.04
 -15 -12   1   80.32    2.97
 -15 -12  -3    2.14    0.99
 -15 -12   3    2.01    0.89
 -12  15   3    0.66    1.26
 -12  15  -3    2.86    1.40
 -15 -12  -3    2.02    1.02
 -15 -12   3    2.00    0.85
 -12  15  -5    1.01    1.71
 -12  15  -5   -0.51    1.08
 -12  15  -7    2.87    0.53
 -15 -12  -7    0.95    0.47
 -15 -13   0   -0.03    1.28
 -15 -13   0   -0.38    0.82
 -15 -13   0   -0.69    0.97
 -15 -13   0    0.75    1.23
 -15 -13   2   11.96    1.27
 -15 -13  -2   10.27    1.50
 -15 -13  -2   12.67    1.41
 -15 -13  -2    9.81    1.32
 -15 -13   2   11.95    1.30
 -13  15   4    0.87    1.14
 -13  15  -4   -0.13    1.27
 -13  15  -6    3.25    0.98
 -15 -14   1    0.46    1.06
 -15 -14   1   -0.53    1.23
 -15 -14  -1    1.23    1.27
 -15 -14  -1    0.87    1.20
 -15 -14  -1    1.05    1.35
 -15 -14   1    0.99    1.24
 -15 -14  -1    0.58    0.93
 -14  15   3   22.98    1.65
 -15 -14   3   24.51    1.32
 -15 -14  -3   25.81    1.54
 -15 -14   3   22.31    1.35
 -15 -14  -3   23.41    1.45
 -14  15  -5   10.41    1.25
 -14  15  -5   12.36    1.68
 -15 -15   0   -0.03    1.37
 -15 -15   0    0.27    1.12
 -15 -15   0   -0.42    0.89
 -15 -15   0    0.31    1.40
 -15 -15   2   83.85    3.10
 -15  15  -2   91.29    3.42
 -15 -15  -2   87.60    3.30
 -15 -15  -2   81.74    3.17
 -15 -15   2   86.65    3.08
 -15 -15  -2   82.89    3.15
 -15  15   4    7.38    1.08
 -15  15  -4    7.44    1.40
 -15 -15  -4    6.01    1.37
 -15  15  -6   30.52    1.21
 -15  15  -6   26.51    1.11
 -16  15  -1  151.22    5.15
 -15 -16   1  154.01    5.08
 -15 -16  -1  151.45    5.06
 -15 -16  -1  155.44    5.14
 -15 -16   1  155.91    5.08
 -15 -16  -1  139.72    4.92
 -15 -16  -1  160.70    5.13
 -15 -16   1  158.73    5.12
 -16  15   3   15.71    1.30
 -15 -16  -3   10.58    1.24
 -15 -16  -3   12.88    1.53
 -15 -16  -3   12.20    1.12
 -15 -16  -3   12.61    1.21
 -16  15  -5    3.72    1.12
 -15 -16  -5    3.27    0.99
 -14 -16   0   84.65    3.18
 -14 -16   0   83.34    3.25
 -14 -16   0   77.60    3.00
 -14 -16   0   77.37    3.20
 -14 -16  -2    3.80    1.25
 -14 -16   2    3.30    1.17
 -16  14   2    4.95    1.16
 -16  14  -2    4.49    1.48
 -14 -16  -2    5.04    1.13
 -14 -16  -2    3.32    1.42
 -14 -16  -2    3.55    1.34
 -14 -16   2    5.41    1.18
 -16  14  -4   -0.64    1.81
 -16  14   4    2.04    0.98
 -16  14  -4    4.01    1.41
 -14 -16  -4    3.29    1.38
 -16  14  -6    0.85    0.80
 -14 -16  -6    0.43    0.64
 -16  14  -6    0.26    0.70
 -13 -16  -1    1.49    1.34
 -13 -16   1    2.07    1.36
 -13 -16  -1    3.39    1.56
 -13 -16   1    1.04    1.05
 -16  13  -1    3.20    1.39
 -13 -16  -1    3.56    1.35
 -13 -16   1    1.68    1.40
 -13 -16  -1    1.67    1.06
 -13 -16   1    2.56    1.25
 -13 -16  -3    7.61    1.14
 -16  13   3    9.05    1.23
 -16  13  -3   11.01    1.58
 -13 -16  -3    8.71    1.64
 -13 -16   3    9.18    1.02
 -13 -16  -3    9.98    1.23
 -13 -16   3    8.99    1.08
 -16  13  -5    8.59    1.37
 -12 -16   0  117.82    4.02
 -12 -16   0  116.11    4.24
 -12 -16   0  112.92    3.96
 -12 -16   0  107.61    4.12
 -12 -16  -2    0.83    1.21
 -12 -16   2    0.37    1.18
 -16  12  -2    0.82    1.36
 -12 -16  -2    0.45    1.38
 -12 -16   2    0.61    1.23
 -12 -16  -2    0.71    1.26
 -12 -16   2    0.31    1.13
 -16  12  -4    5.68    2.01
 -16  12   4    7.21    1.06
 -16  12  -6   23.05    1.40
 -16  12  -6   21.15    1.36
 -11 -16  -1    0.03    1.34
 -11 -16   1    0.06    1.29
 -11 -16  -1   -0.37    1.43
 -11 -16   1   -0.17    1.16
 -16  11  -1    0.81    1.20
 -11 -16  -1    1.43    1.26
 -11 -16   1    0.85    1.10
 -11 -16   1    1.19    1.43
 -11 -16  -1    0.34    1.10
 -16  11   3  206.82    6.22
 -16  11  -3  188.62    6.11
 -16  11  -3  210.23    6.47
 -11 -16  -3  206.46    6.35
 -11 -16   3  206.93    6.19
 -11 -16  -3  184.86    6.21
 -11 -16   3  201.56    6.22
 -16  11  -5   10.54    1.51
 -16  11  -7    4.75    0.63
 -11 -16  -7    2.87    0.48
 -16  10   0  187.20    5.97
 -16  10   0  178.03    6.01
 -10 -16   0  210.14    6.23
 -10 -16   0  209.77    6.21
 -16  10   2    9.84    1.12
 -16  10   2   10.14    1.14
 -16  10  -2    9.54    1.11
 -16  10  -2   12.01    1.52
 -16  10  -2   11.01    1.16
 -10 -16   2   12.61    1.46
 -10 -16   2   10.02    1.37
 -10 -16   2   10.65    1.42
 -10 -16  -2   11.86    1.48
 -16  10  -4    7.00    1.97
 -16  10   4    5.64    1.05
 -10 -16  -4    5.77    0.92
 -16  10  -4    7.88    1.09
 -16  10  -6    2.22    1.26
 -16  10  -6    0.38    1.18
  -9 -16   1   64.28    2.26
  -9 -16   1   66.17    2.65
 -16   9   1   65.96    2.48
 -16   9  -1   61.02    2.43
 -16   9  -1   63.05    2.61
 -16   9  -1   60.77    2.52
  -9 -16   1   67.20    2.93
  -9 -16  -1   62.57    2.89
  -9 -16   1   69.11    2.68
 -16   9   3   26.88    1.48
 -16   9  -3   29.94    1.89
 -16   9  -3   27.11    1.53
 -16   9  -3   24.87    1.57
  -9 -16  -3   27.67    1.77
  -9 -16  -3   30.67    1.39
  -9 -16   3   26.45    1.56
  -9 -16  -3   25.03    1.61
  -9 -16   3   27.07    1.62
 -16   9  -5  141.16    4.66
 -16   9  -5  131.97    4.36
 -16   9  -7   -0.13    0.82
  -9 -16  -7   -0.06    0.62
 -16   9  -7   -0.50    0.71
  -8 -16   0   78.03    2.54
 -16   8   0   76.35    2.69
 -16   8   0   69.15    2.73
  -8 -16   0   77.81    2.84
  -8 -16   2    2.07    1.34
  -8 -16  -2    3.90    1.39
  -8 -16   2    1.90    0.65
 -16   8   2    3.16    0.82
 -16   8  -2    1.74    1.22
 -16   8   2    2.96    1.09
 -16   8  -2    2.43    1.00
  -8 -16   2    2.72    1.16
 -16   8  -2    3.86    1.16
  -8 -16  -2    2.86    0.86
 -16   8   4   76.79    2.85
 -16   8  -4   98.72    3.43
 -16   8  -4   87.89    3.52
  -8 -16  -4   69.42    2.84
 -16   8  -4   79.96    2.94
 -16   8  -4   88.14    3.09
  -8 -16  -4   84.03    2.80
 -16   8  -6    3.86    1.44
 -16   8  -6    2.10    0.96
 -16   8  -6    3.16    1.36
 -16   7  -1   11.65    1.40
 -16   7   1   13.81    1.41
  -7 -16   1   12.66    0.92
 -16   7   1   13.56    1.23
 -16   7  -1   13.54    1.21
 -16   7  -1   12.65    1.23
  -7 -16  -1   12.88    1.01
  -7 -16  -1   12.46    1.35
  -7 -16   1   13.80    1.31
 -16   7   1   14.08    1.47
 -16   7  -1   12.47    1.29
  -7 -16  -3    8.90    1.30
 -16   7  -3    8.17    1.82
 -16   7   3    9.97    1.07
 -16   7  -3   11.72    1.32
 -16   7   3   11.46    1.34
 -16   7  -3   11.27    1.43
 -16   7  -3    8.02    1.15
  -7 -16  -3   11.04    1.06
  -7 -16   3   10.45    1.27
 -16   7  -5    3.41    1.55
 -16   7  -5    2.74    1.09
 -16   7  -5    2.37    1.23
  -7 -16  -5    3.71    0.94
  -7 -16   7   32.86    1.32
 -16   7  -7   32.41    1.28
 -16   6   0   74.28    2.71
 -16   6   0   68.08    2.61
 -16   6   0   79.74    2.82
  -6 -16   0   76.58    2.82
  -6 -16   0   74.57    2.84
 -16   6   0   66.36    2.79
 -16   6  -2    3.47    1.13
 -16   6   2    3.36    1.17
  -6 -16   2    3.49    0.74
 -16   6   2    2.80    0.77
 -16   6  -2    4.04    1.08
 -16   6   2    4.88    1.15
 -16   6  -2    6.15    1.07
  -6 -16   2    2.96    1.15
  -6 -16  -2    4.40    0.90
 -16   6  -2    5.71    1.19
 -16   6  -4   77.95    3.07
 -16   6   4   68.93    2.64
 -16   6  -4   83.10    3.21
 -16   6  -4   81.82    3.36
 -16   6  -4   80.02    2.84
 -16   6  -4   80.97    2.97
  -6 -16  -4   75.81    2.70
  -6 -16  -4   64.31    2.70
 -16   6  -6   31.71    1.94
 -16   6  -6   31.48    1.60
 -16   6  -6   30.76    1.68
  -6 -16  -6   30.08    1.42
 -16   6  -6   30.01    1.90
  -5 -16   1  229.17    6.79
 -16   5   1  230.74    6.91
 -16   5  -1  214.50    6.84
 -16   5  -1  225.34    6.87
 -16   5  -1  226.42    6.94
  -5 -16   1  210.06    6.96
  -5 -16   1  229.20    7.00
  -5 -16  -1  240.70    7.07
  -5 -16  -1  206.42    6.70
 -16   5  -1  225.55    6.93
 -16   5   1  225.70    6.97
 -16   5   1  235.83    7.02
 -16   5  -1  235.37    6.96
 -16   5   1  234.00    6.98
 -16   5  -3    0.60    1.54
  -5 -16   3    1.35    0.75
 -16   5   3    0.72    0.75
 -16   5  -3    1.88    1.23
 -16   5   3    1.78    1.28
 -16   5  -3   -0.45    1.05
 -16   5  -3    1.94    1.24
  -5 -16  -3    0.40    0.93
 -16   5  -5   -0.24    1.51
 -16   5  -5   -0.82    1.16
 -16   5  -5    0.09    1.28
  -5 -16  -5    0.03    1.00
 -16   5  -7    0.89    1.11
 -16   5  -7    2.95    0.81
 -16   5  -7    3.44    0.91
 -16   5  -7    1.74    1.08
 -16   4   0   25.53    1.63
 -16   4   0   31.10    1.57
  -4 -16   0   30.15    1.55
  -4 -16   0   27.27    1.35
 -16   4   0   27.12    1.64
  -4 -16   2    6.85    0.84
 -16   4  -2    5.94    1.36
 -16   4  -2    6.19    1.08
 -16   4   2    8.03    1.10
 -16   4  -2    5.67    1.03
 -16   4   2    7.45    1.22
 -16   4  -2    7.24    1.09
 -16   4  -2    5.98    1.23
  -4 -16   2    4.86    1.14
  -4 -16   2    5.46    1.22
 -16   4  -2    7.06    1.06
 -16   4   2    6.67    1.13
  -4 -16  -2    6.10    0.98
 -16   4  -4    4.76    1.46
 -16   4  -4    5.44    1.23
 -16   4  -4    6.27    1.40
  -4 -16  -4    4.75    1.09
 -16   4  -4    5.48    1.68
 -16   4  -6   13.98    1.70
 -16   4  -6   14.90    1.36
 -16   4  -6   15.30    1.43
  -4 -16  -6   12.93    1.19
 -16   4  -6   10.44    1.65
  -3 -16   1   31.39    1.44
 -16   3  -1   30.04    1.71
 -16   3   1   32.85    1.65
 -16   3  -1   29.42    1.47
 -16   3  -1   30.02    1.61
  -3 -16   1   31.09    1.64
 -16   3   1   32.50    1.80
  -3 -16  -1   32.58    1.66
  -3 -16  -1   29.05    1.44
  -3 -16   1   31.31    1.70
 -16   3  -1   31.75    1.63
 -16   3   1   33.23    1.68
 -16   3  -1   31.07    1.69
 -16   3  -1   30.29    1.62
 -16   3   1   33.97    1.73
 -16   3  -3    3.70    1.40
 -16   3  -3    1.67    0.91
 -16   3   3    1.67    0.95
  -3 -16   3    3.72    0.80
 -16   3  -3    2.84    1.23
 -16   3  -3    3.21    1.25
 -16   3   3    4.00    1.37
 -16   3  -3    4.22    1.16
 -16   3  -3    2.94    1.30
 -16   3  -3    2.04    0.91
 -16   3   3    4.07    1.05
  -3 -16  -3    2.37    0.98
 -16   3  -5   20.97    1.83
 -16   3  -5   17.97    1.55
 -16   3  -5   20.48    1.67
 -16   3  -7   54.79    2.37
 -16   3  -7   59.72    2.11
 -16   3  -7   58.79    2.17
  -3 -16  -7   59.88    2.00
 -16   2   0   33.87    1.64
  -2 -16   0   29.41    1.61
  -2 -16   0   33.93    1.59
  -2 -16   0   28.45    1.44
 -16   2   0   32.69    1.75
 -16   2   0   29.42    1.61
 -16   2  -2    2.15    1.11
 -16   2  -2    2.24    0.99
 -16   2   2    3.50    0.96
  -2 -16   2    1.86    0.76
 -16   2  -2    3.13    0.96
 -16   2   2    1.91    1.16
 -16   2  -2    1.92    1.00
 -16   2  -2    2.88    1.24
 -16   2  -2    2.26    1.00
 -16   2   2    2.81    1.02
  -2 -16  -2    2.68    0.92
 -16   2  -4   89.28    3.43
 -16   2  -4   87.02    3.24
 -16   2  -4   97.16    3.39
 -16   2  -4   83.67    3.44
 -16   2  -6    9.36    1.45
 -16   2  -6    8.73    1.62
 -16   2  -6   10.53    1.33
 -16   2  -6    9.36    1.71
 -16   2  -8    0.81    0.46
  -1 -16   1   59.19    2.26
 -16   1  -1   57.55    2.27
 -16   1   1   63.86    2.44
 -16   1  -1   63.58    2.42
 -16   1  -1   64.36    2.43
  -1 -16  -1   65.02    2.43
 -16   1   1   66.11    2.44
  -1 -16  -1   57.29    2.25
  -1 -16   1   60.97    2.47
  -1 -16   1   64.42    2.46
 -16   1  -1   57.18    2.37
 -16   1   1   68.96    2.46
 -16   1  -3   74.57    2.75
 -16   1   3   75.10    2.88
 -16   1  -3   70.46    2.70
 -16   1  -3   59.93    2.53
 -16   1   3   75.40    2.62
  -1 -16  -3   73.75    2.60
 -16   1  -3   69.64    2.82
  -1 -16   3   70.18    2.55
 -16   1  -3   60.17    2.52
 -16   1   3   70.74    2.58
 -16   1  -5   39.04    2.33
 -16   1  -5   41.75    2.07
 -16   1  -5   38.36    2.35
 -16   1  -7    9.43    1.07
  -1 -16  -7    9.53    0.93
   0 -16   0   79.97    2.85
   0 -16   0   86.28    2.96
 -16   0   0   83.76    2.93
   0 -16   2  395.78   11.73
   0 -16  -2  393.65   11.87
   0 -16  -2  380.06   11.66
 -16   0  -2  418.53   11.83
 -16   0   2  424.53   11.84
 -16   0  -2  395.21   11.80
 -16   0  -2  396.55   11.79
 -16   0   2  417.25   11.81
 -16   0  -4   28.11    1.79
   0  16   4   23.76    1.22
 -16   0  -4   26.97    1.89
 -16   0  -6   16.25    1.79
   0 -16  -8    0.57    0.39
 -16  -1  -1    2.14    0.98
 -16  -1   1    3.18    0.93
 -16  -1  -1    3.23    1.20
   1 -16  -1    1.62    0.77
 -16  -1   1    2.59    1.20
   1 -16   1    2.82    0.88
 -16  -1  -1    2.88    1.03
   1 -16   1    3.07    0.97
 -16  -1   1    1.38    0.93
 -16  -1  -3    3.59    0.93
 -16  -1   3    4.77    0.94
 -16  -1  -3    7.71    1.25
  -1  16   3    3.99    0.80
 -16  -1  -3    6.70    1.39
 -16  -1   3    4.77    0.97
 -16  -1  -3    4.30    0.95
 -16  -1  -3    5.71    1.27
 -16  -1  -5   61.86    2.88
 -16  -1  -5   67.88    2.82
 -16  -1  -5   62.43    2.95
 -16  -1  -7   10.37    1.16
 -16  -2   0  252.02    7.51
 -16  -2   0  257.96    7.47
   2 -16   0  249.78    7.53
 -16  -2   0  230.32    7.47
 -16  -2   0  241.05    7.46
 -16  -2  -2    0.90    0.91
 -16  -2   2   -0.17    0.92
 -16  -2   2    1.28    1.08
 -16  -2  -2    1.15    0.99
 -16  -2  -2    1.37    1.24
 -16  -2  -2    1.67    0.96
 -16  -2   2    0.60    0.92
 -16  -2  -2    0.92    1.06
 -16  -2  -4  160.99    5.51
  -2  16   4  159.04    5.19
 -16  -2  -4  171.56    5.40
 -16  -2  -4  179.43    5.51
 -16  -2  -4  168.93    5.58
 -16  -2  -6   -0.38    1.68
 -16  -2  -6   -0.78    1.23
 -16  -2  -6    0.41    1.29
   2 -16  -8    0.64    0.45
 -16  -3  -1    2.10    0.97
 -16  -3   1    1.08    0.89
   3 -16   1    1.07    0.81
 -16  -3   1    1.99    1.01
 -16  -3  -1    1.93    0.98
 -16  -3   1    1.32    0.91
 -16  -3  -1    3.24    1.21
 -16  -3  -1    1.80    1.03
   3 -16   1    0.74    0.92
   3 -16  -1    1.69    0.81
   3 -16  -1    1.93    0.95
 -16  -3   1    1.13    1.22
 -16  -3  -3   24.87    1.65
  -3  16   3   25.26    1.38
 -16  -3   3   24.61    1.68
 -16  -3  -3   23.43    1.59
 -16  -3  -3   28.02    1.80
 -16  -3  -3   23.43    1.41
 -16  -3   3   26.52    1.40
   3 -16  -3   24.01    1.53
 -16  -3  -3   24.72    1.75
   3 -16   3   24.08    1.39
 -16  -3  -3   22.89    1.41
 -16  -3   3   24.62    1.41
 -16  -3  -5   18.54    1.90
 -16  -3  -5   18.16    1.56
 -16  -3  -5   19.90    1.74
 -16  -3  -5   15.53    2.07
 -16  -3  -7   89.69    2.94
   3 -16  -7  100.87    2.91
 -16  -4   0   68.22    2.66
 -16  -4   0   67.20    2.54
   4 -16   0   62.97    2.40
   4 -16   0   66.52    2.53
 -16  -4   0   69.46    2.58
 -16  -4   0   68.09    2.61
   4 -16   2   35.96    1.59
 -16  -4   2   29.40    1.69
   4 -16  -2   31.96    1.66
 -16  -4  -2   31.99    1.69
 -16  -4  -2   34.58    1.89
 -16  -4   2   31.34    1.63
 -16  -4  -2   27.97    1.59
 -16  -4  -2   30.36    1.75
 -16  -4  -2   31.41    1.63
 -16  -4   2   31.54    1.61
 -16  -4  -4    3.58    1.53
  -4  16   4    3.53    1.00
  -4  16  -4    3.72    0.85
 -16  -4  -4    2.59    1.22
 -16  -4  -4    6.01    1.52
   4 -16  -4    4.27    1.28
 -16  -4  -4    3.17    1.70
 -16  -4  -6   22.92    1.53
 -16  -4  -6   21.90    1.64
   4 -16  -6   23.55    1.47
   5 -16   1   27.07    1.40
 -16  -5  -1   28.15    1.67
 -16  -5   1   25.83    1.49
 -16  -5   1   24.04    1.45
 -16  -5  -1   23.86    1.50
 -16  -5  -1   26.38    1.56
   5 -16  -1   25.72    1.44
 -16  -5   1   28.35    1.74
 -16  -5  -1   28.51    1.59
 -16  -5   1   25.53    1.48
 -16  -5  -3   28.43    1.58
 -16  -5  -3   26.32    1.85
  -5  16   3   34.82    1.65
 -16  -5   3   30.86    1.82
 -16  -5  -3   28.09    1.72
 -16  -5  -3   32.39    1.95
 -16  -5   3   31.83    1.55
   5 -16  -3   32.42    1.73
 -16  -5  -3   30.78    2.02
   5 -16   3   30.21    1.52
 -16  -5  -3   28.25    1.55
 -16  -5   3   32.39    1.54
  -5  16   5    0.66    0.87
 -16  -5  -5    1.18    1.19
 -16  -5  -5    0.17    1.37
   5 -16  -5    0.32    1.20
  -5  16  -7   73.10    2.54
 -16  -5  -7   69.15    2.69
 -16  -6   0    1.60    1.03
 -16  -6   0    2.51    0.99
 -16  -6   0    2.37    1.00
 -16  -6   0    2.85    1.20
 -16  -6   2  325.38   10.12
 -16  -6  -2  336.61   10.14
 -16  -6  -2  359.34   10.22
 -16  -6   2  330.88   10.10
 -16  -6  -2  323.34   10.13
 -16  -6  -2  333.37   10.24
 -16  -6  -2  361.61   10.22
 -16  -6   2  352.66   10.15
   6 -16  -2  354.73   10.11
   6 -16   2  339.41   10.10
  -6  16   4   60.34    2.43
  -6  16  -4   54.20    2.32
 -16  -6  -4   63.96    2.51
 -16  -6  -4   63.07    2.65
   6 -16  -4   61.46    2.49
  -6  16  -6    7.39    1.06
 -16  -6  -6    9.00    1.12
 -16  -6  -6   10.32    1.29
   6 -16  -6   10.55    1.15
   7 -16   1   45.37    1.90
 -16  -7  -1   43.76    2.11
 -16  -7   1   48.85    2.03
 -16  -7  -1   45.05    2.03
 -16  -7  -1   47.53    2.15
 -16  -7   1   48.32    2.19
   7 -16  -1   46.52    1.97
 -16  -7  -1   44.16    2.04
 -16  -7   1   48.00    2.06
 -16  -7   1   51.78    2.11
  -7  16   3   49.04    2.21
 -16  -7   3   46.10    2.19
 -16  -7  -3   48.57    2.20
 -16  -7  -3   47.60    2.12
 -16  -7  -3   52.00    2.35
 -16  -7   3   51.96    2.03
   7 -16  -3   51.61    2.18
   7 -16   3   54.63    2.06
 -16  -7  -3   44.62    2.04
 -16  -7   3   50.79    2.03
  -7  16   5    7.24    1.11
  -7  16  -5    6.46    0.91
 -16  -7  -5    7.13    1.19
 -16  -7  -5    5.79    1.35
   7 -16  -5    8.92    1.22
  -7  16  -7   19.59    0.97
 -16  -7  -7   17.68    0.92
   7 -16  -7   20.90    0.93
   8 -16   0   43.14    1.81
 -16  -8   0   38.97    1.80
 -16  -8   0   41.54    1.96
 -16  -8   0   36.99    1.91
 -16  -8   0   39.72    1.94
 -16  -8   2  154.21    5.20
 -16  -8   2  159.79    5.23
 -16  -8  -2  162.76    5.26
 -16  -8  -2  170.54    5.34
   8 -16  -2  169.20    5.22
 -16  -8  -2  167.20    5.33
 -16  -8  -2  169.81    5.32
 -16  -8   2  168.16    5.28
   8 -16   2  168.84    5.20
  -8  16   4    4.26    1.14
  -8  16  -4    5.08    1.11
 -16  -8  -4    5.71    1.17
 -16  -8  -4    7.20    1.33
   8 -16  -4    5.00    1.16
  -8  16  -6    0.58    1.03
 -16  -8  -6    0.04    0.82
   8 -16  -6    0.26    0.85
   9 -16   1   19.61    1.19
   9 -16  -1   19.58    1.29
 -16  -9   1   19.00    1.29
 -16  -9  -1   16.64    1.29
 -16  -9  -1   21.95    1.46
 -16  -9  -1   17.77    1.30
 -16  -9  -1   19.43    1.49
 -16  -9   1   19.07    1.46
 -16  -9  -1   20.26    1.49
 -16  -9   1   20.77    1.49
 -16  -9  -3    3.84    1.01
 -16  -9   3    2.60    0.88
 -16  -9  -3    1.76    1.01
 -16  -9  -3    3.60    1.22
  -9  16   3    1.94    1.16
  -9  16  -3    3.50    1.29
 -16  -9  -3    3.45    1.05
 -16  -9   3    3.20    0.89
   9 -16  -3    3.66    1.10
  -9  16   5   18.31    1.28
  -9  16  -5   16.79    1.21
 -16  -9  -5   16.52    1.23
 -16  -9  -5   15.74    1.33
   9 -16  -5   16.88    1.24
  -9  16  -7   42.05    1.49
  10 -16   0   18.34    1.14
 -16 -10   0   15.73    1.33
 -16 -10   0   17.46    1.18
 -16 -10   0   16.74    1.18
 -16 -10   0   18.62    1.48
 -16 -10   0   16.74    1.48
 -16 -10   2  206.99    6.86
 -16 -10  -2  219.69    6.89
 -16 -10   2  234.74    7.00
 -16 -10  -2  230.11    6.96
  10 -16  -2  240.51    6.88
  10 -16   2  227.29    6.88
 -16 -10  -2  239.06    7.10
 -16 -10   2  221.18    6.95
 -16 -10  -2  231.33    7.05
 -10  16   4   33.93    1.86
 -10  16  -4   34.42    1.83
 -16 -10  -4   30.28    1.59
  10 -16  -4   37.24    1.62
 -16 -10  -4   26.86    1.64
 -10  16  -6    0.19    1.00
  10 -16  -6    0.31    0.55
 -16 -11   1   16.12    1.18
 -16 -11  -1   14.90    1.30
 -16 -11  -1   14.82    1.47
 -16 -11   1   15.61    1.44
 -16 -11  -1   14.49    1.46
 -16 -11   1   15.64    1.43
  11 -16   1   12.10    0.95
 -11  16  -3  126.81    4.16
  11 -16  -3  118.82    3.73
 -16 -11  -3  121.01    3.92
 -16 -11   3  117.04    3.78
 -16 -11  -3  112.22    3.87
 -16 -11   3  116.73    3.81
 -11  16  -5    0.94    0.96
  11 -16  -5    0.73    0.71
 -11  16  -7   11.28    0.61
 -16 -12   0   82.01    3.08
 -16 -12   0   77.17    2.91
 -16 -12   0   76.75    3.07
 -16 -12  -2   58.42    2.58
 -16 -12  -2   58.57    2.50
 -16 -12   2   60.04    2.40
 -16 -12   2   61.60    2.43
 -16 -12  -2   56.42    2.47
 -12  16  -4   19.67    1.56
 -12  16  -6    0.64    0.91
 -16 -13   1   49.03    2.17
 -16 -13  -1   48.74    2.23
 -16 -13   1   50.90    2.29
 -16 -13  -1   49.84    2.35
 -16 -13   1   52.34    2.33
 -16 -13  -1   46.96    2.34
 -13  16   3   61.49    2.52
 -13  16  -3   65.60    2.73
 -16 -13  -3   53.74    2.62
 -16 -13  -3   54.72    2.34
 -16 -13  -3   61.42    2.36
 -16 -13   3   57.48    2.24
 -16 -13   3   57.32    2.21
 -13  16  -5    4.41    1.46
 -13  16  -5    3.65    1.02
 -16 -14   0    4.76    1.44
 -16 -14   0    5.52    1.14
 -16 -14   0    5.81    1.46
 -16 -14   2    4.25    1.13
 -16 -14  -2    4.23    0.98
 -16 -14  -2    6.62    1.33
 -16 -14  -2    5.16    1.21
 -16 -14  -2    4.76    1.29
 -16 -14   2    6.94    1.17
 -14  16   4   34.91    1.65
 -14  16  -4   32.70    1.80
 -14  16  -6   41.29    1.43
 -14  16  -6   36.13    1.27
 -16 -15  -1  377.20   11.09
 -16 -15   1  367.24   11.04
 -16 -15  -1  358.99   11.11
 -16 -15  -1  381.22   11.10
 -16 -15   1  379.14   11.09
 -16 -15   1  360.11   11.04
 -15  16   3   62.37    2.40
 -16 -15  -3   62.50    2.60
 -16 -15  -3   55.31    2.28
 -16 -15  -3   54.85    2.25
 -15  16  -5    2.56    1.25
 -16 -15  -5    1.28    0.86
 -16 -16   0    4.74    1.39
 -16 -16   0    6.67    1.27
 -16 -16   0    4.09    1.36
 -16 -16  -2    2.48    1.07
 -16 -16   2    1.18    1.01
 -16  16   2    1.21    1.01
 -16  16  -2    1.33    1.50
 -16 -16  -2    1.38    1.21
 -16 -16  -2    0.12    1.11
 -16 -16   2    1.15    0.98
 -16  16   4   87.11    2.84
 -16  16  -4   83.85    3.03
 -16 -17   1   44.60    2.15
 -17  16  -1   47.88    2.28
 -16 -17   1   45.68    2.14
 -16 -17  -1   46.52    2.21
 -16 -17  -1   44.94    2.25
 -16 -17  -1   44.56    2.14
 -16 -17   1   50.39    2.21
 -16 -17  -3   53.27    2.22
 -16 -17  -3   48.55    1.99
 -16 -17  -3   47.30    1.95
 -17  16  -5    0.66    0.72
 -16 -17  -5   -0.19    0.61
 -15 -17   0   -0.24    1.40
 -15 -17   0   -0.74    1.21
 -15 -17   0   -0.68    0.99
 -15 -17   0   -0.21    1.40
 -17  15   2   24.61    1.51
 -17  15  -2   31.59    1.94
 -15 -17  -2   29.97    1.83
 -15 -17  -2   26.00    1.66
 -15 -17   2   28.22    1.61
 -15 -17  -2   26.82    1.57
 -15 -17  -2   29.41    1.65
 -15 -17   2   27.72    1.61
 -17  15   4   21.13    1.17
 -15 -17  -4   21.33    1.46
 -17  15  -4   24.10    1.87
 -15 -17  -6    0.39    0.42
 -17  14  -1   51.78    2.40
 -14 -17   1   51.48    2.40
 -14 -17  -1   55.50    2.45
 -14 -17  -1   46.22    2.48
 -14 -17   1   54.01    2.42
 -14 -17  -1   48.53    2.22
 -14 -17  -1   53.48    2.48
 -14 -17   1   47.63    2.44
 -17  14   3   10.36    1.13
 -17  14  -3   11.60    1.59
 -14 -17  -3   13.65    1.56
 -14 -17  -3   11.21    1.17
 -14 -17  -3    9.77    1.22
 -14 -17  -3    8.59    1.04
 -17  14  -5    5.85    1.09
 -14 -17  -5    4.56    0.97
 -13 -17   0    0.70    1.49
 -13 -17   0   -1.12    1.28
 -13 -17   0   -0.87    1.13
 -13 -17   0    0.60    1.50
 -17  13   2   19.25    1.36
 -17  13  -2   17.81    1.71
 -13 -17  -2   16.89    1.69
 -13 -17  -2   18.70    1.65
 -13 -17   2   17.04    1.48
 -13 -17  -2   17.45    1.49
 -13 -17  -2   17.48    1.52
 -13 -17   2   20.24    1.55
 -17  13   4   13.83    1.07
 -13 -17  -4   14.19    1.54
 -17  13  -4   14.82    1.90
 -17  13  -6    2.83    0.77
 -13 -17  -6    1.08    0.52
 -17  13  -6    3.16    0.72
 -12 -17   1    2.14    1.44
 -12 -17   1    1.64    1.32
 -17  12  -1    0.36    1.27
 -12 -17  -1    2.37    1.36
 -12 -17  -1    1.81    1.42
 -12 -17   1    1.38    1.12
 -12 -17  -1    1.77    1.54
 -12 -17   1    4.15    1.49
 -12 -17  -1    2.90    1.19
 -17  12  -3  124.18    4.23
 -12 -17  -3  128.38    4.39
 -12 -17   3  108.68    3.85
 -12 -17  -3  116.39    4.05
 -12 -17  -3  112.32    3.97
 -12 -17   3  114.71    3.93
 -17  12  -5   10.94    1.36
 -11 -17   0    1.40    1.40
 -11 -17   0   -0.77    1.22
 -17  11   0    0.46    1.07
 -17  11   0    0.37    1.03
 -11 -17   0    0.16    1.41
 -11 -17   0   -0.85    1.17
 -11 -17  -2    4.26    1.32
 -11 -17   2    4.26    1.31
 -17  11   2    2.64    0.99
 -17  11  -2    2.40    1.41
 -17  11  -2    2.70    1.00
 -11 -17  -2    2.94    1.48
 -11 -17  -2    2.62    1.43
 -11 -17   2    3.44    1.30
 -17  11   4   81.62    2.76
 -17  11  -4   80.50    2.77
 -17  11  -6    1.63    0.96
 -11 -17  -6   -0.21    0.84
 -17  11  -6   -0.80    0.97
 -10 -17   1   18.22    1.82
 -17  10  -1   14.75    1.36
 -17  10   1   15.85    1.26
 -17  10  -1   15.21    1.25
 -17  10  -1   15.68    1.50
 -10 -17   1   17.01    1.57
 -10 -17   1   18.79    1.50
 -10 -17  -1   17.13    1.50
 -10 -17  -1   15.55    1.74
 -17  10   3   87.50    3.27
 -17  10  -3  109.58    3.69
 -17  10  -3   94.18    3.30
 -17  10  -3  101.21    3.39
 -10 -17  -3   97.97    3.55
 -10 -17   3   97.20    3.35
 -10 -17  -3   92.99    3.43
 -10 -17   3   99.97    3.42
 -17  10  -3   93.99    3.97
 -17  10  -5    9.10    1.41
 -17  10  -5    6.28    0.93
 -17  10  -7   -0.02    0.52
 -10 -17  -7   -0.16    0.38
 -17   9   0    0.61    1.14
  -9 -17   0   -0.43    0.61
 -17   9   0    0.26    0.97
 -17   9   0   -0.04    0.98
  -9 -17   0   -0.03    1.10
 -17   9   2  107.63    3.74
 -17   9   2  122.22    3.94
 -17   9  -2  107.05    3.81
 -17   9  -2  120.57    4.04
  -9 -17   2  105.48    4.04
 -17   9  -2  112.13    3.87
  -9 -17   2  119.07    4.14
  -9 -17  -2  115.81    4.15
  -9 -17   2  113.63    3.65
  -9 -17  -2  117.37    3.65
 -17   9  -4    6.75    1.89
 -17   9  -4    5.09    1.11
 -17   9   4    5.79    0.91
 -17   9  -4    6.89    1.61
 -17   9  -4    5.32    1.07
  -9 -17  -4    5.03    0.90
 -17   9  -6   29.53    1.32
 -17   9  -6   30.51    1.72
  -8 -17   1   42.13    1.72
  -8 -17   1   43.45    2.12
 -17   8   1   45.73    2.00
 -17   8  -1   42.99    1.95
 -17   8  -1   41.54    2.03
 -17   8  -1   41.46    2.05
 -17   8   1   41.70    2.13
  -8 -17  -1   44.51    2.19
  -8 -17  -1   41.21    1.72
  -8 -17  -1   42.89    2.15
  -8 -17   3    9.02    1.23
  -8 -17  -3    7.44    1.19
 -17   8  -3    6.74    1.79
 -17   8   3    7.03    0.98
 -17   8  -3    9.58    1.47
 -17   8   3    8.78    1.70
 -17   8  -3    8.37    1.15
  -8 -17  -3    9.48    0.99
  -8 -17   3    6.86    1.08
 -17   8  -3    7.54    1.24
 -17   8  -5    3.52    1.42
 -17   8  -5    4.14    1.03
 -17   8  -5    4.79    1.11
 -17   8  -5    5.59    1.68
 -17   8  -7   -0.54    0.70
  -8 -17  -7    0.30    0.47
 -17   8  -7    0.13    0.64
 -17   7   0    0.74    1.34
  -7 -17   0    0.09    0.66
 -17   7   0   -0.45    1.19
 -17   7   0   -0.50    0.88
 -17   7   0    0.11    1.00
  -7 -17   0    0.67    1.15
  -7 -17   0   -0.78    1.09
 -17   7   2  180.75    5.89
 -17   7   2  210.93    6.17
 -17   7  -2  192.83    6.14
 -17   7  -2  189.47    6.04
  -7 -17  -2  212.44    6.39
  -7 -17  -2  200.32    5.92
 -17   7  -2  183.19    6.33
  -7 -17   2  193.84    5.92
 -17   7  -2  191.30    6.11
 -17   7  -4    6.94    1.82
 -17   7   4    7.36    0.92
 -17   7  -4    6.34    1.41
 -17   7  -4    6.76    1.63
 -17   7  -4    8.49    1.20
 -17   7  -4    7.68    1.31
  -7 -17  -4    5.03    1.00
  -7 -17  -4    7.18    1.03
 -17   7  -6   -0.12    1.29
 -17   7  -6   -0.22    0.91
 -17   6  -1    1.92    1.25
 -17   6  -1    3.10    1.20
 -17   6  -1    1.97    1.17
 -17   6   1    0.53    1.24
  -6 -17   1    2.15    0.73
 -17   6  -1    0.98    0.96
 -17   6   1    2.91    1.11
 -17   6  -1    1.17    1.06
  -6 -17   1    1.52    1.08
  -6 -17   1    0.75    1.09
  -6 -17  -1    2.22    0.89
 -17   6  -1    0.10    1.07
 -17   6   1    1.16    1.24
  -6 -17  -1    2.31    1.12
 -17   6   1    3.18    1.34
 -17   6  -3  324.83    9.64
 -17   6   3  297.16    9.40
 -17   6   3  336.21    9.72
 -17   6  -3  321.17    9.73
 -17   6  -3  319.97    9.57
 -17   6  -3  337.10    9.65
  -6 -17  -3  334.09    9.48
  -6 -17   3  317.42    9.71
  -6 -17  -3  293.74    9.69
  -6 -17   3  315.86    9.47
 -17   6  -3  344.18    9.88
 -17   6  -5   10.47    1.65
 -17   6  -5   10.25    1.25
 -17   6  -5   11.30    1.40
  -6 -17  -5   11.21    1.10
 -17   6  -5   11.14    1.79
 -17   6  -7   12.51    1.10
  -6 -17   7   13.31    0.77
  -6 -17  -7    6.53    0.68
 -17   6  -7    6.71    0.95
 -17   6  -7   12.39    0.78
 -17   5   0   -1.62    1.17
 -17   5   0   -0.83    1.07
 -17   5   0    0.65    1.27
  -5 -17   0   -0.26    1.00
 -17   5   2   42.08    2.04
 -17   5  -2   38.52    1.96
 -17   5  -2   41.78    1.94
  -5 -17   2   39.64    2.05
 -17   5  -2   41.63    2.02
  -5 -17  -2   37.85    2.13
  -5 -17  -2   39.01    1.76
 -17   5  -2   42.33    2.15
 -17   5  -2   39.70    1.98
 -17   5   2   40.43    2.05
  -5 -17   2   42.41    1.75
 -17   5  -2   35.83    1.92
 -17   5   2   39.56    1.99
 -17   5  -4    2.06    1.36
 -17   5  -4    1.67    1.18
 -17   5  -4    1.32    1.38
  -5 -17  -4    2.18    1.03
 -17   5  -4    2.65    1.65
 -17   5  -6    3.33    1.34
 -17   5  -6    5.05    1.11
 -17   5  -6    6.18    1.20
  -5 -17  -6    4.06    0.91
  -4 -17   1  151.55    4.88
 -17   4  -1  157.16    5.08
 -17   4   1  172.00    5.15
  -4 -17   1  158.17    5.13
 -17   4   1  162.58    5.06
 -17   4  -1  145.39    4.90
 -17   4  -1  159.68    5.02
 -17   4   1  159.35    5.15
  -4 -17  -1  154.91    5.11
  -4 -17  -1  144.40    4.82
 -17   4  -1  168.22    5.13
 -17   4   1  148.32    5.05
 -17   4  -1  163.66    5.07
 -17   4  -1  152.91    5.08
 -17   4  -3  305.36   10.03
 -17   4   3  347.23   10.10
 -17   4  -3  331.71   10.10
 -17   4   3  347.37   10.24
 -17   4  -3  337.58   10.26
 -17   4  -3  326.44   10.08
 -17   4  -3  351.18   10.19
 -17   4  -3  369.95   10.36
  -4 -17   3  337.92   10.02
  -4 -17  -3  348.25   10.00
 -17   4  -5    2.56    1.48
 -17   4  -5    2.79    1.20
 -17   4  -5    4.86    1.39
  -4 -17  -5    3.26    1.11
 -17   4  -5    2.62    1.72
  -4 -17  -7    1.16    0.47
 -17   4  -7    0.88    1.04
 -17   4  -7    1.48    0.76
 -17   4  -7    2.53    0.79
  -4 -17  -7    1.18    0.63
 -17   3   0   -0.05    1.09
 -17   3   0    0.54    1.03
  -3 -17   0    0.47    0.94
  -3 -17   0   -0.34    0.87
 -17   3   0    0.14    1.26
  -3 -17   0    0.27    0.99
 -17   3  -2    6.75    1.32
 -17   3  -2    6.84    1.18
 -17   3   2    8.45    1.23
  -3 -17   2    6.71    0.89
 -17   3  -2    6.40    1.11
 -17   3   2    7.53    1.30
 -17   3  -2    6.93    1.22
 -17   3  -2    8.33    1.34
  -3 -17  -2    6.98    1.19
  -3 -17  -2    7.35    1.09
 -17   3  -2    7.34    1.21
 -17   3   2    7.46    1.24
 -17   3  -4  176.61    5.54
 -17   3  -4  163.99    5.41
 -17   3  -4  171.51    5.64
 -17   3  -4  178.17    5.52
  -3 -17  -4  158.01    5.27
 -17   3  -6    1.20    1.39
 -17   3  -6   -0.09    1.11
 -17   3  -6    1.26    1.21
  -3 -17  -6   -0.69    0.96
  -2 -17   1  114.88    3.84
 -17   2  -1  121.98    4.01
 -17   2  -1  106.05    3.79
 -17   2   1  121.06    3.99
 -17   2  -1  112.87    3.93
 -17   2  -1  113.68    4.01
  -2 -17   1  122.26    4.05
  -2 -17  -1  122.52    4.00
  -2 -17  -1  111.20    3.79
 -17   2   1  120.27    4.11
  -2 -17   1  113.03    4.05
 -17   2   1  129.78    4.04
 -17   2  -1  124.58    4.02
 -17   2   1  114.85    3.97
 -17   2  -3    2.92    0.99
 -17   2   3    2.27    0.98
  -2 -17   3    3.24    0.90
 -17   2  -3    3.43    1.15
 -17   2   3    3.00    1.38
 -17   2  -3    2.90    1.21
 -17   2  -3    4.00    1.38
 -17   2  -3    1.21    0.94
 -17   2   3    3.81    1.02
  -2 -17  -3    1.76    1.07
 -17   2  -3    1.07    1.40
 -17   2  -5   32.12    2.05
 -17   2  -5   31.74    1.87
 -17   2  -5   33.12    2.05
  -2 -17  -5   31.01    1.73
 -17   2  -5   30.75    2.24
 -17   2  -7    0.20    0.80
 -17   2  -7    0.91    0.88
  -2 -17  -7    1.12    0.73
 -17   1   0   -0.56    0.98
 -17   1   0   -0.13    1.04
  -1 -17   0    0.26    0.88
  -1 -17   0    0.30    0.88
  -1 -17   0   -0.08    0.98
  -1 -17   2   24.55    1.35
 -17   1  -2   23.35    1.51
 -17   1   2   26.75    1.67
 -17   1  -2   25.42    1.56
  -1 -17  -2   23.12    1.54
  -1 -17  -2   22.51    1.41
 -17   1  -2   21.44    1.44
 -17   1   2   24.51    1.50
 -17   1  -2   22.89    1.57
 -17   1  -2   22.87    1.50
 -17   1   2   27.56    1.57
 -17   1  -4    1.66    1.33
 -17   1  -4    1.03    1.28
  -1 -17  -4    1.35    1.16
 -17   1  -4    2.19    1.49
 -17   1  -6   51.57    2.57
 -17   1  -6   56.21    2.34
  -1 -17  -6   57.86    2.19
   0 -17   1   11.99    1.04
   0 -17   1   11.18    1.18
   0 -17  -1   12.52    1.14
 -17   0   1   11.56    1.29
   0 -17  -1    9.63    1.11
   0 -17   1    9.77    1.26
 -17   0  -1   11.30    1.20
   0 -17  -1   10.08    1.20
 -17   0  -1   10.24    1.18
 -17   0   1   11.73    1.27
 -17   0  -3  353.26   10.13
   0  17   3  318.53    9.86
 -17   0   3  315.22   10.18
   0 -17  -3  344.23   10.03
 -17   0  -3  323.03   10.03
 -17   0   3  344.17   10.05
 -17   0  -3  356.42   10.22
   0 -17   3  343.26   10.05
 -17   0  -3  341.32   10.04
 -17   0   3  355.57   10.05
 -17   0  -5   19.10    1.83
   0 -17  -5   20.16    1.54
 -17   0  -5   20.13    2.01
   0 -17  -7    1.49    0.75
 -17  -1   0   -0.16    1.00
 -17  -1   0   -0.81    1.22
   1 -17   0    0.32    0.94
 -17  -1   0   -0.02    0.98
   1 -17   0    0.30    0.83
   1 -17   2   22.87    1.38
 -17  -1  -2   27.18    1.77
   1 -17  -2   24.36    1.46
 -17  -1  -2   25.93    1.61
 -17  -1   2   28.35    1.58
 -17  -1  -2   25.58    1.56
 -17  -1  -2   24.97    1.57
 -17  -1   2   29.65    1.56
 -17  -1  -4    4.02    1.38
  -1  17   4    4.56    0.76
 -17  -1  -4    6.87    1.59
 -17  -1  -4    4.91    1.58
 -17  -1  -6   28.12    2.08
 -17  -1  -6   32.84    1.83
 -17  -2   1   95.83    3.31
 -17  -2  -1   96.16    3.34
 -17  -2  -1   90.19    3.29
 -17  -2  -1   90.23    3.38
 -17  -2   1   89.88    3.41
   2 -17   1   90.59    3.39
 -17  -2   1   93.69    3.29
   2 -17  -1   94.75    3.34
 -17  -2  -1   96.29    3.36
 -17  -2   1   87.40    3.24
 -17  -2  -3   12.88    1.39
  -2  17   3   13.55    1.08
 -17  -2   3   13.16    1.50
 -17  -2  -3   13.73    1.44
 -17  -2  -3   15.23    1.67
 -17  -2  -3   11.52    1.18
 -17  -2   3   13.92    1.17
 -17  -2  -3   13.68    1.58
 -17  -2  -3   12.17    1.20
 -17  -2   3   12.99    1.14
 -17  -2  -5   29.13    2.07
 -17  -2  -5   33.50    1.94
 -17  -2  -5   33.48    2.06
 -17  -2  -5   32.98    2.33
 -17  -2  -7   10.71    0.95
 -17  -2  -7    7.76    1.01
 -17  -3   0    0.85    1.06
 -17  -3   0    0.17    1.24
 -17  -3   0    1.19    1.10
   3 -17   0   -1.62    0.99
   3 -17   0   -0.53    0.94
 -17  -3   0   -0.96    1.04
   3 -17   2  231.18    6.84
 -17  -3   2  210.07    6.88
 -17  -3  -2  223.58    6.92
 -17  -3  -2  231.61    6.99
   3 -17  -2  224.02    6.81
 -17  -3  -2  218.21    6.87
 -17  -3   2  215.15    6.84
 -17  -3  -2  216.46    6.90
 -17  -3  -2  237.32    6.94
 -17  -3   2  223.47    6.86
 -17  -3  -4   20.16    1.80
  -3  17   4   21.49    1.28
 -17  -3  -4   22.47    1.64
 -17  -3  -4   22.66    1.84
   3 -17  -4   17.83    1.58
 -17  -3  -4   19.83    1.90
 -17  -3  -6    7.77    1.21
 -17  -3  -6   10.53    1.37
   3 -17  -6    8.71    1.23
   4 -17   1   26.72    1.43
 -17  -4   1   24.76    1.56
 -17  -4  -1   23.96    1.58
 -17  -4  -1   25.60    1.80
 -17  -4   1   27.11    1.84
   4 -17  -1   25.91    1.49
 -17  -4  -1   22.62    1.53
 -17  -4   1   25.25    1.54
   4 -17  -1   23.88    1.43
 -17  -4  -1   24.16    1.57
 -17  -4   1   28.05    1.59
  -4  17   3   11.40    1.12
 -17  -4  -3    8.81    1.44
 -17  -4   3   14.09    1.51
 -17  -4  -3   12.22    1.42
 -17  -4  -3   15.87    1.72
   4 -17  -3   11.02    1.35
 -17  -4  -3    9.45    1.16
 -17  -4   3   11.73    1.11
 -17  -4  -3   12.63    1.61
   4 -17   3   10.62    1.15
 -17  -4  -3    9.86    1.12
 -17  -4   3   11.15    1.10
   4 -17  -5   11.49    1.38
 -17  -4  -5   11.64    1.39
 -17  -4  -5    9.49    1.53
 -17  -4  -7   -0.12    0.69
 -17  -4  -7    0.40    0.77
   4 -17  -7    1.08    0.71
 -17  -5   0   -0.44    1.07
 -17  -5   0   -0.43    1.07
 -17  -5   0   -0.58    1.27
   5 -17   0    0.42    0.85
 -17  -5   0   -0.64    1.09
 -17  -5  -2    4.68    1.11
 -17  -5   2    3.64    0.96
   5 -17   2    4.08    0.93
 -17  -5   2    3.94    1.19
 -17  -5  -2    2.64    1.15
 -17  -5  -2    5.55    1.37
 -17  -5  -2    3.91    1.12
 -17  -5   2    3.71    1.04
   5 -17  -2    3.36    1.17
 -17  -5  -2    2.83    1.29
  -5  17   4   58.17    2.34
  -5  17  -4   60.72    2.29
 -17  -5  -4   57.55    2.51
 -17  -5  -4   61.05    2.66
 -17  -5  -4   54.09    2.79
   5 -17  -4   63.44    2.51
 -17  -5  -6  245.79    7.17
   5 -17  -6  279.53    7.16
   6 -17   1  153.06    4.72
 -17  -6   1  143.18    4.74
 -17  -6  -1  137.46    4.73
 -17  -6   1  150.83    4.88
   6 -17  -1  141.43    4.65
 -17  -6  -1  150.16    4.82
 -17  -6   1  136.76    4.73
 -17  -6  -1  156.82    4.88
 -17  -6  -1  151.10    4.84
 -17  -6   1  144.01    4.77
 -17  -6  -3    3.85    1.03
 -17  -6   3    5.45    0.99
   6 -17   3    3.54    0.96
  -6  17   3    5.59    1.07
 -17  -6   3    4.39    1.27
 -17  -6  -3    4.03    1.21
 -17  -6  -3    6.57    1.45
 -17  -6  -3    2.78    0.99
 -17  -6   3    3.95    0.93
   6 -17  -3    3.86    1.21
  -6  17   5    0.78    0.86
 -17  -6  -5    1.49    1.10
 -17  -6  -5    0.14    1.29
   6 -17  -5    0.32    1.12
 -17  -6  -7    6.64    0.63
   6 -17   7    7.27    0.49
   6 -17  -7    7.76    0.65
 -17  -7   0   -0.39    1.12
   7 -17   0    0.55    0.87
 -17  -7   0   -0.24    0.99
 -17  -7   0   -1.80    1.14
 -17  -7   0    0.10    1.21
 -17  -7   2  146.77    5.01
 -17  -7  -2  155.64    5.05
 -17  -7  -2  158.96    5.17
   7 -17  -2  160.32    5.02
 -17  -7  -2  158.82    5.10
 -17  -7  -2  169.93    5.13
 -17  -7   2  157.84    5.02
   7 -17   2  153.26    4.97
 -17  -7   2  145.12    4.98
  -7  17   4    0.07    1.04
  -7  17  -4    0.89    0.94
 -17  -7  -4    0.50    1.12
 -17  -7  -4   -0.15    1.30
   7 -17  -4    1.34    1.21
 -17  -7  -6   13.23    1.07
 -17  -7  -6    8.27    1.08
   7 -17  -6   16.84    1.13
  -7  17  -6   11.71    1.04
 -17  -8  -1    0.85    1.12
 -17  -8   1    1.71    1.02
 -17  -8  -1   -0.02    1.26
   8 -17   1   -0.04    0.80
 -17  -8   1    0.93    1.00
 -17  -8   1    0.73    1.08
 -17  -8  -1    1.15    1.03
 -17  -8   1    0.27    1.29
   8 -17  -1    0.29    1.02
 -17  -8  -1    1.12    1.18
 -17  -8  -3    0.95    0.92
 -17  -8   3    1.14    0.86
   8 -17   3    0.96    0.82
  -8  17   3    1.33    1.08
  -8  17  -3    0.49    1.19
 -17  -8  -3    0.76    1.10
 -17  -8  -3    1.78    1.04
 -17  -8  -3    1.53    1.24
 -17  -8   3    1.55    0.85
   8 -17  -3    1.94    1.14
  -8  17   5   48.92    1.85
  -8  17  -5   39.10    1.69
 -17  -8  -5   39.76    1.84
   8 -17  -5   49.16    1.87
  -8  17  -7    0.60    0.38
 -17  -9   0    0.27    1.16
   9 -17   0    0.43    0.80
 -17  -9   0    0.31    0.94
 -17  -9   0   -1.09    1.20
 -17  -9   0    0.75    1.17
 -17  -9   2  472.74   14.34
 -17  -9  -2  497.98   14.37
 -17  -9  -2  468.73   14.38
   9 -17  -2  520.05   14.34
 -17  -9  -2  521.39   14.49
 -17  -9   2  508.83   14.39
 -17  -9  -2  485.72   14.45
 -17  -9   2  510.54   14.42
   9 -17   2  531.81   14.37
  -9  17   4    9.27    1.27
  -9  17  -4    9.96    1.21
 -17  -9  -4    9.54    1.16
 -17  -9  -4    8.35    1.27
  -9  17  -6    3.77    0.90
 -17  -9  -6    4.12    0.66
   9 -17  -6    4.39    0.71
 -17 -10   1   44.50    1.94
 -17 -10  -1   46.09    1.98
 -17 -10  -1   45.14    2.07
 -17 -10  -1   43.79    2.00
 -17 -10  -1   49.89    2.28
 -17 -10   1   46.60    2.14
 -17 -10   1   46.21    1.95
 -17 -10  -1   47.94    2.21
 -17 -10   1   50.15    2.18
  10 -17   1   47.61    1.93
 -17 -10  -3    2.32    0.98
 -17 -10   3    2.65    0.91
 -10  17   3    2.52    1.18
 -17 -10   3    3.83    0.91
 -10  17  -3    3.01    1.33
 -17 -10  -3    3.37    1.02
 -17 -10  -3    3.33    1.14
  10 -17  -3    3.11    1.06
 -17 -10  -3    4.46    1.11
 -10  17   5    0.70    0.85
 -10  17  -5   -0.93    0.84
 -17 -10  -5    0.86    0.77
  10 -17  -5    0.90    0.83
 -17 -11   0    0.74    1.22
  11 -17   0   -0.06    0.67
 -17 -11   0   -0.18    0.85
 -17 -11   0    0.10    1.17
 -17 -11   2   17.88    1.39
 -17 -11  -2   21.13    1.54
  11 -17  -2   21.01    1.26
 -17 -11  -2   21.07    1.59
 -17 -11   2   20.15    1.41
  11 -17   2   22.24    1.17
 -17 -11  -2   20.58    1.54
 -17 -11   2   22.92    1.50
 -11  17  -4    4.95    1.12
 -17 -11  -4    3.11    0.85
  11 -17  -4    3.35    0.86
 -11  17  -6    2.31    0.94
 -11  17  -6    2.02    0.79
  12 -17  -1   63.04    2.50
 -17 -12   1   75.11    2.74
 -17 -12  -1   72.72    2.79
 -17 -12   1   82.67    2.92
 -17 -12  -1   79.07    2.97
 -17 -12  -1   82.89    2.99
 -17 -12   1   83.27    2.93
  12 -17   1   64.68    2.49
 -12  17  -3   17.18    1.61
 -17 -12  -3   13.20    1.45
 -17 -12  -3   13.51    1.29
 -17 -12   3   15.00    1.14
 -17 -12  -3   13.44    1.22
 -17 -12   3   14.24    1.11
 -12  17  -5    5.47    1.48
 -12  17  -5    5.77    0.97
 -17 -13   0    0.67    1.30
 -17 -13   0   -0.29    0.95
 -17 -13   0    0.85    1.31
 -17 -13  -2    1.37    1.15
 -17 -13   2    0.60    1.04
 -17 -13  -2    0.30    1.13
 -17 -13  -2    1.18    1.17
 -17 -13   2    0.96    1.01
 -13  17  -4    7.41    1.24
 -17 -13  -4    6.39    1.25
 -13  17  -6    1.03    0.54
 -17 -14  -1    4.22    1.34
 -17 -14   1    3.56    1.27
 -17 -14  -1    4.11    1.41
 -17 -14   1    3.86    1.06
 -17 -14  -1    3.51    1.10
 -17 -14   1    3.88    1.23
 -17 -14  -3    0.55    0.87
 -14  17   3    1.19    1.11
 -14  17  -3    1.58    1.40
 -17 -14  -3    1.24    1.13
 -17 -14  -3    2.51    0.95
 -14  17  -5    2.21    1.21
 -17 -14  -5    0.55    0.82
 -17 -15   0    0.55    1.33
 -17 -15   0   -0.23    1.01
 -17 -15   0   -0.85    1.30
 -15  17   2   70.04    2.71
 -15  17  -2   73.18    3.02
 -17 -15  -2   67.35    2.79
 -17 -15  -2   74.44    2.79
 -17 -15   2   73.24    2.68
 -17 -15  -2   70.83    2.72
 -17 -15   2   74.79    2.71
 -15  17   4   15.43    1.10
 -15  17  -4   18.35    1.33
 -17 -15  -4   14.89    1.26
 -15  17  -6    3.86    0.64
 -17 -16  -1    3.90    1.23
 -17 -16   1    5.86    1.26
 -16  17  -1    3.90    1.45
 -17 -16  -1    3.08    1.13
 -17 -16  -1    3.57    1.30
 -17 -16   1    4.35    1.19
 -17 -16  -3   15.09    1.34
 -17 -16  -3   13.14    1.08
 -17 -16  -3   12.41    1.00
 -16  17  -5    1.35    0.75
 -17 -16  -5    0.74    0.57
 -17 -17   0    1.04    1.22
 -17  17   0    0.42    1.18
 -17 -17   0   -0.34    1.08
 -17 -17   0   -0.61    1.21
 -17 -17  -2    3.89    1.00
 -17 -17   2    2.91    0.97
 -17  17   2    3.75    0.96
 -17  17  -2    3.27    1.28
 -17 -17  -2    4.79    1.15
 -17 -17  -2    4.26    1.04
 -17 -17   2    2.40    0.91
 -17  17   4    9.90    0.75
 -17  17  -4    9.33    1.04
 -17  17  -4    9.24    1.21
 -17 -18  -1    4.80    1.08
 -17 -18   1    4.50    1.10
 -17 -18  -1    5.42    1.13
 -18  17   1    5.24    0.87
 -18  17  -1    4.82    1.21
 -17 -18  -1    3.81    1.13
 -17 -18   1    4.45    1.10
 -17 -18  -3   13.32    0.94
 -18  17   3   14.66    0.97
 -18  17  -3   19.64    1.33
 -17 -18  -3   15.35    1.15
 -18  17  -3   18.96    1.48
 -17 -18  -3   13.18    0.86
 -18  16   0   65.63    2.60
 -16 -18   0   69.19    2.73
 -16 -18   0   66.77    2.69
 -16 -18   0   64.28    2.70
 -18  16   2   43.45    1.80
 -18  16  -2   48.08    2.11
 -16 -18  -2   43.05    2.03
 -16 -18  -2   43.87    1.94
 -16 -18   2   39.82    1.82
 -16 -18  -2   41.33    1.86
 -16 -18   2   41.76    1.86
 -16 -18  -4    8.23    0.95
 -18  16  -4   13.30    1.25
 -18  15  -1   69.78    2.75
 -15 -18   1   63.06    2.71
 -15 -18  -1   68.43    2.78
 -15 -18  -1   66.93    2.78
 -15 -18   1   64.99    2.69
 -15 -18  -1   61.98    2.57
 -15 -18  -1   70.63    2.77
 -15 -18   1   72.59    2.79
 -18  15  -3    0.73    1.49
 -15 -18  -3    0.06    0.76
 -18  15   3    1.16    0.81
 -18  15  -3   -0.50    1.17
 -15 -18  -3    0.33    1.08
 -15 -18  -3    0.27    0.87
 -15 -18  -3    0.20    0.83
 -15 -18  -5    7.64    0.77
 -18  15  -5   12.88    0.97
 -14 -18   0    9.07    1.60
 -18  14   0    7.66    1.23
 -14 -18   0   10.50    1.43
 -14 -18   0    8.10    1.23
 -14 -18   0    8.90    1.58
 -18  14   2   93.19    3.17
 -18  14  -2   95.34    3.45
 -14 -18  -2   91.08    3.48
 -14 -18  -2   93.03    3.40
 -14 -18   2   91.62    3.29
 -14 -18  -2   91.42    3.36
 -14 -18  -2   88.93    3.32
 -14 -18   2   95.51    3.35
 -18  14  -4    0.65    1.37
 -18  14   4   -0.14    0.69
 -14 -18  -4   -0.59    1.07
 -14 -18  -4    0.05    0.86
 -13 -18   1   55.84    2.55
 -18  13  -1   56.68    2.49
 -18  13   1   50.67    2.22
 -13 -18  -1   60.01    2.56
 -13 -18  -1   54.80    2.66
 -13 -18   1   56.01    2.59
 -13 -18  -1   56.64    2.45
 -13 -18  -1   53.30    2.54
 -13 -18   1   59.47    2.58
 -18  13  -3    3.28    1.71
 -13 -18  -3    2.04    0.89
 -18  13   3    3.45    0.91
 -18  13  -3    3.05    1.36
 -13 -18  -3    2.00    1.35
 -13 -18  -3    2.74    1.02
 -13 -18  -3    2.26    1.14
 -18  13  -5   45.08    1.76
 -18  13  -5   45.33    1.86
 -12 -18   0  143.00    4.69
 -18  12   0  129.62    4.49
 -12 -18   0  138.80    4.81
 -12 -18   0  137.83    4.65
 -12 -18   0  129.75    4.75
 -18  12   2   59.83    2.46
 -18  12  -2   69.91    2.80
 -12 -18  -2   72.61    2.93
 -12 -18  -2   66.79    2.89
 -12 -18   2   69.74    2.75
 -12 -18  -2   71.33    2.80
 -12 -18  -2   65.63    2.75
 -12 -18   2   68.11    2.77
 -18  12  -4   21.74    1.50
 -18  12   4   18.20    1.13
 -18  12  -4   23.27    1.68
 -18  12  -4   19.69    1.82
 -18  12  -6    2.72    0.64
 -12 -18  -6    1.40    0.56
 -12 -18  -6    1.47    0.53
 -18  12  -6    2.74    0.74
 -11 -18   1   30.19    1.91
 -18  11  -1   28.05    1.75
 -18  11   1   25.62    1.49
 -11 -18  -1   30.96    2.03
 -11 -18  -1   31.14    1.93
 -11 -18  -1   29.59    2.13
 -11 -18   1   30.90    2.05
 -11 -18   1   31.59    1.86
 -11 -18  -1   31.14    1.84
 -11 -18   1   29.93    2.01
 -18  11   3   20.95    1.27
 -18  11  -3   23.58    1.74
 -18  11  -3   19.07    1.31
 -11 -18  -3   22.83    1.54
 -11 -18  -3   18.08    1.34
 -11 -18   3   21.63    1.36
 -18  11  -3   20.88    2.05
 -18  11  -5    7.49    1.23
 -11 -18  -5    5.66    1.20
 -18  11  -5    6.34    1.35
 -18  10   0   32.60    1.67
 -18  10   0   34.13    1.76
 -10 -18   0   36.15    1.96
 -18  10   0   30.33    1.84
 -18  10   2   16.11    1.17
 -18  10   2   18.31    1.35
 -18  10  -2   15.13    1.28
 -18  10  -2   16.68    1.54
 -18  10  -2   15.57    1.36
 -10 -18  -2   19.84    1.78
 -10 -18   2   17.66    1.59
 -10 -18  -2   14.96    1.60
 -10 -18   2   19.75    1.62
 -18  10  -4    0.08    1.61
 -18  10  -4    0.68    0.94
 -18  10   4    0.14    0.72
 -18  10  -4    0.50    1.22
 -18  10  -4    1.07    1.46
 -10 -18  -4   -0.46    1.45
 -18  10  -6    1.09    0.92
 -10 -18  -6   -0.19    0.71
  -9 -18   1    1.93    1.63
  -9 -18  -1    1.98    1.57
  -9 -18   1    2.44    0.67
  -9 -18  -1    1.97    0.69
 -18   9  -1    1.73    1.11
 -18   9   1    2.05    1.06
 -18   9  -1    2.45    1.04
 -18   9  -1    3.40    1.18
  -9 -18   1    1.64    1.24
  -9 -18  -1    0.96    1.28
 -18   9  -3    9.68    1.78
  -9 -18  -3    7.50    1.18
  -9 -18   3    7.10    1.13
 -18   9  -3   10.19    1.28
 -18   9   3    6.77    0.94
  -9 -18  -3    7.46    0.95
 -18   9  -3    9.12    1.47
 -18   9  -3    8.28    1.17
  -9 -18   3    8.92    1.15
  -9 -18  -3    9.14    1.62
  -9 -18  -3    8.71    1.37
 -18   9  -5   31.89    1.73
 -18   9  -5   30.67    1.90
  -8 -18   0   16.43    1.08
 -18   8   0   16.86    1.37
 -18   8   0   13.69    1.22
 -18   8   0   16.60    1.56
  -8 -18   0   16.15    1.52
  -8 -18   0   17.62    1.53
 -18   8   2  138.95    4.56
 -18   8   2  145.02    4.80
  -8 -18  -2  151.72    4.56
 -18   8  -2  142.49    4.82
 -18   8  -2  140.61    4.71
  -8 -18   2  146.18    4.56
  -8 -18  -2  149.20    5.02
  -8 -18   2  155.30    5.09
  -8 -18  -2  135.08    5.01
 -18   8  -2  152.30    5.03
 -18   8  -2  143.00    4.78
 -18   8  -4   38.24    2.01
 -18   8  -4   39.71    1.87
 -18   8  -4   40.31    2.24
 -18   8  -4   31.17    1.74
  -8 -18  -4   31.31    1.61
  -8 -18  -4   37.75    1.61
 -18   8  -4   37.85    2.32
 -18   8  -6    4.19    1.10
 -18   8  -6    2.34    0.73
  -8 -18  -6    1.85    0.84
 -18   7  -1    4.82    1.24
  -7 -18  -1    5.58    1.36
  -7 -18   1    5.87    0.82
 -18   7  -1    5.24    1.09
 -18   7   1    4.75    1.18
 -18   7  -1    4.77    1.16
 -18   7   1    8.20    1.54
 -18   7  -1    5.60    1.33
  -7 -18  -1    6.03    1.33
  -7 -18   1    7.19    1.35
  -7 -18  -1    5.89    0.93
  -7 -18   1    4.49    1.32
 -18   7  -3   45.81    2.05
 -18   7   3   44.13    2.19
 -18   7  -3   46.61    2.27
 -18   7  -3   46.87    2.07
 -18   7  -3   46.48    2.14
  -7 -18  -3   42.61    2.35
  -7 -18   3   42.65    2.00
  -7 -18  -3   47.15    1.87
  -7 -18   3   44.28    2.10
  -7 -18  -3   42.96    2.10
 -18   7  -3   42.20    2.48
 -18   7  -5   69.73    2.71
 -18   7  -5   65.37    2.53
 -18   7  -5   71.61    2.84
 -18   6   0    4.96    1.47
  -6 -18   0    4.25    0.83
 -18   6   0    5.35    1.18
 -18   6   0    5.38    1.43
  -6 -18   0    4.18    1.27
  -6 -18   0    4.19    1.19
 -18   6   2  134.56    4.40
 -18   6  -2  121.51    4.33
 -18   6  -2  123.47    4.30
 -18   6  -2  138.30    4.43
  -6 -18  -2  129.71    4.49
  -6 -18  -2  129.16    4.15
 -18   6  -2  130.99    4.51
  -6 -18   2  126.84    4.14
 -18   6  -4    6.77    1.37
 -18   6  -4    7.62    1.35
 -18   6  -4    6.46    1.22
  -6 -18  -4    6.66    0.98
  -6 -18  -4    5.63    1.05
 -18   6  -4    6.28    1.68
 -18   6  -6   -0.18    1.16
 -18   6  -6    1.25    0.89
 -18   6  -6    0.07    0.87
  -6 -18  -6    0.02    0.88
 -18   5  -1   38.94    2.01
  -5 -18   1   35.91    1.61
 -18   5   1   36.77    1.92
 -18   5  -1   29.46    1.64
 -18   5  -1   35.76    1.86
  -5 -18   1   35.18    1.94
 -18   5   1   36.69    2.14
  -5 -18  -1   37.48    1.93
  -5 -18  -1   34.97    1.65
 -18   5  -1   29.67    1.98
 -18   5   1   35.99    2.06
 -18   5  -1   33.55    1.84
 -18   5  -1   33.87    1.98
 -18   5   1   38.85    1.95
 -18   5  -3    4.03    1.53
  -5 -18   3    5.37    1.30
  -5 -18  -3    5.22    1.28
  -5 -18   3    5.67    0.94
 -18   5  -3    3.84    1.13
 -18   5  -3    5.88    1.40
 -18   5   3    6.98    1.40
 -18   5  -3    5.97    1.25
 -18   5  -3    5.95    1.39
  -5 -18  -3    6.69    1.14
 -18   5  -5    1.50    1.33
 -18   5  -5    1.90    1.15
 -18   5  -5    2.98    1.28
  -5 -18  -5    2.16    0.99
 -18   5  -5    2.45    1.56
 -18   5  -7   13.83    0.78
  -5 -18   7   13.20    0.73
 -18   4   0   97.59    3.56
 -18   4   0  100.48    3.47
  -4 -18   0   98.08    3.49
  -4 -18   0   93.32    3.53
 -18   4   0   91.50    3.52
 -18   4   2  176.45    5.37
 -18   4  -2  154.14    5.24
 -18   4  -2  171.57    5.27
 -18   4  -2  166.78    5.33
  -4 -18  -2  158.40    5.38
  -4 -18  -2  158.98    5.09
 -18   4  -2  167.90    5.32
 -18   4   2  169.27    5.38
 -18   4  -2  158.54    5.31
  -4 -18   2  155.83    5.09
 -18   4  -2  152.23    5.27
 -18   4   2  170.07    5.33
 -18   4  -4   16.97    1.55
 -18   4  -4   14.41    1.47
 -18   4  -4   13.37    1.61
  -4 -18  -4   12.80    1.28
 -18   4  -4   13.28    1.74
 -18   4  -6    7.54    1.32
 -18   4  -6    8.15    1.10
 -18   4  -6    7.78    1.18
  -4 -18  -6    5.32    0.92
  -4 -18  -6    9.13    0.95
  -3 -18   1   71.28    2.53
 -18   3  -1   57.57    2.47
 -18   3   1   71.13    2.75
 -18   3  -1   69.60    2.70
 -18   3  -1   70.34    2.81
 -18   3   1   76.46    2.98
  -3 -18  -1   68.84    2.70
  -3 -18  -1   66.47    2.52
  -3 -18   1   67.52    2.86
  -3 -18  -1   69.51    2.83
 -18   3  -1   62.73    2.76
 -18   3   1   67.98    2.80
 -18   3  -1   69.27    2.78
 -18   3   1   71.16    2.84
  -3 -18   1   68.81    2.75
 -18   3   3   37.30    1.81
 -18   3  -3   39.29    2.06
 -18   3  -3   35.29    1.82
 -18   3   3   37.20    2.08
 -18   3  -3   36.28    1.94
  -3 -18  -3   31.94    1.97
  -3 -18  -3   34.38    1.79
 -18   3  -3   31.68    1.74
 -18   3  -3   37.04    2.11
  -3 -18   3   36.16    1.69
 -18   3  -3   31.66    1.73
 -18   3  -5   19.20    1.69
 -18   3  -5   19.47    1.55
 -18   3  -5   18.99    1.63
  -3 -18  -5   16.97    1.35
 -18   3  -5   19.52    1.91
 -18   3  -7   31.62    1.37
  -3 -18  -7   33.60    1.25
 -18   2   0  259.54    8.02
 -18   2   0  268.74    8.13
  -2 -18   0  269.37    8.15
  -2 -18   0  251.16    8.03
 -18   2   0  268.60    8.09
 -18   2  -2  140.81    5.16
 -18   2   2  172.12    5.33
 -18   2  -2  164.75    5.24
  -2 -18  -2  159.22    5.28
  -2 -18  -2  159.92    5.09
 -18   2  -2  165.71    5.26
 -18   2  -2  161.36    5.30
 -18   2   2  165.03    5.26
 -18   2  -2  158.73    5.22
 -18   2  -2  162.41    5.26
 -18   2   2  167.47    5.26
  -2 -18   2  161.64    5.09
 -18   2  -4   17.55    1.60
 -18   2  -4   16.76    1.55
 -18   2  -4   16.44    1.76
  -2 -18  -4   17.74    1.45
 -18   2  -4   16.41    1.77
 -18   2  -6   39.39    1.69
 -18   2  -6   35.75    1.74
  -2 -18  -6   37.34    1.50
  -1 -18   1  133.81    4.27
 -18   1   1  132.61    4.40
 -18   1  -1  131.45    4.39
 -18   1   1  137.59    4.48
  -1 -18   1  133.97    4.47
  -1 -18  -1  132.55    4.36
  -1 -18  -1  117.88    4.19
  -1 -18   1  130.63    4.52
 -18   1  -1  123.80    4.44
  -1 -18  -1  129.81    4.46
 -18   1  -1  133.63    4.46
 -18   1   1  138.84    4.46
 -18   1  -3   38.59    1.89
 -18   1   3   38.94    2.13
 -18   1  -3   36.79    1.98
  -1 -18  -3   32.05    1.86
 -18   1  -3   35.08    1.79
 -18   1   3   39.77    1.84
 -18   1  -3   36.56    2.08
  -1 -18   3   35.81    1.75
  -1 -18  -3   40.74    1.92
 -18   1  -3   34.48    1.77
 -18   1   3   38.80    1.79
 -18   1  -5   66.96    2.80
 -18   1  -5   64.45    2.69
  -1 -18  -5   66.50    2.58
 -18   1  -5   63.06    2.97
 -18   1  -7   18.53    1.06
  -1 -18  -7   21.22    0.99
   0 -18   0  151.83    5.05
   0 -18   0  159.77    5.20
 -18   0   0  157.82    5.13
 -18   0  -2    1.36    1.16
 -18   0   2    1.83    1.12
   0  18   2    1.62    0.66
   0 -18   2    2.39    0.93
   0 -18  -2    1.77    0.96
 -18   0  -2    1.42    1.19
   0 -18  -2    2.06    1.14
 -18   0   2    2.86    1.18
 -18   0  -2    0.74    1.14
 -18   0  -4   12.56    1.52
   0 -18  -4    9.69    1.15
   0 -18  -4   14.03    1.45
 -18   0  -4   12.84    1.74
 -18   0  -6    8.94    1.54
   0 -18  -6   13.08    1.21
   1 -18   1    7.73    1.01
 -18  -1  -1    5.62    1.29
 -18  -1   1    7.09    1.25
 -18  -1  -1    9.47    1.56
 -18  -1   1    7.43    1.58
   1 -18  -1    6.32    0.97
   1 -18   1    7.84    1.30
   1 -18  -1    7.08    1.17
 -18  -1  -1    7.44    1.33
 -18  -1   1    7.10    1.27
 -18  -1  -3   28.56    1.73
  -1  18   3   28.38    1.38
 -18  -1  -3   35.30    2.09
 -18  -1  -3   28.50    1.63
 -18  -1   3   30.36    1.61
 -18  -1  -3   28.73    1.90
   1 -18   3   31.45    1.62
 -18  -1  -3   26.97    1.61
 -18  -1   3   32.24    1.58
 -18  -1  -5   14.07    1.67
 -18  -1  -5   14.13    1.64
 -18  -1  -5   12.37    1.86
 -18  -1  -7    7.28    0.85
 -18  -2   0  272.33    8.21
 -18  -2   0  269.88    8.30
   2 -18   0  263.50    8.28
 -18  -2   0  266.34    8.25
 -18  -2   0  273.50    8.24
 -18  -2  -2    6.89    1.25
 -18  -2   2    7.72    1.20
 -18  -2   2    5.03    1.36
 -18  -2  -2    6.50    1.38
 -18  -2  -2    8.09    1.56
   2 -18  -2    7.24    1.15
 -18  -2  -2    5.64    1.24
 -18  -2   2    8.26    1.23
 -18  -2  -2    7.81    1.29
 -18  -2  -4  110.70    4.08
  -2  18   4  107.96    3.69
 -18  -2  -4  120.37    4.08
 -18  -2  -4  124.14    4.21
 -18  -2  -4  125.77    4.31
 -18  -2  -6    0.83    1.08
 -18  -2  -6    0.53    1.18
   3 -18   1  692.68   19.57
 -18  -3   1  666.58   19.60
 -18  -3  -1  663.86   19.61
 -18  -3  -1  700.29   19.68
 -18  -3   1  660.79   19.69
   3 -18  -1  654.00   19.48
   3 -18  -1  682.50   19.67
 -18  -3  -1  709.85   19.68
 -18  -3   1  672.77   19.62
 -18  -3  -1  712.56   19.68
 -18  -3   1  664.13   19.60
 -18  -3  -3   81.78    3.50
  -3  18   3  101.41    3.35
 -18  -3   3   98.21    3.68
 -18  -3  -3  108.15    3.67
 -18  -3  -3  112.22    3.76
   3 -18  -3   99.16    3.56
 -18  -3  -3   92.64    3.43
 -18  -3   3  100.91    3.41
 -18  -3  -3  106.15    3.72
   3 -18   3   98.60    3.44
 -18  -3  -3   93.99    3.41
 -18  -3   3   96.04    3.38
 -18  -3  -5    0.52    1.26
 -18  -3  -5    2.44    1.44
   3 -18  -5    0.45    1.23
 -18  -3  -5    1.26    1.74
 -18  -3  -7    6.57    0.73
   3 -18  -7    7.02    0.67
 -18  -4   0  252.39    7.47
 -18  -4   0  254.23    7.57
   4 -18   0  239.87    7.51
 -18  -4   0  229.02    7.46
 -18  -4   0  237.35    7.44
 -18  -4   2  507.08   14.99
 -18  -4  -2  495.12   15.00
 -18  -4  -2  546.69   15.09
   4 -18  -2  531.38   14.93
 -18  -4  -2  509.88   15.00
 -18  -4   2  510.08   14.96
   4 -18  -2  481.43   14.97
 -18  -4  -2  487.68   14.98
 -18  -4  -2  550.52   15.05
 -18  -4   2  505.70   14.95
   4 -18   2  522.27   14.95
  -4  18   4   17.04    1.22
 -18  -4  -4   15.91    1.57
 -18  -4  -4   14.65    1.69
 -18  -4  -4   15.31    1.88
   4 -18  -4   15.47    1.52
   4 -18  -6   45.83    1.73
 -18  -4  -6   38.07    1.74
 -18  -5  -1    2.58    1.22
 -18  -5   1    3.07    1.08
   5 -18   1    3.33    0.95
 -18  -5  -1    3.97    1.44
 -18  -5   1    3.11    1.22
 -18  -5  -1    3.68    1.20
 -18  -5   1    3.08    1.56
   5 -18  -1    3.48    1.16
 -18  -5  -1    3.85    1.22
 -18  -5   1    2.59    1.17
  -5  18   3   58.37    2.30
 -18  -5   3   56.51    2.50
 -18  -5  -3   55.52    2.47
 -18  -5  -3   59.86    2.61
   5 -18  -3   65.81    2.49
 -18  -5  -3   51.79    2.31
 -18  -5   3   55.01    2.24
 -18  -5  -3   56.19    2.67
   5 -18   3   57.43    2.32
 -18  -5  -3   54.68    2.30
 -18  -5   3   53.32    2.23
 -18  -5  -5    9.73    1.31
 -18  -5  -5   10.00    1.44
   5 -18  -5   12.15    1.33
 -18  -5  -7    1.68    0.50
   5 -18   7    2.51    0.38
   5 -18  -7    3.12    0.50
   6 -18   0   93.04    3.19
 -18  -6   0   84.86    3.20
 -18  -6   0   93.40    3.40
 -18  -6   0   85.74    3.29
 -18  -6   0   84.88    3.28
 -18  -6  -2    5.79    1.24
 -18  -6   2    5.60    1.13
   6 -18   2    5.83    1.04
 -18  -6  -2    6.51    1.52
 -18  -6   2    6.09    1.26
 -18  -6  -2    6.44    1.31
 -18  -6  -2    5.37    1.23
 -18  -6   2    6.04    1.10
   6 -18  -2    5.23    1.27
  -6  18   4   18.16    1.30
  -6  18  -4   15.57    1.17
 -18  -6  -4   15.22    1.46
 -18  -6  -4   13.60    1.59
   6 -18  -4   18.74    1.52
 -18  -6  -6    0.25    0.82
 -18  -6  -6    0.79    0.90
   6 -18  -6    1.55    0.89
 -18  -7  -1    7.50    1.30
 -18  -7   1    6.73    1.28
 -18  -7   1    5.22    1.53
   7 -18   1    7.46    0.99
 -18  -7   1    6.96    1.20
 -18  -7  -1    6.08    1.19
 -18  -7  -1    5.91    1.43
   7 -18  -1    4.31    1.17
 -18  -7  -1    6.08    1.31
 -18  -7   1    7.58    1.28
  -7  18   3   20.81    1.44
 -18  -7   3   18.68    1.66
 -18  -7  -3   19.34    1.54
 -18  -7  -3   21.49    1.71
   7 -18  -3   22.40    1.54
 -18  -7  -3   20.20    1.40
 -18  -7   3   18.90    1.29
   7 -18   3   21.89    1.38
 -18  -7  -3   18.67    1.38
 -18  -7   3   18.43    1.28
 -18  -7  -5    5.72    1.07
 -18  -7  -5    5.74    1.23
   7 -18  -5    5.76    1.10
 -18  -8   0    0.41    1.27
   8 -18   0    0.24    0.87
 -18  -8   0    0.27    1.07
 -18  -8   0    1.78    1.30
 -18  -8   0    0.33    1.24
 -18  -8  -2    9.28    1.28
 -18  -8   2   10.30    1.27
 -18  -8  -2    9.10    1.31
 -18  -8  -2   10.39    1.47
 -18  -8  -2    7.56    1.06
 -18  -8   2    9.50    1.24
   8 -18  -2   10.17    1.26
 -18  -8  -2    8.35    1.28
 -18  -8   2   11.76    1.25
   8 -18   2   10.28    1.06
  -8  18   4   32.86    1.70
  -8  18  -4   33.14    1.62
   8 -18  -4   37.01    1.72
 -18  -8  -6   10.55    0.82
   8 -18  -6   11.79    0.84
  -8  18  -6   11.02    0.82
   9 -18   1  148.43    4.69
 -18  -9   1  140.74    4.66
 -18  -9  -1  136.83    4.67
 -18  -9  -1  140.59    4.76
 -18  -9  -1  148.97    4.86
 -18  -9   1  146.31    4.78
 -18  -9  -1  144.82    4.84
 -18  -9   1  153.32    4.83
  -9  18   3   72.56    2.74
 -18  -9  -3   67.45    2.65
  -9  18  -3   73.36    2.89
 -18  -9  -3   60.94    2.72
 -18  -9  -3   67.79    2.68
 -18  -9   3   71.19    2.58
 -18  -9  -3   65.86    2.63
 -18  -9   3   67.19    2.54
  -9  18   5    6.20    0.95
  -9  18  -5    4.62    0.81
 -18  -9  -5    4.98    0.89
   9 -18  -5    6.35    0.93
  10 -18   0  132.22    3.93
 -18 -10   0  117.75    3.86
 -18 -10   0  121.72    4.08
 -18 -10   0  123.26    4.09
 -18 -10   2   10.50    1.13
 -18 -10  -2    8.65    1.13
  10 -18  -2   11.39    1.16
 -18 -10  -2    7.83    1.27
 -18 -10  -2    8.26    1.14
 -18 -10   2   10.66    1.22
 -18 -10  -2    9.68    1.33
  10 -18   2   10.66    0.98
 -18 -10  -2    7.85    1.36
 -18 -10   2   10.92    1.26
 -10  18   4    1.49    1.08
 -10  18  -4    1.99    1.05
 -18 -10  -4   -0.22    0.87
  10 -18  -4   -0.06    0.94
 -10  18  -6    8.82    0.94
 -10  18  -6    5.65    0.66
 -18 -11  -1    7.21    1.37
 -18 -11   1    6.51    1.31
  11 -18   1    6.44    0.88
  11 -18  -1    6.17    0.89
 -18 -11  -1    6.24    1.00
 -18 -11  -1    9.05    1.40
 -18 -11   1    6.45    1.26
 -18 -11  -3    0.49    0.88
 -18 -11   3    1.37    0.85
 -11  18   3    2.13    1.20
 -11  18  -3    1.48    1.28
 -18 -11  -3    0.32    0.83
 -18 -11  -3    1.00    1.05
  11 -18  -3    0.77    0.87
 -18 -11  -3    0.66    1.00
 -18 -11   3    0.94    0.80
 -11  18  -5   36.78    1.49
 -11  18  -5   38.44    1.95
  12 -18   0   36.29    1.62
 -18 -12   0   44.05    2.14
 -18 -12   0   40.13    1.81
 -18 -12   0   42.03    2.12
  12 -18  -2   38.03    1.69
 -18 -12  -2   40.44    1.96
 -18 -12  -2   47.96    2.11
 -18 -12   2   44.90    1.98
 -18 -12  -2   48.44    2.09
 -18 -12   2   40.67    1.97
 -12  18  -4    4.52    1.03
 -18 -12  -4    3.02    1.01
 -12  18  -6    0.51    0.69
 -12  18  -6   -0.03    0.40
 -18 -13  -1   10.21    1.17
 -18 -13  -1   13.91    1.52
 -18 -13   1   12.87    1.38
 -18 -13  -1   15.34    1.47
 -18 -13   1   13.60    1.45
 -18 -13  -3    4.81    0.92
 -13  18  -3    5.19    1.33
 -18 -13  -3    5.36    1.14
 -18 -13  -3    5.71    1.01
 -13  18  -5   97.59    3.34
 -18 -14   0   22.02    1.42
 -18 -14   0   22.99    1.71
 -18 -14   0   24.90    1.70
 -18 -14  -2    0.31    1.06
 -18 -14   2    0.56    0.95
 -14  18   2    1.49    1.15
 -18 -14  -2    1.50    1.09
 -18 -14  -2    1.56    0.99
 -18 -14   2    1.38    0.97
 -14  18   4    3.37    0.88
 -14  18  -4    3.09    1.00
 -18 -14  -4    0.86    0.86
 -18 -15  -1    8.67    1.31
 -18 -15   1    8.51    1.26
 -15  18  -1    8.00    1.57
 -18 -15  -1    6.93    1.09
 -18 -15  -1   11.55    1.37
 -18 -15   1    9.69    1.28
 -15  18   3   24.08    1.38
 -15  18  -3   24.58    1.57
 -18 -15  -3   16.92    1.30
 -18 -15  -3   19.13    1.20
 -18 -15  -3   16.94    1.13
 -15  18  -5    9.20    0.86
 -15  18  -5    8.14    0.92
 -18 -16   0   39.00    1.88
 -18 -16   0   44.55    2.04
 -18 -16   0   40.06    2.00
 -16  18   2   46.28    1.91
 -18 -16  -2   41.93    1.94
 -18 -16  -2   46.57    1.93
 -18 -16   2   38.43    1.84
 -18 -16  -2   44.20    1.92
 -18 -16   2   43.88    1.91
 -16  18   4   27.39    1.23
 -16  18  -4   30.06    1.44
 -16  18  -4   31.31    1.71
 -18 -17  -1   21.88    1.43
 -17  18  -1   23.28    1.57
 -18 -17  -1   20.60    1.44
 -18 -17   1   22.97    1.47
 -18 -17  -1   22.89    1.45
 -18 -17   1   24.05    1.49
 -17  18   3   12.59    0.94
 -18 -17  -3    9.00    0.97
 -18 -17  -3    9.60    0.84
 -17  18  -3   12.78    1.54
 -18 -17  -3    8.03    0.74
 -18  18   0   10.75    1.17
 -18 -18   0   10.22    1.08
 -18 -18   0   11.16    1.21
 -18 -18   0   12.05    1.23
 -18  18   2   19.75    1.10
 -18  18  -2   21.12    1.34
 -18 -18  -2   15.82    1.16
 -18 -18  -2   16.96    1.13
 -18 -18  -2   16.72    1.13
 -18 -18   2   15.74    1.10
 -18  18  -4   13.86    0.92
 -18 -19  -1    3.63    0.87
 -18 -19   1    2.19    0.88
 -19  18   1    1.33    0.70
 -19  18  -1    2.01    0.89
 -18 -19  -1    2.82    0.86
 -18 -19  -1    2.91    0.92
 -18 -19   1    2.54    0.82
 -19  18   3   52.30    1.84
 -19  18  -3   70.29    2.12
 -17 -19   0   -0.92    1.03
 -19  17   0    1.42    0.89
 -17 -19   0    0.83    0.94
 -17 -19   0    0.09    1.01
 -17 -19  -2    1.49    0.76
 -17 -19   2    1.71    0.78
 -19  17   2    1.98    0.70
 -19  17  -2    1.56    0.98
 -17 -19  -2    1.25    0.91
 -17 -19  -2    1.59    0.81
 -17 -19  -4    3.01    0.52
 -19  17  -4    3.86    0.69
 -19  16  -1   34.98    1.75
 -16 -19  -1   35.30    1.77
 -16 -19   1   34.54    1.71
 -16 -19  -1   38.28    1.88
 -16 -19  -1   38.73    1.76
 -16 -19   1   35.60    1.78
 -19  16  -3   -0.38    1.10
 -16 -19  -3    0.60    0.56
 -19  16   3   -0.68    0.63
 -19  16  -3   -1.28    1.03
 -16 -19  -3   -0.84    0.86
 -16 -19  -3   -0.87    0.65
 -15 -19   0    0.97    1.31
 -19  15   0   -0.18    0.95
 -15 -19   0    0.71    1.21
 -15 -19   0   -0.82    1.27
 -19  15   2   50.23    1.91
 -19  15  -2   54.97    2.19
 -15 -19  -2   51.80    2.26
 -15 -19  -2   49.09    2.08
 -15 -19  -2   48.96    2.06
 -15 -19   2   48.73    2.03
 -15 -19  -4   -0.06    0.75
 -19  15  -4    1.09    1.01
 -14 -19  -1    5.16    1.28
 -14 -19   1    4.04    1.28
 -19  14   1    4.40    0.85
 -19  14  -1    4.73    1.26
 -14 -19   1    3.97    1.33
 -14 -19  -1    4.12    1.34
 -14 -19  -1    3.51    1.10
 -14 -19  -1    4.48    1.38
 -14 -19   1    5.28    1.27
 -19  14   3   13.36    0.97
 -19  14  -3   16.95    1.46
 -14 -19  -3   12.32    1.32
 -14 -19  -3   12.35    1.05
 -14 -19  -3   12.30    1.17
 -14 -19  -3   12.11    0.96
 -19  14  -3   15.38    1.55
 -14 -19  -5   19.52    1.04
 -19  14  -5   27.22    1.17
 -13 -19   0    0.65    1.46
 -19  13   0    1.12    1.05
 -13 -19   0    1.57    1.17
 -13 -19   0    0.08    1.45
 -13 -19   0   -1.31    1.30
 -19  13  -2    1.52    1.37
 -13 -19  -2    0.71    1.13
 -13 -19   2    0.88    1.11
 -19  13   2    1.74    0.84
 -19  13  -2    0.57    1.22
 -13 -19  -2    0.23    1.29
 -13 -19  -2    1.76    1.18
 -13 -19   2    2.14    1.12
 -13 -19  -2    2.02    1.08
 -19  13  -4    9.86    1.39
 -13 -19  -4   10.03    1.08
 -19  13  -4   11.86    1.36
 -12 -19  -1    8.08    1.51
 -12 -19   1    7.29    1.51
 -19  12   1    8.08    0.97
 -19  12  -1    7.39    1.30
 -12 -19  -1    6.87    1.42
 -12 -19   1    7.91    1.54
 -12 -19  -1    9.48    1.70
 -12 -19   1    6.76    1.52
 -12 -19  -1    8.56    1.33
 -19  12   3   90.27    3.09
 -19  12  -3  106.65    3.50
 -12 -19  -3   88.58    3.23
 -12 -19  -3   97.61    3.45
 -12 -19  -3   84.39    3.16
 -19  12  -3  104.11    3.56
 -12 -19  -5   16.86    1.15
 -12 -19  -5   14.92    1.10
 -11 -19   0    0.03    1.56
 -19  11   0    0.25    1.01
 -11 -19   0   -0.96    1.35
 -11 -19   0    0.03    1.57
 -11 -19   0    0.15    1.22
 -19  11   2   63.36    2.55
 -19  11  -2   77.74    2.93
 -19  11  -2   64.44    2.62
 -11 -19  -2   78.80    3.07
 -11 -19   2   82.65    2.99
 -11 -19  -2   86.80    3.09
 -11 -19  -2   68.28    2.89
 -11 -19   2   80.04    2.97
 -19  11  -2   80.49    3.06
 -19  11  -4   32.02    1.93
 -11 -19  -4   30.19    1.86
 -19  11  -4   35.11    1.97
 -11 -19  -6   21.54    0.92
 -11 -19  -6   20.99    0.96
 -19  10   1   17.20    1.12
 -19  10   1   15.80    1.29
 -19  10  -1   16.73    1.27
 -19  10  -1   17.85    1.44
 -10 -19   1   16.35    1.68
 -19  10  -1   16.23    1.40
 -10 -19   1   17.75    1.86
 -10 -19   1   19.70    1.68
 -10 -19  -1   20.00    1.61
 -10 -19   1   18.75    1.88
 -10 -19  -1   18.09    1.85
 -19  10  -1   15.68    1.44
 -19  10   3   27.45    1.40
 -19  10  -3   34.92    1.94
 -10 -19  -3   33.01    1.99
 -10 -19  -3   29.86    1.72
 -19  10  -3   28.38    1.60
 -10 -19  -3   29.30    1.58
 -10 -19   3   29.54    1.59
 -19  10  -3   32.55    2.07
 -10 -19  -5    0.48    0.95
 -19  10  -5    1.09    1.16
  -9 -19   0   -0.60    0.69
 -19   9   0    0.33    0.93
 -19   9   0    1.14    1.06
 -19   9   0    1.59    1.27
  -9 -19   0    0.85    1.26
 -19   9   2   50.39    2.09
 -19   9   2   54.94    2.39
 -19   9  -2   59.31    2.48
 -19   9  -2   54.10    2.30
 -19   9  -2   58.10    2.41
  -9 -19  -2   58.51    2.62
  -9 -19   2   57.64    2.60
  -9 -19  -2   56.90    2.62
  -9 -19   2   61.13    2.68
  -9 -19  -2   56.02    2.61
  -9 -19   2   58.96    2.08
 -19   9  -2   60.37    2.61
 -19   9  -4   20.51    1.38
  -9 -19  -4   19.48    1.67
 -19   9  -4   22.76    1.81
  -9 -19  -6   21.26    1.04
  -8 -19  -1   39.46    1.77
 -19   8   1   41.51    2.02
 -19   8  -1   39.02    1.98
 -19   8  -1   39.16    1.94
 -19   8  -1   45.78    2.18
  -8 -19  -1   42.91    2.24
  -8 -19   1   45.04    2.28
  -8 -19  -1   44.20    2.22
  -8 -19   1   40.00    2.54
  -8 -19  -1   44.90    2.54
 -19   8  -1   42.54    2.05
  -8 -19   1   44.79    1.77
 -19   8   3   17.30    1.14
 -19   8  -3   23.26    1.72
 -19   8  -3   22.41    1.50
  -8 -19  -3   24.53    1.82
  -8 -19  -3   25.02    1.30
  -8 -19  -3   24.79    1.68
  -8 -19   3   23.66    1.45
 -19   8  -3   24.67    1.62
  -8 -19   3   21.79    1.50
  -8 -19  -3   19.90    1.47
 -19   8  -3   24.60    1.92
 -19   8  -5   18.31    1.41
 -19   8  -5   15.85    1.20
  -8 -19  -5   12.97    1.29
 -19   8  -5   16.07    1.53
  -7 -19   0   -0.20    0.74
 -19   7   0    1.24    1.41
 -19   7   0    0.45    0.84
 -19   7   0   -0.82    1.16
  -7 -19   0   -0.15    1.23
  -7 -19   0   -0.18    1.24
  -7 -19   2    3.91    1.60
  -7 -19  -2    4.72    1.51
 -19   7  -2    4.81    1.39
  -7 -19   2    4.83    0.81
  -7 -19  -2    6.64    1.41
 -19   7  -2    4.05    1.25
 -19   7   2    6.14    1.29
 -19   7  -2    5.11    1.20
 -19   7  -2    5.40    1.35
  -7 -19  -2    5.26    0.99
 -19   7  -4    7.44    1.26
 -19   7  -4    8.12    1.20
 -19   7  -4    7.39    1.26
  -7 -19  -4    8.46    0.99
  -7 -19  -4    6.70    1.37
  -7 -19  -4    5.30    0.92
 -19   7  -4    8.55    1.55
 -19   7  -6   37.73    1.61
 -19   7  -6   36.93    1.38
  -6 -19  -1    0.03    1.20
 -19   6  -1   -0.03    1.39
 -19   6   1    0.06    1.45
  -6 -19   1    0.56    0.77
 -19   6  -1    0.84    0.93
 -19   6   1    0.07    1.22
 -19   6  -1    0.55    1.14
  -6 -19   1    0.34    1.27
 -19   6   1    0.81    1.51
 -19   6  -1    0.03    1.37
  -6 -19   1   -0.13    1.31
 -19   6  -3  130.08    4.49
 -19   6   3  142.03    4.67
 -19   6  -3  142.72    4.76
 -19   6  -3  135.95    4.57
 -19   6  -3  138.23    4.63
  -6 -19  -3  125.77    4.71
  -6 -19  -3  149.10    4.43
  -6 -19   3  138.90    4.67
  -6 -19  -3  127.90    4.62
 -19   6  -3  145.28    4.75
 -19   6  -5   -0.55    1.21
 -19   6  -5    0.49    0.99
 -19   6  -5    0.33    1.09
  -6 -19  -5    0.80    1.05
  -6 -19  -5    0.08    0.86
 -19   6  -5    1.26    1.43
 -19   5   0   -0.22    1.46
  -5 -19   0    0.09    0.81
 -19   5   0   -0.58    1.22
  -5 -19   0    2.35    1.23
 -19   5   0    0.40    1.43
 -19   5  -2  115.13    4.36
 -19   5   2  122.18    4.39
 -19   5   2  133.80    4.39
 -19   5  -2  120.22    4.29
 -19   5  -2  128.05    4.32
 -19   5  -2  136.54    4.43
  -5 -19  -2  129.30    4.47
  -5 -19  -2  126.65    4.16
 -19   5  -2  134.60    4.38
  -5 -19   2  129.90    4.15
 -19   5  -4    5.43    1.22
 -19   5  -4    6.35    1.27
 -19   5  -4    8.32    1.39
  -5 -19  -4    6.09    1.30
  -5 -19  -4    5.06    0.97
  -5 -19  -4    6.30    1.07
 -19   5  -4    5.78    1.51
 -19   5  -6    5.39    1.13
 -19   5  -6    5.59    0.90
 -19   5  -6    5.94    0.94
  -5 -19  -6    2.96    0.71
  -4 -19   1   33.16    1.61
  -4 -19  -1   32.74    1.66
 -19   4  -1   28.18    1.62
 -19   4   1   36.28    1.93
 -19   4  -1   32.37    1.87
  -4 -19   1   35.42    1.95
 -19   4  -1   33.96    2.01
 -19   4   1   36.37    2.22
  -4 -19  -1   32.06    1.82
  -4 -19  -1   34.68    1.97
 -19   4  -1   33.14    2.02
 -19   4   1   32.63    2.05
 -19   4  -1   32.94    1.99
 -19   4   1   31.45    2.00
  -4 -19   3    0.63    0.85
 -19   4  -3   -0.13    1.04
 -19   4   3   -0.55    1.34
 -19   4  -3    0.36    1.24
 -19   4  -3   -0.62    1.41
  -4 -19  -3    0.80    1.21
  -4 -19  -3    0.26    1.09
 -19   4  -3    1.37    1.35
 -19   4  -5   24.34    1.64
 -19   4  -5   23.51    1.54
 -19   4  -5   22.98    1.60
  -4 -19  -5   24.06    1.38
 -19   4  -5   24.85    1.87
  -4 -19   7    1.25    0.40
 -19   3   0    1.76    1.39
  -3 -19   0    0.40    0.84
 -19   3   0    0.22    1.22
  -3 -19   0    0.40    1.04
 -19   3   0   -0.78    1.52
  -3 -19   0    0.95    1.23
 -19   3  -2  669.15   21.32
 -19   3   2  796.05   21.43
 -19   3  -2  761.17   21.36
 -19   3  -2  750.00   21.41
  -3 -19  -2  734.96   21.43
  -3 -19  -2  706.53   21.20
 -19   3  -2  723.20   21.36
 -19   3   2  747.50   21.40
 -19   3  -2  765.44   21.35
  -3 -19   2  758.24   21.29
 -19   3  -2  733.14   21.39
 -19   3   2  762.58   21.38
 -19   3  -4    1.52    1.20
 -19   3  -4    0.52    1.28
 -19   3  -4   -0.05    1.36
  -3 -19  -4   -0.11    1.06
  -3 -19  -4    0.07    1.11
 -19   3  -4    0.81    1.46
 -19   3  -6   24.71    1.53
 -19   3  -6   28.60    1.40
 -19   3  -6   28.35    1.42
  -3 -19  -6   28.88    1.24
 -19   2  -1   28.82    1.97
  -2 -19   1   28.70    1.53
 -19   2   1   26.86    1.81
  -2 -19  -1   25.05    1.56
 -19   2  -1   32.06    1.82
  -2 -19   1   28.19    1.73
 -19   2   1   34.48    2.24
  -2 -19   1   27.07    1.88
  -2 -19  -1   30.08    1.86
 -19   2  -1   29.00    1.92
 -19   2   1   30.65    1.94
  -2 -19  -1   27.19    1.67
 -19   2  -1   30.59    1.92
 -19   2   1   28.56    1.81
 -19   2  -3   72.15    2.75
 -19   2   3   74.81    3.05
 -19   2  -3   76.92    2.94
 -19   2  -3   76.73    3.02
  -2 -19  -3   71.11    2.87
  -2 -19  -3   69.38    2.79
 -19   2  -3   69.60    2.75
 -19   2  -3   78.68    2.97
  -2 -19   3   71.62    2.71
 -19   2  -3   75.32    2.78
 -19   2   3   70.17    2.72
 -19   2  -5   10.43    1.43
 -19   2  -5   10.98    1.40
 -19   2  -5   10.87    1.52
  -2 -19  -5    8.08    1.04
  -2 -19  -5   12.34    1.22
 -19   2  -5   10.74    1.66
 -19   2  -7    7.85    0.66
 -19   2  -7    7.94    0.65
  -2 -19  -7    7.00    0.54
 -19   1   0    0.61    1.32
 -19   1   0    0.75    1.32
  -1 -19   0    0.27    1.01
  -1 -19   0   -0.43    1.17
 -19   1  -2    1.11    1.22
 -19   1   2    1.09    1.17
  -1 -19   2    0.68    0.88
 -19   1   2    0.68    1.35
 -19   1  -2    1.41    1.32
  -1 -19  -2   -0.84    1.04
  -1 -19  -2    0.16    1.18
  -1 -19  -2    0.81    1.15
 -19   1  -2    0.50    1.23
 -19   1   2    1.39    1.20
 -19   1  -2    0.96    1.12
 -19   1  -4  112.46    3.91
 -19   1  -4  116.07    3.98
  -1 -19  -4  129.85    3.90
 -19   1  -4  123.60    4.14
 -19   1  -6    0.60    1.01
  -1 -19  -6   -0.26    0.89
 -19   0  -1    1.70    1.30
 -19   0   1    1.26    1.31
   0 -19   1    2.14    0.94
   0 -19  -1    1.74    0.97
   0 -19   1    2.42    1.27
   0 -19  -1    1.26    1.13
   0 -19  -1    1.50    1.08
 -19   0  -1    2.09    1.31
 -19   0   1    1.99    1.26
 -19   0  -3  162.41    5.46
 -19   0   3  159.07    5.66
   0 -19  -3  161.83    5.45
   0 -19  -3  187.14    5.53
 -19   0  -3  164.02    5.45
 -19   0   3  177.72    5.48
 -19   0  -3  187.15    5.66
   0 -19   3  178.67    5.46
 -19   0  -3  168.42    5.47
 -19   0   3  177.66    5.44
 -19   0  -5    1.45    1.37
   0 -19  -5    0.74    1.21
 -19   0  -5   -1.49    1.67
   0 -19  -7    0.28    0.45
 -19  -1   0    0.58    1.29
   1 -19   0   -0.65    0.94
 -19  -1   0    1.20    1.63
   1 -19   0   -0.28    1.13
 -19  -1   0    0.87    1.32
  -1  19   2   22.89    1.24
 -19  -1  -2   26.59    1.95
 -19  -1  -2   28.32    1.76
 -19  -1   2   29.59    1.71
   1 -19  -2   25.21    1.68
 -19  -1  -2   26.97    1.68
 -19  -1  -2   23.74    1.71
 -19  -1   2   28.50    1.69
   1 -19   2   29.23    1.57
 -19  -1  -4   55.74    2.44
  -1  19   4   49.02    1.90
 -19  -1  -4   65.93    2.68
 -19  -1  -4   58.77    2.65
 -19  -1  -6    4.38    1.08
 -19  -2   1  268.07    8.34
 -19  -2  -1  280.81    8.37
 -19  -2  -1  265.20    8.42
 -19  -2   1  261.95    8.48
   2 -19  -1  267.36    8.42
 -19  -2  -1  276.85    8.42
 -19  -2   1  270.92    8.37
 -19  -2  -1  287.49    8.44
 -19  -2   1  275.62    8.36
 -19  -2  -3    2.13    1.00
 -19  -2   3    2.00    0.97
 -19  -2  -3    1.44    1.16
  -2  19   3    3.19    0.79
 -19  -2   3    1.80    1.46
 -19  -2  -3    2.32    1.38
 -19  -2  -3    3.63    1.54
 -19  -2  -3    2.78    1.04
 -19  -2   3    3.10    0.99
 -19  -2  -3    2.83    1.45
 -19  -2  -5   60.38    2.51
 -19  -2  -5   61.74    2.57
 -19  -2  -5   55.12    2.74
 -19  -2  -7    4.35    0.60
 -19  -2  -7    5.22    0.58
 -19  -3   0    1.75    1.32
 -19  -3   0    0.40    1.30
 -19  -3   0   -0.68    1.58
   3 -19   0    0.33    1.05
 -19  -3   0    1.35    1.31
 -19  -3   2   89.88    3.44
 -19  -3  -2  103.13    3.53
 -19  -3  -2  110.16    3.66
   3 -19  -2   89.55    3.37
 -19  -3  -2   98.01    3.47
   3 -19  -2   84.98    3.36
 -19  -3   2   97.52    3.37
 -19  -3  -2   81.30    3.37
 -19  -3  -2   92.76    3.44
 -19  -3   2   91.15    3.35
   3 -19   2   94.14    3.33
  -3  19   4   21.99    1.22
 -19  -3  -4   23.85    1.77
 -19  -3  -4   28.16    1.90
   3 -19  -4   24.62    1.73
 -19  -3  -4   26.56    2.00
 -19  -3  -6   26.03    1.44
 -19  -3  -6   24.26    1.46
   4 -19   1   48.32    2.13
 -19  -4   1   50.82    2.29
 -19  -4  -1   47.34    2.30
 -19  -4  -1   49.43    2.42
 -19  -4   1   48.87    2.55
   4 -19  -1   47.36    2.17
   4 -19  -1   48.44    2.17
 -19  -4  -1   51.12    2.34
 -19  -4   1   45.71    2.25
 -19  -4  -1   51.22    2.36
 -19  -4   1   45.09    2.25
 -19  -4  -3    7.50    1.14
 -19  -4   3    6.79    1.03
  -4  19   3    7.50    1.01
 -19  -4   3    9.05    1.43
 -19  -4  -3    8.81    1.45
 -19  -4  -3    8.20    1.59
   4 -19  -3    5.79    0.98
 -19  -4  -3    6.57    1.15
   4 -19  -3    7.94    1.43
 -19  -4   3    7.76    1.04
   4 -19   3    9.23    1.16
 -19  -4  -3    7.20    1.58
 -19  -4  -5    1.51    1.17
 -19  -4  -5    1.00    1.26
   4 -19  -5    1.62    1.15
 -19  -4  -7   11.81    0.66
   4 -19  -7   18.25    0.69
 -19  -5   0    0.48    1.28
   5 -19   0   -0.56    0.99
 -19  -5   0    0.12    1.19
 -19  -5   0   -1.09    1.53
 -19  -5   0   -0.08    1.32
 -19  -5  -2    1.49    1.17
 -19  -5   2    2.47    1.12
   5 -19   2    2.79    1.00
 -19  -5   2    2.62    1.24
 -19  -5  -2    3.09    1.36
 -19  -5  -2    4.34    1.57
   5 -19  -2    1.97    1.23
 -19  -5  -2    2.91    1.22
 -19  -5   2    3.05    1.13
  -5  19   4    0.46    0.88
  -5  19  -4   -0.25    0.75
 -19  -5  -4    0.21    1.25
 -19  -5  -4    0.74    1.36
   5 -19  -4    0.49    1.24
 -19  -5  -6    8.01    0.94
   5 -19  -6   10.72    0.94
 -19  -6  -1    2.62    1.20
 -19  -6   1    0.70    1.16
   6 -19   1    2.91    1.02
 -19  -6   1    3.25    1.23
 -19  -6  -1    3.27    1.24
 -19  -6  -1    3.23    1.52
 -19  -6   1    3.70    1.57
   6 -19  -1    3.33    1.22
 -19  -6  -1    2.24    1.34
 -19  -6   1    0.94    1.23
  -6  19   3   12.12    1.16
  -6  19  -3    9.91    1.24
 -19  -6   3   12.00    1.47
 -19  -6  -3   10.99    1.43
 -19  -6  -3   13.62    1.62
   6 -19  -3   13.36    1.44
 -19  -6  -3   11.40    1.25
 -19  -6   3   11.45    1.10
   6 -19   3   12.54    1.17
 -19  -6  -3   11.94    1.20
 -19  -6   3   10.85    1.10
 -19  -6  -5    0.56    1.03
 -19  -6  -5    1.67    1.17
   6 -19  -5    1.32    1.05
 -19  -7   0    0.05    1.23
   7 -19   0   -0.33    0.96
 -19  -7   0   -0.74    1.13
 -19  -7   0   -1.11    1.40
 -19  -7   0    0.03    1.29
 -19  -7   2   49.15    2.25
 -19  -7  -2   47.75    2.24
 -19  -7  -2   53.96    2.43
   7 -19  -2   50.75    2.22
 -19  -7  -2   48.43    2.29
 -19  -7   2   49.59    2.18
 -19  -7  -2   48.12    2.26
 -19  -7   2   48.97    2.17
   7 -19   2   50.65    2.14
  -7  19   4   55.59    2.13
  -7  19  -4   48.04    1.97
 -19  -7  -4   46.85    2.20
 -19  -7  -4   44.98    2.26
   7 -19  -4   58.01    2.23
 -19  -7  -6    2.44    0.64
   7 -19  -6    2.75    0.69
   8 -19   1   75.86    2.71
 -19  -8   1   67.93    2.72
 -19  -8  -1   69.56    2.74
 -19  -8  -1   62.97    2.85
 -19  -8  -1   71.02    2.89
 -19  -8   1   71.06    2.81
 -19  -8  -1   77.14    2.91
 -19  -8   1   70.61    2.78
  -8  19   3   36.21    1.82
 -19  -8  -3   33.12    1.80
  -8  19  -3   33.14    1.83
 -19  -8  -3   30.00    1.86
 -19  -8  -3   33.84    1.75
 -19  -8   3   31.16    1.59
 -19  -8  -3   30.80    1.70
 -19  -8   3   33.73    1.61
 -19  -8  -5    9.96    1.02
   8 -19  -5   12.90    1.05
 -19  -9   0   -0.13    1.31
   9 -19   0   -0.21    0.86
 -19  -9   0    0.55    1.05
 -19  -9   0    0.70    1.30
 -19  -9   0   -0.66    1.31
 -19  -9  -2    0.12    1.10
 -19  -9   2    1.04    1.02
   9 -19   2    1.46    0.83
 -19  -9   2    0.67    1.03
 -19  -9  -2    0.44    1.06
 -19  -9  -2    2.11    1.25
   9 -19  -2    0.94    1.08
 -19  -9  -2    1.50    1.18
 -19  -9   2   -0.02    1.05
  -9  19   4   37.39    1.69
  -9  19  -4   34.29    1.60
   9 -19  -4   36.94    1.64
  -9  19  -6    6.57    0.82
   9 -19  -6    1.42    0.34
 -19 -10  -1    4.84    1.35
 -19 -10   1    4.89    1.33
  10 -19   1    6.05    0.93
  10 -19  -1    7.17    1.00
 -19 -10   1    5.01    1.02
 -19 -10  -1    5.67    1.05
 -19 -10  -1    4.94    1.21
 -19 -10  -1    6.54    1.40
 -19 -10   1    6.37    1.27
 -19 -10  -3    7.84    1.07
 -10  19   3    8.02    1.21
 -10  19  -3    9.11    1.34
 -19 -10  -3    6.18    1.04
  10 -19  -3    8.54    1.08
 -19 -10  -3    6.82    1.05
 -19 -10   3    8.05    0.96
  10 -19  -5    4.67    0.65
 -19 -11   0    0.03    1.31
  11 -19   0    0.16    0.77
 -19 -11   0   -1.07    0.86
 -19 -11   0   -1.31    1.30
  11 -19  -2   81.84    2.97
 -19 -11  -2   75.43    2.91
 -19 -11  -2   85.69    3.18
 -19 -11   2   94.06    3.13
 -19 -11  -2   97.32    3.23
 -19 -11   2   93.10    3.12
 -11  19   4    0.75    0.93
 -11  19  -4    2.22    0.93
  11 -19  -4    0.64    0.73
 -11  19  -6   47.58    1.66
  12 -19  -1   18.18    1.12
 -19 -12  -1   24.08    1.70
 -19 -12   1   23.13    1.57
  12 -19   1   19.25    1.10
 -19 -12  -1   24.15    1.67
 -19 -12   1   23.25    1.60
 -19 -12  -3   11.14    1.08
 -19 -12  -3   10.21    1.01
 -12  19  -5    8.83    1.16
 -19 -13   0    0.26    1.30
 -19 -13   0   -1.41    1.24
 -19 -13  -2    6.14    1.17
 -13  19  -2    9.55    1.63
 -19 -13  -2    7.72    1.23
 -19 -13   2    7.82    1.08
 -19 -13   2    8.64    1.14
 -13  19  -4    0.69    0.90
 -19 -14  -1   25.12    1.63
 -19 -14   1   25.01    1.56
 -19 -14  -1   23.93    1.66
 -19 -14   1   26.95    1.62
 -19 -14  -3  127.40    3.99
 -19 -14  -3  112.45    3.92
 -14  19  -5    1.10    0.77
 -14  19  -5    1.47    0.75
 -19 -15   0    0.55    1.20
 -19 -15   0   -0.06    1.19
 -19 -15  -2   20.07    1.31
 -19 -15   2   16.87    1.23
 -19 -15  -2   18.80    1.29
 -19 -15   2   16.95    1.21
 -15  19   4   25.58    1.18
 -15  19  -4   28.36    1.34
 -16  19  -1   78.02    2.86
 -19 -16  -1   69.65    2.70
 -19 -16   1   73.31    2.69
 -19 -16  -1   73.74    2.71
 -19 -16   1   72.99    2.72
 -19 -16  -3    1.25    0.57
 -16  19   3    1.75    0.74
 -16  19  -3    1.47    0.97
 -19 -16  -3    0.21    0.64
 -19 -17   0   -0.41    1.03
 -17  19   0    1.15    1.06
 -19 -17   0   -0.60    1.00
 -17  19   2   23.43    1.22
 -17  19  -2   25.32    1.43
 -19 -17  -2   20.82    1.23
 -19 -17  -2   20.29    1.18
 -19 -17   2   22.20    1.20
 -17  19  -4   21.32    1.12
 -19 -18  -1    3.17    0.87
 -19 -18   1    3.84    0.92
 -18  19   1    3.80    0.76
 -18  19  -1    2.75    0.96
 -19 -18  -1    3.74    0.91
 -19 -18   1    2.66    0.86
 -18  19   3    7.94    0.63
 -18  19  -3    9.21    0.94
 -19 -19   0    0.16    0.83
 -19  19   0    0.76    0.62
 -19 -19   0   -0.03    0.75
 -19 -19  -2    0.31    0.50
 -19  19   2   -0.29    0.51
 -19  19  -2    0.42    0.72
 -19 -19  -2   -0.41    0.59
 -19 -20  -1    5.71    0.64
 -19 -20   1    4.29    0.61
 -19 -20  -1    5.09    0.65
 -19 -20   1    5.15    0.63
 -18 -20   0   20.20    1.15
 -18 -20   0   20.05    1.14
 -18 -20  -2    3.20    0.55
 -20  18  -2    4.59    0.77
 -18 -20  -2    3.08    0.62
 -17 -20   1    6.16    0.89
 -20  17  -1    6.58    0.90
 -17 -20  -1    5.78    0.97
 -17 -20  -1    5.73    0.92
 -17 -20   1    6.32    0.91
 -17 -20  -1    7.38    0.93
 -17 -20  -3    3.89    0.68
 -20  17  -3    4.25    0.79
 -16 -20   0   28.63    1.61
 -16 -20   0   28.46    1.60
 -16 -20   0   31.24    1.63
 -20  16  -2   22.31    1.29
 -16 -20  -2   20.02    1.33
 -16 -20  -2   20.71    1.19
 -16 -20  -2   21.54    1.17
 -16 -20   2   19.88    1.16
 -16 -20  -4   10.24    0.70
 -20  16  -4   10.98    0.74
 -20  15  -1   19.49    1.31
 -15 -20  -1   21.33    1.52
 -15 -20  -1   20.56    1.44
 -15 -20   1   19.89    1.40
 -15 -20  -1   18.96    1.37
 -15 -20   1   22.33    1.46
 -20  15  -3   25.86    1.37
 -15 -20  -3   22.21    1.29
 -15 -20  -3   18.77    0.98
 -15 -20  -3   14.14    0.87
 -14 -20   0   23.12    1.64
 -14 -20   0   23.17    1.67
 -14 -20   0   21.28    1.61
 -14 -20  -2   -0.17    0.94
 -14 -20   2   -0.24    0.93
 -20  14  -2    2.00    1.09
 -14 -20  -2    1.73    1.09
 -14 -20  -2    1.11    0.98
 -14 -20  -2    1.39    0.95
 -14 -20   2    0.21    0.87
 -14 -20  -4   13.31    1.01
 -20  14  -4   16.43    1.11
 -13 -20  -1    5.49    1.31
 -13 -20   1    6.33    1.32
 -20  13  -1    7.26    1.12
 -13 -20   1    5.28    1.33
 -13 -20  -1    5.56    1.41
 -13 -20  -1    6.25    1.20
 -13 -20  -1    5.24    1.38
 -13 -20   1    6.04    1.34
 -20  13  -3    6.78    1.30
 -13 -20  -3    4.64    0.80
 -20  13  -3    6.40    1.21
 -13 -20  -3    5.71    1.09
 -13 -20  -3    5.61    0.87
 -13 -20  -5   11.75    0.75
 -20  13  -5   19.35    0.94
 -12 -20   0   16.51    1.63
 -12 -20   0   16.42    1.78
 -12 -20   0   14.53    1.51
 -12 -20   0   16.66    1.73
 -12 -20  -2   -0.58    1.09
 -12 -20   2   -0.36    1.08
 -20  12  -2   -1.27    1.19
 -12 -20  -2    0.10    1.20
 -12 -20   2    0.11    1.00
 -12 -20  -2   -0.55    1.12
 -12 -20  -4    5.38    0.97
 -20  12  -4    4.48    1.19
 -20  11  -1   69.05    2.60
 -11 -20   1   75.03    2.94
 -11 -20  -1   68.30    3.00
 -11 -20   1   78.18    3.02
 -11 -20  -1   76.04    2.89
 -11 -20  -1   73.08    2.93
 -11 -20   1   77.19    3.01
 -20  11  -3   22.34    1.63
 -11 -20  -3   17.18    1.53
 -11 -20  -3   18.01    1.30
 -11 -20  -3   19.91    1.49
 -11 -20  -3   18.12    1.24
 -20  11  -3   19.25    1.64
 -11 -20  -5    5.74    0.80
 -11 -20  -5    5.68    0.83
 -20  11  -5    8.29    1.03
 -10 -20   0   83.84    3.58
 -10 -20   0   90.93    3.42
 -10 -20   0   84.88    3.53
 -20  10  -2    2.46    1.23
 -10 -20  -2    4.02    1.29
 -10 -20   2    2.39    1.29
 -20  10  -2    2.89    1.14
 -20  10  -2    2.85    1.06
 -10 -20  -2    1.55    1.31
 -10 -20  -2    2.54    1.34
 -10 -20   2    2.91    1.33
 -10 -20  -2    3.31    1.34
 -20  10  -4    5.10    0.86
 -10 -20  -4    7.37    1.20
 -10 -20  -4    6.62    1.20
 -20  10  -4    7.29    1.34
 -10 -20  -6    2.05    0.41
 -20   9   1   43.74    2.03
 -20   9  -1   40.45    1.98
 -20   9  -1   42.46    2.01
 -20   9  -1   43.44    2.12
  -9 -20  -1   46.13    2.26
  -9 -20   1   46.47    2.36
  -9 -20  -1   51.00    2.38
  -9 -20   1   52.01    2.60
  -9 -20  -1   47.70    2.54
 -20   9  -3   79.48    3.00
 -20   9  -3   78.57    2.81
  -9 -20  -3   78.88    3.02
  -9 -20  -3   70.96    2.86
  -9 -20  -3   75.25    3.07
  -9 -20  -3   68.19    2.72
  -9 -20   3   73.20    2.76
 -20   9  -3   88.03    3.03
 -20   9  -5   13.14    0.91
  -9 -20  -5   11.73    1.06
  -9 -20  -5   13.80    1.11
 -20   9  -5   15.87    1.32
  -8 -20   0    7.67    0.87
 -20   8   0    6.91    1.20
  -8 -20   0    7.44    1.42
 -20   8   0    6.92    1.45
  -8 -20   0    8.29    1.46
 -20   8  -2    5.47    1.28
  -8 -20   2    8.46    1.61
  -8 -20  -2    7.08    1.49
 -20   8  -2    8.75    1.36
 -20   8  -2    4.62    1.24
 -20   8   2    6.67    1.26
 -20   8  -2    6.59    1.21
  -8 -20  -2    6.08    1.39
  -8 -20  -2    4.49    1.44
  -8 -20   2    6.54    0.80
 -20   8  -4   19.04    1.37
  -8 -20  -4   16.95    1.44
 -20   8  -4   18.58    1.55
  -8 -20  -6   11.96    0.69
  -8 -20  -6   15.11    0.87
  -7 -20  -1   13.32    1.10
 -20   7   1   14.36    1.42
 -20   7  -1   14.11    1.23
 -20   7  -1   15.02    1.42
  -7 -20   1   13.75    1.58
 -20   7  -1   15.92    1.60
  -7 -20  -1   14.23    1.52
  -7 -20   1   15.26    1.71
  -7 -20  -1   16.57    1.66
  -7 -20   1   17.06    2.01
  -7 -20  -1   14.32    1.97
  -7 -20   1   14.05    1.06
  -7 -20   3    1.52    1.01
  -7 -20  -3    1.22    1.09
 -20   7  -3    2.79    1.34
 -20   7  -3    0.55    1.13
 -20   7  -3    1.61    1.26
  -7 -20  -3    1.10    1.26
  -7 -20  -3    1.79    0.89
 -20   7  -3    0.87    1.36
 -20   7  -5   67.01    2.34
 -20   7  -5   77.96    2.61
 -20   6   0   32.91    2.24
  -6 -20   0   34.51    1.64
  -6 -20   0   35.63    1.99
 -20   6   0   36.37    1.90
 -20   6   0   35.46    2.14
  -6 -20   2    0.37    1.49
  -6 -20  -2    0.55    1.48
  -6 -20   2    1.20    0.80
 -20   6  -2   -0.23    1.16
 -20   6   2    1.28    1.25
 -20   6  -2    0.39    1.20
  -6 -20  -2    2.76    1.25
  -6 -20  -2    1.87    0.98
 -20   6  -2    2.81    1.39
 -20   6  -2    1.45    1.22
 -20   6  -4    0.83    1.11
 -20   6  -4    0.27    1.16
  -6 -20  -4    0.41    1.10
  -6 -20  -4    0.74    0.89
 -20   6  -4    0.95    1.34
 -20   6  -6    0.52    0.64
  -6 -20  -6    1.05    0.45
  -6 -20  -6    0.54    0.65
 -20   6  -6    1.71    0.96
 -20   5  -1    0.03    1.43
 -20   5   1   -0.22    1.36
  -5 -20   1   -0.26    0.81
 -20   5  -1    0.49    0.92
 -20   5   1   -1.01    1.32
 -20   5  -1    1.18    1.27
  -5 -20   1    0.25    1.29
 -20   5  -1   -0.61    1.43
  -5 -20  -1   -0.26    1.13
 -20   5   1   -0.40    1.57
  -5 -20  -1    1.00    1.35
 -20   5  -1   -0.94    1.40
  -5 -20   3    1.04    1.18
  -5 -20  -3    0.22    1.14
 -20   5   3    0.56    1.35
 -20   5  -3   -0.82    1.22
 -20   5  -3   -0.68    1.35
  -5 -20  -3   -0.53    1.15
  -5 -20  -3    0.27    1.02
 -20   5  -3   -0.39    1.27
 -20   5  -5    1.64    1.06
 -20   5  -5    0.83    1.02
  -5 -20  -5    0.63    0.86
  -5 -20  -5    0.98    0.84
 -20   5  -5    0.57    1.30
  -4 -20   0  109.32    3.65
  -4 -20   0  103.58    3.83
 -20   4   0  104.13    3.75
 -20   4   0  102.44    3.90
  -4 -20   0  104.18    3.94
 -20   4   0  109.74    3.91
 -20   4  -2   17.13    1.57
 -20   4   2   16.15    1.55
 -20   4  -2   15.42    1.44
 -20   4   2   16.54    1.63
 -20   4  -2   16.42    1.56
  -4 -20  -2   16.44    1.36
 -20   4  -2   17.51    1.72
  -4 -20  -2   15.92    1.48
  -4 -20  -2   18.06    1.67
 -20   4  -2   18.64    1.60
 -20   4  -2   17.19    1.43
  -4 -20   2   19.56    1.23
 -20   4  -4   45.02    2.12
 -20   4  -4   43.91    2.13
  -4 -20  -4   48.36    1.92
 -20   4  -4   45.09    2.22
 -20   4  -6   10.55    0.93
 -20   4  -6    9.62    0.94
 -20   4  -6    8.71    1.18
 -20   3  -1    1.71    1.41
 -20   3   1    2.40    1.35
  -3 -20   1    2.26    0.95
 -20   3   1    2.51    1.35
 -20   3  -1    2.83    1.32
  -3 -20   1    3.91    1.27
 -20   3  -1    3.24    1.54
  -3 -20  -1    3.55    1.13
 -20   3   1    4.17    1.67
  -3 -20   1    1.93    1.39
  -3 -20  -1    1.94    1.09
  -3 -20  -1    2.52    1.30
 -20   3  -1    2.40    1.37
 -20   3   1    1.83    1.37
 -20   3   3  190.42    6.11
 -20   3  -3  189.15    6.02
 -20   3  -3  190.24    6.06
  -3 -20  -3  173.20    5.98
  -3 -20  -3  193.33    5.88
 -20   3  -3  196.35    6.05
  -3 -20   3  188.63    5.85
 -20   3  -5   10.96    1.27
 -20   3  -5   12.96    1.36
  -3 -20  -5   13.81    1.14
 -20   3  -5   12.03    1.57
  -2 -20   0   79.80    2.94
 -20   2   0   78.96    3.10
 -20   2   0   79.54    3.29
  -2 -20   0   82.16    3.22
 -20   2   0   80.79    3.18
  -2 -20   0   71.79    3.01
 -20   2   2   25.98    1.84
 -20   2  -2   28.04    1.83
 -20   2  -2   27.21    1.94
  -2 -20  -2   23.34    1.58
  -2 -20  -2   27.14    1.63
  -2 -20  -2   23.98    1.79
 -20   2  -2   21.56    1.69
 -20   2   2   27.47    1.73
 -20   2  -2   23.17    1.59
  -2 -20   2   25.86    1.45
 -20   2  -2   19.45    1.70
 -20   2   2   26.06    1.68
 -20   2  -4   25.96    1.81
 -20   2  -4   31.98    1.96
  -2 -20  -4   23.10    1.49
  -2 -20  -4   32.25    1.71
 -20   2  -4   32.87    2.00
 -20   2  -6    0.94    0.89
 -20   2  -6    1.46    0.92
  -2 -20  -6    1.27    0.68
  -2 -20  -6    1.70    0.76
 -20   1  -1    3.78    1.36
 -20   1   1    3.18    1.38
  -1 -20   1    3.60    1.00
 -20   1   1    3.19    1.40
 -20   1  -1    3.24    1.41
  -1 -20  -1    3.54    1.05
  -1 -20   1    3.51    1.40
  -1 -20  -1    3.58    1.15
  -1 -20  -1    3.63    1.31
 -20   1  -1    3.65    1.40
 -20   1   1    1.84    1.35
 -20   1  -3    1.65    1.05
 -20   1   3    3.39    1.00
  -1 -20   3    3.46    0.98
 -20   1   3    3.03    1.53
 -20   1  -3    4.34    1.44
  -1 -20  -3    1.97    1.01
  -1 -20  -3    3.08    1.28
 -20   1  -3    2.38    1.06
 -20   1   3    4.09    1.08
 -20   1  -3    3.78    1.36
  -1 -20  -5  101.84    3.26
 -20   1  -5   97.55    3.57
   0 -20   0   16.37    1.27
   0 -20   0   16.48    1.37
   0 -20   0   17.86    1.58
 -20   0   0   17.83    1.66
   0 -20  -2   54.74    2.43
   0 -20  -2   65.69    2.58
   0 -20  -2   68.68    2.80
 -20   0  -2   64.60    2.73
 -20   0   2   67.40    2.67
 -20   0  -2   63.70    2.62
 -20   0  -2   59.34    2.70
 -20   0   2   71.00    2.68
   0 -20   2   73.06    2.58
   0 -20  -4    1.69    1.30
 -20   0  -4   -1.01    1.51
   0 -20  -6   -0.05    0.53
   0 -20  -6   -0.64    0.78
   1 -20   1  122.77    4.22
 -20  -1  -1  129.19    4.49
 -20  -1   1  131.13    4.56
   1 -20  -1  133.26    4.47
 -20  -1  -1  120.97    4.40
 -20  -1   1  124.38    4.39
 -20  -1  -1  126.99    4.43
 -20  -1   1  126.64    4.39
 -20  -1  -3    0.07    1.01
 -20  -1   3    0.77    0.92
   1 -20   3    1.32    1.04
 -20  -1  -3    2.19    1.59
   1 -20  -3    0.83    1.08
 -20  -1  -3    1.44    1.03
 -20  -1   3    1.54    0.99
 -20  -1  -3    0.73    1.33
 -20  -1  -5   60.09    2.24
 -20  -1  -5   56.25    2.43
 -20  -2   0  327.67    9.69
 -20  -2   0  322.67    9.77
   2 -20   0  317.76    9.80
 -20  -2   0  306.49    9.68
 -20  -2   0  324.18    9.71
  -2  20   2   26.22    1.32
 -20  -2   2   27.72    1.92
 -20  -2  -2   30.00    1.92
 -20  -2  -2   32.26    2.13
   2 -20  -2   27.90    1.71
 -20  -2  -2   26.96    1.80
 -20  -2   2   29.38    1.69
 -20  -2  -2   25.73    1.72
 -20  -2  -2   22.75    1.75
 -20  -2   2   27.86    1.69
  -2  20   4    4.49    0.66
 -20  -2  -4    3.94    1.38
 -20  -2  -4    6.57    1.53
   2 -20  -4    4.29    1.02
 -20  -2  -4    4.22    1.52
 -20  -2  -6   23.25    1.25
 -20  -2  -6   19.58    1.26
   3 -20   1   93.48    3.39
 -20  -3   1   88.40    3.51
 -20  -3  -1   91.77    3.55
 -20  -3  -1  102.09    3.70
 -20  -3   1   95.74    3.75
   3 -20  -1   95.98    3.41
   3 -20  -1   91.45    3.48
 -20  -3  -1   96.98    3.55
 -20  -3   1   95.20    3.52
 -20  -3  -1  104.87    3.63
 -20  -3   1   94.77    3.52
  -3  20   3   12.91    1.04
 -20  -3   3   13.92    1.59
 -20  -3  -3   14.80    1.61
  -3  20  -3   10.97    1.05
 -20  -3  -3   18.09    1.80
   3 -20  -3   16.11    1.56
   3 -20  -3   12.96    1.20
 -20  -3  -3   13.76    1.29
 -20  -3   3   13.94    1.21
 -20  -3  -3   14.66    1.62
   3 -20   3   14.33    1.26
 -20  -3  -3   11.84    1.26
 -20  -3   3   13.94    1.21
 -20  -3  -5    0.50    1.08
 -20  -3  -5    0.29    1.18
   3 -20  -5    1.22    1.10
   4 -20   0   19.32    1.45
 -20  -4   0   19.39    1.69
 -20  -4   0   23.01    1.91
 -20  -4   0   22.52    1.77
 -20  -4   0   20.65    1.74
 -20  -4  -2    0.08    1.17
 -20  -4   2    0.19    1.10
   4 -20   2    0.72    1.00
 -20  -4   2    0.77    1.35
 -20  -4  -2    0.36    1.38
 -20  -4  -2    0.66    1.59
   4 -20  -2    0.18    0.90
   4 -20  -2   -0.13    1.29
 -20  -4  -2    0.03    1.19
 -20  -4   2    0.67    1.13
  -4  20   4   24.91    1.28
 -20  -4  -4   26.49    1.77
 -20  -4  -4   30.69    1.87
   4 -20  -4   32.42    1.76
 -20  -4  -6   15.17    1.05
 -20  -4  -6   11.86    1.03
 -20  -5  -1    7.57    1.44
 -20  -5   1    7.72    1.33
   5 -20   1    8.16    1.14
 -20  -5  -1   10.19    1.48
 -20  -5   1    6.94    1.37
 -20  -5  -1    9.95    1.69
 -20  -5   1    4.68    1.68
 -20  -5  -1    7.25    1.42
 -20  -5   1    8.69    1.42
 -20  -5  -3    2.11    1.02
 -20  -5   3    3.31    0.92
   5 -20   3    3.69    0.99
  -5  20   3    3.37    0.93
 -20  -5   3    2.60    1.35
  -5  20  -3    3.79    0.95
 -20  -5  -3    3.57    1.31
 -20  -5  -3    4.06    1.52
   5 -20  -3    3.17    1.29
 -20  -5  -3    4.06    1.07
 -20  -5   3    4.33    0.97
 -20  -5  -5    2.32    1.03
 -20  -5  -5    1.93    1.10
   5 -20  -5    3.87    1.06
 -20  -6   0    1.25    1.33
   6 -20   0   -0.26    1.01
 -20  -6   0    0.55    1.23
 -20  -6   0    0.03    1.29
 -20  -6   0    0.14    1.54
 -20  -6  -2    0.03    1.19
 -20  -6   2    1.59    1.09
   6 -20   2    2.50    0.98
 -20  -6   2    2.32    1.26
 -20  -6  -2    1.30    1.28
 -20  -6  -2    3.40    1.50
   6 -20  -2    2.35    1.29
 -20  -6  -2    1.91    1.22
 -20  -6   2    2.06    1.11
  -6  20   4    6.69    0.91
  -6  20  -4    6.04    0.77
 -20  -6  -4    6.24    1.22
 -20  -6  -4    5.35    1.34
   6 -20  -4    8.30    1.25
 -20  -6  -6    2.64    0.62
   6 -20  -6    3.81    0.64
   7 -20   1   13.50    1.26
 -20  -7   1   14.07    1.40
 -20  -7  -1   13.45    1.41
 -20  -7  -1   12.06    1.60
 -20  -7  -1   14.84    1.53
 -20  -7   1   11.84    1.45
 -20  -7  -1   13.08    1.46
 -20  -7   1   11.03    1.45
  -7  20   3   42.52    1.89
 -20  -7  -3   39.30    2.02
  -7  20  -3   45.57    1.96
 -20  -7  -3   41.75    2.16
 -20  -7  -3   43.23    1.94
 -20  -7   3   39.93    1.80
 -20  -7  -3   41.08    1.88
 -20  -7   3   36.92    1.76
 -20  -7  -5    5.24    0.93
   7 -20  -5    6.76    0.99
   8 -20   0   21.98    1.44
 -20  -8   0   22.33    1.56
 -20  -8   0   24.33    1.75
 -20  -8   0   24.93    1.70
 -20  -8   2  177.53    5.94
 -20  -8  -2  190.26    6.00
 -20  -8  -2  170.04    6.02
   8 -20  -2  210.85    5.98
 -20  -8  -2  190.97    6.06
 -20  -8   2  182.02    5.95
   8 -20   2  199.55    5.98
 -20  -8  -2  202.55    6.07
 -20  -8   2  190.65    5.95
  -8  20   4    0.96    0.80
  -8  20  -4   -0.27    0.76
 -20  -8  -4   -0.25    0.94
 -20  -8  -4    0.32    1.09
   8 -20  -4    0.59    1.02
  -8  20  -6   10.71    0.72
   9 -20  -1   30.81    1.62
 -20  -9   1   28.47    1.62
 -20  -9  -1   26.33    1.61
 -20  -9  -1   26.43    1.78
 -20  -9  -1   30.76    1.86
 -20  -9   1   25.64    1.72
 -20  -9  -1   32.91    1.87
 -20  -9   1   29.99    1.75
   9 -20   1   29.41    1.52
 -20  -9  -3    3.11    0.97
  -9  20   3    3.03    0.99
  -9  20  -3    4.01    1.16
 -20  -9  -3    1.84    0.99
 -20  -9  -3    2.87    1.15
   9 -20  -3    2.66    1.01
 -20  -9  -3    3.02    0.97
   9 -20  -5   12.86    0.81
  -9  20  -5   12.97    1.26
 -20 -10   0    2.26    1.33
  10 -20   0    2.17    0.87
 -20 -10   0    2.15    1.01
 -20 -10   0    1.31    1.31
  10 -20  -2   33.12    1.64
 -20 -10  -2   31.34    1.64
 -20 -10  -2   38.62    1.87
 -20 -10   2   35.42    1.73
  10 -20   2   38.98    1.66
 -20 -10  -2   35.69    1.83
 -20 -10   2   35.90    1.77
 -10  20   4   36.48    1.49
 -10  20  -4   33.78    1.46
 -10  20  -6    2.37    0.44
  11 -20  -1   15.81    1.11
 -20 -11   1   14.48    1.11
 -20 -11  -1   13.17    1.10
 -20 -11  -1   15.24    1.52
 -20 -11   1   17.98    1.45
 -20 -11  -1   17.77    1.49
 -20 -11   1   18.61    1.46
  11 -20   1   15.33    1.07
 -20 -11  -3    0.12    0.82
 -11  20   3    0.56    1.07
  11 -20  -3    0.62    0.65
 -11  20  -3    1.05    1.17
 -20 -11  -3    0.98    0.87
 -11  20  -5   -1.10    0.94
 -20 -12   0    8.99    1.36
 -20 -12   0   10.65    1.39
  12 -20   0    7.90    0.79
  12 -20  -2   11.86    0.86
 -12  20   2   16.05    1.33
 -12  20  -2   18.22    1.64
 -20 -12  -2   15.40    1.33
 -20 -12   2   14.73    1.16
 -20 -12  -2   15.16    1.26
 -20 -12   2   14.75    1.21
 -12  20   4   99.44    3.23
 -12  20  -4  100.89    3.25
 -20 -13  -1   39.97    2.00
 -20 -13   1   39.90    1.89
 -20 -13  -1   41.97    1.97
 -20 -13   1   41.62    1.93
 -20 -13  -3    1.33    0.74
 -13  20  -3    0.87    1.05
 -20 -13  -3    0.11    0.79
 -13  20  -5   25.10    1.13
 -20 -14   0    0.78    1.13
 -20 -14   0   -0.90    1.11
 -20 -14  -2    1.35    0.94
 -20 -14   2    1.42    0.87
 -20 -14  -2    0.73    0.97
 -20 -14   2    1.04    0.84
 -14  20  -4    3.13    0.73
 -15  20  -1   35.84    1.87
 -20 -15  -1   33.81    1.72
 -20 -15   1   31.78    1.66
 -20 -15  -1   35.51    1.68
 -20 -15   1   35.95    1.69
 -20 -15  -3    1.96    0.58
 -15  20   3    3.21    0.78
 -15  20  -3    2.71    0.92
 -20 -15  -3    2.30    0.68
 -16  20   0   11.59    1.28
 -20 -16   0   11.96    1.19
 -20 -16   0   12.10    1.21
 -20 -16  -2   22.46    1.27
 -20 -16  -2   23.47    1.25
 -20 -16   2   25.95    1.25
 -16  20  -4    6.99    0.79
 -17  20   1   10.10    0.93
 -17  20  -1   11.99    1.14
 -20 -17  -1   10.29    1.01
 -20 -17   1   10.73    0.97
 -20 -17  -1   11.25    0.98
 -20 -17   1   10.13    1.00
 -17  20   3   24.64    1.05
 -17  20  -3   29.49    1.36
 -18  20   0   59.03    1.99
 -18  20   0   56.57    2.05
 -20 -18   0   56.34    2.07
 -20 -18   0   54.15    2.05
 -20 -18  -2    0.79    0.52
 -18  20   2    0.93    0.53
 -18  20  -2    0.56    0.72
 -20 -18  -2    1.02    0.55
 -20 -19  -1    1.87    0.57
 -20 -19   1    2.86    0.57
 -19  20  -1    1.65    0.47
 -19  20   1    2.15    0.50
 -19  20  -1    2.14    0.64
 -20 -19  -1    1.61    0.58
 -20 -19   1    1.56    0.58
 -20 -20   0    2.04    0.49
 -20 -20   0    2.02    0.50
 -19 -21   0   -0.08    0.45
 -19 -21   0    0.17    0.44
 -18 -21  -1   37.15    1.35
 -18 -21   1   34.38    1.32
 -18 -21  -1   33.91    1.35
 -18 -21   1   35.05    1.33
 -17 -21   0   -0.07    0.72
 -17 -21   0    0.01    0.70
 -17 -21  -2    2.11    0.51
 -21  17  -2    2.06    0.67
 -17 -21  -2    2.57    0.68
 -17 -21  -2    2.94    0.57
 -16 -21  -1    8.36    1.05
 -16 -21  -1    8.54    0.99
 -16 -21   1    8.56    0.95
 -16 -21  -1    8.15    0.92
 -16 -21   1    9.14    0.92
 -16 -21  -3    3.47    0.64
 -15 -21   0    0.41    0.95
 -15 -21   0   -0.06    1.05
 -15 -21   0    0.04    1.01
 -21  15  -2   14.27    1.11
 -15 -21  -2   15.25    1.19
 -15 -21  -2   14.70    1.06
 -15 -21  -2   13.61    0.97
 -15 -21   2   15.04    1.00
 -15 -21  -4    6.09    0.56
 -14 -21  -1    4.57    1.11
 -14 -21   1    3.87    1.05
 -14 -21  -1    3.57    1.14
 -14 -21  -1    4.12    1.01
 -14 -21  -1    4.97    1.13
 -14 -21   1    4.63    1.07
 -21  14  -3   19.51    1.27
 -14 -21  -3   19.41    1.16
 -14 -21  -3   16.42    0.90
 -14 -21  -3   17.84    1.08
 -13 -21   0    0.53    1.27
 -13 -21   0   -0.07    1.30
 -13 -21   0    1.18    1.30
 -13 -21  -2    0.86    0.93
 -13 -21   2    1.02    0.91
 -21  13  -2    0.67    0.99
 -13 -21  -2    0.50    0.92
 -13 -21  -2    0.28    1.02
 -13 -21   2    0.25    0.85
 -13 -21  -4    8.34    0.79
 -12 -21  -1   18.14    1.66
 -12 -21   1   19.04    1.54
 -12 -21  -1   17.02    1.48
 -12 -21  -1   16.28    1.52
 -12 -21   1   16.55    1.52
 -12 -21  -3    0.60    0.65
 -21  12  -3    1.19    1.10
 -12 -21  -3    0.22    0.98
 -12 -21  -3    0.26    0.77
 -12 -21  -5    0.92    0.42
 -12 -21  -5    0.23    0.40
 -21  12  -5    0.23    0.51
 -11 -21   0   -0.79    1.46
 -11 -21   0   -0.28    1.25
 -11 -21   0    0.62    1.47
 -11 -21  -2   -0.02    1.05
 -11 -21   2    0.02    1.06
 -21  11  -2   -0.76    1.08
 -11 -21  -2    1.10    1.14
 -11 -21   2   -0.66    1.05
 -11 -21  -2    0.72    1.12
 -11 -21  -4   29.98    1.51
 -11 -21  -4   30.98    1.52
 -21  11  -4   33.42    1.55
 -10 -21  -1    7.17    1.52
 -10 -21   1    9.50    1.54
 -21  10  -1    6.74    1.09
 -10 -21  -1    7.54    1.42
 -21  10  -1    6.53    1.20
 -10 -21  -1    5.88    1.62
 -10 -21   1    9.28    1.57
 -10 -21  -1    7.53    1.42
 -21  10  -3   12.17    1.36
 -21  10  -3    9.75    1.04
 -10 -21  -3   10.40    1.25
 -10 -21  -3   11.08    1.13
 -10 -21  -3   12.87    1.41
 -21  10  -3   13.80    1.30
 -10 -21  -3   11.34    0.99
 -10 -21  -5    1.60    0.61
 -10 -21  -5    1.68    0.68
 -21  10  -5    2.40    0.84
 -21   9   0    0.16    1.02
  -9 -21   0   -0.55    1.33
  -9 -21   0    1.15    1.37
  -9 -21   2    8.39    1.40
  -9 -21  -2    7.64    1.29
 -21   9  -2    9.37    1.27
 -21   9  -2    7.44    1.19
  -9 -21  -2    8.54    1.36
  -9 -21  -2    8.12    1.40
  -9 -21   2    8.96    1.37
  -9 -21  -2    8.59    1.43
  -9 -21  -4   66.28    2.54
  -9 -21  -4   70.35    2.60
  -8 -21  -1   18.56    1.14
 -21   8   1   19.76    1.44
 -21   8  -1   18.47    1.34
 -21   8  -1   17.00    1.40
  -8 -21   1   17.44    1.68
  -8 -21  -1   18.01    1.60
 -21   8  -1   18.31    1.58
  -8 -21  -1   21.70    1.76
  -8 -21   1   21.91    2.02
  -8 -21  -1   18.62    1.90
  -8 -21   1   19.84    1.12
 -21   8  -3   20.82    1.39
 -21   8  -3   21.84    1.49
  -8 -21  -3   21.18    1.58
  -8 -21  -3   21.38    1.47
  -8 -21  -3   21.50    1.34
 -21   8  -3   23.29    1.59
 -21   8  -5    3.15    0.70
 -21   8  -5    4.49    1.03
  -7 -21   0   -0.02    0.74
 -21   7   0   -0.05    1.14
  -7 -21   0   -0.71    1.32
 -21   7   0   -0.18    1.38
  -7 -21   0   -0.97    1.39
  -7 -21   2    0.33    1.38
  -7 -21  -2    0.47    1.33
  -7 -21   2    0.02    0.70
 -21   7  -2    0.58    1.16
 -21   7   2   -0.45    1.18
 -21   7  -2    0.11    1.12
 -21   7  -2    1.30    1.29
  -7 -21  -2   -0.11    1.18
 -21   7  -4   11.88    1.15
  -7 -21  -4   10.20    1.17
 -21   7  -4   13.36    1.42
  -7 -21  -6   14.55    0.73
  -6 -21  -1    7.81    0.99
 -21   6   1    8.30    1.35
 -21   6  -1    8.74    1.34
  -6 -21   1    7.97    1.46
  -6 -21  -1    8.11    1.34
 -21   6  -1    9.84    1.53
  -6 -21   1    8.09    0.97
 -21   6  -3   36.99    1.89
 -21   6  -3   40.05    1.99
  -6 -21  -3   34.96    1.94
  -6 -21  -3   41.40    1.75
  -6 -21  -3   39.93    2.15
  -6 -21   3   38.08    1.87
  -6 -21  -3   35.89    1.81
 -21   6  -3   38.35    1.92
 -21   6  -5    6.21    0.91
 -21   6  -5    7.96    0.96
  -6 -21  -5    4.95    0.78
  -6 -21  -5    6.42    1.02
 -21   6  -5    7.80    1.23
 -21   5   0    0.29    1.59
  -5 -21   0   -0.30    0.84
 -21   5   0    0.27    1.27
  -5 -21   0   -0.84    1.23
 -21   5   0   -0.57    1.54
 -21   5   2  150.88    4.86
 -21   5  -2  134.46    4.77
 -21   5  -2  147.30    4.88
  -5 -21  -2  133.51    4.78
  -5 -21  -2  150.21    4.62
  -5 -21  -2  149.42    5.00
  -5 -21   2  149.52    4.63
 -21   5  -4   12.82    1.32
 -21   5  -4   16.12    1.39
  -5 -21  -4   13.17    1.21
  -5 -21  -4   16.70    1.14
  -5 -21  -4   12.17    1.40
 -21   5  -4   14.71    1.48
 -21   5  -6   58.75    1.69
  -5 -21  -6   39.03    1.65
 -21   4  -1    1.93    1.44
 -21   4   1    1.89    1.38
  -4 -21   1    1.94    0.91
 -21   4   1    4.29    1.38
 -21   4  -1    2.92    1.37
  -4 -21  -1    1.69    1.13
 -21   4  -1    1.92    1.50
 -21   4   1    3.07    1.68
  -4 -21   1    4.12    1.46
  -4 -21  -1    2.23    1.36
 -21   4  -1    3.09    1.50
 -21   4   1    1.59    1.44
  -4 -21   3    2.79    1.18
  -4 -21  -3    1.22    1.09
 -21   4   3    1.59    1.43
 -21   4  -3    1.32    1.28
 -21   4  -3    2.43    1.38
  -4 -21  -3    2.38    1.07
  -4 -21  -3    2.80    1.09
  -4 -21  -3    1.98    1.32
 -21   4  -3    2.53    1.27
 -21   4  -5   10.40    1.12
 -21   4  -5   11.33    1.17
  -4 -21  -5   10.31    0.94
  -4 -21  -5    8.42    1.03
 -21   4  -5    9.51    1.32
 -21   3   0    0.03    1.34
  -3 -21   0    0.28    0.94
 -21   3   0   -0.15    1.36
  -3 -21   0   -0.99    1.21
 -21   3   0   -1.45    1.60
  -3 -21   0   -1.31    1.36
 -21   3   2   24.19    1.82
 -21   3  -2   23.93    1.73
 -21   3  -2   23.23    1.88
  -3 -21  -2   21.55    1.51
  -3 -21  -2   23.50    1.54
  -3 -21  -2   22.76    1.74
 -21   3  -2   19.96    1.64
  -3 -21   2   22.10    1.38
 -21   3  -2   22.52    1.68
 -21   3   2   21.26    1.62
 -21   3  -4   24.85    1.63
 -21   3  -4   25.69    1.70
  -3 -21  -4   18.04    1.29
  -3 -21  -4   28.78    1.46
  -3 -21  -4   20.95    1.61
 -21   3  -4   26.80    1.77
 -21   3  -6   24.58    1.12
 -21   3  -6   24.74    1.13
  -3 -21  -6   28.12    0.97
 -21   2  -1    3.42    1.41
 -21   2   1    2.30    1.36
  -2 -21   1    1.93    0.98
 -21   2   1    2.31    1.38
 -21   2  -1    1.56    1.40
  -2 -21  -1    1.48    1.06
 -21   2  -1   -0.03    1.64
 -21   2   1    1.16    1.78
  -2 -21  -1    1.87    1.30
 -21   2  -1    2.24    1.38
 -21   2   1    1.14    1.33
 -21   2  -3   84.42    3.27
 -21   2   3   93.05    3.50
 -21   2  -3  102.70    3.49
 -21   2  -3   96.23    3.55
  -2 -21  -3   83.53    3.23
  -2 -21  -3  100.83    3.32
  -2 -21  -3   85.28    3.48
 -21   2  -3   95.18    3.42
  -2 -21   3   98.18    3.24
 -21   2  -5   31.41    1.63
 -21   2  -5   33.35    1.70
 -21   2  -5   30.16    1.83
 -21   1   0    0.97    1.43
  -1 -21   0    0.32    1.00
 -21   1   0   -1.53    1.41
  -1 -21   0    0.34    1.07
  -1 -21   0    0.54    1.24
 -21   1   2   33.45    2.04
 -21   1  -2   30.94    1.95
  -1 -21  -2   30.54    1.63
  -1 -21  -2   30.79    1.78
  -1 -21  -2   33.46    1.93
 -21   1  -2   27.83    1.84
 -21   1   2   33.65    1.86
 -21   1  -2   27.41    1.71
  -1 -21   2   32.14    1.68
 -21   1  -2   26.84    1.82
 -21   1   2   32.39    1.80
 -21   1  -4    1.04    1.31
  -1 -21  -4    0.29    1.05
  -1 -21  -4    0.29    1.18
 -21   1  -4    1.10    1.42
 -21   1  -6    2.43    0.76
  -1 -21  -6    1.18    0.37
 -21   0  -1    5.38    1.47
 -21   0   1    6.49    1.41
   0 -21   1    5.69    1.12
   0 -21  -1    5.41    1.09
   0 -21  -1    5.80    1.28
 -21   0  -1    3.43    1.42
 -21   0   1    5.94    1.49
 -21   0  -3    4.06    1.05
 -21   0   3    4.65    1.00
   0 -21   3    6.19    1.09
 -21   0   3    4.62    1.57
   0 -21  -3    4.35    1.19
   0 -21  -3    5.66    1.34
 -21   0  -3    4.24    1.07
 -21   0   3    5.26    1.02
 -21   0  -3    3.53    1.29
   0 -21  -5   81.88    2.40
   0 -21  -5   50.55    2.23
 -21  -1   0    0.79    1.42
   1 -21   0    0.35    1.08
 -21  -1   0   -0.03    1.73
   1 -21   0    0.20    1.24
 -21  -1   0   -0.06    1.41
 -21  -1  -2   28.62    2.08
   1 -21  -2   26.04    1.73
 -21  -1  -2   24.57    1.76
 -21  -1   2   26.52    1.69
   1 -21   2   27.24    1.59
 -21  -1  -2   22.98    1.69
 -21  -1   2   26.60    1.65
   1 -21  -4   53.28    2.34
 -21  -1  -4   60.19    2.67
 -21  -1  -6    1.44    0.74
 -21  -2  -1    9.45    1.46
 -21  -2   1    8.22    1.43
 -21  -2   1    7.77    1.56
 -21  -2  -1    8.14    1.54
 -21  -2  -1    9.04    1.76
 -21  -2   1    9.89    1.95
   2 -21  -1    8.37    1.29
 -21  -2  -1    9.03    1.48
 -21  -2   1    8.84    1.43
  -2  21   3   14.27    0.93
 -21  -2   3   19.32    1.73
 -21  -2  -3   16.34    1.70
 -21  -2  -3   18.98    1.76
   2 -21  -3   17.97    1.37
 -21  -2  -3   15.18    1.30
 -21  -2   3   17.20    1.27
 -21  -2  -3   12.57    1.52
 -21  -2  -3   19.44    1.31
 -21  -2   3   16.19    1.22
 -21  -2  -5    3.13    1.14
 -21  -2  -5    3.44    1.14
 -21  -3   0    0.03    1.35
   3 -21   0    0.57    1.12
 -21  -3   0   -0.24    1.36
 -21  -3   0   -0.06    1.68
 -21  -3   0    0.05    1.34
  -3  21   2   90.85    3.18
 -21  -3   2  100.40    3.59
 -21  -3  -2  103.45    3.63
 -21  -3  -2  108.42    3.77
   3 -21  -2   86.94    3.41
 -21  -3  -2  101.50    3.57
 -21  -3   2  103.41    3.50
   3 -21   2   92.08    3.41
 -21  -3  -2   99.03    3.52
 -21  -3   2   92.53    3.40
 -21  -3  -4    8.45    1.36
 -21  -3  -4    8.89    1.47
   3 -21  -4   10.83    1.39
 -21  -3  -6    5.31    0.71
   3 -21  -6    6.71    0.71
 -21  -4  -1    1.92    1.31
 -21  -4   1    1.06    1.26
   4 -21   1    0.47    1.02
 -21  -4   1    2.54    1.37
 -21  -4  -1    1.51    1.39
 -21  -4  -1   -0.11    1.62
   4 -21  -1    0.11    1.01
 -21  -4  -1    1.10    1.33
 -21  -4   1    0.91    1.26
  -4  21   3   43.27    1.76
 -21  -4   3   45.83    2.29
 -21  -4  -3   46.05    2.24
  -4  21  -3   42.41    1.79
 -21  -4  -3   44.21    2.28
   4 -21  -3   49.94    2.16
 -21  -4  -3   43.39    1.96
 -21  -4   3   43.21    1.87
   4 -21   3   45.58    1.98
 -21  -4  -3   39.95    1.92
 -21  -4   3   40.36    1.84
 -21  -4  -5   46.08    1.99
 -21  -4  -5   42.01    2.01
 -21  -5   0    0.29    1.34
   5 -21   0    0.49    1.08
 -21  -5   0    0.61    1.36
 -21  -5   0    0.94    1.59
 -21  -5   0    0.40    1.37
  -5  21   2  153.95    5.00
 -21  -5   2  163.35    5.25
 -21  -5  -2  159.23    5.26
 -21  -5  -2  161.33    5.38
   5 -21  -2  180.38    5.22
 -21  -5  -2  149.02    5.21
 -21  -5   2  150.84    5.11
   5 -21   2  178.18    5.19
 -21  -5  -2  164.41    5.24
 -21  -5   2  146.13    5.09
  -5  21   4    1.83    0.67
 -21  -5  -4    2.39    1.16
 -21  -5  -4    1.83    1.27
   5 -21  -4    4.10    1.15
 -21  -5  -6    3.06    0.53
   5 -21  -6    5.13    0.54
   6 -21   1  159.53    4.97
   6 -21  -1  151.86    4.98
 -21  -6   1  147.76    4.94
 -21  -6  -1  149.72    4.98
 -21  -6  -1  155.40    5.08
 -21  -6  -1  144.99    5.05
 -21  -6   1  142.90    4.97
 -21  -6  -1  152.62    5.06
 -21  -6   1  147.72    4.95
 -21  -6  -3    0.78    0.92
  -6  21   3    1.52    0.85
  -6  21  -3    0.41    0.88
 -21  -6  -3    0.95    1.20
 -21  -6  -3    1.17    1.39
   6 -21  -3    1.93    1.23
 -21  -6  -3    0.86    0.96
 -21  -6  -5   21.02    1.17
   6 -21  -5   24.57    1.16
 -21  -7   0    0.30    1.32
   7 -21   0   -0.02    1.01
 -21  -7   0   -0.41    1.21
 -21  -7   0    1.03    1.51
 -21  -7   0   -0.55    1.34
 -21  -7  -2    3.29    1.19
 -21  -7   2    3.23    1.04
   7 -21   2    2.92    0.98
  -7  21   2    3.53    0.98
 -21  -7   2    3.31    1.19
 -21  -7  -2    3.03    1.22
 -21  -7  -2    4.50    1.42
 -21  -7  -2    3.00    1.20
 -21  -7   2    3.77    1.08
  -7  21   4    4.87    0.78
  -7  21  -4    5.48    0.69
 -21  -7  -4    3.85    1.05
 -21  -7  -4    4.19    1.14
   7 -21  -4    6.45    1.09
   8 -21  -1   24.53    1.48
 -21  -8   1   20.64    1.49
 -21  -8  -1   20.11    1.52
 -21  -8  -1   20.11    1.71
 -21  -8  -1   25.48    1.72
 -21  -8   1   21.91    1.61
 -21  -8  -1   24.26    1.71
 -21  -8   1   22.41    1.57
   8 -21   1   24.77    1.43
  -8  21   3   23.40    1.34
 -21  -8  -3   20.85    1.41
  -8  21  -3   21.63    1.36
 -21  -8  -3   18.80    1.31
 -21  -8  -3   20.74    1.31
  -8  21  -5    0.65    0.88
 -21  -8  -5    0.39    0.57
   8 -21  -5    0.74    0.63
 -21  -9   0   -0.09    1.23
   9 -21   0   -0.45    0.86
 -21  -9   0   -0.68    1.07
 -21  -9   0   -1.39    1.30
 -21  -9  -2    7.50    1.21
 -21  -9   2    7.89    1.09
   9 -21  -2    8.16    1.02
  -9  21   2    7.94    1.16
 -21  -9   2    6.49    1.20
 -21  -9  -2    7.31    1.13
 -21  -9  -2    4.52    1.24
 -21  -9  -2    8.66    1.25
 -21  -9   2    8.40    1.15
   9 -21   2    8.76    0.99
  -9  21   4    3.37    0.76
  -9  21  -4    3.54    0.70
 -21  -9  -4    2.98    0.78
  10 -21  -1   64.69    2.41
 -21 -10   1   61.29    2.40
 -21 -10  -1   58.64    2.39
 -21 -10  -1   71.28    2.67
 -21 -10   1   68.35    2.61
 -21 -10  -1   67.23    2.64
 -21 -10   1   63.06    2.58
  10 -21   1   65.45    2.40
  10 -21  -3    6.28    0.83
 -10  21   3    8.88    1.06
 -10  21  -3    7.95    1.12
 -21 -10  -3    5.80    0.85
 -21 -10  -3    5.71    0.92
 -21 -10  -3    7.12    0.92
 -10  21  -5    3.51    0.77
 -21 -11   0    0.24    1.18
  11 -21   0    0.05    0.69
 -21 -11   0    0.64    0.79
 -21 -11   0   -0.83    1.19
 -21 -11  -2   -0.77    1.01
 -21 -11   2   -0.02    0.89
 -11  21   2   -0.14    0.99
  11 -21  -2    0.29    0.65
 -11  21  -2    1.19    1.23
 -21 -11  -2   -0.06    0.97
 -21 -11   2   -0.55    0.94
 -11  21   4    1.31    0.68
 -11  21  -4    0.49    0.65
 -21 -12  -1    6.63    1.16
 -21 -12   1    6.88    1.10
  12 -21  -1    3.86    0.65
 -21 -12  -1    5.02    1.19
 -21 -12   1    4.58    1.15
  12 -21   1    5.44    0.68
 -12  21   3   18.44    1.16
 -12  21  -3   20.14    1.27
 -21 -12  -3   15.43    1.07
 -21 -12  -3   15.16    1.00
 -12  21  -5    0.87    0.48
 -21 -13   0   -0.12    1.13
 -21 -13   0   -0.65    1.11
 -13  21  -2   20.06    1.45
 -21 -13  -2   18.34    1.25
 -21 -13   2   19.04    1.20
 -21 -13  -2   18.05    1.24
 -21 -13   2   16.69    1.17
 -13  21   4    8.93    0.69
 -13  21  -4    9.03    0.75
 -21 -14  -1    1.39    0.96
 -21 -14   1    0.97    0.95
 -21 -14  -1    0.94    1.01
 -21 -14   1    1.13    0.98
 -21 -14  -3    5.67    0.69
 -21 -14  -3    5.34    0.60
 -21 -15   0    0.05    0.93
 -21 -15   0    0.28    0.93
 -21 -15  -2   21.20    1.18
 -21 -15  -2   22.37    1.18
 -21 -15   2   21.01    1.13
 -16  21   1   40.48    1.61
 -16  21   1   38.28    1.68
 -21 -16  -1   36.58    1.62
 -21 -16   1   37.54    1.61
 -21 -16  -1   38.97    1.63
 -21 -16   1   37.48    1.60
 -16  21  -3    2.86    0.91
 -16  21   3    2.95    0.51
 -16  21  -3    2.08    0.67
 -21 -17   0   -0.96    0.71
 -17  21   0   -0.21    0.65
 -17  21   0   -0.41    0.78
 -21 -17   0    0.04    0.71
 -21 -17  -2    1.52    0.51
 -17  21   2    2.37    0.56
 -21 -17  -2    2.05    0.57
 -18  21   1   11.13    0.70
 -18  21  -1   13.23    0.83
 -21 -18  -1   10.04    0.77
 -21 -18   1    9.36    0.73
 -21 -18  -1   11.81    0.75
 -21 -18   1   10.30    0.75
 -21 -19   0   -0.03    0.45
 -19  21   0   -0.38    0.35
 -21 -19   0   -0.24    0.44
 -18 -22   0    3.31    0.46
 -18 -22   0    3.92    0.49
 -17 -22  -1    0.01    0.53
 -17 -22   1   -0.02    0.49
 -17 -22  -1   -0.04    0.51
 -17 -22   1   -0.01    0.48
 -16 -22   0   20.02    1.09
 -16 -22   0   20.32    1.10
 -16 -22  -2    8.44    0.76
 -16 -22  -2    6.65    0.61
 -15 -22  -1   15.39    1.15
 -15 -22  -1   16.11    1.09
 -15 -22   1   13.40    1.02
 -15 -22  -1   15.95    1.03
 -15 -22   1   14.89    1.03
 -15 -22  -3   11.84    0.80
 -14 -22   0  104.85    3.45
 -14 -22   0   97.80    3.44
 -14 -22  -2   -0.49    0.69
 -14 -22  -2   -0.22    0.87
 -14 -22  -2   -0.35    0.71
 -13 -22  -1    2.40    0.99
 -13 -22   1    2.31    1.04
 -13 -22  -1    3.35    1.14
 -13 -22  -1    3.36    1.06
 -13 -22  -1    2.47    1.07
 -13 -22   1    3.12    1.02
 -13 -22  -3   -0.66    0.74
 -13 -22  -3   -0.11    0.49
 -12 -22   0   26.35    1.70
 -12 -22   0   23.70    1.58
 -12 -22  -2   14.84    1.19
 -12 -22  -2   14.72    1.29
 -12 -22  -2   14.21    1.12
 -12 -22   2   14.15    1.17
 -12 -22  -4    0.45    0.61
 -12 -22  -4    1.35    0.61
 -11 -22  -1   46.39    2.27
 -11 -22   1   47.85    2.22
 -11 -22  -1   49.03    2.26
 -11 -22  -1   47.18    2.19
 -11 -22   1   52.65    2.29
 -11 -22  -3    0.15    0.63
 -11 -22  -3    0.92    0.91
 -11 -22  -3    0.22    0.95
 -11 -22  -3    0.80    0.71
 -11 -22  -5    0.15    0.38
 -10 -22   0   27.05    1.79
 -10 -22   0   21.78    1.93
 -10 -22   0   25.70    1.74
 -10 -22   0   24.54    1.90
 -10 -22  -2    0.33    0.99
 -10 -22   2    1.00    1.06
 -10 -22  -2    0.63    1.14
 -22  10  -2    0.57    0.92
 -10 -22  -2    0.74    1.14
 -10 -22   2    1.10    1.02
 -10 -22  -2   -0.38    1.20
 -10 -22  -4    7.93    0.85
 -10 -22  -4    9.28    0.95
  -9 -22  -1   76.36    2.93
  -9 -22  -1   77.45    3.12
  -9 -22   1   80.42    3.10
  -9 -22  -1   77.83    3.02
  -9 -22   1   84.16    3.13
  -9 -22  -1   77.96    3.00
  -9 -22  -3   -0.24    0.76
 -22   9  -3    0.41    0.89
  -9 -22  -3   -0.63    1.00
  -9 -22  -3   -0.16    0.88
  -9 -22  -3   -0.59    1.14
  -9 -22  -5   38.43    1.46
 -22   9  -5   50.36    1.65
 -22   8   0    4.10    1.12
  -8 -22   0    4.54    1.37
  -8 -22   0    4.40    1.55
  -8 -22   2    1.87    1.20
  -8 -22  -2    2.25    1.21
 -22   8   2    1.22    1.05
 -22   8  -2    2.76    1.01
  -8 -22  -2    3.54    1.20
 -22   8  -2    2.79    1.15
  -8 -22  -2    2.70    1.32
  -8 -22   2    2.94    1.18
 -22   8  -4   47.97    1.78
  -8 -22  -4   39.96    1.77
  -7 -22  -1   53.38    2.07
 -22   7   1   51.56    2.28
 -22   7  -1   50.19    2.27
  -7 -22  -1   49.18    2.38
 -22   7  -1   56.55    2.40
  -7 -22   1   61.18    2.80
  -7 -22  -1   55.81    2.72
  -7 -22   1   55.44    2.06
 -22   7  -3   42.53    1.91
 -22   7  -3   46.69    2.03
  -7 -22  -3   45.63    2.01
  -7 -22  -3   45.19    1.99
  -7 -22  -3   41.87    1.86
 -22   7  -5    9.62    0.75
  -7 -22  -5    6.89    0.63
  -7 -22  -5    9.23    0.84
 -22   7  -5    9.72    0.99
  -6 -22   0  229.69    6.92
 -22   6   0  231.59    7.06
  -6 -22   0  222.50    7.20
 -22   6   0  229.87    7.19
 -22   6   2   29.71    1.73
 -22   6  -2   27.00    1.66
 -22   6  -2   29.07    1.79
  -6 -22  -2   24.28    1.64
  -6 -22  -2   26.49    1.86
  -6 -22   2   29.13    1.94
  -6 -22  -2   27.08    1.84
  -6 -22   2   29.03    1.37
 -22   6  -4   19.87    1.29
 -22   6  -4   23.09    1.37
  -6 -22  -4   16.83    1.19
  -6 -22  -4   19.88    1.37
 -22   6  -4   20.41    1.47
  -5 -22  -1    9.47    1.10
 -22   5   1   10.69    1.43
 -22   5  -1    8.57    1.36
  -5 -22  -1    8.39    1.30
 -22   5  -1    8.53    1.55
  -5 -22  -1   11.32    1.55
  -5 -22   1    9.50    1.01
 -22   5  -3   10.32    1.31
  -5 -22  -3    7.75    1.08
  -5 -22  -3   12.14    1.12
 -22   5  -3   10.15    1.39
  -5 -22  -3    8.81    1.33
  -5 -22  -3   10.06    1.17
 -22   5  -5    3.81    0.81
 -22   5  -5    4.15    0.84
  -5 -22  -5    2.13    0.49
  -5 -22  -5    3.57    0.80
 -22   5  -5    4.12    1.04
 -22   4   0   55.13    2.61
  -4 -22   0   53.50    2.20
 -22   4   0   50.61    2.43
  -4 -22   0   50.84    2.40
 -22   4   0   57.71    2.64
  -4 -22   0   57.40    2.64
 -22   4   2   11.66    1.54
 -22   4  -2    9.32    1.42
 -22   4  -2   12.20    1.62
  -4 -22  -2    9.89    1.23
  -4 -22  -2   10.96    1.47
  -4 -22   2   11.56    1.10
 -22   4  -4    5.65    1.14
 -22   4  -4    5.95    1.21
  -4 -22  -4    4.07    0.81
  -4 -22  -4    6.24    0.96
  -4 -22  -4    6.54    1.09
 -22   4  -4    6.02    1.25
  -3 -22   1  220.41    6.82
  -3 -22  -1  222.58    6.87
 -22   3   1  226.54    6.96
 -22   3  -1  224.00    6.95
  -3 -22  -1  209.49    6.92
 -22   3  -1  223.11    7.04
  -3 -22  -1  223.70    7.11
 -22   3  -1  220.01    7.08
 -22   3   1  219.88    7.03
 -22   3  -1  241.10    7.08
 -22   3   1  215.83    6.99
 -22   3   3   31.98    2.15
 -22   3  -3   29.02    1.76
 -22   3  -3   31.51    1.88
  -3 -22  -3   24.45    1.48
  -3 -22  -3   31.10    1.59
  -3 -22  -3   28.95    1.80
  -3 -22  -3   27.37    1.66
 -22   3  -5   50.66    1.96
 -22   3  -5   53.68    2.00
  -3 -22  -5   56.44    1.84
  -3 -22  -5   43.12    1.85
 -22   3  -5   47.54    2.10
  -2 -22   0   47.99    2.12
 -22   2   0   56.36    2.44
  -2 -22   0   43.66    2.24
 -22   2   0   51.69    2.65
  -2 -22   0   53.21    2.53
 -22   2   0   51.47    2.46
 -22   2   2   59.29    2.59
 -22   2  -2   55.05    2.53
 -22   2  -2   62.64    2.68
  -2 -22  -2   52.34    2.29
  -2 -22  -2   59.92    2.33
  -2 -22  -2   57.30    2.53
 -22   2  -2   54.87    2.46
 -22   2   2   55.54    2.44
  -2 -22   2   56.77    2.24
 -22   2  -2   57.39    2.48
 -22   2   2   56.28    2.40
 -22   2  -4   37.79    1.83
 -22   2  -4   37.78    1.89
  -2 -22  -4   35.93    1.64
  -2 -22  -4   27.82    1.67
 -22   2  -4   30.63    1.83
 -22   2  -6    3.01    0.51
 -22   2  -6    2.27    0.53
  -1 -22   1   83.35    3.05
  -1 -22  -1   86.09    3.11
 -22   1   1   94.06    3.32
 -22   1  -1   79.39    3.23
  -1 -22  -1   75.00    3.05
  -1 -22  -1   87.26    3.32
 -22   1  -1   83.61    3.29
 -22   1   1   82.36    3.29
 -22   1  -1   85.31    3.33
 -22   1   1   83.12    3.23
 -22   1  -3    5.96    1.15
 -22   1   3    7.80    1.57
 -22   1  -3    8.15    1.50
  -1 -22  -3    5.91    1.19
  -1 -22  -3    8.99    1.26
 -22   1  -5   46.66    1.87
  -1 -22  -5   56.12    1.74
 -22   0   0    0.03    1.40
   0 -22   0   -0.29    1.07
   0 -22   0    1.00    1.27
 -22   0  -2   -0.40    1.21
 -22   0   2    0.68    1.09
   0 -22   2    0.11    1.02
   0 -22  -2    0.06    1.26
   0 -22  -2    0.29    1.11
 -22   0  -2   -0.97    1.20
 -22   0   2    0.66    1.14
   0 -22  -4    8.05    0.99
 -22   0  -4    7.82    1.36
   0 -22  -6   25.79    0.98
   1 -22   1   53.73    2.19
 -22  -1  -1   51.08    2.63
   1 -22  -1   45.82    2.31
 -22  -1  -1   46.83    2.40
 -22  -1   1   45.70    2.33
 -22  -1  -1   48.55    2.40
 -22  -1   1   49.40    2.33
 -22  -1  -3   46.67    2.25
   1 -22  -3   38.50    1.94
 -22  -1  -3   36.59    1.85
   1 -22   3   48.31    1.93
 -22  -1  -3   40.64    1.87
 -22  -1  -5    5.30    1.05
 -22  -2   0   57.30    2.66
 -22  -2   0   59.29    2.86
 -22  -2   0   57.19    2.63
 -22  -2   0   59.98    2.66
 -22  -2   2   21.28    1.79
 -22  -2  -2   20.61    1.77
 -22  -2  -2   23.91    1.97
   2 -22  -2   20.07    1.51
 -22  -2  -2   20.80    1.60
 -22  -2   2   19.17    1.47
 -22  -2  -2   20.13    1.56
 -22  -2   2   19.58    1.43
 -22  -2  -4   32.50    1.78
 -22  -2  -4   38.59    1.83
 -22  -2  -6    5.51    0.56
 -22  -2  -6    2.24    0.53
   3 -22  -1   64.36    2.63
 -22  -3   1   65.08    2.73
 -22  -3  -1   60.82    2.72
 -22  -3  -1   65.80    2.91
   3 -22  -1   57.67    2.60
 -22  -3  -1   61.92    2.72
 -22  -3   1   64.04    2.68
 -22  -3  -1   68.37    2.75
 -22  -3   1   61.72    2.62
  -3  22   3   60.74    2.22
 -22  -3   3   72.79    3.00
 -22  -3  -3   77.80    2.78
 -22  -3  -3   73.83    2.83
   3 -22  -3   62.03    2.43
 -22  -3  -3   65.49    2.50
 -22  -3  -3   67.58    2.49
 -22  -3  -5    8.86    1.01
   3 -22  -5   10.00    0.94
   4 -22   0   10.07    1.27
 -22  -4   0   11.22    1.53
 -22  -4   0   12.00    1.86
 -22  -4   0   11.13    1.60
 -22  -4   0   10.65    1.58
 -22  -4  -2    0.65    1.16
 -22  -4   2   -0.67    1.08
   4 -22   2    0.63    0.97
  -4  22   2    0.33    0.73
 -22  -4   2   -0.31    1.34
 -22  -4  -2    0.66    1.31
 -22  -4  -2   -0.21    1.55
 -22  -4  -2    0.36    1.14
 -22  -4   2   -0.40    1.08
 -22  -4  -4    9.42    1.23
 -22  -4  -4    7.70    1.28
   4 -22  -4   11.15    1.18
 -22  -5  -1    1.58    1.30
 -22  -5   1    0.90    1.21
   5 -22   1    2.24    1.05
   5 -22  -1    1.65    1.07
 -22  -5   1    1.72    1.35
 -22  -5  -1    1.25    1.30
 -22  -5  -1    2.33    1.57
 -22  -5  -1   -0.53    1.35
 -22  -5   1   -0.02    1.19
 -22  -5  -3    0.13    0.85
  -5  22   3    0.04    0.72
  -5  22  -3   -0.41    0.75
 -22  -5  -3    0.15    1.20
 -22  -5  -3    0.16    1.32
   5 -22  -3   -0.42    1.20
 -22  -5  -3   -0.02    0.95
 -22  -5  -5    2.17    0.76
 -22  -5  -5    1.52    0.82
   5 -22  -5    3.37    0.80
   6 -22   0   20.74    1.50
 -22  -6   0   21.83    1.62
 -22  -6   0   21.73    1.92
 -22  -6   0   20.43    1.71
 -22  -6   0   22.56    1.74
  -6  22   2   26.45    1.39
 -22  -6   2   24.92    1.67
 -22  -6  -2   21.83    1.67
 -22  -6  -2   24.43    1.82
 -22  -6  -2   24.89    1.63
 -22  -6   2   24.85    1.51
   6 -22   2   31.06    1.56
 -22  -6  -2   23.95    1.59
 -22  -6   2   24.64    1.46
  -6  22   4   26.05    1.14
 -22  -6  -4   26.11    1.45
 -22  -7  -1    5.59    1.32
 -22  -7   1    4.87    1.20
   7 -22   1    4.47    1.07
   7 -22  -1    5.38    1.11
 -22  -7   1    6.58    1.23
 -22  -7  -1    3.94    1.23
 -22  -7  -1    4.76    1.47
 -22  -7  -1    5.41    1.35
 -22  -7   1    5.72    1.23
  -7  22   3   10.47    0.97
 -22  -7  -3   10.41    1.21
  -7  22  -3   11.05    1.02
 -22  -7  -3    8.60    1.34
 -22  -7  -3   11.07    1.07
 -22  -7  -3   10.52    1.04
 -22  -7  -5    7.94    0.65
  -7  22  -5    4.49    0.58
 -22  -8   0    1.26    1.24
   8 -22   0    1.49    0.94
 -22  -8   0    0.21    1.09
 -22  -8   0    0.71    1.28
 -22  -8  -2    5.72    1.09
 -22  -8   2    3.50    0.94
   8 -22   2    5.61    0.96
  -8  22   2    4.10    0.93
   8 -22  -2    4.44    0.97
 -22  -8   2    2.83    1.08
 -22  -8  -2    4.52    1.08
 -22  -8  -2    2.98    1.24
 -22  -8  -2    5.48    1.18
 -22  -8   2    5.17    1.03
  -8  22   4    4.41    0.65
 -22  -8  -4    3.03    0.77
 -22  -9  -1    7.09    1.25
 -22  -9   1    5.91    1.16
   9 -22   1    5.15    0.92
   9 -22  -1    6.24    0.94
 -22  -9   1    6.59    1.06
 -22  -9  -1    5.27    1.04
 -22  -9  -1    7.19    1.27
 -22  -9   1    5.69    1.17
 -22  -9  -3    0.64    0.75
  -9  22   3    1.66    0.78
   9 -22  -3    0.42    0.73
  -9  22  -3    1.05    0.88
 -22  -9  -3    0.57    0.80
 -22  -9  -3    0.99    0.83
  -9  22  -5   27.35    1.04
 -22 -10   0    1.40    1.19
  10 -22   0   -0.41    0.76
 -22 -10   0   -0.03    0.86
 -22 -10   0   -0.11    1.12
  10 -22  -2   22.87    1.23
 -22 -10  -2   20.78    1.22
 -10  22  -2   26.03    1.59
 -22 -10  -2   23.16    1.47
 -22 -10   2   24.34    1.37
 -22 -10  -2   23.93    1.43
 -22 -10   2   22.77    1.34
 -10  22   4    5.58    0.63
 -10  22  -4    4.54    0.54
 -22 -11  -1    0.50    1.03
 -22 -11   1    2.56    1.07
  11 -22   1    1.69    0.64
  11 -22  -1    1.17    0.66
 -22 -11  -1    1.69    1.14
 -22 -11   1    1.88    1.04
  11 -22  -3    4.50    0.54
 -11  22   3    7.15    0.85
 -11  22  -3    7.38    0.93
 -22 -11  -3    5.65    0.79
 -22 -11  -3    6.06    0.75
 -22 -12   0    1.41    1.03
 -22 -12   0    0.96    1.06
 -22 -12  -2    0.93    0.88
 -22 -12   2    0.97    0.80
 -12  22   2    0.96    0.88
 -12  22  -2    0.88    1.07
 -22 -12  -2    1.25    0.91
 -22 -12   2    1.43    0.82
 -12  22  -4    9.03    0.57
 -22 -13  -1    0.71    0.88
 -22 -13   1    1.07    0.90
 -13  22   1    1.27    0.90
 -22 -13  -1    0.87    0.97
 -22 -13   1    0.32    0.90
 -22 -13  -3    1.56    0.43
 -13  22   3    3.19    0.66
 -22 -13  -3    2.44    0.52
 -22 -14   0   22.45    1.31
 -22 -14   0   19.85    1.31
 -22 -14  -2    3.90    0.75
 -14  22  -2    4.23    0.94
 -22 -14  -2    4.53    0.80
 -22 -15  -1    0.18    0.76
 -22 -15   1    1.22    0.75
 -15  22  -1    0.89    0.95
 -22 -15  -1    0.38    0.78
 -22 -15   1    0.64    0.74
 -15  22  -3    6.35    0.92
 -15  22  -3    5.28    0.63
 -16  22   0  132.72    3.81
 -16  22   0  127.28    3.88
 -22 -16   0  126.36    3.85
 -22 -16  -2    0.86    0.45
 -16  22   2    1.39    0.51
 -22 -16  -2    1.77    0.50
 -22 -17  -1    0.66    0.53
 -22 -17   1   -0.13    0.51
 -17  22   1   -0.06    0.48
 -17  22  -1    0.19    0.60
 -22 -17  -1   -0.12    0.52
 -22 -17   1    0.52    0.47
 -22 -18   0    0.07    0.40
 -18  22   0    0.30    0.34
 -22 -18   0    0.96    0.41
 -17 -23   0    0.13    0.35
 -17 -23   0   -0.04    0.37
 -16 -23  -1    2.45    0.49
 -16 -23   1    1.10    0.46
 -16 -23  -1    1.92    0.49
 -16 -23   1    1.47    0.45
 -15 -23   0   -0.41    0.68
 -15 -23   0    0.82    0.63
 -15 -23  -2   54.63    1.68
 -15 -23  -2   40.33    1.50
 -14 -23  -1   58.81    2.22
 -14 -23  -1   60.12    2.17
 -14 -23   1   64.52    2.14
 -14 -23  -1   62.52    2.14
 -13 -23   0   -0.10    0.92
 -13 -23   0    0.12    0.92
 -13 -23  -2    7.07    0.78
 -13 -23  -2    5.69    0.87
 -13 -23  -2    6.90    0.75
 -12 -23  -1    5.16    0.99
 -12 -23   1    4.85    1.03
 -12 -23  -1    5.54    1.06
 -12 -23  -1    5.83    1.08
 -12 -23   1    6.56    1.05
 -12 -23  -3    3.92    0.75
 -12 -23  -3    3.74    0.74
 -11 -23   0    0.27    1.15
 -11 -23   0    0.28    1.19
 -11 -23  -2    1.31    0.81
 -11 -23   2    0.96    0.86
 -11 -23  -2    1.10    0.95
 -11 -23  -2    1.21    0.97
 -11 -23  -2    0.85    0.90
 -11 -23  -4    9.23    0.67
 -11 -23  -4    9.73    0.73
 -10 -23  -1   67.47    2.75
 -10 -23  -1   71.29    2.85
 -10 -23   1   71.71    2.81
 -10 -23  -1   77.40    2.87
 -10 -23  -1   70.49    2.74
 -10 -23   1   75.66    2.83
 -10 -23  -3    1.42    0.54
 -10 -23  -3    2.19    0.83
 -10 -23  -3    2.53    0.90
 -10 -23  -3    2.20    0.66
  -9 -23   0    0.17    1.18
  -9 -23   0    0.80    1.26
  -9 -23   0    0.47    1.42
  -9 -23  -2   18.91    1.36
  -9 -23  -2   19.56    1.41
  -9 -23   2   19.90    1.33
  -9 -23  -2   21.46    1.52
  -9 -23  -2   19.20    1.31
  -9 -23   2   19.86    1.34
  -9 -23  -4    9.88    0.80
  -8 -23   1    2.12    1.41
  -8 -23  -1    1.86    1.29
  -8 -23  -1    3.13    1.24
 -23   8  -1    2.57    1.19
  -8 -23   1    3.03    1.33
  -8 -23  -1    3.75    1.37
  -8 -23  -3    2.03    0.72
  -8 -23  -3    0.77    0.90
 -23   8  -3    1.29    0.87
  -8 -23  -3    1.62    0.83
  -8 -23  -5    2.31    0.43
 -23   7   0    0.76    1.07
  -7 -23   0    1.59    1.18
  -7 -23   2    0.68    1.15
  -7 -23  -2    0.70    1.08
 -23   7   2    1.05    1.05
 -23   7  -2    1.33    1.00
  -7 -23  -2    1.32    1.01
 -23   7  -2    0.04    1.12
  -7 -23   2    0.91    1.08
 -23   7  -4   20.62    1.10
  -7 -23  -4   20.20    1.22
  -6 -23  -1   20.83    1.23
 -23   6   1   22.28    1.54
 -23   6  -1   22.63    1.53
  -6 -23  -1   21.56    1.55
 -23   6  -1   20.54    1.64
  -6 -23   1   25.97    2.06
  -6 -23  -1   22.66    1.88
  -6 -23   1   23.16    1.22
  -6 -23  -3    0.92    0.79
 -23   6  -3    0.95    0.98
  -6 -23  -3    0.90    0.86
 -23   6  -3    1.19    1.07
  -6 -23  -3    0.98    0.97
  -6 -23  -3    0.31    1.08
  -6 -23  -5    0.40    0.51
  -5 -23   0    0.93    0.85
 -23   5   0    0.66    1.24
  -5 -23   0   -0.46    1.17
 -23   5   0    0.80    1.49
  -5 -23   0    0.12    1.44
  -5 -23  -2   47.91    1.94
 -23   5   2   52.45    2.21
 -23   5  -2   45.99    2.11
  -5 -23  -2   44.87    2.09
 -23   5  -2   48.98    2.21
  -5 -23  -2   50.80    2.29
  -5 -23   2   48.34    2.34
  -5 -23  -2   48.69    2.27
  -5 -23   2   47.73    1.89
 -23   5  -4   10.40    1.02
 -23   5  -4   12.81    1.12
  -5 -23  -4   10.30    1.03
  -4 -23  -1  328.37    9.68
 -23   4   1  320.30    9.77
 -23   4  -1  308.44    9.74
  -4 -23  -1  313.73    9.81
 -23   4  -1  347.91    9.88
  -4 -23  -1  341.67   10.00
  -4 -23   1  331.81    9.67
  -4 -23  -3    0.11    0.87
 -23   4  -3    0.41    1.11
  -4 -23  -3    0.99    0.82
 -23   4  -3   -0.06    1.19
  -4 -23  -3    0.28    1.04
 -23   4  -5    7.16    0.75
 -23   4  -5    7.19    0.77
  -4 -23  -5    5.05    0.62
 -23   3   0    0.08    1.42
  -3 -23   0    1.12    0.93
 -23   3   0    0.23    1.34
 -23   3   0    1.84    1.53
  -3 -23   0    0.38    1.40
 -23   3   2   25.51    1.77
 -23   3  -2   19.96    1.64
  -3 -23  -2   21.21    1.41
 -23   3  -2   25.19    1.77
  -3 -23  -2   23.75    1.69
  -3 -23   2   26.36    1.38
 -23   3  -4    9.43    1.14
 -23   3  -4    9.04    1.14
  -3 -23  -4    9.98    0.96
  -3 -23  -4    6.73    0.98
  -2 -23  -1   51.55    2.19
 -23   2   1   58.53    2.48
 -23   2  -1   49.44    2.39
  -2 -23  -1   45.11    2.15
 -23   2  -1   55.01    2.57
  -2 -23  -1   54.03    2.46
 -23   2  -1   53.71    2.46
 -23   2   1   48.08    2.40
  -2 -23   1   52.24    2.14
 -23   2  -1   57.28    2.45
 -23   2   1   48.62    2.34
  -2 -23  -3    4.51    1.08
 -23   2  -3    6.39    1.30
 -23   2  -3    5.37    1.36
  -2 -23  -3    6.01    1.09
  -2 -23  -3    4.20    1.10
 -23   2  -5    8.42    0.87
 -23   2  -5    7.97    0.89
  -2 -23  -5    6.30    0.63
 -23   1   0    0.51    1.35
  -1 -23   0    0.82    1.03
 -23   1   0   -0.46    1.44
  -1 -23   0   -1.03    1.29
 -23   1   2   58.72    2.50
 -23   1  -2   59.78    2.50
  -1 -23  -2   53.25    2.38
 -23   1  -2   51.21    2.32
  -1 -23   2   56.15    2.19
 -23   1  -2   53.54    2.37
 -23   1   2   46.13    2.20
 -23   1  -4   11.46    1.23
  -1 -23  -4   12.68    1.07
  -1 -23  -4   10.05    0.98
   0 -23  -1   29.32    1.68
   0 -23  -1   26.83    1.80
 -23   0  -1   23.46    1.82
 -23   0   1   26.80    1.77
 -23   0  -1   28.62    1.87
 -23   0   1   25.51    1.74
   0 -23   1   25.95    1.56
   0 -23  -3    0.99    0.96
   0 -23  -3    4.12    1.19
   0 -23  -5   31.76    1.28
 -23  -1   0    0.03    1.34
   1 -23   0   -0.62    1.10
 -23  -1   0    0.25    1.72
 -23  -1   0    1.02    1.46
 -23  -1  -2   47.53    2.36
   1 -23  -2   40.70    2.01
 -23  -1  -2   42.24    2.06
 -23  -1   2   40.43    1.95
   1 -23   2   48.53    1.97
 -23  -1  -2   39.76    2.03
 -23  -1   2   38.55    1.89
   1 -23  -4    8.38    1.06
 -23  -1  -4    7.28    1.21
   1 -23  -4    4.66    0.74
 -23  -2   1  187.06    6.11
 -23  -2  -1  198.92    6.15
 -23  -2  -1  193.58    6.21
   2 -23  -1  176.40    6.09
 -23  -2  -1  202.07    6.15
 -23  -2   1  180.39    6.02
 -23  -2  -1  211.31    6.16
 -23  -2   1  184.45    6.02
 -23  -2  -3   16.80    1.51
 -23  -2  -3   16.67    1.56
   2 -23  -3   14.27    1.11
 -23  -2  -3   13.03    1.16
 -23  -2  -3   14.54    1.18
 -23  -2  -5    0.63    0.75
 -23  -2  -5    0.02    0.77
 -23  -3   0    0.56    1.37
 -23  -3   0    0.66    1.40
 -23  -3   0   -1.27    1.70
 -23  -3   0   -1.10    1.35
 -23  -3   2   39.50    2.03
 -23  -3  -2   39.44    2.03
 -23  -3  -2   38.46    2.10
   3 -23  -2   31.13    1.67
 -23  -3  -2   41.06    1.90
 -23  -3   2   33.73    1.74
 -23  -3  -2   41.17    1.88
 -23  -3   2   34.01    1.73
 -23  -3  -4   26.62    1.48
 -23  -3  -4   21.99    1.51
   4 -23  -1    9.81    1.26
 -23  -4   1   10.62    1.46
 -23  -4  -1   10.46    1.46
 -23  -4  -1   13.35    1.71
 -23  -4  -1   11.08    1.37
 -23  -4   1    9.03    1.35
 -23  -4  -1    9.01    1.37
 -23  -4   1    9.49    1.34
   4 -23   1   11.78    1.24
 -23  -4  -3    3.88    0.86
 -23  -4  -3    3.36    1.19
 -23  -4  -3    4.12    1.33
 -23  -4  -3    2.81    0.89
 -23  -4  -5    0.06    0.63
 -23  -4  -5    0.14    0.67
 -23  -5   0    0.59    1.31
   5 -23   0   -0.02    1.08
 -23  -5   0   -0.86    1.29
 -23  -5   0   -0.47    1.51
 -23  -5   0    0.92    1.31
   5 -23  -2   11.45    1.28
  -5  23   2   10.00    0.89
 -23  -5   2   11.77    1.37
 -23  -5  -2   10.42    1.40
 -23  -5  -2   12.49    1.57
 -23  -5  -2   13.10    1.28
 -23  -5   2    9.92    1.12
   5 -23   2   13.95    1.21
 -23  -5  -2   11.44    1.24
 -23  -5   2    9.57    1.10
 -23  -5  -4   30.79    1.41
 -23  -5  -4   19.76    1.40
   6 -23  -1   21.07    1.46
 -23  -6   1   20.18    1.53
 -23  -6  -1   18.85    1.53
 -23  -6  -1   15.80    1.70
 -23  -6  -1   21.40    1.57
 -23  -6   1   20.78    1.48
 -23  -6  -1   22.62    1.55
 -23  -6   1   21.12    1.50
   6 -23   1   19.97    1.39
  -6  23   3   14.55    0.90
 -23  -6  -3   13.87    1.26
  -6  23  -3   18.42    0.96
 -23  -6  -3   10.33    1.35
 -23  -6  -3   14.14    1.07
 -23  -6  -3   14.69    1.05
   6 -23  -5   19.46    0.79
 -23  -6  -5   15.28    0.77
 -23  -7   0    0.31    1.19
   7 -23   0   -0.35    0.95
 -23  -7   0    0.87    1.10
 -23  -7   0   -0.69    1.20
   7 -23  -2   34.28    1.62
  -7  23   2   32.32    1.44
 -23  -7   2   28.42    1.66
 -23  -7  -2   27.39    1.61
 -23  -7  -2   25.05    1.76
 -23  -7  -2   31.39    1.61
 -23  -7   2   29.03    1.54
   7 -23   2   34.53    1.56
 -23  -7  -2   33.02    1.66
 -23  -7   2   30.63    1.54
   7 -23  -4   16.48    0.94
 -23  -7  -4   14.71    0.97
 -23  -8  -1   -0.23    1.09
 -23  -8   1    0.83    1.03
   8 -23   1   -0.29    0.84
   8 -23  -1   -0.14    0.86
 -23  -8   1    1.98    1.00
 -23  -8  -1   -0.37    0.99
 -23  -8  -1    0.92    1.21
 -23  -8  -1   -0.17    1.09
 -23  -8   1    0.42    1.01
 -23  -8  -3    1.53    0.74
  -8  23   3    1.14    0.65
   8 -23  -3    1.52    0.73
  -8  23  -3    1.53    0.70
 -23  -8  -3    1.20    0.81
 -23  -8  -3    0.73    0.73
 -23  -9   0    1.26    1.13
   9 -23   0    0.11    0.77
 -23  -9   0   -0.35    0.89
 -23  -9   0   -0.35    1.11
 -23  -9  -2    1.70    0.93
 -23  -9   2    0.81    0.80
  -9  23   2    1.20    0.78
   9 -23  -2    1.28    0.76
 -23  -9  -2    0.98    0.84
  -9  23  -2    1.12    0.98
 -23  -9  -2    0.25    0.94
 -23  -9   2    1.13    0.86
   9 -23  -4    3.75    0.43
  10 -23  -1   24.64    1.25
 -23 -10   1   23.56    1.32
 -23 -10  -1   23.56    1.24
 -23 -10  -1   30.52    1.59
 -23 -10   1   27.22    1.50
  10 -23   1   26.33    1.26
 -23 -10  -1   31.79    1.53
 -23 -10   1   26.78    1.46
 -23 -10  -3    0.87    0.56
 -10  23   3    1.04    0.63
  10 -23  -3    1.43    0.47
 -10  23  -3    1.09    0.65
 -23 -10  -3    0.31    0.61
 -23 -11   0    0.92    1.00
  11 -23   0    0.35    0.57
 -23 -11   0   -0.15    1.00
 -23 -11  -2    1.36    0.82
 -23 -11   2    1.47    0.77
 -11  23   2    1.35    0.78
  11 -23  -2    0.74    0.49
 -11  23  -2    1.32    0.93
 -23 -11  -2    1.40    0.81
 -11  23  -4   16.74    1.04
 -12  23   1   18.93    1.12
 -12  23  -1   17.54    1.36
 -23 -12  -1   16.75    1.17
 -23 -12   1   15.53    1.13
 -23 -12  -1   15.80    1.16
 -23 -12   1   15.13    1.15
 -12  23   3    0.24    0.53
 -12  23  -3    0.51    0.57
 -23 -12  -3   -0.01    0.34
 -23 -13   0   -0.37    0.87
 -23 -13   0   -0.35    0.86
 -13  23   2   54.59    1.80
 -13  23  -2   52.35    1.89
 -23 -13  -2   46.18    1.79
 -23 -13  -2   43.59    1.74
 -23 -14  -1   32.82    1.40
 -23 -14   1   31.92    1.38
 -23 -14   1   29.61    1.36
 -14  23   3   10.45    0.56
 -14  23  -3   11.44    0.61
 -14  23  -3    9.53    0.89
 -23 -15   0    0.91    0.67
 -15  23   0   -0.90    0.77
 -23 -15   0    0.55    0.65
 -23 -15  -2    1.46    0.39
 -23 -15  -2    1.70    0.42
 -16  23  -1   25.15    0.99
 -23 -16  -1   21.24    0.91
 -23 -16   1   18.54    0.85
 -23 -16  -1   20.10    0.89
 -23 -16   1   15.26    0.85
 -23 -17   0   -0.10    0.36
 -17  23   0    0.01    0.33
 -17  23   0   -0.12    0.37
 -23 -17   0   -0.05    0.37
 -15 -24  -1    4.75    0.49
 -15 -24  -1    5.17    0.48
 -15 -24   1    4.27    0.47
 -14 -24   0    3.44    0.65
 -14 -24   0    2.73    0.62
 -13 -24  -1    8.56    0.84
 -13 -24   1    9.94    0.81
 -13 -24  -1   11.49    0.82
 -13 -24   1    9.96    0.84
 -13 -24  -3    0.85    0.38
 -12 -24   0  112.35    3.58
 -12 -24   0  106.35    3.53
 -12 -24  -2    0.85    0.54
 -12 -24  -2    1.24    0.70
 -12 -24  -2    0.17    0.72
 -12 -24  -2    0.58    0.56
 -11 -24   1    7.11    1.02
 -11 -24  -1    8.46    1.02
 -11 -24  -1    9.35    1.03
 -11 -24   1    7.31    0.99
 -11 -24  -1    8.69    1.01
 -11 -24  -3    8.88    0.77
 -11 -24  -3   11.08    0.85
 -10 -24   0  236.70    7.14
 -10 -24   0  230.00    7.08
 -10 -24  -2    7.87    0.95
 -10 -24  -2    9.28    1.08
 -10 -24  -2    6.16    0.91
 -10 -24  -2    7.22    0.84
 -10 -24   2    6.66    0.85
 -10 -24  -4    0.65    0.41
  -9 -24  -1    1.22    1.04
  -9 -24   1    0.49    0.98
  -9 -24  -1    0.04    1.02
  -9 -24  -1    0.67    1.12
  -9 -24  -1    1.69    1.16
  -9 -24   1   -0.02    1.08
  -9 -24  -3    1.91    0.71
  -9 -24  -3    1.16    0.53
  -8 -24   0  163.71    5.34
  -8 -24  -2   16.33    1.23
 -24   8  -2   14.15    1.17
  -8 -24  -2   16.87    1.25
  -8 -24  -2   17.24    1.16
  -8 -24   2   18.51    1.24
  -8 -24  -4    1.85    0.43
  -8 -24  -4    3.76    0.64
  -7 -24   1    5.17    1.32
  -7 -24  -1    7.29    1.24
 -24   7   1    5.68    1.05
 -24   7  -1    4.73    1.03
  -7 -24  -1    5.40    1.12
 -24   7  -1    6.20    1.21
  -7 -24   1    6.39    1.32
  -7 -24  -3    5.02    0.65
 -24   7  -3    7.97    0.93
  -7 -24  -3    4.83    0.78
  -7 -24  -3    7.16    0.81
  -7 -24  -3    5.91    0.99
 -24   6   0   55.87    2.25
  -6 -24   0   54.67    2.04
 -24   6   2   29.10    1.62
 -24   6  -2   27.86    1.53
  -6 -24  -2   26.14    1.50
 -24   6  -2   31.48    1.66
  -6 -24   2   31.81    1.63
  -6 -24  -2   33.47    1.78
  -6 -24   2   28.93    1.66
  -6 -24  -2   31.49    1.64
 -24   6  -4   45.55    1.39
  -6 -24  -4   43.91    1.45
  -5 -24   1   -0.48    1.38
  -5 -24  -1    0.79    1.34
  -5 -24   1    0.15    0.75
  -5 -24  -1    0.13    0.76
 -24   5   1    0.56    1.15
 -24   5  -1   -0.36    1.11
  -5 -24  -1    0.47    0.97
 -24   5  -1   -0.04    1.28
  -5 -24  -1    0.32    1.20
 -24   5  -3   11.84    1.09
  -5 -24  -3    8.13    0.86
 -24   5  -3   13.28    1.18
  -5 -24  -3   11.33    1.00
  -5 -24  -3   10.85    1.16
  -5 -24  -3    9.93    0.88
  -4 -24   0    0.22    0.83
 -24   4   0    1.39    1.23
  -4 -24  -2   32.03    1.50
 -24   4   2   33.83    1.71
 -24   4  -2   29.54    1.64
  -4 -24  -2   25.44    1.50
 -24   4  -2   36.54    1.82
  -4 -24  -2   31.31    1.81
  -4 -24   2   28.52    1.82
  -4 -24  -2   31.28    1.79
  -4 -24   2   35.94    1.45
 -24   4  -4   -0.10    0.76
 -24   4  -4    0.75    0.83
  -4 -24  -4    0.42    0.69
  -3 -24   1    6.04    0.97
  -3 -24  -1    5.67    1.00
 -24   3   1    6.91    1.33
 -24   3  -1    6.94    1.34
  -3 -24  -1    5.82    1.04
 -24   3  -1    8.17    1.47
  -3 -24  -1    5.15    1.32
  -3 -24  -3    3.35    0.82
  -3 -24  -3    3.30    0.82
 -24   3  -3    3.28    1.05
 -24   3  -3    6.08    1.20
  -3 -24  -3    5.18    1.02
 -24   3  -5    8.49    0.62
 -24   3  -5    6.83    0.61
 -24   2   0  176.80    5.70
  -2 -24   0  178.70    5.52
 -24   2   0  174.93    5.65
 -24   2   0  177.38    5.78
  -2 -24  -2   16.86    1.23
 -24   2   2   17.64    1.52
 -24   2  -2   18.21    1.48
 -24   2  -2   18.31    1.62
  -2 -24  -2   18.02    1.47
  -2 -24   2   17.87    1.18
 -24   2  -4   37.58    1.59
 -24   2  -4   38.00    1.64
  -1 -24  -1   16.07    1.29
 -24   1   1   16.05    1.59
 -24   1  -1   16.64    1.58
  -1 -24  -1   17.59    1.54
 -24   1  -1   14.75    1.51
 -24   1   1   13.50    1.45
  -1 -24   1   16.37    1.25
 -24   1  -1   17.33    1.53
 -24   1   1   14.36    1.43
  -1 -24  -3    7.14    0.98
 -24   1  -3    8.57    1.24
  -1 -24  -3    6.65    1.01
  -1 -24  -5    1.11    0.39
 -24   1  -5    1.94    0.57
   0 -24   0  411.48   11.81
 -24   0   0  390.30   11.87
 -24   0   0  400.59   11.88
 -24   0  -2   17.54    1.38
 -24   0   2   18.49    1.36
   0 -24  -2   19.91    1.37
   0 -24  -2   17.01    1.38
 -24   0  -2   16.63    1.38
   0 -24   2   20.43    1.27
   0 -24  -4   46.09    1.65
   1 -24  -1   25.77    1.55
 -24  -1  -1   24.45    1.89
 -24  -1  -1   23.12    1.62
 -24  -1   1   20.53    1.54
   1 -24   1   26.33    1.53
 -24  -1  -1   24.21    1.66
 -24  -1   1   20.25    1.54
 -24  -1  -3   14.47    1.36
   1 -24  -3   11.43    0.99
   1 -24  -5   23.14    0.90
 -24  -1  -5   15.23    0.93
 -24  -2   0   25.00    1.83
 -24  -2   0   26.56    2.02
 -24  -2   0   27.61    1.76
 -24  -2   0   25.98    1.72
 -24  -2   2   10.30    1.38
 -24  -2  -2    8.65    1.36
 -24  -2  -2   12.28    1.50
   2 -24  -2    7.47    1.03
 -24  -2  -2    9.17    1.23
 -24  -2   2    7.47    1.13
 -24  -2  -2    9.82    1.17
 -24  -2   2    8.66    1.08
 -24  -2  -4    8.55    1.00
 -24  -2  -4    6.63    1.05
 -24  -3   1   44.05    2.12
 -24  -3  -1   41.59    2.11
 -24  -3  -1   38.14    2.23
 -24  -3  -1   46.30    2.09
 -24  -3   1   41.06    1.98
 -24  -3  -1   43.43    2.06
 -24  -3   1   43.56    1.98
 -24  -3  -3    0.72    0.78
 -24  -3  -3    0.12    1.10
 -24  -3  -3    0.19    1.17
   3 -24  -5   51.79    1.60
 -24  -3  -5   45.62    1.61
 -24  -4   0    3.20    1.23
   4 -24   0    2.75    1.02
 -24  -4   0    1.84    1.25
 -24  -4   0    4.02    1.24
 -24  -4  -2    0.61    0.97
 -24  -4   2   -0.44    0.87
   4 -24   2    0.86    0.85
   4 -24  -2    0.63    0.95
 -24  -4   2    0.04    1.18
 -24  -4  -2    1.25    1.17
 -24  -4  -2    0.59    1.29
 -24  -4  -2    1.02    0.98
 -24  -4   2    1.52    0.95
 -24  -4  -4    6.40    0.88
 -24  -4  -4    2.93    0.90
   5 -24  -1    8.74    1.07
 -24  -5  -1    6.52    1.20
  -5  24   1    6.30    0.74
 -24  -5   1    6.59    1.27
 -24  -5  -1    5.65    1.26
 -24  -5  -1    4.96    1.46
 -24  -5  -1    7.30    1.21
 -24  -5   1    7.15    1.16
   5 -24   1    8.16    1.06
 -24  -5   1    8.06    1.14
   5 -24  -3   44.55    1.74
 -24  -5  -3   44.74    1.80
 -24  -5  -3   40.79    1.62
 -24  -5  -3   40.77    1.60
 -24  -6   0   20.75    1.49
 -24  -6   0   20.90    1.53
 -24  -6   0   23.27    1.53
   6 -24  -2   11.86    1.07
  -6  24   2   10.14    0.79
 -24  -6   2   11.09    1.36
 -24  -6  -2   10.54    1.18
  -6  24  -2   10.08    0.97
 -24  -6  -2    8.43    1.33
 -24  -6  -2   10.21    1.11
 -24  -6   2    8.25    1.00
   6 -24   2   13.38    1.04
 -24  -6  -2    9.73    1.12
 -24  -6   2   10.75    1.01
   6 -24  -4    5.82    0.63
 -24  -6  -4    6.46    0.71
 -24  -7  -1    0.75    1.00
 -24  -7   1    0.87    0.97
   7 -24   1    2.02    0.85
  -7  24   1    1.56    0.71
   7 -24  -1    1.06    0.87
 -24  -7   1    1.72    1.03
 -24  -7  -1    1.39    1.00
 -24  -7  -1    0.67    1.22
 -24  -7  -1    1.17    1.06
 -24  -7   1    1.43    0.99
   7 -24  -3   24.04    1.14
 -24  -7  -3   21.93    1.16
 -24  -7  -3   22.21    1.07
 -24  -7  -3   21.58    1.02
 -24  -8   0   25.97    1.45
 -24  -8   0   30.02    1.61
   8 -24   0   28.83    1.42
 -24  -8  -2    0.22    0.84
 -24  -8   2   -0.54    0.75
  -8  24   2    0.65    0.67
   8 -24  -2    1.20    0.72
  -8  24  -2   -0.15    0.79
 -24  -8  -2   -0.25    0.81
 -24  -8  -2    1.56    0.89
 -24  -8   2    0.52    0.77
   8 -24  -4   -0.04    0.31
 -24  -9  -1    0.93    0.95
 -24  -9   1    0.47    0.85
   9 -24   1    0.67    0.67
  -9  24   1   -0.27    0.72
   9 -24  -1    0.79    0.70
 -24  -9   1   -0.27    0.85
 -24  -9  -1    0.79    0.75
 -24  -9  -1    0.02    0.91
 -24  -9   1    0.18    0.87
  -9  24   3    3.85    0.48
   9 -24  -3    2.66    0.50
  -9  24  -3    4.03    0.51
 -24  -9  -3    2.01    0.48
 -24 -10   0    3.80    0.97
  10 -24   0    3.22    0.65
 -24 -10   0    4.33    0.68
 -24 -10   0    3.31    0.95
 -10  24   2   11.71    0.83
 -10  24  -2   11.86    0.97
 -24 -10  -2   11.70    0.95
 -24 -10  -2   10.97    0.91
 -10  24  -4    1.52    0.48
 -24 -11  -1    4.47    0.82
 -24 -11   1    3.23    0.82
  11 -24  -1    1.61    0.43
 -11  24   1    2.78    0.72
 -11  24  -1    3.02    0.99
 -24 -11  -1    3.25    0.86
 -24 -11   1    1.92    0.80
 -11  24   3    0.54    0.38
 -11  24  -3    1.10    0.39
 -24 -12   0    3.44    0.79
 -24 -12   0    4.11    0.82
 -24 -12  -2    4.28    0.62
 -12  24   2    3.58    0.60
 -12  24  -2    5.64    0.74
 -24 -12  -2    4.37    0.67
 -24 -13  -1    4.66    0.68
 -13  24   1    5.35    0.67
 -13  24  -1    6.31    0.83
 -24 -13  -1    4.36    0.70
 -24 -13   1    4.62    0.68
 -24 -13   1    5.80    0.71
 -13  24  -3    0.48    0.55
 -14  24   0   92.87    2.86
 -24 -14   0   85.25    2.88
 -24 -14   0   87.49    2.88
 -14  24   2    0.56    0.34
 -14  24  -2    0.37    0.43
 -24 -15  -1    0.29    0.36
 -24 -15   1   -0.33    0.35
 -15  24   1   -0.04    0.36
 -15  24   1    0.02    0.42
 -24 -15  -1    0.28    0.41
 -16  24   0    0.52    0.37
 -13 -25   0   -0.39    0.44
 -13 -25   0    0.20    0.47
 -12 -25  -1   10.10    0.74
 -12 -25   1   10.74    0.70
 -12 -25  -1   11.07    0.75
 -12 -25   1    9.01    0.71
 -11 -25   0    0.31    0.76
 -11 -25   0    0.76    0.75
 -11 -25  -2    7.29    0.58
 -11 -25  -2    5.33    0.49
 -10 -25  -1    4.33    0.77
 -10 -25   1    4.02    0.81
 -10 -25  -1    4.21    0.89
 -10 -25   1    4.67    0.80
 -10 -25  -3    9.39    0.69
  -9 -25   0   -0.44    0.93
  -9 -25   0   -0.91    1.01
  -9 -25  -2    2.77    0.64
  -9 -25  -2    2.07    0.72
  -9 -25  -2    2.14    0.87
  -9 -25  -2    3.11    0.75
  -8 -25  -1    0.62    0.93
  -8 -25   1    1.33    1.00
  -8 -25  -1    0.26    1.00
  -8 -25   1    0.72    0.93
  -8 -25  -3   11.49    0.72
  -7 -25   0    0.02    1.03
  -7 -25  -2    6.19    0.86
  -7 -25   2    5.56    0.90
  -7 -25  -2    4.22    0.80
 -25   7  -2    4.13    0.90
  -7 -25  -2    5.52    0.97
  -7 -25  -2    5.39    0.92
  -7 -25  -4    0.17    0.38
  -6 -25   1   -1.03    1.12
  -6 -25  -1    0.84    1.02
 -25   6   1   -0.32    0.92
 -25   6  -1    0.84    0.89
  -6 -25  -1   -1.49    1.14
  -6 -25   1    0.14    1.06
  -6 -25  -3    9.94    0.71
 -25   6  -3   17.40    1.00
  -6 -25  -3   10.46    0.73
  -6 -25  -3   16.17    1.05
  -5 -25   0    0.96    0.67
 -25   5   0   -0.20    0.98
 -25   5  -2   15.40    1.14
  -5 -25  -2   14.56    1.03
 -25   5  -2   15.81    1.28
  -5 -25  -2   17.16    1.31
  -5 -25   2   15.81    1.22
  -5 -25  -2   16.60    1.19
 -25   5  -4    0.46    0.52
  -5 -25  -4   -0.09    0.46
  -4 -25  -1   31.21    1.41
 -25   4   1   29.64    1.62
 -25   4  -1   28.34    1.59
 -25   4  -1   32.87    1.80
  -4 -25  -1   30.31    1.72
  -4 -25   1   32.92    1.91
  -4 -25  -1   29.90    1.86
  -4 -25   1   29.64    1.36
  -4 -25  -3    0.58    0.48
  -4 -25  -3    1.67    0.57
 -25   4  -3    1.78    0.82
 -25   4  -3    1.28    0.92
  -4 -25  -3    1.98    0.82
  -4 -25  -3    1.13    0.69
  -3 -25   0    0.20    0.76
 -25   3   0   -0.24    1.14
  -3 -25  -2   59.52    2.17
 -25   3   2   60.74    2.33
 -25   3  -2   62.23    2.32
 -25   3  -2   66.42    2.43
  -3 -25  -2   54.84    2.36
  -3 -25   2   61.21    2.43
  -3 -25  -2   57.39    2.35
  -3 -25  -4    0.56    0.40
 -25   3  -4   -0.19    0.61
 -25   3  -4   -0.37    0.66
  -3 -25  -4    0.06    0.47
  -2 -25  -1   70.66    2.56
 -25   2   1   70.72    2.74
 -25   2  -1   73.17    2.74
 -25   2  -1   75.02    2.91
  -2 -25   1   73.94    2.55
  -2 -25  -3    9.37    0.82
 -25   2  -3    8.60    1.01
 -25   2  -3    8.97    1.14
  -2 -25  -3    7.46    0.91
  -2 -25  -3    7.38    0.72
 -25   1   0   -0.36    1.17
  -1 -25   0   -0.31    0.86
 -25   1   0    0.59    1.18
  -1 -25   2    4.18    0.82
  -1 -25  -2    4.18    0.85
 -25   1   2    5.05    1.13
 -25   1  -2    4.87    1.16
  -1 -25  -2    4.25    1.01
  -1 -25  -4   11.55    0.75
 -25   1  -4   11.97    0.88
 -25   0   1   21.72    1.46
   0 -25  -1   27.42    1.42
 -25   0  -1   24.99    1.57
   0 -25   1   27.24    1.38
 -25   0  -1   27.07    1.59
   0 -25  -3    8.51    0.85
   0 -25  -3    7.15    0.77
 -25  -1   0    0.52    1.14
   1 -25   0   -0.04    0.95
 -25  -1   0    0.37    1.22
 -25  -1  -2   26.02    1.51
 -25  -1   2   22.26    1.38
   1 -25  -2   32.33    1.50
 -25  -1  -2   27.42    1.71
   1 -25   2   30.40    1.42
   1 -25  -4   14.35    0.80
 -25  -1  -4    8.91    0.92
 -25  -2   1   13.90    1.42
 -25  -2  -1   14.58    1.40
 -25  -2  -1   14.85    1.57
 -25  -2  -1   14.38    1.30
 -25  -2   1   11.81    1.21
 -25  -2  -1   13.98    1.28
 -25  -2   1   11.54    1.18
 -25  -2  -3   13.76    1.29
   2 -25  -3   15.45    0.96
 -25  -3   0    1.90    1.07
 -25  -3   0   -0.35    1.17
 -25  -3   0    0.72    1.10
 -25  -3  -2    1.67    0.91
 -25  -3   2    1.15    0.80
 -25  -3   2    1.36    1.15
 -25  -3  -2    1.01    1.07
 -25  -3  -2   -0.19    1.23
 -25  -3  -2    1.45    0.94
 -25  -3   2    0.56    0.85
   3 -25  -4   17.65    0.84
 -25  -3  -4   13.20    0.86
 -25  -4  -1    2.63    1.03
 -25  -4   1    1.75    0.97
   4 -25   1    3.15    0.89
   4 -25  -1    2.90    0.86
 -25  -4   1    1.74    1.12
 -25  -4  -1    1.67    1.11
 -25  -4  -1    2.56    1.33
 -25  -4  -1    1.68    1.05
 -25  -4   1    2.24    1.00
   4 -25  -3   -0.38    0.71
 -25  -4  -3    0.03    0.81
 -25  -4  -3    0.60    0.95
 -25  -5   0    0.77    1.01
   5 -25   0    0.20    0.83
 -25  -5   0   -0.13    1.05
 -25  -5   0   -0.45    1.05
 -25  -5  -2    4.05    0.89
 -25  -5   2    3.22    0.75
   5 -25  -2    3.21    0.83
  -5  25  -2    3.57    0.64
 -25  -5  -2    3.94    0.99
 -25  -5  -2    1.80    1.12
 -25  -5  -2    3.54    0.91
 -25  -5   2    3.12    0.81
   5 -25  -4    1.80    0.44
 -25  -5  -4    1.68    0.49
 -25  -6  -1    0.34    0.92
 -25  -6   1    1.35    0.88
   6 -25   1   -0.05    0.77
  -6  25   1    0.24    0.53
   6 -25  -1    0.77    0.80
 -25  -6   1   -0.19    0.97
 -25  -6  -1   -0.02    0.94
 -25  -6  -1    0.02    0.96
 -25  -6   1    1.11    0.90
   6 -25  -3   11.88    0.83
 -25  -6  -3   12.04    0.87
 -25  -7   0   -1.07    0.92
   7 -25   0   -0.43    0.75
 -25  -7   0    0.93    0.89
 -25  -7   0   -1.54    0.95
 -25  -7  -2    0.91    0.72
  -7  25   2    0.54    0.41
   7 -25  -2    1.60    0.66
  -7  25  -2    1.84    0.65
 -25  -7  -2    0.81    0.74
 -25  -7  -2    0.57    0.75
  -8  25   1   10.65    0.76
 -25  -8  -1    9.39    0.89
 -25  -8  -1    9.98    1.01
 -25  -8   1   10.19    0.99
   8 -25   1   10.97    0.83
 -25  -8  -1   10.92    0.97
 -25  -8   1    9.43    0.94
   8 -25  -1    9.18    0.84
   8 -25  -3    2.35    0.44
 -25  -8  -3    1.71    0.39
 -25  -9   0   -0.29    0.78
   9 -25   0   -0.32    0.57
 -25  -9   0   -0.50    0.63
 -25  -9   0   -0.67    0.84
 -25  -9  -2   -0.02    0.61
   9 -25  -2    0.06    0.44
  -9  25   2    0.16    0.41
  -9  25  -2    0.52    0.59
 -25  -9  -2    1.08    0.63
 -25 -10  -1    0.59    0.73
 -25 -10   1    1.59    0.67
  10 -25  -1    0.99    0.40
 -10  25   1    1.94    0.61
 -10  25  -1    1.21    0.79
 -25 -10  -1    1.22    0.75
 -25 -10   1    2.05    0.69
 -25 -11   0    0.39    0.69
 -11  25   0    0.31    0.56
 -25 -11   0   -0.21    0.70
 -25 -11  -2    0.18    0.40
 -11  25   2    0.23    0.34
 -11  25  -2    0.06    0.47
 -25 -11  -2   -0.42    0.44
 -12  25   1   43.83    1.60
 -12  25  -1   56.73    1.76
 -25 -12  -1   45.93    1.68
 -25 -12   1   43.74    1.62
 -25 -12  -1   52.79    1.68
 -25 -12   1   45.34    1.63
 -25 -13   0   -0.60    0.47
 -13  25   0   -0.37    0.41
 -25 -13   0    0.20    0.46
 -14  25  -1   10.87    0.62
 -14  25   1    9.95    0.57
 -12 -26   0   12.87    0.65
 -11 -26  -1    2.34    0.40
 -11 -26   1    2.41    0.45
 -11 -26  -1    2.52    0.44
 -10 -26   0    8.22    0.75
 -10 -26   0    9.53    0.74
  -9 -26  -1    7.02    0.75
  -9 -26   1    6.56    0.71
  -9 -26  -1    7.04    0.71
  -9 -26   1    6.78    0.73
  -8 -26   0    3.11    0.79
  -8 -26   0    2.05    0.80
  -8 -26  -2    0.94    0.46
  -8 -26  -2    1.12    0.55
  -7 -26   1    7.57    0.94
  -7 -26  -1    7.21    0.95
  -7 -26   1    6.92    0.92
  -7 -26  -1    8.47    0.93
  -6 -26   0   34.27    1.66
  -6 -26  -2    0.97    0.61
  -6 -26  -2    0.36    0.68
  -5 -26   1    0.71    0.90
  -5 -26  -1    2.07    0.90
 -26   5   1    0.12    0.80
 -26   5  -1    1.47    0.80
  -5 -26   1    1.25    0.96
 -26   5  -3    0.39    0.59
  -5 -26  -3    0.73    0.57
  -4 -26   0    4.78    0.69
 -26   4   0    4.77    0.96
 -26   4  -2    6.73    0.88
 -26   4  -2    7.39    1.04
  -4 -26  -2    8.26    0.94
  -4 -26  -2    7.82    0.84
  -3 -26   1    0.06    1.05
  -3 -26  -1    0.74    1.08
  -3 -26   1    0.38    0.64
  -3 -26  -1   -0.16    0.66
 -26   3   1   -0.62    0.95
 -26   3  -1   -0.01    0.95
  -3 -26  -3    0.25    0.45
 -26   3  -3    1.29    0.68
 -26   3  -3    1.09    0.76
  -2 -26   0    0.77    0.72
 -26   2   0    0.90    1.05
  -2 -26   2    0.75    0.85
  -2 -26  -2    0.45    0.85
  -2 -26  -2    1.28    0.62
 -26   2  -2    2.10    0.92
 -26   2  -2    1.16    1.02
  -2 -26  -4    0.27    0.25
 -26   2  -4    0.57    0.39
  -1 -26   1    1.02    0.72
  -1 -26  -1    1.01    0.75
 -26   1   1    1.38    1.07
 -26   1  -1    1.81    1.01
  -1 -26  -3    0.83    0.52
 -26   1  -3   -0.19    0.75
  -1 -26  -3    0.21    0.43
 -26   0   0    0.56    1.04
   0 -26   0   -0.31    0.77
   0 -26  -2   18.70    1.03
   0 -26   2   17.75    1.24
   0 -26  -2   16.57    1.21
   0 -26  -4    3.98    0.39
 -26  -1  -1   90.00    3.01
   1 -26  -1   92.73    2.94
   1 -26   1   84.95    2.89
   1 -26  -3   14.88    0.85
 -26  -1  -3   12.53    1.06
 -26  -2   0    3.79    0.99
 -26  -2   0    4.62    1.12
 -26  -2   0    5.31    1.06
 -26  -2  -2    0.77    0.90
 -26  -2  -2   -0.61    1.08
 -26  -2  -4   17.12    0.76
 -26  -3   1    8.05    0.96
 -26  -3   1    9.75    1.15
 -26  -3  -1    8.00    1.08
 -26  -3  -1    9.27    1.03
 -26  -3   1    7.85    0.96
 -26  -3  -1   10.01    1.00
   3 -26  -3   25.65    1.04
 -26  -3  -3   24.15    1.12
 -26  -4   0   82.01    2.89
 -26  -4   0   80.07    2.86
   4 -26   0   89.28    2.85
 -26  -4   0   82.64    2.85
 -26  -4  -2    2.11    0.75
   4 -26  -2    1.75    0.68
 -26  -4  -2    2.61    0.85
 -26  -4  -2    1.63    0.95
   5 -26  -1   42.38    1.64
 -26  -5   1   39.58    1.68
 -26  -5  -1   38.43    1.66
 -26  -5  -1   38.02    1.66
 -26  -5   1   33.92    1.59
   5 -26   1   44.28    1.62
 -26  -5  -1   41.93    1.67
 -26  -5   1   36.96    1.60
   5 -26  -3    0.42    0.45
 -26  -5  -3    0.62    0.53
 -26  -6   0   93.18    3.15
 -26  -6   0   95.28    3.18
   6 -26   0   98.12    3.14
 -26  -6   0  102.47    3.19
 -26  -6  -2    2.15    0.64
   6 -26  -2    1.07    0.58
 -26  -6  -2    1.63    0.66
 -26  -6  -2    1.11    0.64
 -26  -7  -1    0.39    0.69
 -26  -7   1    0.01    0.68
   7 -26  -1   -0.37    0.58
 -26  -7  -1    0.70    0.67
  -7  26  -1    0.20    0.66
 -26  -7  -1    0.18    0.67
 -26  -7   1    0.07    0.69
   7 -26  -3    3.45    0.35
 -26  -8   0    1.00    0.72
   8 -26   0    0.60    0.54
  -8  26   0    0.85    0.39
 -26  -8   0    1.10    0.58
 -26  -8   0    1.29    0.73
 -26  -8  -2   18.29    0.87
   8 -26  -2   16.83    0.77
 -26  -8  -2   19.12    0.84
 -26  -9   1    5.35    0.62
  -9  26  -1    4.86    0.45
  -9  26   1    3.13    0.38
  -9  26  -1    7.07    0.68
 -26  -9  -1    7.28    0.68
 -26  -9   1    5.39    0.62
   9 -26  -1    4.33    0.45
 -26  -9  -1    7.00    0.68
 -10  26   0   32.37    1.24
 -26 -10   0   30.53    1.15
 -26 -10   0   30.09    1.15
 -26 -11  -1   -0.05    0.38
 -26 -11   1    0.42    0.38
 -11  26  -1   -0.07    0.43
 -26 -11  -1    0.19    0.40
 -26 -11   1    0.07    0.39
 -26 -12   0    2.84    0.41
 -26 -12   0    2.61    0.41
  -9 -27   0    0.19    0.40
  -9 -27   0   -0.10    0.39
  -8 -27  -1    3.17    0.49
  -8 -27  -1    2.98    0.51
  -8 -27   1    3.77    0.51
  -7 -27   0    0.08    0.61
  -7 -27   0   -0.53    0.61
  -6 -27  -1    0.91    0.62
  -6 -27   1    1.10    0.64
  -6 -27  -1    1.14    0.65
  -6 -27   1    0.73    0.58
 -27   5   0    0.20    0.64
  -5 -27   0   -0.23    0.77
  -5 -27  -2   19.60    0.89
  -4 -27   1    1.60    0.74
  -4 -27  -1    1.85    0.71
 -27   4   1    0.92    0.74
 -27   4  -1    0.88    0.70
  -4 -27  -1    1.19    0.79
  -4 -27   1    1.88    0.73
  -3 -27   0    0.31    0.49
 -27   3   0   -0.07    0.78
  -3 -27  -2    0.32    0.48
  -3 -27  -2    0.20    0.43
 -27   3  -2    0.56    0.63
  -3 -27  -2    0.04    0.59
  -2 -27   1    5.28    0.94
  -2 -27  -1    4.42    0.92
  -2 -27   1    4.04    0.59
  -2 -27  -1    4.73    0.63
 -27   2   1    4.44    0.86
 -27   2  -1    4.39    0.82
  -2 -27  -3   11.14    0.53
 -27   2  -3   10.32    0.65
  -1 -27   0    0.87    0.60
 -27   1   0    0.38    0.83
  -1 -27  -2   -0.02    0.53
  -1 -27  -2   -0.01    0.50
 -27   1  -2   -0.81    0.70
   0 -27   1    5.82    1.00
   0 -27  -1    7.53    0.99
   0 -27   1    9.56    0.75
   0 -27  -1    7.50    0.73
   0 -27  -3    0.12    0.35
   1 -27   0   -0.28    0.64
   1 -27  -2    5.33    0.64
   1 -27  -2    4.42    0.66
 -27  -2   1    5.91    0.89
 -27  -2  -1    4.98    0.85
 -27  -2  -3    0.77    0.45
 -27  -3   0    0.01    0.74
 -27  -3   0    0.17    0.81
   3 -27  -2   13.73    0.78
 -27  -3  -2   12.59    0.88
   3 -27  -2   11.23    0.80
 -27  -4  -1   -0.44    0.64
 -27  -4   1    0.62    0.64
   4 -27   1    0.77    0.56
   4 -27  -1    0.53    0.55
 -27  -4   1    0.62    0.83
 -27  -4  -1    0.41    0.70
   4 -27  -3    0.61    0.30
 -27  -5   0   -0.54    0.68
   5 -27   0   -0.11    0.56
 -27  -5   0    0.23    0.68
 -27  -5   0    0.01    0.69
   5 -27  -2    2.92    0.47
 -27  -5  -2    2.44    0.53
 -27  -6  -1   40.11    1.46
 -27  -6  -1   45.98    1.55
   6 -27  -1   44.90    1.48
 -27  -6  -1   47.43    1.53
 -27  -6   1   41.41    1.47
 -27  -7   0   -0.57    0.57
   7 -27   0   -0.22    0.41
 -27  -7   0   -0.14    0.56
 -27  -8  -1    1.38    0.44
 -27  -8   1    0.66    0.39
 -27  -8  -1    1.16    0.46
 -27  -8   1    0.71    0.40
 -27  -9   0   -0.41    0.41
  -9  27   0    0.23    0.41
 -27  -9   0   -0.25    0.41
  -5 -28  -1    0.97    0.40
 -28   4   0    7.91    0.60
  -4 -28   0    7.84    0.64
 -28   3  -1   19.58    0.86
  -3 -28  -1   16.96    0.91
  -3 -28   1   17.73    0.86
  -3 -28  -1   17.98    0.86
  -2 -28   0   38.19    1.52
  -2 -28   0   39.07    1.37
 -28   2  -2   17.04    0.73
  -2 -28  -2   15.33    0.61
  -1 -28   1    0.47    0.52
  -1 -28  -1    0.85    0.55
  -1 -28  -1    1.08    0.37
 -28   1  -1    0.56    0.58
  -1 -28   1    0.75    0.49
   0 -28   0    6.84    0.56
   0 -28  -2    2.95    0.34
   1 -28   1    1.71    0.56
   1 -28  -1    0.80    0.58
   1 -28  -1    1.37    0.46
 -28  -2   0    6.09    0.69
 -28  -2  -2    0.86    0.40
 -28  -3  -1   14.13    0.77
   3 -28   1   12.79    0.82
   3 -28  -1   12.80    0.82
 -28  -4   0    4.35    0.56
   4 -28   0    4.24    0.48
   5 -28  -1   -0.16    0.30
   0   0   0    0.00    0.00


TITL MC003 in I4(1)/a
REM I4(1)/a (#88 in standard setting)
CELL 1.54184  22.725300  22.725300   7.578217  90.0000  90.0000  90.0000
ZERR   19.00   0.000355   0.000355   0.000234   0.0000   0.0000   0.0000
LATT  2
SYMM -x+1/2,-y, z+1/2
SYMM -y+3/4, x+1/4, z+1/4
SYMM  y+3/4,-x+3/4, z+3/4
SFAC C H O
UNIT 209.00 304.00 19.00
TREF
HKLF 4
END
_computing_structure_solution     'SHELXT 2014/5 (Sheldrick, 2014)'
;
_shelx_hkl_checksum              37118
_olex2_submission_special_instructions 'No special instructions were received'
_oxdiff_exptl_absorpt_empirical_details
;
Empirical correction (ABSPACK) includes:
- Absorption correction using spherical harmonics
- Frame scaling
;
_oxdiff_exptl_absorpt_empirical_full_max 1.447
_oxdiff_exptl_absorpt_empirical_full_min 0.691
loop_
_space_group_symop_operation_xyz
'x, y, z'
'-x+1/2, -y, z+1/2'
'-y+3/4, x+1/4, z+1/4'
'y+3/4, -x+3/4, z+3/4'
'x+1/2, y+1/2, z+1/2'
'-x+1, -y+1/2, z+1'
'-y+5/4, x+3/4, z+3/4'
'y+5/4, -x+5/4, z+5/4'
'-x, -y, -z'
'x-1/2, y, -z-1/2'
'y-3/4, -x-1/4, -z-1/4'
'-y-3/4, x-3/4, -z-3/4'
'-x+1/2, -y+1/2, -z+1/2'
'x, y+1/2, -z'
'y-1/4, -x+1/4, -z+1/4'
'-y-1/4, x-1/4, -z-1/4'
loop_
_atom_site_label
_atom_site_type_symbol
_atom_site_fract_x
_atom_site_fract_y
_atom_site_fract_z
_atom_site_U_iso_or_equiv
_atom_site_adp_type
_atom_site_occupancy
_atom_site_site_symmetry_order
_atom_site_calc_flag
O1 O 0.21391(5) 0.45733(5) 0.37871(16) 0.0337(3) Uani 1 1 d
C9 C 0.16485(7) 0.33582(7) 0.5843(2) 0.0292(4) Uani 1 1 d
C2 C 0.15631(7) 0.39386(7) 0.5556(2) 0.0291(4) Uani 1 1 d
C3 C 0.16226(7) 0.42087(7) 0.3739(2) 0.0300(4) Uani 1 1 d
C6 C 0.18350(7) 0.29412(7) 0.4375(2) 0.0322(4) Uani 1 1 d
C10 C 0.15792(7) 0.31076(7) 0.7620(2) 0.0339(4) Uani 1 1 d
C1 C 0.14245(8) 0.43796(8) 0.6981(2) 0.0342(4) Uani 1 1 d
C4 C 0.16718(8) 0.37643(8) 0.2259(2) 0.0338(4) Uani 1 1 d
C7 C 0.13526(8) 0.25350(8) 0.3743(2) 0.0382(4) Uani 1 1 d
C5 C 0.20926(8) 0.32759(8) 0.2794(2) 0.0359(4) Uani 1 1 d
C11 C 0.16590(9) 0.25502(8) 0.8087(3) 0.0427(5) Uani 1 1 d
C8 C 0.07917(9) 0.25644(9) 0.4127(3) 0.0466(5) Uani 1 1 d
H1 H 0.2115(10) 0.4837(11) 0.295(4) 0.055(7) Uiso 1 1 d
H11A H 0.1590(10) 0.2414(10) 0.936(3) 0.053(6) Uiso 1 1 d
H11B H 0.1777(10) 0.2240(11) 0.722(4) 0.057(7) Uiso 1 1 d
H8A H 0.0622(10) 0.2883(11) 0.492(3) 0.058(7) Uiso 1 1 d
H8B H 0.0488(12) 0.2276(11) 0.365(3) 0.062(7) Uiso 1 1 d
H3 H 0.1266(9) 0.4473(9) 0.352(3) 0.036(5) Uiso 1 1 d
H4A H 0.1267(9) 0.3597(8) 0.202(3) 0.034(5) Uiso 1 1 d
H6 H 0.2164(8) 0.2695(8) 0.490(3) 0.035(5) Uiso 1 1 d
H4B H 0.1801(9) 0.3966(9) 0.119(3) 0.039(5) Uiso 1 1 d
H5A H 0.2496(10) 0.3446(9) 0.316(3) 0.046(6) Uiso 1 1 d
H1A H 0.1766(12) 0.4470(12) 0.770(4) 0.072(8) Uiso 1 1 d
H5B H 0.2168(8) 0.3000(9) 0.180(3) 0.033(5) Uiso 1 1 d
H10 H 0.1467(9) 0.3374(9) 0.857(3) 0.037(5) Uiso 1 1 d
H1B H 0.1081(11) 0.4270(11) 0.773(4) 0.062(7) Uiso 1 1 d
H7 H 0.1502(10) 0.2212(10) 0.291(3) 0.049(6) Uiso 1 1 d
H1C H 0.1334(13) 0.4757(13) 0.650(4) 0.081(9) Uiso 1 1 d
loop_
_atom_site_aniso_label
_atom_site_aniso_U_11
_atom_site_aniso_U_22
_atom_site_aniso_U_33
_atom_site_aniso_U_23
_atom_site_aniso_U_13
_atom_site_aniso_U_12
O1 0.0326(6) 0.0337(6) 0.0347(7) 0.0070(5) -0.0045(5) -0.0064(4)
C9 0.0261(7) 0.0307(8) 0.0310(8) -0.0028(6) -0.0002(6) -0.0001(6)
C2 0.0250(7) 0.0314(8) 0.0309(8) -0.0007(6) 0.0004(6) -0.0005(6)
C3 0.0263(7) 0.0304(8) 0.0334(8) 0.0009(6) -0.0024(6) -0.0014(6)
C6 0.0343(8) 0.0286(8) 0.0337(9) -0.0022(7) -0.0014(7) 0.0038(6)
C10 0.0357(8) 0.0338(8) 0.0322(9) -0.0003(7) 0.0009(7) -0.0010(6)
C1 0.0369(9) 0.0307(8) 0.0351(9) -0.0033(7) 0.0022(7) 0.0014(7)
C4 0.0372(9) 0.0362(9) 0.0280(8) 0.0023(7) -0.0003(7) -0.0041(7)
C7 0.0476(10) 0.0290(8) 0.0380(10) -0.0023(7) -0.0039(8) -0.0008(7)
C5 0.0368(9) 0.0374(9) 0.0334(9) -0.0067(7) 0.0046(7) 0.0018(7)
C11 0.0546(11) 0.0355(9) 0.0379(10) 0.0048(8) -0.0013(8) -0.0024(8)
C8 0.0446(10) 0.0394(10) 0.0557(12) -0.0036(9) -0.0051(9) -0.0075(8)
loop_
_atom_type_symbol
_atom_type_description
_atom_type_scat_dispersion_real
_atom_type_scat_dispersion_imag
_atom_type_scat_source
C C 0.0181 0.0091 'International Tables Vol C Tables 4.2.6.8 and 6.1.1.4'
H H 0.0000 0.0000 'International Tables Vol C Tables 4.2.6.8 and 6.1.1.4'
O O 0.0492 0.0322 'International Tables Vol C Tables 4.2.6.8 and 6.1.1.4'
loop_
_geom_angle_atom_site_label_1
_geom_angle_atom_site_label_2
_geom_angle_atom_site_label_3
_geom_angle
C3 O1 H1 109.0(15)
C2 C9 C6 122.01(15)
C2 C9 C10 120.68(15)
C10 C9 C6 117.29(14)
C9 C2 C3 121.99(15)
C9 C2 C1 124.35(15)
C1 C2 C3 113.63(14)
O1 C3 C2 106.50(13)
O1 C3 C4 110.05(13)
O1 C3 H3 108.2(11)
C2 C3 C4 114.22(14)
C2 C3 H3 108.3(11)
C4 C3 H3 109.4(11)
C9 C6 C5 111.63(14)
C9 C6 H6 105.3(12)
C7 C6 C9 114.20(14)
C7 C6 C5 109.40(14)
C7 C6 H6 108.8(11)
C5 C6 H6 107.2(11)
C9 C10 H10 117.5(12)
C11 C10 C9 126.80(17)
C11 C10 H10 115.7(12)
C2 C1 H1A 112.2(16)
C2 C1 H1B 114.0(14)
C2 C1 H1C 111.8(18)
H1A C1 H1B 111(2)
H1A C1 H1C 101(2)
H1B C1 H1C 106(2)
C3 C4 C5 109.65(14)
C3 C4 H4A 108.5(11)
C3 C4 H4B 109.0(12)
C5 C4 H4A 110.3(11)
C5 C4 H4B 112.0(12)
H4A C4 H4B 107.4(16)
C6 C7 H7 113.1(12)
C8 C7 C6 127.22(17)
C8 C7 H7 119.7(13)
C6 C5 H5A 108.4(12)
C6 C5 H5B 110.1(11)
C4 C5 C6 109.26(14)
C4 C5 H5A 110.9(12)
C4 C5 H5B 111.5(11)
H5A C5 H5B 106.6(16)
C10 C11 H11A 121.2(13)
C10 C11 H11B 122.3(14)
H11A C11 H11B 116.5(19)
C7 C8 H8A 122.5(14)
C7 C8 H8B 123.2(14)
H8A C8 H8B 114(2)
loop_
_geom_bond_atom_site_label_1
_geom_bond_atom_site_label_2
_geom_bond_distance
O1 C3 1.4373(18)
O1 H1 0.88(3)
C9 C2 1.351(2)
C9 C6 1.522(2)
C9 C10 1.470(2)
C2 C3 1.513(2)
C2 C1 1.506(2)
C3 C4 1.513(2)
C3 H3 1.02(2)
C6 C7 1.511(2)
C6 C5 1.535(2)
C6 H6 1.01(2)
C10 C11 1.328(2)
C10 H10 0.97(2)
C1 H1A 0.97(3)
C1 H1B 1.00(3)
C1 H1C 0.95(3)
C4 C5 1.520(2)
C4 H4A 1.01(2)
C4 H4B 0.98(2)
C7 C8 1.309(3)
C7 H7 1.03(2)
C5 H5A 1.03(2)
C5 H5B 1.00(2)
C11 H11A 1.02(3)
C11 H11B 1.00(3)
C8 H8A 1.02(3)
C8 H8B 1.02(3)
