#------------------------------------------------------------------------------
#$Date: 2018-10-31 01:27:16 +0200 (Wed, 31 Oct 2018) $
#$Revision: 211710 $
#$URL: file:///home/coder/svn-repositories/cod/cif/1/55/01/1550157.cif $
#------------------------------------------------------------------------------
#
# This file is available in the Crystallography Open Database (COD),
# http://www.crystallography.net/
#
# All data on this site have been placed in the public domain by the
# contributors.
#
data_1550157
loop_
_publ_author_name
'Lu, Xing'
'Shen, Wangqiang'
'Bao, Lipiao'
'Hu, Shuaifeng'
'Yang, Le'
'Jin, Peng'
'Xie, Yun-Peng'
'Akasaka, Takeshi'
_publ_section_title
;
 Crystallographic Characterization of Lu2C2n (2n = 76-90): Cluster
 Selection by Cage Size
;
_journal_name_full               'Chemical Science'
_journal_paper_doi               10.1039/C8SC03886D
_journal_year                    2019
_chemical_formula_moiety         'Lu2 C88, C36 H44 N4 Ni, C6 H6'
_chemical_formula_sum            'C130 H50 Lu2 N4 Ni'
_chemical_formula_weight         2076.39
_chemical_name_common            'Lu2C2@C2v-C86 Ni(OEP)'
_chemical_name_systematic        'Lu2C2@C2v-C86 Ni(OEP)'
_space_group_crystal_system      triclinic
_space_group_IT_number           2
_space_group_name_Hall           '-P 1'
_space_group_name_H-M_alt        'P -1'
_symmetry_space_group_name_Hall  '-P 1'
_symmetry_space_group_name_H-M   'P -1'
_atom_sites_solution_hydrogens   geom
_audit_creation_method           SHELXL-2014/7
_audit_update_record
;
2018-04-13 deposited with the CCDC.
2018-10-29 downloaded from the CCDC.
;
_cell_angle_alpha                85.556(5)
_cell_angle_beta                 88.966(5)
_cell_angle_gamma                62.445(5)
_cell_formula_units_Z            2
_cell_length_a                   14.604(5)
_cell_length_b                   15.012(5)
_cell_length_c                   19.852(5)
_cell_measurement_reflns_used    9717
_cell_measurement_temperature    173(2)
_cell_measurement_theta_max      23.153
_cell_measurement_theta_min      2.503
_cell_volume                     3846(2)
_computing_cell_refinement       'SAINT (Bruker, 2014)'
_computing_data_collection       'Apex2 (Bruker, 2014)'
_computing_data_reduction        'SAINT (Bruker, 2014)'
_computing_structure_refinement  'SHELXL-2014/7 (Sheldrick, 2014)'
_computing_structure_solution    'SHELXTL XT-2014/4 (Sheldrick, 2014)'
_diffrn_ambient_temperature      173(2)
_diffrn_detector_area_resol_mean 8.3
_diffrn_measured_fraction_theta_full 0.934
_diffrn_measured_fraction_theta_max 0.932
_diffrn_measurement_device_type  'Bruker D8 Quest'
_diffrn_measurement_method       \w
_diffrn_radiation_type           MoK\a
_diffrn_radiation_wavelength     0.71069
_diffrn_reflns_av_R_equivalents  0.0477
_diffrn_reflns_av_unetI/netI     0.0398
_diffrn_reflns_Laue_measured_fraction_full 0.934
_diffrn_reflns_Laue_measured_fraction_max 0.932
_diffrn_reflns_limit_h_max       17
_diffrn_reflns_limit_h_min       -17
_diffrn_reflns_limit_k_max       18
_diffrn_reflns_limit_k_min       -18
_diffrn_reflns_limit_l_max       23
_diffrn_reflns_limit_l_min       -23
_diffrn_reflns_number            50267
_diffrn_reflns_point_group_measured_fraction_full 0.934
_diffrn_reflns_point_group_measured_fraction_max 0.932
_diffrn_reflns_theta_full        25.240
_diffrn_reflns_theta_max         25.369
_diffrn_reflns_theta_min         1.864
_diffrn_source                   'fine-focus sealed tube'
_exptl_absorpt_coefficient_mu    2.859
_exptl_absorpt_correction_T_max  0.7449
_exptl_absorpt_correction_T_min  0.6095
_exptl_absorpt_correction_type   multi-scan
_exptl_absorpt_process_details   SADABS
_exptl_crystal_colour            Black
_exptl_crystal_density_diffrn    1.793
_exptl_crystal_description       Block
_exptl_crystal_F_000             2056
_exptl_crystal_size_max          0.180
_exptl_crystal_size_mid          0.150
_exptl_crystal_size_min          0.100
_refine_diff_density_max         1.924
_refine_diff_density_min         -1.978
_refine_diff_density_rms         0.180
_refine_ls_extinction_method     none
_refine_ls_goodness_of_fit_ref   1.058
_refine_ls_hydrogen_treatment    constr
_refine_ls_matrix_type           full
_refine_ls_number_parameters     1342
_refine_ls_number_reflns         13162
_refine_ls_number_restraints     1217
_refine_ls_restrained_S_all      1.085
_refine_ls_R_factor_all          0.1157
_refine_ls_R_factor_gt           0.1047
_refine_ls_shift/su_max          0.088
_refine_ls_shift/su_mean         0.002
_refine_ls_structure_factor_coef Fsqd
_refine_ls_weighting_details
'w=1/[\s^2^(Fo^2^)+(0.1310P)^2^+51.6410P] where P=(Fo^2^+2Fc^2^)/3'
_refine_ls_weighting_scheme      calc
_refine_ls_wR_factor_gt          0.2705
_refine_ls_wR_factor_ref         0.2816
_reflns_Friedel_coverage         0.000
_reflns_number_gt                11621
_reflns_number_total             13162
_reflns_threshold_expression     'I > 2\s(I)'
_cod_data_source_file            c8sc03886d2.cif
_cod_data_source_block           Lu2C2@C2v-C86
_cod_depositor_comments
;
The following automatic conversions were performed:

'_exptl_absorpt_correction_type' value 'Multi-scan' changed to
'multi-scan' according to
/home/data/users/saulius/crontab/automatic-downloads/rss-feeds/RSC/lib/dictionaries/cif_core.dic
dictionary named 'cif_core.dic' version 2.4.2 from 2011-04-26.

Automatic conversion script
Id: cif_fix_values 4973 2017-02-22 13:04:09Z antanas 
;
_cod_database_code               1550157
_shelx_shelxl_version_number     2014/7
_shelx_space_group_comment
;
The symmetry employed for this shelxl refinement is uniquely defined
by the following loop, which should always be used as a source of
symmetry information in preference to the above space-group names.
They are only intended as comments.
;
_shelx_estimated_absorpt_t_min   0.604
_shelx_estimated_absorpt_t_max   0.751
_shelx_res_file
;

    11_sq.res created by SHELXL-2014/7


TITL                                      11 in P-1
CELL   0.71069     14.604   15.012   19.852   85.556   88.966   62.445
ZERR         2      0.005    0.005    0.005    0.005    0.005    0.005
LATT  1
SFAC    C   H   N   NI  LU
UNIT 260 100 8 2 4
LIST 6 ! automatically inserted. Change 6 to 4 for CHECKCIF!!
MERG      2
ACTA
L.S.      10
FMAP      2
PLAN    10
simu 0.025 $C
SIMU 0.005 C76 > C86
SIMU 0.010 C39 > C45
SIMU 0.020 LU5 > LU13
ABIN
WGHT    0.131000   51.640999
FVAR       0.16504   0.24978
PART 1
LU1   5    0.756107    0.216493    0.204357    10.24978    0.03157    0.01921 =
         0.01704    0.00482   -0.00361   -0.01363
LU2   5    0.823212    0.203478    0.244168    10.07765    0.05794    0.02411 =
         0.03872    0.00393    0.02041   -0.00957
LU3   5    0.832171    0.124253    0.233435    10.26253    0.02885    0.02095 =
         0.02600   -0.00301   -0.00003   -0.00914
LU4   5    0.848477    0.057714    0.286307    10.26036    0.02680    0.00893 =
         0.03024    0.00079    0.00387   -0.00233
LU5   5    0.761188    0.047155    0.283786    10.03573    0.14733    0.07316 =
         0.21785   -0.05361   -0.04333   -0.05528
LU6   5    0.786040    0.114219    0.223577    10.05170    0.15573    0.12723 =
         0.22838   -0.07505   -0.01818   -0.06116
LU7   5    0.800052    0.037186    0.345756    10.06225    0.20598    0.11505 =
         0.23693   -0.01422   -0.02982    0.01211
LU8   5    0.567107    0.344170    0.313573    10.25451    0.02195    0.00748 =
         0.04279   -0.00080   -0.00500    0.00057
LU9   5    0.572368    0.301358    0.362998    10.25608    0.02780    0.01805 =
         0.04014   -0.00684    0.00141   -0.00209
LU10  5    0.551997    0.242853    0.359983    10.08036    0.02406    0.03951 =
         0.08241    0.02245   -0.00353   -0.01309
LU11  5    0.635677    0.223884    0.411210    10.24127    0.02447    0.02333 =
         0.01995   -0.00082    0.00311   -0.00865
LU12  5    0.613041    0.327913    0.374031    10.06161    0.10589    0.09152 =
         0.10384   -0.01856    0.00278   -0.00786
LU13  5    0.573952    0.323324    0.299846    10.10617    0.13830    0.14438 =
         0.17166    0.00643   -0.00709    0.03804
C1E   1    0.728826    0.230399    0.314203    11.00000    0.05628    0.04797 =
         0.04832    0.01047   -0.00738   -0.02749
C2E   1    0.719608    0.161613    0.327778    11.00000    0.10255    0.04955 =
         0.07150    0.01914   -0.05466   -0.04785
PART 0
PART 2
SADI 0.02 C63 C65 C69 C70
SADI 0.02 C79 C81 C20 C21
SADI 0.02 C77 C79 C76 C77 C31 C32 C44 C45 C81 C86
SADI 0.02 C14 C33 C28 C29 C72 C78 C64 C65 C72 C78
SADI 0.02 C48 C49 C49 C50 C50 C66 C66 C64 C64 C48
SADI 0.04 C48 C50 C48 C66 C49 C66 C49 C64 C50 C64
SADI 0.03 C82 C86 C86 C85 C85 C53 C53 C52 C52 C68 C68 C82
SADI 0.06 C82 C85 C82 C52 C86 C53 C86 C68 C53 C68 C85 C52
FLAT C46 C47 C48 C64 C65 C63
C1    1    0.823216   -0.085175    0.211586    11.00000    0.09957    0.06937 =
         0.14481   -0.03120    0.02122   -0.05787
C2    1    0.930510   -0.105946    0.237929    11.00000    0.05826    0.01960 =
         0.09842   -0.01049    0.01997   -0.00608
C3    1    0.960278   -0.040643    0.200121    11.00000    0.04805    0.02924 =
         0.06858   -0.01793    0.01950   -0.00511
C4    1    0.883940    0.018679    0.148046    11.00000    0.06514    0.03629 =
         0.07095   -0.01090    0.00191   -0.01284
C5    1    0.793055    0.001849    0.158019    11.00000    0.07333    0.05750 =
         0.10725   -0.03060   -0.03066   -0.00595
C6    1    0.693618    0.072556    0.149642    11.00000    0.11674    0.08997 =
         0.07958   -0.00756   -0.03313   -0.04598
C7    1    0.676551    0.160934    0.120306    11.00000    0.14763    0.07390 =
         0.05306    0.00470   -0.03661   -0.05193
C8    1    0.764253    0.184303    0.102572    11.00000    0.09769    0.05277 =
         0.05849    0.00667    0.00175   -0.03051
C9    1    0.869194    0.115982    0.121717    11.00000    0.08039    0.04697 =
         0.06416   -0.00300    0.01570   -0.02446
C10   1    0.929894    0.157340    0.149596    11.00000    0.06244    0.05050 =
         0.05893    0.00230    0.02376   -0.01995
C11   1    0.995140    0.103026    0.206748    11.00000    0.05414    0.05485 =
         0.05952   -0.00615    0.02929   -0.02416
C12   1    1.008834    0.005955    0.233365    11.00000    0.04685    0.04350 =
         0.05351   -0.00865    0.02183   -0.01567
C13   1    1.022108   -0.008674    0.305132    11.00000    0.05148    0.04057 =
         0.06007    0.00356    0.00670   -0.01245
C14   1    0.991334   -0.076133    0.340941    11.00000    0.04822    0.04632 =
         0.08710    0.03106   -0.00135   -0.00076
C15   1    0.953384   -0.128011    0.308179    11.00000    0.05553    0.02091 =
         0.12279    0.01834    0.01046    0.00026
C16   1    0.880806   -0.153832    0.346391    11.00000    0.07965    0.03249 =
         0.11785    0.03459   -0.00919   -0.02093
C17   1    0.791097   -0.142648    0.310769    11.00000    0.14366    0.02648 =
         0.13152    0.03178   -0.04128   -0.04641
C18   1    0.752569   -0.093843    0.253434    11.00000    0.13266    0.08053 =
         0.16288    0.00112   -0.03733   -0.05435
C19   1    0.647682   -0.022727    0.245544    11.00000    0.10117    0.08771 =
         0.13011   -0.03734   -0.03651   -0.06221
C20   1    0.610070    0.074284    0.196505    11.00000    0.10265    0.13282 =
         0.05502   -0.01573   -0.02283   -0.09246
C21   1    0.521877    0.160538    0.216298    11.00000    0.10450    0.10232 =
         0.07642    0.01147   -0.04299   -0.07754
C22   1    0.508897    0.255107    0.176748    11.00000    0.07821    0.10719 =
         0.08775   -0.00075   -0.04353   -0.04521
C23   1    0.580589    0.257464    0.130129    11.00000    0.07718    0.07833 =
         0.04126    0.01759   -0.03460   -0.04525
C24   1    0.611408    0.334510    0.119674    11.00000    0.08952    0.05934 =
         0.04121    0.03100   -0.03212   -0.02115
C25   1    0.722296    0.291007    0.104008    11.00000    0.08326    0.05711 =
         0.05814    0.01803    0.00025   -0.03570
C26   1    0.780525    0.332817    0.130419    11.00000    0.07538    0.04849 =
         0.07389    0.02736    0.01162   -0.03243
C27   1    0.885235    0.264513    0.154219    11.00000    0.06052    0.05185 =
         0.06848    0.01574    0.01867   -0.03378
C28   1    0.920974    0.286061    0.214763    11.00000    0.07287    0.08543 =
         0.10936   -0.02657    0.05688   -0.06293
C29   1    0.993629    0.174353    0.250465    11.00000    0.06720    0.09881 =
         0.09021   -0.03351    0.04665   -0.05578
C30   1    0.997065    0.164061    0.315060    11.00000    0.06683    0.10410 =
         0.12436   -0.01203    0.00908   -0.05481
C31   1    1.009322    0.072917    0.342468    11.00000    0.06411    0.07032 =
         0.07967   -0.01754   -0.01774   -0.02072
C32   1    0.956348    0.067758    0.414820    11.00000    0.10216    0.10270 =
         0.06953   -0.01237   -0.05925   -0.02780
C33   1    0.947673   -0.036164    0.413342    11.00000    0.06704    0.12984 =
         0.07982    0.07769   -0.03280   -0.02384
C34   1    0.904730    0.145564    0.447919    11.00000    0.09314    0.15436 =
         0.07442    0.00582   -0.05569   -0.02388
C35   1    0.908349    0.240153    0.414455    11.00000    0.08972    0.11984 =
         0.10057   -0.00672   -0.06225   -0.05889
C36   1    0.945463    0.256491    0.350901    11.00000    0.06223    0.12638 =
         0.14229   -0.06182    0.00258   -0.06740
C37   1    0.877107    0.356854    0.325451    11.00000    0.10970    0.12407 =
         0.14008   -0.00324   -0.01347   -0.10691
C38   1    0.868186    0.363644    0.250843    11.00000    0.11239    0.09075 =
         0.16047   -0.00611    0.02135   -0.08287
C39   1    0.778327    0.430497    0.227732    11.00000    0.09094    0.04981 =
         0.13860    0.03723   -0.00329   -0.05426
C40   1    0.727937    0.421816    0.168249    11.00000    0.08108    0.03918 =
         0.09543    0.03720   -0.00481   -0.03670
C41   1    0.622141    0.464951    0.177198    11.00000    0.07562    0.02977 =
         0.08527    0.03748   -0.01674   -0.02336
C42   1    0.562226    0.419292    0.153480    11.00000    0.07332    0.04102 =
         0.07302    0.03630   -0.03431   -0.01568
C43   1    0.477347    0.423493    0.191262    11.00000    0.05517    0.05157 =
         0.07322    0.03296   -0.03301   -0.01181
C44   1    0.456337    0.341196    0.199719    11.00000    0.06213    0.07259 =
         0.08834    0.01310   -0.04465   -0.02433
C45   1    0.403787    0.342588    0.272499    11.00000    0.05448    0.07870 =
         0.09156    0.00571   -0.02599   -0.03315
C46   1    0.416644    0.259819    0.306026    11.00000    0.12020    0.13432 =
         0.14225    0.00921    0.01943   -0.08802
C47   1    0.471961    0.160824    0.276054    11.00000    0.14310    0.11497 =
         0.12991   -0.02962    0.00609   -0.09959
C48   1    0.504182    0.081262    0.310609    11.00000    0.18218    0.15032 =
         0.11469   -0.02171    0.02361   -0.12745
C49   1    0.586957   -0.010962    0.305854    11.00000    0.16509    0.09752 =
         0.10266    0.01887   -0.03590   -0.11526
C50   1    0.607812   -0.051087    0.373507    11.00000    0.16616    0.12165 =
         0.14946    0.02702    0.00030   -0.11198
C51   1    0.700224   -0.107928    0.367085    11.00000    0.10421    0.04726 =
         0.18558    0.01640   -0.00751   -0.05950
C52   1    0.754817   -0.103584    0.432847    11.00000    0.17279    0.03637 =
         0.08680    0.01907    0.05052   -0.04104
C53   1    0.857344   -0.121610    0.416350    11.00000    0.11794    0.05841 =
         0.07818    0.04854   -0.05799   -0.05116
C54   1    0.683230    0.495474    0.276716    11.00000    0.09050    0.02221 =
         0.13477    0.00162   -0.01115   -0.03785
C55   1    0.596443    0.511091    0.239243    11.00000    0.06954    0.01637 =
         0.11952    0.01513   -0.01517   -0.01143
C56   1    0.507930    0.518491    0.277933    11.00000    0.06547    0.01526 =
         0.10717    0.01300   -0.02000   -0.00216
C57   1    0.448449    0.478822    0.252698    11.00000    0.05871    0.04091 =
         0.10477    0.02434   -0.04375   -0.00788
C58   1    0.400821    0.433196    0.297282    11.00000    0.04808    0.05151 =
         0.07573    0.01356   -0.00812   -0.00352
C59   1    0.411306    0.431708    0.369586    11.00000    0.04991    0.05074 =
         0.07094   -0.01247    0.00911    0.00189
C60   1    0.475077    0.469409    0.394498    11.00000    0.05508    0.03874 =
         0.07811   -0.02726    0.00347    0.00773
C61   1    0.522610    0.512624    0.347382    11.00000    0.05903    0.01326 =
         0.11478   -0.01927   -0.00852    0.00324
C62   1    0.404748    0.347184    0.402961    11.00000    0.08846    0.06656 =
         0.07623   -0.01554    0.03530   -0.03039
C63   1    0.403308    0.263693    0.368209    11.00000    0.14680    0.15810 =
         0.11206   -0.02207    0.04363   -0.06115
C64   1    0.471429    0.089447    0.376661    11.00000    0.19820    0.15874 =
         0.16047    0.02007    0.04626   -0.09639
C65   1    0.455486    0.172561    0.424172    11.00000    0.17794    0.12969 =
         0.11279    0.01508    0.05771   -0.07545
C66   1    0.553816    0.023697    0.417761    11.00000    0.15336    0.14444 =
         0.14204    0.02560    0.01750   -0.07585
C67   1    0.617196    0.019917    0.475350    11.00000    0.16012    0.07958 =
         0.10320    0.05239    0.01481   -0.01239
C68   1    0.711364   -0.036657    0.481497    11.00000    0.18027    0.06240 =
         0.07126    0.02281    0.00931   -0.02469
C69   1    0.464017    0.300309    0.465305    11.00000    0.07560    0.07055 =
         0.06893   -0.00400    0.03698   -0.00509
C70   1    0.487790    0.190289    0.476545    11.00000    0.13179    0.09049 =
         0.06428    0.00413    0.04163   -0.01103
C71   1    0.704862    0.473969    0.345817    11.00000    0.10722    0.06832 =
         0.20307   -0.06145   -0.01508   -0.04559
C72   1    0.623214    0.488679    0.377369    11.00000    0.08458    0.06389 =
         0.17232   -0.07564    0.00660   -0.01972
C73   1    0.541112    0.415191    0.451124    11.00000    0.06645    0.08241 =
         0.05900   -0.02777    0.00610    0.00523
C74   1    0.536635    0.330539    0.488156    11.00000    0.07377    0.10252 =
         0.04922    0.00209    0.02985    0.00489
C75   1    0.803883    0.395519    0.379097    11.00000    0.07693    0.07191 =
         0.18632   -0.06199   -0.02915   -0.04419
C76   1    0.825410    0.321588    0.431338    11.00000    0.09342    0.13747 =
         0.07740   -0.05334   -0.03366   -0.01612
C77   1    0.725512    0.331566    0.472469    11.00000    0.10165    0.13777 =
         0.07432   -0.04503   -0.03029    0.00243
C78   1    0.641333    0.415654    0.445232    11.00000    0.09615    0.12767 =
         0.07608   -0.05683   -0.03178    0.00225
C79   1    0.735634    0.225672    0.499557    11.00000    0.11241    0.14234 =
         0.06730   -0.01385   -0.02811    0.01657
C80   1    0.638877    0.255312    0.511319    11.00000    0.11658    0.13887 =
         0.05995    0.00285   -0.01449    0.02432
C81   1    0.819730    0.131253    0.489339    11.00000    0.10907    0.13899 =
         0.05849   -0.00140   -0.03974    0.02234
C82   1    0.730183    0.039601    0.502771    11.00000    0.13212    0.13366 =
         0.05781    0.01804   -0.00949    0.02350
C83   1    0.578215    0.123670    0.503080    11.00000    0.13295    0.13038 =
         0.05761    0.01832   -0.00100    0.02327
C84   1    0.651553    0.142341    0.518604    11.00000    0.12799    0.13364 =
         0.05512    0.01529   -0.00600    0.02582
C85   1    0.886262   -0.056384    0.447266    11.00000    0.11485    0.12825 =
         0.05250    0.02176   -0.03001    0.02107
C86   1    0.828480    0.020162    0.487072    11.00000    0.11759    0.13338 =
         0.05143    0.01580   -0.02794    0.02382
PART 0
PART 3
NI1A  4    0.522527    0.019051    0.082970    11.00000    0.01782    0.00969 =
         0.02816    0.00654   -0.00431   -0.01008
C1A   1    0.675224    0.026915   -0.016872    11.00000    0.01973    0.01930 =
         0.03132    0.00974   -0.00583   -0.01595
N2A   3    0.396885    0.149047    0.081988    11.00000    0.02020    0.01452 =
         0.02489    0.00653   -0.00278   -0.01374
C2A   1    0.692456    0.093479   -0.065935    11.00000    0.02275    0.01629 =
         0.03319    0.00780   -0.00242   -0.01548
N3A   3    0.466304   -0.034928    0.156334    11.00000    0.01552    0.01348 =
         0.03098    0.00283   -0.00476   -0.00747
C4A   1    0.870904    0.076788   -0.056039    11.00000    0.02599    0.04756 =
         0.05192   -0.00039    0.00618   -0.02623
AFIX 137
H4AA  2    0.933837    0.059911   -0.079946    11.00000   -1.50000
H4AB  2    0.884809    0.031304   -0.016376    11.00000   -1.50000
H4AC  2    0.843142    0.144585   -0.043068    11.00000   -1.50000
AFIX   0
N4A   3    0.650016   -0.108975    0.087202    11.00000    0.01822    0.01290 =
         0.02999    0.00681   -0.00169   -0.01402
C5A   1    0.604701    0.182513   -0.068123    11.00000    0.02809    0.01910 =
         0.02848    0.00894   -0.00884   -0.01957
C6A   1    0.583879    0.279463   -0.108469    11.00000    0.02773    0.02157 =
         0.03984    0.01383   -0.00659   -0.02069
AFIX  23
H6AA  2    0.511623    0.314907   -0.122353    11.00000   -1.20000
H6AB  2    0.624966    0.264236   -0.148908    11.00000   -1.20000
AFIX   0
C7A   1    0.609610    0.347014   -0.067725    11.00000    0.05379    0.02595 =
         0.05449    0.01915   -0.02313   -0.02894
AFIX 137
H7AA  2    0.604873    0.403400   -0.096583    11.00000   -1.50000
H7AB  2    0.678523    0.309406   -0.049254    11.00000   -1.50000
H7AC  2    0.561672    0.370863   -0.031627    11.00000   -1.50000
AFIX   0
C8A   1    0.536090    0.170105   -0.020568    11.00000    0.02663    0.01470 =
         0.02943    0.00642   -0.00903   -0.01553
C9A   1    0.439741    0.245120   -0.007013    11.00000    0.02878    0.01468 =
         0.02836    0.00973   -0.01201   -0.01585
AFIX  43
H9A   2    0.416549    0.306845   -0.032060    11.00000   -1.20000
AFIX   0
C10A  1    0.375555    0.235460    0.040677    11.00000    0.02137    0.01059 =
         0.03455    0.00714   -0.00988   -0.00920
C11A  1    0.275731    0.316470    0.055090    11.00000    0.02583    0.01406 =
         0.03610    0.00377   -0.00121   -0.01028
C12A  1    0.230002    0.420822    0.020487    11.00000    0.02439    0.01252 =
         0.04938    0.00834   -0.00838   -0.00407
AFIX  23
H12A  2    0.155660    0.453013    0.025625    11.00000   -1.20000
H12B  2    0.243886    0.416198   -0.027426    11.00000   -1.20000
AFIX   0
C13A  1    0.272956    0.486305    0.048583    11.00000    0.04479    0.01366 =
         0.05971    0.00597   -0.00647   -0.01318
AFIX 137
H13A  2    0.240423    0.552345    0.025412    11.00000   -1.50000
H13B  2    0.346166    0.456259    0.041990    11.00000   -1.50000
H13C  2    0.259241    0.491414    0.095982    11.00000   -1.50000
AFIX   0
C14A  1    0.235905    0.279645    0.105717    11.00000    0.02239    0.01601 =
         0.04636    0.00205   -0.00108   -0.00834
C15A  1    0.135921    0.331475    0.141545    11.00000    0.02955    0.01639 =
         0.05776    0.00747    0.00409   -0.00558
AFIX  23
H15A  2    0.105046    0.286480    0.147445    11.00000   -1.20000
H15B  2    0.089006    0.390621    0.113560    11.00000   -1.20000
AFIX   0
C16A  1    0.148191    0.363470    0.210359    11.00000    0.04781    0.03240 =
         0.05972   -0.01058    0.01502   -0.01357
AFIX 137
H16A  2    0.081660    0.397486    0.230401    11.00000   -1.50000
H16B  2    0.178647    0.408122    0.204964    11.00000   -1.50000
H16C  2    0.192002    0.304972    0.239092    11.00000   -1.50000
AFIX   0
C17A  1    0.299584    0.112003    0.171003    11.00000    0.02527    0.01686 =
         0.03317    0.00301   -0.00121   -0.00989
AFIX  43
H17A  2    0.238450    0.137088    0.194879    11.00000   -1.20000
AFIX   0
C18A  1    0.372467    0.014566    0.186982    11.00000    0.02628    0.01796 =
         0.02626    0.00299    0.00176   -0.01480
C19A  1    0.360307   -0.049509    0.241377    11.00000    0.02849    0.01853 =
         0.02788    0.00604    0.00056   -0.01162
C20A  1    0.271101   -0.015539    0.286918    11.00000    0.04090    0.02795 =
         0.03745    0.01261    0.01505   -0.00981
AFIX  23
H20A  2    0.270978   -0.074344    0.310815    11.00000   -1.20000
H20B  2    0.208058    0.018643    0.259696    11.00000   -1.20000
AFIX   0
C21A  1    0.270051    0.054113    0.338062    11.00000    0.05978    0.03804 =
         0.03164    0.00600    0.00554   -0.00189
AFIX 137
H21A  2    0.211856    0.070176    0.366865    11.00000   -1.50000
H21B  2    0.264965    0.114918    0.315031    11.00000   -1.50000
H21C  2    0.332662    0.021590    0.364853    11.00000   -1.50000
AFIX   0
C22A  1    0.447518   -0.138880    0.242029    11.00000    0.03042    0.01712 =
         0.02947    0.00656   -0.00191   -0.01701
C23A  1    0.476033   -0.231177    0.289574    11.00000    0.03652    0.01673 =
         0.03629    0.00966    0.00486   -0.01412
AFIX  23
H23A  2    0.506304   -0.290344    0.263986    11.00000   -1.20000
H23B  2    0.413773   -0.227811    0.309989    11.00000   -1.20000
AFIX   0
C24A  1    0.552078   -0.242712    0.345452    11.00000    0.04612    0.02421 =
         0.03482    0.00830   -0.00396   -0.01148
AFIX 137
H24A  2    0.563148   -0.299484    0.376248    11.00000   -1.50000
H24B  2    0.524363   -0.182754    0.369367    11.00000   -1.50000
H24C  2    0.616544   -0.253151    0.325880    11.00000   -1.50000
AFIX   0
C25A  1    0.511910   -0.128871    0.189453    11.00000    0.02368    0.01623 =
         0.02682    0.00321   -0.00219   -0.01542
C26A  1    0.674319   -0.195037    0.129617    11.00000    0.02245    0.01365 =
         0.03387    0.00783   -0.00639   -0.01247
C27A  1    0.777103   -0.272914    0.118600    11.00000    0.02271    0.01346 =
         0.04209    0.00838   -0.00685   -0.01177
C28A  1    0.826740   -0.374211    0.157171    11.00000    0.02731    0.01078 =
         0.05164    0.01070   -0.00595   -0.00599
AFIX  23
H28A  2    0.882573   -0.420824    0.130852    11.00000   -1.20000
H28B  2    0.776234   -0.399021    0.163112    11.00000   -1.20000
AFIX   0
C29A  1    0.869664   -0.372546    0.226667    11.00000    0.03601    0.02454 =
         0.05869    0.01399   -0.01644   -0.01021
AFIX 137
H29A  2    0.902581   -0.439642    0.248236    11.00000   -1.50000
H29B  2    0.814171   -0.329671    0.254020    11.00000   -1.50000
H29C  2    0.919131   -0.347281    0.221283    11.00000   -1.50000
AFIX   0
C30A  1    0.737628   -0.133815    0.049416    11.00000    0.01936    0.01399 =
         0.03970    0.00874   -0.00631   -0.01157
C31A  1    0.749507   -0.070060    0.000233    11.00000    0.02289    0.01949 =
         0.03660    0.00310   -0.00153   -0.01531
AFIX  43
H31A  2    0.811468   -0.094146   -0.022708    11.00000   -1.20000
AFIX   0
C32A  1    0.816943   -0.235629    0.068121    11.00000    0.01925    0.01649 =
         0.04815    0.00632   -0.00464   -0.00748
C33A  1    0.607871   -0.204413    0.176846    11.00000    0.02785    0.01349 =
         0.02818    0.00752   -0.00635   -0.01512
AFIX  43
H33A  2    0.629864   -0.266155    0.201687    11.00000   -1.20000
AFIX   0
C35A  1    0.312021    0.175877    0.120750    11.00000    0.02362    0.01344 =
         0.03412    0.00266   -0.00402   -0.00909
C36A  1    0.994773   -0.245511    0.064984    11.00000    0.02570    0.03563 =
         0.08192    0.00884   -0.00809   -0.01605
AFIX 137
H36A  2    1.062183   -0.282638    0.046749    11.00000   -1.50000
H36B  2    0.999127   -0.255469    0.113406    11.00000   -1.50000
H36C  2    0.968764   -0.175099    0.051499    11.00000   -1.50000
AFIX   0
C34A  1    0.921457   -0.282889    0.038221    11.00000    0.02560    0.01694 =
         0.05258    0.00990   -0.00244   -0.00930
AFIX  23
H34A  2    0.914368   -0.268903   -0.010462    11.00000   -1.20000
H34B  2    0.952078   -0.355374    0.047781    11.00000   -1.20000
AFIX   0
C3A   1    0.792125    0.068062   -0.102150    11.00000    0.02820    0.02531 =
         0.04124    0.01097    0.00124   -0.01961
AFIX  23
H3AA  2    0.778539    0.113581   -0.142415    11.00000   -1.20000
H3AB  2    0.820772   -0.000071   -0.116044    11.00000   -1.20000
AFIX   0
N1A   3    0.579957    0.073893    0.011122    11.00000    0.02225    0.01613 =
         0.03471    0.00740   -0.00845   -0.01463
PART 0
PART 4
C1B   1    0.808451    0.307618   -0.213926    11.00000    0.02367    0.03437 =
         0.07709   -0.00002   -0.00350   -0.00799
AFIX  43
H1B   2    0.804356    0.290605   -0.168318    11.00000   -1.20000
AFIX   0
C6B   1    0.773156    0.270766   -0.264660    11.00000    0.03160    0.04420 =
         0.07910   -0.00951    0.00180   -0.01081
AFIX  43
H6B   2    0.744383    0.228686   -0.250904    11.00000   -1.20000
AFIX   0
C5B   1    0.777179    0.291183   -0.333144    11.00000    0.03699    0.03288 =
         0.06149   -0.00694    0.01565   -0.00331
AFIX  43
H5B   2    0.752995    0.264338   -0.364946    11.00000   -1.20000
AFIX   0
C4B   1    0.821261    0.356653   -0.351649    11.00000    0.04903    0.04632 =
         0.07885    0.00333    0.00646   -0.00925
AFIX  43
H4B   2    0.826385    0.373301   -0.397180    11.00000   -1.20000
AFIX   0
C3B   1    0.856853    0.396286   -0.303117    11.00000    0.04619    0.03984 =
         0.09477    0.00546   -0.00790   -0.01290
AFIX  43
H3B   2    0.884938    0.439231   -0.316045    11.00000   -1.20000
AFIX   0
C2B   1    0.849766    0.370825   -0.235671    11.00000    0.03977    0.03449 =
         0.09177   -0.00745   -0.01649   -0.00201
AFIX  43
H2B   2    0.873788    0.397299   -0.203515    11.00000   -1.20000
PART 0
AFIX   0
HKLF      4

REM                                       11 in P-1
REM R1 =  0.1047 for   11621 Fo > 4sig(Fo)  and  0.1157 for all   13162 data
REM   1342 parameters refined using   1217 restraints

END

WGHT      0.1387     53.3885

REM Highest difference peak  1.924,  deepest hole -1.978,  1-sigma level  0.180
Q1    1   0.9616  0.2564  0.2726  11.00000  0.05    1.92
Q2    1   0.7873  0.4452  0.2818  11.00000  0.05    1.83
Q3    1   0.4367  0.1794  0.3552  11.00000  0.05    1.82
Q4    1   0.7836 -0.0185  0.4856  11.00000  0.05    1.78
Q5    1   0.8216  0.2066  0.4905  11.00000  0.05    1.76
Q6    1   0.7162 -0.1180  0.3169  11.00000  0.05    1.73
Q7    1   0.7790  0.0976  0.5120  11.00000  0.05    1.65
Q8    1   0.6345  0.3113  0.2306  11.00000  0.05    1.58
Q9    1   0.8416  0.1265  0.4720  11.00000  0.05    1.57
Q10   1   0.4497  0.2778  0.2290  11.00000  0.05    1.54
;
_shelx_res_checksum              78069
_shelx_fab_file
;
    2    0    0     -4.67      0.00
    4    0    0     -4.47      0.00
    5    0    0      3.69      0.00
    6    0    0      1.26      0.00
    7    0    0     -4.88      0.00
    8    0    0     -5.57      0.00
    9    0    0     -1.61      0.00
   10    0    0      1.21      0.00
   11    0    0      0.86      0.00
   12    0    0     -0.25      0.00
   13    0    0     -0.03      0.00
   14    0    0      0.45      0.00
   15    0    0      0.13      0.00
  -15    1    0      0.24      0.00
  -14    1    0     -0.34      0.00
  -13    1    0     -0.44      0.00
  -12    1    0      0.23      0.00
  -11    1    0     -0.40      0.00
  -10    1    0     -2.06      0.00
   -9    1    0     -1.08      0.00
   -8    1    0      3.41      0.00
   -7    1    0      6.01      0.00
   -6    1    0      1.47      0.00
   -5    1    0     -4.96      0.00
   -3    1    0     12.49      0.00
   -2    1    0     19.82      0.00
    2    1    0    -14.75      0.00
    3    1    0      4.79      0.00
    4    1    0      6.13      0.00
    5    1    0     -1.76      0.00
    6    1    0     -3.48      0.00
    7    1    0      2.30      0.00
    8    1    0      6.04      0.00
    9    1    0      3.69      0.00
   10    1    0      0.12      0.00
   11    1    0     -0.82      0.00
   12    1    0     -0.05      0.00
   13    1    0      0.18      0.00
   14    1    0     -0.35      0.00
   15    1    0     -0.42      0.00
   16    1    0     -0.12      0.00
  -14    2    0      0.04      0.00
  -13    2    0      0.72      0.00
  -12    2    0      0.36      0.00
  -11    2    0     -0.04      0.00
  -10    2    0      1.56      0.00
   -9    2    0      2.85      0.00
   -8    2    0     -0.05      0.00
   -7    2    0     -5.05      0.00
   -6    2    0     -4.52      0.00
   -5    2    0      3.24      0.00
   -4    2    0      7.18      0.00
   -3    2    0     -3.06      0.00
   -2    2    0    -19.87      0.00
   -1    2    0    -22.23      0.00
    0    2    0     -1.78      0.00
    1    2    0     20.77      0.00
    3    2    0      5.79      0.00
    4    2    0     -2.91      0.00
    6    2    0      5.75      0.00
    7    2    0      2.23      0.00
    8    2    0     -4.25      0.00
    9    2    0     -4.98      0.00
   10    2    0     -1.35      0.00
   11    2    0      0.75      0.00
   12    2    0      0.37      0.00
   13    2    0     -0.13      0.00
   14    2    0      0.31      0.00
   15    2    0      0.57      0.00
   16    2    0      0.27      0.00
  -14    3    0      0.19      0.00
  -13    3    0     -0.51      0.00
  -12    3    0     -0.83      0.00
  -11    3    0     -0.07      0.00
  -10    3    0     -0.51      0.00
   -9    3    0     -2.69      0.00
   -8    3    0     -2.61      0.00
   -7    3    0      1.96      0.00
   -6    3    0      5.66      0.00
   -5    3    0      1.05      0.00
   -4    3    0     -8.06      0.00
   -3    3    0     -7.38      0.00
   -2    3    0      7.87      0.00
   -1    3    0     22.85      0.00
    1    3    0      0.73      0.00
    2    3    0    -11.99      0.00
    3    3    0     -7.93      0.00
    5    3    0     -0.30      0.00
    6    3    0     -6.57      0.00
    7    3    0     -7.44      0.00
    8    3    0     -0.79      0.00
    9    3    0      4.35      0.00
   10    3    0      2.87      0.00
   11    3    0     -0.29      0.00
   12    3    0     -0.78      0.00
   13    3    0      0.03      0.00
   14    3    0     -0.15      0.00
   15    3    0     -0.80      0.00
   16    3    0     -0.50      0.00
  -13    4    0     -0.01      0.00
  -12    4    0      0.71      0.00
  -11    4    0      0.31      0.00
  -10    4    0     -0.29      0.00
   -9    4    0      1.33      0.00
   -8    4    0      3.33      0.00
   -7    4    0      1.37      0.00
   -6    4    0     -3.76      0.00
   -5    4    0     -4.50      0.00
   -4    4    0      3.69      0.00
   -3    4    0     11.68      0.00
   -2    4    0      6.23      0.00
    0    4    0    -19.82      0.00
    2    4    0     -0.37      0.00
    4    4    0     -2.10      0.00
    5    4    0     -3.39      0.00
    6    4    0      3.13      0.00
    7    4    0      9.15      0.00
    8    4    0      6.73      0.00
    9    4    0     -0.46      0.00
   10    4    0     -3.30      0.00
   11    4    0     -1.07      0.00
   12    4    0      0.64      0.00
   13    4    0      0.08      0.00
   14    4    0     -0.32      0.00
   15    4    0      0.60      0.00
   16    4    0      1.03      0.00
   17    4    0      0.32      0.00
  -12    5    0     -0.08      0.00
  -11    5    0     -0.32      0.00
  -10    5    0      0.64      0.00
   -9    5    0      0.37      0.00
   -8    5    0     -2.22      0.00
   -7    5    0     -3.22      0.00
   -6    5    0      0.35      0.00
   -5    5    0      4.59      0.00
   -4    5    0      1.84      0.00
   -3    5    0     -7.96      0.00
   -2    5    0    -12.96      0.00
   -1    5    0     -4.64      0.00
    0    5    0      8.67      0.00
    1    5    0     12.68      0.00
    2    5    0      6.02      0.00
    3    5    0      0.75      0.00
    4    5    0      3.97      0.00
    5    5    0      8.19      0.00
    6    5    0      4.46      0.00
    7    5    0     -4.42      0.00
    8    5    0     -8.59      0.00
    9    5    0     -4.41      0.00
   10    5    0      1.17      0.00
   11    5    0      1.90      0.00
   12    5    0      0.23      0.00
   13    5    0      0.11      0.00
   14    5    0      0.93      0.00
   15    5    0      0.47      0.00
   16    5    0     -0.87      0.00
   17    5    0     -0.94      0.00
  -12    6    0     -0.43      0.00
  -11    6    0      0.03      0.00
  -10    6    0     -0.49      0.00
   -9    6    0     -1.47      0.00
   -8    6    0     -0.02      0.00
   -7    6    0      2.74      0.00
   -6    6    0      2.28      0.00
   -5    6    0     -1.96      0.00
   -4    6    0     -4.27      0.00
   -3    6    0      1.07      0.00
   -2    6    0     10.08      0.00
   -1    6    0     11.57      0.00
    0    6    0      3.16      0.00
    1    6    0     -4.95      0.00
    2    6    0     -4.58      0.00
    3    6    0     -0.25      0.00
    4    6    0     -1.58      0.00
    5    6    0     -8.28      0.00
    6    6    0    -10.62      0.00
    7    6    0     -4.19      0.00
    8    6    0      4.22      0.00
    9    6    0      6.09      0.00
   10    6    0      1.95      0.00
   11    6    0     -1.10      0.00
   12    6    0     -0.74      0.00
   13    6    0     -0.33      0.00
   14    6    0     -1.24      0.00
   15    6    0     -1.69      0.00
   16    6    0     -0.53      0.00
   17    6    0      0.77      0.00
  -11    7    0      0.20      0.00
  -10    7    0      0.15      0.00
   -9    7    0      1.32      0.00
   -8    7    0      1.78      0.00
   -7    7    0     -0.41      0.00
   -6    7    0     -2.45      0.00
   -5    7    0     -0.85      0.00
   -4    7    0      2.94      0.00
   -3    7    0      3.17      0.00
   -2    7    0     -3.08      0.00
   -1    7    0     -9.44      0.00
    0    7    0     -8.12      0.00
    1    7    0     -1.89      0.00
    2    7    0      0.63      0.00
    3    7    0     -2.24      0.00
    4    7    0     -3.40      0.00
    5    7    0      2.34      0.00
    6    7    0      9.63      0.00
    7    7    0      9.87      0.00
    8    7    0      3.00      0.00
    9    7    0     -3.18      0.00
   10    7    0     -3.29      0.00
   11    7    0     -0.45      0.00
   12    7    0      0.43      0.00
   13    7    0      0.09      0.00
   14    7    0      0.78      0.00
   15    7    0      1.87      0.00
   16    7    0      1.80      0.00
   17    7    0      0.47      0.00
  -10    8    0      0.12      0.00
   -9    8    0     -0.40      0.00
   -8    8    0     -1.75      0.00
   -7    8    0     -1.57      0.00
   -6    8    0      0.49      0.00
   -5    8    0      1.44      0.00
   -4    8    0     -0.51      0.00
   -3    8    0     -3.14      0.00
   -2    8    0     -1.81      0.00
   -1    8    0      3.61      0.00
    0    8    0      6.43      0.00
    1    8    0      3.57      0.00
    2    8    0      0.76      0.00
    3    8    0      2.85      0.00
    4    8    0      6.51      0.00
    5    8    0      4.85      0.00
    6    8    0     -2.59      0.00
    7    8    0     -8.39      0.00
    8    8    0     -7.16      0.00
    9    8    0     -1.61      0.00
   10    8    0      1.87      0.00
   11    8    0      1.31      0.00
   12    8    0      0.24      0.00
   13    8    0      0.48      0.00
   14    8    0      0.27      0.00
   15    8    0     -0.81      0.00
   16    8    0     -1.57      0.00
   17    8    0     -1.27      0.00
   -9    9    0     -0.29      0.00
   -8    9    0      0.57      0.00
   -7    9    0      1.62      0.00
   -6    9    0      1.15      0.00
   -5    9    0     -0.09      0.00
   -4    9    0     -0.17      0.00
   -3    9    0      1.52      0.00
   -2    9    0      2.79      0.00
   -1    9    0      0.67      0.00
    0    9    0     -2.59      0.00
    1    9    0     -1.95      0.00
    2    9    0      0.98      0.00
    3    9    0      0.27      0.00
    4    9    0     -4.65      0.00
    5    9    0     -7.83      0.00
    6    9    0     -4.57      0.00
    7    9    0      2.10      0.00
    8    9    0      5.61      0.00
    9    9    0      4.01      0.00
   10    9    0      0.65      0.00
   11    9    0     -0.78      0.00
   12    9    0     -0.58      0.00
   13    9    0     -0.92      0.00
   14    9    0     -1.26      0.00
   15    9    0     -0.60      0.00
   16    9    0      0.31      0.00
   17    9    0      0.79      0.00
   -8   10    0      0.25      0.00
   -7   10    0     -0.55      0.00
   -6   10    0     -1.10      0.00
   -5   10    0     -0.79      0.00
   -4   10    0     -0.46      0.00
   -3   10    0     -0.94      0.00
   -2   10    0     -2.11      0.00
   -1   10    0     -2.00      0.00
    0   10    0      0.12      0.00
    1   10    0      0.60      0.00
    2   10    0     -2.32      0.00
    3   10    0     -4.12      0.00
    4   10    0     -0.89      0.00
    5   10    0      4.79      0.00
    6   10    0      6.91      0.00
    7   10    0      3.59      0.00
    8   10    0     -0.92      0.00
    9   10    0     -2.59      0.00
   10   10    0     -1.61      0.00
   11   10    0     -0.32      0.00
   12   10    0      0.09      0.00
   13   10    0      0.66      0.00
   14   10    0      1.59      0.00
   15   10    0      1.54      0.00
   16   10    0      0.76      0.00
   17   10    0      0.11      0.00
   -7   11    0     -0.11      0.00
   -6   11    0      0.33      0.00
   -5   11    0      0.46      0.00
   -4   11    0      0.40      0.00
   -3   11    0      0.72      0.00
   -2   11    0      1.57      0.00
   -1   11    0      2.02      0.00
    0   11    0      0.70      0.00
    1   11    0     -0.69      0.00
    2   11    0      1.13      0.00
    3   11    0      4.62      0.00
    4   11    0      4.95      0.00
    5   11    0      0.85      0.00
    6   11    0     -3.92      0.00
    7   11    0     -5.01      0.00
    8   11    0     -2.70      0.00
    9   11    0     -0.38      0.00
   10   11    0      0.47      0.00
   11   11    0      0.51      0.00
   12   11    0      0.62      0.00
   13   11    0      0.43      0.00
   14   11    0     -0.73      0.00
   15   11    0     -1.56      0.00
   16   11    0     -1.18      0.00
   17   11    0     -0.56      0.00
   -6   12    0      0.06      0.00
   -5   12    0      0.04      0.00
   -4   12    0      0.21      0.00
   -3   12    0      0.17      0.00
   -2   12    0     -0.55      0.00
   -1   12    0     -1.55      0.00
    0   12    0     -1.16      0.00
    1   12    0      0.77      0.00
    2   12    0      1.08      0.00
    3   12    0     -1.75      0.00
    4   12    0     -4.52      0.00
    5   12    0     -3.91      0.00
    6   12    0     -0.46      0.00
    7   12    0      2.52      0.00
    8   12    0      2.95      0.00
    9   12    0      1.96      0.00
   10   12    0      1.00      0.00
   11   12    0      0.20      0.00
   12   12    0     -0.64      0.00
   13   12    0     -1.31      0.00
   14   12    0     -0.86      0.00
   15   12    0      0.46      0.00
   16   12    0      0.96      0.00
   17   12    0      0.60      0.00
   -4   13    0     -0.44      0.00
   -3   13    0     -0.79      0.00
   -2   13    0     -0.70      0.00
   -1   13    0      0.26      0.00
    0   13    0      1.08      0.00
    1   13    0      0.09      0.00
    2   13    0     -1.59      0.00
    3   13    0     -1.07      0.00
    4   13    0      1.48      0.00
    5   13    0      3.11      0.00
    6   13    0      2.28      0.00
    7   13    0      0.27      0.00
    8   13    0     -0.93      0.00
    9   13    0     -1.18      0.00
   10   13    0     -1.19      0.00
   11   13    0     -0.77      0.00
   12   13    0      0.16      0.00
   13   13    0      1.23      0.00
   14   13    0      1.72      0.00
   15   13    0      0.92      0.00
   16   13    0     -0.18      0.00
   -3   14    0      0.71      0.00
   -2   14    0      1.01      0.00
   -1   14    0      0.74      0.00
    0   14    0     -0.19      0.00
    1   14    0     -0.55      0.00
    2   14    0      0.46      0.00
    3   14    0      1.40      0.00
    4   14    0      0.66      0.00
    5   14    0     -0.96      0.00
    6   14    0     -1.59      0.00
    7   14    0     -0.94      0.00
    8   14    0     -0.37      0.00
    9   14    0     -0.31      0.00
   10   14    0      0.12      0.00
   11   14    0      0.61      0.00
   12   14    0      0.24      0.00
   13   14    0     -0.66      0.00
   14   14    0     -1.42      0.00
   15   14    0     -1.39      0.00
   16   14    0     -0.54      0.00
   -1   15    0     -0.74      0.00
    0   15    0     -0.30      0.00
    1   15    0      0.21      0.00
    2   15    0      0.14      0.00
    3   15    0     -0.48      0.00
    4   15    0     -0.77      0.00
    5   15    0     -0.19      0.00
    6   15    0      0.49      0.00
    7   15    0      0.36      0.00
    8   15    0      0.04      0.00
    9   15    0      0.45      0.00
   10   15    0      0.70      0.00
   11   15    0      0.04      0.00
   12   15    0     -0.36      0.00
   13   15    0      0.13      0.00
   14   15    0      0.79      0.00
   15   15    0      1.01      0.00
    1   16    0     -0.09      0.00
    2   16    0     -0.05      0.00
    3   16    0      0.24      0.00
    4   16    0      0.45      0.00
    5   16    0      0.31      0.00
    6   16    0     -0.10      0.00
    7   16    0     -0.07      0.00
    8   16    0      0.45      0.00
    9   16    0      0.38      0.00
   10   16    0     -0.33      0.00
   11   16    0     -0.35      0.00
   12   16    0      0.24      0.00
   13   16    0      0.24      0.00
   14   16    0     -0.28      0.00
    3   17    0     -0.25      0.00
    4   17    0     -0.57      0.00
    5   17    0     -0.46      0.00
    6   17    0      0.02      0.00
    7   17    0      0.26      0.00
    8   17    0     -0.20      0.00
    9   17    0     -0.66      0.00
   10   17    0     -0.35      0.00
   11   17    0      0.07      0.00
   12   17    0     -0.14      0.00
    8   18    0     -0.31      0.00
    9   18    0      0.19      0.00
  -12  -17    1      0.61      0.00
  -11  -17    1      0.04      0.00
  -10  -17    1      0.01      0.00
   -9  -17    1      0.19      0.00
   -8  -17    1      0.01      0.00
   -7  -17    1     -0.04      0.00
   -6  -17    1      0.30      0.00
   -5  -17    1      0.43      0.00
   -4  -17    1      0.24      0.00
   -3  -17    1      0.09      0.00
  -14  -16    1     -0.06      0.00
  -13  -16    1     -0.74      0.00
  -12  -16    1     -0.91      0.00
  -11  -16    1     -0.12      0.00
  -10  -16    1      0.48      0.00
   -9  -16    1      0.35      0.00
   -8  -16    1      0.30      0.00
   -7  -16    1      0.33      0.00
   -6  -16    1     -0.21      0.00
   -5  -16    1     -0.75      0.00
   -4  -16    1     -0.54      0.00
   -3  -16    1     -0.08      0.00
   -2  -16    1     -0.04      0.00
   -1  -16    1     -0.27      0.00
  -15  -15    1     -0.69      0.00
  -14  -15    1     -0.42      0.00
  -13  -15    1      0.25      0.00
  -12  -15    1      0.93      0.00
  -11  -15    1      0.63      0.00
  -10  -15    1     -0.43      0.00
   -9  -15    1     -0.94      0.00
   -8  -15    1     -1.03      0.00
   -7  -15    1     -1.20      0.00
   -6  -15    1     -0.74      0.00
   -5  -15    1      0.54      0.00
   -4  -15    1      1.28      0.00
   -3  -15    1      0.72      0.00
   -2  -15    1     -0.04      0.00
   -1  -15    1      0.13      0.00
    0  -15    1      0.79      0.00
    1  -15    1      0.94      0.00
  -16  -14    1      0.19      0.00
  -15  -14    1      0.99      0.00
  -14  -14    1      1.08      0.00
  -13  -14    1      0.51      0.00
  -12  -14    1     -0.43      0.00
  -11  -14    1     -1.06      0.00
  -10  -14    1     -0.62      0.00
   -9  -14    1      0.27      0.00
   -8  -14    1      0.97      0.00
   -7  -14    1      1.81      0.00
   -6  -14    1      2.26      0.00
   -5  -14    1      1.23      0.00
   -4  -14    1     -0.77      0.00
   -3  -14    1     -1.66      0.00
   -2  -14    1     -0.70      0.00
   -1  -14    1      0.18      0.00
    0  -14    1     -0.39      0.00
    1  -14    1     -1.25      0.00
    2  -14    1     -1.15      0.00
    3  -14    1     -0.60      0.00
  -16  -13    1      0.44      0.00
  -15  -13    1     -0.50      0.00
  -14  -13    1     -1.32      0.00
  -13  -13    1     -1.18      0.00
  -12  -13    1     -0.38      0.00
  -11  -13    1      0.73      0.00
  -10  -13    1      1.47      0.00
   -9  -13    1      1.49      0.00
   -8  -13    1      0.90      0.00
   -7  -13    1     -0.65      0.00
   -6  -13    1     -2.71      0.00
   -5  -13    1     -3.47      0.00
   -4  -13    1     -1.86      0.00
   -3  -13    1      0.62      0.00
   -2  -13    1      1.27      0.00
   -1  -13    1      0.03      0.00
    0  -13    1     -0.43      0.00
    1  -13    1      0.51      0.00
    2  -13    1      1.15      0.00
    3  -13    1      0.86      0.00
    4  -13    1      0.37      0.00
  -17  -12    1     -0.54      0.00
  -16  -12    1     -0.90      0.00
  -15  -12    1     -0.60      0.00
  -14  -12    1      0.47      0.00
  -13  -12    1      1.05      0.00
  -12  -12    1      0.85      0.00
  -11  -12    1      0.17      0.00
  -10  -12    1     -0.92      0.00
   -9  -12    1     -2.14      0.00
   -8  -12    1     -3.12      0.00
   -7  -12    1     -2.50      0.00
   -6  -12    1      0.46      0.00
   -5  -12    1      3.69      0.00
   -4  -12    1      4.41      0.00
   -3  -12    1      2.26      0.00
   -2  -12    1      0.05      0.00
   -1  -12    1      0.21      0.00
    0  -12    1      1.17      0.00
    1  -12    1      0.71      0.00
    2  -12    1     -0.30      0.00
    3  -12    1     -0.55      0.00
    4  -12    1     -0.24      0.00
    5  -12    1      0.02      0.00
    6  -12    1     -0.02      0.00
  -17  -11    1      0.66      0.00
  -16  -11    1      1.05      0.00
  -15  -11    1      1.34      0.00
  -14  -11    1      0.79      0.00
  -13  -11    1     -0.02      0.00
  -12  -11    1     -0.40      0.00
  -11  -11    1     -0.70      0.00
  -10  -11    1     -0.69      0.00
   -9  -11    1      0.37      0.00
   -8  -11    1      2.77      0.00
   -7  -11    1      4.88      0.00
   -6  -11    1      3.75      0.00
   -5  -11    1     -0.46      0.00
   -4  -11    1     -3.94      0.00
   -3  -11    1     -3.87      0.00
   -2  -11    1     -1.65      0.00
   -1  -11    1     -1.00      0.00
    0  -11    1     -2.20      0.00
    1  -11    1     -2.21      0.00
    2  -11    1     -0.76      0.00
    3  -11    1      0.09      0.00
    4  -11    1     -0.02      0.00
    5  -11    1     -0.39      0.00
    6  -11    1     -0.38      0.00
    7  -11    1      0.07      0.00
  -17  -10    1     -0.31      0.00
  -16  -10    1     -0.83      0.00
  -15  -10    1     -1.32      0.00
  -14  -10    1     -1.28      0.00
  -13  -10    1     -0.73      0.00
  -12  -10    1     -0.50      0.00
  -11  -10    1      0.08      0.00
  -10  -10    1      1.64      0.00
   -9  -10    1      2.62      0.00
   -8  -10    1      0.88      0.00
   -7  -10    1     -3.39      0.00
   -6  -10    1     -6.24      0.00
   -5  -10    1     -4.34      0.00
   -4  -10    1      0.05      0.00
   -3  -10    1      2.18      0.00
   -2  -10    1      0.87      0.00
   -1  -10    1     -0.16      0.00
    0  -10    1      1.87      0.00
    1  -10    1      3.78      0.00
    2  -10    1      2.53      0.00
    3  -10    1      0.36      0.00
    4  -10    1     -0.27      0.00
    5  -10    1      0.35      0.00
    6  -10    1      0.97      0.00
    7  -10    1      0.62      0.00
    8  -10    1     -0.12      0.00
  -17   -9    1     -0.67      0.00
  -16   -9    1     -0.13      0.00
  -15   -9    1      0.61      0.00
  -14   -9    1      0.91      0.00
  -13   -9    1      0.48      0.00
  -12   -9    1      0.52      0.00
  -11   -9    1      0.99      0.00
  -10   -9    1     -0.52      0.00
   -9   -9    1     -3.91      0.00
   -8   -9    1     -5.37      0.00
   -7   -9    1     -1.94      0.00
   -6   -9    1      3.99      0.00
   -5   -9    1      6.48      0.00
   -4   -9    1      4.04      0.00
   -3   -9    1      1.21      0.00
   -2   -9    1      1.85      0.00
   -1   -9    1      3.92      0.00
    0   -9    1      2.27      0.00
    1   -9    1     -2.60      0.00
    2   -9    1     -4.55      0.00
    3   -9    1     -2.15      0.00
    4   -9    1      0.44      0.00
    5   -9    1      0.65      0.00
    6   -9    1     -0.73      0.00
    7   -9    1     -1.47      0.00
    8   -9    1     -0.74      0.00
    9   -9    1     -0.03      0.00
  -17   -8    1      1.18      0.00
  -16   -8    1      1.30      0.00
  -15   -8    1      0.53      0.00
  -14   -8    1     -0.21      0.00
  -13   -8    1      0.09      0.00
  -12   -8    1      0.45      0.00
  -11   -8    1     -0.91      0.00
  -10   -8    1     -1.66      0.00
   -9   -8    1      1.62      0.00
   -8   -8    1      6.68      0.00
   -7   -8    1      7.49      0.00
   -6   -8    1      2.17      0.00
   -5   -8    1     -3.73      0.00
   -4   -8    1     -4.55      0.00
   -3   -8    1     -2.40      0.00
   -2   -8    1     -2.98      0.00
   -1   -8    1     -6.99      0.00
    0   -8    1     -8.60      0.00
    1   -8    1     -3.48      0.00
    2   -8    1      3.30      0.00
    3   -8    1      4.56      0.00
    4   -8    1      1.22      0.00
    5   -8    1     -1.33      0.00
    6   -8    1     -0.68      0.00
    7   -8    1      1.31      0.00
    8   -8    1      1.65      0.00
    9   -8    1      0.66      0.00
   10   -8    1      0.31      0.00
  -17   -7    1     -0.47      0.00
  -16   -7    1     -1.44      0.00
  -15   -7    1     -1.27      0.00
  -14   -7    1     -0.32      0.00
  -13   -7    1     -0.25      0.00
  -12   -7    1     -1.24      0.00
  -11   -7    1     -0.49      0.00
  -10   -7    1      2.43      0.00
   -9   -7    1      2.44      0.00
   -8   -7    1     -2.96      0.00
   -7   -7    1     -8.50      0.00
   -6   -7    1     -7.71      0.00
   -5   -7    1     -1.84      0.00
   -4   -7    1      1.52      0.00
   -3   -7    1     -0.11      0.00
   -2   -7    1     -0.62      0.00
   -1   -7    1      4.73      0.00
    0   -7    1     11.68      0.00
    1   -7    1     11.52      0.00
    2   -7    1      3.28      0.00
    3   -7    1     -3.88      0.00
    4   -7    1     -3.75      0.00
    5   -7    1      0.16      0.00
    6   -7    1      1.92      0.00
    7   -7    1      0.16      0.00
    8   -7    1     -1.71      0.00
    9   -7    1     -1.26      0.00
   10   -7    1     -0.36      0.00
   11   -7    1     -0.50      0.00
  -17   -6    1     -0.46      0.00
  -16   -6    1      0.46      0.00
  -15   -6    1      1.09      0.00
  -14   -6    1      0.35      0.00
  -13   -6    1     -0.23      0.00
  -12   -6    1      0.97      0.00
  -11   -6    1      1.89      0.00
  -10   -6    1     -0.91      0.00
   -9   -6    1     -4.62      0.00
   -8   -6    1     -2.86      0.00
   -7   -6    1      3.82      0.00
   -6   -6    1      7.97      0.00
   -4   -6    1      1.46      0.00
   -3   -6    1      2.96      0.00
   -2   -6    1      6.93      0.00
   -1   -6    1      4.29      0.00
    0   -6    1     -6.24      0.00
    1   -6    1    -14.71      0.00
    2   -6    1    -11.83      0.00
    3   -6    1     -1.70      0.00
    4   -6    1      4.08      0.00
    5   -6    1      2.12      0.00
    6   -6    1     -1.65      0.00
    7   -6    1     -1.92      0.00
    8   -6    1      0.50      0.00
    9   -6    1      1.46      0.00
   10   -6    1      0.40      0.00
   11   -6    1      0.00      0.00
  -17   -5    1      0.56      0.00
  -16   -5    1      0.47      0.00
  -15   -5    1     -0.43      0.00
  -14   -5    1     -0.23      0.00
  -13   -5    1      0.88      0.00
  -12   -5    1      0.38      0.00
  -11   -5    1     -1.88      0.00
  -10   -5    1     -1.50      0.00
   -9   -5    1      3.28      0.00
   -8   -5    1      6.20      0.00
   -7   -5    1      2.40      0.00
   -6   -5    1     -3.51      0.00
   -5   -5    1     -4.33      0.00
   -4   -5    1     -0.73      0.00
   -3   -5    1     -1.29      0.00
   -2   -5    1     -9.18      0.00
   -1   -5    1    -14.57      0.00
    0   -5    1     -7.51      0.00
    1   -5    1      7.31      0.00
    2   -5    1     15.11      0.00
    3   -5    1      9.23      0.00
    4   -5    1     -0.79      0.00
    5   -5    1     -3.63      0.00
    6   -5    1     -0.01      0.00
    7   -5    1      2.74      0.00
    8   -5    1      1.45      0.00
    9   -5    1     -0.77      0.00
   10   -5    1     -0.62      0.00
   11   -5    1      0.41      0.00
   12   -5    1      0.15      0.00
  -17   -4    1     -0.25      0.00
  -16   -4    1     -0.66      0.00
  -15   -4    1     -0.09      0.00
  -14   -4    1      0.32      0.00
  -13   -4    1     -0.76      0.00
  -12   -4    1     -1.55      0.00
  -11   -4    1      0.30      0.00
  -10   -4    1      2.54      0.00
   -9   -4    1      0.07      0.00
   -8   -4    1     -5.30      0.00
   -7   -4    1     -5.80      0.00
   -6   -4    1     -0.81      0.00
   -5   -4    1      1.77      0.00
   -4   -4    1     -2.38      0.00
   -1   -4    1     16.09      0.00
    0   -4    1     20.99      0.00
    1   -4    1      8.97      0.00
    2   -4    1     -7.67      0.00
    3   -4    1    -12.45      0.00
    4   -4    1     -4.44      0.00
    5   -4    1      3.14      0.00
    6   -4    1      2.34      0.00
    7   -4    1     -2.03      0.00
    8   -4    1     -3.13      0.00
    9   -4    1     -0.86      0.00
   10   -4    1      0.51      0.00
   11   -4    1     -0.27      0.00
   12   -4    1     -0.66      0.00
   13   -4    1      0.04      0.00
  -16   -3    1      0.60      0.00
  -15   -3    1      0.42      0.00
  -14   -3    1     -0.34      0.00
  -13   -3    1      0.04      0.00
  -12   -3    1      1.37      0.00
  -11   -3    1      1.06      0.00
  -10   -3    1     -1.70      0.00
   -9   -3    1     -2.59      0.00
   -8   -3    1      1.76      0.00
   -7   -3    1      5.64      0.00
   -5   -3    1     -1.72      0.00
   -4   -3    1      1.58      0.00
   -2   -3    1     13.86      0.00
    0   -3    1    -21.64      0.00
    2   -3    1     -7.53      0.00
    3   -3    1      7.18      0.00
    4   -3    1      7.53      0.00
    5   -3    1     -0.64      0.00
    6   -3    1     -4.15      0.00
    7   -3    1     -0.44      0.00
    8   -3    1      3.38      0.00
    9   -3    1      2.75      0.00
   10   -3    1      0.34      0.00
   11   -3    1     -0.03      0.00
   12   -3    1      0.66      0.00
   13   -3    1      0.26      0.00
  -16   -2    1     -0.59      0.00
  -15   -2    1     -0.74      0.00
  -14   -2    1      0.08      0.00
  -13   -2    1      0.49      0.00
  -12   -2    1     -0.47      0.00
  -11   -2    1     -1.07      0.00
  -10   -2    1      0.74      0.00
   -9   -2    1      3.35      0.00
   -8   -2    1      1.75      0.00
   -7   -2    1     -3.38      0.00
   -6   -2    1     -3.90      0.00
   -5   -2    1      2.11      0.00
   -3   -2    1     -7.05      0.00
   -2   -2    1    -23.00      0.00
   -1   -2    1    -20.79      0.00
    0   -2    1      3.09      0.00
    2   -2    1     19.89      0.00
    3   -2    1      3.57      0.00
    4   -2    1     -5.63      0.00
    5   -2    1     -1.93      0.00
    6   -2    1      4.24      0.00
    7   -2    1      3.60      0.00
    8   -2    1     -1.30      0.00
    9   -2    1     -3.52      0.00
   10   -2    1     -1.72      0.00
   11   -2    1      0.02      0.00
   12   -2    1     -0.31      0.00
   13   -2    1     -0.45      0.00
   14   -2    1      0.28      0.00
  -16   -1    1      0.29      0.00
  -15   -1    1      0.87      0.00
  -14   -1    1      0.39      0.00
  -13   -1    1     -0.66      0.00
  -12   -1    1     -0.34      0.00
  -11   -1    1      0.66      0.00
  -10   -1    1     -0.21      0.00
   -9   -1    1     -3.25      0.00
   -8   -1    1     -4.18      0.00
   -7   -1    1      0.32      0.00
   -6   -1    1      4.49      0.00
   -5   -1    1      0.37      0.00
   -4   -1    1     -8.00      0.00
   -2   -1    1     14.27      0.00
    1   -1    1     -3.98      0.00
    3   -1    1    -11.75      0.00
    4   -1    1      0.66      0.00
    5   -1    1      2.76      0.00
    6   -1    1     -3.05      0.00
    7   -1    1     -5.79      0.00
    8   -1    1     -2.21      0.00
    9   -1    1      2.07      0.00
   10   -1    1      2.47      0.00
   11   -1    1      0.54      0.00
   12   -1    1     -0.06      0.00
   13   -1    1      0.41      0.00
   14   -1    1      0.05      0.00
   15   -1    1     -0.43      0.00
  -15    0    1     -0.51      0.00
  -14    0    1     -0.78      0.00
  -13    0    1      0.26      0.00
  -12    0    1      0.90      0.00
  -11    0    1     -0.21      0.00
  -10    0    1     -0.61      0.00
   -9    0    1      2.13      0.00
   -8    0    1      5.36      0.00
   -7    0    1      3.20      0.00
   -6    0    1     -3.37      0.00
   -5    0    1     -4.37      0.00
   -4    0    1      4.97      0.00
   -3    0    1     13.87      0.00
    2    0    1      4.25      0.00
    3    0    1     11.15      0.00
    4    0    1      2.79      0.00
    5    0    1     -2.89      0.00
    6    0    1      1.09      0.00
    7    0    1      6.48      0.00
    8    0    1      5.49      0.00
    9    0    1      0.75      0.00
   10    0    1     -1.79      0.00
   11    0    1     -1.04      0.00
   12    0    1      0.04      0.00
   13    0    1     -0.22      0.00
   14    0    1     -0.34      0.00
   15    0    1      0.11      0.00
  -15    1    1     -0.01      0.00
  -14    1    1      0.69      0.00
  -13    1    1      0.53      0.00
  -12    1    1     -0.61      0.00
  -11    1    1     -0.33      0.00
  -10    1    1      1.19      0.00
   -9    1    1      0.17      0.00
   -8    1    1     -4.25      0.00
   -7    1    1     -6.13      0.00
   -6    1    1     -0.43      0.00
   -5    1    1      6.11      0.00
   -4    1    1      1.89      0.00
   -3    1    1    -11.88      0.00
   -1    1    1     -3.04      0.00
    1    1    1     27.99      0.00
    3    1    1     -3.34      0.00
    4    1    1     -2.44      0.00
    5    1    1      4.04      0.00
    6    1    1      2.82      0.00
    7    1    1     -4.50      0.00
    8    1    1     -7.49      0.00
    9    1    1     -3.76      0.00
   10    1    1      0.34      0.00
   11    1    1      1.06      0.00
   12    1    1      0.20      0.00
   13    1    1      0.19      0.00
   14    1    1      0.54      0.00
   15    1    1      0.17      0.00
   16    1    1     -0.05      0.00
  -14    2    1     -0.27      0.00
  -13    2    1     -0.94      0.00
  -12    2    1     -0.39      0.00
  -11    2    1      0.25      0.00
  -10    2    1     -1.05      0.00
   -9    2    1     -2.10      0.00
   -8    2    1      1.01      0.00
   -7    2    1      6.16      0.00
   -6    2    1      5.18      0.00
   -5    2    1     -3.26      0.00
   -4    2    1     -7.17      0.00
   -3    2    1      2.94      0.00
   -2    2    1     18.11      0.00
    0    2    1      0.67      0.00
    3    2    1     -2.84      0.00
    4    2    1      1.00      0.00
    5    2    1     -4.98      0.00
    6    2    1     -7.99      0.00
    7    2    1     -1.66      0.00
    8    2    1      5.96      0.00
    9    2    1      6.07      0.00
   10    2    1      1.58      0.00
   11    2    1     -0.79      0.00
   12    2    1     -0.41      0.00
   13    2    1     -0.16      0.00
   14    2    1     -0.77      0.00
   15    2    1     -0.60      0.00
   16    2    1      0.04      0.00
  -14    3    1     -0.06      0.00
  -13    3    1      0.73      0.00
  -12    3    1      1.03      0.00
  -11    3    1      0.28      0.00
  -10    3    1      0.69      0.00
   -9    3    1      2.62      0.00
   -8    3    1      2.17      0.00
   -7    3    1     -2.88      0.00
   -6    3    1     -7.02      0.00
   -5    3    1     -2.42      0.00
   -4    3    1      6.84      0.00
   -3    3    1      6.27      0.00
   -2    3    1     -7.84      0.00
   -1    3    1    -20.15      0.00
    0    3    1    -15.22      0.00
    1    3    1      0.97      0.00
    2    3    1      8.48      0.00
    4    3    1     -2.84      0.00
    5    3    1      2.14      0.00
    6    3    1      9.88      0.00
    7    3    1      9.13      0.00
    8    3    1      0.48      0.00
    9    3    1     -5.24      0.00
   10    3    1     -3.55      0.00
   11    3    1     -0.19      0.00
   12    3    1      0.45      0.00
   13    3    1     -0.05      0.00
   14    3    1      0.56      0.00
   15    3    1      1.20      0.00
   16    3    1      0.46      0.00
  -13    4    1     -0.25      0.00
  -12    4    1     -0.95      0.00
  -11    4    1     -0.53      0.00
  -10    4    1     -0.08      0.00
   -9    4    1     -1.80      0.00
   -8    4    1     -3.62      0.00
   -7    4    1     -1.26      0.00
   -6    4    1      4.49      0.00
   -5    4    1      5.97      0.00
   -4    4    1     -1.60      0.00
   -3    4    1     -9.23      0.00
   -2    4    1     -4.17      0.00
   -1    4    1     10.06      0.00
    0    4    1     16.58      0.00
    1    4    1      8.56      0.00
    3    4    1      0.17      0.00
    5    4    1      5.11      0.00
    6    4    1     -4.69      0.00
    7    4    1    -11.40      0.00
    8    4    1     -7.76      0.00
    9    4    1      0.32      0.00
   10    4    1      3.40      0.00
   11    4    1      1.53      0.00
   12    4    1      0.10      0.00
   13    4    1      0.45      0.00
   14    4    1      0.35      0.00
   15    4    1     -0.95      0.00
   16    4    1     -1.32      0.00
  -12    5    1      0.47      0.00
  -11    5    1      0.54      0.00
  -10    5    1     -0.52      0.00
   -9    5    1     -0.06      0.00
   -8    5    1      2.70      0.00
   -7    5    1      3.66      0.00
   -6    5    1     -0.08      0.00
   -5    5    1     -4.84      0.00
   -4    5    1     -3.15      0.00
   -3    5    1      5.33      0.00
   -2    5    1      9.48      0.00
   -1    5    1      1.87      0.00
    0    5    1     -8.67      0.00
    1    5    1     -9.30      0.00
    2    5    1     -1.92      0.00
    3    5    1      0.17      0.00
    4    5    1     -6.67      0.00
    5    5    1    -11.19      0.00
    6    5    1     -5.11      0.00
    7    5    1      5.58      0.00
    8    5    1      9.67      0.00
    9    5    1      4.96      0.00
   10    5    1     -0.59      0.00
   11    5    1     -1.58      0.00
   12    5    1     -0.67      0.00
   13    5    1     -0.87      0.00
   14    5    1     -1.39      0.00
   15    5    1     -0.50      0.00
   16    5    1      1.05      0.00
   17    5    1      1.10      0.00
  -12    6    1     -0.03      0.00
  -11    6    1     -0.41      0.00
  -10    6    1      0.44      0.00
   -9    6    1      1.55      0.00
   -8    6    1     -0.06      0.00
   -7    6    1     -2.99      0.00
   -6    6    1     -2.80      0.00
   -5    6    1      1.14      0.00
   -4    6    1      3.77      0.00
   -3    6    1     -0.16      0.00
   -2    6    1     -7.14      0.00
   -1    6    1     -7.42      0.00
    0    6    1     -0.09      0.00
    1    6    1      4.70      0.00
    2    6    1      1.27      0.00
    3    6    1     -2.94      0.00
    4    6    1      1.27      0.00
    5    6    1     10.02      0.00
    6    6    1     11.78      0.00
    7    6    1      3.91      0.00
    8    6    1     -4.82      0.00
    9    6    1     -6.25      0.00
   10    6    1     -2.29      0.00
   11    6    1      0.31      0.00
   12    6    1      0.37      0.00
   13    6    1      0.72      0.00
   14    6    1      1.77      0.00
   15    6    1      1.95      0.00
   16    6    1      0.59      0.00
   17    6    1     -0.76      0.00
  -11    7    1      0.19      0.00
  -10    7    1      0.08      0.00
   -9    7    1     -1.39      0.00
   -8    7    1     -1.94      0.00
   -7    7    1      0.28      0.00
   -6    7    1      2.47      0.00
   -5    7    1      1.49      0.00
   -4    7    1     -1.52      0.00
   -3    7    1     -1.87      0.00
   -2    7    1      2.69      0.00
   -1    7    1      6.54      0.00
    0    7    1      3.92      0.00
    1    7    1     -0.81      0.00
    2    7    1      0.08      0.00
    3    7    1      5.24      0.00
    4    7    1      5.59      0.00
    5    7    1     -2.26      0.00
    6    7    1    -10.14      0.00
    7    7    1     -9.55      0.00
    8    7    1     -2.35      0.00
    9    7    1      3.17      0.00
   10    7    1      2.94      0.00
   11    7    1      0.76      0.00
   12    7    1      0.31      0.00
   13    7    1      0.13      0.00
   14    7    1     -1.12      0.00
   15    7    1     -2.20      0.00
   16    7    1     -1.93      0.00
   17    7    1     -0.57      0.00
  -10    8    1     -0.34      0.00
   -9    8    1      0.26      0.00
   -8    8    1      1.73      0.00
   -7    8    1      1.64      0.00
   -6    8    1     -0.25      0.00
   -5    8    1     -1.31      0.00
   -4    8    1     -0.23      0.00
   -3    8    1      1.28      0.00
   -2    8    1     -0.13      0.00
   -1    8    1     -3.76      0.00
    0    8    1     -3.95      0.00
    1    8    1     -0.05      0.00
    2    8    1      1.09      0.00
    3    8    1     -3.86      0.00
    4    8    1     -8.74      0.00
    5    8    1     -6.02      0.00
    6    8    1      2.49      0.00
    7    8    1      7.94      0.00
    8    8    1      6.14      0.00
    9    8    1      1.11      0.00
   10    8    1     -1.38      0.00
   11    8    1     -0.76      0.00
   12    8    1     -0.45      0.00
   13    8    1     -0.90      0.00
   14    8    1     -0.16      0.00
   15    8    1      1.26      0.00
   16    8    1      1.88      0.00
   17    8    1      1.34      0.00
   -9    9    1      0.42      0.00
   -8    9    1     -0.40      0.00
   -7    9    1     -1.43      0.00
   -6    9    1     -1.12      0.00
   -5    9    1     -0.21      0.00
   -4    9    1     -0.09      0.00
   -3    9    1     -0.81      0.00
   -2    9    1     -0.74      0.00
   -1    9    1      1.58      0.00
    0    9    1      3.11      0.00
    1    9    1      0.21      0.00
    2    9    1     -3.37      0.00
    3    9    1     -1.28      0.00
    4    9    1      5.37      0.00
    5    9    1      8.82      0.00
    6    9    1      4.77      0.00
    7    9    1     -1.99      0.00
    8    9    1     -4.78      0.00
    9    9    1     -2.98      0.00
   10    9    1     -0.52      0.00
   11    9    1     -0.06      0.00
   12    9    1     -0.13      0.00
   13    9    1      0.89      0.00
   14    9    1      1.27      0.00
   15    9    1      0.17      0.00
   16    9    1     -0.86      0.00
   17    9    1     -1.06      0.00
   -8   10    1     -0.35      0.00
   -7   10    1      0.39      0.00
   -6   10    1      0.91      0.00
   -5   10    1      0.80      0.00
   -4   10    1      0.85      0.00
   -3   10    1      1.33      0.00
   -2   10    1      1.55      0.00
   -1   10    1      0.14      0.00
    0   10    1     -2.12      0.00
    1   10    1     -1.20      0.00
    2   10    1      3.23      0.00
    3   10    1      5.35      0.00
    4   10    1      1.42      0.00
    5   10    1     -4.80      0.00
    6   10    1     -6.66      0.00
    7   10    1     -3.08      0.00
    8   10    1      0.89      0.00
    9   10    1      1.79      0.00
   10   10    1      0.84      0.00
   11   10    1      0.55      0.00
   12   10    1      0.95      0.00
   13   10    1      0.11      0.00
   14   10    1     -1.38      0.00
   15   10    1     -1.34      0.00
   16   10    1     -0.34      0.00
   17   10    1      0.28      0.00
   -7   11    1      0.13      0.00
   -6   11    1     -0.32      0.00
   -5   11    1     -0.45      0.00
   -4   11    1     -0.59      0.00
   -3   11    1     -1.24      0.00
   -2   11    1     -2.05      0.00
   -1   11    1     -1.68      0.00
    0   11    1      0.59      0.00
    1   11    1      1.98      0.00
    2   11    1     -0.63      0.00
    3   11    1     -4.73      0.00
    4   11    1     -5.17      0.00
    5   11    1     -1.06      0.00
    6   11    1      3.39      0.00
    7   11    1      4.03      0.00
    8   11    1      1.85      0.00
    9   11    1      0.30      0.00
   10   11    1      0.18      0.00
   11   11    1     -0.02      0.00
   12   11    1     -1.06      0.00
   13   11    1     -1.37      0.00
   14   11    1      0.15      0.00
   15   11    1      1.44      0.00
   16   11    1      1.15      0.00
   17   11    1      0.47      0.00
   -6   12    1      0.03      0.00
   -5   12    1      0.10      0.00
   -4   12    1      0.00      0.00
   -3   12    1      0.24      0.00
   -2   12    1      1.15      0.00
   -1   12    1      1.96      0.00
    0   12    1      0.98      0.00
    1   12    1     -1.35      0.00
    2   12    1     -1.60      0.00
    3   12    1      1.26      0.00
    4   12    1      3.87      0.00
    5   12    1      3.26      0.00
    6   12    1      0.28      0.00
    7   12    1     -1.88      0.00
    8   12    1     -1.75      0.00
    9   12    1     -0.99      0.00
   10   12    1     -0.85      0.00
   11   12    1     -0.69      0.00
   12   12    1      0.37      0.00
   13   12    1      1.69      0.00
   14   12    1      1.39      0.00
   15   12    1     -0.28      0.00
   16   12    1     -1.08      0.00
   17   12    1     -0.84      0.00
   -4   13    1      0.32      0.00
   -3   13    1      0.48      0.00
   -2   13    1      0.15      0.00
   -1   13    1     -0.77      0.00
    0   13    1     -1.20      0.00
    1   13    1      0.06      0.00
    2   13    1      1.66      0.00
    3   13    1      1.16      0.00
    4   13    1     -0.90      0.00
    5   13    1     -1.96      0.00
    6   13    1     -1.09      0.00
    7   13    1      0.22      0.00
    8   13    1      0.34      0.00
    9   13    1     -0.05      0.00
   10   13    1      0.23      0.00
   11   13    1      0.61      0.00
   12   13    1      0.16      0.00
   13   13    1     -1.09      0.00
   14   13    1     -1.85      0.00
   15   13    1     -0.98      0.00
   16   13    1      0.27      0.00
   -3   14    1     -0.73      0.00
   -2   14    1     -0.72      0.00
   -1   14    1     -0.21      0.00
    0   14    1      0.43      0.00
    1   14    1      0.30      0.00
    2   14    1     -0.71      0.00
    3   14    1     -1.26      0.00
    4   14    1     -0.53      0.00
    5   14    1      0.45      0.00
    6   14    1      0.41      0.00
    7   14    1     -0.29      0.00
    8   14    1     -0.11      0.00
    9   14    1      0.91      0.00
   10   14    1      1.04      0.00
   11   14    1      0.21      0.00
   12   14    1     -0.12      0.00
   13   14    1      0.48      0.00
   14   14    1      1.33      0.00
   15   14    1      1.28      0.00
   16   14    1      0.37      0.00
   -1   15    1      0.54      0.00
    0   15    1     -0.04      0.00
    1   15    1     -0.15      0.00
    2   15    1      0.34      0.00
    3   15    1      0.74      0.00
    4   15    1      0.47      0.00
    5   15    1     -0.16      0.00
    6   15    1     -0.25      0.00
    7   15    1      0.50      0.00
    8   15    1      0.90      0.00
    9   15    1     -0.14      0.00
   10   15    1     -1.26      0.00
   11   15    1     -0.95      0.00
   12   15    1     -0.16      0.00
   13   15    1     -0.15      0.00
   14   15    1     -0.68      0.00
   15   15    1     -0.90      0.00
    0   16    1     -0.15      0.00
    1   16    1      0.25      0.00
    2   16    1     -0.13      0.00
    3   16    1     -0.63      0.00
    4   16    1     -0.46      0.00
    5   16    1      0.22      0.00
    6   16    1      0.60      0.00
    7   16    1      0.02      0.00
    8   16    1     -1.04      0.00
    9   16    1     -1.07      0.00
   10   16    1      0.10      0.00
   11   16    1      0.74      0.00
   12   16    1      0.30      0.00
   13   16    1     -0.03      0.00
   14   16    1      0.21      0.00
    3   17    1      0.34      0.00
    4   17    1      0.64      0.00
    5   17    1      0.15      0.00
    6   17    1     -0.61      0.00
    7   17    1     -0.63      0.00
    8   17    1      0.33      0.00
    9   17    1      1.18      0.00
   10   17    1      0.91      0.00
   11   17    1      0.13      0.00
   12   17    1     -0.09      0.00
    7   18    1      0.68      0.00
    8   18    1      0.33      0.00
    9   18    1     -0.48      0.00
  -12  -17    2     -0.72      0.00
  -11  -17    2      0.08      0.00
  -10  -17    2      0.41      0.00
   -9  -17    2      0.20      0.00
   -8  -17    2     -0.11      0.00
   -7  -17    2     -0.56      0.00
   -6  -17    2     -0.98      0.00
   -5  -17    2     -0.77      0.00
   -4  -17    2     -0.28      0.00
   -3  -17    2     -0.18      0.00
  -14  -16    2      0.27      0.00
  -13  -16    2      0.84      0.00
  -12  -16    2      1.02      0.00
  -11  -16    2      0.20      0.00
  -10  -16    2     -0.70      0.00
   -9  -16    2     -0.81      0.00
   -8  -16    2     -0.53      0.00
   -7  -16    2     -0.02      0.00
   -6  -16    2      0.90      0.00
   -5  -16    2      1.41      0.00
   -4  -16    2      0.89      0.00
   -3  -16    2      0.23      0.00
   -2  -16    2      0.23      0.00
   -1  -16    2      0.49      0.00
  -15  -15    2      0.53      0.00
  -14  -15    2      0.28      0.00
  -13  -15    2     -0.27      0.00
  -12  -15    2     -0.96      0.00
  -11  -15    2     -0.79      0.00
  -10  -15    2      0.35      0.00
   -9  -15    2      1.20      0.00
   -8  -15    2      1.40      0.00
   -7  -15    2      1.29      0.00
   -6  -15    2      0.52      0.00
   -5  -15    2     -0.85      0.00
   -4  -15    2     -1.55      0.00
   -3  -15    2     -0.98      0.00
   -2  -15    2     -0.28      0.00
   -1  -15    2     -0.51      0.00
    0  -15    2     -1.01      0.00
    1  -15    2     -0.79      0.00
  -15  -14    2     -0.79      0.00
  -14  -14    2     -0.96      0.00
  -13  -14    2     -0.58      0.00
  -12  -14    2      0.27      0.00
  -11  -14    2      1.03      0.00
  -10  -14    2      0.72      0.00
   -9  -14    2     -0.32      0.00
   -8  -14    2     -1.29      0.00
   -7  -14    2     -2.07      0.00
   -6  -14    2     -2.29      0.00
   -5  -14    2     -1.31      0.00
   -4  -14    2      0.45      0.00
   -3  -14    2      1.39      0.00
   -2  -14    2      0.89      0.00
   -1  -14    2      0.45      0.00
    0  -14    2      1.04      0.00
    1  -14    2      1.48      0.00
    2  -14    2      0.98      0.00
    3  -14    2      0.35      0.00
  -16  -13    2     -0.36      0.00
  -15  -13    2      0.34      0.00
  -14  -13    2      1.07      0.00
  -13  -13    2      1.13      0.00
  -12  -13    2      0.58      0.00
  -11  -13    2     -0.50      0.00
  -10  -13    2     -1.33      0.00
   -9  -13    2     -1.35      0.00
   -8  -13    2     -0.62      0.00
   -7  -13    2      0.93      0.00
   -6  -13    2      2.63      0.00
   -5  -13    2      3.23      0.00
   -4  -13    2      2.14      0.00
   -3  -13    2      0.26      0.00
   -2  -13    2     -0.54      0.00
   -1  -13    2     -0.24      0.00
    0  -13    2     -0.54      0.00
    1  -13    2     -1.39      0.00
    2  -13    2     -1.46      0.00
    3  -13    2     -0.81      0.00
    4  -13    2     -0.33      0.00
  -16  -12    2      0.63      0.00
  -15  -12    2      0.54      0.00
  -14  -12    2     -0.21      0.00
  -13  -12    2     -0.72      0.00
  -12  -12    2     -0.75      0.00
  -11  -12    2     -0.23      0.00
  -10  -12    2      0.76      0.00
   -9  -12    2      1.86      0.00
   -8  -12    2      2.69      0.00
   -7  -12    2      2.06      0.00
   -6  -12    2     -0.41      0.00
   -5  -12    2     -2.92      0.00
   -4  -12    2     -3.66      0.00
   -3  -12    2     -2.55      0.00
   -2  -12    2     -1.35      0.00
   -1  -12    2     -1.28      0.00
    0  -12    2     -0.96      0.00
    1  -12    2      0.39      0.00
    2  -12    2      1.27      0.00
    3  -12    2      0.99      0.00
    4  -12    2      0.39      0.00
    5  -12    2      0.05      0.00
    6  -12    2      0.05      0.00
  -17  -11    2     -0.57      0.00
  -16  -11    2     -0.92      0.00
  -15  -11    2     -1.19      0.00
  -14  -11    2     -0.82      0.00
  -13  -11    2     -0.30      0.00
  -12  -11    2     -0.01      0.00
  -11  -11    2      0.30      0.00
  -10  -11    2      0.34      0.00
   -9  -11    2     -0.44      0.00
   -8  -11    2     -2.43      0.00
   -7  -11    2     -4.22      0.00
   -6  -11    2     -3.29      0.00
   -5  -11    2     -0.12      0.00
   -4  -11    2      2.40      0.00
   -3  -11    2      2.70      0.00
   -2  -11    2      2.05      0.00
   -1  -11    2      2.63      0.00
    0  -11    2      3.48      0.00
    1  -11    2      2.15      0.00
    2  -11    2     -0.13      0.00
    3  -11    2     -0.96      0.00
    4  -11    2     -0.53      0.00
    5  -11    2      0.13      0.00
    6  -11    2      0.39      0.00
    7  -11    2      0.10      0.00
  -17  -10    2      0.46      0.00
  -16  -10    2      0.97      0.00
  -15  -10    2      1.31      0.00
  -14  -10    2      1.10      0.00
  -13  -10    2      0.63      0.00
  -12  -10    2      0.65      0.00
  -11  -10    2      0.43      0.00
  -10  -10    2     -0.72      0.00
   -9  -10    2     -1.69      0.00
   -8  -10    2     -0.52      0.00
   -7  -10    2      2.93      0.00
   -6  -10    2      5.21      0.00
   -5  -10    2      3.83      0.00
   -4  -10    2      0.97      0.00
   -3  -10    2     -0.21      0.00
   -2  -10    2      0.29      0.00
   -1  -10    2     -0.53      0.00
    0  -10    2     -3.66      0.00
    1  -10    2     -5.10      0.00
    2  -10    2     -2.76      0.00
    3  -10    2      0.07      0.00
    4  -10    2      0.86      0.00
    5  -10    2      0.17      0.00
    6  -10    2     -0.71      0.00
    7  -10    2     -0.75      0.00
    8  -10    2     -0.18      0.00
  -17   -9    2      0.27      0.00
  -16   -9    2     -0.27      0.00
  -15   -9    2     -0.79      0.00
  -14   -9    2     -0.72      0.00
  -13   -9    2      0.03      0.00
  -12   -9    2      0.01      0.00
  -11   -9    2     -0.81      0.00
  -10   -9    2     -0.14      0.00
   -9   -9    2      2.42      0.00
   -8   -9    2      3.88      0.00
   -7   -9    2      1.39      0.00
   -6   -9    2     -3.16      0.00
   -5   -9    2     -4.91      0.00
   -4   -9    2     -3.43      0.00
   -3   -9    2     -2.49      0.00
   -2   -9    2     -3.88      0.00
   -1   -9    2     -4.79      0.00
    0   -9    2     -1.36      0.00
    1   -9    2      4.19      0.00
    2   -9    2      5.65      0.00
    3   -9    2      2.59      0.00
    4   -9    2     -0.38      0.00
    5   -9    2     -0.87      0.00
    6   -9    2      0.31      0.00
    7   -9    2      1.15      0.00
    8   -9    2      0.76      0.00
    9   -9    2      0.21      0.00
  -17   -8    2     -0.66      0.00
  -16   -8    2     -0.58      0.00
  -15   -8    2     -0.03      0.00
  -14   -8    2      0.22      0.00
  -13   -8    2     -0.63      0.00
  -12   -8    2     -1.36      0.00
  -11   -8    2     -0.12      0.00
  -10   -8    2      1.12      0.00
   -9   -8    2     -0.85      0.00
   -8   -8    2     -4.67      0.00
   -7   -8    2     -5.48      0.00
   -6   -8    2     -1.59      0.00
   -5   -8    2      2.36      0.00
   -4   -8    2      2.54      0.00
   -3   -8    2      1.90      0.00
   -2   -8    2      4.54      0.00
   -1   -8    2      8.96      0.00
    0   -8    2      9.17      0.00
    1   -8    2      2.66      0.00
    2   -8    2     -4.28      0.00
    3   -8    2     -5.11      0.00
    4   -8    2     -1.65      0.00
    5   -8    2      0.93      0.00
    6   -8    2      0.61      0.00
    7   -8    2     -0.92      0.00
    8   -8    2     -1.17      0.00
    9   -8    2     -0.44      0.00
   10   -8    2     -0.23      0.00
  -17   -7    2      0.27      0.00
  -16   -7    2      0.70      0.00
  -15   -7    2      0.36      0.00
  -14   -7    2     -0.24      0.00
  -13   -7    2      0.33      0.00
  -12   -7    2      1.92      0.00
  -11   -7    2      1.64      0.00
  -10   -7    2     -0.91      0.00
   -9   -7    2     -1.41      0.00
   -8   -7    2      2.24      0.00
   -7   -7    2      6.01      0.00
   -6   -7    2      5.17      0.00
   -5   -7    2      1.31      0.00
   -4   -7    2      0.30      0.00
   -3   -7    2      2.19      0.00
   -2   -7    2      0.67      0.00
   -1   -7    2     -6.62      0.00
    0   -7    2    -13.46      0.00
    1   -7    2    -11.82      0.00
    2   -7    2     -2.79      0.00
    3   -7    2      3.98      0.00
    4   -7    2      3.57      0.00
    5   -7    2      0.08      0.00
    6   -7    2     -1.34      0.00
    7   -7    2      0.04      0.00
    8   -7    2      1.32      0.00
    9   -7    2      0.75      0.00
   10   -7    2      0.04      0.00
   11   -7    2      0.28      0.00
  -17   -6    2      0.26      0.00
  -16   -6    2     -0.26      0.00
  -15   -6    2     -0.26      0.00
  -14   -6    2      0.71      0.00
  -13   -6    2      0.94      0.00
  -12   -6    2     -0.90      0.00
  -11   -6    2     -2.38      0.00
  -10   -6    2     -0.35      0.00
   -9   -6    2      2.44      0.00
   -8   -6    2      1.08      0.00
   -7   -6    2     -3.23      0.00
   -6   -6    2     -5.00      0.00
   -5   -6    2     -2.53      0.00
   -4   -6    2     -1.14      0.00
   -3   -6    2     -5.02      0.00
   -2   -6    2     -8.66      0.00
   -1   -6    2     -3.76      0.00
    0   -6    2      8.15      0.00
    1   -6    2     15.91      0.00
    2   -6    2     11.78      0.00
    3   -6    2      1.72      0.00
    4   -6    2     -3.21      0.00
    5   -6    2     -1.30      0.00
    6   -6    2      1.54      0.00
    7   -6    2      1.26      0.00
    8   -6    2     -0.78      0.00
    9   -6    2     -1.27      0.00
   10   -6    2     -0.19      0.00
   11   -6    2      0.17      0.00
  -17   -5    2     -0.45      0.00
  -16   -5    2     -0.17      0.00
  -15   -5    2      0.31      0.00
  -14   -5    2     -0.60      0.00
  -13   -5    2     -2.00      0.00
  -12   -5    2     -1.22      0.00
  -11   -5    2      1.43      0.00
  -10   -5    2      1.54      0.00
   -9   -5    2     -1.86      0.00
   -8   -5    2     -3.17      0.00
   -7   -5    2      0.10      0.00
   -6   -5    2      3.01      0.00
   -5   -5    2      1.22      0.00
   -4   -5    2     -1.88      0.00
   -2   -5    2     11.23      0.00
    0   -5    2      6.55      0.00
    1   -5    2     -8.62      0.00
    2   -5    2    -15.24      0.00
    3   -5    2     -8.83      0.00
    4   -5    2      0.15      0.00
    5   -5    2      2.03      0.00
    6   -5    2     -1.05      0.00
    7   -5    2     -2.54      0.00
    8   -5    2     -0.73      0.00
    9   -5    2      1.15      0.00
   10   -5    2      0.77      0.00
   11   -5    2     -0.24      0.00
   12   -5    2     -0.11      0.00
  -16   -4    2      0.52      0.00
  -15   -4    2     -0.33      0.00
  -14   -4    2     -0.29      0.00
  -13   -4    2      1.51      0.00
  -12   -4    2      2.54      0.00
  -11   -4    2      0.64      0.00
  -10   -4    2     -1.47      0.00
   -9   -4    2      0.49      0.00
   -8   -4    2      3.69      0.00
   -5   -4    2     -1.49      0.00
   -4   -4    2      4.58      0.00
   -3   -4    2      7.08      0.00
   -2   -4    2     -2.61      0.00
   -1   -4    2    -17.52      0.00
    0   -4    2    -20.83      0.00
    1   -4    2     -7.89      0.00
    2   -4    2      7.81      0.00
    3   -4    2     11.39      0.00
    4   -4    2      3.92      0.00
    5   -4    2     -1.95      0.00
    6   -4    2     -0.53      0.00
    7   -4    2      2.83      0.00
    8   -4    2      2.70      0.00
    9   -4    2      0.15      0.00
   10   -4    2     -0.90      0.00
   11   -4    2     -0.03      0.00
   12   -4    2      0.34      0.00
   13   -4    2     -0.14      0.00
  -16   -3    2     -0.84      0.00
  -15   -3    2     -0.10      0.00
  -14   -3    2      0.92      0.00
  -13   -3    2     -0.01      0.00
  -12   -3    2     -1.92      0.00
  -11   -3    2     -1.81      0.00
  -10   -3    2      0.50      0.00
   -9   -3    2      0.69      0.00
   -8   -3    2     -2.84      0.00
   -7   -3    2     -3.92      0.00
   -6   -3    2      0.74      0.00
   -5   -3    2      4.24      0.00
   -4   -3    2     -1.11      0.00
   -1   -3    2      3.80      0.00
    0   -3    2     21.47      0.00
    1   -3    2     21.75      0.00
    2   -3    2      6.69      0.00
    3   -3    2     -5.96      0.00
    4   -3    2     -5.60      0.00
    5   -3    2      1.01      0.00
    6   -3    2      2.69      0.00
    7   -3    2     -1.12      0.00
    8   -3    2     -3.74      0.00
    9   -3    2     -2.20      0.00
   10   -3    2      0.16      0.00
   11   -3    2      0.18      0.00
   12   -3    2     -0.49      0.00
   13   -3    2     -0.04      0.00
  -16   -2    2      0.82      0.00
  -15   -2    2      0.78      0.00
  -14   -2    2     -0.73      0.00
  -13   -2    2     -1.21      0.00
  -12   -2    2      0.35      0.00
  -11   -2    2      1.37      0.00
  -10   -2    2     -0.13      0.00
   -9   -2    2     -1.72      0.00
   -8   -2    2      0.77      0.00
   -7   -2    2      4.52      0.00
   -6   -2    2      2.24      0.00
   -5   -2    2     -4.76      0.00
   -4   -2    2     -6.03      0.00
   -2   -2    2     19.17      0.00
   -1   -2    2     16.55      0.00
    0   -2    2     -4.28      0.00
    1   -2    2    -20.58      0.00
    2   -2    2    -16.94      0.00
    3   -2    2     -3.22      0.00
    4   -2    2      3.39      0.00
    5   -2    2     -0.29      0.00
    6   -2    2     -4.32      0.00
    7   -2    2     -2.12      0.00
    8   -2    2      2.49      0.00
    9   -2    2      3.58      0.00
   10   -2    2      1.24      0.00
   11   -2    2     -0.14      0.00
   12   -2    2      0.48      0.00
   13   -2    2      0.43      0.00
   14   -2    2     -0.42      0.00
  -15   -1    2     -1.06      0.00
  -14   -1    2     -0.09      0.00
  -13   -1    2      1.55      0.00
  -12   -1    2      1.12      0.00
  -11   -1    2     -0.40      0.00
  -10   -1    2      0.19      0.00
   -9   -1    2      2.73      0.00
   -8   -1    2      2.35      0.00
   -7   -1    2     -2.71      0.00
   -6   -1    2     -5.16      0.00
   -4   -1    2      8.71      0.00
   -3   -1    2      6.16      0.00
    1   -1    2      3.78      0.00
    2   -1    2     14.58      0.00
    3   -1    2      8.24      0.00
    4   -1    2     -0.49      0.00
    5   -1    2     -0.15      0.00
    6   -1    2      5.01      0.00
    7   -1    2      5.58      0.00
    8   -1    2      0.84      0.00
    9   -1    2     -2.94      0.00
   10   -1    2     -2.35      0.00
   11   -1    2     -0.24      0.00
   12   -1    2     -0.11      0.00
   13   -1    2     -0.64      0.00
   14   -1    2      0.08      0.00
   15   -1    2      0.59      0.00
  -15    0    2      0.64      0.00
  -14    0    2      0.86      0.00
  -13    0    2     -0.74      0.00
  -12    0    2     -1.81      0.00
  -11    0    2     -0.58      0.00
  -10    0    2      0.16      0.00
   -9    0    2     -2.39      0.00
   -8    0    2     -5.04      0.00
   -7    0    2     -1.72      0.00
   -6    0    2      4.91      0.00
   -5    0    2      4.60      0.00
   -4    0    2     -4.64      0.00
    2    0    2     -2.78      0.00
    3    0    2     -6.04      0.00
    4    0    2      0.49      0.00
    5    0    2      2.46      0.00
    6    0    2     -3.38      0.00
    7    0    2     -7.89      0.00
    8    0    2     -5.12      0.00
    9    0    2      0.34      0.00
   10    0    2      2.28      0.00
   11    0    2      0.76      0.00
   12    0    2     -0.19      0.00
   13    0    2      0.44      0.00
   14    0    2      0.27      0.00
   15    0    2     -0.48      0.00
  -15    1    2     -0.10      0.00
  -14    1    2     -0.94      0.00
  -13    1    2     -0.59      0.00
  -12    1    2      1.00      0.00
  -11    1    2      1.04      0.00
  -10    1    2     -0.49      0.00
   -9    1    2      0.39      0.00
   -8    1    2      4.78      0.00
   -7    1    2      6.22      0.00
   -6    1    2     -0.22      0.00
   -5    1    2     -6.62      0.00
   -4    1    2     -2.30      0.00
   -3    1    2      9.38      0.00
    3    1    2      1.47      0.00
    4    1    2     -2.03      0.00
    5    1    2     -6.61      0.00
    6    1    2     -2.44      0.00
    7    1    2      6.06      0.00
    8    1    2      8.34      0.00
    9    1    2      3.49      0.00
   10    1    2     -0.90      0.00
   11    1    2     -1.05      0.00
   12    1    2      0.16      0.00
   13    1    2     -0.20      0.00
   14    1    2     -0.63      0.00
   15    1    2      0.21      0.00
  -14    2    2      0.57      0.00
  -13    2    2      1.24      0.00
  -12    2    2      0.47      0.00
  -11    2    2     -0.44      0.00
  -10    2    2      0.63      0.00
   -9    2    2      1.62      0.00
   -8    2    2     -1.51      0.00
   -7    2    2     -6.82      0.00
   -6    2    2     -5.80      0.00
   -5    2    2      2.80      0.00
   -4    2    2      6.82      0.00
   -2    2    2    -13.70      0.00
   -1    2    2    -12.98      0.00
    1    2    2     11.77      0.00
    2    2    2      7.36      0.00
    3    2    2     -0.90      0.00
    4    2    2      0.50      0.00
    5    2    2      8.13      0.00
    6    2    2      9.66      0.00
    7    2    2      1.49      0.00
    8    2    2     -6.70      0.00
    9    2    2     -6.47      0.00
   10    2    2     -1.62      0.00
   11    2    2      0.72      0.00
   12    2    2      0.07      0.00
   13    2    2     -0.02      0.00
   14    2    2      0.95      0.00
   15    2    2      0.59      0.00
   16    2    2     -0.44      0.00
  -14    3    2     -0.22      0.00
  -13    3    2     -1.08      0.00
  -12    3    2     -1.20      0.00
  -11    3    2     -0.30      0.00
  -10    3    2     -0.63      0.00
   -9    3    2     -2.49      0.00
   -8    3    2     -2.07      0.00
   -7    3    2      3.06      0.00
   -6    3    2      7.66      0.00
   -5    3    2      3.73      0.00
   -4    3    2     -5.09      0.00
   -3    3    2     -5.18      0.00
   -2    3    2      6.24      0.00
   -1    3    2     14.95      0.00
    0    3    2      9.26      0.00
    1    3    2     -2.53      0.00
    2    3    2     -4.18      0.00
    3    3    2      3.35      0.00
    5    3    2     -3.08      0.00
    6    3    2    -11.56      0.00
    7    3    2     -9.86      0.00
    8    3    2     -0.54      0.00
    9    3    2      5.22      0.00
   10    3    2      3.64      0.00
   11    3    2      0.52      0.00
   12    3    2     -0.03      0.00
   13    3    2      0.35      0.00
   14    3    2     -0.63      0.00
   15    3    2     -1.46      0.00
   16    3    2     -0.47      0.00
  -13    4    2      0.58      0.00
  -12    4    2      1.16      0.00
  -11    4    2      0.50      0.00
  -10    4    2      0.00      0.00
   -9    4    2      1.80      0.00
   -8    4    2      3.73      0.00
   -7    4    2      1.63      0.00
   -6    4    2     -4.16      0.00
   -5    4    2     -6.56      0.00
   -4    4    2     -0.54      0.00
   -3    4    2      6.19      0.00
   -2    4    2      2.36      0.00
   -1    4    2     -8.43      0.00
    0    4    2    -11.54      0.00
    1    4    2     -3.44      0.00
    2    4    2      2.35      0.00
    4    4    2    -10.05      0.00
    5    4    2     -6.24      0.00
    6    4    2      5.13      0.00
    7    4    2     11.68      0.00
    8    4    2      7.67      0.00
    9    4    2      0.01      0.00
   10    4    2     -2.80      0.00
   11    4    2     -1.45      0.00
   12    4    2     -0.50      0.00
   13    4    2     -0.81      0.00
   14    4    2     -0.43      0.00
   15    4    2      1.11      0.00
   16    4    2      1.52      0.00
  -12    5    2     -0.75      0.00
  -11    5    2     -0.61      0.00
  -10    5    2      0.61      0.00
   -9    5    2      0.12      0.00
   -8    5    2     -2.72      0.00
   -7    5    2     -3.96      0.00
   -6    5    2     -0.77      0.00
   -5    5    2      3.97      0.00
   -4    5    2      3.69      0.00
   -3    5    2     -2.50      0.00
   -2    5    2     -5.49      0.00
   -1    5    2      0.50      0.00
    0    5    2      7.23      0.00
    1    5    2      4.73      0.00
    2    5    2     -2.25      0.00
    3    5    2     -1.03      0.00
    4    5    2      8.26      0.00
    5    5    2     12.41      0.00
    6    5    2      5.12      0.00
    7    5    2     -5.52      0.00
    8    5    2     -8.85      0.00
    9    5    2     -4.42      0.00
   10    5    2      0.00      0.00
   11    5    2      0.75      0.00
   12    5    2      0.57      0.00
   13    5    2      1.16      0.00
   14    5    2      1.51      0.00
   15    5    2      0.45      0.00
   16    5    2     -1.11      0.00
   17    5    2     -1.17      0.00
  -12    6    2      0.28      0.00
  -11    6    2      0.70      0.00
  -10    6    2     -0.27      0.00
   -9    6    2     -1.43      0.00
   -8    6    2      0.12      0.00
   -7    6    2      2.99      0.00
   -6    6    2      3.21      0.00
   -5    6    2      0.12      0.00
   -4    6    2     -2.45      0.00
   -3    6    2     -0.21      0.00
   -2    6    2      4.11      0.00
   -1    6    2      3.12      0.00
    0    6    2     -2.40      0.00
    1    6    2     -3.37      0.00
    2    6    2      2.68      0.00
    3    6    2      6.06      0.00
    4    6    2     -0.67      0.00
    5    6    2    -10.33      0.00
    6    6    2    -11.25      0.00
    7    6    2     -3.20      0.00
    8    6    2      4.29      0.00
    9    6    2      4.84      0.00
   10    6    2      1.72      0.00
   11    6    2      0.37      0.00
   12    6    2      0.27      0.00
   13    6    2     -0.75      0.00
   14    6    2     -1.91      0.00
   15    6    2     -1.85      0.00
   16    6    2     -0.46      0.00
   17    6    2      0.74      0.00
  -11    7    2     -0.52      0.00
  -10    7    2     -0.47      0.00
   -9    7    2      1.00      0.00
   -8    7    2      1.56      0.00
   -7    7    2     -0.38      0.00
   -6    7    2     -2.36      0.00
   -5    7    2     -1.95      0.00
   -4    7    2      0.02      0.00
   -3    7    2      0.22      0.00
   -2    7    2     -2.62      0.00
   -1    7    2     -3.78      0.00
    0    7    2      0.01      0.00
    1    7    2      2.95      0.00
    2    7    2     -1.28      0.00
    3    7    2     -8.15      0.00
    4    7    2     -7.41      0.00
    5    7    2      1.85      0.00
    6    7    2      9.31      0.00
    7    7    2      7.83      0.00
    8    7    2      1.39      0.00
    9    7    2     -2.28      0.00
   10    7    2     -1.39      0.00
   11    7    2     -0.28      0.00
   12    7    2     -0.76      0.00
   13    7    2     -0.34      0.00
   14    7    2      1.32      0.00
   15    7    2      2.24      0.00
   16    7    2      1.67      0.00
   17    7    2      0.34      0.00
  -10    8    2      0.67      0.00
   -9    8    2      0.10      0.00
   -8    8    2     -1.28      0.00
   -7    8    2     -1.21      0.00
   -6    8    2      0.26      0.00
   -5    8    2      1.11      0.00
   -4    8    2      0.67      0.00
   -3    8    2      0.28      0.00
   -2    8    2      1.91      0.00
   -1    8    2      3.94      0.00
    0    8    2      1.78      0.00
    1    8    2     -2.95      0.00
    2    8    2     -2.54      0.00
    3    8    2      4.65      0.00
    4    8    2     10.13      0.00
    5    8    2      6.51      0.00
    6    8    2     -2.06      0.00
    7    8    2     -6.24      0.00
    8    8    2     -3.91      0.00
    9    8    2     -0.33      0.00
   10    8    2      0.23      0.00
   11    8    2     -0.72      0.00
   12    8    2      0.01      0.00
   13    8    2      1.05      0.00
   14    8    2      0.06      0.00
   15    8    2     -1.52      0.00
   16    8    2     -1.85      0.00
   17    8    2     -1.00      0.00
   -9    9    2     -0.57      0.00
   -8    9    2      0.26      0.00
   -7    9    2      1.14      0.00
   -6    9    2      0.84      0.00
   -5    9    2      0.27      0.00
   -4    9    2      0.29      0.00
   -3    9    2      0.42      0.00
   -2    9    2     -0.67      0.00
   -1    9    2     -3.15      0.00
    0    9    2     -3.35      0.00
    1    9    2      1.12      0.00
    2    9    2      4.98      0.00
    3    9    2      1.94      0.00
    4    9    2     -5.47      0.00
    5    9    2     -8.59      0.00
    6    9    2     -4.22      0.00
    7    9    2      1.50      0.00
    8    9    2      2.76      0.00
    9    9    2      0.90      0.00
   10    9    2      0.15      0.00
   11    9    2      1.33      0.00
   12    9    2      1.39      0.00
   13    9    2     -0.56      0.00
   14    9    2     -1.31      0.00
   15    9    2     -0.01      0.00
   16    9    2      1.09      0.00
   17    9    2      1.03      0.00
   -8   10    2      0.26      0.00
   -7   10    2     -0.51      0.00
   -6   10    2     -0.86      0.00
   -5   10    2     -0.69      0.00
   -4   10    2     -0.94      0.00
   -3   10    2     -1.49      0.00
   -2   10    2     -1.21      0.00
   -1   10    2      0.96      0.00
    0   10    2      3.18      0.00
    1   10    2      1.42      0.00
    2   10    2     -3.53      0.00
    3   10    2     -5.47      0.00
    4   10    2     -1.44      0.00
    5   10    2      4.15      0.00
    6   10    2      5.17      0.00
    7   10    2      1.88      0.00
    8   10    2     -0.48      0.00
    9   10    2      0.05      0.00
   10   10    2      0.78      0.00
   11   10    2     -0.48      0.00
   12   10    2     -2.01      0.00
   13   10    2     -0.88      0.00
   14   10    2      1.32      0.00
   15   10    2      1.45      0.00
   16   10    2      0.26      0.00
   17   10    2     -0.44      0.00
   -7   11    2      0.05      0.00
   -6   11    2      0.55      0.00
   -5   11    2      0.58      0.00
   -4   11    2      0.66      0.00
   -3   11    2      1.38      0.00
   -2   11    2      2.12      0.00
   -1   11    2      1.31      0.00
    0   11    2     -1.28      0.00
    1   11    2     -2.41      0.00
    2   11    2      0.37      0.00
    3   11    2      4.04      0.00
    4   11    2      4.17      0.00
    5   11    2      0.75      0.00
    6   11    2     -2.20      0.00
    7   11    2     -1.90      0.00
    8   11    2     -0.40      0.00
    9   11    2     -0.60      0.00
   10   11    2     -1.71      0.00
   11   11    2     -1.23      0.00
   12   11    2      0.98      0.00
   13   11    2      1.87      0.00
   14   11    2      0.03      0.00
   15   11    2     -1.58      0.00
   16   11    2     -1.26      0.00
   17   11    2     -0.43      0.00
   -6   12    2     -0.13      0.00
   -5   12    2     -0.29      0.00
   -4   12    2     -0.23      0.00
   -3   12    2     -0.52      0.00
   -2   12    2     -1.35      0.00
   -1   12    2     -1.82      0.00
    0   12    2     -0.53      0.00
    1   12    2      1.60      0.00
    2   12    2      1.51      0.00
    3   12    2     -0.97      0.00
    4   12    2     -2.66      0.00
    5   12    2     -1.79      0.00
    6   12    2      0.14      0.00
    7   12    2      0.59      0.00
    8   12    2     -0.34      0.00
    9   12    2     -0.29      0.00
   10   12    2      1.19      0.00
   11   12    2      1.97      0.00
   12   12    2      0.61      0.00
   13   12    2     -1.44      0.00
   14   12    2     -1.35      0.00
   15   12    2      0.39      0.00
   16   12    2      1.13      0.00
   17   12    2      0.80      0.00
   -5   13    2     -0.09      0.00
   -4   13    2     -0.21      0.00
   -3   13    2     -0.16      0.00
   -2   13    2      0.29      0.00
   -1   13    2      0.93      0.00
    0   13    2      0.83      0.00
    1   13    2     -0.52      0.00
    2   13    2     -1.54      0.00
    3   13    2     -0.70      0.00
    4   13    2      0.71      0.00
    5   13    2      0.72      0.00
    6   13    2     -0.41      0.00
    7   13    2     -0.72      0.00
    8   13    2      0.64      0.00
    9   13    2      1.67      0.00
   10   13    2      0.65      0.00
   11   13    2     -0.99      0.00
   12   13    2     -1.09      0.00
   13   13    2      0.48      0.00
   14   13    2      1.57      0.00
   15   13    2      0.79      0.00
   16   13    2     -0.29      0.00
   -3   14    2      0.64      0.00
   -2   14    2      0.35      0.00
   -1   14    2     -0.25      0.00
    0   14    2     -0.49      0.00
    1   14    2      0.13      0.00
    2   14    2      0.99      0.00
    3   14    2      0.85      0.00
    4   14    2     -0.10      0.00
    5   14    2     -0.35      0.00
    6   14    2      0.70      0.00
    7   14    2      1.68      0.00
    8   14    2      0.72      0.00
    9   14    2     -1.49      0.00
   10   14    2     -2.13      0.00
   11   14    2     -0.77      0.00
   12   14    2      0.35      0.00
   13   14    2     -0.06      0.00
   14   14    2     -1.11      0.00
   15   14    2     -1.13      0.00
   16   14    2     -0.28      0.00
   -1   15    2     -0.20      0.00
    0   15    2      0.43      0.00
    1   15    2      0.20      0.00
    2   15    2     -0.61      0.00
    3   15    2     -0.78      0.00
    4   15    2      0.03      0.00
    5   15    2      0.66      0.00
    6   15    2      0.03      0.00
    7   15    2     -1.52      0.00
    8   15    2     -2.09      0.00
    9   15    2     -0.43      0.00
   10   15    2      1.62      0.00
   11   15    2      1.71      0.00
   12   15    2      0.58      0.00
   13   15    2      0.13      0.00
   14   15    2      0.62      0.00
   15   15    2      0.91      0.00
    0   16    2     -0.10      0.00
    1   16    2     -0.50      0.00
    2   16    2      0.07      0.00
    3   16    2      0.73      0.00
    4   16    2      0.36      0.00
    5   16    2     -0.57      0.00
    6   16    2     -0.75      0.00
    7   16    2      0.41      0.00
    8   16    2      1.91      0.00
    9   16    2      1.92      0.00
   10   16    2      0.25      0.00
   11   16    2     -1.04      0.00
   12   16    2     -0.84      0.00
   13   16    2     -0.24      0.00
   14   16    2     -0.21      0.00
    3   17    2     -0.36      0.00
    4   17    2     -0.68      0.00
    5   17    2     -0.04      0.00
    6   17    2      0.74      0.00
    7   17    2      0.49      0.00
    8   17    2     -0.76      0.00
    9   17    2     -1.71      0.00
   10   17    2     -1.33      0.00
   11   17    2     -0.21      0.00
   12   17    2      0.35      0.00
    7   18    2     -0.73      0.00
    8   18    2     -0.20      0.00
    9   18    2      0.67      0.00
  -12  -17    3      0.70      0.00
  -11  -17    3     -0.05      0.00
  -10  -17    3     -0.50      0.00
   -9  -17    3     -0.20      0.00
   -8  -17    3      0.41      0.00
   -7  -17    3      1.02      0.00
   -6  -17    3      1.23      0.00
   -5  -17    3      0.72      0.00
   -4  -17    3      0.13      0.00
  -13  -16    3     -0.79      0.00
  -12  -16    3     -1.00      0.00
  -11  -16    3     -0.29      0.00
  -10  -16    3      0.74      0.00
   -9  -16    3      1.01      0.00
   -8  -16    3      0.56      0.00
   -7  -16    3     -0.21      0.00
   -6  -16    3     -1.09      0.00
   -5  -16    3     -1.43      0.00
   -4  -16    3     -0.90      0.00
   -3  -16    3     -0.37      0.00
   -2  -16    3     -0.45      0.00
   -1  -16    3     -0.60      0.00
  -15  -15    3     -0.28      0.00
  -14  -15    3     -0.12      0.00
  -13  -15    3      0.23      0.00
  -12  -15    3      0.82      0.00
  -11  -15    3      0.78      0.00
  -10  -15    3     -0.33      0.00
   -9  -15    3     -1.42      0.00
   -8  -15    3     -1.67      0.00
   -7  -15    3     -1.25      0.00
   -6  -15    3     -0.36      0.00
   -5  -15    3      0.75      0.00
   -4  -15    3      1.35      0.00
   -3  -15    3      1.11      0.00
   -2  -15    3      0.82      0.00
   -1  -15    3      1.07      0.00
    0  -15    3      1.20      0.00
    1  -15    3      0.63      0.00
  -15  -14    3      0.36      0.00
  -14  -14    3      0.65      0.00
  -13  -14    3      0.59      0.00
  -12  -14    3      0.05      0.00
  -11  -14    3     -0.66      0.00
  -10  -14    3     -0.49      0.00
   -9  -14    3      0.57      0.00
   -8  -14    3      1.65      0.00
   -7  -14    3      2.15      0.00
   -6  -14    3      1.95      0.00
   -5  -14    3      1.15      0.00
   -4  -14    3     -0.02      0.00
   -3  -14    3     -0.88      0.00
   -2  -14    3     -1.08      0.00
   -1  -14    3     -1.35      0.00
    0  -14    3     -1.86      0.00
    1  -14    3     -1.71      0.00
    2  -14    3     -0.82      0.00
    3  -14    3     -0.27      0.00
  -16  -13    3      0.57      0.00
  -15  -13    3      0.00      0.00
  -14  -13    3     -0.68      0.00
  -13  -13    3     -0.97      0.00
  -12  -13    3     -0.79      0.00
  -11  -13    3     -0.02      0.00
  -10  -13    3      0.70      0.00
   -9  -13    3      0.77      0.00
   -8  -13    3      0.06      0.00
   -7  -13    3     -1.23      0.00
   -6  -13    3     -2.24      0.00
   -5  -13    3     -2.48      0.00
   -4  -13    3     -2.03      0.00
   -3  -13    3     -1.12      0.00
   -2  -13    3     -0.31      0.00
   -1  -13    3      0.48      0.00
    0  -13    3      1.64      0.00
    1  -13    3      2.29      0.00
    2  -13    3      1.68      0.00
    3  -13    3      0.72      0.00
    4  -13    3      0.32      0.00
  -16  -12    3     -0.70      0.00
  -15  -12    3     -0.56      0.00
  -14  -12    3      0.05      0.00
  -13  -12    3      0.48      0.00
  -12  -12    3      0.58      0.00
  -11  -12    3      0.26      0.00
  -10  -12    3     -0.37      0.00
   -9  -12    3     -1.12      0.00
   -8  -12    3     -1.78      0.00
   -7  -12    3     -1.27      0.00
   -6  -12    3      0.44      0.00
   -5  -12    3      1.96      0.00
   -4  -12    3      2.65      0.00
   -3  -12    3      2.71      0.00
   -2  -12    3      2.62      0.00
   -1  -12    3      2.27      0.00
    0  -12    3      0.67      0.00
    1  -12    3     -1.44      0.00
    2  -12    3     -2.03      0.00
    3  -12    3     -1.22      0.00
    4  -12    3     -0.43      0.00
    5  -12    3     -0.06      0.00
  -17  -11    3      0.75      0.00
  -16  -11    3      0.96      0.00
  -15  -11    3      0.99      0.00
  -14  -11    3      0.55      0.00
  -13  -11    3      0.24      0.00
  -12  -11    3      0.28      0.00
  -11  -11    3      0.36      0.00
  -10  -11    3      0.32      0.00
   -9  -11    3      0.47      0.00
   -8  -11    3      1.62      0.00
   -7  -11    3      2.89      0.00
   -6  -11    3      2.32      0.00
   -5  -11    3      0.44      0.00
   -4  -11    3     -1.06      0.00
   -3  -11    3     -1.84      0.00
   -2  -11    3     -2.69      0.00
   -1  -11    3     -4.11      0.00
    0  -11    3     -4.31      0.00
    1  -11    3     -1.86      0.00
    2  -11    3      0.83      0.00
    3  -11    3      1.43      0.00
    4  -11    3      0.80      0.00
    5  -11    3      0.09      0.00
    6  -11    3     -0.30      0.00
    7  -11    3     -0.17      0.00
  -17  -10    3     -0.67      0.00
  -16  -10    3     -0.97      0.00
  -15  -10    3     -1.06      0.00
  -14  -10    3     -0.60      0.00
  -13  -10    3     -0.10      0.00
  -12  -10    3     -0.43      0.00
  -11  -10    3     -0.99      0.00
  -10  -10    3     -0.75      0.00
   -9  -10    3      0.19      0.00
   -8  -10    3      0.12      0.00
   -7  -10    3     -1.87      0.00
   -6  -10    3     -3.38      0.00
   -5  -10    3     -2.78      0.00
   -4  -10    3     -1.62      0.00
   -3  -10    3     -1.15      0.00
   -2  -10    3     -0.62      0.00
   -1  -10    3      1.66      0.00
    0  -10    3      5.01      0.00
    1  -10    3      5.56      0.00
    2  -10    3      2.55      0.00
    3  -10    3     -0.31      0.00
    4  -10    3     -1.05      0.00
    5  -10    3     -0.52      0.00
    6  -10    3      0.23      0.00
    7  -10    3      0.46      0.00
    8  -10    3      0.15      0.00
  -17   -9    3      0.10      0.00
  -16   -9    3      0.43      0.00
  -15   -9    3      0.63      0.00
  -14   -9    3      0.25      0.00
  -13   -9    3     -0.72      0.00
  -12   -9    3     -0.82      0.00
  -11   -9    3      0.38      0.00
  -10   -9    3      1.02      0.00
   -9   -9    3     -0.18      0.00
   -8   -9    3     -1.71      0.00
   -7   -9    3     -0.81      0.00
   -6   -9    3      1.76      0.00
   -5   -9    3      2.77      0.00
   -4   -9    3      2.53      0.00
   -3   -9    3      3.35      0.00
   -2   -9    3      4.91      0.00
   -1   -9    3      4.42      0.00
    0   -9    3     -0.03      0.00
    1   -9    3     -5.10      0.00
    2   -9    3     -5.63      0.00
    3   -9    3     -2.43      0.00
    4   -9    3      0.26      0.00
    5   -9    3      0.83      0.00
    6   -9    3      0.09      0.00
    7   -9    3     -0.52      0.00
    8   -9    3     -0.37      0.00
    9   -9    3     -0.12      0.00
  -17   -8    3      0.29      0.00
  -16   -8    3      0.10      0.00
  -15   -8    3     -0.22      0.00
  -14   -8    3     -0.10      0.00
  -13   -8    3      1.12      0.00
  -12   -8    3      2.27      0.00
  -11   -8    3      1.39      0.00
  -10   -8    3     -0.36      0.00
   -9   -8    3     -0.22      0.00
   -8   -8    3      1.91      0.00
   -7   -8    3      2.85      0.00
   -6   -8    3      0.92      0.00
   -5   -8    3     -0.83      0.00
   -4   -8    3     -0.51      0.00
   -3   -8    3     -1.33      0.00
   -2   -8    3     -5.39      0.00
   -1   -8    3     -9.44      0.00
    0   -8    3     -8.22      0.00
    1   -8    3     -1.33      0.00
    2   -8    3      4.54      0.00
    3   -8    3      4.57      0.00
    4   -8    3      1.47      0.00
    5   -8    3     -0.54      0.00
    6   -8    3     -0.35      0.00
    7   -8    3      0.62      0.00
    8   -8    3      0.68      0.00
    9   -8    3      0.18      0.00
   10   -8    3      0.14      0.00
  -17   -7    3     -0.30      0.00
  -16   -7    3     -0.29      0.00
  -15   -7    3      0.30      0.00
  -14   -7    3      0.73      0.00
  -13   -7    3     -0.24      0.00
  -12   -7    3     -2.35      0.00
  -11   -7    3     -2.82      0.00
  -10   -7    3     -0.92      0.00
   -9   -7    3      0.24      0.00
   -8   -7    3     -1.19      0.00
   -7   -7    3     -3.05      0.00
   -6   -7    3     -2.37      0.00
   -5   -7    3     -0.59      0.00
   -4   -7    3     -1.65      0.00
   -3   -7    3     -3.75      0.00
   -2   -7    3     -0.89      0.00
   -1   -7    3      7.25      0.00
    0   -7    3     13.30      0.00
    1   -7    3     10.48      0.00
    2   -7    3      1.81      0.00
    3   -7    3     -3.49      0.00
    4   -7    3     -2.60      0.00
    5   -7    3      0.01      0.00
    6   -7    3      0.66      0.00
    7   -7    3     -0.52      0.00
    8   -7    3     -1.28      0.00
    9   -7    3     -0.65      0.00
   10   -7    3      0.00      0.00
  -17   -6    3      0.06      0.00
  -16   -6    3      0.37      0.00
  -15   -6    3     -0.18      0.00
  -14   -6    3     -1.51      0.00
  -13   -6    3     -1.68      0.00
  -12   -6    3      0.55      0.00
  -11   -6    3      2.70      0.00
  -10   -6    3      1.78      0.00
   -9   -6    3     -0.07      0.00
   -8   -6    3      0.60      0.00
   -7   -6    3      2.61      0.00
   -6   -6    3      2.46      0.00
   -5   -6    3      0.13      0.00
   -4   -6    3      0.53      0.00
   -3   -6    3      5.92      0.00
   -2   -6    3      9.42      0.00
   -1   -6    3      3.53      0.00
    0   -6    3     -8.46      0.00
    1   -6    3    -15.00      0.00
    2   -6    3    -10.15      0.00
    3   -6    3     -1.27      0.00
    4   -6    3      2.09      0.00
    5   -6    3      0.25      0.00
    6   -6    3     -1.29      0.00
    7   -6    3     -0.34      0.00
    8   -6    3      1.31      0.00
    9   -6    3      1.44      0.00
   10   -6    3      0.40      0.00
   11   -6    3     -0.14      0.00
  -17   -5    3      0.28      0.00
  -16   -5    3     -0.27      0.00
  -15   -5    3     -0.53      0.00
  -14   -5    3      0.97      0.00
  -13   -5    3      2.82      0.00
  -12   -5    3      2.11      0.00
  -11   -5    3     -0.78      0.00
  -10   -5    3     -1.58      0.00
   -9   -5    3      0.35      0.00
   -8   -5    3      0.37      0.00
   -7   -5    3     -2.38      0.00
   -6   -5    3     -3.27      0.00
   -5   -5    3      0.12      0.00
   -4   -5    3      3.17      0.00
   -3   -5    3     -1.24      0.00
   -2   -5    3    -11.25      0.00
   -1   -5    3    -14.94      0.00
    0   -5    3     -5.62      0.00
    1   -5    3      8.41      0.00
    2   -5    3     13.39      0.00
    3   -5    3      7.05      0.00
    4   -5    3     -0.01      0.00
    5   -5    3     -0.58      0.00
    6   -5    3      1.77      0.00
    7   -5    3      1.91      0.00
    8   -5    3     -0.15      0.00
    9   -5    3     -1.49      0.00
   10   -5    3     -0.94      0.00
   11   -5    3     -0.03      0.00
   12   -5    3      0.14      0.00
  -16   -4    3     -0.20      0.00
  -15   -4    3      0.95      0.00
  -14   -4    3      0.60      0.00
  -13   -4    3     -1.82      0.00
  -12   -4    3     -3.34      0.00
  -11   -4    3     -1.70      0.00
  -10   -4    3      0.30      0.00
   -9   -4    3     -0.97      0.00
   -7   -4    3      0.79      0.00
   -6   -4    3      4.61      0.00
   -5   -4    3      2.75      0.00
   -4   -4    3     -4.07      0.00
   -3   -4    3     -6.56      0.00
   -2   -4    3      2.65      0.00
    0   -4    3     18.26      0.00
    1   -4    3      6.36      0.00
    2   -4    3     -6.69      0.00
    3   -4    3     -8.58      0.00
    4   -4    3     -2.26      0.00
    5   -4    3      1.23      0.00
    6   -4    3     -0.91      0.00
    7   -4    3     -3.08      0.00
    8   -4    3     -1.90      0.00
    9   -4    3      0.45      0.00
   10   -4    3      0.92      0.00
   11   -4    3      0.06      0.00
   12   -4    3     -0.17      0.00
   13   -4    3      0.08      0.00
  -16   -3    3      0.70      0.00
  -15   -3    3     -0.45      0.00
  -14   -3    3     -1.62      0.00
  -13   -3    3     -0.22      0.00
  -12   -3    3      2.31      0.00
  -11   -3    3      2.64      0.00
  -10   -3    3      0.87      0.00
   -9   -3    3      1.18      0.00
   -8   -3    3      3.87      0.00
   -7   -3    3      2.80      0.00
   -6   -3    3     -3.18      0.00
   -5   -3    3     -6.43      0.00
   -4   -3    3     -0.98      0.00
   -3   -3    3      8.61      0.00
   -1   -3    3     -4.09      0.00
    0   -3    3    -18.07      0.00
    1   -3    3    -17.44      0.00
    2   -3    3     -5.20      0.00
    3   -3    3      3.72      0.00
    4   -3    3      2.30      0.00
    5   -3    3     -2.14      0.00
    6   -3    3     -1.51      0.00
    7   -3    3      2.34      0.00
    8   -3    3      3.63      0.00
    9   -3    3      1.43      0.00
   10   -3    3     -0.45      0.00
   11   -3    3      0.01      0.00
   12   -3    3      0.54      0.00
   13   -3    3     -0.08      0.00
  -16   -2    3     -0.75      0.00
  -15   -2    3     -0.53      0.00
  -14   -2    3      1.41      0.00
  -13   -2    3      1.80      0.00
  -12   -2    3     -0.33      0.00
  -11   -2    3     -1.84      0.00
  -10   -2    3     -0.72      0.00
   -9   -2    3      0.01      0.00
   -8   -2    3     -3.15      0.00
   -7   -2    3     -5.84      0.00
   -6   -2    3     -1.67      0.00
   -2   -2    3    -13.00      0.00
   -1   -2    3    -10.81      0.00
    0   -2    3      4.59      0.00
    1   -2    3     15.62      0.00
    2   -2    3     11.90      0.00
    3   -2    3      2.36      0.00
    4   -2    3     -0.49      0.00
    5   -2    3      3.20      0.00
    6   -2    3      4.62      0.00
    7   -2    3      0.70      0.00
    8   -2    3     -3.38      0.00
    9   -2    3     -3.20      0.00
   10   -2    3     -0.52      0.00
   11   -2    3      0.27      0.00
   12   -2    3     -0.69      0.00
   13   -2    3     -0.39      0.00
   14   -2    3      0.57      0.00
  -15   -1    3      1.13      0.00
  -14   -1    3     -0.22      0.00
  -13   -1    3     -2.21      0.00
  -12   -1    3     -1.55      0.00
  -11   -1    3      0.47      0.00
  -10   -1    3      0.14      0.00
   -9   -1    3     -1.99      0.00
   -8   -1    3     -0.53      0.00
   -7   -1    3      5.06      0.00
   -6   -1    3      6.37      0.00
    1   -1    3     -3.74      0.00
    2   -1    3     -8.97      0.00
    3   -1    3     -3.54      0.00
    4   -1    3      0.78      0.00
    5   -1    3     -2.40      0.00
    6   -1    3     -6.82      0.00
    7   -1    3     -5.15      0.00
    8   -1    3      0.47      0.00
    9   -1    3      3.40      0.00
   10   -1    3      1.72      0.00
   11   -1    3     -0.41      0.00
   12   -1    3      0.10      0.00
   13   -1    3      0.72      0.00
   14   -1    3     -0.29      0.00
  -15    0    3     -0.92      0.00
  -14    0    3     -0.93      0.00
  -13    0    3      1.13      0.00
  -12    0    3      2.37      0.00
  -11    0    3      0.91      0.00
  -10    0    3     -0.12      0.00
   -9    0    3      2.33      0.00
   -8    0    3      4.52      0.00
   -7    0    3      0.21      0.00
   -6    0    3     -6.57      0.00
   -5    0    3     -5.55      0.00
   -4    0    3      2.90      0.00
   -3    0    3      8.28      0.00
   -2    0    3      2.76      0.00
    0    0    3    -14.63      0.00
    1    0    3     -6.57      0.00
    2    0    3      2.01      0.00
    3    0    3      0.78      0.00
    4    0    3     -4.23      0.00
    5    0    3     -2.64      0.00
    6    0    3      4.82      0.00
    7    0    3      8.44      0.00
    8    0    3      4.34      0.00
    9    0    3     -1.23      0.00
   10    0    3     -2.23      0.00
   11    0    3     -0.01      0.00
   12    0    3      0.58      0.00
   13    0    3     -0.56      0.00
   14    0    3     -0.19      0.00
   15    0    3      0.80      0.00
  -15    1    3      0.38      0.00
  -14    1    3      1.20      0.00
  -13    1    3      0.45      0.00
  -12    1    3     -1.43      0.00
  -11    1    3     -1.46      0.00
  -10    1    3      0.26      0.00
   -9    1    3     -0.47      0.00
   -8    1    3     -4.83      0.00
   -7    1    3     -5.94      0.00
   -6    1    3      0.90      0.00
   -5    1    3      7.12      0.00
   -4    1    3      3.24      0.00
   -3    1    3     -5.89      0.00
   -2    1    3     -8.24      0.00
    0    1    3      9.90      0.00
    1    1    3      8.72      0.00
    2    1    3      1.11      0.00
    3    1    3     -0.09      0.00
    4    1    3      6.06      0.00
    5    1    3      9.08      0.00
    6    1    3      2.77      0.00
    7    1    3     -6.25      0.00
    8    1    3     -7.92      0.00
    9    1    3     -2.74      0.00
   10    1    3      1.24      0.00
   11    1    3      0.63      0.00
   12    1    3     -0.75      0.00
   13    1    3      0.18      0.00
   14    1    3      0.82      0.00
   15    1    3     -0.41      0.00
  -14    2    3     -0.85      0.00
  -13    2    3     -1.27      0.00
  -12    2    3     -0.14      0.00
  -11    2    3      0.80      0.00
  -10    2    3     -0.46      0.00
   -9    2    3     -1.64      0.00
   -8    2    3      1.36      0.00
   -7    2    3      6.71      0.00
   -6    2    3      5.92      0.00
   -5    2    3     -2.14      0.00
   -4    2    3     -6.12      0.00
   -3    2    3      0.41      0.00
   -2    2    3      8.52      0.00
    1    2    3     -6.34      0.00
    3    2    3      3.78      0.00
    4    2    3     -1.85      0.00
    5    2    3    -10.29      0.00
    6    2    3    -10.68      0.00
    7    2    3     -1.92      0.00
    8    2    3      5.90      0.00
    9    2    3      5.48      0.00
   10    2    3      1.05      0.00
   11    2    3     -0.62      0.00
   12    2    3      0.46      0.00
   13    2    3      0.30      0.00
   14    2    3     -1.17      0.00
   15    2    3     -0.73      0.00
   16    2    3      0.65      0.00
  -13    3    3      1.28      0.00
  -12    3    3      1.08      0.00
  -11    3    3     -0.03      0.00
  -10    3    3      0.44      0.00
   -9    3    3      2.52      0.00
   -8    3    3      2.36      0.00
   -7    3    3     -2.50      0.00
   -6    3    3     -7.32      0.00
   -5    3    3     -4.58      0.00
   -4    3    3      2.86      0.00
   -3    3    3      3.65      0.00
   -1    3    3     -8.73      0.00
    0    3    3     -3.15      0.00
    1    3    3      3.76      0.00
    2    3    3      0.68      0.00
    3    3    3     -6.99      0.00
    5    3    3      3.71      0.00
    6    3    3     11.70      0.00
    7    3    3      9.52      0.00
    8    3    3      0.99      0.00
    9    3    3     -3.81      0.00
   10    3    3     -2.41      0.00
   11    3    3     -0.16      0.00
   12    3    3     -0.26      0.00
   13    3    3     -0.74      0.00
   14    3    3      0.59      0.00
   15    3    3      1.65      0.00
   16    3    3      0.52      0.00
  -13    4    3     -0.84      0.00
  -12    4    3     -1.39      0.00
  -11    4    3     -0.45      0.00
  -10    4    3      0.16      0.00
   -9    4    3     -1.68      0.00
   -8    4    3     -3.74      0.00
   -7    4    3     -2.07      0.00
   -6    4    3      3.21      0.00
   -5    4    3      6.15      0.00
   -4    4    3      2.26      0.00
   -3    4    3     -2.75      0.00
   -2    4    3     -0.50      0.00
   -1    4    3      5.72      0.00
    0    4    3      5.30      0.00
    1    4    3     -1.83      0.00
    2    4    3     -3.44      0.00
    5    4    3      6.07      0.00
    6    4    3     -4.82      0.00
    7    4    3    -10.18      0.00
    8    4    3     -6.40      0.00
    9    4    3     -0.45      0.00
   10    4    3      1.23      0.00
   11    4    3      0.33      0.00
   12    4    3      0.29      0.00
   13    4    3      0.99      0.00
   14    4    3      0.54      0.00
   15    4    3     -1.12      0.00
   16    4    3     -1.53      0.00
  -12    5    3      1.16      0.00
  -11    5    3      0.96      0.00
  -10    5    3     -0.46      0.00
   -9    5    3     -0.14      0.00
   -8    5    3      2.46      0.00
   -7    5    3      3.75      0.00
   -6    5    3      1.30      0.00
   -5    5    3     -2.75      0.00
   -4    5    3     -3.39      0.00
   -3    5    3      0.15      0.00
   -2    5    3      1.51      0.00
   -1    5    3     -2.41      0.00
    0    5    3     -4.65      0.00
    2    5    3      6.20      0.00
    3    5    3      1.91      0.00
    4    5    3     -8.41      0.00
    5    5    3    -11.65      0.00
    6    5    3     -4.38      0.00
    7    5    3      4.50      0.00
    8    5    3      6.42      0.00
    9    5    3      2.78      0.00
   10    5    3      0.40      0.00
   11    5    3      0.56      0.00
   12    5    3      0.24      0.00
   13    5    3     -0.93      0.00
   14    5    3     -1.37      0.00
   15    5    3     -0.30      0.00
   16    5    3      1.08      0.00
   17    5    3      1.00      0.00
  -11    6    3     -1.15      0.00
  -10    6    3     -0.13      0.00
   -9    6    3      1.12      0.00
   -8    6    3     -0.10      0.00
   -7    6    3     -2.50      0.00
   -6    6    3     -2.87      0.00
   -5    6    3     -0.73      0.00
   -4    6    3      1.18      0.00
   -3    6    3      0.11      0.00
   -2    6    3     -1.57      0.00
   -1    6    3      0.73      0.00
    0    6    3      4.22      0.00
    1    6    3      1.43      0.00
    2    6    3     -6.44      0.00
    3    6    3     -8.48      0.00
    4    6    3     -0.06      0.00
    5    6    3      9.19      0.00
    6    6    3      9.18      0.00
    7    6    3      2.14      0.00
    8    6    3     -2.88      0.00
    9    6    3     -2.15      0.00
   10    6    3     -0.19      0.00
   11    6    3     -0.69      0.00
   12    6    3     -1.18      0.00
   13    6    3      0.20      0.00
   14    6    3      1.58      0.00
   15    6    3      1.46      0.00
   16    6    3      0.19      0.00
   17    6    3     -0.64      0.00
  -11    7    3      0.77      0.00
  -10    7    3      0.72      0.00
   -9    7    3     -0.68      0.00
   -8    7    3     -1.23      0.00
   -7    7    3      0.32      0.00
   -6    7    3      1.83      0.00
   -5    7    3      1.66      0.00
   -4    7    3      0.60      0.00
   -3    7    3      0.86      0.00
   -2    7    3      2.53      0.00
   -1    7    3      1.51      0.00
    0    7    3     -3.12      0.00
    1    7    3     -4.32      0.00
    2    7    3      2.47      0.00
    3    7    3     10.08      0.00
    4    7    3      8.33      0.00
    5    7    3     -1.05      0.00
    6    7    3     -7.02      0.00
    7    7    3     -4.90      0.00
    8    7    3     -0.26      0.00
    9    7    3      0.75      0.00
   10    7    3     -1.01      0.00
   11    7    3     -0.86      0.00
   12    7    3      1.03      0.00
   13    7    3      0.90      0.00
   14    7    3     -1.00      0.00
   15    7    3     -1.98      0.00
   16    7    3     -1.32      0.00
   17    7    3     -0.16      0.00
  -10    8    3     -0.68      0.00
   -9    8    3     -0.09      0.00
   -8    8    3      1.08      0.00
   -7    8    3      0.91      0.00
   -6    8    3     -0.25      0.00
   -5    8    3     -0.76      0.00
   -4    8    3     -0.53      0.00
   -3    8    3     -0.82      0.00
   -2    8    3     -2.71      0.00
   -1    8    3     -3.77      0.00
    0    8    3     -0.23      0.00
    1    8    3      4.65      0.00
    2    8    3      3.02      0.00
    3    8    3     -5.11      0.00
    4    8    3    -10.18      0.00
    5    8    3     -6.11      0.00
    6    8    3      1.14      0.00
    7    8    3      3.25      0.00
    8    8    3      0.75      0.00
    9    8    3     -0.63      0.00
   10    8    3      1.20      0.00
   11    8    3      2.58      0.00
   12    8    3      0.71      0.00
   13    8    3     -1.22      0.00
   14    8    3     -0.26      0.00
   15    8    3      1.56      0.00
   16    8    3      1.90      0.00
   17    8    3      0.93      0.00
   -9    9    3      0.40      0.00
   -8    9    3     -0.42      0.00
   -7    9    3     -1.03      0.00
   -6    9    3     -0.57      0.00
   -5    9    3     -0.14      0.00
   -4    9    3     -0.34      0.00
   -3    9    3     -0.33      0.00
   -2    9    3      1.20      0.00
   -1    9    3      3.70      0.00
    0    9    3      3.20      0.00
    1    9    3     -1.65      0.00
    2    9    3     -5.00      0.00
    3    9    3     -1.55      0.00
    4    9    3      5.08      0.00
    5    9    3      6.91      0.00
    6    9    3      2.81      0.00
    7    9    3     -0.59      0.00
    8    9    3      0.29      0.00
    9    9    3      1.92      0.00
   10    9    3      0.52      0.00
   11    9    3     -2.51      0.00
   12    9    3     -2.66      0.00
   13    9    3      0.08      0.00
   14    9    3      1.24      0.00
   15    9    3     -0.18      0.00
   16    9    3     -1.47      0.00
   17    9    3     -1.33      0.00
   -8   10    3     -0.11      0.00
   -7   10    3      0.66      0.00
   -6   10    3      0.82      0.00
   -5   10    3      0.49      0.00
   -4   10    3      0.69      0.00
   -3   10    3      1.25      0.00
   -2   10    3      0.83      0.00
   -1   10    3     -1.48      0.00
    0   10    3     -3.35      0.00
    1   10    3     -1.23      0.00
    2   10    3      3.14      0.00
    3   10    3      4.22      0.00
    4   10    3      0.68      0.00
    5   10    3     -2.88      0.00
    6   10    3     -2.33      0.00
    7   10    3      0.06      0.00
    8   10    3     -0.27      0.00
    9   10    3     -2.67      0.00
   10   10    3     -2.97      0.00
   11   10    3      0.10      0.00
   12   10    3      2.84      0.00
   13   10    3      1.67      0.00
   14   10    3     -0.92      0.00
   15   10    3     -1.12      0.00
   16   10    3      0.15      0.00
   17   10    3      0.84      0.00
   -7   11    3     -0.11      0.00
   -6   11    3     -0.66      0.00
   -5   11    3     -0.66      0.00
   -4   11    3     -0.61      0.00
   -3   11    3     -1.15      0.00
   -2   11    3     -1.68      0.00
   -1   11    3     -0.72      0.00
    0   11    3      1.56      0.00
    1   11    3      2.00      0.00
    2   11    3     -0.73      0.00
    3   11    3     -3.16      0.00
    4   11    3     -2.40      0.00
    5   11    3     -0.06      0.00
    6   11    3      0.44      0.00
    7   11    3     -1.21      0.00
    8   11    3     -1.49      0.00
    9   11    3      1.19      0.00
   10   11    3      3.70      0.00
   11   11    3      2.70      0.00
   12   11    3     -0.78      0.00
   13   11    3     -2.26      0.00
   14   11    3     -0.38      0.00
   15   11    3      1.23      0.00
   16   11    3      0.87      0.00
   17   11    3      0.12      0.00
   -6   12    3      0.18      0.00
   -5   12    3      0.44      0.00
   -4   12    3      0.47      0.00
   -3   12    3      0.71      0.00
   -2   12    3      1.25      0.00
   -1   12    3      1.33      0.00
    0   12    3     -0.01      0.00
    1   12    3     -1.44      0.00
    2   12    3     -0.60      0.00
    3   12    3      1.41      0.00
    4   12    3      1.60      0.00
    5   12    3     -0.02      0.00
    6   12    3     -0.72      0.00
    7   12    3      1.06      0.00
    8   12    3      2.97      0.00
    9   12    3      1.74      0.00
   10   12    3     -1.65      0.00
   11   12    3     -3.28      0.00
   12   12    3     -1.44      0.00
   13   12    3      1.24      0.00
   14   12    3      1.27      0.00
   15   12    3     -0.39      0.00
   16   12    3     -0.90      0.00
   -4   13    3     -0.02      0.00
   -3   13    3     -0.22      0.00
   -2   13    3     -0.66      0.00
   -1   13    3     -0.95      0.00
    0   13    3     -0.39      0.00
    1   13    3      0.88      0.00
    2   13    3      1.11      0.00
    3   13    3     -0.23      0.00
    4   13    3     -0.93      0.00
    5   13    3      0.41      0.00
    6   13    3      2.03      0.00
    7   13    3      1.21      0.00
    8   13    3     -1.90      0.00
    9   13    3     -3.55      0.00
   10   13    3     -1.61      0.00
   11   13    3      1.27      0.00
   12   13    3      1.78      0.00
   13   13    3     -0.05      0.00
   14   13    3     -1.24      0.00
   15   13    3     -0.40      0.00
   16   13    3      0.45      0.00
   -3   14    3     -0.35      0.00
   -2   14    3      0.05      0.00
   -1   14    3      0.59      0.00
    0   14    3      0.47      0.00
    1   14    3     -0.54      0.00
    2   14    3     -1.27      0.00
    3   14    3     -0.54      0.00
    4   14    3      0.63      0.00
    5   14    3      0.21      0.00
    6   14    3     -1.75      0.00
    7   14    3     -2.87      0.00
    8   14    3     -0.97      0.00
    9   14    3      2.39      0.00
   10   14    3      3.34      0.00
   11   14    3      1.35      0.00
   12   14    3     -0.48      0.00
   13   14    3     -0.24      0.00
   14   14    3      0.85      0.00
   15   14    3      0.76      0.00
   16   14    3     -0.09      0.00
   -1   15    3     -0.05      0.00
    0   15    3     -0.51      0.00
    1   15    3     -0.01      0.00
    2   15    3      1.03      0.00
    3   15    3      1.05      0.00
    4   15    3     -0.15      0.00
    5   15    3     -0.84      0.00
    6   15    3      0.25      0.00
    7   15    3      2.22      0.00
    8   15    3      2.66      0.00
    9   15    3      0.40      0.00
   10   15    3     -2.19      0.00
   11   15    3     -2.33      0.00
   12   15    3     -0.82      0.00
   13   15    3     -0.03      0.00
   14   15    3     -0.44      0.00
   15   15    3     -0.72      0.00
    0   16    3      0.12      0.00
    1   16    3      0.33      0.00
    2   16    3     -0.38      0.00
    3   16    3     -1.05      0.00
    4   16    3     -0.45      0.00
    5   16    3      0.75      0.00
    6   16    3      0.87      0.00
    7   16    3     -0.55      0.00
    8   16    3     -2.14      0.00
    9   16    3     -2.02      0.00
   10   16    3     -0.16      0.00
   11   16    3      1.23      0.00
   12   16    3      0.98      0.00
   13   16    3      0.22      0.00
   14   16    3      0.06      0.00
    3   17    3      0.58      0.00
    4   17    3      0.72      0.00
    5   17    3     -0.21      0.00
    6   17    3     -1.11      0.00
    7   17    3     -0.70      0.00
    8   17    3      0.71      0.00
    9   17    3      1.69      0.00
   10   17    3      1.32      0.00
   11   17    3      0.26      0.00
   12   17    3     -0.25      0.00
    7   18    3      1.10      0.00
    8   18    3      0.41      0.00
    9   18    3     -0.58      0.00
  -11  -17    4      0.22      0.00
  -10  -17    4      0.70      0.00
   -9  -17    4      0.29      0.00
   -8  -17    4     -0.55      0.00
   -7  -17    4     -1.18      0.00
   -6  -17    4     -1.23      0.00
   -5  -17    4     -0.70      0.00
   -4  -17    4     -0.23      0.00
  -13  -16    4      0.45      0.00
  -12  -16    4      0.67      0.00
  -11  -16    4      0.13      0.00
  -10  -16    4     -0.87      0.00
   -9  -16    4     -1.12      0.00
   -8  -16    4     -0.40      0.00
   -7  -16    4      0.56      0.00
   -6  -16    4      1.24      0.00
   -5  -16    4      1.33      0.00
   -4  -16    4      0.92      0.00
   -3  -16    4      0.64      0.00
   -2  -16    4      0.72      0.00
   -1  -16    4      0.62      0.00
  -14  -15    4      0.25      0.00
  -13  -15    4      0.17      0.00
  -12  -15    4     -0.30      0.00
  -11  -15    4     -0.47      0.00
  -10  -15    4      0.40      0.00
   -9  -15    4      1.45      0.00
   -8  -15    4      1.53      0.00
   -7  -15    4      0.74      0.00
   -6  -15    4     -0.11      0.00
   -5  -15    4     -0.68      0.00
   -4  -15    4     -0.94      0.00
   -3  -15    4     -1.02      0.00
   -2  -15    4     -1.21      0.00
   -1  -15    4     -1.45      0.00
    0  -15    4     -1.16      0.00
    1  -15    4     -0.32      0.00
  -15  -14    4     -0.33      0.00
  -14  -14    4     -0.66      0.00
  -13  -14    4     -0.85      0.00
  -12  -14    4     -0.61      0.00
  -11  -14    4      0.01      0.00
  -10  -14    4      0.08      0.00
   -9  -14    4     -0.75      0.00
   -8  -14    4     -1.68      0.00
   -7  -14    4     -1.78      0.00
   -6  -14    4     -1.21      0.00
   -5  -14    4     -0.75      0.00
   -4  -14    4     -0.44      0.00
   -3  -14    4      0.09      0.00
   -2  -14    4      0.89      0.00
   -1  -14    4      1.86      0.00
    0  -14    4      2.29      0.00
    1  -14    4      1.55      0.00
    2  -14    4      0.41      0.00
  -16  -13    4     -0.36      0.00
  -15  -13    4      0.14      0.00
  -14  -13    4      0.62      0.00
  -13  -13    4      0.90      0.00
  -12  -13    4      0.94      0.00
  -11  -13    4      0.54      0.00
  -10  -13    4      0.07      0.00
   -9  -13    4     -0.03      0.00
   -8  -13    4      0.51      0.00
   -7  -13    4      1.36      0.00
   -6  -13    4      1.64      0.00
   -5  -13    4      1.57      0.00
   -4  -13    4      1.82      0.00
   -3  -13    4      1.93      0.00
   -2  -13    4      1.27      0.00
   -1  -13    4     -0.41      0.00
    0  -13    4     -2.28      0.00
    1  -13    4     -2.68      0.00
    2  -13    4     -1.49      0.00
    3  -13    4     -0.40      0.00
    4  -13    4     -0.22      0.00
  -16  -12    4      0.45      0.00
  -15  -12    4      0.24      0.00
  -14  -12    4     -0.15      0.00
  -13  -12    4     -0.27      0.00
  -12  -12    4     -0.19      0.00
  -11  -12    4      0.04      0.00
  -10  -12    4      0.15      0.00
   -9  -12    4      0.26      0.00
   -8  -12    4      0.55      0.00
   -7  -12    4      0.24      0.00
   -6  -12    4     -0.52      0.00
   -5  -12    4     -0.99      0.00
   -4  -12    4     -1.66      0.00
   -3  -12    4     -2.79      0.00
   -2  -12    4     -3.62      0.00
   -1  -12    4     -3.00      0.00
    0  -12    4     -0.43      0.00
    1  -12    4      2.08      0.00
    2  -12    4      2.30      0.00
    3  -12    4      1.12      0.00
    4  -12    4      0.38      0.00
    5  -12    4      0.21      0.00
  -16  -11    4     -0.75      0.00
  -15  -11    4     -0.67      0.00
  -14  -11    4     -0.28      0.00
  -13  -11    4     -0.25      0.00
  -12  -11    4     -0.74      0.00
  -11  -11    4     -1.36      0.00
  -10  -11    4     -1.41      0.00
   -9  -11    4     -0.80      0.00
   -8  -11    4     -0.72      0.00
   -7  -11    4     -1.16      0.00
   -6  -11    4     -1.02      0.00
   -5  -11    4     -0.67      0.00
   -4  -11    4     -0.21      0.00
   -3  -11    4      1.14      0.00
   -2  -11    4      3.28      0.00
   -1  -11    4      5.11      0.00
    0  -11    4      4.54      0.00
    1  -11    4      1.34      0.00
    2  -11    4     -1.29      0.00
    3  -11    4     -1.50      0.00
    4  -11    4     -0.79      0.00
    5  -11    4     -0.31      0.00
    6  -11    4     -0.01      0.00
  -17  -10    4      0.56      0.00
  -16  -10    4      0.84      0.00
  -15  -10    4      0.84      0.00
  -14  -10    4      0.29      0.00
  -13  -10    4     -0.17      0.00
  -12  -10    4      0.40      0.00
  -11  -10    4      1.72      0.00
  -10  -10    4      2.56      0.00
   -9  -10    4      1.90      0.00
   -8  -10    4      0.81      0.00
   -7  -10    4      0.87      0.00
   -6  -10    4      1.24      0.00
   -5  -10    4      1.47      0.00
   -4  -10    4      2.11      0.00
   -3  -10    4      2.16      0.00
   -2  -10    4      0.43      0.00
   -1  -10    4     -2.92      0.00
    0  -10    4     -5.83      0.00
    1  -10    4     -5.26      0.00
    2  -10    4     -1.95      0.00
    3  -10    4      0.42      0.00
    4  -10    4      0.81      0.00
    5  -10    4      0.45      0.00
    6  -10    4      0.04      0.00
    7  -10    4     -0.15      0.00
    8  -10    4     -0.12      0.00
  -17   -9    4     -0.25      0.00
  -16   -9    4     -0.56      0.00
  -15   -9    4     -0.62      0.00
  -14   -9    4     -0.04      0.00
  -13   -9    4      1.10      0.00
  -12   -9    4      1.33      0.00
  -11   -9    4     -0.14      0.00
  -10   -9    4     -2.08      0.00
   -9   -9    4     -2.49      0.00
   -8   -9    4     -1.22      0.00
   -7   -9    4     -0.41      0.00
   -6   -9    4     -0.51      0.00
   -5   -9    4     -0.45      0.00
   -4   -9    4     -1.37      0.00
   -3   -9    4     -3.68      0.00
   -2   -9    4     -4.98      0.00
   -1   -9    4     -3.07      0.00
    0   -9    4      1.76      0.00
    1   -9    4      5.54      0.00
    2   -9    4      4.90      0.00
    3   -9    4      1.92      0.00
    4   -9    4      0.04      0.00
    5   -9    4     -0.26      0.00
    6   -9    4      0.11      0.00
    7   -9    4      0.29      0.00
    8   -9    4      0.13      0.00
    9   -9    4      0.07      0.00
  -17   -8    4     -0.13      0.00
  -16   -8    4      0.24      0.00
  -15   -8    4      0.55      0.00
  -14   -8    4      0.21      0.00
  -13   -8    4     -1.32      0.00
  -12   -8    4     -2.84      0.00
  -11   -8    4     -2.33      0.00
   -9   -8    4      1.55      0.00
   -8   -8    4      1.27      0.00
   -7   -8    4      0.31      0.00
   -6   -8    4      0.17      0.00
   -5   -8    4     -0.49      0.00
   -4   -8    4     -1.45      0.00
   -3   -8    4      0.43      0.00
   -2   -8    4      5.15      0.00
   -1   -8    4      8.30      0.00
    0   -8    4      5.96      0.00
    1   -8    4     -0.36      0.00
    2   -8    4     -4.39      0.00
    3   -8    4     -3.52      0.00
    4   -8    4     -1.13      0.00
    5   -8    4     -0.07      0.00
    6   -8    4     -0.34      0.00
    7   -8    4     -0.75      0.00
    8   -8    4     -0.45      0.00
    9   -8    4      0.04      0.00
  -17   -7    4      0.39      0.00
  -16   -7    4      0.13      0.00
  -15   -7    4     -0.71      0.00
  -14   -7    4     -1.24      0.00
  -13   -7    4     -0.11      0.00
  -12   -7    4      2.44      0.00
  -11   -7    4      3.65      0.00
  -10   -7    4      2.34      0.00
   -9   -7    4      0.52      0.00
   -8   -7    4     -0.04      0.00
   -7   -7    4      0.20      0.00
   -6   -7    4     -0.25      0.00
   -5   -7    4     -0.26      0.00
   -4   -7    4      2.36      0.00
   -3   -7    4      4.63      0.00
   -2   -7    4      1.34      0.00
   -1   -7    4     -6.37      0.00
    0   -7    4    -11.11      0.00
    1   -7    4     -7.78      0.00
    2   -7    4     -0.60      0.00
    3   -7    4      2.66      0.00
    4   -7    4      1.39      0.00
    5   -7    4     -0.12      0.00
    6   -7    4      0.02      0.00
    7   -7    4      0.92      0.00
    8   -7    4      1.14      0.00
    9   -7    4      0.46      0.00
   10   -7    4     -0.14      0.00
  -17   -6    4     -0.22      0.00
  -16   -6    4     -0.54      0.00
  -15   -6    4      0.23      0.00
  -14   -6    4      1.95      0.00
  -13   -6    4      2.47      0.00
  -12   -6    4      0.17      0.00
  -11   -6    4     -2.68      0.00
  -10   -6    4     -2.90      0.00
   -9   -6    4     -1.77      0.00
   -8   -6    4     -1.76      0.00
   -7   -6    4     -2.12      0.00
   -6   -6    4     -0.83      0.00
   -5   -6    4      1.43      0.00
   -4   -6    4      0.37      0.00
   -3   -6    4     -5.28      0.00
   -2   -6    4     -8.66      0.00
   -1   -6    4     -3.30      0.00
    0   -6    4      7.06      0.00
    1   -6    4     11.97      0.00
    2   -6    4      7.40      0.00
    3   -6    4      0.81      0.00
    4   -6    4     -0.68      0.00
    5   -6    4      0.86      0.00
    6   -6    4      1.12      0.00
    7   -6    4     -0.20      0.00
    8   -6    4     -1.28      0.00
    9   -6    4     -1.14      0.00
   10   -6    4     -0.41      0.00
   11   -6    4      0.08      0.00
  -17   -5    4     -0.25      0.00
  -16   -5    4      0.50      0.00
  -15   -5    4      0.79      0.00
  -14   -5    4     -0.95      0.00
  -13   -5    4     -3.37      0.00
  -12   -5    4     -3.20      0.00
  -11   -5    4     -0.22      0.00
  -10   -5    4      1.51      0.00
   -9   -5    4      0.93      0.00
   -8   -5    4      1.64      0.00
   -7   -5    4      3.95      0.00
   -6   -5    4      3.96      0.00
   -5   -5    4      0.03      0.00
   -4   -5    4     -3.42      0.00
   -3   -5    4      0.15      0.00
   -2   -5    4      8.96      0.00
   -1   -5    4     12.29      0.00
    0   -5    4      4.56      0.00
    1   -5    4     -6.57      0.00
    2   -5    4     -9.75      0.00
    3   -5    4     -4.59      0.00
    4   -5    4     -0.36      0.00
    5   -5    4     -1.06      0.00
    6   -5    4     -2.42      0.00
    7   -5    4     -1.38      0.00
    8   -5    4      0.57      0.00
    9   -5    4      1.26      0.00
   10   -5    4      0.78      0.00
   11   -5    4      0.32      0.00
   12   -5    4      0.11      0.00
  -16   -4    4      0.04      0.00
  -15   -4    4     -1.26      0.00
  -14   -4    4     -0.88      0.00
  -13   -4    4      1.87      0.00
  -12   -4    4      4.03      0.00
  -11   -4    4      2.94      0.00
  -10   -4    4      0.84      0.00
   -9   -4    4      1.21      0.00
   -8   -4    4      1.29      0.00
   -7   -4    4     -2.42      0.00
   -6   -4    4     -6.28      0.00
   -5   -4    4     -4.64      0.00
   -3   -4    4      5.08      0.00
   -2   -4    4     -1.74      0.00
   -1   -4    4    -12.24      0.00
    0   -4    4    -13.77      0.00
    1   -4    4     -4.56      0.00
    2   -4    4      4.46      0.00
    3   -4    4      4.74      0.00
    4   -4    4      0.50      0.00
    5   -4    4     -0.21      0.00
    6   -4    4      2.27      0.00
    7   -4    4      3.02      0.00
    8   -4    4      1.03      0.00
    9   -4    4     -0.84      0.00
   10   -4    4     -0.77      0.00
   11   -4    4     -0.13      0.00
   12   -4    4     -0.21      0.00
   13   -4    4     -0.32      0.00
  -16   -3    4     -0.60      0.00
  -15   -3    4      0.80      0.00
  -14   -3    4      2.00      0.00
  -13   -3    4      0.42      0.00
  -12   -3    4     -2.51      0.00
  -11   -3    4     -3.40      0.00
  -10   -3    4     -2.12      0.00
   -9   -3    4     -2.53      0.00
   -8   -3    4     -4.60      0.00
   -7   -3    4     -2.59      0.00
   -6   -3    4      3.94      0.00
   -4   -3    4      3.88      0.00
   -3   -3    4     -4.09      0.00
   -2   -3    4     -5.49      0.00
   -1   -3    4      3.75      0.00
    0   -3    4     13.02      0.00
    1   -3    4     11.53      0.00
    2   -3    4      3.06      0.00
    3   -3    4     -1.32      0.00
    4   -3    4      1.04      0.00
    5   -3    4      2.94      0.00
    6   -3    4      0.26      0.00
    7   -3    4     -3.05      0.00
    8   -3    4     -2.92      0.00
    9   -3    4     -0.41      0.00
   10   -3    4      0.81      0.00
   11   -3    4     -0.07      0.00
   12   -3    4     -0.43      0.00
   13   -3    4      0.30      0.00
  -16   -2    4      0.77      0.00
  -15   -2    4      0.22      0.00
  -14   -2    4     -1.92      0.00
  -13   -2    4     -2.15      0.00
  -12   -2    4      0.31      0.00
  -11   -2    4      2.17      0.00
  -10   -2    4      1.44      0.00
   -9   -2    4      1.23      0.00
   -8   -2    4      4.75      0.00
   -7   -2    4      7.08      0.00
   -6   -2    4      2.28      0.00
   -5   -2    4     -5.48      0.00
   -3   -2    4     -1.68      0.00
   -2   -2    4      5.96      0.00
   -1   -2    4      4.75      0.00
    0   -2    4     -4.53      0.00
    2   -2    4     -5.50      0.00
    3   -2    4     -0.38      0.00
    4   -2    4     -1.61      0.00
    5   -2    4     -5.38      0.00
    6   -2    4     -4.49      0.00
    7   -2    4      0.39      0.00
    8   -2    4      3.44      0.00
    9   -2    4      2.22      0.00
   10   -2    4     -0.31      0.00
   11   -2    4     -0.40      0.00
   12   -2    4      0.79      0.00
   13   -2    4      0.33      0.00
   14   -2    4     -0.60      0.00
  -15   -1    4     -1.01      0.00
  -14   -1    4      0.76      0.00
  -13   -1    4      2.73      0.00
  -12   -1    4      1.72      0.00
  -11   -1    4     -0.64      0.00
  -10   -1    4     -0.51      0.00
   -9   -1    4      1.42      0.00
   -8   -1    4     -0.57      0.00
   -7   -1    4     -6.57      0.00
   -6   -1    4     -7.65      0.00
   -5   -1    4     -0.80      0.00
   -4   -1    4      6.00      0.00
   -3   -1    4      5.49      0.00
   -2   -1    4     -1.69      0.00
   -1   -1    4     -6.93      0.00
    1   -1    4      3.19      0.00
    2   -1    4      2.79      0.00
    3   -1    4     -2.13      0.00
    4   -1    4     -2.28      0.00
    5   -1    4      3.64      0.00
    6   -1    4      7.46      0.00
    7   -1    4      4.29      0.00
    8   -1    4     -1.25      0.00
    9   -1    4     -3.05      0.00
   10   -1    4     -0.83      0.00
   11   -1    4      0.83      0.00
   12   -1    4     -0.24      0.00
   13   -1    4     -0.81      0.00
   14   -1    4      0.39      0.00
  -15    0    4      0.99      0.00
  -14    0    4      0.56      0.00
  -13    0    4     -1.75      0.00
  -12    0    4     -2.69      0.00
  -11    0    4     -0.81      0.00
  -10    0    4      0.42      0.00
   -9    0    4     -2.04      0.00
   -8    0    4     -4.17      0.00
   -7    0    4      0.46      0.00
   -6    0    4      7.38      0.00
   -5    0    4      6.51      0.00
   -4    0    4     -0.81      0.00
    0    0    4      5.81      0.00
    2    0    4     -0.67      0.00
    3    0    4      4.38      0.00
    4    0    4      8.12      0.00
    5    0    4      3.62      0.00
    6    0    4     -4.82      0.00
    7    0    4     -7.55      0.00
    8    0    4     -3.06      0.00
    9    0    4      1.65      0.00
   10    0    4      1.64      0.00
   11    0    4     -0.69      0.00
   12    0    4     -0.66      0.00
   13    0    4      0.79      0.00
   14    0    4      0.12      0.00
   15    0    4     -1.04      0.00
  -14    1    4     -1.11      0.00
  -13    1    4      0.10      0.00
  -12    1    4      1.95      0.00
  -11    1    4      1.49      0.00
  -10    1    4     -0.56      0.00
   -9    1    4      0.11      0.00
   -8    1    4      4.52      0.00
   -7    1    4      5.71      0.00
   -6    1    4     -0.87      0.00
   -5    1    4     -6.95      0.00
   -4    1    4     -4.31      0.00
   -3    1    4      2.06      0.00
   -2    1    4      3.07      0.00
   -1    1    4     -2.10      0.00
    1    1    4     -1.76      0.00
    2    1    4      2.22      0.00
    3    1    4     -1.49      0.00
    4    1    4     -9.11      0.00
    5    1    4    -10.75      0.00
    6    1    4     -3.37      0.00
    7    1    4      5.03      0.00
    8    1    4      5.97      0.00
    9    1    4      1.40      0.00
   10    1    4     -1.24      0.00
   11    1    4      0.18      0.00
   12    1    4      1.33      0.00
   13    1    4     -0.22      0.00
   14    1    4     -0.90      0.00
   15    1    4      0.64      0.00
  -14    2    4      1.01      0.00
  -13    2    4      1.08      0.00
  -12    2    4     -0.46      0.00
  -11    2    4     -1.18      0.00
  -10    2    4      0.52      0.00
   -9    2    4      1.92      0.00
   -8    2    4     -0.92      0.00
   -7    2    4     -6.08      0.00
   -6    2    4     -5.70      0.00
   -5    2    4      1.21      0.00
   -4    2    4      5.16      0.00
   -3    2    4      1.49      0.00
   -2    2    4     -2.71      0.00
   -1    2    4     -0.46      0.00
    0    2    4      4.43      0.00
    5    2    4     10.79      0.00
    6    2    4     10.25      0.00
    7    2    4      2.22      0.00
    8    2    4     -3.92      0.00
    9    2    4     -3.13      0.00
   10    2    4      0.02      0.00
   11    2    4      0.26      0.00
   12    2    4     -1.32      0.00
   13    2    4     -0.76      0.00
   14    2    4      1.13      0.00
   15    2    4      0.64      0.00
   16    2    4     -0.91      0.00
  -13    3    4     -1.50      0.00
  -12    3    4     -0.83      0.00
  -11    3    4      0.60      0.00
  -10    3    4     -0.07      0.00
   -9    3    4     -2.39      0.00
   -8    3    4     -2.43      0.00
   -7    3    4      1.84      0.00
   -6    3    4      6.20      0.00
   -5    3    4      4.53      0.00
   -4    3    4     -0.93      0.00
   -3    3    4     -2.24      0.00
   -2    3    4      1.23      0.00
   -1    3    4      1.99      0.00
    0    3    4     -2.76      0.00
    1    3    4     -4.87      0.00
    5    3    4     -3.48      0.00
    6    3    4     -9.93      0.00
    7    3    4     -7.53      0.00
    8    3    4     -1.03      0.00
    9    3    4      1.66      0.00
   10    3    4      0.21      0.00
   11    3    4     -0.63      0.00
   12    3    4      0.65      0.00
   13    3    4      1.34      0.00
   14    3    4     -0.29      0.00
   15    3    4     -1.48      0.00
   16    3    4     -0.31      0.00
  -13    4    4      1.10      0.00
  -12    4    4      1.54      0.00
  -11    4    4      0.18      0.00
  -10    4    4     -0.66      0.00
   -9    4    4      1.18      0.00
   -8    4    4      3.23      0.00
   -7    4    4      1.95      0.00
   -6    4    4     -2.25      0.00
   -5    4    4     -4.80      0.00
   -4    4    4     -2.80      0.00
   -2    4    4     -1.12      0.00
    1    4    4      6.20      0.00
    2    4    4      3.88      0.00
    4    4    4    -10.91      0.00
    5    4    4     -5.52      0.00
    6    4    4      3.51      0.00
    7    4    4      6.92      0.00
    8    4    4      3.63      0.00
    9    4    4      0.34      0.00
   10    4    4      0.71      0.00
   11    4    4      1.53      0.00
   12    4    4      0.42      0.00
   13    4    4     -1.05      0.00
   14    4    4     -0.70      0.00
   15    4    4      0.94      0.00
   16    4    4      1.22      0.00
  -12    5    4     -1.32      0.00
  -11    5    4     -1.01      0.00
  -10    5    4      0.62      0.00
   -9    5    4      0.47      0.00
   -8    5    4     -1.86      0.00
   -7    5    4     -2.98      0.00
   -6    5    4     -1.13      0.00
   -5    5    4      1.71      0.00
   -4    5    4      2.36      0.00
   -3    5    4      1.10      0.00
   -2    5    4      1.70      0.00
   -1    5    4      3.98      0.00
    0    5    4      2.19      0.00
    1    5    4     -4.95      0.00
    2    5    4     -8.72      0.00
    3    5    4     -2.10      0.00
    4    5    4      7.94      0.00
    5    5    4      9.96      0.00
    6    5    4      3.59      0.00
    7    5    4     -2.52      0.00
    8    5    4     -2.63      0.00
    9    5    4     -0.05      0.00
   10    5    4     -0.33      0.00
   11    5    4     -2.16      0.00
   12    5    4     -1.73      0.00
   13    5    4      0.22      0.00
   14    5    4      1.09      0.00
   15    5    4      0.16      0.00
   16    5    4     -0.93      0.00
   17    5    4     -0.65      0.00
  -11    6    4      1.17      0.00
  -10    6    4      0.22      0.00
   -9    6    4     -0.99      0.00
   -8    6    4      0.02      0.00
   -7    6    4      1.93      0.00
   -6    6    4      2.10      0.00
   -5    6    4      0.60      0.00
   -4    6    4     -0.38      0.00
   -3    6    4      0.29      0.00
   -2    6    4     -0.06      0.00
   -1    6    4     -3.52      0.00
    0    6    4     -5.34      0.00
    1    6    4      0.18      0.00
    2    6    4      8.66      0.00
    4    6    4      0.35      0.00
    5    6    4     -7.30      0.00
    6    6    4     -6.41      0.00
    7    6    4     -1.24      0.00
    8    6    4      0.75      0.00
    9    6    4     -1.30      0.00
   10    6    4     -1.97      0.00
   11    6    4      0.72      0.00
   12    6    4      2.33      0.00
   13    6    4      0.82      0.00
   14    6    4     -1.03      0.00
   15    6    4     -1.10      0.00
   16    6    4      0.02      0.00
   17    6    4      0.54      0.00
  -11    7    4     -0.73      0.00
  -10    7    4     -0.75      0.00
   -9    7    4      0.42      0.00
   -8    7    4      0.82      0.00
   -7    7    4     -0.42      0.00
   -6    7    4     -1.42      0.00
   -5    7    4     -1.10      0.00
   -4    7    4     -0.51      0.00
   -3    7    4     -1.26      0.00
   -2    7    4     -2.36      0.00
   -1    7    4     -0.03      0.00
    0    7    4      4.81      0.00
    1    7    4      4.68      0.00
    2    7    4     -3.13      0.00
    3    7    4    -10.05      0.00
    4    7    4     -7.47      0.00
    5    7    4      0.58      0.00
    6    7    4      4.09      0.00
    7    7    4      1.57      0.00
    8    7    4     -0.69      0.00
    9    7    4      1.12      0.00
   10    7    4      3.71      0.00
   11    7    4      2.37      0.00
   12    7    4     -1.02      0.00
   13    7    4     -1.51      0.00
   14    7    4      0.52      0.00
   15    7    4      1.73      0.00
   16    7    4      1.08      0.00
   17    7    4     -0.04      0.00
  -10    8    4      0.68      0.00
   -9    8    4      0.19      0.00
   -8    8    4     -0.73      0.00
   -7    8    4     -0.47      0.00
   -6    8    4      0.43      0.00
   -5    8    4      0.62      0.00
   -4    8    4      0.30      0.00
   -3    8    4      0.80      0.00
   -2    8    4      2.71      0.00
   -1    8    4      3.15      0.00
    0    8    4     -0.80      0.00
    1    8    4     -5.00      0.00
    2    8    4     -2.60      0.00
    3    8    4      4.78      0.00
    4    8    4      8.12      0.00
    5    8    4      4.04      0.00
    6    8    4     -0.51      0.00
    7    8    4      0.13      0.00
    8    8    4      2.58      0.00
    9    8    4      1.49      0.00
   10    8    4     -2.66      0.00
   11    8    4     -4.51      0.00
   12    8    4     -1.77      0.00
   13    8    4      1.02      0.00
   14    8    4      0.38      0.00
   15    8    4     -1.47      0.00
   16    8    4     -1.86      0.00
   17    8    4     -0.79      0.00
   -9    9    4     -0.44      0.00
   -8    9    4      0.33      0.00
   -7    9    4      0.79      0.00
   -6    9    4      0.27      0.00
   -5    9    4     -0.12      0.00
   -4    9    4      0.17      0.00
   -3    9    4      0.21      0.00
   -2    9    4     -1.25      0.00
   -1    9    4     -3.28      0.00
    0    9    4     -2.21      0.00
    1    9    4      2.13      0.00
    2    9    4      4.12      0.00
    3    9    4      0.59      0.00
    4    9    4     -3.89      0.00
    5    9    4     -3.55      0.00
    6    9    4     -0.20      0.00
    7    9    4     -0.10      0.00
    8    9    4     -3.48      0.00
    9    9    4     -4.73      0.00
   10    9    4     -1.15      0.00
   11    9    4      3.54      0.00
   12    9    4      3.90      0.00
   13    9    4      0.64      0.00
   14    9    4     -0.92      0.00
   15    9    4      0.27      0.00
   16    9    4      1.47      0.00
   17    9    4      1.29      0.00
   -8   10    4      0.11      0.00
   -7   10    4     -0.64      0.00
   -6   10    4     -0.75      0.00
   -5   10    4     -0.31      0.00
   -4   10    4     -0.35      0.00
   -3   10    4     -0.82      0.00
   -2   10    4     -0.42      0.00
   -1   10    4      1.51      0.00
    0   10    4      2.49      0.00
    1   10    4      0.02      0.00
    2   10    4     -3.05      0.00
    3   10    4     -2.51      0.00
    4   10    4      0.46      0.00
    5   10    4      1.18      0.00
    6   10    4     -1.41      0.00
    7   10    4     -2.58      0.00
    8   10    4      0.90      0.00
    9   10    4      5.21      0.00
   10   10    4      5.00      0.00
   11   10    4      0.34      0.00
   12   10    4     -3.29      0.00
   13   10    4     -2.12      0.00
   14   10    4      0.58      0.00
   15   10    4      0.86      0.00
   16   10    4     -0.24      0.00
   17   10    4     -0.79      0.00
   -7   11    4      0.17      0.00
   -6   11    4      0.71      0.00
   -5   11    4      0.69      0.00
   -4   11    4      0.53      0.00
   -3   11    4      0.82      0.00
   -2   11    4      1.12      0.00
   -1   11    4      0.16      0.00
    0   11    4     -1.45      0.00
    1   11    4     -0.82      0.00
    2   11    4      1.86      0.00
    3   11    4      2.61      0.00
    4   11    4      0.45      0.00
    5   11    4     -0.87      0.00
    6   11    4      1.40      0.00
    7   11    4      4.56      0.00
    8   11    4      3.47      0.00
    9   11    4     -1.76      0.00
   10   11    4     -5.52      0.00
   11   11    4     -4.06      0.00
   12   11    4      0.26      0.00
   13   11    4      1.96      0.00
   14   11    4      0.12      0.00
   15   11    4     -1.21      0.00
   16   11    4     -0.67      0.00
   17   11    4     -0.01      0.00
   -6   12    4     -0.26      0.00
   -5   12    4     -0.51      0.00
   -4   12    4     -0.57      0.00
   -3   12    4     -0.71      0.00
   -2   12    4     -0.98      0.00
   -1   12    4     -0.71      0.00
    0   12    4      0.59      0.00
    1   12    4      1.17      0.00
    2   12    4     -0.58      0.00
    3   12    4     -2.24      0.00
    4   12    4     -0.89      0.00
    5   12    4      1.63      0.00
    6   12    4      1.18      0.00
    7   12    4     -2.75      0.00
    8   12    4     -5.44      0.00
    9   12    4     -2.90      0.00
   10   12    4      2.26      0.00
   11   12    4      4.54      0.00
   12   12    4      2.38      0.00
   13   12    4     -0.51      0.00
   14   12    4     -0.47      0.00
   15   12    4      0.92      0.00
   16   12    4      0.90      0.00
   -4   13    4      0.15      0.00
   -3   13    4      0.38      0.00
   -2   13    4      0.69      0.00
   -1   13    4      0.65      0.00
    0   13    4     -0.25      0.00
    1   13    4     -1.35      0.00
    2   13    4     -0.75      0.00
    3   13    4      1.21      0.00
    4   13    4      1.45      0.00
    5   13    4     -1.00      0.00
    6   13    4     -3.01      0.00
    7   13    4     -1.22      0.00
    8   13    4      3.15      0.00
    9   13    4      4.89      0.00
   10   13    4      1.92      0.00
   11   13    4     -1.90      0.00
   12   13    4     -2.54      0.00
   13   13    4     -0.54      0.00
   14   13    4      0.56      0.00
   15   13    4     -0.28      0.00
   16   13    4     -0.73      0.00
   -3   14    4      0.12      0.00
   -2   14    4     -0.20      0.00
   -1   14    4     -0.51      0.00
    0   14    4     -0.09      0.00
    1   14    4      1.07      0.00
    2   14    4      1.48      0.00
    3   14    4      0.07      0.00
    4   14    4     -1.40      0.00
    5   14    4     -0.50      0.00
    6   14    4      2.15      0.00
    7   14    4      3.30      0.00
    8   14    4      0.79      0.00
    9   14    4     -3.00      0.00
   10   14    4     -3.66      0.00
   11   14    4     -1.13      0.00
   12   14    4      0.89      0.00
   13   14    4      0.49      0.00
   14   14    4     -0.64      0.00
   15   14    4     -0.46      0.00
   16   14    4      0.27      0.00
   -1   15    4      0.14      0.00
    0   15    4      0.33      0.00
    1   15    4     -0.30      0.00
    2   15    4     -1.26      0.00
    3   15    4     -0.90      0.00
    4   15    4      0.73      0.00
    5   15    4      1.37      0.00
    6   15    4     -0.23      0.00
    7   15    4     -2.54      0.00
    8   15    4     -2.81      0.00
    9   15    4     -0.28      0.00
   10   15    4      2.22      0.00
   11   15    4      2.10      0.00
   12   15    4      0.57      0.00
   13   15    4      0.01      0.00
   14   15    4      0.56      0.00
   15   15    4      0.80      0.00
    1   16    4     -0.22      0.00
    2   16    4      0.48      0.00
    3   16    4      0.99      0.00
    4   16    4      0.11      0.00
    5   16    4     -1.23      0.00
    6   16    4     -1.04      0.00
    7   16    4      0.81      0.00
    8   16    4      2.42      0.00
    9   16    4      2.03      0.00
   10   16    4      0.14      0.00
   11   16    4     -1.00      0.00
   12   16    4     -0.67      0.00
   13   16    4     -0.17      0.00
   14   16    4     -0.26      0.00
    3   17    4     -0.53      0.00
    4   17    4     -0.60      0.00
    5   17    4      0.44      0.00
    6   17    4      1.25      0.00
    7   17    4      0.53      0.00
    8   17    4     -1.03      0.00
    9   17    4     -1.81      0.00
   10   17    4     -1.22      0.00
   11   17    4     -0.26      0.00
   12   17    4      0.03      0.00
    8   18    4     -0.21      0.00
  -10  -17    5     -0.56      0.00
   -9  -17    5     -0.02      0.00
   -8  -17    5      0.81      0.00
   -7  -17    5      1.16      0.00
   -6  -17    5      0.93      0.00
   -5  -17    5      0.41      0.00
  -13  -16    5     -0.19      0.00
  -12  -16    5     -0.51      0.00
  -11  -16    5     -0.22      0.00
  -10  -16    5      0.61      0.00
   -9  -16    5      0.75      0.00
   -8  -16    5     -0.07      0.00
   -7  -16    5     -0.83      0.00
   -6  -16    5     -0.99      0.00
   -5  -16    5     -0.77      0.00
   -4  -16    5     -0.50      0.00
   -3  -16    5     -0.49      0.00
   -2  -16    5     -0.60      0.00
  -14  -15    5     -0.29      0.00
  -13  -15    5     -0.33      0.00
  -12  -15    5      0.03      0.00
  -11  -15    5      0.33      0.00
  -10  -15    5     -0.24      0.00
   -9  -15    5     -1.08      0.00
   -8  -15    5     -0.98      0.00
   -7  -15    5     -0.12      0.00
   -6  -15    5      0.38      0.00
   -5  -15    5      0.29      0.00
   -4  -15    5      0.23      0.00
   -3  -15    5      0.55      0.00
   -2  -15    5      1.14      0.00
   -1  -15    5      1.40      0.00
    0  -15    5      0.84      0.00
  -15  -14    5      0.25      0.00
  -14  -14    5      0.45      0.00
  -13  -14    5      0.69      0.00
  -12  -14    5      0.71      0.00
  -11  -14    5      0.40      0.00
  -10  -14    5      0.33      0.00
   -9  -14    5      0.86      0.00
   -8  -14    5      1.39      0.00
   -7  -14    5      1.09      0.00
   -6  -14    5      0.40      0.00
   -5  -14    5      0.41      0.00
   -4  -14    5      0.84      0.00
   -3  -14    5      0.64      0.00
   -2  -14    5     -0.52      0.00
   -1  -14    5     -1.95      0.00
    0  -14    5     -2.32      0.00
    1  -14    5     -1.24      0.00
    2  -14    5     -0.07      0.00
  -15  -13    5     -0.09      0.00
  -14  -13    5     -0.36      0.00
  -13  -13    5     -0.48      0.00
  -12  -13    5     -0.57      0.00
  -11  -13    5     -0.60      0.00
  -10  -13    5     -0.72      0.00
   -9  -13    5     -0.86      0.00
   -8  -13    5     -1.10      0.00
   -7  -13    5     -1.23      0.00
   -6  -13    5     -0.76      0.00
   -5  -13    5     -0.56      0.00
   -4  -13    5     -1.41      0.00
   -3  -13    5     -2.32      0.00
   -2  -13    5     -1.83      0.00
   -1  -13    5      0.33      0.00
    0  -13    5      2.55      0.00
    1  -13    5      2.73      0.00
    2  -13    5      1.22      0.00
    3  -13    5      0.18      0.00
    4  -13    5      0.24      0.00
  -16  -12    5     -0.55      0.00
  -15  -12    5     -0.21      0.00
  -14  -12    5      0.06      0.00
  -13  -12    5     -0.09      0.00
  -12  -12    5     -0.46      0.00
  -11  -12    5     -0.75      0.00
  -10  -12    5     -0.32      0.00
   -9  -12    5      0.50      0.00
   -8  -12    5      0.84      0.00
   -7  -12    5      0.87      0.00
   -6  -12    5      0.49      0.00
   -5  -12    5     -0.06      0.00
   -4  -12    5      0.63      0.00
   -3  -12    5      2.59      0.00
   -2  -12    5      4.02      0.00
   -1  -12    5      3.17      0.00
    0  -12    5      0.09      0.00
    1  -12    5     -2.43      0.00
    2  -12    5     -2.25      0.00
    3  -12    5     -0.83      0.00
    4  -12    5     -0.21      0.00
    5  -12    5     -0.26      0.00
  -16  -11    5      0.83      0.00
  -15  -11    5      0.53      0.00
  -14  -11    5      0.12      0.00
  -13  -11    5      0.33      0.00
  -12  -11    5      1.20      0.00
  -11  -11    5      2.40      0.00
  -10  -11    5      2.74      0.00
   -9  -11    5      1.47      0.00
   -8  -11    5     -0.05      0.00
   -7  -11    5     -0.76      0.00
   -6  -11    5     -0.56      0.00
   -5  -11    5      0.64      0.00
   -4  -11    5      1.20      0.00
   -3  -11    5     -0.57      0.00
   -2  -11    5     -3.59      0.00
   -1  -11    5     -5.44      0.00
    0  -11    5     -4.17      0.00
    1  -11    5     -0.68      0.00
    2  -11    5      1.51      0.00
    3  -11    5      1.19      0.00
    4  -11    5      0.34      0.00
    5  -11    5      0.14      0.00
    6  -11    5      0.13      0.00
  -16  -10    5     -0.81      0.00
  -15  -10    5     -0.61      0.00
  -14  -10    5      0.08      0.00
  -13  -10    5      0.36      0.00
  -12  -10    5     -0.49      0.00
  -11  -10    5     -2.37      0.00
  -10  -10    5     -4.17      0.00
   -9  -10    5     -3.97      0.00
   -8  -10    5     -1.95      0.00
   -7  -10    5      0.07      0.00
   -6  -10    5      1.17      0.00
   -5  -10    5      0.35      0.00
   -4  -10    5     -1.96      0.00
   -3  -10    5     -2.57      0.00
   -2  -10    5     -0.04      0.00
   -1  -10    5      3.80      0.00
    0  -10    5      5.91      0.00
    1  -10    5      4.37      0.00
    2  -10    5      1.16      0.00
    3  -10    5     -0.40      0.00
    4  -10    5     -0.22      0.00
    5  -10    5      0.09      0.00
    6  -10    5      0.01      0.00
    7  -10    5     -0.12      0.00
  -17   -9    5      0.29      0.00
  -16   -9    5      0.53      0.00
  -15   -9    5      0.46      0.00
  -14   -9    5     -0.33      0.00
  -13   -9    5     -1.46      0.00
  -12   -9    5     -1.54      0.00
  -11   -9    5      0.13      0.00
  -10   -9    5      2.88      0.00
   -9   -9    5      4.61      0.00
   -8   -9    5      3.83      0.00
   -7   -9    5      1.68      0.00
   -6   -9    5     -0.64      0.00
   -5   -9    5     -1.96      0.00
   -4   -9    5     -0.24      0.00
   -3   -9    5      3.21      0.00
   -2   -9    5      4.30      0.00
   -1   -9    5      1.53      0.00
    0   -9    5     -2.94      0.00
    1   -9    5     -5.16      0.00
    2   -9    5     -3.60      0.00
    3   -9    5     -1.14      0.00
    4   -9    5     -0.25      0.00
    5   -9    5     -0.40      0.00
    6   -9    5     -0.48      0.00
    7   -9    5     -0.13      0.00
    8   -9    5      0.20      0.00
  -17   -8    5      0.19      0.00
  -16   -8    5     -0.17      0.00
  -15   -8    5     -0.56      0.00
  -14   -8    5     -0.18      0.00
  -13   -8    5      1.49      0.00
  -12   -8    5      3.12      0.00
  -11   -8    5      2.79      0.00
  -10   -8    5      0.43      0.00
   -9   -8    5     -2.39      0.00
   -8   -8    5     -3.61      0.00
   -7   -8    5     -2.97      0.00
   -6   -8    5     -1.31      0.00
   -5   -8    5      1.33      0.00
   -4   -8    5      2.89      0.00
   -3   -8    5      0.50      0.00
   -2   -8    5     -4.12      0.00
   -1   -8    5     -6.26      0.00
    0   -8    5     -3.52      0.00
    1   -8    5      1.39      0.00
    2   -8    5      3.39      0.00
    3   -8    5      1.92      0.00
    4   -8    5      0.44      0.00
    5   -8    5      0.36      0.00
    6   -8    5      0.78      0.00
    7   -8    5      0.77      0.00
    8   -8    5      0.23      0.00
    9   -8    5     -0.13      0.00
  -17   -7    5     -0.51      0.00
  -16   -7    5     -0.37      0.00
  -15   -7    5      0.60      0.00
  -14   -7    5      1.46      0.00
  -13   -7    5      0.46      0.00
  -12   -7    5     -2.35      0.00
  -11   -7    5     -4.10      0.00
  -10   -7    5     -3.29      0.00
   -9   -7    5     -1.15      0.00
   -8   -7    5      0.76      0.00
   -7   -7    5      1.83      0.00
   -6   -7    5      2.33      0.00
   -5   -7    5      1.31      0.00
   -4   -7    5     -2.06      0.00
   -3   -7    5     -4.26      0.00
   -2   -7    5     -1.38      0.00
   -1   -7    5      4.69      0.00
    0   -7    5      7.85      0.00
    1   -7    5      4.91      0.00
    2   -7    5      0.14      0.00
    3   -7    5     -1.04      0.00
    4   -7    5      0.22      0.00
    5   -7    5      0.50      0.00
    6   -7    5     -0.40      0.00
    7   -7    5     -1.07      0.00
    8   -7    5     -0.91      0.00
    9   -7    5     -0.44      0.00
   10   -7    5     -0.16      0.00
  -17   -6    5      0.29      0.00
  -16   -6    5      0.78      0.00
  -15   -6    5      0.11      0.00
  -14   -6    5     -1.86      0.00
  -13   -6    5     -2.96      0.00
  -12   -6    5     -0.85      0.00
  -11   -6    5      2.57      0.00
  -10   -6    5      3.73      0.00
   -9   -6    5      3.06      0.00
   -8   -6    5      2.50      0.00
   -7   -6    5      1.82      0.00
   -6   -6    5     -0.09      0.00
   -5   -6    5     -2.37      0.00
   -4   -6    5     -1.49      0.00
   -3   -6    5      3.25      0.00
   -2   -6    5      6.15      0.00
   -1   -6    5      2.37      0.00
    0   -6    5     -4.91      0.00
    1   -6    5     -7.93      0.00
    2   -6    5     -4.58      0.00
    3   -6    5     -1.05      0.00
    4   -6    5     -1.19      0.00
    5   -6    5     -1.97      0.00
    6   -6    5     -0.89      0.00
    7   -6    5      0.71      0.00
    8   -6    5      1.21      0.00
    9   -6    5      0.89      0.00
   10   -6    5      0.66      0.00
   11   -6    5      0.45      0.00
  -16   -5    5     -0.68      0.00
  -15   -5    5     -1.09      0.00
  -14   -5    5      0.52      0.00
  -13   -5    5      3.32      0.00
  -12   -5    5      3.87      0.00
  -11   -5    5      0.96      0.00
  -10   -5    5     -1.60      0.00
   -9   -5    5     -1.90      0.00
   -8   -5    5     -2.72      0.00
   -7   -5    5     -4.65      0.00
   -6   -5    5     -4.61      0.00
   -5   -5    5     -0.92      0.00
   -4   -5    5      2.92      0.00
   -3   -5    5      1.16      0.00
   -2   -5    5     -5.11      0.00
   -1   -5    5     -7.68      0.00
    0   -5    5     -2.60      0.00
    1   -5    5      4.29      0.00
    2   -5    5      5.48      0.00
    3   -5    5      2.27      0.00
    4   -5    5      1.12      0.00
    5   -5    5      2.58      0.00
    6   -5    5      2.61      0.00
    7   -5    5      0.55      0.00
    8   -5    5     -1.06      0.00
    9   -5    5     -1.03      0.00
   10   -5    5     -0.57      0.00
   11   -5    5     -0.60      0.00
   12   -5    5     -0.52      0.00
  -16   -4    5      0.32      0.00
  -15   -4    5      1.54      0.00
  -14   -4    5      1.23      0.00
  -13   -4    5     -1.44      0.00
  -12   -4    5     -4.11      0.00
  -11   -4    5     -3.64      0.00
  -10   -4    5     -1.42      0.00
   -9   -4    5     -1.07      0.00
   -8   -4    5     -0.78      0.00
   -7   -4    5      2.78      0.00
   -6   -4    5      6.95      0.00
   -5   -4    5      6.47      0.00
   -4   -4    5      0.83      0.00
   -3   -4    5     -3.26      0.00
   -2   -4    5      0.23      0.00
   -1   -4    5      6.80      0.00
    0   -4    5      7.40      0.00
    1   -4    5      1.77      0.00
    2   -4    5     -2.26      0.00
    3   -4    5     -0.86      0.00
    4   -4    5      1.02      0.00
    5   -4    5     -0.73      0.00
    6   -4    5     -3.01      0.00
    7   -4    5     -2.37      0.00
    8   -4    5     -0.05      0.00
    9   -4    5      1.06      0.00
   10   -4    5      0.40      0.00
   11   -4    5     -0.10      0.00
   12   -4    5      0.31      0.00
  -16   -3    5      0.10      0.00
  -15   -3    5     -1.31      0.00
  -14   -3    5     -2.26      0.00
  -13   -3    5     -0.66      0.00
  -12   -3    5      2.35      0.00
  -11   -3    5      3.70      0.00
  -10   -3    5      2.71      0.00
   -9   -3    5      2.91      0.00
   -8   -3    5      4.77      0.00
   -6   -3    5     -3.40      0.00
   -5   -3    5     -8.35      0.00
   -4   -3    5     -6.48      0.00
   -3   -3    5      0.06      0.00
   -2   -3    5      2.64      0.00
   -1   -3    5     -2.16      0.00
    0   -3    5     -6.60      0.00
    2   -3    5     -0.17      0.00
    3   -3    5     -0.67      0.00
    4   -3    5     -3.91      0.00
    5   -3    5     -3.46      0.00
    6   -3    5      0.57      0.00
    7   -3    5      2.99      0.00
    8   -3    5      1.92      0.00
    9   -3    5     -0.24      0.00
   10   -3    5     -0.62      0.00
   11   -3    5      0.50      0.00
   12   -3    5      0.61      0.00
   13   -3    5     -0.24      0.00
  -16   -2    5     -0.49      0.00
  -15   -2    5      0.38      0.00
  -14   -2    5      2.31      0.00
  -13   -2    5      2.15      0.00
  -12   -2    5     -0.44      0.00
  -11   -2    5     -2.47      0.00
  -10   -2    5     -1.91      0.00
   -9   -2    5     -1.58      0.00
   -8   -2    5     -5.01      0.00
   -7   -2    5     -7.75      0.00
   -6   -2    5     -3.69      0.00
   -5   -2    5      4.05      0.00
   -4   -2    5      7.77      0.00
   -3   -2    5      4.41      0.00
   -2   -2    5     -1.07      0.00
   -1   -2    5     -1.05      0.00
    0   -2    5      3.14      0.00
    1   -2    5      3.34      0.00
    2   -2    5     -0.87      0.00
    3   -2    5     -1.77      0.00
    4   -2    5      3.08      0.00
    5   -2    5      6.68      0.00
    6   -2    5      3.99      0.00
    7   -2    5     -0.96      0.00
    8   -2    5     -2.80      0.00
    9   -2    5     -1.26      0.00
   10   -2    5      0.50      0.00
   11   -2    5     -0.01      0.00
   12   -2    5     -1.05      0.00
   13   -2    5     -0.35      0.00
   14   -2    5      0.53      0.00
  -15   -1    5      0.66      0.00
  -14   -1    5     -1.25      0.00
  -13   -1    5     -2.78      0.00
  -12   -1    5     -1.33      0.00
  -11   -1    5      1.19      0.00
  -10   -1    5      1.14      0.00
   -9   -1    5     -1.00      0.00
   -8   -1    5      0.60      0.00
   -7   -1    5      6.69      0.00
   -6   -1    5      8.70      0.00
   -5   -1    5      2.99      0.00
   -4   -1    5     -3.66      0.00
   -3   -1    5     -4.83      0.00
   -2   -1    5     -1.08      0.00
   -1   -1    5      1.35      0.00
    1   -1    5     -2.19      0.00
    2   -1    5      2.17      0.00
    3   -1    5      6.48      0.00
    4   -1    5      3.42      0.00
    5   -1    5     -4.11      0.00
    6   -1    5     -6.91      0.00
    7   -1    5     -3.00      0.00
    8   -1    5      1.44      0.00
    9   -1    5      2.04      0.00
   10   -1    5      0.02      0.00
   11   -1    5     -0.77      0.00
   12   -1    5      0.58      0.00
   13   -1    5      0.80      0.00
   14   -1    5     -0.53      0.00
  -15    0    5     -0.99      0.00
  -14    0    5     -0.16      0.00
  -13    0    5      2.10      0.00
  -12    0    5      2.47      0.00
  -11    0    5      0.22      0.00
  -10    0    5     -1.15      0.00
   -9    0    5      1.30      0.00
   -8    0    5      3.81      0.00
   -7    0    5     -0.24      0.00
   -6    0    5     -7.25      0.00
   -5    0    5     -7.68      0.00
   -4    0    5     -2.08      0.00
    0    0    5      0.00      0.00
    1    0    5      2.90      0.00
    3    0    5     -7.32      0.00
    4    0    5    -10.06      0.00
    5    0    5     -4.00      0.00
    6    0    5      3.99      0.00
    7    0    5      5.44      0.00
    8    0    5      1.44      0.00
    9    0    5     -1.40      0.00
   10    0    5     -0.41      0.00
   11    0    5      1.39      0.00
   12    0    5      0.57      0.00
   13    0    5     -0.90      0.00
   14    0    5      0.06      0.00
   15    0    5      1.19      0.00
  -14    1    5      0.99      0.00
  -13    1    5     -0.67      0.00
  -12    1    5     -2.32      0.00
  -11    1    5     -1.29      0.00
  -10    1    5      1.06      0.00
   -9    1    5      0.58      0.00
   -8    1    5     -3.63      0.00
   -7    1    5     -5.16      0.00
   -6    1    5      0.46      0.00
   -5    1    5      6.32      0.00
   -4    1    5      5.46      0.00
   -2    1    5      1.07      0.00
   -1    1    5      3.14      0.00
    0    1    5      2.02      0.00
    1    1    5     -3.21      0.00
    2    1    5     -4.75      0.00
    3    1    5      1.84      0.00
    4    1    5      9.90      0.00
    5    1    5     10.47      0.00
    6    1    5      3.31      0.00
    7    1    5     -3.10      0.00
    8    1    5     -2.98      0.00
    9    1    5      0.14      0.00
   10    1    5      0.71      0.00
   11    1    5     -1.35      0.00
   12    1    5     -1.89      0.00
   13    1    5      0.20      0.00
   14    1    5      0.82      0.00
   15    1    5     -0.82      0.00
  -14    2    5     -1.11      0.00
  -13    2    5     -0.71      0.00
  -12    2    5      1.22      0.00
  -11    2    5      1.64      0.00
  -10    2    5     -0.53      0.00
   -9    2    5     -2.13      0.00
   -8    2    5      0.29      0.00
   -7    2    5      4.80      0.00
   -6    2    5      4.84      0.00
   -5    2    5     -0.36      0.00
   -4    2    5     -3.82      0.00
   -3    2    5     -2.73      0.00
   -2    2    5     -1.73      0.00
   -1    2    5     -3.89      0.00
    0    2    5     -4.95      0.00
    1    2    5      0.32      0.00
    4    2    5     -2.68      0.00
    5    2    5     -9.52      0.00
    6    2    5     -8.19      0.00
    7    2    5     -1.89      0.00
    8    2    5      1.43      0.00
    9    2    5     -0.01      0.00
   10    2    5     -1.37      0.00
   11    2    5      0.21      0.00
   12    2    5      2.16      0.00
   13    2    5      1.14      0.00
   14    2    5     -0.95      0.00
   15    2    5     -0.41      0.00
   16    2    5      1.01      0.00
  -13    3    5      1.46      0.00
  -12    3    5      0.32      0.00
  -11    3    5     -1.35      0.00
  -10    3    5     -0.41      0.00
   -9    3    5      2.11      0.00
   -8    3    5      2.27      0.00
   -7    3    5     -1.22      0.00
   -6    3    5     -4.56      0.00
   -5    3    5     -3.72      0.00
   -4    3    5     -0.66      0.00
   -3    3    5      0.37      0.00
   -2    3    5      0.21      0.00
    0    3    5      6.51      0.00
    1    3    5      4.86      0.00
    4    3    5     -6.04      0.00
    5    3    5      2.59      0.00
    6    3    5      6.92      0.00
    7    3    5      4.35      0.00
    8    3    5      0.58      0.00
    9    3    5      0.82      0.00
   10    3    5      2.61      0.00
   11    3    5      1.82      0.00
   12    3    5     -0.81      0.00
   13    3    5     -1.72      0.00
   14    3    5      0.04      0.00
   15    3    5      1.14      0.00
   16    3    5      0.05      0.00
  -13    4    5     -1.12      0.00
  -12    4    5     -1.45      0.00
  -11    4    5      0.21      0.00
  -10    4    5      1.14      0.00
   -9    4    5     -0.75      0.00
   -8    4    5     -2.63      0.00
   -7    4    5     -1.42      0.00
   -6    4    5      1.67      0.00
   -5    4    5      3.22      0.00
   -4    4    5      2.52      0.00
   -3    4    5      2.25      0.00
   -2    4    5      2.98      0.00
   -1    4    5      1.17      0.00
    0    4    5     -4.66      0.00
    2    4    5     -3.49      0.00
    4    4    5     10.15      0.00
    5    4    5      4.84      0.00
    6    4    5     -1.75      0.00
    7    4    5     -2.90      0.00
    8    4    5     -0.18      0.00
    9    4    5      0.07      0.00
   10    4    5     -2.81      0.00
   11    4    5     -3.78      0.00
   12    4    5     -1.45      0.00
   13    4    5      0.88      0.00
   14    4    5      0.68      0.00
   15    4    5     -0.81      0.00
   16    4    5     -0.87      0.00
  -12    5    5      1.39      0.00
  -11    5    5      1.04      0.00
  -10    5    5     -0.66      0.00
   -9    5    5     -0.61      0.00
   -8    5    5      1.42      0.00
   -7    5    5      2.12      0.00
   -6    5    5      0.44      0.00
   -5    5    5     -1.25      0.00
   -4    5    5     -1.30      0.00
   -3    5    5     -1.51      0.00
   -2    5    5     -3.84      0.00
   -1    5    5     -5.26      0.00
    0    5    5     -0.88      0.00
    1    5    5      7.11      0.00
    3    5    5      1.52      0.00
    4    5    5     -7.16      0.00
    5    5    5     -7.80      0.00
    6    5    5     -2.74      0.00
    7    5    5      0.27      0.00
    8    5    5     -1.45      0.00
    9    5    5     -2.96      0.00
   10    5    5      0.01      0.00
   11    5    5      3.70      0.00
   12    5    5      3.35      0.00
   13    5    5      0.64      0.00
   14    5    5     -0.66      0.00
   15    5    5      0.15      0.00
   16    5    5      0.94      0.00
  -11    6    5     -1.34      0.00
  -10    6    5     -0.42      0.00
   -9    6    5      0.76      0.00
   -8    6    5     -0.04      0.00
   -7    6    5     -1.46      0.00
   -6    6    5     -1.23      0.00
   -5    6    5      0.02      0.00
   -4    6    5      0.19      0.00
   -3    6    5     -0.52      0.00
   -2    6    5      0.98      0.00
    0    6    5      5.78      0.00
    1    6    5     -0.86      0.00
    2    6    5     -8.61      0.00
    3    6    5     -7.84      0.00
    4    6    5      0.15      0.00
    5    6    5      5.14      0.00
    6    6    5      3.30      0.00
    7    6    5      0.30      0.00
    8    6    5      1.41      0.00
    9    6    5      4.72      0.00
   10    6    5      4.22      0.00
   11    6    5     -0.50      0.00
   12    6    5     -3.35      0.00
   13    6    5     -1.94      0.00
   14    6    5      0.29      0.00
   15    6    5      0.55      0.00
   16    6    5     -0.43      0.00
   17    6    5     -0.63      0.00
  -11    7    5      0.89      0.00
  -10    7    5      0.91      0.00
   -9    7    5     -0.15      0.00
   -8    7    5     -0.53      0.00
   -7    7    5      0.43      0.00
   -6    7    5      1.01      0.00
   -5    7    5      0.46      0.00
   -4    7    5      0.04      0.00
   -3    7    5      0.99      0.00
   -2    7    5      1.67      0.00
   -1    7    5     -1.17      0.00
    0    7    5     -5.41      0.00
    1    7    5     -4.22      0.00
    2    7    5      3.07      0.00
    3    7    5      7.98      0.00
    4    7    5      4.78      0.00
    5    7    5     -0.70      0.00
    6    7    5     -0.98      0.00
    7    7    5      1.91      0.00
    8    7    5      1.65      0.00
    9    7    5     -2.80      0.00
   10    7    5     -6.12      0.00
   11    7    5     -3.80      0.00
   12    7    5      0.90      0.00
   13    7    5      2.17      0.00
   14    7    5      0.26      0.00
   15    7    5     -1.12      0.00
   16    7    5     -0.62      0.00
   17    7    5      0.29      0.00
  -10    8    5     -0.71      0.00
   -9    8    5     -0.24      0.00
   -8    8    5      0.52      0.00
   -7    8    5      0.26      0.00
   -6    8    5     -0.43      0.00
   -5    8    5     -0.40      0.00
   -4    8    5      0.04      0.00
   -3    8    5     -0.43      0.00
   -2    8    5     -1.97      0.00
   -1    8    5     -1.75      0.00
    0    8    5      1.89      0.00
    1    8    5      4.47      0.00
    2    8    5      1.33      0.00
    3    8    5     -4.16      0.00
    4    8    5     -4.84      0.00
    5    8    5     -0.93      0.00
    6    8    5      0.21      0.00
    7    8    5     -3.46      0.00
    8    8    5     -5.79      0.00
    9    8    5     -2.41      0.00
   10    8    5      3.66      0.00
   11    8    5      5.85      0.00
   12    8    5      2.50      0.00
   13    8    5     -0.95      0.00
   14    8    5     -0.73      0.00
   15    8    5      1.01      0.00
   16    8    5      1.50      0.00
   17    8    5      0.63      0.00
   -9    9    5      0.33      0.00
   -8    9    5     -0.33      0.00
   -7    9    5     -0.62      0.00
   -6    9    5     -0.10      0.00
   -5    9    5      0.21      0.00
   -4    9    5     -0.13      0.00
   -3    9    5     -0.21      0.00
   -2    9    5      1.04      0.00
   -1    9    5      2.28      0.00
    0    9    5      0.57      0.00
    1    9    5     -2.69      0.00
    2    9    5     -2.56      0.00
    3    9    5      1.16      0.00
    4    9    5      2.94      0.00
    5    9    5     -0.02      0.00
    6    9    5     -2.60      0.00
    7    9    5      0.65      0.00
    8    9    5      6.36      0.00
    9    9    5      7.26      0.00
   10    9    5      1.98      0.00
   11    9    5     -3.82      0.00
   12    9    5     -4.32      0.00
   13    9    5     -0.96      0.00
   14    9    5      0.69      0.00
   15    9    5     -0.33      0.00
   16    9    5     -1.38      0.00
   17    9    5     -1.21      0.00
   -8   10    5      0.02      0.00
   -7   10    5      0.59      0.00
   -6   10    5      0.55      0.00
   -5   10    5      0.09      0.00
   -4   10    5      0.09      0.00
   -3   10    5      0.47      0.00
   -2   10    5      0.00      0.00
   -1   10    5     -1.55      0.00
    0   10    5     -1.45      0.00
    1   10    5      1.44      0.00
    2   10    5      3.00      0.00
    3   10    5      0.52      0.00
    4   10    5     -2.08      0.00
    5   10    5     -0.03      0.00
    6   10    5      4.57      0.00
    7   10    5      4.64      0.00
    8   10    5     -1.54      0.00
    9   10    5     -7.34      0.00
   10   10    5     -6.72      0.00
   11   10    5     -1.07      0.00
   12   10    5      3.00      0.00
   13   10    5      1.99      0.00
   14   10    5     -0.33      0.00
   15   10    5     -0.33      0.00
   16   10    5      0.66      0.00
   17   10    5      0.95      0.00
   -7   11    5     -0.23      0.00
   -6   11    5     -0.58      0.00
   -5   11    5     -0.46      0.00
   -4   11    5     -0.24      0.00
   -3   11    5     -0.39      0.00
   -2   11    5     -0.45      0.00
   -1   11    5      0.57      0.00
    0   11    5      1.52      0.00
    1   11    5     -0.26      0.00
    2   11    5     -3.07      0.00
    3   11    5     -2.32      0.00
    4   11    5      1.23      0.00
    5   11    5      1.87      0.00
    6   11    5     -2.62      0.00
    7   11    5     -6.87      0.00
    8   11    5     -4.61      0.00
    9   11    5      2.42      0.00
   10   11    5      6.84      0.00
   11   11    5      4.97      0.00
   12   11    5      0.29      0.00
   13   11    5     -1.42      0.00
   14   11    5      0.15      0.00
   15   11    5      0.88      0.00
   16   11    5      0.02      0.00
   17   11    5     -0.51      0.00
   -6   12    5      0.30      0.00
   -5   12    5      0.42      0.00
   -4   12    5      0.41      0.00
   -3   12    5      0.44      0.00
   -2   12    5      0.48      0.00
   -1   12    5     -0.06      0.00
    0   12    5     -1.23      0.00
    1   12    5     -0.92      0.00
    2   12    5      1.79      0.00
    3   12    5      3.25      0.00
    4   12    5      0.64      0.00
    5   12    5     -2.69      0.00
    6   12    5     -1.52      0.00
    7   12    5      3.77      0.00
    8   12    5      6.70      0.00
    9   12    5      3.19      0.00
   10   12    5     -2.80      0.00
   11   12    5     -5.06      0.00
   12   12    5     -2.60      0.00
   13   12    5      0.19      0.00
   14   12    5     -0.01      0.00
   15   12    5     -1.10      0.00
   16   12    5     -0.61      0.00
   -4   13    5     -0.23      0.00
   -3   13    5     -0.38      0.00
   -2   13    5     -0.53      0.00
   -1   13    5     -0.21      0.00
    0   13    5      0.84      0.00
    1   13    5      1.56      0.00
    2   13    5      0.10      0.00
    3   13    5     -2.36      0.00
    4   13    5     -2.08      0.00
    5   13    5      1.32      0.00
    6   13    5      3.59      0.00
    7   13    5      1.13      0.00
    8   13    5     -3.80      0.00
    9   13    5     -5.24      0.00
   10   13    5     -1.71      0.00
   11   13    5      2.12      0.00
   12   13    5      2.39      0.00
   13   13    5      0.34      0.00
   14   13    5     -0.42      0.00
   15   13    5      0.56      0.00
   16   13    5      0.82      0.00
   -3   14    5      0.13      0.00
   -2   14    5      0.36      0.00
   -1   14    5      0.43      0.00
    0   14    5     -0.24      0.00
    1   14    5     -1.40      0.00
    2   14    5     -1.38      0.00
    3   14    5      0.60      0.00
    4   14    5      2.08      0.00
    5   14    5      0.52      0.00
    6   14    5     -2.65      0.00
    7   14    5     -3.53      0.00
    8   14    5     -0.42      0.00
    9   14    5      3.33      0.00
   10   14    5      3.49      0.00
   11   14    5      0.85      0.00
   12   14    5     -0.73      0.00
   13   14    5     -0.02      0.00
   14   14    5      0.92      0.00
   15   14    5      0.43      0.00
   -1   15    5     -0.33      0.00
    0   15    5     -0.25      0.00
    1   15    5      0.60      0.00
    2   15    5      1.53      0.00
    3   15    5      0.85      0.00
    4   15    5     -1.05      0.00
    5   15    5     -1.45      0.00
    6   15    5      0.68      0.00
    7   15    5      2.97      0.00
    8   15    5      2.59      0.00
    9   15    5     -0.28      0.00
   10   15    5     -2.33      0.00
   11   15    5     -1.73      0.00
   12   15    5     -0.39      0.00
   13   15    5     -0.32      0.00
   14   15    5     -0.98      0.00
   15   15    5     -0.97      0.00
    1   16    5      0.07      0.00
    2   16    5     -0.81      0.00
    3   16    5     -1.34      0.00
    4   16    5     -0.25      0.00
    5   16    5      1.22      0.00
    6   16    5      0.80      0.00
    7   16    5     -1.23      0.00
    8   16    5     -2.44      0.00
    9   16    5     -1.44      0.00
   10   16    5      0.40      0.00
   11   16    5      0.92      0.00
   12   16    5      0.28      0.00
   13   16    5      0.10      0.00
   14   16    5      0.55      0.00
    3   17    5      0.79      0.00
    4   17    5      0.90      0.00
    5   17    5     -0.26      0.00
    6   17    5     -1.14      0.00
    7   17    5     -0.35      0.00
    8   17    5      1.11      0.00
    9   17    5      1.49      0.00
   10   17    5      0.63      0.00
   11   17    5     -0.04      0.00
   12   17    5      0.18      0.00
   -9  -17    6     -0.27      0.00
   -8  -17    6     -0.84      0.00
   -7  -17    6     -0.80      0.00
   -6  -17    6     -0.44      0.00
  -12  -16    6      0.50      0.00
  -11  -16    6      0.33      0.00
  -10  -16    6     -0.25      0.00
   -9  -16    6     -0.14      0.00
   -8  -16    6      0.67      0.00
   -7  -16    6      1.02      0.00
   -6  -16    6      0.69      0.00
   -5  -16    6      0.33      0.00
   -4  -16    6      0.25      0.00
   -3  -16    6      0.39      0.00
   -2  -16    6      0.47      0.00
  -14  -15    6      0.25      0.00
  -13  -15    6      0.26      0.00
  -12  -15    6      0.06      0.00
  -11  -15    6     -0.12      0.00
  -10  -15    6      0.21      0.00
   -9  -15    6      0.50      0.00
   -8  -15    6     -0.03      0.00
   -7  -15    6     -0.82      0.00
   -6  -15    6     -0.78      0.00
   -5  -15    6     -0.13      0.00
   -4  -15    6      0.14      0.00
   -3  -15    6     -0.30      0.00
   -2  -15    6     -1.02      0.00
   -1  -15    6     -1.21      0.00
    0  -15    6     -0.52      0.00
  -15  -14    6     -0.37      0.00
  -14  -14    6     -0.38      0.00
  -13  -14    6     -0.41      0.00
  -12  -14    6     -0.51      0.00
  -11  -14    6     -0.67      0.00
  -10  -14    6     -0.91      0.00
   -9  -14    6     -1.06      0.00
   -8  -14    6     -0.76      0.00
   -7  -14    6      0.13      0.00
   -6  -14    6      0.71      0.00
   -5  -14    6      0.10      0.00
   -4  -14    6     -0.90      0.00
   -3  -14    6     -0.92      0.00
   -2  -14    6      0.34      0.00
   -1  -14    6      1.82      0.00
    0  -14    6      2.00      0.00
    1  -14    6      0.79      0.00
    2  -14    6     -0.25      0.00
  -15  -13    6      0.34      0.00
  -14  -13    6      0.40      0.00
  -13  -13    6      0.18      0.00
  -12  -13    6     -0.01      0.00
  -11  -13    6      0.31      0.00
  -10  -13    6      1.26      0.00
   -9  -13    6      1.91      0.00
   -8  -13    6      1.73      0.00
   -7  -13    6      0.81      0.00
   -6  -13    6     -0.40      0.00
   -5  -13    6     -0.53      0.00
   -4  -13    6      0.89      0.00
   -3  -13    6      2.26      0.00
   -2  -13    6      1.86      0.00
   -1  -13    6     -0.36      0.00
    0  -13    6     -2.42      0.00
    1  -13    6     -2.28      0.00
    2  -13    6     -0.67      0.00
    3  -13    6      0.18      0.00
  -16  -12    6      0.30      0.00
  -15  -12    6     -0.14      0.00
  -14  -12    6     -0.21      0.00
  -13  -12    6      0.25      0.00
  -12  -12    6      1.03      0.00
  -11  -12    6      1.55      0.00
  -10  -12    6      0.62      0.00
   -9  -12    6     -1.26      0.00
   -8  -12    6     -2.36      0.00
   -7  -12    6     -2.03      0.00
   -6  -12    6     -0.42      0.00
   -5  -12    6      1.05      0.00
   -4  -12    6      0.35      0.00
   -3  -12    6     -2.08      0.00
   -2  -12    6     -3.71      0.00
   -1  -12    6     -2.73      0.00
    0  -12    6      0.26      0.00
    1  -12    6      2.30      0.00
    2  -12    6      1.71      0.00
    3  -12    6      0.27      0.00
    4  -12    6     -0.09      0.00
    5  -12    6      0.22      0.00
  -16  -11    6     -0.50      0.00
  -15  -11    6     -0.12      0.00
  -14  -11    6      0.12      0.00
  -13  -11    6     -0.42      0.00
  -12  -11    6     -1.60      0.00
  -11  -11    6     -3.15      0.00
  -10  -11    6     -3.68      0.00
   -9  -11    6     -1.89      0.00
   -8  -11    6      0.85      0.00
   -7  -11    6      2.57      0.00
   -6  -11    6      2.08      0.00
   -5  -11    6     -0.44      0.00
   -4  -11    6     -1.92      0.00
   -3  -11    6     -0.10      0.00
   -2  -11    6      3.19      0.00
   -1  -11    6      4.79      0.00
    0  -11    6      3.19      0.00
    1  -11    6      0.03      0.00
    2  -11    6     -1.43      0.00
    3  -11    6     -0.67      0.00
    4  -11    6      0.17      0.00
    5  -11    6      0.06      0.00
    6  -11    6     -0.25      0.00
  -16  -10    6      0.50      0.00
  -15  -10    6      0.24      0.00
  -14  -10    6     -0.41      0.00
  -13  -10    6     -0.35      0.00
  -12  -10    6      0.77      0.00
  -11  -10    6      2.82      0.00
  -10  -10    6      5.02      0.00
   -9  -10    6      5.19      0.00
   -8  -10    6      2.73      0.00
   -7  -10    6     -0.69      0.00
   -6  -10    6     -2.97      0.00
   -5  -10    6     -1.89      0.00
   -4  -10    6      1.52      0.00
   -3  -10    6      2.68      0.00
   -2  -10    6      0.00      0.00
   -1  -10    6     -3.65      0.00
    0  -10    6     -4.93      0.00
    1  -10    6     -2.96      0.00
    2  -10    6     -0.33      0.00
    3  -10    6      0.36      0.00
    4  -10    6     -0.30      0.00
    5  -10    6     -0.60      0.00
    6  -10    6     -0.17      0.00
    7  -10    6      0.21      0.00
  -16   -9    6     -0.33      0.00
  -15   -9    6     -0.34      0.00
  -14   -9    6      0.56      0.00
  -13   -9    6      1.59      0.00
  -12   -9    6      1.38      0.00
  -11   -9    6     -0.34      0.00
  -10   -9    6     -3.26      0.00
   -9   -9    6     -5.67      0.00
   -8   -9    6     -5.50      0.00
   -7   -9    6     -2.85      0.00
   -6   -9    6      0.96      0.00
   -5   -9    6      3.28      0.00
   -4   -9    6      1.41      0.00
   -3   -9    6     -2.35      0.00
   -2   -9    6     -3.24      0.00
   -1   -9    6     -0.45      0.00
    0   -9    6      3.03      0.00
    1   -9    6      3.86      0.00
    2   -9    6      1.94      0.00
    3   -9    6      0.30      0.00
    4   -9    6      0.36      0.00
    5   -9    6      0.96      0.00
    6   -9    6      0.94      0.00
    7   -9    6      0.30      0.00
    8   -9    6     -0.09      0.00
  -16   -8    6     -0.03      0.00
  -15   -8    6      0.57      0.00
  -14   -8    6      0.24      0.00
  -13   -8    6     -1.53      0.00
  -12   -8    6     -3.07      0.00
  -11   -8    6     -2.73      0.00
  -10   -8    6     -0.47      0.00
   -9   -8    6      2.74      0.00
   -8   -8    6      4.94      0.00
   -7   -8    6      4.88      0.00
   -6   -8    6      2.58      0.00
   -5   -8    6     -1.15      0.00
   -4   -8    6     -3.12      0.00
   -3   -8    6     -0.96      0.00
   -2   -8    6      2.68      0.00
   -1   -8    6      3.78      0.00
    0   -8    6      1.42      0.00
    1   -8    6     -1.55      0.00
    2   -8    6     -1.80      0.00
    3   -8    6     -0.24      0.00
    4   -8    6      0.20      0.00
    5   -8    6     -0.64      0.00
    6   -8    6     -1.26      0.00
    7   -8    6     -0.96      0.00
    8   -8    6     -0.31      0.00
    9   -8    6     -0.12      0.00
  -16   -7    6      0.57      0.00
  -15   -7    6     -0.40      0.00
  -14   -7    6     -1.49      0.00
  -13   -7    6     -0.64      0.00
  -12   -7    6      2.17      0.00
  -11   -7    6      4.03      0.00
  -10   -7    6      3.49      0.00
   -9   -7    6      1.39      0.00
   -8   -7    6     -1.12      0.00
   -7   -7    6     -3.07      0.00
   -6   -7    6     -3.82      0.00
   -5   -7    6     -2.38      0.00
   -4   -7    6      0.91      0.00
   -3   -7    6      2.73      0.00
   -2   -7    6      0.84      0.00
   -1   -7    6     -2.73      0.00
    0   -7    6     -4.15      0.00
    1   -7    6     -2.17      0.00
    2   -7    6     -0.13      0.00
    3   -7    6     -0.73      0.00
    4   -7    6     -1.67      0.00
    5   -7    6     -0.76      0.00
    6   -7    6      0.74      0.00
    7   -7    6      1.14      0.00
    8   -7    6      0.59      0.00
    9   -7    6      0.30      0.00
   10   -7    6      0.39      0.00
  -16   -6    6     -0.82      0.00
  -15   -6    6     -0.35      0.00
  -14   -6    6      1.53      0.00
  -13   -6    6      2.94      0.00
  -12   -6    6      1.15      0.00
  -11   -6    6     -2.30      0.00
  -10   -6    6     -3.81      0.00
   -9   -6    6     -3.43      0.00
   -8   -6    6     -2.75      0.00
   -7   -6    6     -1.65      0.00
   -6   -6    6      0.56      0.00
   -5   -6    6      2.84      0.00
   -4   -6    6      2.49      0.00
   -3   -6    6     -0.59      0.00
   -2   -6    6     -2.53      0.00
   -1   -6    6     -0.72      0.00
    0   -6    6      2.68      0.00
    1   -6    6      3.54      0.00
    2   -6    6      1.78      0.00
    3   -6    6      1.37      0.00
    4   -6    6      2.90      0.00
    5   -6    6      2.93      0.00
    6   -6    6      0.83      0.00
    7   -6    6     -0.84      0.00
    8   -6    6     -0.72      0.00
    9   -6    6     -0.13      0.00
   10   -6    6     -0.34      0.00
   11   -6    6     -0.62      0.00
  -16   -5    6      0.72      0.00
  -15   -5    6      1.02      0.00
  -14   -5    6     -0.24      0.00
  -13   -5    6     -2.89      0.00
  -12   -5    6     -3.82      0.00
  -11   -5    6     -1.21      0.00
  -10   -5    6      1.53      0.00
   -9   -5    6      2.12      0.00
   -8   -5    6      2.87      0.00
   -7   -5    6      4.65      0.00
   -6   -5    6      4.85      0.00
   -5   -5    6      1.61      0.00
   -3   -5    6     -2.43      0.00
   -2   -5    6      0.83      0.00
   -1   -5    6      2.28      0.00
    0   -5    6      0.12      0.00
    1   -5    6     -1.99      0.00
    2   -5    6     -1.14      0.00
    3   -5    6     -0.03      0.00
    4   -5    6     -1.81      0.00
    5   -5    6     -3.88      0.00
    6   -5    6     -2.94      0.00
    7   -5    6     -0.35      0.00
    8   -5    6      0.86      0.00
    9   -5    6      0.22      0.00
   10   -5    6     -0.23      0.00
   11   -5    6      0.34      0.00
   12   -5    6      0.70      0.00
  -16   -4    6     -0.59      0.00
  -15   -4    6     -1.41      0.00
  -14   -4    6     -1.03      0.00
  -13   -4    6      1.20      0.00
  -12   -4    6      3.73      0.00
  -11   -4    6      3.51      0.00
  -10   -4    6      1.28      0.00
   -9   -4    6      0.78      0.00
   -8   -4    6      0.81      0.00
   -7   -4    6     -2.15      0.00
   -6   -4    6     -6.50      0.00
   -5   -4    6     -7.15      0.00
   -4   -4    6     -2.56      0.00
   -3   -4    6      1.97      0.00
   -2   -4    6      1.31      0.00
   -1   -4    6     -1.51      0.00
    0   -4    6     -1.18      0.00
    1   -4    6      0.89      0.00
    2   -4    6      0.12      0.00
    3   -4    6     -2.62      0.00
    4   -4    6     -2.18      0.00
    5   -4    6      1.55      0.00
    6   -4    6      3.53      0.00
    7   -4    6      2.04      0.00
    8   -4    6     -0.19      0.00
    9   -4    6     -0.64      0.00
   10   -4    6      0.33      0.00
   11   -4    6      0.56      0.00
   12   -4    6     -0.25      0.00
  -16   -3    6      0.18      0.00
  -15   -3    6      1.42      0.00
  -14   -3    6      1.89      0.00
  -13   -3    6      0.34      0.00
  -12   -3    6     -2.30      0.00
  -11   -3    6     -3.52      0.00
  -10   -3    6     -2.35      0.00
   -9   -3    6     -2.24      0.00
   -8   -3    6     -4.40      0.00
   -7   -3    6     -3.86      0.00
   -6   -3    6      1.73      0.00
   -5   -3    6      7.50      0.00
   -4   -3    6      7.54      0.00
   -3   -3    6      2.49      0.00
   -2   -3    6     -0.63      0.00
   -1   -3    6      0.81      0.00
    0   -3    6      1.33      0.00
    1   -3    6     -1.38      0.00
    2   -3    6     -1.98      0.00
    3   -3    6      2.35      0.00
    4   -3    6      5.88      0.00
    5   -3    6      3.48      0.00
    6   -3    6     -1.10      0.00
    7   -3    6     -2.51      0.00
    8   -3    6     -1.03      0.00
    9   -3    6      0.44      0.00
   10   -3    6      0.15      0.00
   11   -3    6     -0.92      0.00
   12   -3    6     -0.70      0.00
   13   -3    6      0.28      0.00
  -15   -2    6     -0.61      0.00
  -14   -2    6     -2.15      0.00
  -13   -2    6     -1.60      0.00
  -12   -2    6      0.90      0.00
  -11   -2    6      2.77      0.00
  -10   -2    6      1.96      0.00
   -9   -2    6      0.95      0.00
   -8   -2    6      3.94      0.00
   -7   -2    6      7.63      0.00
   -6   -2    6      5.37      0.00
   -4   -2    6     -6.94      0.00
   -1   -2    6     -1.76      0.00
    0   -2    6     -2.34      0.00
    1   -2    6      0.98      0.00
    2   -2    6      5.15      0.00
    3   -2    6      3.01      0.00
    4   -2    6     -3.99      0.00
    5   -2    6     -6.90      0.00
    6   -2    6     -3.18      0.00
    7   -2    6      0.88      0.00
    8   -2    6      1.44      0.00
    9   -2    6      0.11      0.00
   10   -2    6     -0.54      0.00
   11   -2    6      0.47      0.00
   12   -2    6      1.23      0.00
   13   -2    6      0.29      0.00
  -15   -1    6     -0.48      0.00
  -14   -1    6      1.41      0.00
  -13   -1    6      2.44      0.00
  -12   -1    6      0.73      0.00
  -11   -1    6     -1.82      0.00
  -10   -1    6     -1.84      0.00
   -9   -1    6      0.73      0.00
   -8   -1    6      0.26      0.00
   -7   -1    6     -5.36      0.00
   -6   -1    6     -8.71      0.00
   -5   -1    6     -4.88      0.00
   -4   -1    6      1.52      0.00
   -2   -1    6      3.33      0.00
   -1   -1    6      2.83      0.00
    0   -1    6      4.09      0.00
    1   -1    6      1.86      0.00
    2   -1    6     -5.00      0.00
    3   -1    6     -8.69      0.00
    4   -1    6     -3.70      0.00
    5   -1    6      4.03      0.00
    6   -1    6      5.54      0.00
    7   -1    6      1.74      0.00
    8   -1    6     -0.82      0.00
    9   -1    6     -0.29      0.00
   10   -1    6      0.98      0.00
   11   -1    6      0.58      0.00
   12   -1    6     -0.98      0.00
   13   -1    6     -0.84      0.00
   14   -1    6      0.53      0.00
  -15    0    6      0.84      0.00
  -14    0    6     -0.26      0.00
  -13    0    6     -2.27      0.00
  -12    0    6     -2.13      0.00
  -11    0    6      0.31      0.00
  -10    0    6      1.89      0.00
   -9    0    6     -0.31      0.00
   -8    0    6     -3.38      0.00
   -7    0    6     -0.77      0.00
   -6    0    6      5.62      0.00
   -5    0    6      7.44      0.00
   -1    0    6     -0.98      0.00
    0    0    6     -4.15      0.00
    1    0    6     -5.53      0.00
    2    0    6      0.13      0.00
    3    0    6      8.49      0.00
    4    0    6     10.17      0.00
    5    0    6      3.57      0.00
    6    0    6     -2.85      0.00
    7    0    6     -2.84      0.00
    8    0    6      0.04      0.00
    9    0    6      0.59      0.00
   10    0    6     -1.13      0.00
   11    0    6     -2.00      0.00
   12    0    6     -0.34      0.00
   13    0    6      1.07      0.00
   14    0    6     -0.08      0.00
   15    0    6     -1.09      0.00
  -14    1    6     -0.58      0.00
  -13    1    6      1.23      0.00
  -12    1    6      2.53      0.00
  -11    1    6      1.11      0.00
  -10    1    6     -1.36      0.00
   -9    1    6     -1.23      0.00
   -8    1    6      2.48      0.00
   -7    1    6      4.52      0.00
   -6    1    6      0.61      0.00
   -4    1    6     -4.96      0.00
   -3    1    6     -3.35      0.00
   -2    1    6     -3.28      0.00
   -1    1    6     -3.39      0.00
    0    1    6      0.46      0.00
    1    1    6      6.39      0.00
    2    1    6      6.22      0.00
    3    1    6     -1.87      0.00
    4    1    6     -9.38      0.00
    5    1    6     -8.77      0.00
    6    1    6     -2.52      0.00
    7    1    6      1.09      0.00
    8    1    6     -0.25      0.00
    9    1    6     -1.63      0.00
   10    1    6     -0.06      0.00
   11    1    6      2.38      0.00
   12    1    6      2.19      0.00
   13    1    6     -0.20      0.00
   14    1    6     -0.68      0.00
   15    1    6      0.83      0.00
  -14    2    6      0.91      0.00
  -13    2    6      0.25      0.00
  -12    2    6     -1.78      0.00
  -11    2    6     -1.93      0.00
  -10    2    6      0.41      0.00
   -9    2    6      2.03      0.00
   -8    2    6      0.13      0.00
   -7    2    6     -3.51      0.00
   -6    2    6     -3.90      0.00
   -5    2    6     -0.64      0.00
   -4    2    6      1.80      0.00
   -3    2    6      2.40      0.00
   -2    2    6      3.91      0.00
    0    2    6      5.25      0.00
    1    2    6     -2.23      0.00
    2    2    6     -8.89      0.00
    3    2    6     -6.35      0.00
    4    2    6      2.29      0.00
    5    2    6      7.37      0.00
    6    2    6      5.17      0.00
    7    2    6      1.04      0.00
    8    2    6      0.95      0.00
    9    2    6      3.12      0.00
   10    2    6      2.65      0.00
   11    2    6     -0.54      0.00
   12    2    6     -2.66      0.00
   13    2    6     -1.34      0.00
   14    2    6      0.65      0.00
   15    2    6      0.11      0.00
  -13    3    6     -1.32      0.00
  -12    3    6      0.07      0.00
  -11    3    6      1.83      0.00
  -10    3    6      0.81      0.00
   -9    3    6     -1.63      0.00
   -8    3    6     -1.74      0.00
   -7    3    6      0.96      0.00
   -6    3    6      3.11      0.00
   -5    3    6      2.60      0.00
   -4    3    6      1.55      0.00
   -3    3    6      1.37      0.00
   -2    3    6     -0.31      0.00
   -1    3    6     -4.92      0.00
    0    3    6     -8.54      0.00
    1    3    6     -4.73      0.00
    2    3    6      5.05      0.00
    3    3    6     10.16      0.00
    4    3    6      5.67      0.00
    5    3    6     -1.50      0.00
    6    3    6     -3.46      0.00
    7    3    6     -0.70      0.00
    8    3    6      0.22      0.00
    9    3    6     -2.95      0.00
   10    3    6     -5.06      0.00
   11    3    6     -2.84      0.00
   12    3    6      0.78      0.00
   13    3    6      1.76      0.00
   14    3    6      0.09      0.00
   15    3    6     -0.73      0.00
   16    3    6      0.23      0.00
  -13    4    6      1.17      0.00
  -12    4    6      1.35      0.00
  -11    4    6     -0.52      0.00
  -10    4    6     -1.54      0.00
   -9    4    6      0.25      0.00
   -8    4    6      1.88      0.00
   -7    4    6      0.69      0.00
   -6    4    6     -1.45      0.00
   -5    4    6     -1.84      0.00
   -4    4    6     -1.63      0.00
   -3    4    6     -3.07      0.00
   -2    4    6     -4.16      0.00
   -1    4    6     -0.83      0.00
    0    4    6      6.08      0.00
    3    4    6     -6.87      0.00
    4    4    6     -9.02      0.00
    5    4    6     -4.00      0.00
    6    4    6      0.01      0.00
    7    4    6     -1.16      0.00
    8    4    6     -3.33      0.00
    9    4    6     -0.73      0.00
   10    4    6      4.39      0.00
   11    4    6      5.54      0.00
   12    4    6      2.35      0.00
   13    4    6     -0.48      0.00
   14    4    6     -0.38      0.00
   15    4    6      0.78      0.00
   16    4    6      0.53      0.00
  -12    5    6     -1.38      0.00
  -11    5    6     -0.89      0.00
  -10    5    6      0.89      0.00
   -9    5    6      0.91      0.00
   -8    5    6     -0.91      0.00
   -7    5    6     -1.34      0.00
   -6    5    6      0.21      0.00
   -5    5    6      1.06      0.00
   -4    5    6      0.46      0.00
   -3    5    6      1.25      0.00
   -1    5    6      5.65      0.00
    0    5    6      0.55      0.00
    1    5    6     -6.99      0.00
    2    5    6     -7.78      0.00
    4    5    6      6.26      0.00
    5    5    6      5.32      0.00
    6    5    6      1.62      0.00
    7    5    6      1.71      0.00
    8    5    6      5.19      0.00
    9    5    6      5.69      0.00
   10    5    6      0.38      0.00
   11    5    6     -4.84      0.00
   12    5    6     -4.65      0.00
   13    5    6     -1.50      0.00
   14    5    6      0.04      0.00
   15    5    6     -0.58      0.00
   16    5    6     -0.95      0.00
  -11    6    6      1.22      0.00
  -10    6    6      0.31      0.00
   -9    6    6     -0.79      0.00
   -8    6    6     -0.09      0.00
   -7    6    6      1.05      0.00
   -6    6    6      0.62      0.00
   -5    6    6     -0.46      0.00
   -4    6    6     -0.21      0.00
   -3    6    6      0.51      0.00
   -2    6    6     -1.37      0.00
   -1    6    6     -5.17      0.00
    0    6    6     -5.12      0.00
    1    6    6      1.13      0.00
    2    6    6      6.93      0.00
    3    6    6      4.93      0.00
    4    6    6     -1.32      0.00
    5    6    6     -3.01      0.00
    6    6    6      0.00      0.00
    7    6    6      0.91      0.00
    8    6    6     -3.10      0.00
    9    6    6     -7.44      0.00
   10    6    6     -5.88      0.00
   11    6    6      0.42      0.00
   12    6    6      4.17      0.00
   13    6    6      2.85      0.00
   14    6    6      0.42      0.00
   15    6    6      0.01      0.00
   16    6    6      0.73      0.00
  -10    7    6     -0.80      0.00
   -9    7    6      0.07      0.00
   -8    7    6      0.31      0.00
   -7    7    6     -0.46      0.00
   -6    7    6     -0.72      0.00
   -5    7    6     -0.06      0.00
   -4    7    6      0.22      0.00
   -3    7    6     -0.70      0.00
   -2    7    6     -0.89      0.00
   -1    7    6      1.85      0.00
    0    7    6      4.70      0.00
    1    7    6      2.56      0.00
    2    7    6     -3.21      0.00
    3    7    6     -5.20      0.00
    4    7    6     -1.28      0.00
    5    7    6      1.38      0.00
    6    7    6     -1.76      0.00
    7    7    6     -5.19      0.00
    8    7    6     -2.79      0.00
    9    7    6      3.84      0.00
   10    7    6      7.65      0.00
   11    7    6      4.60      0.00
   12    7    6     -0.86      0.00
   13    7    6     -2.52      0.00
   14    7    6     -0.72      0.00
   15    7    6      0.67      0.00
   16    7    6      0.27      0.00
   17    7    6     -0.38      0.00
  -10    8    6      0.58      0.00
   -9    8    6      0.27      0.00
   -8    8    6     -0.21      0.00
   -7    8    6      0.11      0.00
   -6    8    6      0.55      0.00
   -5    8    6      0.23      0.00
   -4    8    6     -0.20      0.00
   -3    8    6      0.36      0.00
   -2    8    6      1.45      0.00
   -1    8    6      0.51      0.00
    0    8    6     -2.49      0.00
    1    8    6     -3.01      0.00
    2    8    6      0.85      0.00
    3    8    6      4.02      0.00
    4    8    6      1.68      0.00
    5    8    6     -2.27      0.00
    6    8    6     -0.37      0.00
    7    8    6      6.01      0.00
    8    8    6      8.38      0.00
    9    8    6      3.31      0.00
   10    8    6     -4.09      0.00
   11    8    6     -6.49      0.00
   12    8    6     -2.94      0.00
   13    8    6      0.59      0.00
   14    8    6      0.51      0.00
   15    8    6     -0.95      0.00
   16    8    6     -1.22      0.00
   17    8    6     -0.41      0.00
   -9    9    6     -0.25      0.00
   -8    9    6      0.17      0.00
   -7    9    6      0.20      0.00
   -6    9    6     -0.31      0.00
   -5    9    6     -0.41      0.00
   -4    9    6      0.07      0.00
   -3    9    6      0.05      0.00
   -2    9    6     -1.16      0.00
   -1    9    6     -1.60      0.00
    0    9    6      0.83      0.00
    1    9    6      3.03      0.00
    2    9    6      0.80      0.00
    3    9    6     -3.19      0.00
    4    9    6     -2.55      0.00
    5    9    6      2.77      0.00
    6    9    6      4.87      0.00
    7    9    6     -0.82      0.00
    8    9    6     -8.15      0.00
    9    9    6     -8.79      0.00
   10    9    6     -2.48      0.00
   11    9    6      3.88      0.00
   12    9    6      4.47      0.00
   13    9    6      1.36      0.00
   14    9    6      0.00      0.00
   15    9    6      0.87      0.00
   16    9    6      1.43      0.00
   17    9    6      0.93      0.00
   -8   10    6     -0.08      0.00
   -7   10    6     -0.38      0.00
   -6   10    6     -0.13      0.00
   -5   10    6      0.32      0.00
   -4   10    6      0.25      0.00
   -3   10    6     -0.10      0.00
   -2   10    6      0.47      0.00
   -1   10    6      1.68      0.00
    0   10    6      0.55      0.00
    1   10    6     -2.78      0.00
    2   10    6     -3.08      0.00
    3   10    6      1.08      0.00
    4   10    6      3.54      0.00
    5   10    6     -0.45      0.00
    6   10    6     -6.41      0.00
    7   10    6     -5.84      0.00
    8   10    6      1.78      0.00
    9   10    6      8.15      0.00
   10   10    6      7.17      0.00
   11   10    6      1.19      0.00
   12   10    6     -2.80      0.00
   13   10    6     -1.84      0.00
   14   10    6      0.01      0.00
   15   10    6     -0.31      0.00
   16   10    6     -1.11      0.00
   17   10    6     -0.92      0.00
   -7   11    6      0.30      0.00
   -6   11    6      0.40      0.00
   -5   11    6      0.12      0.00
   -4   11    6     -0.13      0.00
   -3   11    6     -0.04      0.00
   -2   11    6     -0.12      0.00
   -1   11    6     -1.12      0.00
    0   11    6     -1.39      0.00
    1   11    6      1.35      0.00
    2   11    6      4.15      0.00
    3   11    6      2.18      0.00
    4   11    6     -2.41      0.00
    5   11    6     -2.64      0.00
    6   11    6      3.08      0.00
    7   11    6      7.81      0.00
    8   11    6      4.97      0.00
    9   11    6     -2.55      0.00
   10   11    6     -6.82      0.00
   11   11    6     -4.73      0.00
   12   11    6     -0.33      0.00
   13   11    6      0.94      0.00
   14   11    6     -0.54      0.00
   15   11    6     -0.82      0.00
   16   11    6      0.30      0.00
   -5   12    6     -0.34      0.00
   -4   12    6     -0.24      0.00
   -3   12    6     -0.23      0.00
   -2   12    6     -0.08      0.00
   -1   12    6      0.69      0.00
    0   12    6      1.63      0.00
    1   12    6      0.49      0.00
    2   12    6     -2.84      0.00
    3   12    6     -3.90      0.00
    4   12    6     -0.35      0.00
    5   12    6      3.33      0.00
    6   12    6      1.59      0.00
    7   12    6     -4.26      0.00
    8   12    6     -6.94      0.00
    9   12    6     -2.98      0.00
   10   12    6      2.85      0.00
   11   12    6      4.64      0.00
   12   12    6      2.22      0.00
   13   12    6      0.03      0.00
   14   12    6      0.63      0.00
   15   12    6      1.56      0.00
   16   12    6      0.77      0.00
   -4   13    6      0.27      0.00
   -3   13    6      0.41      0.00
   -2   13    6      0.44      0.00
   -1   13    6     -0.19      0.00
    0   13    6     -1.47      0.00
    1   13    6     -1.82      0.00
    2   13    6      0.41      0.00
    3   13    6      3.13      0.00
    4   13    6      2.32      0.00
    5   13    6     -1.62      0.00
    6   13    6     -3.66      0.00
    7   13    6     -0.61      0.00
    8   13    6      4.21      0.00
    9   13    6      4.90      0.00
   10   13    6      1.10      0.00
   11   13    6     -2.18      0.00
   12   13    6     -1.96      0.00
   13   13    6     -0.13      0.00
   14   13    6      0.11      0.00
   15   13    6     -1.00      0.00
   16   13    6     -1.10      0.00
   -3   14    6     -0.24      0.00
   -2   14    6     -0.48      0.00
   -1   14    6     -0.34      0.00
    0   14    6      0.70      0.00
    1   14    6      2.01      0.00
    2   14    6      1.55      0.00
    3   14    6     -1.05      0.00
    4   14    6     -2.56      0.00
    5   14    6     -0.52      0.00
    6   14    6      2.79      0.00
    7   14    6      3.10      0.00
    8   14    6     -0.35      0.00
    9   14    6     -3.42      0.00
   10   14    6     -2.68      0.00
   11   14    6     -0.07      0.00
   12   14    6      0.79      0.00
   13   14    6     -0.31      0.00
   14   14    6     -1.02      0.00
   15   14    6     -0.29      0.00
   -1   15    6      0.41      0.00
    0   15    6      0.13      0.00
    1   15    6     -1.01      0.00
    2   15    6     -1.97      0.00
    3   15    6     -0.89      0.00
    4   15    6      1.42      0.00
    5   15    6      1.71      0.00
    6   15    6     -0.78      0.00
    7   15    6     -2.92      0.00
    8   15    6     -1.95      0.00
    9   15    6      0.89      0.00
   10   15    6      2.04      0.00
   11   15    6      0.78      0.00
   12   15    6     -0.24      0.00
   13   15    6      0.38      0.00
   14   15    6      1.26      0.00
    1   16    6     -0.08      0.00
    2   16    6      0.94      0.00
    3   16    6      1.45      0.00
    4   16    6      0.16      0.00
    5   16    6     -1.42      0.00
    6   16    6     -0.78      0.00
    7   16    6      1.41      0.00
    8   16    6      2.30      0.00
    9   16    6      0.90      0.00
   10   16    6     -0.69      0.00
   11   16    6     -0.49      0.00
   12   16    6      0.41      0.00
   13   16    6      0.18      0.00
    4   17    6     -0.78      0.00
    5   17    6      0.28      0.00
    6   17    6      0.98      0.00
    7   17    6      0.02      0.00
    8   17    6     -1.36      0.00
    9   17    6     -1.38      0.00
   10   17    6     -0.32      0.00
   11   17    6      0.11      0.00
   12   17    6     -0.48      0.00
  -11  -16    7     -0.45      0.00
  -10  -16    7     -0.22      0.00
   -9  -16    7     -0.74      0.00
   -8  -16    7     -1.49      0.00
   -7  -16    7     -1.29      0.00
   -6  -16    7     -0.43      0.00
   -5  -16    7      0.01      0.00
   -4  -16    7     -0.04      0.00
   -3  -16    7     -0.22      0.00
  -13  -15    7      0.01      0.00
  -12  -15    7      0.07      0.00
  -11  -15    7     -0.09      0.00
  -10  -15    7     -0.29      0.00
   -9  -15    7      0.11      0.00
   -8  -15    7      1.22      0.00
   -7  -15    7      1.84      0.00
   -6  -15    7      1.09      0.00
   -5  -15    7     -0.09      0.00
   -4  -15    7     -0.43      0.00
   -3  -15    7      0.11      0.00
   -2  -15    7      0.77      0.00
   -1  -15    7      0.78      0.00
  -14  -14    7      0.29      0.00
  -13  -14    7     -0.01      0.00
  -12  -14    7      0.03      0.00
  -11  -14    7      0.76      0.00
  -10  -14    7      1.60      0.00
   -9  -14    7      1.47      0.00
   -8  -14    7      0.16      0.00
   -7  -14    7     -1.41      0.00
   -6  -14    7     -1.76      0.00
   -5  -14    7     -0.49      0.00
   -4  -14    7      0.92      0.00
   -3  -14    7      0.97      0.00
   -2  -14    7     -0.28      0.00
   -1  -14    7     -1.49      0.00
    0  -14    7     -1.38      0.00
    1  -14    7     -0.22      0.00
  -15  -13    7     -0.36      0.00
  -14  -13    7     -0.32      0.00
  -13  -13    7      0.10      0.00
  -12  -13    7      0.57      0.00
  -11  -13    7      0.03      0.00
  -10  -13    7     -1.77      0.00
   -9  -13    7     -3.04      0.00
   -8  -13    7     -2.42      0.00
   -7  -13    7     -0.35      0.00
   -6  -13    7      1.56      0.00
   -5  -13    7      1.54      0.00
   -4  -13    7     -0.33      0.00
   -3  -13    7     -1.89      0.00
   -2  -13    7     -1.46      0.00
   -1  -13    7      0.55      0.00
    0  -13    7      2.05      0.00
    1  -13    7      1.58      0.00
    2  -13    7      0.21      0.00
    3  -13    7     -0.24      0.00
  -15  -12    7      0.14      0.00
  -14  -12    7      0.14      0.00
  -13  -12    7     -0.40      0.00
  -12  -12    7     -1.33      0.00
  -11  -12    7     -1.96      0.00
  -10  -12    7     -0.64      0.00
   -9  -12    7      2.05      0.00
   -8  -12    7      3.62      0.00
   -7  -12    7      2.83      0.00
   -6  -12    7      0.21      0.00
   -5  -12    7     -1.91      0.00
   -4  -12    7     -1.22      0.00
   -3  -12    7      1.32      0.00
   -2  -12    7      2.82      0.00
   -1  -12    7      1.75      0.00
    0  -12    7     -0.74      0.00
    1  -12    7     -1.98      0.00
    2  -12    7     -1.10      0.00
    3  -12    7      0.06      0.00
    4  -12    7      0.12      0.00
  -16  -11    7      0.49      0.00
  -15  -11    7      0.02      0.00
  -14  -11    7     -0.19      0.00
  -13  -11    7      0.50      0.00
  -12  -11    7      1.73      0.00
  -11  -11    7      3.33      0.00
  -10  -11    7      3.84      0.00
   -9  -11    7      1.76      0.00
   -8  -11    7     -1.53      0.00
   -7  -11    7     -3.65      0.00
   -6  -11    7     -2.92      0.00
   -5  -11    7      0.24      0.00
   -4  -11    7      2.21      0.00
   -3  -11    7      0.65      0.00
   -2  -11    7     -2.29      0.00
   -1  -11    7     -3.36      0.00
    0  -11    7     -1.69      0.00
    1  -11    7      0.65      0.00
    2  -11    7      1.19      0.00
    3  -11    7      0.14      0.00
    4  -11    7     -0.55      0.00
    5  -11    7     -0.24      0.00
    6  -11    7      0.18      0.00
  -16  -10    7     -0.51      0.00
  -15  -10    7     -0.13      0.00
  -14  -10    7      0.66      0.00
  -13  -10    7      0.41      0.00
  -12  -10    7     -0.93      0.00
  -11  -10    7     -2.96      0.00
  -10  -10    7     -5.09      0.00
   -9  -10    7     -5.30      0.00
   -8  -10    7     -2.79      0.00
   -7  -10    7      1.00      0.00
   -6  -10    7      3.71      0.00
   -5  -10    7      2.74      0.00
   -4  -10    7     -0.75      0.00
   -3  -10    7     -2.11      0.00
   -2  -10    7      0.05      0.00
   -1  -10    7      2.76      0.00
    0  -10    7      3.13      0.00
    1  -10    7      1.22      0.00
    2  -10    7     -0.39      0.00
    3  -10    7     -0.16      0.00
    4  -10    7      0.82      0.00
    5  -10    7      1.05      0.00
    6  -10    7      0.43      0.00
    7  -10    7     -0.06      0.00
  -16   -9    7      0.32      0.00
  -15   -9    7      0.32      0.00
  -14   -9    7     -0.79      0.00
  -13   -9    7     -1.75      0.00
  -12   -9    7     -1.20      0.00
  -11   -9    7      0.60      0.00
  -10   -9    7      3.31      0.00
   -9   -9    7      5.69      0.00
   -8   -9    7      5.78      0.00
   -7   -9    7      3.23      0.00
   -6   -9    7     -0.85      0.00
   -5   -9    7     -3.50      0.00
   -4   -9    7     -2.07      0.00
   -3   -9    7      1.04      0.00
   -2   -9    7      1.64      0.00
   -1   -9    7     -0.42      0.00
    0   -9    7     -2.35      0.00
    1   -9    7     -1.97      0.00
    2   -9    7     -0.22      0.00
    3   -9    7      0.38      0.00
    4   -9    7     -0.49      0.00
    5   -9    7     -1.36      0.00
    6   -9    7     -1.19      0.00
    7   -9    7     -0.39      0.00
    8   -9    7     -0.02      0.00
  -16   -8    7      0.12      0.00
  -15   -8    7     -0.47      0.00
  -14   -8    7     -0.10      0.00
  -13   -8    7      1.64      0.00
  -12   -8    7      2.85      0.00
  -11   -8    7      2.29      0.00
  -10   -8    7      0.30      0.00
   -9   -8    7     -2.61      0.00
   -8   -8    7     -5.00      0.00
   -7   -8    7     -5.37      0.00
   -6   -8    7     -3.20      0.00
   -5   -8    7      0.50      0.00
   -4   -8    7      2.41      0.00
   -3   -8    7      1.03      0.00
   -2   -8    7     -1.00      0.00
   -1   -8    7     -1.16      0.00
    0   -8    7      0.29      0.00
    1   -8    7      1.15      0.00
    2   -8    7     -0.02      0.00
    3   -8    7     -1.37      0.00
    4   -8    7     -0.87      0.00
    5   -8    7      0.62      0.00
    6   -8    7      1.28      0.00
    7   -8    7      0.73      0.00
    8   -8    7      0.12      0.00
    9   -8    7      0.18      0.00
  -16   -7    7     -0.54      0.00
  -15   -7    7      0.22      0.00
  -14   -7    7      1.16      0.00
  -13   -7    7      0.39      0.00
  -12   -7    7     -2.01      0.00
  -11   -7    7     -3.46      0.00
  -10   -7    7     -3.03      0.00
   -9   -7    7     -1.44      0.00
   -8   -7    7      0.92      0.00
   -7   -7    7      3.26      0.00
   -6   -7    7      4.35      0.00
   -5   -7    7      3.10      0.00
   -4   -7    7      0.51      0.00
   -3   -7    7     -0.72      0.00
   -2   -7    7     -0.05      0.00
   -1   -7    7      0.87      0.00
    0   -7    7      0.74      0.00
    1   -7    7     -0.10      0.00
    2   -7    7      0.39      0.00
    3   -7    7      2.42      0.00
    4   -7    7      3.10      0.00
    5   -7    7      1.38      0.00
    6   -7    7     -0.53      0.00
    7   -7    7     -0.75      0.00
    8   -7    7      0.01      0.00
    9   -7    7      0.03      0.00
   10   -7    7     -0.49      0.00
  -16   -6    7      0.58      0.00
  -15   -6    7      0.23      0.00
  -13   -6    7     -2.23      0.00
  -12   -6    7     -0.77      0.00
  -11   -6    7      2.01      0.00
  -10   -6    7      3.18      0.00
   -9   -6    7      3.04      0.00
   -7   -6    7      1.63      0.00
   -6   -6    7     -0.76      0.00
   -5   -6    7     -3.03      0.00
   -4   -6    7     -3.15      0.00
   -3   -6    7     -1.68      0.00
   -2   -6    7     -0.77      0.00
   -1   -6    7     -0.84      0.00
    0   -6    7     -0.77      0.00
    1   -6    7      0.17      0.00
    2   -6    7      0.51      0.00
    3   -6    7     -1.65      0.00
    4   -6    7     -4.26      0.00
    5   -6    7     -3.91      0.00
    6   -6    7     -1.23      0.00
    7   -6    7      0.55      0.00
    8   -6    7      0.16      0.00
    9   -6    7     -0.50      0.00
   10   -6    7      0.09      0.00
   11   -6    7      0.79      0.00
  -16   -5    7     -0.61      0.00
  -15   -5    7     -0.55      0.00
  -14   -5    7      0.33      0.00
  -13   -5    7      2.13      0.00
  -12   -5    7      2.71      0.00
  -11   -5    7      0.57      0.00
  -10   -5    7     -1.45      0.00
   -9   -5    7     -1.64      0.00
   -8   -5    7     -2.27      0.00
   -7   -5    7     -4.10      0.00
   -6   -5    7     -4.52      0.00
   -5   -5    7     -1.80      0.00
   -4   -5    7      1.81      0.00
   -3   -5    7      2.94      0.00
   -2   -5    7      2.16      0.00
   -1   -5    7      1.90      0.00
    0   -5    7      1.86      0.00
    1   -5    7      0.19      0.00
    2   -5    7     -2.22      0.00
    3   -5    7     -1.73      0.00
    4   -5    7      2.04      0.00
    5   -5    7      4.51      0.00
    6   -5    7      3.14      0.00
    7   -5    7      0.39      0.00
    8   -5    7     -0.59      0.00
    9   -5    7      0.30      0.00
   10   -5    7      0.70      0.00
   11   -5    7     -0.20      0.00
  -16   -4    7      0.75      0.00
  -15   -4    7      1.09      0.00
  -14   -4    7      0.45      0.00
  -13   -4    7     -1.12      0.00
  -12   -4    7     -2.71      0.00
  -11   -4    7     -2.14      0.00
  -10   -4    7     -0.27      0.00
   -9   -4    7     -0.40      0.00
   -8   -4    7     -1.23      0.00
   -7   -4    7      1.00      0.00
   -6   -4    7      5.29      0.00
   -5   -4    7      6.80      0.00
   -4   -4    7      3.49      0.00
   -3   -4    7     -0.62      0.00
   -2   -4    7     -1.75      0.00
   -1   -4    7     -1.95      0.00
    0   -4    7     -3.22      0.00
    1   -4    7     -2.75      0.00
    2   -4    7      1.44      0.00
    3   -4    7      5.04      0.00
    4   -4    7      3.17      0.00
    5   -4    7     -1.48      0.00
    6   -4    7     -3.14      0.00
    7   -4    7     -1.44      0.00
    8   -4    7      0.36      0.00
    9   -4    7      0.29      0.00
   10   -4    7     -0.85      0.00
   11   -4    7     -0.91      0.00
   12   -4    7      0.12      0.00
  -16   -3    7     -0.37      0.00
  -15   -3    7     -1.46      0.00
  -14   -3    7     -1.38      0.00
  -13   -3    7      0.18      0.00
  -12   -3    7      2.15      0.00
  -11   -3    7      2.60      0.00
  -10   -3    7      0.97      0.00
   -9   -3    7      0.76      0.00
   -8   -3    7      3.49      0.00
   -7   -3    7      4.33      0.00
   -6   -3    7     -0.05      0.00
   -4   -3    7     -7.49      0.00
   -3   -3    7     -4.15      0.00
   -2   -3    7     -1.19      0.00
   -1   -3    7     -0.27      0.00
    0   -3    7      2.10      0.00
    1   -3    7      5.08      0.00
    2   -3    7      3.12      0.00
    3   -3    7     -3.56      0.00
    4   -3    7     -7.05      0.00
    5   -3    7     -3.73      0.00
    6   -3    7      0.61      0.00
    7   -3    7      1.25      0.00
    8   -3    7     -0.02      0.00
    9   -3    7     -0.51      0.00
   10   -3    7      0.45      0.00
   11   -3    7      1.49      0.00
   12   -3    7      1.00      0.00
   13   -3    7     -0.11      0.00
  -15   -2    7      0.82      0.00
  -14   -2    7      1.92      0.00
  -13   -2    7      0.99      0.00
  -12   -2    7     -1.37      0.00
  -11   -2    7     -2.85      0.00
  -10   -2    7     -1.52      0.00
   -9   -2    7      0.35      0.00
   -8   -2    7     -1.97      0.00
   -7   -2    7     -6.29      0.00
   -6   -2    7     -5.87      0.00
   -5   -2    7     -0.04      0.00
   -4   -2    7      5.51      0.00
   -3   -2    7      6.33      0.00
   -2   -2    7      4.48      0.00
   -1   -2    7      3.68      0.00
    0   -2    7      1.80      0.00
    1   -2    7     -3.59      0.00
    2   -2    7     -7.21      0.00
    3   -2    7     -3.05      0.00
    4   -2    7      4.70      0.00
    5   -2    7      6.75      0.00
    6   -2    7      2.79      0.00
    7   -2    7     -0.08      0.00
    8   -2    7      0.23      0.00
    9   -2    7      0.94      0.00
   10   -2    7      0.35      0.00
   11   -2    7     -1.20      0.00
   12   -2    7     -1.71      0.00
   13   -2    7     -0.52      0.00
  -15   -1    7      0.13      0.00
  -14   -1    7     -1.41      0.00
  -13   -1    7     -1.93      0.00
  -12   -1    7     -0.14      0.00
  -11   -1    7      2.28      0.00
  -10   -1    7      2.34      0.00
   -9   -1    7     -0.63      0.00
   -8   -1    7     -1.48      0.00
   -7   -1    7      3.03      0.00
   -6   -1    7      7.11      0.00
   -5   -1    7      5.31      0.00
   -3   -1    7     -3.21      0.00
   -2   -1    7     -4.01      0.00
   -1   -1    7     -5.18      0.00
    0   -1    7     -5.94      0.00
    1   -1    7     -1.65      0.00
    2   -1    7      6.09      0.00
    3   -1    7      8.71      0.00
    4   -1    7      2.79      0.00
    5   -1    7     -4.02      0.00
    6   -1    7     -4.15      0.00
    7   -1    7     -0.84      0.00
    8   -1    7     -0.07      0.00
    9   -1    7     -1.35      0.00
   10   -1    7     -1.77      0.00
   11   -1    7     -0.30      0.00
   12   -1    7      1.48      0.00
   13   -1    7      1.09      0.00
   14   -1    7     -0.33      0.00
  -15    0    7     -0.42      0.00
  -14    0    7      0.54      0.00
  -13    0    7      2.05      0.00
  -12    0    7      1.63      0.00
  -11    0    7     -0.64      0.00
  -10    0    7     -2.30      0.00
   -9    0    7     -0.55      0.00
   -8    0    7      2.84      0.00
   -7    0    7      1.84      0.00
   -6    0    7     -3.27      0.00
   -2    0    7     -0.52      0.00
   -1    0    7      2.00      0.00
    0    0    7      6.52      0.00
    1    0    7      7.16      0.00
    2    0    7      0.17      0.00
    3    0    7     -7.97      0.00
    4    0    7     -8.48      0.00
    5    0    7     -2.22      0.00
    6    0    7      1.96      0.00
    7    0    7      0.54      0.00
    8    0    7     -1.16      0.00
    9    0    7      0.24      0.00
   10    0    7      2.41      0.00
   11    0    7      2.47      0.00
   12    0    7      0.23      0.00
   13    0    7     -1.14      0.00
   14    0    7     -0.02      0.00
  -14    1    7      0.20      0.00
  -13    1    7     -1.41      0.00
  -12    1    7     -2.36      0.00
  -11    1    7     -0.97      0.00
  -10    1    7      1.30      0.00
   -9    1    7      1.56      0.00
   -8    1    7     -1.36      0.00
   -7    1    7     -3.56      0.00
   -6    1    7     -1.28      0.00
   -5    1    7      2.37      0.00
   -2    1    7      4.53      0.00
    0    1    7     -1.70      0.00
    1    1    7     -8.34      0.00
    2    1    7     -7.30      0.00
    3    1    7      1.26      0.00
    4    1    7      7.64      0.00
    5    1    7      6.00      0.00
    6    1    7      1.19      0.00
    7    1    7      0.49      0.00
    8    1    7      2.83      0.00
    9    1    7      2.64      0.00
   10    1    7     -0.52      0.00
   11    1    7     -3.07      0.00
   12    1    7     -2.40      0.00
   13    1    7      0.03      0.00
   14    1    7      0.46      0.00
   15    1    7     -0.73      0.00
  -14    2    7     -0.66      0.00
  -13    2    7      0.10      0.00
  -12    2    7      1.97      0.00
  -11    2    7      2.02      0.00
  -10    2    7     -0.13      0.00
   -9    2    7     -1.70      0.00
   -8    2    7     -0.46      0.00
   -7    2    7      2.17      0.00
   -6    2    7      2.57      0.00
   -5    2    7      0.81      0.00
   -4    2    7     -0.31      0.00
   -2    2    7     -3.97      0.00
   -1    2    7     -7.18      0.00
    0    2    7     -5.23      0.00
    1    2    7      3.36      0.00
    2    2    7      9.85      0.00
    3    2    7      6.51      0.00
    4    2    7     -1.60      0.00
    5    2    7     -4.78      0.00
    6    2    7     -1.88      0.00
    7    2    7      0.04      0.00
    8    2    7     -2.74      0.00
    9    2    7     -5.34      0.00
   10    2    7     -3.45      0.00
   11    2    7      0.68      0.00
   12    2    7      2.74      0.00
   13    2    7      1.40      0.00
   14    2    7     -0.28      0.00
   15    2    7      0.16      0.00
  -13    3    7      1.00      0.00
  -12    3    7     -0.40      0.00
  -11    3    7     -2.05      0.00
  -10    3    7     -1.10      0.00
   -9    3    7      1.17      0.00
   -8    3    7      1.40      0.00
   -7    3    7     -0.57      0.00
   -6    3    7     -1.74      0.00
   -5    3    7     -1.21      0.00
   -4    3    7     -1.39      0.00
   -3    3    7     -2.33      0.00
   -2    3    7     -0.65      0.00
   -1    3    7      4.61      0.00
    0    3    7      8.37      0.00
    1    3    7      4.04      0.00
    2    3    7     -5.67      0.00
    3    3    7     -9.71      0.00
    5    3    7      0.71      0.00
    6    3    7      0.32      0.00
    7    3    7     -2.55      0.00
    8    3    7     -0.93      0.00
    9    3    7      4.48      0.00
   10    3    7      6.65      0.00
   11    3    7      3.51      0.00
   12    3    7     -0.50      0.00
   13    3    7     -1.48      0.00
   14    3    7     -0.14      0.00
   15    3    7      0.33      0.00
   16    3    7     -0.39      0.00
  -12    4    7     -1.01      0.00
  -11    4    7      0.73      0.00
  -10    4    7      1.68      0.00
   -9    4    7      0.04      0.00
   -8    4    7     -1.45      0.00
   -6    4    7      1.04      0.00
   -5    4    7      0.75      0.00
   -4    4    7      0.57      0.00
   -3    4    7      2.71      0.00
   -1    4    7      1.36      0.00
    0    4    7     -5.21      0.00
    1    4    7     -7.63      0.00
    2    4    7     -1.28      0.00
    3    4    7      6.68      0.00
    4    4    7      7.07      0.00
    5    4    7      2.38      0.00
    6    4    7      0.95      0.00
    7    4    7      4.31      0.00
    8    4    7      5.94      0.00
    9    4    7      1.08      0.00
   10    4    7     -5.45      0.00
   11    4    7     -6.52      0.00
   12    4    7     -2.89      0.00
   13    4    7      0.04      0.00
   14    4    7      0.03      0.00
   15    4    7     -0.70      0.00
   16    4    7     -0.27      0.00
  -12    5    7      1.14      0.00
  -11    5    7      0.71      0.00
  -10    5    7     -0.84      0.00
   -9    5    7     -0.88      0.00
   -8    5    7      0.67      0.00
   -7    5    7      0.98      0.00
   -6    5    7     -0.33      0.00
   -5    5    7     -0.72      0.00
   -4    5    7      0.15      0.00
   -3    5    7     -0.67      0.00
   -2    5    7     -3.79      0.00
   -1    5    7     -4.89      0.00
    0    5    7     -0.51      0.00
    1    5    7      5.44      0.00
    2    5    7      5.08      0.00
    3    5    7     -1.51      0.00
    4    5    7     -5.15      0.00
    5    5    7     -2.30      0.00
    6    5    7      0.29      0.00
    7    5    7     -2.66      0.00
    8    5    7     -7.70      0.00
    9    5    7     -7.36      0.00
   10    5    7     -0.50      0.00
   11    5    7      5.39      0.00
   12    5    7      5.12      0.00
   13    5    7      1.87      0.00
   14    5    7      0.40      0.00
   15    5    7      0.90      0.00
   16    5    7      0.93      0.00
  -11    6    7     -1.10      0.00
  -10    6    7     -0.38      0.00
   -9    6    7      0.49      0.00
   -8    6    7     -0.06      0.00
   -7    6    7     -0.82      0.00
   -6    6    7     -0.31      0.00
   -5    6    7      0.44      0.00
   -4    6    7     -0.04      0.00
   -3    6    7     -0.59      0.00
   -2    6    7      1.22      0.00
   -1    6    7      4.07      0.00
    0    6    7      3.41      0.00
    1    6    7     -1.56      0.00
    2    6    7     -4.72      0.00
    3    6    7     -1.42      0.00
    4    6    7      2.96      0.00
    5    6    7      1.24      0.00
    6    6    7     -3.27      0.00
    7    6    7     -2.63      0.00
    8    6    7      3.81      0.00
    9    6    7      9.02      0.00
   10    6    7      6.75      0.00
   11    6    7     -0.32      0.00
   12    6    7     -4.27      0.00
   13    6    7     -2.98      0.00
   14    6    7     -0.74      0.00
   15    6    7     -0.52      0.00
   16    6    7     -1.05      0.00
  -10    7    7      0.79      0.00
   -9    7    7      0.18      0.00
   -8    7    7      0.11      0.00
   -7    7    7      0.63      0.00
   -6    7    7      0.49      0.00
   -5    7    7     -0.19      0.00
   -4    7    7     -0.13      0.00
   -3    7    7      0.73      0.00
   -2    7    7      0.38      0.00
   -1    7    7     -2.07      0.00
    0    7    7     -3.32      0.00
    1    7    7     -0.34      0.00
    2    7    7      3.66      0.00
    3    7    7      2.67      0.00
    4    7    7     -2.16      0.00
    5    7    7     -2.51      0.00
    6    7    7      3.60      0.00
    7    7    7      7.82      0.00
    8    7    7      3.97      0.00
    9    7    7     -4.24      0.00
   10    7    7     -8.38      0.00
   11    7    7     -4.93      0.00
   12    7    7      0.69      0.00
   13    7    7      2.31      0.00
   14    7    7      0.73      0.00
   15    7    7     -0.22      0.00
   16    7    7      0.31      0.00
   -9    8    7     -0.26      0.00
   -8    8    7     -0.07      0.00
   -7    8    7     -0.53      0.00
   -6    8    7     -0.70      0.00
   -5    8    7     -0.03      0.00
   -4    8    7      0.40      0.00
   -3    8    7     -0.36      0.00
   -2    8    7     -1.07      0.00
   -1    8    7      0.54      0.00
    0    8    7      2.89      0.00
    1    8    7      1.52      0.00
    2    8    7     -3.03      0.00
    3    8    7     -4.34      0.00
    4    8    7      0.49      0.00
    5    8    7      4.74      0.00
    6    8    7      0.90      0.00
    7    8    7     -7.29      0.00
    8    8    7     -9.83      0.00
    9    8    7     -3.86      0.00
   10    8    7      4.17      0.00
   11    8    7      6.49      0.00
   12    8    7      2.88      0.00
   13    8    7     -0.36      0.00
   14    8    7     -0.16      0.00
   15    8    7      0.90      0.00
   16    8    7      0.69      0.00
   -8    9    7     -0.22      0.00
   -7    9    7      0.05      0.00
   -6    9    7      0.65      0.00
   -5    9    7      0.54      0.00
   -4    9    7     -0.18      0.00
   -3    9    7     -0.15      0.00
   -2    9    7      1.00      0.00
   -1    9    7      0.81      0.00
    0    9    7     -2.03      0.00
    1    9    7     -3.20      0.00
    2    9    7      0.74      0.00
    3    9    7      5.01      0.00
    4    9    7      2.82      0.00
    5    9    7     -4.02      0.00
    6    9    7     -6.03      0.00
    7    9    7      0.71      0.00
    8    9    7      8.61      0.00
    9    9    7      9.12      0.00
   10    9    7      2.61      0.00
   11    9    7     -3.55      0.00
   12    9    7     -3.89      0.00
   13    9    7     -1.08      0.00
   14    9    7     -0.26      0.00
   15    9    7     -1.25      0.00
   16    9    7     -1.41      0.00
   -7   10    7      0.39      0.00
   -6   10    7     -0.09      0.00
   -5   10    7     -0.56      0.00
   -4   10    7     -0.39      0.00
   -3   10    7     -0.02      0.00
   -2   10    7     -0.61      0.00
   -1   10    7     -1.45      0.00
    0   10    7      0.34      0.00
    1   10    7      3.63      0.00
    2   10    7      2.78      0.00
    3   10    7     -2.48      0.00
    4   10    7     -4.79      0.00
    5   10    7      0.19      0.00
    6   10    7      6.68      0.00
    7   10    7      5.87      0.00
    8   10    7     -1.89      0.00
    9   10    7     -7.96      0.00
   10   10    7     -6.81      0.00
   11   10    7     -1.20      0.00
   12   10    7      2.15      0.00
   13   10    7      1.06      0.00
   14   10    7     -0.26      0.00
   15   10    7      0.61      0.00
   16   10    7      1.49      0.00
   -6   11    7     -0.33      0.00
   -5   11    7      0.05      0.00
   -4   11    7      0.25      0.00
   -3   11    7      0.26      0.00
   -2   11    7      0.60      0.00
   -1   11    7      1.54      0.00
    0   11    7      1.17      0.00
    1   11    7     -2.13      0.00
    2   11    7     -4.55      0.00
    3   11    7     -1.66      0.00
    4   11    7      3.31      0.00
    5   11    7      3.17      0.00
    6   11    7     -2.91      0.00
    7   11    7     -7.36      0.00
    8   11    7     -4.26      0.00
    9   11    7      2.76      0.00
   10   11    7      6.26      0.00
   11   11    7      4.09      0.00
   12   11    7      0.36      0.00
   13   11    7     -0.30      0.00
   14   11    7      1.07      0.00
   15   11    7      0.87      0.00
   16   11    7     -0.54      0.00
   -5   12    7      0.23      0.00
   -4   12    7      0.16      0.00
   -3   12    7      0.18      0.00
   -2   12    7     -0.25      0.00
   -1   12    7     -1.39      0.00
    0   12    7     -2.10      0.00
    1   12    7     -0.14      0.00
    2   12    7      3.58      0.00
    3   12    7      4.15      0.00
    4   12    7      0.02      0.00
    5   12    7     -3.57      0.00
    6   12    7     -1.46      0.00
    7   12    7      4.13      0.00
    8   12    7      6.01      0.00
    9   12    7      1.90      0.00
   10   12    7     -3.02      0.00
   11   12    7     -3.90      0.00
   12   12    7     -1.52      0.00
   13   12    7      0.00      0.00
   14   12    7     -0.92      0.00
   15   12    7     -1.67      0.00
   16   12    7     -0.74      0.00
   -4   13    7     -0.19      0.00
   -3   13    7     -0.44      0.00
   -2   13    7     -0.47      0.00
   -1   13    7      0.50      0.00
    0   13    7      2.06      0.00
    1   13    7      2.01      0.00
    2   13    7     -0.97      0.00
    3   13    7     -3.85      0.00
    4   13    7     -2.53      0.00
    5   13    7      1.71      0.00
    6   13    7      3.44      0.00
    7   13    7      0.17      0.00
    8   13    7     -3.96      0.00
    9   13    7     -3.71      0.00
   10   13    7     -0.04      0.00
   11   13    7      2.16      0.00
   12   13    7      1.18      0.00
   13   13    7     -0.47      0.00
   14   13    7     -0.24      0.00
   15   13    7      0.96      0.00
   -2   14    7      0.61      0.00
   -1   14    7      0.48      0.00
    0   14    7     -0.83      0.00
    1   14    7     -2.27      0.00
    2   14    7     -1.45      0.00
    3   14    7      1.57      0.00
    4   14    7      2.98      0.00
    5   14    7      0.49      0.00
    6   14    7     -2.85      0.00
    7   14    7     -2.69      0.00
    8   14    7      0.80      0.00
    9   14    7      3.03      0.00
   10   14    7      1.57      0.00
   11   14    7     -0.66      0.00
   12   14    7     -0.59      0.00
   13   14    7      0.92      0.00
   14   14    7      1.38      0.00
   15   14    7      0.40      0.00
   -1   15    7     -0.64      0.00
    0   15    7     -0.38      0.00
    1   15    7      0.93      0.00
    2   15    7      1.98      0.00
    3   15    7      0.83      0.00
    4   15    7     -1.49      0.00
    5   15    7     -1.53      0.00
    6   15    7      1.12      0.00
    7   15    7      2.92      0.00
    8   15    7      1.42      0.00
    9   15    7     -1.30      0.00
   10   15    7     -1.71      0.00
   11   15    7     -0.07      0.00
   12   15    7      0.57      0.00
   13   15    7     -0.57      0.00
   14   15    7     -1.56      0.00
    1   16    7      0.33      0.00
    2   16    7     -0.79      0.00
    3   16    7     -1.46      0.00
    4   16    7     -0.38      0.00
    5   16    7      0.93      0.00
    6   16    7      0.15      0.00
    7   16    7     -1.78      0.00
    8   16    7     -2.06      0.00
    9   16    7     -0.29      0.00
   10   16    7      1.05      0.00
   11   16    7      0.36      0.00
   12   16    7     -0.70      0.00
   13   16    7     -0.29      0.00
    4   17    7      0.84      0.00
    5   17    7      0.11      0.00
    6   17    7     -0.26      0.00
    7   17    7      0.62      0.00
    8   17    7      1.46      0.00
    9   17    7      0.96      0.00
   10   17    7     -0.20      0.00
   11   17    7     -0.38      0.00
  -11  -16    8      0.36      0.00
  -10  -16    8      0.42      0.00
   -9  -16    8      1.31      0.00
   -8  -16    8      2.03      0.00
   -7  -16    8      1.38      0.00
   -6  -16    8      0.18      0.00
   -5  -16    8     -0.25      0.00
   -4  -16    8     -0.02      0.00
  -12  -15    8     -0.07      0.00
  -11  -15    8      0.44      0.00
  -10  -15    8      0.64      0.00
   -9  -15    8     -0.37      0.00
   -8  -15    8     -2.08      0.00
   -7  -15    8     -2.66      0.00
   -6  -15    8     -1.40      0.00
   -5  -15    8      0.17      0.00
   -4  -15    8      0.53      0.00
   -3  -15    8     -0.11      0.00
   -2  -15    8     -0.69      0.00
   -1  -15    8     -0.54      0.00
  -14  -14    8     -0.40      0.00
  -13  -14    8      0.02      0.00
  -12  -14    8      0.13      0.00
  -11  -14    8     -0.92      0.00
  -10  -14    8     -2.23      0.00
   -9  -14    8     -1.95      0.00
   -8  -14    8      0.21      0.00
   -7  -14    8      2.44      0.00
   -6  -14    8      2.69      0.00
   -5  -14    8      0.93      0.00
   -4  -14    8     -0.78      0.00
   -3  -14    8     -0.82      0.00
   -2  -14    8      0.41      0.00
   -1  -14    8      1.29      0.00
    0  -14    8      0.88      0.00
    1  -14    8     -0.09      0.00
  -14  -13    8      0.46      0.00
  -13  -13    8      0.09      0.00
  -12  -13    8     -0.56      0.00
  -11  -13    8     -0.04      0.00
  -10  -13    8      2.20      0.00
   -9  -13    8      3.85      0.00
   -8  -13    8      2.88      0.00
   -7  -13    8     -0.02      0.00
   -6  -13    8     -2.43      0.00
   -5  -13    8     -2.30      0.00
   -4  -13    8     -0.17      0.00
   -3  -13    8      1.39      0.00
   -2  -13    8      0.85      0.00
   -1  -13    8     -0.87      0.00
    0  -13    8     -1.65      0.00
    1  -13    8     -0.83      0.00
    2  -13    8      0.18      0.00
    3  -13    8      0.20      0.00
  -15  -12    8     -0.31      0.00
  -14  -12    8     -0.29      0.00
  -13  -12    8      0.19      0.00
  -12  -12    8      1.12      0.00
  -11  -12    8      1.75      0.00
  -10  -12    8      0.23      0.00
   -9  -12    8     -2.78      0.00
   -8  -12    8     -4.40      0.00
   -7  -12    8     -3.20      0.00
   -6  -12    8     -0.05      0.00
   -5  -12    8      2.29      0.00
   -4  -12    8      1.67      0.00
   -3  -12    8     -0.65      0.00
   -2  -12    8     -1.73      0.00
   -1  -12    8     -0.57      0.00
    0  -12    8      1.17      0.00
    1  -12    8      1.39      0.00
    2  -12    8      0.25      0.00
    3  -12    8     -0.48      0.00
    4  -12    8     -0.17      0.00
  -15  -11    8      0.28      0.00
  -14  -11    8      0.45      0.00
  -13  -11    8     -0.34      0.00
  -12  -11    8     -1.58      0.00
  -11  -11    8     -3.03      0.00
  -10  -11    8     -3.22      0.00
   -9  -11    8     -0.91      0.00
   -8  -11    8      2.31      0.00
   -7  -11    8      4.11      0.00
   -6  -11    8      3.12      0.00
   -5  -11    8     -0.01      0.00
   -4  -11    8     -1.94      0.00
   -3  -11    8     -0.77      0.00
   -2  -11    8      1.35      0.00
   -1  -11    8      1.67      0.00
    0  -11    8      0.11      0.00
    1  -11    8     -1.10      0.00
    2  -11    8     -0.60      0.00
    3  -11    8      0.56      0.00
    4  -11    8      0.88      0.00
    5  -11    8      0.30      0.00
  -16  -10    8      0.31      0.00
  -15  -10    8     -0.05      0.00
  -14  -10    8     -0.87      0.00
  -13  -10    8     -0.51      0.00
  -12  -10    8      0.94      0.00
  -11  -10    8      2.84      0.00
  -10  -10    8      4.55      0.00
   -9  -10    8      4.33      0.00
   -8  -10    8      1.86      0.00
   -7  -10    8     -1.37      0.00
   -6  -10    8     -3.54      0.00
   -5  -10    8     -2.72      0.00
   -4  -10    8      0.06      0.00
   -3  -10    8      1.14      0.00
   -2  -10    8     -0.30      0.00
   -1  -10    8     -1.69      0.00
    0  -10    8     -1.12      0.00
    1  -10    8      0.45      0.00
    2  -10    8      0.85      0.00
    3  -10    8     -0.19      0.00
    4  -10    8     -1.22      0.00
    5  -10    8     -1.19      0.00
    6  -10    8     -0.45      0.00
  -16   -9    8     -0.17      0.00
  -15   -9    8     -0.29      0.00
  -14   -9    8      0.78      0.00
  -13   -9    8      1.64      0.00
  -12   -9    8      0.93      0.00
  -11   -9    8     -0.78      0.00
  -10   -9    8     -3.08      0.00
   -9   -9    8     -4.93      0.00
   -8   -9    8     -4.84      0.00
   -7   -9    8     -2.75      0.00
   -6   -9    8      0.48      0.00
   -5   -9    8      2.63      0.00
   -4   -9    8      1.86      0.00
   -3   -9    8      0.10      0.00
   -2   -9    8      0.03      0.00
   -1   -9    8      1.17      0.00
    0   -9    8      1.44      0.00
    1   -9    8      0.07      0.00
    2   -9    8     -1.28      0.00
    3   -9    8     -0.88      0.00
    4   -9    8      0.59      0.00
    5   -9    8      1.48      0.00
    6   -9    8      1.16      0.00
    7   -9    8      0.42      0.00
    8   -9    8      0.24      0.00
  -16   -8    8     -0.15      0.00
  -15   -8    8      0.40      0.00
  -14   -8    8      0.03      0.00
  -13   -8    8     -1.50      0.00
  -12   -8    8     -2.29      0.00
  -11   -8    8     -1.61      0.00
  -10   -8    8     -0.04      0.00
   -9   -8    8      2.23      0.00
   -8   -8    8      4.30      0.00
   -7   -8    8      4.86      0.00
   -6   -8    8      3.30      0.00
   -5   -8    8      0.48      0.00
   -4   -8    8     -1.04      0.00
   -3   -8    8     -0.68      0.00
   -2   -8    8     -0.46      0.00
   -1   -8    8     -1.11      0.00
    0   -8    8     -1.61      0.00
    1   -8    8     -0.68      0.00
    2   -8    8      1.47      0.00
    3   -8    8      2.52      0.00
    4   -8    8      1.31      0.00
    5   -8    8     -0.59      0.00
    6   -8    8     -1.24      0.00
    7   -8    8     -0.58      0.00
    8   -8    8     -0.17      0.00
    9   -8    8     -0.43      0.00
  -16   -7    8      0.29      0.00
  -15   -7    8     -0.21      0.00
  -14   -7    8     -0.72      0.00
  -13   -7    8      0.08      0.00
  -12   -7    8      1.78      0.00
  -11   -7    8      2.45      0.00
  -10   -7    8      2.02      0.00
   -9   -7    8      1.12      0.00
   -8   -7    8     -0.60      0.00
   -7   -7    8     -2.86      0.00
   -6   -7    8     -4.19      0.00
   -5   -7    8     -3.42      0.00
   -4   -7    8     -1.73      0.00
   -3   -7    8     -0.97      0.00
   -2   -7    8     -0.50      0.00
   -1   -7    8      0.68      0.00
    0   -7    8      1.89      0.00
    1   -7    8      1.86      0.00
    2   -7    8     -0.33      0.00
    3   -7    8     -3.20      0.00
    4   -7    8     -3.75      0.00
    5   -7    8     -1.67      0.00
    6   -7    8      0.41      0.00
    7   -7    8      0.54      0.00
    8   -7    8     -0.28      0.00
    9   -7    8     -0.10      0.00
  -16   -6    8     -0.24      0.00
  -15   -6    8      0.18      0.00
  -14   -6    8      0.79      0.00
  -13   -6    8      1.04      0.00
  -12   -6    8     -0.18      0.00
  -11   -6    8     -1.70      0.00
  -10   -6    8     -1.92      0.00
   -9   -6    8     -1.90      0.00
   -8   -6    8     -2.25      0.00
   -7   -6    8     -1.60      0.00
   -6   -6    8      0.64      0.00
   -4   -6    8      3.27      0.00
   -3   -6    8      2.96      0.00
   -2   -6    8      2.74      0.00
   -1   -6    8      1.61      0.00
    0   -6    8     -0.73      0.00
    1   -6    8     -2.83      0.00
    2   -6    8     -2.37      0.00
    3   -6    8      1.15      0.00
    4   -6    8      4.34      0.00
    5   -6    8      4.06      0.00
    6   -6    8      1.46      0.00
    7   -6    8     -0.21      0.00
    8   -6    8      0.30      0.00
    9   -6    8      0.95      0.00
   10   -6    8      0.21      0.00
  -16   -5    8      0.55      0.00
  -15   -5    8     -0.06      0.00
  -14   -5    8     -0.72      0.00
  -13   -5    8     -1.26      0.00
  -12   -5    8     -0.88      0.00
  -11   -5    8      0.66      0.00
  -10   -5    8      1.25      0.00
   -9   -5    8      0.60      0.00
   -8   -5    8      1.20      0.00
   -7   -5    8      3.22      0.00
   -6   -5    8      3.92      0.00
   -5   -5    8      1.79      0.00
   -4   -5    8     -1.20      0.00
   -3   -5    8     -2.81      0.00
   -2   -5    8     -3.59      0.00
   -1   -5    8     -4.04      0.00
    0   -5    8     -2.62      0.00
    1   -5    8      1.22      0.00
    2   -5    8      4.47      0.00
    3   -5    8      3.25      0.00
    4   -5    8     -1.31      0.00
    5   -5    8     -4.02      0.00
    6   -5    8     -2.97      0.00
    7   -5    8     -0.71      0.00
    8   -5    8     -0.04      0.00
    9   -5    8     -0.99      0.00
   10   -5    8     -1.25      0.00
   11   -5    8     -0.17      0.00
  -16   -4    8     -0.82      0.00
  -15   -4    8     -0.73      0.00
  -14   -4    8      0.35      0.00
  -13   -4    8      1.29      0.00
  -12   -4    8      1.43      0.00
  -11   -4    8      0.11      0.00
  -10   -4    8     -1.11      0.00
   -9   -4    8      0.07      0.00
   -8   -4    8      1.62      0.00
   -7   -4    8      0.06      0.00
   -6   -4    8     -3.72      0.00
   -5   -4    8     -5.53      0.00
   -4   -4    8     -3.50      0.00
   -3   -4    8     -0.35      0.00
   -2   -4    8      1.61      0.00
   -1   -4    8      3.50      0.00
    0   -4    8      5.08      0.00
    1   -4    8      3.10      0.00
    2   -4    8     -2.64      0.00
    3   -4    8     -6.42      0.00
    4   -4    8     -4.01      0.00
    5   -4    8      0.71      0.00
    6   -4    8      2.29      0.00
    7   -4    8      1.07      0.00
    8   -4    8      0.00      0.00
    9   -4    8      0.49      0.00
   10   -4    8      1.57      0.00
   11   -4    8      1.35      0.00
   12   -4    8      0.10      0.00
  -15   -3    8      1.23      0.00
  -14   -3    8      0.71      0.00
  -13   -3    8     -0.91      0.00
  -12   -3    8     -2.03      0.00
  -11   -3    8     -1.33      0.00
  -10   -3    8      0.78      0.00
   -9   -3    8      0.78      0.00
   -8   -3    8     -2.35      0.00
   -7   -3    8     -4.08      0.00
   -6   -3    8     -1.22      0.00
   -5   -3    8      3.67      0.00
   -4   -3    8      5.84      0.00
   -3   -3    8      4.41      0.00
   -2   -3    8      2.42      0.00
   -1   -3    8      0.37      0.00
    0   -3    8     -3.36      0.00
    1   -3    8     -6.01      0.00
    2   -3    8     -2.78      0.00
    3   -3    8      4.34      0.00
    4   -3    8      7.32      0.00
    5   -3    8      3.86      0.00
    6   -3    8      0.16      0.00
    7   -3    8     -0.12      0.00
    8   -3    8      0.67      0.00
    9   -3    8      0.32      0.00
   10   -3    8     -1.10      0.00
   11   -3    8     -2.02      0.00
   12   -3    8     -1.20      0.00
  -15   -2    8     -0.61      0.00
  -14   -2    8     -1.34      0.00
  -13   -2    8     -0.24      0.00
  -12   -2    8      1.78      0.00
  -11   -2    8      2.63      0.00
  -10   -2    8      0.75      0.00
   -9   -2    8     -1.51      0.00
   -8   -2    8      0.28      0.00
   -7   -2    8      4.47      0.00
   -6   -2    8      5.28      0.00
   -5   -2    8      1.48      0.00
   -4   -2    8     -3.03      0.00
   -2   -2    8     -5.30      0.00
   -1   -2    8     -5.12      0.00
    0   -2    8     -2.04      0.00
    1   -2    8      3.99      0.00
    2   -2    8      6.81      0.00
    3   -2    8      2.09      0.00
    4   -2    8     -4.91      0.00
    5   -2    8     -6.06      0.00
    6   -2    8     -2.49      0.00
    7   -2    8     -0.77      0.00
    8   -2    8     -1.62      0.00
    9   -2    8     -1.86      0.00
   10   -2    8     -0.41      0.00
   11   -2    8      1.59      0.00
   12   -2    8      1.99      0.00
   13   -2    8      0.63      0.00
  -15   -1    8     -0.07      0.00
  -14   -1    8      1.01      0.00
  -13   -1    8      1.22      0.00
  -12   -1    8     -0.35      0.00
  -11   -1    8     -2.37      0.00
  -10   -1    8     -2.34      0.00
   -9   -1    8      0.58      0.00
   -8   -1    8      2.03      0.00
   -7   -1    8     -1.24      0.00
   -6   -1    8     -4.91      0.00
   -3   -1    8      1.38      0.00
   -2   -1    8      3.53      0.00
   -1   -1    8      6.52      0.00
    0   -1    8      7.34      0.00
    1   -1    8      2.13      0.00
    2   -1    8     -5.41      0.00
    3   -1    8     -7.10      0.00
    4   -1    8     -1.49      0.00
    5   -1    8      3.66      0.00
    6   -1    8      2.84      0.00
    7   -1    8      0.38      0.00
    8   -1    8      1.00      0.00
    9   -1    8      2.74      0.00
   10   -1    8      2.65      0.00
   11   -1    8      0.47      0.00
   12   -1    8     -1.58      0.00
   13   -1    8     -1.22      0.00
   14   -1    8      0.14      0.00
  -14    0    8     -0.57      0.00
  -13    0    8     -1.57      0.00
  -12    0    8     -1.10      0.00
  -11    0    8      0.75      0.00
  -10    0    8      2.27      0.00
   -9    0    8      1.03      0.00
   -8    0    8     -2.05      0.00
   -7    0    8     -2.00      0.00
   -6    0    8      1.45      0.00
   -2    0    8      1.35      0.00
   -1    0    8     -2.21      0.00
    0    0    8     -7.71      0.00
    1    0    8     -7.98      0.00
    2    0    8     -0.67      0.00
    3    0    8      6.48      0.00
    4    0    8      6.12      0.00
    5    0    8      0.90      0.00
    6    0    8     -1.12      0.00
    7    0    8      1.08      0.00
    8    0    8      1.65      0.00
    9    0    8     -0.99      0.00
   10    0    8     -3.35      0.00
   11    0    8     -2.97      0.00
   12    0    8     -0.42      0.00
   13    0    8      1.04      0.00
   14    0    8      0.15      0.00
  -14    1    8      0.15      0.00
  -13    1    8      1.35      0.00
  -12    1    8      1.94      0.00
  -11    1    8      0.76      0.00
  -10    1    8     -1.13      0.00
   -9    1    8     -1.63      0.00
   -8    1    8      0.48      0.00
   -7    1    8      2.43      0.00
   -6    1    8      1.27      0.00
   -5    1    8     -0.77      0.00
   -2    1    8     -4.08      0.00
   -1    1    8     -4.06      0.00
    0    1    8      1.88      0.00
    1    1    8      8.54      0.00
    2    1    8      7.01      0.00
    3    1    8     -1.05      0.00
    4    1    8     -5.76      0.00
    5    1    8     -3.36      0.00
    6    1    8     -0.13      0.00
    7    1    8     -1.71      0.00
    8    1    8     -4.46      0.00
    9    1    8     -3.11      0.00
   10    1    8      0.86      0.00
   11    1    8      3.33      0.00
   12    1    8      2.51      0.00
   13    1    8      0.23      0.00
   14    1    8     -0.28      0.00
   15    1    8      0.51      0.00
  -13    2    8     -0.33      0.00
  -12    2    8     -1.75      0.00
  -11    2    8     -1.74      0.00
  -10    2    8      0.02      0.00
   -9    2    8      1.45      0.00
   -8    2    8      0.71      0.00
   -7    2    8     -1.17      0.00
   -6    2    8     -1.44      0.00
   -5    2    8     -0.55      0.00
   -4    2    8     -0.66      0.00
   -3    2    8     -0.60      0.00
   -1    2    8      6.25      0.00
    0    2    8      5.02      0.00
    1    2    8     -3.01      0.00
    2    2    8     -8.66      0.00
    3    2    8     -5.00      0.00
    4    2    8      1.75      0.00
    5    2    8      2.76      0.00
    6    2    8     -0.64      0.00
    7    2    8     -0.65      0.00
    8    2    8      4.01      0.00
    9    2    8      6.58      0.00
   10    2    8      3.79      0.00
   11    2    8     -0.62      0.00
   12    2    8     -2.53      0.00
   13    2    8     -1.39      0.00
   14    2    8     -0.04      0.00
   15    2    8     -0.25      0.00
  -13    3    8     -0.67      0.00
  -12    3    8      0.41      0.00
  -11    3    8      1.73      0.00
  -10    3    8      1.04      0.00
   -9    3    8     -0.84      0.00
   -8    3    8     -1.21      0.00
   -7    3    8      0.18      0.00
   -6    3    8      0.80      0.00
   -5    3    8      0.15      0.00
   -4    3    8      0.67      0.00
   -1    3    8     -2.98      0.00
    0    3    8     -6.88      0.00
    1    3    8     -3.37      0.00
    2    3    8      4.84      0.00
    3    3    8      7.31      0.00
    4    3    8      2.37      0.00
    5    3    8     -1.03      0.00
    6    3    8      1.69      0.00
    7    3    8      4.62      0.00
    8    3    8      1.19      0.00
    9    3    8     -5.34      0.00
   10    3    8     -7.19      0.00
   11    3    8     -3.63      0.00
   12    3    8      0.27      0.00
   13    3    8      1.16      0.00
   14    3    8      0.19      0.00
   15    3    8     -0.06      0.00
  -12    4    8      0.79      0.00
  -11    4    8     -0.57      0.00
  -10    4    8     -1.41      0.00
   -9    4    8     -0.23      0.00
   -8    4    8      1.03      0.00
   -7    4    8      0.42      0.00
   -6    4    8     -0.52      0.00
   -5    4    8      0.06      0.00
   -4    4    8      0.41      0.00
   -3    4    8     -1.52      0.00
   -2    4    8     -3.47      0.00
   -1    4    8     -1.60      0.00
    0    4    8      3.53      0.00
    1    4    8      5.34      0.00
    2    4    8     -0.05      0.00
    3    4    8     -5.59      0.00
    4    4    8     -3.90      0.00
    5    4    8      0.42      0.00
    6    4    8     -0.68      0.00
    7    4    8     -6.04      0.00
    8    4    8     -7.35      0.00
    9    4    8     -1.22      0.00
   10    4    8      5.67      0.00
   11    4    8      6.47      0.00
   12    4    8      2.88      0.00
   13    4    8      0.25      0.00
   14    4    8      0.26      0.00
   15    4    8      0.64      0.00
   16    4    8      0.15      0.00
  -12    5    8     -0.85      0.00
  -11    5    8     -0.52      0.00
  -10    5    8      0.65      0.00
   -9    5    8      0.74      0.00
   -8    5    8     -0.35      0.00
   -7    5    8     -0.59      0.00
   -6    5    8      0.20      0.00
   -5    5    8      0.17      0.00
   -4    5    8     -0.71      0.00
   -3    5    8     -0.07      0.00
   -2    5    8      2.36      0.00
   -1    5    8      3.24      0.00
    0    5    8      0.15      0.00
    1    5    8     -3.65      0.00
    2    5    8     -2.09      0.00
    3    5    8      3.28      0.00
    4    5    8      3.91      0.00
    5    5    8     -1.01      0.00
    6    5    8     -2.83      0.00
    7    5    8      2.51      0.00
    8    5    8      8.85      0.00
    9    5    8      8.06      0.00
   10    5    8      0.60      0.00
   11    5    8     -5.23      0.00
   12    5    8     -4.87      0.00
   13    5    8     -1.92      0.00
   14    5    8     -0.77      0.00
   15    5    8     -1.16      0.00
   16    5    8     -0.87      0.00
  -11    6    8      0.70      0.00
  -10    6    8      0.19      0.00
   -9    6    8     -0.28      0.00
   -8    6    8      0.18      0.00
   -7    6    8      0.53      0.00
   -6    6    8     -0.01      0.00
   -5    6    8     -0.32      0.00
   -4    6    8      0.42      0.00
   -3    6    8      0.74      0.00
   -2    6    8     -0.85      0.00
   -1    6    8     -2.58      0.00
    0    6    8     -1.29      0.00
    1    6    8      2.35      0.00
    2    6    8      2.99      0.00
    3    6    8     -1.63      0.00
    4    6    8     -4.61      0.00
    5    6    8     -0.06      0.00
    6    6    8      5.94      0.00
    7    6    8      4.43      0.00
    8    6    8     -3.64      0.00
    9    6    8     -9.37      0.00
   10    6    8     -6.74      0.00
   11    6    8      0.37      0.00
   12    6    8      4.02      0.00
   13    6    8      2.75      0.00
   14    6    8      0.90      0.00
   15    6    8      0.93      0.00
   16    6    8      1.22      0.00
  -10    7    8     -0.35      0.00
   -9    7    8     -0.06      0.00
   -8    7    8     -0.40      0.00
   -7    7    8     -0.83      0.00
   -6    7    8     -0.28      0.00
   -5    7    8      0.51      0.00
   -4    7    8      0.17      0.00
   -3    7    8     -0.73      0.00
   -2    7    8     -0.07      0.00
   -1    7    8      1.94      0.00
    0    7    8      1.75      0.00
    1    7    8     -1.95      0.00
    2    7    8     -4.61      0.00
    3    7    8     -1.29      0.00
    4    7    8      4.52      0.00
    5    7    8      3.67      0.00
    6    7    8     -4.32      0.00
    7    7    8     -9.29      0.00
    8    7    8     -4.92      0.00
    9    7    8      3.90      0.00
   10    7    8      7.98      0.00
   11    7    8      4.39      0.00
   12    7    8     -0.83      0.00
   13    7    8     -1.97      0.00
   14    7    8     -0.44      0.00
   15    7    8      0.06      0.00
   16    7    8     -0.64      0.00
   -9    8    8     -0.06      0.00
   -8    8    8      0.10      0.00
   -7    8    8      0.85      0.00
   -6    8    8      0.91      0.00
   -5    8    8     -0.10      0.00
   -4    8    8     -0.67      0.00
   -3    8    8      0.16      0.00
   -2    8    8      0.68      0.00
   -1    8    8     -1.10      0.00
    0    8    8     -2.67      0.00
    1    8    8      0.11      0.00
    2    8    8      5.08      0.00
    3    8    8      5.17      0.00
    4    8    8     -1.25      0.00
    5    8    8     -5.97      0.00
    6    8    8     -1.52      0.00
    7    8    8      7.32      0.00
    8    8    8     10.05      0.00
    9    8    8      4.09      0.00
   10    8    8     -3.69      0.00
   11    8    8     -5.65      0.00
   12    8    8     -2.20      0.00
   13    8    8      0.31      0.00
   14    8    8     -0.40      0.00
   15    8    8     -1.29      0.00
   16    8    8     -0.59      0.00
   -8    9    8      0.34      0.00
   -7    9    8     -0.18      0.00
   -6    9    8     -0.88      0.00
   -5    9    8     -0.68      0.00
   -4    9    8      0.14      0.00
   -3    9    8      0.18      0.00
   -2    9    8     -0.76      0.00
   -1    9    8     -0.19      0.00
    0    9    8      2.54      0.00
    1    9    8      2.71      0.00
    2    9    8     -2.22      0.00
    3    9    8     -6.46      0.00
    4    9    8     -3.44      0.00
    5    9    8      4.00      0.00
    6    9    8      6.09      0.00
    7    9    8     -0.50      0.00
    8    9    8     -8.00      0.00
    9    9    8     -8.37      0.00
   10    9    8     -2.29      0.00
   11    9    8      3.12      0.00
   12    9    8      3.06      0.00
   13    9    8      0.65      0.00
   14    9    8      0.59      0.00
   15    9    8      1.88      0.00
   16    9    8      1.74      0.00
   -7   10    8     -0.32      0.00
   -6   10    8      0.24      0.00
   -5   10    8      0.62      0.00
   -4   10    8      0.49      0.00
   -3   10    8      0.34      0.00
   -2   10    8      0.91      0.00
   -1   10    8      1.19      0.00
    0   10    8     -1.09      0.00
    1   10    8     -3.95      0.00
    2   10    8     -2.13      0.00
    3   10    8      3.56      0.00
    4   10    8      5.58      0.00
    5   10    8      0.32      0.00
    6   10    8     -5.97      0.00
    7   10    8     -5.13      0.00
    8   10    8      1.83      0.00
    9   10    8      6.84      0.00
   10   10    8      5.41      0.00
   11   10    8      0.51      0.00
   12   10    8     -1.89      0.00
   13   10    8     -0.53      0.00
   14   10    8      0.36      0.00
   15   10    8     -0.92      0.00
   16   10    8     -1.82      0.00
   -6   11    8      0.13      0.00
   -5   11    8     -0.16      0.00
   -4   11    8     -0.15      0.00
   -3   11    8     -0.34      0.00
   -2   11    8     -1.10      0.00
   -1   11    8     -1.92      0.00
    0   11    8     -0.77      0.00
    1   11    8      2.90      0.00
    2   11    8      4.71      0.00
    3   11    8      1.10      0.00
    4   11    8     -3.87      0.00
    5   11    8     -3.40      0.00
    6   11    8      2.48      0.00
    7   11    8      6.30      0.00
    8   11    8      3.24      0.00
    9   11    8     -2.58      0.00
   10   11    8     -4.81      0.00
   11   11    8     -2.46      0.00
   12   11    8      0.38      0.00
   13   11    8      0.17      0.00
   14   11    8     -1.31      0.00
   15   11    8     -0.90      0.00
   16   11    8      0.52      0.00
   -5   12    8     -0.02      0.00
   -4   12    8     -0.17      0.00
   -3   12    8     -0.43      0.00
   -2   12    8      0.24      0.00
   -1   12    8      1.78      0.00
    0   12    8      2.27      0.00
    1   12    8     -0.35      0.00
    2   12    8     -4.18      0.00
    3   12    8     -4.16      0.00
    4   12    8      0.31      0.00
    5   12    8      3.60      0.00
    6   12    8      1.22      0.00
    7   12    8     -3.86      0.00
    8   12    8     -4.94      0.00
    9   12    8     -1.01      0.00
   10   12    8      2.65      0.00
   11   12    8      2.48      0.00
   12   12    8      0.25      0.00
   13   12    8     -0.39      0.00
   14   12    8      1.06      0.00
   15   12    8      1.79      0.00
   16   12    8      0.88      0.00
   -4   13    8      0.06      0.00
   -3   13    8      0.58      0.00
   -2   13    8      0.82      0.00
   -1   13    8     -0.37      0.00
    0   13    8     -2.23      0.00
    1   13    8     -2.03      0.00
    2   13    8      1.26      0.00
    3   13    8      4.03      0.00
    4   13    8      2.40      0.00
    5   13    8     -1.73      0.00
    6   13    8     -2.93      0.00
    7   13    8      0.45      0.00
    8   13    8      3.82      0.00
    9   13    8      2.75      0.00
   10   13    8     -0.66      0.00
   11   13    8     -1.85      0.00
   12   13    8     -0.29      0.00
   13   13    8      1.02      0.00
   14   13    8      0.20      0.00
   15   13    8     -1.12      0.00
   -2   14    8     -0.78      0.00
   -1   14    8     -0.76      0.00
    0   14    8      0.71      0.00
    1   14    8      2.33      0.00
    2   14    8      1.54      0.00
    3   14    8     -1.43      0.00
    4   14    8     -2.71      0.00
    5   14    8     -0.34      0.00
    6   14    8      2.44      0.00
    7   14    8      1.72      0.00
    8   14    8     -1.56      0.00
    9   14    8     -2.83      0.00
   10   14    8     -0.72      0.00
   11   14    8      1.25      0.00
   12   14    8      0.57      0.00
   13   14    8     -1.13      0.00
   14   14    8     -1.34      0.00
   15   14    8     -0.17      0.00
    0   15    8      0.46      0.00
    1   15    8     -0.89      0.00
    2   15    8     -1.99      0.00
    3   15    8     -0.99      0.00
    4   15    8      1.05      0.00
    5   15    8      1.07      0.00
    6   15    8     -1.08      0.00
    7   15    8     -2.12      0.00
    8   15    8     -0.34      0.00
    9   15    8      1.83      0.00
   10   15    8      1.39      0.00
   11   15    8     -0.58      0.00
   12   15    8     -1.02      0.00
   13   15    8      0.36      0.00
   14   15    8      1.39      0.00
    2   16    8      0.68      0.00
    3   16    8      1.27      0.00
    4   16    8      0.44      0.00
    5   16    8     -0.47      0.00
    6   16    8      0.24      0.00
    7   16    8      1.51      0.00
    8   16    8      1.18      0.00
    9   16    8     -0.51      0.00
   10   16    8     -1.23      0.00
   11   16    8     -0.09      0.00
   12   16    8      1.00      0.00
   13   16    8      0.53      0.00
    5   17    8     -0.03      0.00
    6   17    8     -0.10      0.00
    7   17    8     -0.89      0.00
    8   17    8     -1.15      0.00
    9   17    8     -0.34      0.00
   10   17    8      0.56      0.00
   -9  -16    9     -1.51      0.00
   -8  -16    9     -2.22      0.00
   -7  -16    9     -1.41      0.00
   -6  -16    9     -0.04      0.00
  -12  -15    9     -0.04      0.00
  -11  -15    9     -0.68      0.00
  -10  -15    9     -0.91      0.00
   -9  -15    9      0.35      0.00
   -8  -15    9      2.36      0.00
   -7  -15    9      2.99      0.00
   -6  -15    9      1.56      0.00
   -5  -15    9     -0.24      0.00
   -4  -15    9     -0.71      0.00
   -3  -15    9     -0.04      0.00
   -2  -15    9      0.51      0.00
  -13  -14    9      0.27      0.00
  -12  -14    9      0.02      0.00
  -11  -14    9      1.03      0.00
  -10  -14    9      2.50      0.00
   -9  -14    9      2.23      0.00
   -8  -14    9     -0.22      0.00
   -7  -14    9     -2.74      0.00
   -6  -14    9     -3.06      0.00
   -5  -14    9     -1.17      0.00
   -4  -14    9      0.71      0.00
   -3  -14    9      0.82      0.00
   -2  -14    9     -0.31      0.00
   -1  -14    9     -0.87      0.00
    0  -14    9     -0.25      0.00
  -14  -13    9     -0.40      0.00
  -13  -13    9     -0.39      0.00
  -12  -13    9      0.14      0.00
  -11  -13    9     -0.30      0.00
  -10  -13    9     -2.49      0.00
   -9  -13    9     -4.15      0.00
   -8  -13    9     -3.04      0.00
   -7  -13    9      0.12      0.00
   -6  -13    9      2.68      0.00
   -5  -13    9      2.58      0.00
   -4  -13    9      0.47      0.00
   -3  -13    9     -1.02      0.00
   -2  -13    9     -0.47      0.00
   -1  -13    9      0.86      0.00
    0  -13    9      0.97      0.00
    1  -13    9     -0.04      0.00
    2  -13    9     -0.58      0.00
  -15  -12    9      0.16      0.00
  -14  -12    9      0.13      0.00
  -13  -12    9     -0.06      0.00
  -12  -12    9     -0.62      0.00
  -11  -12    9     -1.03      0.00
  -10  -12    9      0.50      0.00
   -9  -12    9      3.31      0.00
   -8  -12    9      4.56      0.00
   -7  -12    9      3.03      0.00
   -6  -12    9     -0.13      0.00
   -5  -12    9     -2.30      0.00
   -4  -12    9     -1.73      0.00
   -3  -12    9      0.24      0.00
   -2  -12    9      0.89      0.00
   -1  -12    9     -0.29      0.00
    0  -12    9     -1.29      0.00
    1  -12    9     -0.66      0.00
    2  -12    9      0.52      0.00
    3  -12    9      0.72      0.00
    4  -12    9      0.04      0.00
  -15  -11    9     -0.12      0.00
  -14  -11    9     -0.33      0.00
  -13  -11    9      0.23      0.00
  -12  -11    9      1.17      0.00
  -11  -11    9      2.31      0.00
  -10  -11    9      2.19      0.00
   -9  -11    9     -0.14      0.00
   -8  -11    9     -2.81      0.00
   -7  -11    9     -3.82      0.00
   -6  -11    9     -2.54      0.00
   -5  -11    9      0.08      0.00
   -4  -11    9      1.49      0.00
   -3  -11    9      0.53      0.00
   -2  -11    9     -0.78      0.00
   -1  -11    9     -0.34      0.00
    0  -11    9      1.10      0.00
    1  -11    9      1.32      0.00
    2  -11    9      0.04      0.00
    3  -11    9     -1.06      0.00
    4  -11    9     -0.99      0.00
    5  -11    9     -0.23      0.00
  -15  -10    9     -0.21      0.00
  -14  -10    9      0.63      0.00
  -13  -10    9      0.49      0.00
  -12  -10    9     -0.65      0.00
  -11  -10    9     -2.32      0.00
  -10  -10    9     -3.71      0.00
   -9  -10    9     -3.12      0.00
   -7  -10    9      1.49      0.00
   -6  -10    9      2.67      0.00
   -5  -10    9      1.93      0.00
   -4  -10    9      0.25      0.00
   -3  -10    9     -0.12      0.00
   -2  -10    9      0.83      0.00
   -1  -10    9      1.01      0.00
    0  -10    9     -0.41      0.00
    1  -10    9     -1.67      0.00
    2  -10    9     -1.06      0.00
    3  -10    9      0.57      0.00
    4  -10    9      1.51      0.00
    5  -10    9      1.25      0.00
    6  -10    9      0.48      0.00
  -16   -9    9      0.26      0.00
  -15   -9    9      0.45      0.00
  -14   -9    9     -0.47      0.00
  -13   -9    9     -1.26      0.00
  -12   -9    9     -0.73      0.00
  -11   -9    9      0.68      0.00
  -10   -9    9      2.64      0.00
   -9   -9    9      4.02      0.00
   -8   -9    9      3.63      0.00
   -7   -9    9      1.97      0.00
   -6   -9    9     -0.09      0.00
   -5   -9    9     -1.39      0.00
   -4   -9    9     -1.20      0.00
   -3   -9    9     -0.88      0.00
   -2   -9    9     -1.49      0.00
   -1   -9    9     -1.95      0.00
    0   -9    9     -0.91      0.00
    1   -9    9      1.18      0.00
    2   -9    9      2.13      0.00
    3   -9    9      0.95      0.00
    4   -9    9     -0.84      0.00
    5   -9    9     -1.60      0.00
    6   -9    9     -1.10      0.00
    7   -9    9     -0.47      0.00
  -16   -8    9      0.05      0.00
  -15   -8    9     -0.27      0.00
  -14   -8    9      0.11      0.00
  -13   -8    9      1.24      0.00
  -12   -8    9      1.58      0.00
  -11   -8    9      0.89      0.00
  -10   -8    9     -0.25      0.00
   -9   -8    9     -1.85      0.00
   -8   -8    9     -3.30      0.00
   -7   -8    9     -3.77      0.00
   -6   -8    9     -2.89      0.00
   -5   -8    9     -1.21      0.00
   -4   -8    9     -0.21      0.00
   -3   -8    9      0.32      0.00
   -2   -8    9      1.54      0.00
   -1   -8    9      2.78      0.00
    0   -8    9      2.62      0.00
    1   -8    9      0.55      0.00
    2   -8    9     -2.08      0.00
    3   -8    9     -2.84      0.00
    4   -8    9     -1.28      0.00
    5   -8    9      0.63      0.00
    6   -8    9      1.07      0.00
    7   -8    9      0.34      0.00
    8   -8    9      0.12      0.00
  -16   -7    9      0.00      0.00
  -15   -7    9      0.17      0.00
  -14   -7    9      0.09      0.00
  -13   -7    9     -0.72      0.00
  -12   -7    9     -1.53      0.00
  -11   -7    9     -1.29      0.00
  -10   -7    9     -0.78      0.00
   -9   -7    9     -0.53      0.00
   -8   -7    9      0.28      0.00
   -7   -7    9      1.97      0.00
   -6   -7    9      3.37      0.00
   -5   -7    9      3.26      0.00
   -4   -7    9      2.46      0.00
   -3   -7    9      1.91      0.00
   -2   -7    9      0.54      0.00
   -1   -7    9     -1.87      0.00
    0   -7    9     -3.56      0.00
    1   -7    9     -2.98      0.00
    2   -7    9      0.01      0.00
    3   -7    9      3.15      0.00
    4   -7    9      3.67      0.00
    5   -7    9      1.75      0.00
    6   -7    9     -0.07      0.00
    7   -7    9     -0.06      0.00
    8   -7    9      0.62      0.00
    9   -7    9      0.21      0.00
  -16   -6    9     -0.06      0.00
  -15   -6    9     -0.56      0.00
  -14   -6    9     -0.44      0.00
  -13   -6    9      0.26      0.00
  -12   -6    9      1.28      0.00
  -11   -6    9      1.43      0.00
  -10   -6    9      0.58      0.00
   -9   -6    9      0.50      0.00
   -8   -6    9      1.44      0.00
   -7   -6    9      1.50      0.00
   -6   -6    9     -0.24      0.00
   -5   -6    9     -2.24      0.00
   -4   -6    9     -3.08      0.00
   -3   -6    9     -3.40      0.00
   -2   -6    9     -3.25      0.00
   -1   -6    9     -1.37      0.00
    0   -6    9      1.86      0.00
    1   -6    9      4.19      0.00
    2   -6    9      3.29      0.00
    3   -6    9     -0.58      0.00
    4   -6    9     -3.80      0.00
    5   -6    9     -3.80      0.00
    6   -6    9     -1.74      0.00
    7   -6    9     -0.42      0.00
    8   -6    9     -0.83      0.00
    9   -6    9     -1.15      0.00
   10   -6    9     -0.24      0.00
  -16   -5    9     -0.38      0.00
  -15   -5    9      0.56      0.00
  -14   -5    9      1.10      0.00
  -13   -5    9      0.44      0.00
  -12   -5    9     -0.96      0.00
  -11   -5    9     -1.93      0.00
  -10   -5    9     -1.07      0.00
   -9   -5    9      0.41      0.00
   -8   -5    9      0.00      0.00
   -7   -5    9     -1.99      0.00
   -6   -5    9     -2.95      0.00
   -5   -5    9     -1.57      0.00
   -4   -5    9      0.67      0.00
   -3   -5    9      2.33      0.00
   -2   -5    9      3.66      0.00
   -1   -5    9      4.11      0.00
    0   -5    9      2.12      0.00
    1   -5    9     -2.08      0.00
    2   -5    9     -5.14      0.00
    3   -5    9     -3.69      0.00
    4   -5    9      0.62      0.00
    5   -5    9      3.14      0.00
    6   -5    9      2.55      0.00
    7   -5    9      1.00      0.00
    8   -5    9      0.62      0.00
    9   -5    9      1.32      0.00
   10   -5    9      1.22      0.00
   11   -5    9      0.09      0.00
  -15   -4    9      0.37      0.00
  -14   -4    9     -0.94      0.00
  -13   -4    9     -1.37      0.00
  -12   -4    9     -0.16      0.00
  -11   -4    9      1.78      0.00
  -10   -4    9      2.20      0.00
   -9   -4    9      0.10      0.00
   -8   -4    9     -1.82      0.00
   -7   -4    9     -0.91      0.00
   -6   -4    9      1.89      0.00
   -5   -4    9      3.68      0.00
   -4   -4    9      3.01      0.00
   -3   -4    9      1.13      0.00
   -2   -4    9     -0.92      0.00
   -1   -4    9     -3.35      0.00
    0   -4    9     -4.74      0.00
    1   -4    9     -2.42      0.00
    2   -4    9      3.00      0.00
    3   -4    9      6.24      0.00
    4   -4    9      4.03      0.00
    5   -4    9      0.12      0.00
    6   -4    9     -1.13      0.00
    7   -4    9     -0.41      0.00
    8   -4    9     -0.03      0.00
    9   -4    9     -0.81      0.00
   10   -4    9     -1.71      0.00
   11   -4    9     -1.23      0.00
  -15   -3    9     -0.88      0.00
  -14   -3    9     -0.23      0.00
  -13   -3    9      1.30      0.00
  -12   -3    9      1.63      0.00
  -11   -3    9     -0.02      0.00
  -10   -3    9     -2.11      0.00
   -9   -3    9     -1.55      0.00
   -8   -3    9      1.51      0.00
   -7   -3    9      3.24      0.00
   -6   -3    9      1.72      0.00
   -5   -3    9     -1.45      0.00
   -4   -3    9     -3.65      0.00
   -3   -3    9     -4.04      0.00
   -2   -3    9     -3.28      0.00
   -1   -3    9     -0.89      0.00
    0   -3    9      3.07      0.00
    1   -3    9      5.17      0.00
    2   -3    9      1.98      0.00
    3   -3    9     -4.13      0.00
    4   -3    9     -6.50      0.00
    5   -3    9     -3.74      0.00
    6   -3    9     -1.13      0.00
    7   -3    9     -1.16      0.00
    8   -3    9     -1.52      0.00
    9   -3    9     -0.55      0.00
   10   -3    9      1.27      0.00
   11   -3    9      2.14      0.00
   12   -3    9      1.17      0.00
  -15   -2    9      0.38      0.00
  -14   -2    9      0.88      0.00
  -13   -2    9     -0.19      0.00
  -12   -2    9     -1.78      0.00
  -11   -2    9     -1.94      0.00
  -10   -2    9      0.14      0.00
   -9   -2    9      1.97      0.00
   -8   -2    9      0.39      0.00
   -7   -2    9     -2.75      0.00
   -6   -2    9     -3.55      0.00
   -5   -2    9     -1.66      0.00
   -4   -2    9      0.89      0.00
   -3   -2    9      3.04      0.00
   -2   -2    9      5.03      0.00
   -1   -2    9      5.53      0.00
    0   -2    9      2.16      0.00
    1   -2    9     -3.34      0.00
    2   -2    9     -5.30      0.00
    3   -2    9     -1.17      0.00
    4   -2    9      4.30      0.00
    5   -2    9      4.96      0.00
    6   -2    9      2.35      0.00
    7   -2    9      1.66      0.00
    8   -2    9      2.74      0.00
    9   -2    9      2.66      0.00
   10   -2    9      0.66      0.00
   11   -2    9     -1.70      0.00
   12   -2    9     -2.12      0.00
   13   -2    9     -0.74      0.00
  -14   -1    9     -0.70      0.00
  -13   -1    9     -0.66      0.00
  -12   -1    9      0.64      0.00
  -11   -1    9      2.06      0.00
  -10   -1    9      1.77      0.00
   -9   -1    9     -0.68      0.00
   -8   -1    9     -1.83      0.00
   -7   -1    9      0.35      0.00
   -3   -1    9      0.23      0.00
   -2   -1    9     -2.01      0.00
   -1   -1    9     -5.90      0.00
    0   -1    9     -6.86      0.00
    1   -1    9     -1.95      0.00
    2   -1    9      4.16      0.00
    3   -1    9      4.98      0.00
    4   -1    9      0.52      0.00
    5   -1    9     -2.83      0.00
    6   -1    9     -1.65      0.00
    7   -1    9     -0.16      0.00
    8   -1    9     -1.58      0.00
    9   -1    9     -3.48      0.00
   10   -1    9     -3.15      0.00
   11   -1    9     -0.63      0.00
   12   -1    9      1.60      0.00
   13   -1    9      1.33      0.00
  -14    0    9      0.56      0.00
  -13    0    9      1.06      0.00
  -12    0    9      0.54      0.00
  -11    0    9     -0.81      0.00
  -10    0    9     -1.86      0.00
   -9    0    9     -0.85      0.00
   -8    0    9      1.48      0.00
   -7    0    9      1.58      0.00
   -2    0    9     -2.25      0.00
   -1    0    9      0.91      0.00
    0    0    9      6.27      0.00
    1    0    9      6.47      0.00
    2    0    9      0.33      0.00
    3    0    9     -4.78      0.00
    4    0    9     -3.76      0.00
    5    0    9     -0.07      0.00
    6    0    9      0.15      0.00
    7    0    9     -2.26      0.00
    8    0    9     -1.94      0.00
    9    0    9      1.27      0.00
   10    0    9      3.63      0.00
   11    0    9      3.12      0.00
   12    0    9      0.57      0.00
   13    0    9     -0.93      0.00
   14    0    9     -0.28      0.00
  -14    1    9     -0.28      0.00
  -13    1    9     -1.07      0.00
  -12    1    9     -1.36      0.00
  -11    1    9     -0.46      0.00
  -10    1    9      0.93      0.00
   -9    1    9      1.35      0.00
   -8    1    9     -0.16      0.00
   -7    1    9     -1.52      0.00
   -2    1    9      3.03      0.00
   -1    1    9      4.22      0.00
    0    1    9     -0.52      0.00
    1    1    9     -6.09      0.00
    2    1    9     -4.57      0.00
    3    1    9      1.63      0.00
    4    1    9      4.06      0.00
    5    1    9      1.22      0.00
    6    1    9     -0.41      0.00
    7    1    9      2.66      0.00
    8    1    9      5.34      0.00
    9    1    9      3.26      0.00
   10    1    9     -0.92      0.00
   11    1    9     -3.22      0.00
   12    1    9     -2.45      0.00
   13    1    9     -0.42      0.00
   14    1    9      0.16      0.00
  -13    2    9      0.34      0.00
  -12    2    9      1.33      0.00
  -11    2    9      1.34      0.00
  -10    2    9      0.05      0.00
   -9    2    9     -1.17      0.00
   -8    2    9     -0.80      0.00
   -7    2    9      0.44      0.00
   -6    2    9      0.44      0.00
   -5    2    9     -0.17      0.00
   -4    2    9      0.58      0.00
   -2    2    9     -0.51      0.00
   -1    2    9     -4.52      0.00
    0    2    9     -4.47      0.00
    1    2    9      1.50      0.00
    2    2    9      5.36      0.00
    3    2    9      1.84      0.00
    4    2    9     -2.67      0.00
    5    2    9     -1.37      0.00
    6    2    9      2.30      0.00
    7    2    9      0.93      0.00
    8    2    9     -4.62      0.00
    9    2    9     -6.84      0.00
   10    2    9     -3.68      0.00
   11    2    9      0.53      0.00
   12    2    9      2.23      0.00
   13    2    9      1.34      0.00
   14    2    9      0.27      0.00
   15    2    9      0.27      0.00
  -13    3    9      0.34      0.00
  -12    3    9     -0.37      0.00
  -11    3    9     -1.31      0.00
  -10    3    9     -0.89      0.00
   -9    3    9      0.55      0.00
   -8    3    9      1.11      0.00
   -7    3    9      0.33      0.00
   -6    3    9      0.08      0.00
   -5    3    9      0.79      0.00
   -4    3    9      0.36      0.00
   -3    3    9     -1.49      0.00
   -1    3    9      1.18      0.00
    0    3    9      4.50      0.00
    1    3    9      2.23      0.00
    2    3    9     -3.30      0.00
    3    3    9     -3.58      0.00
    4    3    9      1.09      0.00
    5    3    9      2.12      0.00
    6    3    9     -2.66      0.00
    7    3    9     -5.65      0.00
    8    3    9     -1.30      0.00
    9    3    9      5.38      0.00
   10    3    9      6.86      0.00
   11    3    9      3.38      0.00
   12    3    9     -0.11      0.00
   13    3    9     -0.93      0.00
   14    3    9     -0.30      0.00
   15    3    9     -0.18      0.00
  -12    4    9     -0.33      0.00
  -11    4    9      0.47      0.00
  -10    4    9      1.00      0.00
   -9    4    9      0.23      0.00
   -8    4    9     -0.73      0.00
   -7    4    9     -0.52      0.00
   -6    4    9     -0.11      0.00
   -5    4    9     -0.79      0.00
   -4    4    9     -1.19      0.00
   -3    4    9      0.25      0.00
   -2    4    9      2.04      0.00
   -1    4    9      1.34      0.00
    0    4    9     -1.84      0.00
    1    4    9     -2.61      0.00
    2    4    9      1.59      0.00
    3    4    9      4.25      0.00
    4    4    9      0.39      0.00
    5    4    9     -3.55      0.00
    6    4    9     -0.32      0.00
    7    4    9      6.45      0.00
    8    4    9      7.64      0.00
    9    4    9      1.26      0.00
   10    4    9     -5.24      0.00
   11    4    9     -5.82      0.00
   12    4    9     -2.56      0.00
   13    4    9     -0.31      0.00
   14    4    9     -0.25      0.00
   15    4    9     -0.36      0.00
  -11    5    9      0.12      0.00
  -10    5    9     -0.41      0.00
   -9    5    9     -0.29      0.00
   -8    5    9      0.33      0.00
   -7    5    9      0.31      0.00
   -6    5    9     -0.13      0.00
   -5    5    9      0.28      0.00
   -4    5    9      1.18      0.00
   -3    5    9      0.73      0.00
   -2    5    9     -0.92      0.00
   -1    5    9     -1.40      0.00
    0    5    9      0.60      0.00
    1    5    9      2.28      0.00
    2    5    9     -0.56      0.00
    3    5    9     -4.93      0.00
    4    5    9     -3.01      0.00
    5    5    9      3.63      0.00
    6    5    9      5.05      0.00
    7    5    9     -1.64      0.00
    8    5    9     -8.55      0.00
    9    5    9     -7.70      0.00
   10    5    9     -0.63      0.00
   11    5    9      4.54      0.00
   12    5    9      4.09      0.00
   13    5    9      1.53      0.00
   14    5    9      0.68      0.00
   15    5    9      1.01      0.00
   16    5    9      0.60      0.00
  -11    6    9     -0.18      0.00
  -10    6    9      0.02      0.00
   -9    6    9     -0.08      0.00
   -8    6    9     -0.62      0.00
   -7    6    9     -0.52      0.00
   -6    6    9      0.30      0.00
   -5    6    9      0.40      0.00
   -4    6    9     -0.61      0.00
   -3    6    9     -0.99      0.00
   -2    6    9      0.24      0.00
   -1    6    9      1.05      0.00
    0    6    9     -0.70      0.00
    1    6    9     -3.31      0.00
    2    6    9     -1.97      0.00
    3    6    9      3.83      0.00
    4    6    9      6.10      0.00
    5    6    9     -0.15      0.00
    6    6    9     -7.17      0.00
    7    6    9     -5.53      0.00
    8    6    9      2.86      0.00
    9    6    9      8.53      0.00
   10    6    9      6.05      0.00
   11    6    9     -0.28      0.00
   12    6    9     -3.23      0.00
   13    6    9     -1.94      0.00
   14    6    9     -0.52      0.00
   15    6    9     -0.87      0.00
   16    6    9     -1.14      0.00
  -10    7    9      0.05      0.00
   -9    7    9      0.03      0.00
   -8    7    9      0.73      0.00
   -7    7    9      1.18      0.00
   -6    7    9      0.32      0.00
   -5    7    9     -0.72      0.00
   -4    7    9     -0.34      0.00
   -3    7    9      0.65      0.00
   -2    7    9      0.07      0.00
   -1    7    9     -1.43      0.00
    0    7    9     -0.35      0.00
    1    7    9      3.63      0.00
    2    7    9      5.36      0.00
    3    7    9      0.58      0.00
    4    7    9     -5.98      0.00
    5    7    9     -4.85      0.00
    6    7    9      3.70      0.00
    7    7    9      9.01      0.00
    8    7    9      4.96      0.00
    9    7    9     -3.31      0.00
   10    7    9     -6.95      0.00
   11    7    9     -3.65      0.00
   12    7    9      0.69      0.00
   13    7    9      1.23      0.00
   14    7    9     -0.20      0.00
   15    7    9     -0.22      0.00
   16    7    9      0.75      0.00
   -9    8    9      0.18      0.00
   -8    8    9     -0.13      0.00
   -7    8    9     -1.02      0.00
   -6    8    9     -1.08      0.00
   -5    8    9      0.00      0.00
   -4    8    9      0.71      0.00
   -3    8    9      0.08      0.00
   -2    8    9     -0.21      0.00
   -1    8    9      1.46      0.00
    0    8    9      2.31      0.00
    1    8    9     -1.20      0.00
    2    8    9     -6.13      0.00
    3    8    9     -5.53      0.00
    4    8    9      1.53      0.00
    5    8    9      6.52      0.00
    6    8    9      2.38      0.00
    7    8    9     -5.94      0.00
    8    8    9     -8.59      0.00
    9    8    9     -3.34      0.00
   10    8    9      3.33      0.00
   11    8    9      4.62      0.00
   12    8    9      1.46      0.00
   13    8    9     -0.28      0.00
   14    8    9      0.84      0.00
   15    8    9      1.56      0.00
   16    8    9      0.52      0.00
   -8    9    9     -0.32      0.00
   -7    9    9      0.20      0.00
   -6    9    9      0.79      0.00
   -5    9    9      0.60      0.00
   -4    9    9     -0.01      0.00
   -3    9    9     -0.06      0.00
   -2    9    9      0.37      0.00
   -1    9    9     -0.69      0.00
    0    9    9     -3.08      0.00
    1    9    9     -2.35      0.00
    2    9    9      3.01      0.00
    3    9    9      6.97      0.00
    4    9    9      3.65      0.00
    5    9    9     -3.70      0.00
    6    9    9     -5.84      0.00
    7    9    9     -0.12      0.00
    8    9    9      6.23      0.00
    9    9    9      6.34      0.00
   10    9    9      1.21      0.00
   11    9    9     -2.79      0.00
   12    9    9     -2.00      0.00
   13    9    9      0.11      0.00
   14    9    9     -0.40      0.00
   15    9    9     -1.90      0.00
   16    9    9     -1.68      0.00
   -7   10    9      0.18      0.00
   -6   10    9     -0.23      0.00
   -5   10    9     -0.27      0.00
   -4   10    9     -0.17      0.00
   -3   10    9     -0.48      0.00
   -2   10    9     -1.08      0.00
   -1   10    9     -0.70      0.00
    0   10    9      1.98      0.00
    1   10    9      4.25      0.00
    2   10    9      1.62      0.00
    3   10    9     -4.12      0.00
    4   10    9     -5.78      0.00
    5   10    9     -0.61      0.00
    6   10    9      5.18      0.00
    7   10    9      4.37      0.00
    8   10    9     -1.44      0.00
    9   10    9     -5.10      0.00
   10   10    9     -3.42      0.00
   11   10    9      0.39      0.00
   12   10    9      1.41      0.00
   13   10    9     -0.44      0.00
   14   10    9     -1.00      0.00
   15   10    9      0.59      0.00
   16   10    9      1.57      0.00
   -6   11    9      0.10      0.00
   -5   11    9      0.10      0.00
   -4   11    9     -0.35      0.00
   -3   11    9     -0.07      0.00
   -2   11    9      1.23      0.00
   -1   11    9      2.11      0.00
    0   11    9      0.43      0.00
    1   11    9     -3.35      0.00
    2   11    9     -4.57      0.00
    3   11    9     -0.61      0.00
    4   11    9      4.05      0.00
    5   11    9      3.30      0.00
    6   11    9     -2.18      0.00
    7   11    9     -5.26      0.00
    8   11    9     -2.25      0.00
    9   11    9      2.40      0.00
   10   11    9      3.40      0.00
   11   11    9      0.94      0.00
   12   11    9     -0.86      0.00
   13   11    9      0.32      0.00
   14   11    9      1.87      0.00
   15   11    9      1.19      0.00
   16   11    9     -0.26      0.00
   -5   12    9     -0.21      0.00
   -4   12    9      0.25      0.00
   -3   12    9      0.86      0.00
   -2   12    9      0.06      0.00
   -1   12    9     -1.89      0.00
    0   12    9     -2.45      0.00
    1   12    9      0.38      0.00
    2   12    9      4.10      0.00
    3   12    9      3.87      0.00
    4   12    9     -0.37      0.00
    5   12    9     -3.15      0.00
    6   12    9     -0.74      0.00
    7   12    9      3.58      0.00
    8   12    9      3.79      0.00
    9   12    9     -0.06      0.00
   10   12    9     -2.65      0.00
   11   12    9     -1.50      0.00
   12   12    9      0.70      0.00
   13   12    9      0.57      0.00
   14   12    9     -1.30      0.00
   15   12    9     -1.84      0.00
   -3   13    9     -0.59      0.00
   -2   13    9     -1.03      0.00
   -1   13    9      0.21      0.00
    0   13    9      2.21      0.00
    1   13    9      2.07      0.00
    2   13    9     -1.09      0.00
    3   13    9     -3.69      0.00
    4   13    9     -2.28      0.00
    5   13    9      1.19      0.00
    6   13    9      1.92      0.00
    7   13    9     -1.10      0.00
    8   13    9     -3.41      0.00
    9   13    9     -1.56      0.00
   10   13    9      1.62      0.00
   11   13    9      1.91      0.00
   12   13    9     -0.29      0.00
   13   13    9     -1.47      0.00
   14   13    9     -0.25      0.00
   15   13    9      1.10      0.00
   -2   14    9      0.71      0.00
   -1   14    9      0.80      0.00
    0   14    9     -0.54      0.00
    1   14    9     -2.03      0.00
    2   14    9     -1.36      0.00
    3   14    9      1.18      0.00
    4   14    9      2.26      0.00
    5   14    9      0.40      0.00
    6   14    9     -1.57      0.00
    7   14    9     -0.59      0.00
    8   14    9      1.99      0.00
    9   14    9      2.25      0.00
   10   14    9     -0.27      0.00
   11   14    9     -1.86      0.00
   12   14    9     -0.60      0.00
   13   14    9      1.35      0.00
   14   14    9      1.42      0.00
    0   15    9     -0.49      0.00
    1   15    9      0.58      0.00
    2   15    9      1.44      0.00
    3   15    9      0.72      0.00
    4   15    9     -0.66      0.00
    5   15    9     -0.48      0.00
    6   15    9      1.00      0.00
    7   15    9      1.25      0.00
    8   15    9     -0.54      0.00
    9   15    9     -1.94      0.00
   10   15    9     -0.86      0.00
   11   15    9      1.09      0.00
   12   15    9      1.22      0.00
   13   15    9     -0.31      0.00
    2   16    9     -0.34      0.00
    3   16    9     -0.74      0.00
    4   16    9     -0.32      0.00
    5   16    9     -0.10      0.00
    6   16    9     -0.88      0.00
    7   16    9     -1.41      0.00
    8   16    9     -0.47      0.00
    9   16    9      1.04      0.00
   10   16    9      1.19      0.00
   11   16    9     -0.13      0.00
   12   16    9     -1.01      0.00
    6   17    9      0.67      0.00
    7   17    9      1.33      0.00
    8   17    9      0.96      0.00
    9   17    9     -0.18      0.00
  -11  -15   10      0.81      0.00
  -10  -15   10      0.96      0.00
   -9  -15   10     -0.22      0.00
   -8  -15   10     -2.06      0.00
   -7  -15   10     -2.74      0.00
   -6  -15   10     -1.56      0.00
   -5  -15   10      0.16      0.00
   -4  -15   10      0.80      0.00
   -3  -15   10      0.28      0.00
  -12  -14   10     -0.48      0.00
  -11  -14   10     -1.12      0.00
  -10  -14   10     -2.28      0.00
   -9  -14   10     -1.99      0.00
   -8  -14   10      0.23      0.00
   -7  -14   10      2.56      0.00
   -6  -14   10      2.99      0.00
   -5  -14   10      1.37      0.00
   -4  -14   10     -0.48      0.00
   -3  -14   10     -0.79      0.00
   -2  -14   10      0.07      0.00
   -1  -14   10      0.41      0.00
    0  -14   10     -0.19      0.00
  -13  -13   10      0.82      0.00
  -12  -13   10      0.58      0.00
  -11  -13   10      0.73      0.00
  -10  -13   10      2.34      0.00
   -9  -13   10      3.62      0.00
   -8  -13   10      2.54      0.00
   -7  -13   10     -0.29      0.00
   -6  -13   10     -2.56      0.00
   -5  -13   10     -2.53      0.00
   -4  -13   10     -0.71      0.00
   -3  -13   10      0.65      0.00
   -2  -13   10      0.23      0.00
   -1  -13   10     -0.69      0.00
    0  -13   10     -0.41      0.00
    1  -13   10      0.55      0.00
  -14  -12   10     -0.05      0.00
  -13  -12   10     -0.27      0.00
  -12  -12   10     -0.09      0.00
  -11  -12   10      0.29      0.00
  -10  -12   10     -0.85      0.00
   -9  -12   10     -3.08      0.00
   -8  -12   10     -3.91      0.00
   -7  -12   10     -2.36      0.00
   -6  -12   10      0.36      0.00
   -5  -12   10      2.07      0.00
   -4  -12   10      1.52      0.00
   -3  -12   10     -0.03      0.00
   -2  -12   10     -0.32      0.00
   -1  -12   10      0.77      0.00
    0  -12   10      1.17      0.00
    1  -12   10      0.08      0.00
    2  -12   10     -0.99      0.00
    3  -12   10     -0.88      0.00
  -15  -11   10      0.08      0.00
  -14  -11   10      0.27      0.00
  -13  -11   10      0.05      0.00
  -12  -11   10     -0.48      0.00
  -11  -11   10     -1.48      0.00
  -10  -11   10     -1.46      0.00
   -9  -11   10      0.57      0.00
   -8  -11   10      2.71      0.00
   -7  -11   10      3.13      0.00
   -6  -11   10      1.77      0.00
   -5  -11   10     -0.23      0.00
   -4  -11   10     -1.02      0.00
   -3  -11   10     -0.14      0.00
   -2  -11   10      0.54      0.00
   -1  -11   10     -0.42      0.00
    0  -11   10     -1.66      0.00
    1  -11   10     -1.16      0.00
    2  -11   10      0.49      0.00
    3  -11   10      1.41      0.00
    4  -11   10      1.13      0.00
  -15  -10   10      0.24      0.00
  -14  -10   10     -0.32      0.00
  -13  -10   10     -0.37      0.00
  -12  -10   10      0.21      0.00
  -11  -10   10      1.51      0.00
  -10  -10   10      2.82      0.00
   -9  -10   10      2.26      0.00
   -8  -10   10      0.19      0.00
   -7  -10   10     -1.43      0.00
   -6  -10   10     -1.82      0.00
   -5  -10   10     -1.10      0.00
   -4  -10   10     -0.28      0.00
   -3  -10   10     -0.56      0.00
   -2  -10   10     -1.29      0.00
   -1  -10   10     -0.72      0.00
    0  -10   10      1.16      0.00
    1  -10   10      2.07      0.00
    2  -10   10      0.83      0.00
    3  -10   10     -0.95      0.00
    4  -10   10     -1.65      0.00
    5  -10   10     -1.21      0.00
    6  -10   10     -0.45      0.00
  -15   -9   10     -0.29      0.00
  -14   -9   10      0.14      0.00
  -13   -9   10      0.58      0.00
  -12   -9   10      0.36      0.00
  -11   -9   10     -0.44      0.00
  -10   -9   10     -1.94      0.00
   -9   -9   10     -3.03      0.00
   -8   -9   10     -2.56      0.00
   -7   -9   10     -1.30      0.00
   -6   -9   10     -0.17      0.00
   -5   -9   10      0.37      0.00
   -4   -9   10      0.47      0.00
   -3   -9   10      1.11      0.00
   -2   -9   10      2.24      0.00
   -1   -9   10      2.39      0.00
    0   -9   10      0.66      0.00
    1   -9   10     -1.69      0.00
    2   -9   10     -2.23      0.00
    3   -9   10     -0.68      0.00
    4   -9   10      1.03      0.00
    5   -9   10      1.51      0.00
    6   -9   10      0.89      0.00
    7   -9   10      0.41      0.00
  -15   -8   10     -0.06      0.00
  -14   -8   10     -0.23      0.00
  -13   -8   10     -0.71      0.00
  -12   -8   10     -0.62      0.00
  -11   -8   10     -0.14      0.00
  -10   -8   10      0.45      0.00
   -8   -8   10      2.23      0.00
   -7   -8   10      2.61      0.00
   -6   -8   10      2.35      0.00
   -5   -8   10      1.65      0.00
   -4   -8   10      1.07      0.00
   -3   -8   10      0.03      0.00
   -2   -8   10     -1.95      0.00
   -1   -8   10     -3.46      0.00
    0   -8   10     -2.95      0.00
    1   -8   10     -0.42      0.00
    2   -8   10      2.17      0.00
    3   -8   10      2.56      0.00
    4   -8   10      0.94      0.00
    5   -8   10     -0.68      0.00
    6   -8   10     -0.86      0.00
    7   -8   10     -0.19      0.00
    8   -8   10     -0.23      0.00
  -15   -7   10     -0.01      0.00
  -14   -7   10      0.42      0.00
  -13   -7   10      1.05      0.00
  -12   -7   10      1.08      0.00
  -11   -7   10      0.23      0.00
  -10   -7   10     -0.33      0.00
   -9   -7   10     -0.17      0.00
   -8   -7   10     -0.15      0.00
   -7   -7   10     -1.02      0.00
   -6   -7   10     -2.29      0.00
   -5   -7   10     -2.82      0.00
   -4   -7   10     -2.71      0.00
   -3   -7   10     -2.22      0.00
   -2   -7   10     -0.38      0.00
   -1   -7   10      2.37      0.00
    0   -7   10      4.01      0.00
    1   -7   10      3.11      0.00
    2   -7   10      0.03      0.00
    3   -7   10     -2.71      0.00
    4   -7   10     -2.97      0.00
    5   -7   10     -1.34      0.00
    6   -7   10      0.02      0.00
    7   -7   10     -0.11      0.00
    8   -7   10     -0.53      0.00
    9   -7   10      0.06      0.00
  -15   -6   10      0.67      0.00
  -14   -6   10      0.13      0.00
  -13   -6   10     -1.12      0.00
  -12   -6   10     -1.89      0.00
  -11   -6   10     -1.13      0.00
  -10   -6   10      0.39      0.00
   -9   -6   10      0.72      0.00
   -8   -6   10     -0.39      0.00
   -7   -6   10     -1.18      0.00
   -6   -6   10     -0.33      0.00
   -5   -6   10      1.33      0.00
   -4   -6   10      2.50      0.00
   -3   -6   10      3.18      0.00
   -2   -6   10      2.91      0.00
   -1   -6   10      0.80      0.00
    0   -6   10     -2.30      0.00
    1   -6   10     -4.23      0.00
    2   -6   10     -3.13      0.00
    3   -6   10      0.30      0.00
    4   -6   10      2.83      0.00
    5   -6   10      2.79      0.00
    6   -6   10      1.39      0.00
    7   -6   10      0.61      0.00
    8   -6   10      0.95      0.00
    9   -6   10      0.92      0.00
   10   -6   10      0.02      0.00
  -15   -5   10     -0.67      0.00
  -14   -5   10     -1.12      0.00
  -13   -5   10      0.16      0.00
  -12   -5   10      2.06      0.00
  -11   -5   10      2.54      0.00
  -10   -5   10      0.88      0.00
   -9   -5   10     -0.96      0.00
   -8   -5   10     -0.84      0.00
   -7   -5   10      0.82      0.00
   -6   -5   10      2.02      0.00
   -5   -5   10      1.55      0.00
   -4   -5   10      0.02      0.00
   -3   -5   10     -1.65      0.00
   -2   -5   10     -3.11      0.00
   -1   -5   10     -3.32      0.00
    0   -5   10     -1.32      0.00
    1   -5   10      2.23      0.00
    2   -5   10      4.57      0.00
    3   -5   10      3.22      0.00
    4   -5   10     -0.15      0.00
    5   -5   10     -1.92      0.00
    6   -5   10     -1.60      0.00
    7   -5   10     -0.89      0.00
    8   -5   10     -0.98      0.00
    9   -5   10     -1.46      0.00
   10   -5   10     -1.05      0.00
  -15   -4   10     -0.23      0.00
  -14   -4   10      1.04      0.00
  -13   -4   10      1.15      0.00
  -12   -4   10     -0.73      0.00
  -11   -4   10     -2.75      0.00
  -10   -4   10     -2.50      0.00
   -9   -4   10     -0.17      0.00
   -8   -4   10      1.46      0.00
   -7   -4   10      1.02      0.00
   -6   -4   10     -0.60      0.00
   -5   -4   10     -1.99      0.00
   -4   -4   10     -2.27      0.00
   -3   -4   10     -1.38      0.00
   -2   -4   10      0.50      0.00
   -1   -4   10      2.73      0.00
    0   -4   10      3.60      0.00
    1   -4   10      1.55      0.00
    2   -4   10     -2.60      0.00
    3   -4   10     -4.96      0.00
    4   -4   10     -3.28      0.00
    5   -4   10     -0.59      0.00
    6   -4   10      0.11      0.00
    7   -4   10     -0.19      0.00
    8   -4   10      0.15      0.00
    9   -4   10      1.22      0.00
   10   -4   10      1.85      0.00
   11   -4   10      1.12      0.00
  -15   -3   10      0.55      0.00
  -14   -3   10     -0.02      0.00
  -13   -3   10     -1.28      0.00
  -12   -3   10     -1.03      0.00
  -11   -3   10      1.04      0.00
  -10   -3   10      2.62      0.00
   -9   -3   10      1.51      0.00
   -8   -3   10     -0.90      0.00
   -7   -3   10     -1.89      0.00
   -6   -3   10     -1.33      0.00
   -5   -3   10     -0.14      0.00
   -4   -3   10      1.31      0.00
   -3   -3   10      2.64      0.00
   -2   -3   10      2.79      0.00
   -1   -3   10      0.78      0.00
    0   -3   10     -2.32      0.00
    1   -3   10     -3.59      0.00
    2   -3   10     -1.18      0.00
    3   -3   10      3.08      0.00
    4   -3   10      4.69      0.00
    5   -3   10      2.85      0.00
    6   -3   10      1.40      0.00
    7   -3   10      1.76      0.00
    8   -3   10      1.83      0.00
    9   -3   10      0.44      0.00
   10   -3   10     -1.49      0.00
   11   -3   10     -2.13      0.00
   12   -3   10     -1.05      0.00
  -15   -2   10     -0.12      0.00
  -14   -2   10     -0.44      0.00
  -13   -2   10      0.48      0.00
  -12   -2   10      1.50      0.00
  -11   -2   10      0.99      0.00
  -10   -2   10     -0.93      0.00
   -9   -2   10     -1.82      0.00
   -8   -2   10     -0.21      0.00
   -4   -2   10      0.84      0.00
   -3   -2   10     -0.54      0.00
   -2   -2   10     -3.09      0.00
   -1   -2   10     -4.13      0.00
    0   -2   10     -1.60      0.00
    1   -2   10      2.18      0.00
    2   -2   10      3.26      0.00
    3   -2   10      0.54      0.00
    4   -2   10     -2.83      0.00
    5   -2   10     -3.07      0.00
    6   -2   10     -1.54      0.00
    7   -2   10     -1.76      0.00
    8   -2   10     -3.07      0.00
    9   -2   10     -2.89      0.00
   10   -2   10     -0.72      0.00
   11   -2   10      1.62      0.00
   12   -2   10      1.92      0.00
  -14   -1   10      0.38      0.00
  -13   -1   10      0.17      0.00
  -12   -1   10     -0.83      0.00
  -11   -1   10     -1.53      0.00
  -10   -1   10     -0.85      0.00
   -9   -1   10      0.86      0.00
   -3   -1   10     -1.46      0.00
   -2   -1   10     -0.07      0.00
   -1   -1   10      3.48      0.00
    0   -1   10      4.55      0.00
    1   -1   10      1.19      0.00
    2   -1   10     -2.53      0.00
    3   -1   10     -2.70      0.00
    4   -1   10     -0.03      0.00
    5   -1   10      1.44      0.00
    6   -1   10      0.18      0.00
    7   -1   10     -0.35      0.00
    8   -1   10      1.68      0.00
    9   -1   10      3.70      0.00
   10   -1   10      3.33      0.00
   11   -1   10      0.80      0.00
   12   -1   10     -1.31      0.00
   13   -1   10     -1.07      0.00
  -14    0   10     -0.39      0.00
  -13    0   10     -0.68      0.00
  -12    0   10     -0.10      0.00
  -11    0   10      0.86      0.00
  -10    0   10      1.33      0.00
   -9    0   10      0.44      0.00
   -2    0   10      2.37      0.00
   -1    0   10      0.64      0.00
    0    0   10     -3.24      0.00
    1    0   10     -3.35      0.00
    2    0   10      0.54      0.00
    3    0   10      3.01      0.00
    4    0   10      1.59      0.00
    5    0   10     -0.42      0.00
    6    0   10      0.76      0.00
    7    0   10      3.04      0.00
    8    0   10      2.05      0.00
    9    0   10     -1.41      0.00
   10    0   10     -3.69      0.00
   11    0   10     -3.10      0.00
   12    0   10     -0.72      0.00
   13    0   10      0.62      0.00
   14    0   10      0.15      0.00
  -13    1   10      0.81      0.00
  -12    1   10      0.90      0.00
  -11    1   10      0.11      0.00
  -10    1   10     -0.88      0.00
   -9    1   10     -1.10      0.00
   -8    1   10     -0.08      0.00
   -2    1   10     -1.28      0.00
   -1    1   10     -3.26      0.00
    0    1   10     -0.84      0.00
    1    1   10      2.34      0.00
    2    1   10      0.87      0.00
    3    1   10     -2.67      0.00
    4    1   10     -2.60      0.00
    5    1   10      0.51      0.00
    6    1   10      0.88      0.00
    7    1   10     -2.99      0.00
    8    1   10     -5.43      0.00
    9    1   10     -3.04      0.00
   10    1   10      1.00      0.00
   11    1   10      3.04      0.00
   12    1   10      2.29      0.00
   13    1   10      0.56      0.00
   14    1   10      0.02      0.00
  -13    2   10     -0.31      0.00
  -12    2   10     -0.91      0.00
  -11    2   10     -0.80      0.00
  -10    2   10      0.15      0.00
   -9    2   10      1.06      0.00
   -8    2   10      0.88      0.00
   -7    2   10      0.15      0.00
   -6    2   10      0.29      0.00
   -2    2   10     -0.95      0.00
   -1    2   10      2.07      0.00
    0    2   10      2.92      0.00
    1    2   10     -0.04      0.00
    2    2   10     -1.23      0.00
    3    2   10      1.97      0.00
    4    2   10      3.88      0.00
    5    2   10      0.52      0.00
    6    2   10     -3.30      0.00
    7    2   10     -1.23      0.00
    8    2   10      4.42      0.00
    9    2   10      6.33      0.00
   10    2   10      3.24      0.00
   11    2   10     -0.56      0.00
   12    2   10     -1.99      0.00
   13    2   10     -1.26      0.00
   14    2   10     -0.44      0.00
  -12    3   10      0.24      0.00
  -11    3   10      0.68      0.00
  -10    3   10      0.39      0.00
   -9    3   10     -0.51      0.00
   -8    3   10     -0.91      0.00
   -7    3   10     -0.53      0.00
   -6    3   10     -0.62      0.00
   -5    3   10     -1.28      0.00
   -4    3   10     -0.88      0.00
   -3    3   10      0.73      0.00
   -2    3   10      1.66      0.00
   -1    3   10      0.22      0.00
    0    3   10     -1.77      0.00
    1    3   10     -0.51      0.00
    2    3   10      1.89      0.00
    3    3   10     -0.19      0.00
    4    3   10     -4.38      0.00
    5    3   10     -3.34      0.00
    6    3   10      2.75      0.00
    7    3   10      5.76      0.00
    8    3   10      1.44      0.00
    9    3   10     -4.64      0.00
   10    3   10     -5.84      0.00
   11    3   10     -2.75      0.00
   12    3   10      0.24      0.00
   13    3   10      0.88      0.00
   14    3   10      0.42      0.00
   15    3   10      0.36      0.00
  -12    4   10      0.05      0.00
  -11    4   10     -0.20      0.00
  -10    4   10     -0.33      0.00
   -9    4   10      0.08      0.00
   -8    4   10      0.44      0.00
   -7    4   10      0.21      0.00
   -6    4   10      0.23      0.00
   -5    4   10      1.17      0.00
   -4    4   10      1.64      0.00
   -3    4   10      0.58      0.00
   -2    4   10     -0.80      0.00
   -1    4   10     -0.75      0.00
    0    4   10      0.57      0.00
    1    4   10     -0.02      0.00
    2    4   10     -3.25      0.00
    3    4   10     -3.26      0.00
    4    4   10      2.29      0.00
    5    4   10      5.78      0.00
    6    4   10      1.39      0.00
    7    4   10     -5.78      0.00
    8    4   10     -7.04      0.00
    9    4   10     -1.46      0.00
   10    4   10      4.04      0.00
   11    4   10      4.53      0.00
   12    4   10      1.84      0.00
   13    4   10      0.06      0.00
   14    4   10      0.13      0.00
   15    4   10      0.17      0.00
  -11    5   10      0.12      0.00
  -10    5   10      0.16      0.00
   -9    5   10     -0.17      0.00
   -8    5   10     -0.40      0.00
   -7    5   10      0.07      0.00
   -6    5   10      0.50      0.00
   -5    5   10     -0.26      0.00
   -4    5   10     -1.42      0.00
   -3    5   10     -1.21      0.00
   -2    5   10     -0.07      0.00
   -1    5   10      0.06      0.00
    0    5   10     -1.20      0.00
    1    5   10     -1.18      0.00
    2    5   10      2.76      0.00
    3    5   10      6.37      0.00
    4    5   10      2.76      0.00
    5    5   10     -4.71      0.00
    6    5   10     -5.95      0.00
    7    5   10      0.77      0.00
    8    5   10      7.32      0.00
    9    5   10      6.76      0.00
   10    5   10      0.96      0.00
   11    5   10     -3.26      0.00
   12    5   10     -2.94      0.00
   13    5   10     -0.95      0.00
   14    5   10     -0.50      0.00
   15    5   10     -0.90      0.00
  -10    6   10     -0.27      0.00
   -9    6   10      0.14      0.00
   -8    6   10      0.81      0.00
   -7    6   10      0.53      0.00
   -6    6   10     -0.56      0.00
   -5    6   10     -0.74      0.00
   -4    6   10      0.42      0.00
   -3    6   10      1.02      0.00
   -2    6   10      0.12      0.00
   -1    6   10     -0.19      0.00
    0    6   10      1.74      0.00
    1    6   10      3.66      0.00
    2    6   10      1.09      0.00
    3    6   10     -5.31      0.00
    4    6   10     -7.21      0.00
    5    6   10     -0.52      0.00
    6    6   10      6.53      0.00
    7    6   10      5.22      0.00
    8    6   10     -2.15      0.00
    9    6   10     -6.98      0.00
   10    6   10     -4.96      0.00
   11    6   10      0.08      0.00
   12    6   10      2.35      0.00
   13    6   10      1.25      0.00
   14    6   10      0.26      0.00
   15    6   10      0.83      0.00
  -10    7   10      0.24      0.00
   -9    7   10      0.23      0.00
   -8    7   10     -0.59      0.00
   -7    7   10     -1.16      0.00
   -6    7   10     -0.37      0.00
   -5    7   10      0.77      0.00
   -4    7   10      0.63      0.00
   -3    7   10     -0.23      0.00
   -2    7   10      0.22      0.00
   -1    7   10      1.26      0.00
    0    7   10     -0.27      0.00
    1    7   10     -4.22      0.00
    2    7   10     -5.38      0.00
    3    7   10     -0.06      0.00
    4    7   10      6.63      0.00
    5    7   10      5.70      0.00
    6    7   10     -2.15      0.00
    7    7   10     -7.07      0.00
    8    7   10     -3.93      0.00
    9    7   10      2.62      0.00
   10    7   10      5.22      0.00
   11    7   10      2.39      0.00
   12    7   10     -0.89      0.00
   13    7   10     -0.93      0.00
   14    7   10      0.41      0.00
   15    7   10      0.27      0.00
   16    7   10     -0.70      0.00
   -9    8   10     -0.32      0.00
   -8    8   10     -0.04      0.00
   -7    8   10      0.73      0.00
   -6    8   10      0.84      0.00
   -5    8   10      0.05      0.00
   -4    8   10     -0.57      0.00
   -3    8   10     -0.31      0.00
   -2    8   10     -0.41      0.00
   -1    8   10     -1.91      0.00
    0    8   10     -2.15      0.00
    1    8   10      1.67      0.00
    2    8   10      6.33      0.00
    3    8   10      5.40      0.00
    4    8   10     -1.57      0.00
    5    8   10     -6.44      0.00
    6    8   10     -3.04      0.00
    7    8   10      3.94      0.00
    8    8   10      6.17      0.00
    9    8   10      2.18      0.00
   10    8   10     -2.54      0.00
   11    8   10     -2.85      0.00
   12    8   10     -0.15      0.00
   13    8   10      0.73      0.00
   14    8   10     -0.76      0.00
   15    8   10     -1.53      0.00
   16    8   10     -0.58      0.00
   -8    9   10      0.23      0.00
   -7    9   10     -0.17      0.00
   -6    9   10     -0.39      0.00
   -5    9   10     -0.16      0.00
   -4    9   10     -0.01      0.00
   -3    9   10     -0.24      0.00
   -2    9   10     -0.27      0.00
   -1    9   10      1.22      0.00
    0    9   10      3.32      0.00
    1    9   10      2.01      0.00
    2    9   10     -3.35      0.00
    3    9   10     -6.93      0.00
    4    9   10     -3.62      0.00
    5    9   10      3.18      0.00
    6    9   10      5.16      0.00
    7    9   10      0.49      0.00
    8    9   10     -4.35      0.00
    9    9   10     -4.08      0.00
   10    9   10     -0.22      0.00
   11    9   10      2.03      0.00
   12    9   10      0.55      0.00
   13    9   10     -1.06      0.00
   14    9   10      0.02      0.00
   15    9   10      1.68      0.00
   16    9   10      1.57      0.00
   -7   10   10      0.11      0.00
   -6   10   10      0.32      0.00
   -5   10   10     -0.16      0.00
   -4   10   10     -0.34      0.00
   -3   10   10      0.51      0.00
   -2   10   10      1.48      0.00
   -1   10   10      0.78      0.00
    0   10   10     -2.13      0.00
    1   10   10     -4.06      0.00
    2   10   10     -1.22      0.00
    3   10   10      4.20      0.00
    4   10   10      5.61      0.00
    5   10   10      0.86      0.00
    6   10   10     -4.15      0.00
    7   10   10     -3.27      0.00
    8   10   10      1.36      0.00
    9   10   10      3.55      0.00
   10   10   10      1.50      0.00
   11   10   10     -1.27      0.00
   12   10   10     -0.96      0.00
   13   10   10      1.19      0.00
   14   10   10      1.34      0.00
   15   10   10     -0.41      0.00
   -6   11   10     -0.47      0.00
   -5   11   10     -0.27      0.00
   -4   11   10      0.65      0.00
   -3   11   10      0.47      0.00
   -2   11   10     -1.23      0.00
   -1   11   10     -2.36      0.00
    0   11   10     -0.62      0.00
    1   11   10      3.06      0.00
    2   11   10      4.11      0.00
    3   11   10      0.43      0.00
    4   11   10     -3.74      0.00
    5   11   10     -3.03      0.00
    6   11   10      1.68      0.00
    7   11   10      3.96      0.00
    8   11   10      1.09      0.00
    9   11   10     -2.36      0.00
   10   11   10     -2.04      0.00
   11   11   10      0.72      0.00
   12   11   10      1.67      0.00
   13   11   10     -0.36      0.00
   14   11   10     -1.95      0.00
   15   11   10     -1.10      0.00
   -4   12   10     -0.06      0.00
   -3   12   10     -1.01      0.00
   -2   12   10     -0.37      0.00
   -1   12   10      1.64      0.00
    0   12   10      2.34      0.00
    1   12   10     -0.16      0.00
    2   12   10     -3.47      0.00
    3   12   10     -3.34      0.00
    4   12   10      0.18      0.00
    5   12   10      2.42      0.00
    6   12   10      0.33      0.00
    7   12   10     -3.04      0.00
    8   12   10     -2.60      0.00
    9   12   10      0.91      0.00
   10   12   10      2.41      0.00
   11   12   10      0.31      0.00
   12   12   10     -1.95      0.00
   13   12   10     -1.15      0.00
   14   12   10      1.16      0.00
   15   12   10      1.63      0.00
   -3   13   10      0.48      0.00
   -2   13   10      1.09      0.00
   -1   13   10      0.13      0.00
    0   13   10     -1.65      0.00
    1   13   10     -1.70      0.00
    2   13   10      0.75      0.00
    3   13   10      2.79      0.00
    4   13   10      1.79      0.00
    5   13   10     -0.67      0.00
    6   13   10     -0.89      0.00
    7   13   10      1.62      0.00
    8   13   10      2.97      0.00
    9   13   10      0.71      0.00
   10   13   10     -2.05      0.00
   11   13   10     -1.60      0.00
   12   13   10      1.03      0.00
   13   13   10      2.04      0.00
   14   13   10      0.41      0.00
   -1   14   10     -0.82      0.00
    0   14   10      0.22      0.00
    1   14   10      1.42      0.00
    2   14   10      1.07      0.00
    3   14   10     -0.60      0.00
    4   14   10     -1.23      0.00
    5   14   10     -0.05      0.00
    6   14   10      0.80      0.00
    7   14   10     -0.53      0.00
    8   14   10     -2.45      0.00
    9   14   10     -1.89      0.00
   10   14   10      0.79      0.00
   11   14   10      2.05      0.00
   12   14   10      0.50      0.00
   13   14   10     -1.46      0.00
   14   14   10     -1.36      0.00
    0   15   10      0.38      0.00
    1   15   10     -0.45      0.00
    2   15   10     -1.06      0.00
    3   15   10     -0.66      0.00
    4   15   10      0.00      0.00
    5   15   10     -0.35      0.00
    6   15   10     -1.02      0.00
    7   15   10     -0.36      0.00
    8   15   10      1.46      0.00
    9   15   10      2.15      0.00
   10   15   10      0.55      0.00
   11   15   10     -1.36      0.00
   12   15   10     -1.31      0.00
   13   15   10      0.19      0.00
    3   16   10      0.56      0.00
    4   16   10      0.32      0.00
    5   16   10      0.52      0.00
    6   16   10      1.21      0.00
    7   16   10      1.08      0.00
    8   16   10     -0.33      0.00
    9   16   10     -1.57      0.00
   10   16   10     -1.16      0.00
   11   16   10      0.34      0.00
   -9  -15   11      0.41      0.00
   -8  -15   11      1.69      0.00
   -7  -15   11      2.19      0.00
   -6  -15   11      1.41      0.00
   -5  -15   11      0.03      0.00
   -4  -15   11     -0.70      0.00
  -12  -14   11      0.68      0.00
  -11  -14   11      0.87      0.00
  -10  -14   11      1.56      0.00
   -9  -14   11      1.26      0.00
   -8  -14   11     -0.39      0.00
   -7  -14   11     -2.06      0.00
   -6  -14   11     -2.44      0.00
   -5  -14   11     -1.32      0.00
   -4  -14   11      0.18      0.00
   -3  -14   11      0.65      0.00
   -2  -14   11      0.17      0.00
   -1  -14   11      0.04      0.00
  -13  -13   11     -0.93      0.00
  -12  -13   11     -0.90      0.00
  -11  -13   11     -0.77      0.00
  -10  -13   11     -1.76      0.00
   -9  -13   11     -2.65      0.00
   -8  -13   11     -1.79      0.00
   -7  -13   11      0.36      0.00
   -6  -13   11      2.05      0.00
   -5  -13   11      2.08      0.00
   -4  -13   11      0.77      0.00
   -3  -13   11     -0.30      0.00
   -2  -13   11     -0.11      0.00
   -1  -13   11      0.33      0.00
    0  -13   11     -0.16      0.00
    1  -13   11     -0.89      0.00
  -14  -12   11     -0.19      0.00
  -13  -12   11      0.38      0.00
  -12  -12   11      0.59      0.00
  -11  -12   11      0.14      0.00
  -10  -12   11      0.73      0.00
   -9  -12   11      2.38      0.00
   -8  -12   11      3.02      0.00
   -7  -12   11      1.73      0.00
   -6  -12   11     -0.40      0.00
   -5  -12   11     -1.64      0.00
   -4  -12   11     -1.19      0.00
   -3  -12   11     -0.08      0.00
   -2  -12   11     -0.01      0.00
   -1  -12   11     -0.80      0.00
    0  -12   11     -0.70      0.00
    1  -12   11      0.44      0.00
    2  -12   11      1.12      0.00
  -14  -11   11      0.16      0.00
  -13  -11   11     -0.08      0.00
  -12  -11   11     -0.25      0.00
  -11  -11   11      0.53      0.00
  -10  -11   11      0.93      0.00
   -9  -11   11     -0.43      0.00
   -8  -11   11     -2.12      0.00
   -7  -11   11     -2.38      0.00
   -6  -11   11     -1.17      0.00
   -5  -11   11      0.33      0.00
   -4  -11   11      0.70      0.00
   -3  -11   11     -0.09      0.00
   -2  -11   11     -0.40      0.00
   -1  -11   11      0.69      0.00
    0  -11   11      1.57      0.00
    1  -11   11      0.69      0.00
    2  -11   11     -0.76      0.00
    3  -11   11     -1.27      0.00
    4  -11   11     -0.92      0.00
  -15  -10   11     -0.40      0.00
  -14  -10   11     -0.31      0.00
  -13  -10   11     -0.09      0.00
  -12  -10   11      0.22      0.00
  -11  -10   11     -0.34      0.00
  -10  -10   11     -1.64      0.00
   -9  -10   11     -1.65      0.00
   -8  -10   11     -0.20      0.00
   -7  -10   11      1.01      0.00
   -6  -10   11      1.13      0.00
   -5  -10   11      0.48      0.00
   -4  -10   11      0.11      0.00
   -3  -10   11      0.72      0.00
   -2  -10   11      1.36      0.00
   -1  -10   11      0.51      0.00
    0  -10   11     -1.37      0.00
    1  -10   11     -1.86      0.00
    2  -10   11     -0.42      0.00
    3  -10   11      1.03      0.00
    4  -10   11      1.41      0.00
    5  -10   11      0.98      0.00
  -15   -9   11      0.18      0.00
  -14   -9   11      0.27      0.00
  -13   -9   11      0.23      0.00
  -12   -9   11      0.04      0.00
  -11   -9   11     -0.04      0.00
  -10   -9   11      0.86      0.00
   -9   -9   11      1.88      0.00
   -8   -9   11      1.78      0.00
   -7   -9   11      1.04      0.00
   -6   -9   11      0.44      0.00
   -5   -9   11      0.27      0.00
   -4   -9   11      0.08      0.00
   -3   -9   11     -0.89      0.00
   -2   -9   11     -2.19      0.00
   -1   -9   11     -2.24      0.00
    0   -9   11     -0.36      0.00
    1   -9   11      1.75      0.00
    2   -9   11      1.81      0.00
    3   -9   11      0.20      0.00
    4   -9   11     -1.15      0.00
    5   -9   11     -1.35      0.00
    6   -9   11     -0.74      0.00
  -15   -8   11      0.32      0.00
  -14   -8   11      0.31      0.00
  -13   -8   11      0.22      0.00
  -12   -8   11     -0.13      0.00
  -11   -8   11     -0.30      0.00
  -10   -8   11     -0.38      0.00
   -9   -8   11     -0.77      0.00
   -8   -8   11     -1.18      0.00
   -7   -8   11     -1.55      0.00
   -6   -8   11     -1.79      0.00
   -5   -8   11     -1.75      0.00
   -4   -8   11     -1.50      0.00
   -3   -8   11     -0.39      0.00
   -2   -8   11      1.69      0.00
   -1   -8   11      3.20      0.00
    0   -8   11      2.58      0.00
    1   -8   11      0.12      0.00
    2   -8   11     -1.95      0.00
    3   -8   11     -1.83      0.00
    4   -8   11     -0.31      0.00
    5   -8   11      0.84      0.00
    6   -8   11      0.75      0.00
    7   -8   11      0.13      0.00
  -15   -7   11     -0.20      0.00
  -14   -7   11     -0.75      0.00
  -13   -7   11     -1.11      0.00
  -12   -7   11     -0.69      0.00
  -11   -7   11      0.29      0.00
  -10   -7   11      0.85      0.00
   -9   -7   11      0.62      0.00
   -8   -7   11      0.04      0.00
   -7   -7   11      0.09      0.00
   -6   -7   11      1.10      0.00
   -5   -7   11      2.09      0.00
   -4   -7   11      2.56      0.00
   -3   -7   11      2.26      0.00
   -2   -7   11      0.46      0.00
   -1   -7   11     -2.13      0.00
    0   -7   11     -3.54      0.00
    1   -7   11     -2.51      0.00
    2   -7   11      0.23      0.00
    3   -7   11      2.17      0.00
    4   -7   11      1.99      0.00
    5   -7   11      0.75      0.00
    6   -7   11      0.00      0.00
    7   -7   11      0.30      0.00
    8   -7   11      0.52      0.00
  -15   -6   11     -0.46      0.00
  -14   -6   11      0.18      0.00
  -13   -6   11      1.40      0.00
  -12   -6   11      1.87      0.00
  -11   -6   11      0.90      0.00
  -10   -6   11     -0.60      0.00
   -9   -6   11     -1.18      0.00
   -8   -6   11     -0.37      0.00
   -7   -6   11      0.82      0.00
   -6   -6   11      0.82      0.00
   -5   -6   11     -0.41      0.00
   -4   -6   11     -1.78      0.00
   -3   -6   11     -2.73      0.00
   -2   -6   11     -2.48      0.00
   -1   -6   11     -0.54      0.00
    0   -6   11      2.04      0.00
    1   -6   11      3.39      0.00
    2   -6   11      2.14      0.00
    3   -6   11     -0.61      0.00
    4   -6   11     -2.15      0.00
    5   -6   11     -1.86      0.00
    6   -6   11     -1.11      0.00
    7   -6   11     -0.93      0.00
    8   -6   11     -1.17      0.00
    9   -6   11     -0.80      0.00
  -15   -5   11      0.49      0.00
  -14   -5   11      0.79      0.00
  -13   -5   11     -0.49      0.00
  -12   -5   11     -2.18      0.00
  -11   -5   11     -2.34      0.00
  -10   -5   11     -0.76      0.00
   -9   -5   11      0.79      0.00
   -8   -5   11      1.01      0.00
   -7   -5   11      0.05      0.00
   -6   -5   11     -1.05      0.00
   -5   -5   11     -1.23      0.00
   -4   -5   11     -0.37      0.00
   -3   -5   11      1.09      0.00
   -2   -5   11      2.40      0.00
   -1   -5   11      2.43      0.00
    0   -5   11      0.81      0.00
    1   -5   11     -1.68      0.00
    2   -5   11     -3.04      0.00
    3   -5   11     -1.71      0.00
    4   -5   11      0.58      0.00
    5   -5   11      1.31      0.00
    6   -5   11      0.94      0.00
    7   -5   11      0.91      0.00
    8   -5   11      1.35      0.00
    9   -5   11      1.48      0.00
   10   -5   11      0.76      0.00
  -15   -4   11      0.09      0.00
  -14   -4   11     -0.79      0.00
  -13   -4   11     -0.69      0.00
  -12   -4   11      1.12      0.00
  -11   -4   11      2.67      0.00
  -10   -4   11      2.03      0.00
   -9   -4   11      0.13      0.00
   -8   -4   11     -0.89      0.00
   -7   -4   11     -0.80      0.00
   -6   -4   11     -0.33      0.00
   -5   -4   11      0.41      0.00
   -4   -4   11      1.12      0.00
   -3   -4   11      1.03      0.00
   -2   -4   11     -0.27      0.00
   -1   -4   11     -1.85      0.00
    0   -4   11     -2.29      0.00
    1   -4   11     -0.99      0.00
    2   -4   11      1.44      0.00
    3   -4   11      2.68      0.00
    4   -4   11      1.48      0.00
    5   -4   11      0.16      0.00
    6   -4   11      0.37      0.00
    7   -4   11      0.63      0.00
    8   -4   11     -0.17      0.00
    9   -4   11     -1.30      0.00
   10   -4   11     -1.54      0.00
   11   -4   11     -0.70      0.00
  -14   -3   11      0.12      0.00
  -13   -3   11      0.93      0.00
  -12   -3   11      0.37      0.00
  -11   -3   11     -1.48      0.00
  -10   -3   11     -2.27      0.00
   -9   -3   11     -0.82      0.00
   -8   -3   11      0.79      0.00
   -7   -3   11      0.93      0.00
   -6   -3   11      0.80      0.00
   -5   -3   11      1.02      0.00
   -4   -3   11      0.54      0.00
   -3   -3   11     -0.89      0.00
   -2   -3   11     -1.62      0.00
   -1   -3   11     -0.48      0.00
    0   -3   11      1.27      0.00
    1   -3   11      1.90      0.00
    2   -3   11      0.73      0.00
    3   -3   11     -1.42      0.00
    4   -3   11     -2.19      0.00
    5   -3   11     -1.28      0.00
    6   -3   11     -1.17      0.00
    7   -3   11     -2.16      0.00
    8   -3   11     -2.16      0.00
    9   -3   11     -0.54      0.00
   10   -3   11      1.26      0.00
   11   -3   11      1.60      0.00
  -14   -2   11      0.19      0.00
  -13   -2   11     -0.52      0.00
  -12   -2   11     -1.05      0.00
  -11   -2   11     -0.21      0.00
  -10   -2   11      1.25      0.00
   -4   -2   11     -1.40      0.00
   -3   -2   11     -1.12      0.00
   -2   -2   11      0.84      0.00
   -1   -2   11      1.95      0.00
    0   -2   11      0.77      0.00
    1   -2   11     -0.87      0.00
    2   -2   11     -1.22      0.00
    3   -2   11     -0.10      0.00
    4   -2   11      1.23      0.00
    5   -2   11      1.08      0.00
    6   -2   11      0.58      0.00
    7   -2   11      1.74      0.00
    8   -2   11      3.32      0.00
    9   -2   11      3.03      0.00
   10   -2   11      0.81      0.00
   11   -2   11     -1.26      0.00
   12   -2   11     -1.39      0.00
  -14   -1   11     -0.29      0.00
  -13   -1   11      0.04      0.00
  -12   -1   11      0.90      0.00
  -11   -1   11      1.08      0.00
  -10   -1   11      0.19      0.00
   -3   -1   11      1.39      0.00
   -2   -1   11      1.36      0.00
   -1   -1   11     -0.65      0.00
    0   -1   11     -1.43      0.00
    1   -1   11     -0.11      0.00
    2   -1   11      0.92      0.00
    3   -1   11      0.47      0.00
    4   -1   11     -0.59      0.00
    5   -1   11     -0.45      0.00
    6   -1   11      0.91      0.00
    7   -1   11      0.72      0.00
    8   -1   11     -1.73      0.00
    9   -1   11     -3.69      0.00
   10   -1   11     -3.12      0.00
   11   -1   11     -0.72      0.00
   12   -1   11      0.99      0.00
   13   -1   11      0.72      0.00
  -13    0   11      0.48      0.00
  -12    0   11     -0.22      0.00
  -11    0   11     -0.94      0.00
  -10    0   11     -0.91      0.00
   -2    0   11     -1.51      0.00
   -1    0   11     -1.62      0.00
    0    0   11     -0.14      0.00
    1    0   11     -0.26      0.00
    2    0   11     -1.56      0.00
    3    0   11     -1.35      0.00
    4    0   11      0.44      0.00
    5    0   11      1.16      0.00
    6    0   11     -1.00      0.00
    7    0   11     -3.26      0.00
    8    0   11     -2.00      0.00
    9    0   11      1.42      0.00
   10    0   11      3.39      0.00
   11    0   11      2.62      0.00
   12    0   11      0.54      0.00
   13    0   11     -0.41      0.00
  -13    1   11     -0.55      0.00
  -12    1   11     -0.51      0.00
  -11    1   11      0.23      0.00
  -10    1   11      0.78      0.00
   -2    1   11     -0.36      0.00
   -1    1   11      1.67      0.00
    0    1   11      1.66      0.00
    1    1   11      1.22      0.00
    2    1   11      2.60      0.00
    3    1   11      3.54      0.00
    4    1   11      1.37      0.00
    5    1   11     -1.86      0.00
    6    1   11     -1.51      0.00
    7    1   11      2.60      0.00
    8    1   11      4.90      0.00
    9    1   11      2.62      0.00
   10    1   11     -1.01      0.00
   11    1   11     -2.60      0.00
   12    1   11     -1.75      0.00
   13    1   11     -0.41      0.00
   14    1   11     -0.12      0.00
  -13    2   11      0.17      0.00
  -12    2   11      0.56      0.00
  -11    2   11      0.35      0.00
  -10    2   11     -0.27      0.00
   -9    2   11     -0.63      0.00
   -8    2   11     -0.45      0.00
   -2    2   11      1.58      0.00
   -1    2   11      0.12      0.00
    0    2   11     -0.90      0.00
    1    2   11     -0.71      0.00
    2    2   11     -2.01      0.00
    3    2   11     -4.79      0.00
    4    2   11     -4.61      0.00
    5    2   11     -0.09      0.00
    6    2   11      3.68      0.00
    7    2   11      1.64      0.00
    8    2   11     -3.47      0.00
    9    2   11     -5.16      0.00
   10    2   11     -2.52      0.00
   11    2   11      0.62      0.00
   12    2   11      1.57      0.00
   13    2   11      0.85      0.00
   14    2   11      0.38      0.00
  -12    3   11     -0.25      0.00
  -11    3   11     -0.34      0.00
  -10    3   11     -0.04      0.00
   -9    3   11      0.36      0.00
   -8    3   11      0.32      0.00
   -7    3   11      0.19      0.00
   -6    3   11      0.85      0.00
   -5    3   11      1.58      0.00
   -4    3   11      1.04      0.00
   -3    3   11     -0.29      0.00
   -2    3   11     -1.21      0.00
   -1    3   11     -1.07      0.00
    0    3   11     -0.68      0.00
    1    3   11     -1.44      0.00
    2    3   11     -1.22      0.00
    3    3   11      2.58      0.00
    4    3   11      6.15      0.00
    5    3   11      3.93      0.00
    6    3   11     -2.31      0.00
    7    3   11     -5.21      0.00
    8    3   11     -1.71      0.00
    9    3   11      3.26      0.00
   10    3   11      4.32      0.00
   11    3   11      1.93      0.00
   12    3   11     -0.33      0.00
   13    3   11     -0.60      0.00
   14    3   11     -0.22      0.00
  -11    4   11      0.30      0.00
  -10    4   11      0.05      0.00
   -9    4   11     -0.31      0.00
   -8    4   11     -0.22      0.00
   -7    4   11      0.32      0.00
   -6    4   11      0.09      0.00
   -5    4   11     -1.22      0.00
   -4    4   11     -1.78      0.00
   -3    4   11     -0.84      0.00
   -2    4   11      0.18      0.00
   -1    4   11      0.34      0.00
    0    4   11      0.38      0.00
    1    4   11      2.17      0.00
    2    4   11      4.64      0.00
    3    4   11      2.81      0.00
    4    4   11     -3.36      0.00
    5    4   11     -6.26      0.00
    6    4   11     -1.85      0.00
    7    4   11      4.53      0.00
    8    4   11      5.78      0.00
    9    4   11      1.63      0.00
   10    4   11     -2.56      0.00
   11    4   11     -3.09      0.00
   12    4   11     -1.13      0.00
   13    4   11      0.07      0.00
   14    4   11     -0.22      0.00
   15    4   11     -0.16      0.00
  -11    5   11     -0.47      0.00
  -10    5   11     -0.27      0.00
   -9    5   11      0.35      0.00
   -8    5   11      0.58      0.00
   -7    5   11     -0.17      0.00
   -6    5   11     -0.90      0.00
   -5    5   11     -0.12      0.00
   -4    5   11      1.25      0.00
   -3    5   11      1.23      0.00
   -2    5   11      0.38      0.00
   -1    5   11      0.55      0.00
    0    5   11      1.45      0.00
    1    5   11      0.35      0.00
    2    5   11     -4.12      0.00
    3    5   11     -7.04      0.00
    4    5   11     -2.83      0.00
    5    5   11      4.22      0.00
    6    5   11      5.26      0.00
    7    5   11     -0.29      0.00
    8    5   11     -5.39      0.00
    9    5   11     -5.08      0.00
   10    5   11     -1.00      0.00
   11    5   11      2.05      0.00
   12    5   11      1.85      0.00
   13    5   11      0.39      0.00
   14    5   11      0.28      0.00
   15    5   11      0.79      0.00
  -10    6   11      0.47      0.00
   -9    6   11     -0.02      0.00
   -8    6   11     -0.82      0.00
   -7    6   11     -0.66      0.00
   -6    6   11      0.48      0.00
   -5    6   11      0.94      0.00
   -4    6   11     -0.06      0.00
   -3    6   11     -0.77      0.00
   -2    6   11     -0.15      0.00
   -1    6   11     -0.17      0.00
    0    6   11     -2.19      0.00
    1    6   11     -3.64      0.00
    2    6   11     -0.50      0.00
    3    6   11      5.81      0.00
    4    6   11      7.40      0.00
    5    6   11      1.35      0.00
    6    6   11     -4.67      0.00
    7    6   11     -3.80      0.00
    8    6   11      1.48      0.00
    9    6   11      4.71      0.00
   10    6   11      3.23      0.00
   11    6   11     -0.14      0.00
   12    6   11     -1.53      0.00
   13    6   11     -0.56      0.00
   14    6   11      0.14      0.00
   15    6   11     -0.55      0.00
   -9    7   11     -0.22      0.00
   -8    7   11      0.41      0.00
   -7    7   11      0.93      0.00
   -6    7   11      0.44      0.00
   -5    7   11     -0.48      0.00
   -4    7   11     -0.51      0.00
   -3    7   11      0.07      0.00
   -2    7   11     -0.38      0.00
   -1    7   11     -1.14      0.00
    0    7   11      0.58      0.00
    1    7   11      4.27      0.00
    2    7   11      5.00      0.00
    3    7   11     -0.27      0.00
    4    7   11     -6.44      0.00
    5    7   11     -5.75      0.00
    6    7   11      0.58      0.00
    7    7   11      4.40      0.00
    8    7   11      2.30      0.00
    9    7   11     -1.86      0.00
   10    7   11     -3.10      0.00
   11    7   11     -0.96      0.00
   12    7   11      0.98      0.00
   13    7   11      0.52      0.00
   14    7   11     -0.67      0.00
   15    7   11     -0.48      0.00
   -8    8   11     -0.13      0.00
   -7    8   11     -0.49      0.00
   -6    8   11     -0.43      0.00
   -5    8   11     -0.06      0.00
   -4    8   11      0.08      0.00
   -3    8   11     -0.13      0.00
   -2    8   11      0.33      0.00
   -1    8   11      1.93      0.00
    0    8   11      2.01      0.00
    1    8   11     -1.67      0.00
    2    8   11     -5.87      0.00
    3    8   11     -4.81      0.00
    4    8   11      1.51      0.00
    5    8   11      5.76      0.00
    6    8   11      3.13      0.00
    7    8   11     -1.98      0.00
    8    8   11     -3.32      0.00
    9    8   11     -0.61      0.00
   10    8   11      1.92      0.00
   11    8   11      1.23      0.00
   12    8   11     -0.83      0.00
   13    8   11     -0.89      0.00
   14    8   11      0.69      0.00
   15    8   11      1.36      0.00
   -7    9   11      0.43      0.00
   -6    9   11      0.15      0.00
   -5    9   11     -0.36      0.00
   -4    9   11     -0.10      0.00
   -3    9   11      0.70      0.00
   -2    9   11      0.77      0.00
   -1    9   11     -1.01      0.00
    0    9   11     -3.17      0.00
    1    9   11     -1.93      0.00
    2    9   11      2.98      0.00
    3    9   11      6.18      0.00
    4    9   11      3.25      0.00
    5    9   11     -2.57      0.00
    6    9   11     -4.16      0.00
    7    9   11     -0.64      0.00
    8    9   11      2.39      0.00
    9    9   11      1.52      0.00
   10    9   11     -1.13      0.00
   11    9   11     -1.61      0.00
   12    9   11      0.51      0.00
   13    9   11      1.65      0.00
   14    9   11      0.29      0.00
   15    9   11     -1.20      0.00
   -6   10   11     -0.60      0.00
   -5   10   11      0.36      0.00
   -4   10   11      0.90      0.00
   -3   10   11     -0.18      0.00
   -2   10   11     -1.61      0.00
   -1   10   11     -1.13      0.00
    0   10   11      1.68      0.00
    1   10   11      3.57      0.00
    2   10   11      1.15      0.00
    3   10   11     -3.58      0.00
    4   10   11     -4.89      0.00
    5   10   11     -0.94      0.00
    6   10   11      3.07      0.00
    7   10   11      2.18      0.00
    8   10   11     -1.18      0.00
    9   10   11     -1.89      0.00
   10   10   11      0.48      0.00
   11   10   11      2.19      0.00
   12   10   11      0.64      0.00
   13   10   11     -1.78      0.00
   14   10   11     -1.65      0.00
   15   10   11      0.02      0.00
   -5   11   11      0.47      0.00
   -4   11   11     -0.81      0.00
   -3   11   11     -1.00      0.00
   -2   11   11      0.66      0.00
   -1   11   11      2.11      0.00
    0   11   11      0.93      0.00
    1   11   11     -2.16      0.00
    2   11   11     -3.20      0.00
    3   11   11     -0.39      0.00
    4   11   11      2.94      0.00
    5   11   11      2.39      0.00
    6   11   11     -1.29      0.00
    7   11   11     -2.73      0.00
    8   11   11     -0.12      0.00
    9   11   11      2.18      0.00
   10   11   11      0.87      0.00
   11   11   11     -1.93      0.00
   12   11   11     -2.09      0.00
   13   11   11      0.57      0.00
   14   11   11      2.12      0.00
   15   11   11      1.15      0.00
   -4   12   11     -0.03      0.00
   -3   12   11      1.06      0.00
   -2   12   11      0.77      0.00
   -1   12   11     -0.99      0.00
    0   12   11     -1.95      0.00
    1   12   11     -0.31      0.00
    2   12   11      2.18      0.00
    3   12   11      2.30      0.00
    4   12   11      0.00      0.00
    5   12   11     -1.40      0.00
    6   12   11      0.31      0.00
    7   12   11      2.56      0.00
    8   12   11      1.48      0.00
    9   12   11     -1.64      0.00
   10   12   11     -2.32      0.00
   11   12   11      0.27      0.00
   12   12   11      2.43      0.00
   13   12   11      1.24      0.00
   14   12   11     -1.18      0.00
   15   12   11     -1.49      0.00
   -3   13   11     -0.40      0.00
   -2   13   11     -1.00      0.00
   -1   13   11     -0.33      0.00
    0   13   11      1.10      0.00
    1   13   11      1.37      0.00
    2   13   11     -0.18      0.00
    3   13   11     -1.56      0.00
    4   13   11     -1.07      0.00
    5   13   11      0.15      0.00
    6   13   11     -0.24      0.00
    7   13   11     -2.12      0.00
    8   13   11     -2.42      0.00
    9   13   11      0.19      0.00
   10   13   11      2.53      0.00
   11   13   11      1.63      0.00
   12   13   11     -1.14      0.00
   13   13   11     -2.08      0.00
   14   13   11     -0.40      0.00
   -1   14   11      0.63      0.00
    0   14   11     -0.14      0.00
    1   14   11     -0.99      0.00
    2   14   11     -0.77      0.00
    3   14   11      0.21      0.00
    4   14   11      0.46      0.00
    5   14   11     -0.17      0.00
    6   14   11     -0.12      0.00
    7   14   11      1.36      0.00
    8   14   11      2.56      0.00
    9   14   11      1.28      0.00
   10   14   11     -1.40      0.00
   11   14   11     -2.30      0.00
   12   14   11     -0.59      0.00
   13   14   11      1.34      0.00
    1   15   11      0.35      0.00
    2   15   11      0.67      0.00
    3   15   11      0.33      0.00
    4   15   11      0.08      0.00
    5   15   11      0.59      0.00
    6   15   11      0.91      0.00
    7   15   11     -0.12      0.00
    8   15   11     -1.75      0.00
    9   15   11     -1.88      0.00
   10   15   11     -0.04      0.00
   11   15   11      1.64      0.00
   12   15   11      1.35      0.00
    4   16   11     -0.05      0.00
    5   16   11     -0.40      0.00
    6   16   11     -1.13      0.00
    7   16   11     -0.91      0.00
    8   16   11      0.45      0.00
    9   16   11      1.44      0.00
   10   16   11      0.81      0.00
   11   16   11     -0.62      0.00
  -11  -14   12     -0.65      0.00
  -10  -14   12     -0.99      0.00
   -9  -14   12     -0.62      0.00
   -8  -14   12      0.57      0.00
   -7  -14   12      1.57      0.00
   -6  -14   12      1.75      0.00
   -5  -14   12      1.12      0.00
   -4  -14   12      0.17      0.00
   -3  -14   12     -0.29      0.00
   -2  -14   12     -0.19      0.00
  -12  -13   12      1.01      0.00
  -11  -13   12      0.62      0.00
  -10  -13   12      1.10      0.00
   -9  -13   12      1.68      0.00
   -8  -13   12      1.02      0.00
   -7  -13   12     -0.49      0.00
   -6  -13   12     -1.55      0.00
   -5  -13   12     -1.53      0.00
   -4  -13   12     -0.74      0.00
   -3  -13   12     -0.10      0.00
   -2  -13   12     -0.12      0.00
   -1  -13   12     -0.14      0.00
    0  -13   12      0.36      0.00
  -13  -12   12     -0.66      0.00
  -12  -12   12     -1.09      0.00
  -11  -12   12     -0.41      0.00
  -10  -12   12     -0.29      0.00
   -9  -12   12     -1.34      0.00
   -8  -12   12     -1.93      0.00
   -7  -12   12     -1.08      0.00
   -6  -12   12      0.40      0.00
   -5  -12   12      1.19      0.00
   -4  -12   12      0.83      0.00
   -3  -12   12      0.19      0.00
   -2  -12   12      0.33      0.00
   -1  -12   12      0.79      0.00
    0  -12   12      0.34      0.00
    1  -12   12     -0.53      0.00
    2  -12   12     -0.71      0.00
  -14  -11   12     -0.34      0.00
  -12  -11   12      1.07      0.00
  -11  -11   12      0.47      0.00
  -10  -11   12     -0.57      0.00
   -9  -11   12     -0.17      0.00
   -8  -11   12      1.08      0.00
   -7  -11   12      1.52      0.00
   -6  -11   12      0.75      0.00
   -5  -11   12     -0.25      0.00
   -4  -11   12     -0.41      0.00
   -3  -11   12      0.17      0.00
   -2  -11   12      0.17      0.00
   -1  -11   12     -0.84      0.00
    0  -11   12     -1.26      0.00
    1  -11   12     -0.21      0.00
    2  -11   12      0.76      0.00
    3  -11   12      0.80      0.00
  -14  -10   12      0.52      0.00
  -13  -10   12      0.35      0.00
  -12  -10   12     -0.61      0.00
  -11  -10   12     -0.81      0.00
  -10  -10   12      0.42      0.00
   -9  -10   12      1.18      0.00
   -8  -10   12      0.57      0.00
   -7  -10   12     -0.35      0.00
   -6  -10   12     -0.58      0.00
   -5  -10   12     -0.20      0.00
   -4  -10   12     -0.07      0.00
   -3  -10   12     -0.68      0.00
   -2  -10   12     -1.12      0.00
   -1  -10   12     -0.20      0.00
    0  -10   12      1.31      0.00
    1  -10   12      1.29      0.00
    2  -10   12     -0.12      0.00
    3  -10   12     -1.01      0.00
    4  -10   12     -1.02      0.00
    5  -10   12     -0.67      0.00
  -14   -9   12     -0.26      0.00
  -13   -9   12     -0.67      0.00
  -12   -9   12     -0.33      0.00
  -11   -9   12      0.41      0.00
  -10   -9   12      0.17      0.00
   -9   -9   12     -0.72      0.00
   -8   -9   12     -1.10      0.00
   -7   -9   12     -0.93      0.00
   -6   -9   12     -0.66      0.00
   -5   -9   12     -0.60      0.00
   -4   -9   12     -0.39      0.00
   -3   -9   12      0.56      0.00
   -2   -9   12      1.73      0.00
   -1   -9   12      1.69      0.00
    0   -9   12      0.00      0.00
    1   -9   12     -1.54      0.00
    2   -9   12     -1.12      0.00
    3   -9   12      0.30      0.00
    4   -9   12      1.11      0.00
    5   -9   12      1.04      0.00
    6   -9   12      0.48      0.00
  -14   -8   12     -0.41      0.00
  -13   -8   12      0.09      0.00
  -12   -8   12      0.57      0.00
  -11   -8   12      0.50      0.00
  -10   -8   12      0.25      0.00
   -9   -8   12      0.22      0.00
   -8   -8   12      0.28      0.00
   -7   -8   12      0.67      0.00
   -6   -8   12      1.24      0.00
   -5   -8   12      1.59      0.00
   -4   -8   12      1.63      0.00
   -3   -8   12      0.76      0.00
   -2   -8   12     -1.06      0.00
   -1   -8   12     -2.38      0.00
    0   -8   12     -1.78      0.00
    1   -8   12      0.33      0.00
    2   -8   12      1.65      0.00
    3   -8   12      1.08      0.00
    4   -8   12     -0.13      0.00
    5   -8   12     -0.77      0.00
    6   -8   12     -0.53      0.00
    7   -8   12     -0.04      0.00
  -15   -7   12      0.35      0.00
  -14   -7   12      0.73      0.00
  -13   -7   12      0.76      0.00
  -12   -7   12      0.24      0.00
  -11   -7   12     -0.44      0.00
  -10   -7   12     -0.89      0.00
   -9   -7   12     -0.83      0.00
   -8   -7   12     -0.07      0.00
   -7   -7   12      0.45      0.00
   -5   -7   12     -1.24      0.00
   -4   -7   12     -2.04      0.00
   -3   -7   12     -2.11      0.00
   -2   -7   12     -0.79      0.00
   -1   -7   12      1.32      0.00
    0   -7   12      2.44      0.00
    1   -7   12      1.39      0.00
    2   -7   12     -0.79      0.00
    3   -7   12     -1.78      0.00
    4   -7   12     -1.16      0.00
    5   -7   12     -0.32      0.00
    6   -7   12     -0.06      0.00
    7   -7   12     -0.34      0.00
    8   -7   12     -0.34      0.00
  -15   -6   12      0.18      0.00
  -14   -6   12     -0.26      0.00
  -13   -6   12     -1.00      0.00
  -12   -6   12     -1.15      0.00
  -11   -6   12     -0.51      0.00
  -10   -6   12      0.42      0.00
   -9   -6   12      1.08      0.00
   -8   -6   12      0.80      0.00
   -7   -6   12     -0.36      0.00
   -6   -6   12     -0.94      0.00
   -5   -6   12     -0.33      0.00
   -4   -6   12      0.82      0.00
   -3   -6   12      1.88      0.00
   -2   -6   12      2.01      0.00
   -1   -6   12      0.72      0.00
    0   -6   12     -1.13      0.00
    1   -6   12     -1.92      0.00
    2   -6   12     -0.66      0.00
    3   -6   12      1.21      0.00
    4   -6   12      1.59      0.00
    5   -6   12      0.93      0.00
    6   -6   12      0.68      0.00
    7   -6   12      0.93      0.00
    8   -6   12      1.00      0.00
    9   -6   12      0.47      0.00
  -14   -5   12     -0.39      0.00
  -13   -5   12      0.43      0.00
  -12   -5   12      1.43      0.00
  -11   -5   12      1.39      0.00
  -10   -5   12      0.47      0.00
   -9   -5   12     -0.40      0.00
   -8   -5   12     -0.76      0.00
   -7   -5   12     -0.41      0.00
   -6   -5   12      0.40      0.00
   -5   -5   12      0.90      0.00
   -4   -5   12      0.68      0.00
   -3   -5   12     -0.29      0.00
   -2   -5   12     -1.40      0.00
   -1   -5   12     -1.64      0.00
    0   -5   12     -0.77      0.00
    1   -5   12      0.60      0.00
    2   -5   12      1.12      0.00
    3   -5   12     -0.02      0.00
    4   -5   12     -1.09      0.00
    5   -5   12     -0.65      0.00
    6   -5   12     -0.10      0.00
    7   -5   12     -0.61      0.00
    8   -5   12     -1.32      0.00
    9   -5   12     -1.20      0.00
   10   -5   12     -0.45      0.00
  -14   -4   12      0.41      0.00
  -13   -4   12      0.29      0.00
  -12   -4   12     -0.91      0.00
  -11   -4   12     -1.78      0.00
  -10   -4   12     -1.13      0.00
   -9   -4   12      0.01      0.00
   -8   -4   12      0.32      0.00
   -7   -4   12      0.25      0.00
   -6   -4   12      0.38      0.00
   -5   -4   12      0.30      0.00
   -4   -4   12     -0.27      0.00
   -3   -4   12     -0.62      0.00
   -2   -4   12     -0.03      0.00
   -1   -4   12      0.85      0.00
    0   -4   12      1.12      0.00
    1   -4   12      0.70      0.00
    2   -4   12     -0.18      0.00
    3   -4   12     -0.45      0.00
    4   -4   12      0.27      0.00
    5   -4   12      0.25      0.00
    6   -4   12     -0.86      0.00
    7   -4   12     -1.09      0.00
    8   -4   12      0.14      0.00
    9   -4   12      1.27      0.00
   10   -4   12      1.20      0.00
  -14   -3   12     -0.09      0.00
  -13   -3   12     -0.53      0.00
  -12   -3   12      0.00      0.00
  -11   -3   12      1.29      0.00
   -6   -3   12     -0.03      0.00
   -5   -3   12     -0.85      0.00
   -4   -3   12     -1.33      0.00
   -3   -3   12     -0.58      0.00
   -2   -3   12      0.26      0.00
   -1   -3   12      0.13      0.00
    0   -3   12     -0.20      0.00
    1   -3   12     -0.26      0.00
    2   -3   12     -0.19      0.00
    3   -3   12      0.10      0.00
    4   -3   12      0.00      0.00
    5   -3   12     -0.24      0.00
    6   -3   12      0.77      0.00
    7   -3   12      2.25      0.00
    8   -3   12      2.08      0.00
    9   -3   12      0.32      0.00
   10   -3   12     -1.13      0.00
   11   -3   12     -1.16      0.00
  -14   -2   12     -0.10      0.00
  -13   -2   12      0.43      0.00
  -12   -2   12      0.66      0.00
   -4   -2   12      1.16      0.00
   -3   -2   12      1.94      0.00
   -2   -2   12      1.17      0.00
   -1   -2   12      0.24      0.00
    0   -2   12     -0.04      0.00
    1   -2   12     -0.45      0.00
    2   -2   12     -0.77      0.00
    3   -2   12     -0.61      0.00
    4   -2   12     -0.17      0.00
    5   -2   12      0.59      0.00
    6   -2   12      0.48      0.00
    7   -2   12     -1.36      0.00
    8   -2   12     -3.03      0.00
    9   -2   12     -2.54      0.00
   10   -2   12     -0.49      0.00
   11   -2   12      0.98      0.00
   12   -2   12      0.88      0.00
  -14   -1   12      0.24      0.00
  -13   -1   12     -0.08      0.00
  -12   -1   12     -0.76      0.00
   -3   -1   12     -0.93      0.00
   -2   -1   12     -1.98      0.00
   -1   -1   12     -1.62      0.00
    0   -1   12     -1.11      0.00
    1   -1   12     -0.56      0.00
    2   -1   12      0.60      0.00
    3   -1   12      1.52      0.00
    4   -1   12      1.39      0.00
    5   -1   12     -0.02      0.00
    6   -1   12     -1.65      0.00
    7   -1   12     -1.10      0.00
    8   -1   12      1.49      0.00
    9   -1   12      3.19      0.00
   10   -1   12      2.43      0.00
   11   -1   12      0.44      0.00
   12   -1   12     -0.62      0.00
  -13    0   12     -0.41      0.00
  -12    0   12      0.25      0.00
   -2    0   12      0.49      0.00
   -1    0   12      1.85      0.00
    0    0   12      2.33      0.00
    1    0   12      2.58      0.00
    2    0   12      1.92      0.00
    3    0   12     -0.05      0.00
    4    0   12     -1.99      0.00
    5    0   12     -1.96      0.00
    6    0   12      0.67      0.00
    7    0   12      2.90      0.00
    8    0   12      1.66      0.00
    9    0   12     -1.37      0.00
   10    0   12     -2.78      0.00
   11    0   12     -1.84      0.00
   12    0   12     -0.31      0.00
   13    0   12      0.10      0.00
  -13    1   12      0.45      0.00
  -12    1   12      0.38      0.00
   -2    1   12      1.46      0.00
   -1    1   12     -0.05      0.00
    0    1   12     -1.59      0.00
    1    1   12     -3.09      0.00
    2    1   12     -4.28      0.00
    3    1   12     -3.53      0.00
    4    1   12     -0.42      0.00
    5    1   12      2.66      0.00
    6    1   12      2.19      0.00
    7    1   12     -1.56      0.00
    8    1   12     -3.65      0.00
    9    1   12     -1.81      0.00
   10    1   12      1.03      0.00
   11    1   12      1.91      0.00
   12    1   12      0.99      0.00
   13    1   12      0.21      0.00
  -12    2   12     -0.48      0.00
  -11    2   12     -0.07      0.00
  -10    2   12      0.39      0.00
   -2    2   12     -1.83      0.00
   -1    2   12     -1.68      0.00
    0    2   12     -0.88      0.00
    1    2   12      0.64      0.00
    2    2   12      3.36      0.00
    3    2   12      5.57      0.00
    4    2   12      4.33      0.00
    5    2   12     -0.14      0.00
    6    2   12     -3.50      0.00
    7    2   12     -1.99      0.00
    8    2   12      2.06      0.00
    9    2   12      3.48      0.00
   10    2   12      1.56      0.00
   11    2   12     -0.62      0.00
   12    2   12     -0.93      0.00
   13    2   12     -0.24      0.00
   14    2   12     -0.25      0.00
  -12    3   12      0.36      0.00
  -11    3   12      0.16      0.00
  -10    3   12     -0.36      0.00
   -9    3   12     -0.47      0.00
   -8    3   12      0.15      0.00
   -3    3   12      0.25      0.00
   -2    3   12      0.92      0.00
   -1    3   12      1.47      0.00
    0    3   12      2.24      0.00
    1    3   12      2.78      0.00
    2    3   12      1.09      0.00
    3    3   12     -3.19      0.00
    4    3   12     -5.94      0.00
    5    3   12     -3.57      0.00
    6    3   12      1.61      0.00
    7    3   12      4.01      0.00
    8    3   12      1.66      0.00
    9    3   12     -1.78      0.00
   10    3   12     -2.57      0.00
   11    3   12     -0.97      0.00
   12    3   12      0.40      0.00
   13    3   12      0.16      0.00
   14    3   12     -0.16      0.00
  -11    4   12     -0.28      0.00
  -10    4   12      0.18      0.00
   -9    4   12      0.64      0.00
   -8    4   12      0.27      0.00
   -7    4   12     -0.73      0.00
   -6    4   12     -0.67      0.00
   -5    4   12      0.82      0.00
   -4    4   12      1.53      0.00
   -3    4   12      0.75      0.00
   -2    4   12      0.09      0.00
   -1    4   12     -0.01      0.00
    0    4   12     -0.83      0.00
    1    4   12     -3.27      0.00
    2    4   12     -5.14      0.00
    3    4   12     -2.57      0.00
    4    4   12      3.03      0.00
    5    4   12      5.19      0.00
    6    4   12      1.67      0.00
    7    4   12     -2.92      0.00
    8    4   12     -3.86      0.00
    9    4   12     -1.40      0.00
   10    4   12      1.12      0.00
   11    4   12      1.47      0.00
   12    4   12      0.22      0.00
   13    4   12     -0.26      0.00
   14    4   12      0.41      0.00
  -10    5   12      0.21      0.00
   -9    5   12     -0.38      0.00
   -8    5   12     -0.67      0.00
   -7    5   12      0.10      0.00
   -6    5   12      1.06      0.00
   -5    5   12      0.49      0.00
   -4    5   12     -0.88      0.00
   -3    5   12     -0.98      0.00
   -2    5   12     -0.40      0.00
   -1    5   12     -0.83      0.00
    0    5   12     -1.53      0.00
    1    5   12      0.15      0.00
    2    5   12      4.53      0.00
    3    5   12      6.73      0.00
    4    5   12      2.78      0.00
    5    5   12     -2.88      0.00
    6    5   12     -3.58      0.00
    7    5   12      0.18      0.00
    8    5   12      3.24      0.00
    9    5   12      3.02      0.00
   10    5   12      0.85      0.00
   11    5   12     -0.77      0.00
   12    5   12     -0.58      0.00
   13    5   12      0.27      0.00
   14    5   12     -0.10      0.00
   15    5   12     -0.83      0.00
  -10    6   12     -0.28      0.00
   -9    6   12     -0.08      0.00
   -8    6   12      0.49      0.00
   -7    6   12      0.52      0.00
   -6    6   12     -0.29      0.00
   -5    6   12     -0.71      0.00
   -4    6   12      0.08      0.00
   -3    6   12      0.58      0.00
   -2    6   12     -0.05      0.00
   -1    6   12      0.12      0.00
    0    6   12      2.11      0.00
    1    6   12      3.19      0.00
    2    6   12      0.02      0.00
    3    6   12     -5.48      0.00
    4    6   12     -6.62      0.00
    5    6   12     -1.84      0.00
    6    6   12      2.44      0.00
    7    6   12      1.82      0.00
    8    6   12     -1.17      0.00
    9    6   12     -2.53      0.00
   10    6   12     -1.46      0.00
   11    6   12      0.24      0.00
   12    6   12      0.72      0.00
   13    6   12     -0.05      0.00
   14    6   12     -0.35      0.00
   15    6   12      0.47      0.00
   -9    7   12      0.08      0.00
   -8    7   12     -0.14      0.00
   -7    7   12     -0.37      0.00
   -6    7   12     -0.17      0.00
   -5    7   12      0.16      0.00
   -4    7   12     -0.07      0.00
   -3    7   12     -0.41      0.00
   -2    7   12      0.42      0.00
   -1    7   12      1.35      0.00
    0    7   12     -0.26      0.00
    1    7   12     -3.61      0.00
    2    7   12     -4.10      0.00
    3    7   12      0.52      0.00
    4    7   12      5.53      0.00
    5    7   12      4.95      0.00
    6    7   12      0.54      0.00
    7    7   12     -1.69      0.00
    8    7   12     -0.37      0.00
    9    7   12      1.39      0.00
   10    7   12      1.13      0.00
   11    7   12     -0.50      0.00
   12    7   12     -1.25      0.00
   13    7   12     -0.41      0.00
   14    7   12      0.55      0.00
   15    7   12      0.32      0.00
   -8    8   12      0.25      0.00
   -7    8   12      0.22      0.00
   -6    8   12     -0.19      0.00
   -5    8   12     -0.34      0.00
   -4    8   12      0.17      0.00
   -3    8   12      0.78      0.00
   -2    8   12      0.18      0.00
   -1    8   12     -1.76      0.00
    0    8   12     -2.14      0.00
    1    8   12      1.07      0.00
    2    8   12      4.75      0.00
    3    8   12      3.87      0.00
    4    8   12     -1.26      0.00
    5    8   12     -4.46      0.00
    6    8   12     -2.53      0.00
    7    8   12      0.55      0.00
    8    8   12      0.80      0.00
    9    8   12     -0.80      0.00
   10    8   12     -1.24      0.00
   11    8   12      0.45      0.00
   12    8   12      1.97      0.00
   13    8   12      1.35      0.00
   14    8   12     -0.24      0.00
   15    8   12     -0.82      0.00
   -7    9   12     -0.57      0.00
   -6    9   12      0.00      0.00
   -5    9   12      0.93      0.00
   -4    9   12      0.65      0.00
   -3    9   12     -0.70      0.00
   -2    9   12     -1.31      0.00
   -1    9   12      0.28      0.00
    0    9   12      2.56      0.00
    1    9   12      1.86      0.00
    2    9   12     -2.17      0.00
    3    9   12     -4.92      0.00
    4    9   12     -2.69      0.00
    5    9   12      1.68      0.00
    6    9   12      2.59      0.00
    7    9   12      0.14      0.00
    8    9   12     -1.16      0.00
    9    9   12      0.25      0.00
   10    9   12      1.79      0.00
   11    9   12      0.81      0.00
   12    9   12     -1.67      0.00
   13    9   12     -2.29      0.00
   14    9   12     -0.69      0.00
   15    9   12      0.62      0.00
   -6   10   12      0.74      0.00
   -5   10   12     -0.37      0.00
   -4   10   12     -1.33      0.00
   -3   10   12     -0.43      0.00
   -2   10   12      1.38      0.00
   -1   10   12      1.59      0.00
    0   10   12     -0.62      0.00
    1   10   12     -2.47      0.00
    2   10   12     -0.92      0.00
    3   10   12      2.65      0.00
    4   10   12      3.76      0.00
    5   10   12      0.97      0.00
    6   10   12     -1.60      0.00
    7   10   12     -0.51      0.00
    8   10   12      1.63      0.00
    9   10   12      1.10      0.00
   10   10   12     -1.41      0.00
   11   10   12     -2.32      0.00
   12   10   12     -0.14      0.00
   13   10   12      2.11      0.00
   14   10   12      1.66      0.00
   15   10   12      0.13      0.00
   -5   11   12     -0.61      0.00
   -4   11   12      0.65      0.00
   -3   11   12      1.20      0.00
   -2   11   12     -0.11      0.00
   -1   11   12     -1.73      0.00
    0   11   12     -1.34      0.00
    1   11   12      0.86      0.00
    2   11   12      1.87      0.00
    3   11   12      0.18      0.00
    4   11   12     -1.98      0.00
    5   11   12     -1.56      0.00
    6   11   12      0.74      0.00
    7   11   12      1.05      0.00
    8   11   12     -1.26      0.00
    9   11   12     -2.40      0.00
   10   11   12     -0.36      0.00
   11   11   12      2.34      0.00
   12   11   12      2.15      0.00
   13   11   12     -0.49      0.00
   14   11   12     -1.74      0.00
   -4   12   12      0.20      0.00
   -3   12   12     -0.80      0.00
   -2   12   12     -0.83      0.00
   -1   12   12      0.47      0.00
    0   12   12      1.44      0.00
    1   12   12      0.60      0.00
    2   12   12     -0.98      0.00
    3   12   12     -1.15      0.00
    4   12   12      0.06      0.00
    5   12   12      0.56      0.00
    6   12   12     -0.74      0.00
    7   12   12     -1.73      0.00
    8   12   12     -0.13      0.00
    9   12   12      2.30      0.00
   10   12   12      2.12      0.00
   11   12   12     -0.65      0.00
   12   12   12     -2.59      0.00
   13   12   12     -1.40      0.00
   14   12   12      0.73      0.00
   -2   13   12      0.83      0.00
   -1   13   12      0.47      0.00
    0   13   12     -0.52      0.00
    1   13   12     -0.80      0.00
    2   13   12      0.07      0.00
    3   13   12      0.71      0.00
    4   13   12      0.29      0.00
    5   13   12     -0.11      0.00
    6   13   12      0.76      0.00
    7   13   12      2.12      0.00
    8   13   12      1.66      0.00
    9   13   12     -0.84      0.00
   10   13   12     -2.44      0.00
   11   13   12     -1.21      0.00
   12   13   12      1.29      0.00
   13   13   12      2.01      0.00
   14   13   12      0.51      0.00
    0   14   12     -0.15      0.00
    1   14   12      0.48      0.00
    2   14   12      0.33      0.00
    3   14   12     -0.19      0.00
    4   14   12      0.00      0.00
    5   14   12      0.56      0.00
    6   14   12      0.11      0.00
    7   14   12     -1.45      0.00
    8   14   12     -2.26      0.00
    9   14   12     -0.80      0.00
   10   14   12      1.44      0.00
   11   14   12      1.91      0.00
   12   14   12      0.34      0.00
   13   14   12     -1.19      0.00
    2   15   12     -0.44      0.00
    3   15   12     -0.18      0.00
    4   15   12     -0.07      0.00
    5   15   12     -0.68      0.00
    6   15   12     -0.98      0.00
    7   15   12      0.03      0.00
    8   15   12      1.49      0.00
    9   15   12      1.50      0.00
   10   15   12     -0.15      0.00
   11   15   12     -1.48      0.00
   12   15   12     -1.10      0.00
    5   16   12      0.28      0.00
    6   16   12      0.87      0.00
    7   16   12      0.79      0.00
    8   16   12     -0.26      0.00
    9   16   12     -1.07      0.00
   -9  -14   13      0.17      0.00
   -8  -14   13     -0.71      0.00
   -7  -14   13     -1.16      0.00
   -6  -14   13     -1.02      0.00
   -5  -14   13     -0.67      0.00
   -4  -14   13     -0.29      0.00
  -11  -13   13     -0.14      0.00
  -10  -13   13     -0.40      0.00
   -9  -13   13     -0.95      0.00
   -8  -13   13     -0.56      0.00
   -7  -13   13      0.39      0.00
   -6  -13   13      0.89      0.00
   -5  -13   13      0.74      0.00
   -4  -13   13      0.39      0.00
   -3  -13   13      0.28      0.00
   -2  -13   13      0.38      0.00
   -1  -13   13      0.15      0.00
  -12  -12   13      1.15      0.00
  -11  -12   13      0.36      0.00
  -10  -12   13     -0.17      0.00
   -9  -12   13      0.50      0.00
   -8  -12   13      1.15      0.00
   -7  -12   13      0.78      0.00
   -6  -12   13     -0.07      0.00
   -5  -12   13     -0.44      0.00
   -4  -12   13     -0.23      0.00
   -3  -12   13     -0.06      0.00
   -2  -12   13     -0.46      0.00
   -1  -12   13     -0.72      0.00
    0  -12   13     -0.05      0.00
    1  -12   13      0.56      0.00
  -13  -11   13     -0.25      0.00
  -12  -11   13     -1.38      0.00
  -11  -11   13     -1.08      0.00
  -10  -11   13      0.16      0.00
   -9  -11   13      0.43      0.00
   -8  -11   13     -0.36      0.00
   -7  -11   13     -0.89      0.00
   -6  -11   13     -0.62      0.00
   -5  -11   13     -0.15      0.00
   -4  -11   13     -0.13      0.00
   -3  -11   13     -0.40      0.00
   -2  -11   13     -0.11      0.00
   -1  -11   13      0.80      0.00
    0  -11   13      0.85      0.00
    1  -11   13     -0.23      0.00
    2  -11   13     -0.71      0.00
    3  -11   13     -0.29      0.00
  -13  -10   13     -0.61      0.00
  -12  -10   13      0.63      0.00
  -11  -10   13      1.44      0.00
  -10  -10   13      0.64      0.00
   -9  -10   13     -0.43      0.00
   -8  -10   13     -0.54      0.00
   -7  -10   13     -0.07      0.00
   -6  -10   13      0.17      0.00
   -5  -10   13      0.11      0.00
   -4  -10   13      0.26      0.00
   -3  -10   13      0.74      0.00
   -2  -10   13      0.90      0.00
   -1  -10   13     -0.01      0.00
    0  -10   13     -1.11      0.00
    1  -10   13     -0.72      0.00
    2  -10   13      0.48      0.00
    3  -10   13      0.81      0.00
    4  -10   13      0.51      0.00
  -14   -9   13      0.31      0.00
  -13   -9   13      0.86      0.00
  -12   -9   13      0.48      0.00
  -11   -9   13     -0.58      0.00
  -10   -9   13     -0.88      0.00
   -9   -9   13     -0.33      0.00
   -8   -9   13      0.25      0.00
   -7   -9   13      0.56      0.00
   -6   -9   13      0.69      0.00
   -5   -9   13      0.78      0.00
   -4   -9   13      0.57      0.00
   -3   -9   13     -0.28      0.00
   -2   -9   13     -1.18      0.00
   -1   -9   13     -1.04      0.00
    0   -9   13      0.32      0.00
    1   -9   13      1.21      0.00
    2   -9   13      0.50      0.00
    3   -9   13     -0.56      0.00
    4   -9   13     -0.86      0.00
    5   -9   13     -0.68      0.00
  -14   -8   13      0.19      0.00
  -13   -8   13     -0.31      0.00
  -12   -8   13     -0.62      0.00
  -11   -8   13     -0.35      0.00
  -10   -8   13      0.00      0.00
   -9   -8   13      0.22      0.00
   -8   -8   13      0.43      0.00
   -7   -8   13      0.15      0.00
   -6   -8   13     -0.55      0.00
   -5   -8   13     -1.22      0.00
   -4   -8   13     -1.61      0.00
   -3   -8   13     -1.12      0.00
   -2   -8   13      0.27      0.00
   -1   -8   13      1.32      0.00
    0   -8   13      0.83      0.00
    1   -8   13     -0.64      0.00
    2   -8   13     -1.15      0.00
    3   -8   13     -0.33      0.00
    4   -8   13      0.43      0.00
    5   -8   13      0.62      0.00
    6   -8   13      0.40      0.00
  -14   -7   13     -0.37      0.00
  -13   -7   13     -0.23      0.00
  -12   -7   13      0.07      0.00
  -11   -7   13      0.22      0.00
  -10   -7   13      0.43      0.00
   -9   -7   13      0.59      0.00
   -8   -7   13     -0.03      0.00
   -7   -7   13     -0.76      0.00
   -6   -7   13     -0.50      0.00
   -5   -7   13      0.38      0.00
   -4   -7   13      1.34      0.00
   -3   -7   13      1.89      0.00
   -2   -7   13      1.25      0.00
   -1   -7   13     -0.24      0.00
    0   -7   13     -1.09      0.00
    1   -7   13     -0.31      0.00
    2   -7   13      1.00      0.00
    3   -7   13      1.03      0.00
    4   -7   13      0.24      0.00
    5   -7   13     -0.06      0.00
    6   -7   13      0.13      0.00
    7   -7   13      0.33      0.00
  -14   -6   13      0.16      0.00
  -13   -6   13      0.38      0.00
  -12   -6   13      0.33      0.00
  -11   -6   13      0.22      0.00
  -10   -6   13      0.04      0.00
   -9   -6   13     -0.47      0.00
   -8   -6   13     -0.58      0.00
   -7   -6   13      0.22      0.00
   -6   -6   13      0.88      0.00
   -5   -6   13      0.70      0.00
   -4   -6   13      0.00      0.00
   -3   -6   13     -0.99      0.00
   -2   -6   13     -1.54      0.00
   -1   -6   13     -1.02      0.00
    0   -6   13      0.05      0.00
    1   -6   13      0.41      0.00
    2   -6   13     -0.54      0.00
    3   -6   13     -1.36      0.00
    4   -6   13     -0.78      0.00
    5   -6   13     -0.08      0.00
    6   -6   13     -0.41      0.00
    7   -6   13     -1.03      0.00
    8   -6   13     -0.95      0.00
  -14   -5   13      0.11      0.00
  -13   -5   13     -0.20      0.00
  -12   -5   13     -0.56      0.00
  -11   -5   13     -0.53      0.00
  -10   -5   13     -0.31      0.00
   -9   -5   13     -0.09      0.00
   -8   -5   13      0.18      0.00
   -7   -5   13      0.18      0.00
   -6   -5   13     -0.14      0.00
   -5   -5   13     -0.43      0.00
   -4   -5   13     -0.59      0.00
   -3   -5   13     -0.30      0.00
   -2   -5   13      0.40      0.00
   -1   -5   13      0.81      0.00
    0   -5   13      0.69      0.00
    1   -5   13      0.40      0.00
    2   -5   13      0.63      0.00
    3   -5   13      1.45      0.00
    4   -5   13      1.39      0.00
    5   -5   13      0.12      0.00
    6   -5   13     -0.39      0.00
    7   -5   13      0.57      0.00
    8   -5   13      1.39      0.00
    9   -5   13      1.04      0.00
  -14   -4   13     -0.11      0.00
  -13   -4   13     -0.07      0.00
   -8   -4   13      0.00      0.00
   -7   -4   13      0.14      0.00
   -6   -4   13     -0.14      0.00
   -5   -4   13     -0.62      0.00
   -4   -4   13     -0.53      0.00
   -3   -4   13      0.07      0.00
   -2   -4   13      0.31      0.00
   -1   -4   13      0.24      0.00
    0   -4   13      0.15      0.00
    1   -4   13     -0.25      0.00
    2   -4   13     -0.84      0.00
    3   -4   13     -1.52      0.00
    4   -4   13     -1.84      0.00
    5   -4   13     -0.73      0.00
    6   -4   13      1.00      0.00
    7   -4   13      1.15      0.00
    8   -4   13     -0.23      0.00
    9   -4   13     -1.11      0.00
   10   -4   13     -0.78      0.00
   -6   -3   13     -0.19      0.00
   -5   -3   13      0.55      0.00
   -4   -3   13      1.58      0.00
   -3   -3   13      1.51      0.00
   -2   -3   13      0.63      0.00
   -1   -3   13     -0.16      0.00
    0   -3   13     -0.99      0.00
    1   -3   13     -1.31      0.00
    2   -3   13     -0.46      0.00
    3   -3   13      0.85      0.00
    4   -3   13      1.78      0.00
    5   -3   13      1.51      0.00
    6   -3   13     -0.36      0.00
    7   -3   13     -2.12      0.00
    8   -3   13     -1.84      0.00
    9   -3   13     -0.25      0.00
   10   -3   13      0.68      0.00
   11   -3   13      0.51      0.00
   -4   -2   13     -0.72      0.00
   -3   -2   13     -1.98      0.00
   -2   -2   13     -2.10      0.00
   -1   -2   13     -1.30      0.00
    0   -2   13      0.00      0.00
    1   -2   13      1.72      0.00
    2   -2   13      2.42      0.00
    3   -2   13      1.38      0.00
    4   -2   13     -0.36      0.00
    5   -2   13     -1.56      0.00
    6   -2   13     -0.98      0.00
    7   -2   13      1.23      0.00
    8   -2   13      2.71      0.00
    9   -2   13      2.03      0.00
   10   -2   13      0.42      0.00
   11   -2   13     -0.39      0.00
   -3   -1   13      0.27      0.00
   -2   -1   13      1.80      0.00
   -1   -1   13      2.46      0.00
    0   -1   13      2.05      0.00
    1   -1   13      0.40      0.00
    2   -1   13     -1.89      0.00
    3   -1   13     -3.00      0.00
    4   -1   13     -2.22      0.00
    5   -1   13     -0.16      0.00
    6   -1   13      1.50      0.00
    7   -1   13      0.77      0.00
    8   -1   13     -1.51      0.00
    9   -1   13     -2.55      0.00
   10   -1   13     -1.62      0.00
   11   -1   13     -0.28      0.00
   12   -1   13      0.14      0.00
   -3    0   13      1.53      0.00
   -2    0   13      0.34      0.00
   -1    0   13     -1.55      0.00
    0    0   13     -2.92      0.00
    1    0   13     -2.99      0.00
    2    0   13     -1.31      0.00
    3    0   13      1.24      0.00
    4    0   13      2.98      0.00
    5    0   13      2.62      0.00
    6    0   13      0.09      0.00
    7    0   13     -1.83      0.00
    8    0   13     -0.83      0.00
    9    0   13      1.28      0.00
   10    0   13      1.82      0.00
   11    0   13      0.86      0.00
   12    0   13      0.08      0.00
   -2    1   13     -1.99      0.00
   -1    1   13     -0.86      0.00
    0    1   13      1.24      0.00
    1    1   13      3.26      0.00
    2    1   13      3.94      0.00
    3    1   13      2.52      0.00
    4    1   13     -0.33      0.00
    5    1   13     -2.75      0.00
    6    1   13     -2.36      0.00
    7    1   13      0.51      0.00
    8    1   13      2.07      0.00
    9    1   13      0.83      0.00
   10    1   13     -0.78      0.00
   11    1   13     -0.84      0.00
   12    1   13     -0.06      0.00
   13    1   13      0.05      0.00
   -2    2   13      1.82      0.00
   -1    2   13      2.28      0.00
    0    2   13      1.66      0.00
    1    2   13     -0.39      0.00
    2    2   13     -3.13      0.00
    3    2   13     -4.57      0.00
    4    2   13     -3.23      0.00
    5    2   13      0.10      0.00
    6    2   13      2.51      0.00
    7    2   13      1.62      0.00
    8    2   13     -0.90      0.00
    9    2   13     -1.70      0.00
   10    2   13     -0.59      0.00
   11    2   13      0.36      0.00
   12    2   13      0.01      0.00
   13    2   13     -0.51      0.00
   -3    3   13     -0.13      0.00
   -2    3   13     -0.68      0.00
   -1    3   13     -1.52      0.00
    0    3   13     -2.70      0.00
    1    3   13     -3.03      0.00
    2    3   13     -0.98      0.00
    3    3   13      2.68      0.00
    4    3   13      4.54      0.00
    5    3   13      2.74      0.00
    6    3   13     -0.66      0.00
    7    3   13     -2.16      0.00
    8    3   13     -0.99      0.00
    9    3   13      0.60      0.00
   10    3   13      0.87      0.00
   11    3   13      0.10      0.00
   12    3   13     -0.23      0.00
   13    3   13      0.50      0.00
   14    3   13      0.69      0.00
  -11    4   13      0.33      0.00
  -10    4   13      0.01      0.00
   -9    4   13     -0.46      0.00
   -8    4   13     -0.18      0.00
   -7    4   13      0.86      0.00
   -5    4   13     -0.36      0.00
   -4    4   13     -1.08      0.00
   -3    4   13     -0.48      0.00
   -2    4   13     -0.12      0.00
   -1    4   13     -0.11      0.00
    0    4   13      0.93      0.00
    1    4   13      3.27      0.00
    2    4   13      4.52      0.00
    3    4   13      2.04      0.00
    4    4   13     -2.23      0.00
    5    4   13     -3.57      0.00
    6    4   13     -1.26      0.00
    7    4   13      1.26      0.00
    8    4   13      1.63      0.00
    9    4   13      0.70      0.00
   10    4   13     -0.07      0.00
   11    4   13     -0.09      0.00
   12    4   13      0.42      0.00
   13    4   13      0.16      0.00
   14    4   13     -0.77      0.00
  -10    5   13     -0.33      0.00
   -9    5   13      0.01      0.00
   -8    5   13      0.35      0.00
   -7    5   13     -0.06      0.00
   -6    5   13     -0.77      0.00
   -5    5   13     -0.39      0.00
   -4    5   13      0.55      0.00
   -3    5   13      0.40      0.00
   -2    5   13     -0.04      0.00
   -1    5   13      0.67      0.00
    0    5   13      1.38      0.00
    1    5   13     -0.22      0.00
    2    5   13     -3.80      0.00
    3    5   13     -5.26      0.00
    4    5   13     -2.15      0.00
    5    5   13      1.66      0.00
    6    5   13      1.88      0.00
    7    5   13     -0.18      0.00
    8    5   13     -1.20      0.00
    9    5   13     -0.79      0.00
   10    5   13     -0.20      0.00
   11    5   13      0.02      0.00
   12    5   13     -0.31      0.00
   13    5   13     -0.63      0.00
   14    5   13      0.11      0.00
   -9    6   13      0.20      0.00
   -8    6   13     -0.03      0.00
   -7    6   13     -0.12      0.00
   -6    6   13      0.15      0.00
   -5    6   13      0.15      0.00
   -4    6   13     -0.50      0.00
   -3    6   13     -0.46      0.00
   -2    6   13      0.54      0.00
   -1    6   13      0.35      0.00
    0    6   13     -1.67      0.00
    1    6   13     -2.68      0.00
    2    6   13     -0.09      0.00
    3    6   13      4.06      0.00
    4    6   13      4.74      0.00
    5    6   13      1.52      0.00
    6    6   13     -0.82      0.00
    7    6   13     -0.22      0.00
    8    6   13      0.81      0.00
    9    6   13      0.44      0.00
   10    6   13     -0.49      0.00
   11    6   13     -0.78      0.00
   12    6   13     -0.29      0.00
   13    6   13      0.46      0.00
   14    6   13      0.46      0.00
   -8    7   13      0.09      0.00
   -7    7   13     -0.07      0.00
   -6    7   13     -0.28      0.00
   -5    7   13     -0.07      0.00
   -4    7   13      0.73      0.00
   -3    7   13      1.11      0.00
   -2    7   13     -0.16      0.00
   -1    7   13     -1.50      0.00
    0    7   13     -0.18      0.00
    1    7   13      2.78      0.00
    2    7   13      3.28      0.00
    3    7   13     -0.19      0.00
    4    7   13     -3.67      0.00
    5    7   13     -3.15      0.00
    6    7   13     -0.66      0.00
    7    7   13     -0.02      0.00
    8    7   13     -0.89      0.00
    9    7   13     -0.83      0.00
   10    7   13      0.62      0.00
   11    7   13      1.84      0.00
   12    7   13      1.52      0.00
   13    7   13      0.23      0.00
   14    7   13     -0.56      0.00
   -8    8   13     -0.42      0.00
   -7    8   13     -0.31      0.00
   -6    8   13      0.48      0.00
   -5    8   13      0.80      0.00
   -4    8   13     -0.14      0.00
   -3    8   13     -1.44      0.00
   -2    8   13     -1.10      0.00
   -1    8   13      1.05      0.00
    0    8   13      1.94      0.00
    1    8   13     -0.48      0.00
    2    8   13     -3.47      0.00
    3    8   13     -2.96      0.00
    4    8   13      0.56      0.00
    5    8   13      2.40      0.00
    6    8   13      1.06      0.00
    7    8   13     -0.13      0.00
    8    8   13      0.69      0.00
    9    8   13      1.64      0.00
   10    8   13      0.73      0.00
   11    8   13     -1.49      0.00
   12    8   13     -2.49      0.00
   13    8   13     -1.33      0.00
   14    8   13      0.18      0.00
   -7    9   13      0.74      0.00
   -6    9   13      0.23      0.00
   -5    9   13     -1.04      0.00
   -4    9   13     -1.09      0.00
   -3    9   13      0.51      0.00
   -2    9   13      1.78      0.00
   -1    9   13      0.70      0.00
    0    9   13     -1.53      0.00
    1    9   13     -1.49      0.00
    2    9   13      1.34      0.00
    3    9   13      3.41      0.00
    4    9   13      2.02      0.00
    5    9   13     -0.55      0.00
    6    9   13     -0.60      0.00
    7    9   13      0.84      0.00
    8    9   13      0.55      0.00
    9    9   13     -1.37      0.00
   10    9   13     -2.26      0.00
   11    9   13     -0.57      0.00
   12    9   13      1.87      0.00
   13    9   13      2.13      0.00
   14    9   13      0.60      0.00
   -6   10   13     -0.86      0.00
   -5   10   13      0.07      0.00
   -4   10   13      1.34      0.00
   -3   10   13      0.90      0.00
   -2   10   13     -0.92      0.00
   -1   10   13     -1.72      0.00
    0   10   13     -0.29      0.00
    1   10   13      1.27      0.00
    2   10   13      0.49      0.00
    3   10   13     -1.74      0.00
    4   10   13     -2.39      0.00
    5   10   13     -0.75      0.00
    6   10   13      0.24      0.00
    7   10   13     -1.03      0.00
    8   10   13     -1.93      0.00
    9   10   13     -0.37      0.00
   10   10   13      2.07      0.00
   11   10   13      2.44      0.00
   12   10   13      0.17      0.00
   13   10   13     -1.72      0.00
   14   10   13     -1.25      0.00
   -4   11   13     -0.45      0.00
   -3   11   13     -1.27      0.00
   -2   11   13     -0.45      0.00
   -1   11   13      1.07      0.00
    0   11   13      1.23      0.00
    1   11   13     -0.03      0.00
    2   11   13     -0.63      0.00
    3   11   13      0.29      0.00
    4   11   13      1.21      0.00
    5   11   13      0.58      0.00
    6   11   13     -0.57      0.00
    7   11   13      0.13      0.00
    8   11   13      1.96      0.00
    9   11   13      2.02      0.00
   10   11   13     -0.25      0.00
   11   11   13     -2.40      0.00
   12   11   13     -1.93      0.00
   13   11   13      0.29      0.00
   14   11   13      1.18      0.00
   -3   12   13      0.79      0.00
   -2   12   13      1.01      0.00
   -1   12   13      0.06      0.00
    0   12   13     -0.83      0.00
    1   12   13     -0.48      0.00
    2   12   13      0.24      0.00
    3   12   13      0.06      0.00
    4   12   13     -0.47      0.00
    5   12   13     -0.03      0.00
    6   12   13      1.23      0.00
    7   12   13      1.35      0.00
    8   12   13     -0.52      0.00
    9   12   13     -2.15      0.00
   10   12   13     -1.44      0.00
   11   12   13      0.82      0.00
   12   12   13      2.08      0.00
   13   12   13      1.02      0.00
   14   12   13     -0.46      0.00
   -2   13   13     -0.93      0.00
   -1   13   13     -0.67      0.00
    0   13   13      0.18      0.00
    1   13   13      0.44      0.00
    2   13   13     -0.11      0.00
    3   13   13     -0.22      0.00
    4   13   13      0.36      0.00
    5   13   13      0.31      0.00
    6   13   13     -0.98      0.00
    7   13   13     -2.10      0.00
    8   13   13     -1.21      0.00
    9   13   13      0.95      0.00
   10   13   13      1.86      0.00
   11   13   13      0.73      0.00
   12   13   13     -0.97      0.00
   13   13   13     -1.29      0.00
    0   14   13      0.28      0.00
    1   14   13     -0.34      0.00
    2   14   13     -0.18      0.00
    3   14   13      0.30      0.00
    4   14   13     -0.02      0.00
    5   14   13     -0.64      0.00
    6   14   13     -0.15      0.00
    7   14   13      1.27      0.00
    8   14   13      1.79      0.00
    9   14   13      0.43      0.00
   10   14   13     -1.22      0.00
   11   14   13     -1.36      0.00
   12   14   13     -0.21      0.00
    3   15   13      0.05      0.00
    4   15   13     -0.23      0.00
    5   15   13      0.26      0.00
    6   15   13      0.68      0.00
    7   15   13      0.07      0.00
    8   15   13     -0.97      0.00
    9   15   13     -0.93      0.00
   10   15   13      0.29      0.00
   11   15   13      1.15      0.00
  -10  -13   14      0.19      0.00
   -9  -13   14      0.75      0.00
   -8  -13   14      0.56      0.00
   -7  -13   14     -0.05      0.00
   -6  -13   14     -0.24      0.00
   -5  -13   14     -0.03      0.00
   -4  -13   14      0.06      0.00
   -3  -13   14     -0.22      0.00
   -2  -13   14     -0.52      0.00
  -11  -12   14     -0.43      0.00
  -10  -12   14      0.16      0.00
   -9  -12   14     -0.19      0.00
   -8  -12   14     -0.66      0.00
   -7  -12   14     -0.53      0.00
   -6  -12   14     -0.23      0.00
   -5  -12   14     -0.20      0.00
   -4  -12   14     -0.34      0.00
   -3  -12   14     -0.20      0.00
   -2  -12   14      0.41      0.00
   -1  -12   14      0.70      0.00
    0  -12   14      0.06      0.00
  -12  -11   14      1.41      0.00
  -11  -11   14      1.35      0.00
  -10  -11   14      0.32      0.00
   -9  -11   14     -0.22      0.00
   -8  -11   14      0.01      0.00
   -7  -11   14      0.26      0.00
   -6  -11   14      0.29      0.00
   -5  -11   14      0.40      0.00
   -4  -11   14      0.61      0.00
   -3  -11   14      0.67      0.00
   -2  -11   14      0.19      0.00
   -1  -11   14     -0.67      0.00
    0  -11   14     -0.65      0.00
    1  -11   14      0.29      0.00
    2  -11   14      0.49      0.00
  -13  -10   14      0.35      0.00
  -12  -10   14     -0.68      0.00
  -11  -10   14     -1.52      0.00
  -10  -10   14     -1.14      0.00
   -9  -10   14     -0.28      0.00
   -8  -10   14      0.17      0.00
   -7  -10   14      0.30      0.00
   -6  -10   14      0.38      0.00
   -5  -10   14      0.20      0.00
   -4  -10   14     -0.33      0.00
   -3  -10   14     -0.81      0.00
   -2  -10   14     -0.79      0.00
   -1  -10   14      0.01      0.00
    0  -10   14      0.78      0.00
    1  -10   14      0.30      0.00
    2  -10   14     -0.59      0.00
    3  -10   14     -0.58      0.00
  -13   -9   14     -0.50      0.00
  -12   -9   14     -0.20      0.00
  -11   -9   14      0.62      0.00
  -10   -9   14      0.98      0.00
   -9   -9   14      0.79      0.00
   -8   -9   14      0.40      0.00
   -7   -9   14     -0.11      0.00
   -6   -9   14     -0.70      0.00
   -5   -9   14     -1.11      0.00
   -4   -9   14     -0.86      0.00
   -3   -9   14      0.00      0.00
   -2   -9   14      0.73      0.00
   -1   -9   14      0.60      0.00
    0   -9   14     -0.27      0.00
    1   -9   14     -0.60      0.00
    2   -9   14      0.14      0.00
    3   -9   14      0.70      0.00
    4   -9   14      0.60      0.00
    5   -9   14      0.38      0.00
  -13   -8   14      0.27      0.00
  -12   -8   14      0.33      0.00
  -11   -8   14      0.02      0.00
  -10   -8   14     -0.14      0.00
   -9   -8   14     -0.28      0.00
   -8   -8   14     -0.61      0.00
   -7   -8   14     -0.54      0.00
   -6   -8   14      0.11      0.00
   -5   -8   14      0.99      0.00
   -4   -8   14      1.63      0.00
   -3   -8   14      1.37      0.00
   -2   -8   14      0.34      0.00
   -1   -8   14     -0.44      0.00
    0   -8   14     -0.20      0.00
    1   -8   14      0.47      0.00
    2   -8   14      0.27      0.00
    3   -8   14     -0.46      0.00
    4   -8   14     -0.58      0.00
    5   -8   14     -0.33      0.00
    6   -8   14     -0.15      0.00
  -14   -7   14      0.02      0.00
  -13   -7   14     -0.17      0.00
  -12   -7   14     -0.27      0.00
  -11   -7   14     -0.02      0.00
  -10   -7   14     -0.02      0.00
   -9   -7   14     -0.35      0.00
   -8   -7   14     -0.04      0.00
   -7   -7   14      0.59      0.00
   -6   -7   14      0.59      0.00
   -5   -7   14      0.04      0.00
   -4   -7   14     -0.81      0.00
   -3   -7   14     -1.52      0.00
   -2   -7   14     -1.35      0.00
   -1   -7   14     -0.52      0.00
    0   -7   14     -0.06      0.00
    1   -7   14     -0.48      0.00
    2   -7   14     -0.75      0.00
    3   -7   14     -0.03      0.00
    4   -7   14      0.59      0.00
    5   -7   14      0.24      0.00
    6   -7   14     -0.32      0.00
    7   -7   14     -0.39      0.00
  -14   -6   14      0.03      0.00
  -13   -6   14      0.12      0.00
  -12   -6   14      0.28      0.00
  -11   -6   14      0.13      0.00
  -10   -6   14     -0.14      0.00
   -9   -6   14      0.13      0.00
   -7   -6   14     -0.08      0.00
   -6   -6   14     -0.51      0.00
   -5   -6   14     -0.62      0.00
   -4   -6   14     -0.46      0.00
   -3   -6   14      0.15      0.00
   -2   -6   14      0.77      0.00
   -1   -6   14      0.86      0.00
    0   -6   14      0.72      0.00
    1   -6   14      0.95      0.00
    2   -6   14      1.47      0.00
    3   -6   14      1.14      0.00
    4   -6   14     -0.14      0.00
    5   -6   14     -0.68      0.00
    6   -6   14      0.14      0.00
    7   -6   14      0.96      0.00
    8   -6   14      0.76      0.00
  -10   -5   14     -0.02      0.00
   -9   -5   14      0.01      0.00
   -8   -5   14     -0.06      0.00
   -7   -5   14      0.04      0.00
   -6   -5   14      0.12      0.00
   -5   -5   14      0.13      0.00
   -4   -5   14      0.49      0.00
   -3   -5   14      0.79      0.00
   -2   -5   14      0.61      0.00
   -1   -5   14      0.28      0.00
    0   -5   14     -0.24      0.00
    1   -5   14     -1.13      0.00
    2   -5   14     -2.10      0.00
    3   -5   14     -2.41      0.00
    4   -5   14     -1.23      0.00
    5   -5   14      0.57      0.00
    6   -5   14      0.93      0.00
    7   -5   14     -0.26      0.00
    8   -5   14     -1.07      0.00
    9   -5   14     -0.67      0.00
   -7   -4   14     -0.19      0.00
   -6   -4   14     -0.26      0.00
   -5   -4   14      0.34      0.00
   -4   -4   14      0.62      0.00
   -3   -4   14      0.01      0.00
   -2   -4   14     -0.70      0.00
   -1   -4   14     -1.24      0.00
    0   -4   14     -1.42      0.00
    1   -4   14     -0.41      0.00
    2   -4   14      1.46      0.00
    3   -4   14      2.84      0.00
    4   -4   14      2.61      0.00
    5   -4   14      0.64      0.00
    6   -4   14     -1.29      0.00
    7   -4   14     -1.29      0.00
    8   -4   14      0.04      0.00
    9   -4   14      0.69      0.00
   -5   -3   14      0.08      0.00
   -4   -3   14     -1.07      0.00
   -3   -3   14     -1.49      0.00
   -2   -3   14     -0.78      0.00
   -1   -3   14      0.43      0.00
    0   -3   14      1.96      0.00
    1   -3   14      2.65      0.00
    2   -3   14      1.22      0.00
    3   -3   14     -1.25      0.00
    4   -3   14     -2.67      0.00
    5   -3   14     -1.92      0.00
    6   -3   14      0.35      0.00
    7   -3   14      1.89      0.00
    8   -3   14      1.42      0.00
    9   -3   14      0.18      0.00
   10   -3   14     -0.24      0.00
   -4   -2   14      0.07      0.00
   -3   -2   14      1.50      0.00
   -2   -2   14      2.10      0.00
   -1   -2   14      1.42      0.00
    0   -2   14     -0.36      0.00
    1   -2   14     -2.71      0.00
    2   -2   14     -3.61      0.00
    3   -2   14     -2.02      0.00
    4   -2   14      0.53      0.00
    5   -2   14      1.89      0.00
    6   -2   14      0.97      0.00
    7   -2   14     -1.07      0.00
    8   -2   14     -1.92      0.00
    9   -2   14     -1.12      0.00
   10   -2   14     -0.19      0.00
   11   -2   14     -0.04      0.00
   -3   -1   14      0.18      0.00
   -2   -1   14     -1.50      0.00
   -1   -1   14     -2.42      0.00
    0   -1   14     -1.84      0.00
    1   -1   14      0.30      0.00
    2   -1   14      2.83      0.00
    3   -1   14      3.72      0.00
    4   -1   14      2.44      0.00
    5   -1   14      0.12      0.00
    6   -1   14     -1.20      0.00
    7   -1   14     -0.33      0.00
    8   -1   14      1.21      0.00
    9   -1   14      1.36      0.00
   10   -1   14      0.51      0.00
   11   -1   14      0.09      0.00
   -3    0   14     -1.63      0.00
   -2    0   14     -0.58      0.00
   -1    0   14      1.36      0.00
    0    0   14      2.64      0.00
    1    0   14      2.25      0.00
    2    0   14      0.26      0.00
    3    0   14     -1.93      0.00
    4    0   14     -2.96      0.00
    5    0   14     -2.25      0.00
    6    0   14     -0.24      0.00
    7    0   14      0.88      0.00
    8    0   14      0.05      0.00
    9    0   14     -0.85      0.00
   10    0   14     -0.50      0.00
   11    0   14      0.14      0.00
   12    0   14      0.03      0.00
   -2    1   14      2.00      0.00
   -1    1   14      0.91      0.00
    0    1   14     -1.14      0.00
    1    1   14     -2.74      0.00
    2    1   14     -2.74      0.00
    3    1   14     -1.28      0.00
    4    1   14      0.61      0.00
    5    1   14      1.92      0.00
    6    1   14      1.52      0.00
    7    1   14     -0.07      0.00
    8    1   14     -0.62      0.00
    9    1   14      0.06      0.00
   10    1   14      0.28      0.00
   11    1   14     -0.33      0.00
   12    1   14     -0.68      0.00
   -2    2   14     -1.65      0.00
   -1    2   14     -2.08      0.00
    0    2   14     -1.34      0.00
    1    2   14      0.55      0.00
    2    2   14      2.51      0.00
    3    2   14      3.10      0.00
    4    2   14      2.04      0.00
    5    2   14      0.18      0.00
    6    2   14     -0.99      0.00
    7    2   14     -0.56      0.00
    8    2   14      0.23      0.00
    9    2   14      0.17      0.00
   10    2   14     -0.15      0.00
   11    2   14      0.11      0.00
   12    2   14      0.82      0.00
   13    2   14      0.98      0.00
   -2    3   14      0.46      0.00
   -1    3   14      1.18      0.00
    0    3   14      2.05      0.00
    1    3   14      2.07      0.00
    2    3   14      0.38      0.00
    3    3   14     -2.03      0.00
    4    3   14     -2.99      0.00
    5    3   14     -1.87      0.00
    6    3   14     -0.29      0.00
    7    3   14      0.15      0.00
    8    3   14     -0.10      0.00
    9    3   14      0.08      0.00
   10    3   14      0.43      0.00
   11    3   14      0.44      0.00
   12    3   14     -0.05      0.00
   13    3   14     -0.91      0.00
   -3    4   14      0.03      0.00
   -2    4   14      0.03      0.00
   -1    4   14      0.29      0.00
    0    4   14     -0.39      0.00
    1    4   14     -2.03      0.00
    2    4   14     -2.81      0.00
    3    4   14     -1.09      0.00
    4    4   14      1.52      0.00
    5    4   14      2.13      0.00
    6    4   14      0.92      0.00
    7    4   14      0.25      0.00
    8    4   14      0.54      0.00
    9    4   14      0.27      0.00
   10    4   14     -0.55      0.00
   11    4   14     -0.93      0.00
   12    4   14     -0.88      0.00
   13    4   14     -0.15      0.00
  -10    5   14      0.06      0.00
   -9    5   14      0.06      0.00
   -8    5   14     -0.02      0.00
   -7    5   14      0.10      0.00
   -6    5   14      0.31      0.00
   -5    5   14     -0.07      0.00
   -4    5   14     -0.46      0.00
   -3    5   14      0.12      0.00
   -2    5   14      0.53      0.00
   -1    5   14     -0.42      0.00
    0    5   14     -1.34      0.00
    1    5   14     -0.36      0.00
    2    5   14      2.06      0.00
    3    5   14      3.03      0.00
    4    5   14      1.18      0.00
    5    5   14     -0.81      0.00
    6    5   14     -0.65      0.00
    7    5   14      0.10      0.00
    8    5   14     -0.43      0.00
    9    5   14     -1.04      0.00
   10    5   14     -0.38      0.00
   11    5   14      0.63      0.00
   12    5   14      1.13      0.00
   13    5   14      1.00      0.00
   14    5   14      0.03      0.00
   -9    6   14      0.04      0.00
   -8    6   14     -0.11      0.00
   -7    6   14     -0.29      0.00
   -6    6   14     -0.26      0.00
   -5    6   14      0.35      0.00
   -4    6   14      1.16      0.00
   -3    6   14      0.70      0.00
   -2    6   14     -0.78      0.00
   -1    6   14     -0.78      0.00
    0    6   14      1.06      0.00
    1    6   14      2.15      0.00
    2    6   14      0.57      0.00
    3    6   14     -2.04      0.00
    4    6   14     -2.46      0.00
    5    6   14     -0.86      0.00
    6    6   14     -0.19      0.00
    7    6   14     -0.87      0.00
    8    6   14     -0.69      0.00
    9    6   14      0.78      0.00
   10    6   14      1.60      0.00
   11    6   14      0.88      0.00
   12    6   14     -0.31      0.00
   13    6   14     -0.93      0.00
   14    6   14     -0.58      0.00
   -8    7   14     -0.25      0.00
   -7    7   14      0.20      0.00
   -6    7   14      0.68      0.00
   -5    7   14      0.26      0.00
   -4    7   14     -1.14      0.00
   -3    7   14     -1.82      0.00
   -2    7   14     -0.32      0.00
   -1    7   14      1.45      0.00
    0    7   14      0.71      0.00
    1    7   14     -1.61      0.00
    2    7   14     -2.24      0.00
    3    7   14     -0.23      0.00
    4    7   14      1.64      0.00
    5    7   14      1.27      0.00
    6    7   14      0.49      0.00
    7    7   14      1.16      0.00
    8    7   14      1.89      0.00
    9    7   14      0.86      0.00
   10    7   14     -1.25      0.00
   11    7   14     -2.25      0.00
   12    7   14     -1.36      0.00
   13    7   14      0.04      0.00
   14    7   14      0.53      0.00
   -7    8   14      0.44      0.00
   -6    8   14     -0.49      0.00
   -5    8   14     -1.14      0.00
   -4    8   14     -0.18      0.00
   -3    8   14      1.60      0.00
   -2    8   14      1.67      0.00
   -1    8   14     -0.42      0.00
    0    8   14     -1.70      0.00
    1    8   14     -0.24      0.00
    2    8   14      1.85      0.00
    3    8   14      1.70      0.00
    4    8   14     -0.10      0.00
    5    8   14     -0.62      0.00
    6    8   14      0.20      0.00
    7    8   14     -0.12      0.00
    8    8   14     -1.69      0.00
    9    8   14     -2.30      0.00
   10    8   14     -0.73      0.00
   11    8   14      1.70      0.00
   12    8   14      2.47      0.00
   13    8   14      1.22      0.00
   14    8   14     -0.04      0.00
   -6    9   14     -0.35      0.00
   -5    9   14      0.97      0.00
   -4    9   14      1.43      0.00
   -3    9   14     -0.02      0.00
   -2    9   14     -1.64      0.00
   -1    9   14     -1.11      0.00
    0    9   14      0.76      0.00
    1    9   14      1.10      0.00
    2    9   14     -0.52      0.00
    3    9   14     -1.68      0.00
    4    9   14     -0.90      0.00
    5    9   14      0.00      0.00
    6    9   14     -0.78      0.00
    7    9   14     -1.47      0.00
    8    9   14     -0.18      0.00
    9    9   14      1.83      0.00
   10    9   14      2.22      0.00
   11    9   14      0.33      0.00
   12    9   14     -1.81      0.00
   13    9   14     -1.87      0.00
   14    9   14     -0.59      0.00
   -5   10   14     -0.04      0.00
   -4   10   14     -1.31      0.00
   -3   10   14     -1.23      0.00
   -2   10   14      0.39      0.00
   -1   10   14      1.43      0.00
    0   10   14      0.63      0.00
    1   10   14     -0.40      0.00
    2   10   14      0.00      0.00
    3   10   14      1.01      0.00
    4   10   14      0.92      0.00
    5   10   14      0.02      0.00
    6   10   14      0.40      0.00
    7   10   14      1.94      0.00
    8   10   14      2.06      0.00
    9   10   14      0.13      0.00
   10   10   14     -1.81      0.00
   11   10   14     -1.77      0.00
   12   10   14      0.09      0.00
   13   10   14      1.34      0.00
   14   10   14      0.83      0.00
   -4   11   14      0.48      0.00
   -3   11   14      1.26      0.00
   -2   11   14      0.65      0.00
   -1   11   14     -0.68      0.00
    0   11   14     -0.96      0.00
    1   11   14     -0.27      0.00
    2   11   14     -0.18      0.00
    3   11   14     -0.79      0.00
    4   11   14     -0.72      0.00
    5   11   14      0.35      0.00
    6   11   14      0.74      0.00
    7   11   14     -0.76      0.00
    8   11   14     -2.29      0.00
    9   11   14     -1.70      0.00
   10   11   14      0.30      0.00
   11   11   14      1.65      0.00
   12   11   14      1.13      0.00
   13   11   14     -0.24      0.00
   -2   12   14     -0.98      0.00
   -1   12   14     -0.12      0.00
    0   12   14      0.59      0.00
    1   12   14      0.24      0.00
    2   12   14     -0.10      0.00
    3   12   14      0.49      0.00
    4   12   14      0.86      0.00
    5   12   14     -0.13      0.00
    6   12   14     -1.44      0.00
    7   12   14     -1.01      0.00
    8   12   14      0.90      0.00
    9   12   14      1.79      0.00
   10   12   14      0.77      0.00
   11   12   14     -0.75      0.00
   12   12   14     -1.27      0.00
   13   12   14     -0.53      0.00
   -1   13   14      0.69      0.00
    0   13   14     -0.09      0.00
    1   13   14     -0.21      0.00
    2   13   14      0.41      0.00
    3   13   14      0.31      0.00
    4   13   14     -0.56      0.00
    5   13   14     -0.55      0.00
    6   13   14      0.77      0.00
    7   13   14      1.66      0.00
    8   13   14      0.69      0.00
    9   13   14     -0.82      0.00
   10   13   14     -0.97      0.00
   11   13   14     -0.01      0.00
   12   13   14      0.78      0.00
    1   14   14      0.12      0.00
    2   14   14     -0.10      0.00
    3   14   14     -0.60      0.00
    4   14   14     -0.21      0.00
    5   14   14      0.54      0.00
    6   14   14      0.30      0.00
    7   14   14     -0.75      0.00
    8   14   14     -1.07      0.00
    9   14   14     -0.14      0.00
   10   14   14      0.66      0.00
   11   14   14      0.43      0.00
    4   15   14      0.39      0.00
    5   15   14      0.00      0.00
    6   15   14     -0.44      0.00
    7   15   14     -0.21      0.00
    8   15   14      0.36      0.00
    9   15   14      0.36      0.00
   -8  -13   15     -0.49      0.00
   -7  -13   15     -0.22      0.00
   -6  -13   15     -0.24      0.00
   -5  -13   15     -0.42      0.00
  -10  -12   15     -0.19      0.00
   -9  -12   15      0.03      0.00
   -8  -12   15      0.26      0.00
   -7  -12   15      0.26      0.00
   -6  -12   15      0.42      0.00
   -5  -12   15      0.69      0.00
   -4  -12   15      0.78      0.00
   -3  -12   15      0.56      0.00
   -2  -12   15     -0.11      0.00
   -1  -12   15     -0.57      0.00
  -11  -11   15     -0.85      0.00
  -10  -11   15     -0.35      0.00
   -9  -11   15     -0.08      0.00
   -8  -11   15      0.01      0.00
   -7  -11   15      0.19      0.00
   -6  -11   15      0.06      0.00
   -5  -11   15     -0.54      0.00
   -4  -11   15     -0.98      0.00
   -3  -11   15     -0.99      0.00
   -2  -11   15     -0.55      0.00
   -1  -11   15      0.23      0.00
    0  -11   15      0.37      0.00
    1  -11   15     -0.25      0.00
  -12  -10   15      0.45      0.00
  -11  -10   15      0.91      0.00
  -10  -10   15      0.83      0.00
   -9  -10   15      0.57      0.00
   -8  -10   15      0.31      0.00
   -7  -10   15     -0.22      0.00
   -6  -10   15     -0.75      0.00
   -5  -10   15     -0.48      0.00
   -4  -10   15      0.38      0.00
   -3  -10   15      0.93      0.00
   -2  -10   15      0.90      0.00
   -1  -10   15      0.37      0.00
    0  -10   15     -0.16      0.00
    1  -10   15      0.10      0.00
    2  -10   15      0.55      0.00
  -12   -9   15      0.01      0.00
  -11   -9   15     -0.41      0.00
  -10   -9   15     -0.56      0.00
   -9   -9   15     -0.64      0.00
   -8   -9   15     -0.70      0.00
   -7   -9   15     -0.34      0.00
   -6   -9   15      0.55      0.00
   -5   -9   15      1.26      0.00
   -4   -9   15      0.99      0.00
   -3   -9   15      0.11      0.00
   -2   -9   15     -0.46      0.00
   -1   -9   15     -0.44      0.00
    0   -9   15     -0.08      0.00
    1   -9   15     -0.15      0.00
    2   -9   15     -0.66      0.00
    3   -9   15     -0.67      0.00
    4   -9   15     -0.27      0.00
  -13   -8   15     -0.37      0.00
  -12   -8   15     -0.20      0.00
  -11   -8   15      0.15      0.00
  -10   -8   15      0.16      0.00
   -9   -8   15      0.15      0.00
   -8   -8   15      0.51      0.00
   -7   -8   15      0.69      0.00
   -6   -8   15      0.22      0.00
   -5   -8   15     -0.74      0.00
   -4   -8   15     -1.47      0.00
   -3   -8   15     -1.32      0.00
   -2   -8   15     -0.65      0.00
   -1   -8   15     -0.23      0.00
    0   -8   15     -0.26      0.00
    1   -8   15     -0.14      0.00
    2   -8   15      0.63      0.00
    3   -8   15      1.15      0.00
    4   -8   15      0.69      0.00
    5   -8   15      0.09      0.00
  -13   -7   15      0.41      0.00
  -12   -7   15      0.43      0.00
  -11   -7   15      0.02      0.00
  -10   -7   15     -0.17      0.00
   -9   -7   15      0.07      0.00
   -8   -7   15     -0.07      0.00
   -7   -7   15     -0.53      0.00
   -6   -7   15     -0.62      0.00
   -5   -7   15     -0.25      0.00
   -4   -7   15      0.46      0.00
   -3   -7   15      1.07      0.00
   -2   -7   15      1.12      0.00
   -1   -7   15      0.94      0.00
    0   -7   15      1.00      0.00
    1   -7   15      1.06      0.00
    2   -7   15      0.31      0.00
    3   -7   15     -1.02      0.00
    4   -7   15     -1.43      0.00
    5   -7   15     -0.57      0.00
    6   -7   15      0.30      0.00
  -11   -6   15     -0.31      0.00
  -10   -6   15      0.04      0.00
   -9   -6   15      0.06      0.00
   -8   -6   15      0.05      0.00
   -7   -6   15      0.36      0.00
   -6   -6   15      0.53      0.00
   -5   -6   15      0.57      0.00
   -4   -6   15      0.55      0.00
   -3   -6   15      0.25      0.00
   -2   -6   15     -0.09      0.00
   -1   -6   15     -0.40      0.00
    0   -6   15     -1.09      0.00
    1   -6   15     -1.92      0.00
    2   -6   15     -1.95      0.00
    3   -6   15     -0.58      0.00
    4   -6   15      1.11      0.00
    5   -6   15      1.38      0.00
    6   -6   15      0.24      0.00
    7   -6   15     -0.74      0.00
   -9   -5   15      0.09      0.00
   -8   -5   15     -0.04      0.00
   -7   -5   15     -0.44      0.00
   -6   -5   15     -0.50      0.00
   -5   -5   15     -0.23      0.00
   -4   -5   15     -0.39      0.00
   -3   -5   15     -0.77      0.00
   -2   -5   15     -1.01      0.00
   -1   -5   15     -1.15      0.00
    0   -5   15     -0.44      0.00
    1   -5   15      1.39      0.00
    2   -5   15      2.96      0.00
    3   -5   15      2.75      0.00
    4   -5   15      0.81      0.00
    5   -5   15     -1.03      0.00
    6   -5   15     -1.14      0.00
    7   -5   15      0.06      0.00
    8   -5   15      0.81      0.00
   -7   -4   15      0.17      0.00
   -6   -4   15      0.60      0.00
   -5   -4   15      0.08      0.00
   -4   -4   15     -0.45      0.00
   -3   -4   15     -0.09      0.00
   -2   -4   15      0.66      0.00
   -1   -4   15      1.69      0.00
    0   -4   15      2.37      0.00
    1   -4   15      1.10      0.00
    2   -4   15     -1.74      0.00
    3   -4   15     -3.61      0.00
    4   -4   15     -2.91      0.00
    5   -4   15     -0.61      0.00
    6   -4   15      1.06      0.00
    7   -4   15      0.92      0.00
    8   -4   15     -0.08      0.00
    9   -4   15     -0.41      0.00
   -5   -3   15     -0.41      0.00
   -4   -3   15      0.59      0.00
   -3   -3   15      1.20      0.00
   -2   -3   15      0.73      0.00
   -1   -3   15     -0.51      0.00
    0   -3   15     -2.41      0.00
    1   -3   15     -3.39      0.00
    2   -3   15     -1.57      0.00
    3   -3   15      1.69      0.00
    4   -3   15      3.30      0.00
    5   -3   15      2.14      0.00
    6   -3   15     -0.10      0.00
    7   -3   15     -1.16      0.00
    8   -3   15     -0.69      0.00
    9   -3   15     -0.07      0.00
   10   -3   15     -0.14      0.00
   -4   -2   15      0.31      0.00
   -3   -2   15     -1.02      0.00
   -2   -2   15     -1.72      0.00
   -1   -2   15     -1.17      0.00
    0   -2   15      0.63      0.00
    1   -2   15      3.07      0.00
    2   -2   15      3.89      0.00
    3   -2   15      1.86      0.00
    4   -2   15     -1.07      0.00
    5   -2   15     -2.15      0.00
    6   -2   15     -0.84      0.00
    7   -2   15      0.80      0.00
    8   -2   15      0.97      0.00
    9   -2   15      0.29      0.00
   10   -2   15      0.15      0.00
   -3   -1   15     -0.48      0.00
   -2   -1   15      1.16      0.00
   -1   -1   15      2.04      0.00
    0   -1   15      1.35      0.00
    1   -1   15     -0.81      0.00
    2   -1   15     -3.10      0.00
    3   -1   15     -3.53      0.00
    4   -1   15     -1.82      0.00
    5   -1   15      0.32      0.00
    6   -1   15      0.87      0.00
    7   -1   15     -0.24      0.00
    8   -1   15     -0.94      0.00
    9   -1   15     -0.30      0.00
   10   -1   15      0.27      0.00
   11   -1   15     -0.14      0.00
   -3    0   15      1.66      0.00
   -2    0   15      0.58      0.00
   -1    0   15     -1.29      0.00
    0    0   15     -2.25      0.00
    1    0   15     -1.45      0.00
    2    0   15      0.58      0.00
    3    0   15      2.21      0.00
    4    0   15      2.39      0.00
    5    0   15      1.30      0.00
    6    0   15      0.04      0.00
    7    0   15      0.00      0.00
    8    0   15      0.71      0.00
    9    0   15      0.42      0.00
   10    0   15     -0.59      0.00
   11    0   15     -0.74      0.00
   -2    1   15     -1.66      0.00
   -1    1   15     -0.46      0.00
    0    1   15      1.32      0.00
    1    1   15      2.23      0.00
    2    1   15      1.58      0.00
    3    1   15      0.16      0.00
    4    1   15     -0.80      0.00
    5    1   15     -0.92      0.00
    6    1   15     -0.34      0.00
    7    1   15      0.01      0.00
    8    1   15     -0.50      0.00
    9    1   15     -0.66      0.00
   10    1   15      0.30      0.00
   11    1   15      1.20      0.00
   12    1   15      1.01      0.00
   -2    2   15      1.10      0.00
   -1    2   15      1.26      0.00
    0    2   15      0.44      0.00
    1    2   15     -0.92      0.00
    2    2   15     -1.85      0.00
    3    2   15     -1.70      0.00
    4    2   15     -0.93      0.00
    5    2   15     -0.39      0.00
    6    2   15     -0.48      0.00
    7    2   15     -0.65      0.00
    8    2   15      0.07      0.00
    9    2   15      0.91      0.00
   10    2   15      0.51      0.00
   11    2   15     -0.59      0.00
   12    2   15     -1.28      0.00
   -2    3   15     -0.11      0.00
   -1    3   15     -0.47      0.00
    0    3   15     -0.81      0.00
    1    3   15     -0.70      0.00
    2    3   15      0.20      0.00
    3    3   15      1.32      0.00
    4    3   15      1.63      0.00
    5    3   15      1.16      0.00
    6    3   15      1.04      0.00
    7    3   15      1.50      0.00
    8    3   15      1.04      0.00
    9    3   15     -0.57      0.00
   10    3   15     -1.30      0.00
   11    3   15     -0.65      0.00
   12    3   15      0.29      0.00
   13    3   15      0.98      0.00
   -3    4   15      0.44      0.00
   -2    4   15      0.26      0.00
   -1    4   15     -0.29      0.00
    0    4   15     -0.28      0.00
    1    4   15      0.45      0.00
    2    4   15      0.97      0.00
    3    4   15      0.32      0.00
    4    4   15     -0.80      0.00
    5    4   15     -0.98      0.00
    6    4   15     -0.66      0.00
    7    4   15     -1.25      0.00
    8    4   15     -1.92      0.00
    9    4   15     -0.77      0.00
   10    4   15      1.09      0.00
   11    4   15      1.56      0.00
   12    4   15      0.98      0.00
   13    4   15      0.10      0.00
   -4    5   15      0.64      0.00
   -3    5   15     -0.46      0.00
   -2    5   15     -1.14      0.00
   -1    5   15     -0.30      0.00
    0    5   15      0.86      0.00
    1    5   15      0.86      0.00
    2    5   15     -0.23      0.00
    3    5   15     -0.93      0.00
    4    5   15     -0.44      0.00
    5    5   15      0.06      0.00
    6    5   15     -0.29      0.00
    7    5   15     -0.16      0.00
    8    5   15      1.24      0.00
    9    5   15      1.90      0.00
   10    5   15      0.52      0.00
   11    5   15     -1.08      0.00
   12    5   15     -1.46      0.00
   13    5   15     -0.97      0.00
   -8    6   15      0.15      0.00
   -7    6   15      0.57      0.00
   -6    6   15      0.50      0.00
   -5    6   15     -0.48      0.00
   -4    6   15     -1.53      0.00
   -3    6   15     -0.87      0.00
   -2    6   15      0.98      0.00
   -1    6   15      1.43      0.00
    0    6   15      0.02      0.00
    1    6   15     -1.20      0.00
    2    6   15     -0.91      0.00
    3    6   15      0.16      0.00
    4    6   15      0.52      0.00
    5    6   15      0.38      0.00
    6    6   15      0.93      0.00
    7    6   15      1.59      0.00
    8    6   15      0.72      0.00
    9    6   15     -1.25      0.00
   10    6   15     -1.96      0.00
   11    6   15     -0.79      0.00
   12    6   15      0.60      0.00
   13    6   15      0.99      0.00
   -7    7   15     -0.11      0.00
   -6    7   15     -0.79      0.00
   -5    7   15     -0.51      0.00
   -4    7   15      1.04      0.00
   -3    7   15      1.94      0.00
   -2    7   15      0.52      0.00
   -1    7   15     -1.41      0.00
    0    7   15     -1.30      0.00
    1    7   15      0.24      0.00
    2    7   15      1.01      0.00
    3    7   15      0.47      0.00
    4    7   15      0.02      0.00
    5    7   15      0.22      0.00
    6    7   15     -0.25      0.00
    7    7   15     -1.65      0.00
    8    7   15     -2.22      0.00
    9    7   15     -0.81      0.00
   10    7   15      1.40      0.00
   11    7   15      2.18      0.00
   12    7   15      1.11      0.00
   13    7   15     -0.18      0.00
   -7    8   15     -0.48      0.00
   -6    8   15      0.26      0.00
   -5    8   15      1.10      0.00
   -4    8   15      0.41      0.00
   -3    8   15     -1.35      0.00
   -2    8   15     -1.68      0.00
   -1    8   15      0.07      0.00
    0    8   15      1.40      0.00
    1    8   15      0.78      0.00
    2    8   15     -0.38      0.00
    3    8   15     -0.47      0.00
    4    8   15     -0.10      0.00
    5    8   15     -0.65      0.00
    6    8   15     -1.18      0.00
    7    8   15     -0.05      0.00
    8    8   15      1.76      0.00
    9    8   15      2.15      0.00
   10    8   15      0.57      0.00
   11    8   15     -1.51      0.00
   12    8   15     -1.98      0.00
   13    8   15     -0.85      0.00
   -6    9   15      0.42      0.00
   -5    9   15     -0.67      0.00
   -4    9   15     -1.27      0.00
   -3    9   15     -0.13      0.00
   -2    9   15      1.35      0.00
   -1    9   15      1.09      0.00
    0    9   15     -0.31      0.00
    1    9   15     -0.69      0.00
    2    9   15      0.04      0.00
    3    9   15      0.37      0.00
    4    9   15     -0.08      0.00
    5    9   15      0.20      0.00
    6    9   15      1.61      0.00
    7    9   15      1.94      0.00
    8    9   15      0.26      0.00
    9    9   15     -1.55      0.00
   10    9   15     -1.74      0.00
   11    9   15     -0.23      0.00
   12    9   15      1.25      0.00
   13    9   15      1.14      0.00
   -4   10   15      1.05      0.00
   -3   10   15      1.06      0.00
   -2   10   15     -0.27      0.00
   -1   10   15     -1.11      0.00
    0   10   15     -0.55      0.00
    1   10   15      0.00      0.00
    2   10   15     -0.41      0.00
    3   10   15     -0.72      0.00
    4   10   15     -0.04      0.00
    5   10   15      0.55      0.00
    6   10   15     -0.56      0.00
    7   10   15     -2.19      0.00
    8   10   15     -1.88      0.00
    9   10   15      0.02      0.00
   10   10   15      1.40      0.00
   11   10   15      1.20      0.00
   12   10   15     -0.03      0.00
   13   10   15     -0.62      0.00
   -3   11   15     -1.16      0.00
   -2   11   15     -0.59      0.00
   -1   11   15      0.52      0.00
    0   11   15      0.62      0.00
    1   11   15      0.11      0.00
    2   11   15      0.46      0.00
    3   11   15      1.18      0.00
    4   11   15      0.72      0.00
    5   11   15     -0.69      0.00
    6   11   15     -0.93      0.00
    7   11   15      0.71      0.00
    8   11   15      1.82      0.00
    9   11   15      0.89      0.00
   10   11   15     -0.64      0.00
   11   11   15     -1.18      0.00
   12   11   15     -0.59      0.00
   13   11   15      0.11      0.00
   -2   12   15      1.03      0.00
   -1   12   15      0.20      0.00
    0   12   15     -0.41      0.00
    1   12   15      0.04      0.00
    2   12   15      0.22      0.00
    3   12   15     -0.69      0.00
    4   12   15     -1.19      0.00
    5   12   15     -0.07      0.00
    6   12   15      1.35      0.00
    7   12   15      0.96      0.00
    8   12   15     -0.55      0.00
    9   12   15     -0.79      0.00
   10   12   15      0.24      0.00
   11   12   15      0.92      0.00
   12   12   15      0.68      0.00
    0   13   15     -0.01      0.00
    1   13   15      0.09      0.00
    2   13   15     -0.50      0.00
    3   13   15     -0.32      0.00
    4   13   15      0.63      0.00
    5   13   15      0.69      0.00
    6   13   15     -0.51      0.00
    7   13   15     -1.28      0.00
    8   13   15     -0.54      0.00
    9   13   15      0.28      0.00
   10   13   15     -0.07      0.00
   11   13   15     -0.68      0.00
    2   14   15      0.13      0.00
    3   14   15      0.52      0.00
    4   14   15      0.17      0.00
    5   14   15     -0.40      0.00
    6   14   15     -0.20      0.00
    7   14   15      0.48      0.00
    8   14   15      0.56      0.00
    9   14   15      0.01      0.00
   10   14   15     -0.12      0.00
   -8  -12   16     -0.11      0.00
   -7  -12   16     -0.07      0.00
   -6  -12   16     -0.47      0.00
   -5  -12   16     -0.83      0.00
   -4  -12   16     -0.82      0.00
   -3  -12   16     -0.67      0.00
  -10  -11   16      0.23      0.00
   -9  -11   16      0.35      0.00
   -8  -11   16      0.16      0.00
   -7  -11   16     -0.41      0.00
   -6  -11   16     -0.38      0.00
   -5  -11   16      0.42      0.00
   -4  -11   16      0.95      0.00
   -3  -11   16      0.97      0.00
   -2  -11   16      0.76      0.00
   -1  -11   16      0.21      0.00
    0  -11   16     -0.17      0.00
  -11  -10   16     -0.43      0.00
  -10  -10   16     -0.37      0.00
   -9  -10   16     -0.54      0.00
   -8  -10   16     -0.59      0.00
   -7  -10   16      0.08      0.00
   -6  -10   16      0.95      0.00
   -5  -10   16      0.77      0.00
   -4  -10   16     -0.19      0.00
   -3  -10   16     -0.74      0.00
   -2  -10   16     -0.81      0.00
   -1  -10   16     -0.64      0.00
    0  -10   16     -0.35      0.00
    1  -10   16     -0.33      0.00
  -12   -9   16      0.25      0.00
  -11   -9   16      0.37      0.00
  -10   -9   16      0.27      0.00
   -9   -9   16      0.36      0.00
   -8   -9   16      0.66      0.00
   -7   -9   16      0.48      0.00
   -6   -9   16     -0.51      0.00
   -5   -9   16     -1.39      0.00
   -4   -9   16     -1.14      0.00
   -3   -9   16     -0.33      0.00
   -2   -9   16      0.12      0.00
   -1   -9   16      0.25      0.00
    0   -9   16      0.37      0.00
    1   -9   16      0.75      0.00
    2   -9   16      1.03      0.00
    3   -9   16      0.65      0.00
  -12   -8   16      0.05      0.00
  -11   -8   16     -0.27      0.00
  -10   -8   16     -0.24      0.00
   -9   -8   16     -0.13      0.00
   -8   -8   16     -0.37      0.00
   -7   -8   16     -0.56      0.00
   -6   -8   16     -0.12      0.00
   -5   -8   16      0.83      0.00
   -4   -8   16      1.46      0.00
   -3   -8   16      1.25      0.00
   -2   -8   16      0.80      0.00
   -1   -8   16      0.64      0.00
    0   -8   16      0.50      0.00
    1   -8   16     -0.19      0.00
    2   -8   16     -1.32      0.00
    3   -8   16     -1.67      0.00
    4   -8   16     -0.86      0.00
  -12   -7   16     -0.32      0.00
  -11   -7   16     -0.08      0.00
  -10   -7   16      0.16      0.00
   -9   -7   16      0.09      0.00
   -8   -7   16      0.19      0.00
   -7   -7   16      0.44      0.00
   -6   -7   16      0.38      0.00
   -5   -7   16     -0.04      0.00
   -4   -7   16     -0.60      0.00
   -3   -7   16     -0.83      0.00
   -2   -7   16     -0.73      0.00
   -1   -7   16     -0.91      0.00
    0   -7   16     -1.39      0.00
    1   -7   16     -1.28      0.00
    2   -7   16      0.07      0.00
    3   -7   16      1.67      0.00
    4   -7   16      1.88      0.00
    5   -7   16      0.79      0.00
  -10   -6   16      0.19      0.00
   -9   -6   16      0.09      0.00
   -8   -6   16     -0.11      0.00
   -7   -6   16     -0.45      0.00
   -6   -6   16     -0.49      0.00
   -5   -6   16     -0.34      0.00
   -4   -6   16     -0.21      0.00
   -3   -6   16     -0.18      0.00
   -2   -6   16     -0.41      0.00
   -1   -6   16     -0.26      0.00
    0   -6   16      0.96      0.00
    1   -6   16      2.31      0.00
    2   -6   16      2.10      0.00
    3   -6   16      0.23      0.00
    4   -6   16     -1.47      0.00
    5   -6   16     -1.55      0.00
    6   -6   16     -0.45      0.00
    7   -6   16      0.49      0.00
   -8   -5   16     -0.27      0.00
   -7   -5   16      0.34      0.00
   -6   -5   16      0.61      0.00
   -5   -5   16      0.38      0.00
   -4   -5   16      0.33      0.00
   -3   -5   16      0.52      0.00
   -2   -5   16      1.04      0.00
   -1   -5   16      1.72      0.00
    0   -5   16      1.06      0.00
    1   -5   16     -1.39      0.00
    2   -5   16     -3.35      0.00
    3   -5   16     -2.79      0.00
    4   -5   16     -0.62      0.00
    5   -5   16      0.95      0.00
    6   -5   16      0.97      0.00
    7   -5   16      0.11      0.00
   -6   -4   16     -0.58      0.00
   -4   -4   16      0.00      0.00
   -3   -4   16     -0.04      0.00
   -2   -4   16     -0.49      0.00
   -1   -4   16     -1.66      0.00
    0   -4   16     -2.70      0.00
    1   -4   16     -1.35      0.00
    2   -4   16      1.97      0.00
    3   -4   16      3.88      0.00
    4   -4   16      2.82      0.00
    5   -4   16      0.59      0.00
    6   -4   16     -0.62      0.00
    7   -4   16     -0.51      0.00
    8   -4   16      0.01      0.00
   -5   -3   16      0.70      0.00
   -4   -3   16      0.04      0.00
   -3   -3   16     -0.59      0.00
   -2   -3   16     -0.52      0.00
   -1   -3   16      0.37      0.00
    0   -3   16      2.26      0.00
    1   -3   16      3.32      0.00
    2   -3   16      1.36      0.00
    3   -3   16     -2.04      0.00
    4   -3   16     -3.36      0.00
    5   -3   16     -1.91      0.00
    6   -3   16     -0.04      0.00
    7   -3   16      0.49      0.00
    8   -3   16      0.12      0.00
    9   -3   16      0.00      0.00
   -4   -2   16     -0.78      0.00
   -3   -2   16      0.35      0.00
   -2   -2   16      1.18      0.00
   -1   -2   16      0.94      0.00
    0   -2   16     -0.59      0.00
    1   -2   16     -2.86      0.00
    2   -2   16     -3.48      0.00
    3   -2   16     -1.29      0.00
    4   -2   16      1.47      0.00
    5   -2   16      2.03      0.00
    6   -2   16      0.56      0.00
    7   -2   16     -0.51      0.00
    8   -2   16     -0.13      0.00
    9   -2   16      0.38      0.00
   10   -2   16     -0.02      0.00
   -3   -1   16      0.80      0.00
   -2   -1   16     -0.71      0.00
   -1   -1   16     -1.61      0.00
    0   -1   16     -1.00      0.00
    1   -1   16      1.02      0.00
    2   -1   16      2.95      0.00
    3   -1   16      2.89      0.00
    4   -1   16      0.94      0.00
    5   -1   16     -0.79      0.00
    6   -1   16     -0.62      0.00
    7   -1   16      0.52      0.00
    8   -1   16      0.48      0.00
    9   -1   16     -0.60      0.00
   10   -1   16     -0.83      0.00
   -3    0   16     -1.39      0.00
   -2    0   16     -0.56      0.00
   -1    0   16      1.07      0.00
    0    0   16      1.81      0.00
    1    0   16      0.85      0.00
    2    0   16     -1.05      0.00
    3    0   16     -2.13      0.00
    4    0   16     -1.54      0.00
    5    0   16     -0.17      0.00
    6    0   16      0.37      0.00
    7    0   16     -0.45      0.00
    8    0   16     -0.96      0.00
    9    0   16      0.12      0.00
   10    0   16      1.31      0.00
   11    0   16      1.01      0.00
   -2    1   16      1.04      0.00
   -1    1   16      0.08      0.00
    0    1   16     -1.25      0.00
    1    1   16     -1.68      0.00
    2    1   16     -0.75      0.00
    3    1   16      0.49      0.00
    4    1   16      0.70      0.00
    5    1   16     -0.09      0.00
    6    1   16     -0.74      0.00
    7    1   16     -0.07      0.00
    8    1   16      1.16      0.00
    9    1   16      0.85      0.00
   10    1   16     -0.76      0.00
   11    1   16     -1.55      0.00
   -2    2   16     -0.38      0.00
   -1    2   16     -0.32      0.00
    0    2   16      0.33      0.00
    2    2   16      1.22      0.00
    3    2   16      0.71      0.00
    4    2   16      0.25      0.00
    5    2   16      0.60      0.00
    6    2   16      1.47      0.00
    7    2   16      1.34      0.00
    8    2   16     -0.42      0.00
    9    2   16     -1.56      0.00
   10    2   16     -0.56      0.00
   11    2   16      0.89      0.00
   12    2   16      1.26      0.00
   -2    3   16      0.10      0.00
   -1    3   16     -0.18      0.00
    0    3   16     -0.45      0.00
    1    3   16     -0.53      0.00
    2    3   16     -0.57      0.00
    3    3   16     -0.63      0.00
    4    3   16     -0.54      0.00
    5    3   16     -0.59      0.00
    6    3   16     -1.39      0.00
    7    3   16     -2.30      0.00
    8    3   16     -1.30      0.00
    9    3   16      1.04      0.00
   10    3   16      1.71      0.00
   11    3   16      0.54      0.00
   12    3   16     -0.43      0.00
   -3    4   16     -1.03      0.00
   -2    4   16     -0.92      0.00
   -1    4   16     -0.03      0.00
    0    4   16      0.85      0.00
    1    4   16      1.08      0.00
    2    4   16      0.64      0.00
    3    4   16      0.19      0.00
    4    4   16      0.05      0.00
    5    4   16      0.00      0.00
    6    4   16      0.35      0.00
    7    4   16      1.67      0.00
    8    4   16      2.42      0.00
    9    4   16      0.74      0.00
   10    4   16     -1.48      0.00
   11    4   16     -1.69      0.00
   12    4   16     -0.80      0.00
   -4    5   16     -0.70      0.00
   -3    5   16      0.62      0.00
   -2    5   16      1.61      0.00
   -1    5   16      1.07      0.00
    0    5   16     -0.27      0.00
    1    5   16     -1.27      0.00
    2    5   16     -1.37      0.00
    3    5   16     -0.75      0.00
    4    5   16     -0.02      0.00
    5    5   16      0.60      0.00
    6    5   16      0.96      0.00
    7    5   16      0.22      0.00
    8    5   16     -1.51      0.00
    9    5   16     -1.98      0.00
   10    5   16     -0.22      0.00
   11    5   16      1.43      0.00
   12    5   16      1.49      0.00
   13    5   16      0.83      0.00
   -5    6   16      0.34      0.00
   -4    6   16      1.40      0.00
   -3    6   16      0.88      0.00
   -2    6   16     -0.92      0.00
   -1    6   16     -1.71      0.00
    0    6   16     -0.89      0.00
    1    6   16      0.34      0.00
    2    6   16      1.10      0.00
    3    6   16      1.23      0.00
    4    6   16      0.85      0.00
    5    6   16     -0.07      0.00
    6    6   16     -1.34      0.00
    7    6   16     -1.88      0.00
    8    6   16     -0.74      0.00
    9    6   16      1.11      0.00
   10    6   16      1.49      0.00
   11    6   16      0.17      0.00
   12    6   16     -0.97      0.00
   13    6   16     -0.98      0.00
   -7    7   16     -0.12      0.00
   -6    7   16      0.50      0.00
   -5    7   16      0.46      0.00
   -4    7   16     -0.78      0.00
   -3    7   16     -1.65      0.00
   -2    7   16     -0.55      0.00
   -1    7   16      1.17      0.00
    0    7   16      1.52      0.00
    1    7   16      0.75      0.00
    2    7   16     -0.01      0.00
    3    7   16     -0.47      0.00
    4    7   16     -0.95      0.00
    5    7   16     -1.03      0.00
    6    7   16      0.12      0.00
    7    7   16      1.79      0.00
    8    7   16      2.24      0.00
    9    7   16      0.93      0.00
   10    7   16     -0.82      0.00
   11    7   16     -1.27      0.00
   12    7   16     -0.37      0.00
   13    7   16      0.42      0.00
   -6    8   16     -0.02      0.00
   -5    8   16     -0.72      0.00
   -4    8   16     -0.30      0.00
   -3    8   16      1.05      0.00
   -2    8   16      1.34      0.00
   -1    8   16      0.03      0.00
    0    8   16     -1.09      0.00
    1    8   16     -1.03      0.00
    2    8   16     -0.59      0.00
    3    8   16     -0.46      0.00
    4    8   16     -0.08      0.00
    5    8   16      0.98      0.00
    6    8   16      1.33      0.00
    7    8   16     -0.04      0.00
    8    8   16     -1.71      0.00
    9    8   16     -1.93      0.00
   10    8   16     -0.67      0.00
   11    8   16      0.80      0.00
   12    8   16      1.07      0.00
   13    8   16      0.35      0.00
   -5    9   16      0.47      0.00
   -4    9   16      0.94      0.00
   -3    9   16      0.07      0.00
   -2    9   16     -1.04      0.00
   -1    9   16     -0.80      0.00
    0    9   16      0.17      0.00
    1    9   16      0.44      0.00
    2    9   16      0.19      0.00
    3    9   16      0.37      0.00
    4    9   16      0.81      0.00
    5    9   16      0.20      0.00
    6    9   16     -1.32      0.00
    7    9   16     -1.53      0.00
    8    9   16     -0.02      0.00
    9    9   16      1.28      0.00
   10    9   16      1.21      0.00
   11    9   16      0.12      0.00
   12    9   16     -0.75      0.00
   13    9   16     -0.57      0.00
   -4   10   16     -0.97      0.00
   -3   10   16     -0.89      0.00
   -2   10   16      0.25      0.00
   -1   10   16      0.86      0.00
    0   10   16      0.37      0.00
    1   10   16      0.10      0.00
    2   10   16      0.54      0.00
    3   10   16      0.58      0.00
    4   10   16     -0.37      0.00
    5   10   16     -1.05      0.00
    6   10   16      0.01      0.00
    7   10   16      1.49      0.00
    8   10   16      1.20      0.00
    9   10   16     -0.18      0.00
   10   10   16     -0.85      0.00
   11   10   16     -0.44      0.00
   12   10   16      0.31      0.00
   -2   11   16      0.53      0.00
   -1   11   16     -0.50      0.00
    0   11   16     -0.51      0.00
    1   11   16     -0.05      0.00
    2   11   16     -0.46      0.00
    3   11   16     -1.18      0.00
    4   11   16     -0.71      0.00
    5   11   16      0.75      0.00
    6   11   16      1.13      0.00
    7   11   16     -0.22      0.00
    8   11   16     -1.07      0.00
    9   11   16     -0.30      0.00
   10   11   16      0.57      0.00
   11   11   16      0.50      0.00
   12   11   16     -0.09      0.00
   -1   12   16     -0.12      0.00
    0   12   16      0.42      0.00
    1   12   16     -0.01      0.00
    2   12   16     -0.22      0.00
    3   12   16      0.58      0.00
    4   12   16      1.08      0.00
    5   12   16      0.18      0.00
    6   12   16     -1.06      0.00
    7   12   16     -0.82      0.00
    8   12   16      0.25      0.00
    9   12   16      0.20      0.00
   10   12   16     -0.61      0.00
   11   12   16     -0.75      0.00
    1   13   16     -0.04      0.00
    2   13   16      0.45      0.00
    3   13   16      0.28      0.00
    4   13   16     -0.45      0.00
    5   13   16     -0.51      0.00
    6   13   16      0.32      0.00
    7   13   16      0.77      0.00
    8   13   16      0.22      0.00
    9   13   16     -0.08      0.00
   10   13   16      0.51      0.00
    4   14   16     -0.08      0.00
    5   14   16      0.21      0.00
    6   14   16     -0.01      0.00
    8   14   16     -0.08      0.00
   -8  -11   17     -0.07      0.00
   -7  -11   17      0.54      0.00
   -6  -11   17      0.57      0.00
   -5  -11   17     -0.25      0.00
   -4  -11   17     -0.75      0.00
   -3  -11   17     -0.76      0.00
   -2  -11   17     -0.79      0.00
  -10  -10   17     -0.07      0.00
   -9  -10   17      0.16      0.00
   -8  -10   17      0.40      0.00
   -7  -10   17     -0.10      0.00
   -6  -10   17     -0.93      0.00
   -5  -10   17     -0.79      0.00
   -4  -10   17      0.09      0.00
   -3  -10   17      0.58      0.00
   -2  -10   17      0.72      0.00
   -1  -10   17      0.83      0.00
    0  -10   17      0.76      0.00
  -11   -9   17     -0.15      0.00
  -10   -9   17     -0.04      0.00
   -9   -9   17     -0.11      0.00
   -8   -9   17     -0.38      0.00
   -7   -9   17     -0.31      0.00
   -6   -9   17      0.49      0.00
   -5   -9   17      1.21      0.00
   -4   -9   17      0.94      0.00
   -3   -9   17      0.27      0.00
   -2   -9   17     -0.07      0.00
   -1   -9   17     -0.23      0.00
    0   -9   17     -0.54      0.00
    1   -9   17     -1.03      0.00
    2   -9   17     -1.18      0.00
  -11   -8   17     -0.01      0.00
  -10   -8   17      0.07      0.00
   -9   -8   17      0.11      0.00
   -8   -8   17      0.33      0.00
   -7   -8   17      0.43      0.00
   -6   -8   17      0.00      0.00
   -5   -8   17     -0.78      0.00
   -4   -8   17     -1.16      0.00
   -3   -8   17     -0.86      0.00
   -2   -8   17     -0.59      0.00
   -1   -8   17     -0.64      0.00
    0   -8   17     -0.57      0.00
    1   -8   17      0.22      0.00
    2   -8   17      1.39      0.00
    3   -8   17      1.68      0.00
  -11   -7   17      0.35      0.00
  -10   -7   17      0.14      0.00
   -9   -7   17     -0.02      0.00
   -8   -7   17     -0.32      0.00
   -7   -7   17     -0.59      0.00
   -6   -7   17     -0.43      0.00
   -5   -7   17      0.13      0.00
   -4   -7   17      0.59      0.00
   -3   -7   17      0.52      0.00
   -2   -7   17      0.28      0.00
   -1   -7   17      0.66      0.00
    0   -7   17      1.42      0.00
    1   -7   17      1.36      0.00
    2   -7   17     -0.07      0.00
    3   -7   17     -1.61      0.00
    4   -7   17     -1.79      0.00
    5   -7   17     -0.85      0.00
   -9   -6   17     -0.29      0.00
   -8   -6   17      0.10      0.00
   -7   -6   17      0.65      0.00
   -6   -6   17      0.81      0.00
   -5   -6   17      0.48      0.00
   -4   -6   17      0.05      0.00
   -3   -6   17      0.03      0.00
   -2   -6   17      0.57      0.00
   -1   -6   17      0.60      0.00
    0   -6   17     -0.77      0.00
    1   -6   17     -2.27      0.00
    2   -6   17     -1.96      0.00
    3   -6   17     -0.09      0.00
    4   -6   17      1.32      0.00
    5   -6   17      1.34      0.00
    6   -6   17      0.55      0.00
   -8   -5   17      0.32      0.00
   -7   -5   17     -0.36      0.00
   -6   -5   17     -0.86      0.00
   -5   -5   17     -0.74      0.00
   -4   -5   17     -0.40      0.00
   -3   -5   17     -0.19      0.00
   -2   -5   17     -0.68      0.00
   -1   -5   17     -1.65      0.00
    0   -5   17     -1.16      0.00
    1   -5   17      1.29      0.00
    2   -5   17      3.10      0.00
    3   -5   17      2.34      0.00
    4   -5   17      0.42      0.00
    5   -5   17     -0.62      0.00
    6   -5   17     -0.58      0.00
    7   -5   17     -0.10      0.00
   -6   -4   17      0.62      0.00
   -5   -4   17      0.72      0.00
   -4   -4   17      0.32      0.00
   -3   -4   17      0.00      0.00
   -2   -4   17      0.09      0.00
   -1   -4   17      1.20      0.00
    0   -4   17      2.35      0.00
    1   -4   17      1.11      0.00
    2   -4   17     -1.96      0.00
    3   -4   17     -3.47      0.00
    4   -4   17     -2.30      0.00
    5   -4   17     -0.61      0.00
    6   -4   17      0.02      0.00
    7   -4   17     -0.05      0.00
    8   -4   17     -0.19      0.00
   -5   -3   17     -0.77      0.00
   -4   -3   17     -0.39      0.00
   -3   -3   17      0.26      0.00
   -2   -3   17      0.53      0.00
   -1   -3   17     -0.08      0.00
    0   -3   17     -1.75      0.00
    1   -3   17     -2.61      0.00
    2   -3   17     -0.73      0.00
    3   -3   17      2.17      0.00
    4   -3   17      2.97      0.00
    5   -3   17      1.60      0.00
    6   -3   17      0.36      0.00
    7   -3   17      0.23      0.00
    8   -3   17      0.44      0.00
   -4   -2   17      0.88      0.00
   -3   -2   17      0.10      0.00
   -2   -2   17     -0.77      0.00
   -1   -2   17     -0.79      0.00
    0   -2   17      0.46      0.00
    1   -2   17      2.26      0.00
    2   -2   17      2.44      0.00
    3   -2   17      0.36      0.00
    4   -2   17     -1.72      0.00
    5   -2   17     -1.73      0.00
    6   -2   17     -0.44      0.00
    7   -2   17      0.09      0.00
    8   -2   17     -0.46      0.00
    9   -2   17     -0.71      0.00
   -3   -1   17     -0.88      0.00
   -1   -1   17      1.12      0.00
    0   -1   17      0.70      0.00
    1   -1   17     -0.98      0.00
    2   -1   17     -2.30      0.00
    3   -1   17     -1.77      0.00
    4   -1   17     -0.01      0.00
    5   -1   17      0.97      0.00
    6   -1   17      0.27      0.00
    7   -1   17     -0.63      0.00
    8   -1   17     -0.16      0.00
    9   -1   17      0.90      0.00
   10   -1   17      0.87      0.00
   -3    0   17      0.76      0.00
   -2    0   17      0.47      0.00
   -1    0   17     -0.67      0.00
    0    0   17     -1.26      0.00
    1    0   17     -0.41      0.00
    2    0   17      1.15      0.00
    3    0   17      1.66      0.00
    4    0   17      0.66      0.00
    5    0   17     -0.47      0.00
    6    0   17     -0.25      0.00
    7    0   17      0.95      0.00
    8    0   17      1.11      0.00
    9    0   17     -0.30      0.00
   10    0   17     -1.32      0.00
   -3    1   17      0.16      0.00
   -2    1   17     -0.18      0.00
   -1    1   17      0.29      0.00
    0    1   17      0.99      0.00
    1    1   17      1.03      0.00
    2    1   17      0.05      0.00
    3    1   17     -0.88      0.00
    4    1   17     -0.57      0.00
    5    1   17      0.60      0.00
    6    1   17      0.97      0.00
    7    1   17     -0.36      0.00
    8    1   17     -1.69      0.00
    9    1   17     -0.92      0.00
   10    1   17      0.82      0.00
   11    1   17      1.32      0.00
   -2    2   17     -0.36      0.00
   -1    2   17     -0.70      0.00
    0    2   17     -0.97      0.00
    1    2   17     -0.90      0.00
    2    2   17     -0.40      0.00
    3    2   17      0.30      0.00
    4    2   17      0.40      0.00
    5    2   17     -0.54      0.00
    6    2   17     -1.70      0.00
    7    2   17     -1.22      0.00
    8    2   17      0.95      0.00
    9    2   17      1.89      0.00
   10    2   17      0.50      0.00
   11    2   17     -0.85      0.00
   -2    3   17     -0.21      0.00
   -1    3   17      0.75      0.00
    0    3   17      1.49      0.00
    1    3   17      1.36      0.00
    2    3   17      0.55      0.00
    3    3   17     -0.27      0.00
    4    3   17     -0.55      0.00
    5    3   17     -0.01      0.00
    6    3   17      1.34      0.00
    7    3   17      2.30      0.00
    8    3   17      0.94      0.00
    9    3   17     -1.49      0.00
   10    3   17     -1.77      0.00
   11    3   17     -0.37      0.00
   -2    4   17      1.37      0.00
   -1    4   17      0.37      0.00
    0    4   17     -1.09      0.00
    1    4   17     -1.96      0.00
    2    4   17     -1.55      0.00
    3    4   17     -0.29      0.00
    4    4   17      0.71      0.00
    5    4   17      0.85      0.00
    6    4   17      0.01      0.00
    7    4   17     -1.57      0.00
    8    4   17     -2.11      0.00
    9    4   17     -0.22      0.00
   10    4   17      1.78      0.00
   11    4   17      1.56      0.00
   12    4   17      0.53      0.00
   -3    5   17     -0.46      0.00
   -2    5   17     -1.64      0.00
   -1    5   17     -1.55      0.00
    0    5   17     -0.36      0.00
    1    5   17      1.14      0.00
    2    5   17      2.00      0.00
    3    5   17      1.55      0.00
    4    5   17      0.16      0.00
    5    5   17     -1.08      0.00
    6    5   17     -1.40      0.00
    7    5   17     -0.42      0.00
    8    5   17      1.19      0.00
    9    5   17      1.34      0.00
   10    5   17     -0.40      0.00
   11    5   17     -1.60      0.00
   12    5   17     -1.23      0.00
   -4    6   17     -0.99      0.00
   -3    6   17     -0.68      0.00
   -2    6   17      0.78      0.00
   -1    6   17      1.73      0.00
    0    6   17      1.48      0.00
    1    6   17      0.50      0.00
    2    6   17     -0.72      0.00
    3    6   17     -1.53      0.00
    4    6   17     -1.29      0.00
    5    6   17      0.02      0.00
    6    6   17      1.50      0.00
    7    6   17      1.92      0.00
    8    6   17      0.82      0.00
    9    6   17     -0.62      0.00
   10    6   17     -0.67      0.00
   11    6   17      0.43      0.00
   12    6   17      1.00      0.00
   -6    7   17     -0.18      0.00
   -5    7   17     -0.18      0.00
   -4    7   17      0.57      0.00
   -3    7   17      1.12      0.00
   -2    7   17      0.32      0.00
   -1    7   17     -1.02      0.00
    0    7   17     -1.59      0.00
    1    7   17     -1.39      0.00
    2    7   17     -0.82      0.00
    3    7   17     -0.01      0.00
    4    7   17      0.85      0.00
    5    7   17      1.00      0.00
    6    7   17     -0.15      0.00
    7    7   17     -1.60      0.00
    8    7   17     -1.83      0.00
    9    7   17     -0.74      0.00
   10    7   17      0.41      0.00
   11    7   17      0.52      0.00
   12    7   17     -0.08      0.00
   -5    8   17      0.35      0.00
   -3    8   17     -0.83      0.00
   -2    8   17     -0.91      0.00
   -1    8   17      0.05      0.00
    0    8   17      0.92      0.00
    1    8   17      1.16      0.00
    2    8   17      1.11      0.00
    3    8   17      1.04      0.00
    4    8   17      0.54      0.00
    5    8   17     -0.57      0.00
    6    8   17     -1.01      0.00
    7    8   17      0.00      0.00
    8    8   17      1.11      0.00
    9    8   17      1.08      0.00
   10    8   17      0.20      0.00
   11    8   17     -0.54      0.00
   12    8   17     -0.50      0.00
   -4    9   17     -0.55      0.00
   -3    9   17      0.14      0.00
   -2    9   17      0.87      0.00
   -1    9   17      0.59      0.00
    0    9   17     -0.10      0.00
    1    9   17     -0.36      0.00
    2    9   17     -0.34      0.00
    3    9   17     -0.58      0.00
    4    9   17     -0.99      0.00
    5    9   17     -0.51      0.00
    6    9   17      0.81      0.00
    7    9   17      1.16      0.00
    8    9   17      0.23      0.00
    9    9   17     -0.46      0.00
   10    9   17     -0.25      0.00
   11    9   17      0.34      0.00
   12    9   17      0.54      0.00
   -3   10   17      0.58      0.00
   -2   10   17     -0.32      0.00
   -1   10   17     -0.72      0.00
    0   10   17     -0.32      0.00
    1   10   17     -0.13      0.00
    2   10   17     -0.44      0.00
    3   10   17     -0.53      0.00
    4   10   17      0.15      0.00
    5   10   17      0.82      0.00
    6   10   17      0.14      0.00
    7   10   17     -1.00      0.00
    8   10   17     -0.88      0.00
    9   10   17     -0.06      0.00
   10   10   17      0.18      0.00
   11   10   17     -0.18      0.00
   12   10   17     -0.48      0.00
   -2   11   17     -0.40      0.00
   -1   11   17      0.35      0.00
    0   11   17      0.39      0.00
    1   11   17      0.07      0.00
    2   11   17      0.37      0.00
    3   11   17      0.97      0.00
    4   11   17      0.83      0.00
    5   11   17     -0.18      0.00
    6   11   17     -0.66      0.00
    7   11   17      0.11      0.00
    8   11   17      0.60      0.00
    9   11   17      0.03      0.00
   10   11   17     -0.45      0.00
   11   11   17     -0.22      0.00
    0   12   17     -0.15      0.00
    1   12   17      0.06      0.00
    2   12   17      0.10      0.00
    3   12   17     -0.47      0.00
    4   12   17     -0.90      0.00
    5   12   17     -0.43      0.00
    6   12   17      0.42      0.00
    7   12   17      0.43      0.00
    8   12   17     -0.07      0.00
    9   12   17      0.19      0.00
   10   12   17      0.77      0.00
    3   13   17     -0.05      0.00
    4   13   17      0.40      0.00
    5   13   17      0.36      0.00
    6   13   17     -0.11      0.00
    7   13   17     -0.32      0.00
    8   13   17     -0.02      0.00
    9   13   17     -0.08      0.00
   -8  -10   18     -0.26      0.00
   -7  -10   18      0.02      0.00
   -6  -10   18      0.61      0.00
   -5  -10   18      0.53      0.00
   -4  -10   18     -0.11      0.00
   -3  -10   18     -0.45      0.00
   -2  -10   18     -0.56      0.00
   -1  -10   18     -0.70      0.00
   -9   -9   18      0.31      0.00
   -8   -9   18      0.40      0.00
   -7   -9   18      0.25      0.00
   -6   -9   18     -0.35      0.00
   -5   -9   18     -0.85      0.00
   -4   -9   18     -0.68      0.00
   -3   -9   18     -0.22      0.00
   -2   -9   18      0.02      0.00
   -1   -9   18      0.12      0.00
    0   -9   18      0.35      0.00
    1   -9   18      0.82      0.00
  -10   -8   18     -0.04      0.00
   -9   -8   18     -0.33      0.00
   -8   -8   18     -0.59      0.00
   -7   -8   18     -0.51      0.00
   -6   -8   18      0.04      0.00
   -5   -8   18      0.71      0.00
   -4   -8   18      0.93      0.00
   -3   -8   18      0.68      0.00
   -2   -8   18      0.48      0.00
   -1   -8   18      0.55      0.00
    0   -8   18      0.58      0.00
    1   -8   18     -0.01      0.00
    2   -8   18     -1.05      0.00
  -10   -7   18     -0.21      0.00
   -9   -7   18      0.02      0.00
   -8   -7   18      0.45      0.00
   -7   -7   18      0.76      0.00
   -6   -7   18      0.44      0.00
   -5   -7   18     -0.30      0.00
   -4   -7   18     -0.74      0.00
   -3   -7   18     -0.51      0.00
   -2   -7   18     -0.16      0.00
   -1   -7   18     -0.42      0.00
    0   -7   18     -1.10      0.00
    1   -7   18     -1.14      0.00
    2   -7   18      0.01      0.00
    3   -7   18      1.24      0.00
    4   -7   18      1.37      0.00
   -8   -6   18      0.02      0.00
   -7   -6   18     -0.55      0.00
   -6   -6   18     -0.76      0.00
   -5   -6   18     -0.30      0.00
   -4   -6   18      0.30      0.00
   -3   -6   18      0.28      0.00
   -2   -6   18     -0.43      0.00
   -1   -6   18     -0.66      0.00
    0   -6   18      0.43      0.00
    1   -6   18      1.72      0.00
    2   -6   18      1.45      0.00
    3   -6   18     -0.01      0.00
    4   -6   18     -0.91      0.00
    5   -6   18     -0.82      0.00
   -7   -5   18      0.05      0.00
   -6   -5   18      0.60      0.00
   -5   -5   18      0.58      0.00
   -4   -5   18      0.13      0.00
   -3   -5   18     -0.17      0.00
   -2   -5   18      0.34      0.00
   -1   -5   18      1.34      0.00
    0   -5   18      1.02      0.00
    1   -5   18     -1.00      0.00
    2   -5   18     -2.39      0.00
    3   -5   18     -1.63      0.00
    4   -5   18     -0.28      0.00
    5   -5   18      0.16      0.00
    6   -5   18      0.07      0.00
   -6   -4   18     -0.29      0.00
   -5   -4   18     -0.58      0.00
   -4   -4   18     -0.28      0.00
   -3   -4   18      0.14      0.00
   -2   -4   18      0.12      0.00
   -1   -4   18     -0.84      0.00
    0   -4   18     -1.71      0.00
    1   -4   18     -0.58      0.00
    2   -4   18      1.79      0.00
    3   -4   18      2.65      0.00
    4   -4   18      1.57      0.00
    5   -4   18      0.56      0.00
    6   -4   18      0.39      0.00
    7   -4   18      0.40      0.00
   -5   -3   18      0.59      0.00
   -4   -3   18      0.52      0.00
   -3   -3   18     -0.08      0.00
   -2   -3   18     -0.46      0.00
   -1   -3   18      0.02      0.00
    0   -3   18      1.24      0.00
    1   -3   18      1.56      0.00
    2   -3   18     -0.08      0.00
    3   -3   18     -1.97      0.00
    4   -3   18     -2.07      0.00
    5   -3   18     -0.99      0.00
    6   -3   18     -0.39      0.00
    7   -3   18     -0.48      0.00
    8   -3   18     -0.55      0.00
   -4   -2   18     -0.80      0.00
   -3   -2   18     -0.41      0.00
   -2   -2   18      0.42      0.00
   -1   -2   18      0.52      0.00
    0   -2   18     -0.50      0.00
    1   -2   18     -1.60      0.00
    2   -2   18     -1.22      0.00
    3   -2   18      0.37      0.00
    4   -2   18      1.34      0.00
    5   -2   18      0.86      0.00
    6   -2   18      0.03      0.00
    7   -2   18      0.00      0.00
    8   -2   18      0.52      0.00
   -3   -1   18      0.69      0.00
   -2   -1   18      0.10      0.00
   -1   -1   18     -0.61      0.00
    0   -1   18     -0.19      0.00
    1   -1   18      1.13      0.00
    2   -1   18      1.67      0.00
    3   -1   18      0.73      0.00
    4   -1   18     -0.41      0.00
    5   -1   18     -0.44      0.00
    6   -1   18      0.43      0.00
    7   -1   18      0.81      0.00
    8   -1   18      0.07      0.00
    9   -1   18     -0.79      0.00
   -3    0   18      0.06      0.00
   -2    0   18     -0.14      0.00
   -1    0   18      0.32      0.00
    0    0   18      0.51      0.00
    1    0   18     -0.38      0.00
    2    0   18     -1.45      0.00
    3    0   18     -1.22      0.00
    4    0   18     -0.01      0.00
    5    0   18      0.56      0.00
    6    0   18     -0.29      0.00
    7    0   18     -1.41      0.00
    8    0   18     -1.11      0.00
    9    0   18      0.29      0.00
   10    0   18      1.02      0.00
   -2    1   18     -0.64      0.00
   -1    1   18     -0.62      0.00
    0    1   18     -0.58      0.00
    1    1   18     -0.08      0.00
    2    1   18      0.90      0.00
    3    1   18      1.30      0.00
    4    1   18      0.38      0.00
    5    1   18     -0.86      0.00
    6    1   18     -0.76      0.00
    7    1   18      0.87      0.00
    8    1   18      1.90      0.00
    9    1   18      0.86      0.00
   10    1   18     -0.64      0.00
   -2    2   18      0.67      0.00
   -1    2   18      1.26      0.00
    0    2   18      1.22      0.00
    1    2   18      0.53      0.00
    2    2   18     -0.50      0.00
    3    2   18     -1.22      0.00
    4    2   18     -0.86      0.00
    5    2   18      0.49      0.00
    6    2   18      1.55      0.00
    7    2   18      0.74      0.00
    8    2   18     -1.35      0.00
    9    2   18     -1.87      0.00
   10    2   18     -0.40      0.00
   -2    3   18      0.61      0.00
   -1    3   18     -0.68      0.00
    0    3   18     -1.72      0.00
    1    3   18     -1.59      0.00
    2    3   18     -0.41      0.00
    3    3   18      0.89      0.00
    4    3   18      1.24      0.00
    5    3   18      0.41      0.00
    6    3   18     -1.06      0.00
    7    3   18     -1.80      0.00
    8    3   18     -0.39      0.00
    9    3   18      1.60      0.00
   10    3   18      1.48      0.00
   11    3   18      0.16      0.00
   -2    4   18     -1.64      0.00
   -1    4   18     -0.84      0.00
    0    4   18      0.74      0.00
    1    4   18      1.94      0.00
    2    4   18      1.80      0.00
    3    4   18      0.42      0.00
    4    4   18     -0.91      0.00
    5    4   18     -1.13      0.00
    6    4   18     -0.23      0.00
    7    4   18      1.18      0.00
    8    4   18      1.49      0.00
    9    4   18     -0.16      0.00
   10    4   18     -1.57      0.00
   11    4   18     -1.08      0.00
   -3    5   18      0.40      0.00
   -2    5   18      1.48      0.00
   -1    5   18      1.67      0.00
    0    5   18      0.81      0.00
    1    5   18     -0.63      0.00
    2    5   18     -1.79      0.00
    3    5   18     -1.73      0.00
    4    5   18     -0.48      0.00
    5    5   18      0.81      0.00
    6    5   18      1.13      0.00
    7    5   18      0.32      0.00
    8    5   18     -0.87      0.00
    9    5   18     -0.79      0.00
   10    5   18      0.61      0.00
   11    5   18      1.30      0.00
   -3    6   18      0.32      0.00
   -2    6   18     -0.69      0.00
   -1    6   18     -1.49      0.00
    0    6   18     -1.50      0.00
    1    6   18     -0.85      0.00
    2    6   18      0.21      0.00
    3    6   18      1.18      0.00
    4    6   18      1.32      0.00
    5    6   18      0.40      0.00
    6    6   18     -0.80      0.00
    7    6   18     -1.16      0.00
    8    6   18     -0.42      0.00
    9    6   18      0.40      0.00
   10    6   18      0.14      0.00
   11    6   18     -0.69      0.00
   -4    7   18     -0.49      0.00
   -3    7   18     -0.69      0.00
   -2    7   18     -0.10      0.00
   -1    7   18      0.80      0.00
    0    7   18      1.30      0.00
    1    7   18      1.30      0.00
    2    7   18      0.95      0.00
    3    7   18      0.35      0.00
    4    7   18     -0.46      0.00
    5    7   18     -0.89      0.00
    6    7   18     -0.25      0.00
    7    7   18      0.73      0.00
    8    7   18      0.88      0.00
    9    7   18      0.25      0.00
   10    7   18     -0.17      0.00
   11    7   18      0.08      0.00
   -4    8   18      0.23      0.00
   -3    8   18      0.68      0.00
   -2    8   18      0.61      0.00
   -1    8   18     -0.02      0.00
    0    8   18     -0.60      0.00
    1    8   18     -0.87      0.00
    2    8   18     -0.88      0.00
    3    8   18     -0.85      0.00
    4    8   18     -0.64      0.00
    5    8   18      0.16      0.00
    6    8   18      0.71      0.00
    7    8   18      0.20      0.00
    8    8   18     -0.40      0.00
    9    8   18     -0.27      0.00
   10    8   18      0.16      0.00
   11    8   18      0.25      0.00
   -3    9   18     -0.20      0.00
   -2    9   18     -0.62      0.00
   -1    9   18     -0.45      0.00
    0    9   18     -0.10      0.00
    1    9   18      0.10      0.00
    2    9   18      0.12      0.00
    3    9   18      0.19      0.00
    4    9   18      0.55      0.00
    5    9   18      0.51      0.00
    6    9   18     -0.28      0.00
    7    9   18     -0.63      0.00
    8    9   18     -0.19      0.00
    9    9   18      0.01      0.00
   10    9   18     -0.28      0.00
   11    9   18     -0.52      0.00
   -2   10   18      0.12      0.00
   -1   10   18      0.42      0.00
    0   10   18      0.34      0.00
    1   10   18      0.33      0.00
    2   10   18      0.47      0.00
    3   10   18      0.61      0.00
    4   10   18      0.30      0.00
    5   10   18     -0.33      0.00
    6   10   18     -0.23      0.00
    7   10   18      0.36      0.00
    8   10   18      0.34      0.00
    9   10   18      0.03      0.00
   10   10   18      0.13      0.00
   11   10   18      0.47      0.00
    0   11   18     -0.20      0.00
    1   11   18     -0.23      0.00
    2   11   18     -0.42      0.00
    3   11   18     -0.72      0.00
    4   11   18     -0.78      0.00
    5   11   18     -0.24      0.00
    6   11   18      0.27      0.00
    7   11   18      0.06      0.00
    8   11   18     -0.12      0.00
    9   11   18      0.15      0.00
   10   11   18      0.23      0.00
    2   12   18      0.09      0.00
    3   12   18      0.32      0.00
    4   12   18      0.50      0.00
    5   12   18      0.36      0.00
    6   12   18     -0.04      0.00
    7   12   18     -0.13      0.00
    8   12   18     -0.01      0.00
    9   12   18     -0.24      0.00
   -8   -9   19     -0.36      0.00
   -7   -9   19     -0.10      0.00
   -6   -9   19      0.28      0.00
   -5   -9   19      0.53      0.00
   -4   -9   19      0.40      0.00
   -3   -9   19      0.09      0.00
   -2   -9   19     -0.16      0.00
   -1   -9   19     -0.20      0.00
   -9   -8   19      0.19      0.00
   -8   -8   19      0.53      0.00
   -7   -8   19      0.42      0.00
   -6   -8   19     -0.11      0.00
   -5   -8   19     -0.56      0.00
   -4   -8   19     -0.59      0.00
   -3   -8   19     -0.37      0.00
   -2   -8   19     -0.18      0.00
   -1   -8   19     -0.19      0.00
    0   -8   19     -0.37      0.00
    1   -8   19     -0.13      0.00
   -9   -7   19      0.25      0.00
   -8   -7   19     -0.18      0.00
   -7   -7   19     -0.59      0.00
   -6   -7   19     -0.34      0.00
   -5   -7   19      0.31      0.00
   -4   -7   19      0.59      0.00
   -3   -7   19      0.30      0.00
   -2   -7   19     -0.04      0.00
   -1   -7   19      0.07      0.00
    0   -7   19      0.61      0.00
    1   -7   19      0.81      0.00
    2   -7   19      0.09      0.00
   -8   -6   19     -0.27      0.00
   -7   -6   19      0.28      0.00
   -6   -6   19      0.60      0.00
   -5   -6   19      0.19      0.00
   -4   -6   19     -0.35      0.00
   -3   -6   19     -0.29      0.00
   -2   -6   19      0.33      0.00
   -1   -6   19      0.62      0.00
    0   -6   19     -0.13      0.00
    1   -6   19     -1.12      0.00
    2   -6   19     -0.92      0.00
    3   -6   19      0.11      0.00
    4   -6   19      0.57      0.00
   -7   -5   19      0.10      0.00
   -6   -5   19     -0.46      0.00
   -5   -5   19     -0.46      0.00
   -4   -5   19      0.04      0.00
   -3   -5   19      0.33      0.00
   -2   -5   19     -0.11      0.00
   -1   -5   19     -0.88      0.00
    0   -5   19     -0.70      0.00
    1   -5   19      0.70      0.00
    2   -5   19      1.54      0.00
    3   -5   19      0.82      0.00
    4   -5   19     -0.04      0.00
    5   -5   19     -0.05      0.00
   -6   -4   19      0.21      0.00
   -5   -4   19      0.54      0.00
   -4   -4   19      0.14      0.00
   -3   -4   19     -0.36      0.00
   -2   -4   19     -0.28      0.00
   -1   -4   19      0.48      0.00
    0   -4   19      0.98      0.00
    1   -4   19      0.10      0.00
    2   -4   19     -1.35      0.00
    3   -4   19     -1.54      0.00
    4   -4   19     -0.64      0.00
    5   -4   19     -0.22      0.00
    6   -4   19     -0.39      0.00
   -5   -3   19     -0.43      0.00
   -4   -3   19     -0.46      0.00
   -3   -3   19      0.18      0.00
   -2   -3   19      0.50      0.00
   -1   -3   19     -0.07      0.00
    0   -3   19     -0.88      0.00
    1   -3   19     -0.67      0.00
    2   -3   19      0.59      0.00
    3   -3   19      1.39      0.00
    4   -3   19      0.94      0.00
    5   -3   19      0.27      0.00
    6   -3   19      0.24      0.00
    7   -3   19      0.48      0.00
   -4   -2   19      0.46      0.00
   -3   -2   19      0.33      0.00
   -2   -2   19     -0.30      0.00
   -1   -2   19     -0.19      0.00
    0   -2   19      0.79      0.00
    1   -2   19      1.18      0.00
    2   -2   19      0.23      0.00
    3   -2   19     -0.82      0.00
    4   -2   19     -0.74      0.00
    5   -2   19      0.02      0.00
    6   -2   19      0.34      0.00
    7   -2   19      0.00      0.00
   -3   -1   19     -0.28      0.00
   -2   -1   19     -0.13      0.00
   -1   -1   19      0.19      0.00
    0   -1   19     -0.47      0.00
    1   -1   19     -1.46      0.00
    2   -1   19     -1.14      0.00
    3   -1   19      0.19      0.00
    4   -1   19      0.71      0.00
    5   -1   19     -0.07      0.00
    6   -1   19     -0.97      0.00
    7   -1   19     -0.91      0.00
    8   -1   19     -0.09      0.00
   -3    0   19     -0.55      0.00
   -2    0   19     -0.20      0.00
   -1    0   19     -0.19      0.00
    0    0   19      0.08      0.00
    1    0   19      1.10      0.00
    2    0   19      1.67      0.00
    3    0   19      0.71      0.00
    4    0   19     -0.59      0.00
    5    0   19     -0.55      0.00
    6    0   19      0.72      0.00
    7    0   19      1.63      0.00
    8    0   19      1.08      0.00
    9    0   19     -0.10      0.00
   -2    1   19      0.91      0.00
   -1    1   19      0.85      0.00
    0    1   19      0.45      0.00
    1    1   19     -0.46      0.00
    2    1   19     -1.51      0.00
    3    1   19     -1.46      0.00
    4    1   19     -0.16      0.00
    5    1   19      0.92      0.00
    6    1   19      0.44      0.00
    7    1   19     -1.14      0.00
    8    1   19     -1.80      0.00
    9    1   19     -0.77      0.00
   -2    2   19     -0.43      0.00
   -1    2   19     -1.28      0.00
    0    2   19     -1.35      0.00
    1    2   19     -0.52      0.00
    2    2   19      0.81      0.00
    3    2   19      1.59      0.00
    4    2   19      1.02      0.00
    5    2   19     -0.34      0.00
    6    2   19     -1.14      0.00
    7    2   19     -0.32      0.00
    8    2   19      1.28      0.00
    9    2   19      1.46      0.00
   10    2   19      0.29      0.00
   -2    3   19     -0.82      0.00
   -1    3   19      0.36      0.00
    0    3   19      1.47      0.00
    1    3   19      1.61      0.00
    2    3   19      0.56      0.00
    3    3   19     -0.81      0.00
    4    3   19     -1.22      0.00
    5    3   19     -0.45      0.00
    6    3   19      0.72      0.00
    7    3   19      1.19      0.00
    8    3   19      0.14      0.00
    9    3   19     -1.17      0.00
   10    3   19     -0.92      0.00
   -2    4   19      1.27      0.00
   -1    4   19      0.83      0.00
    0    4   19     -0.32      0.00
    1    4   19     -1.42      0.00
    2    4   19     -1.66      0.00
    3    4   19     -0.77      0.00
    4    4   19      0.32      0.00
    5    4   19      0.57      0.00
    6    4   19      0.03      0.00
    7    4   19     -0.80      0.00
    8    4   19     -0.91      0.00
    9    4   19      0.18      0.00
   10    4   19      1.00      0.00
   -2    5   19     -0.91      0.00
   -1    5   19     -1.14      0.00
    0    5   19     -0.71      0.00
    1    5   19      0.13      0.00
    2    5   19      1.07      0.00
    3    5   19      1.46      0.00
    4    5   19      0.97      0.00
    5    5   19      0.18      0.00
    6    5   19     -0.20      0.00
    7    5   19      0.02      0.00
    8    5   19      0.49      0.00
    9    5   19      0.30      0.00
   10    5   19     -0.56      0.00
   -3    6   19     -0.18      0.00
   -2    6   19      0.41      0.00
   -1    6   19      0.91      0.00
    0    6   19      0.96      0.00
    1    6   19      0.72      0.00
    2    6   19      0.29      0.00
    3    6   19     -0.37      0.00
    4    6   19     -0.94      0.00
    5    6   19     -0.84      0.00
    6    6   19     -0.21      0.00
    7    6   19      0.22      0.00
    8    6   19      0.10      0.00
    9    6   19     -0.09      0.00
   10    6   19      0.24      0.00
   -4    7   19      0.41      0.00
   -3    7   19      0.45      0.00
   -2    7   19      0.08      0.00
   -1    7   19     -0.45      0.00
    0    7   19     -0.77      0.00
    1    7   19     -0.83      0.00
    2    7   19     -0.80      0.00
    3    7   19     -0.78      0.00
    4    7   19     -0.32      0.00
    5    7   19      0.37      0.00
    6    7   19      0.44      0.00
    7    7   19     -0.01      0.00
    8    7   19     -0.14      0.00
    9    7   19      0.06      0.00
   10    7   19      0.01      0.00
   -4    8   19     -0.23      0.00
   -3    8   19     -0.46      0.00
   -2    8   19     -0.37      0.00
   -1    8   19     -0.07      0.00
    0    8   19      0.23      0.00
    1    8   19      0.47      0.00
    2    8   19      0.53      0.00
    3    8   19      0.70      0.00
    4    8   19      0.94      0.00
    5    8   19      0.52      0.00
    6    8   19     -0.13      0.00
    7    8   19     -0.16      0.00
    8    8   19     -0.07      0.00
    9    8   19     -0.34      0.00
   10    8   19     -0.51      0.00
   -2    9   19      0.29      0.00
   -1    9   19      0.22      0.00
    0    9   19      0.21      0.00
    1    9   19      0.12      0.00
    2    9   19      0.01      0.00
    3    9   19      0.00      0.00
    4    9   19     -0.34      0.00
    5    9   19     -0.60      0.00
    6    9   19     -0.18      0.00
    7    9   19      0.18      0.00
    8    9   19      0.19      0.00
    9    9   19      0.42      0.00
   10    9   19      0.78      0.00
   -1   10   19     -0.03      0.00
    0   10   19     -0.13      0.00
    1   10   19     -0.31      0.00
    2   10   19     -0.36      0.00
    3   10   19     -0.47      0.00
    4   10   19     -0.46      0.00
    5   10   19     -0.06      0.00
    6   10   19      0.07      0.00
    7   10   19     -0.15      0.00
    8   10   19     -0.17      0.00
    9   10   19     -0.22      0.00
    1   11   19      0.05      0.00
    2   11   19      0.24      0.00
    3   11   19      0.37      0.00
    4   11   19      0.60      0.00
    5   11   19      0.55      0.00
    6   11   19      0.27      0.00
    7   11   19      0.19      0.00
    8   11   19      0.08      0.00
    5   12   19     -0.37      0.00
    6   12   19     -0.37      0.00
   -7   -8   20     -0.41      0.00
   -6   -8   20     -0.01      0.00
   -5   -8   20      0.28      0.00
   -4   -8   20      0.28      0.00
   -3   -8   20      0.20      0.00
   -2   -8   20      0.08      0.00
   -1   -8   20      0.06      0.00
   -8   -7   20      0.03      0.00
   -7   -7   20      0.41      0.00
   -6   -7   20      0.23      0.00
   -5   -7   20     -0.33      0.00
   -4   -7   20     -0.54      0.00
   -3   -7   20     -0.31      0.00
   -2   -7   20      0.01      0.00
   -1   -7   20      0.08      0.00
    0   -7   20     -0.29      0.00
    1   -7   20     -0.54      0.00
   -8   -6   20      0.25      0.00
   -7   -6   20     -0.10      0.00
   -6   -6   20     -0.30      0.00
   -5   -6   20      0.12      0.00
   -4   -6   20      0.60      0.00
   -3   -6   20      0.53      0.00
   -2   -6   20     -0.03      0.00
   -1   -6   20     -0.49      0.00
    0   -6   20     -0.18      0.00
    1   -6   20      0.51      0.00
    2   -6   20      0.38      0.00
   -7   -5   20     -0.20      0.00
   -6   -5   20      0.21      0.00
   -5   -5   20      0.08      0.00
   -4   -5   20     -0.46      0.00
   -3   -5   20     -0.63      0.00
   -2   -5   20     -0.21      0.00
   -1   -5   20      0.49      0.00
    0   -5   20      0.59      0.00
    1   -5   20     -0.21      0.00
    2   -5   20     -0.70      0.00
    3   -5   20     -0.13      0.00
    4   -5   20      0.35      0.00
   -6   -4   20      0.00      0.00
   -5   -4   20     -0.31      0.00
   -4   -4   20      0.16      0.00
   -3   -4   20      0.61      0.00
   -2   -4   20      0.39      0.00
   -1   -4   20     -0.25      0.00
    0   -4   20     -0.55      0.00
    1   -4   20      0.02      0.00
    2   -4   20      0.78      0.00
    3   -4   20      0.63      0.00
    4   -4   20     -0.01      0.00
    5   -4   20     -0.05      0.00
   -5   -3   20      0.22      0.00
   -4   -3   20      0.33      0.00
   -3   -3   20     -0.28      0.00
   -2   -3   20     -0.47      0.00
   -1   -3   20      0.17      0.00
    0   -3   20      0.66      0.00
    1   -3   20      0.14      0.00
    2   -3   20     -0.77      0.00
    3   -3   20     -0.86      0.00
    4   -3   20     -0.16      0.00
    5   -3   20      0.22      0.00
    6   -3   20     -0.04      0.00
   -4   -2   20     -0.28      0.00
   -3   -2   20     -0.24      0.00
   -2   -2   20      0.26      0.00
   -1   -2   20     -0.02      0.00
    0   -2   20     -0.93      0.00
    1   -2   20     -0.85      0.00
    2   -2   20      0.37      0.00
    3   -2   20      1.01      0.00
    4   -2   20      0.32      0.00
    5   -2   20     -0.56      0.00
    6   -2   20     -0.63      0.00
   -3   -1   20      0.06      0.00
   -2   -1   20     -0.02      0.00
   -1   -1   20     -0.12      0.00
    0   -1   20      0.71      0.00
    1   -1   20      1.52      0.00
    2   -1   20      0.76      0.00
    3   -1   20     -0.66      0.00
    4   -1   20     -0.79      0.00
    5   -1   20      0.32      0.00
    6   -1   20      1.16      0.00
    7   -1   20      0.96      0.00
   -3    0   20      0.54      0.00
   -2    0   20      0.42      0.00
   -1    0   20      0.38      0.00
    0    0   20     -0.13      0.00
    1    0   20     -1.30      0.00
    2    0   20     -1.66      0.00
    3    0   20     -0.45      0.00
    4    0   20      0.78      0.00
    5    0   20      0.53      0.00
    6    0   20     -0.70      0.00
    7    0   20     -1.41      0.00
    8    0   20     -0.92      0.00
   -2    1   20     -0.74      0.00
   -1    1   20     -0.92      0.00
    0    1   20     -0.61      0.00
    1    1   20      0.45      0.00
    2    1   20      1.55      0.00
    3    1   20      1.37      0.00
    4    1   20      0.08      0.00
    5    1   20     -0.79      0.00
    6    1   20     -0.34      0.00
    7    1   20      0.83      0.00
    8    1   20      1.26      0.00
   -2    2   20      0.03      0.00
   -1    2   20      0.80      0.00
    0    2   20      1.16      0.00
    1    2   20      0.64      0.00
    2    2   20     -0.58      0.00
    3    2   20     -1.31      0.00
    4    2   20     -0.79      0.00
    5    2   20      0.22      0.00
    6    2   20      0.70      0.00
    7    2   20      0.19      0.00
    8    2   20     -0.75      0.00
    9    2   20     -0.82      0.00
   -2    3   20      0.74      0.00
   -1    3   20      0.18      0.00
    0    3   20     -0.67      0.00
    1    3   20     -1.16      0.00
    2    3   20     -0.72      0.00
    3    3   20      0.22      0.00
    4    3   20      0.53      0.00
    5    3   20      0.12      0.00
    6    3   20     -0.37      0.00
    7    3   20     -0.55      0.00
    8    3   20     -0.09      0.00
    9    3   20      0.51      0.00
   -2    4   20     -0.73      0.00
   -1    4   20     -0.74      0.00
    0    4   20     -0.31      0.00
    1    4   20      0.43      0.00
    2    4   20      1.04      0.00
    3    4   20      0.98      0.00
    4    4   20      0.56      0.00
    5    4   20      0.40      0.00
    6    4   20      0.34      0.00
    7    4   20      0.34      0.00
    8    4   20      0.36      0.00
    9    4   20     -0.01      0.00
   -2    5   20      0.47      0.00
   -1    5   20      0.66      0.00
    0    5   20      0.63      0.00
    1    5   20      0.49      0.00
    2    5   20     -0.01      0.00
    3    5   20     -0.75      0.00
    4    5   20     -1.19      0.00
    5    5   20     -1.19      0.00
    6    5   20     -0.86      0.00
    7    5   20     -0.40      0.00
    8    5   20     -0.18      0.00
    9    5   20     -0.08      0.00
   -2    6   20     -0.23      0.00
   -1    6   20     -0.50      0.00
    0    6   20     -0.52      0.00
    1    6   20     -0.61      0.00
    2    6   20     -0.81      0.00
    3    6   20     -0.57      0.00
    4    6   20      0.31      0.00
    5    6   20      1.07      0.00
    6    6   20      1.15      0.00
    7    6   20      0.73      0.00
    8    6   20      0.29      0.00
    9    6   20      0.02      0.00
   -3    7   20     -0.23      0.00
   -2    7   20     -0.01      0.00
   -1    7   20      0.22      0.00
    0    7   20      0.34      0.00
    1    7   20      0.39      0.00
    2    7   20      0.64      0.00
    3    7   20      1.09      0.00
    4    7   20      0.93      0.00
    5    7   20      0.00      0.00
    6    7   20     -0.66      0.00
    7    7   20     -0.69      0.00
    8    7   20     -0.53      0.00
    9    7   20     -0.35      0.00
   -2    8   20      0.01      0.00
   -1    8   20     -0.04      0.00
    0    8   20      0.03      0.00
    1    8   20     -0.02      0.00
    2    8   20     -0.10      0.00
    3    8   20     -0.45      0.00
    4    8   20     -0.93      0.00
    5    8   20     -0.71      0.00
    6    8   20     -0.04      0.00
    7    8   20      0.25      0.00
    8    8   20      0.39      0.00
    9    8   20      0.61      0.00
   -1    9   20      0.22      0.00
    0    9   20     -0.09      0.00
    1    9   20     -0.36      0.00
    2    9   20     -0.39      0.00
    3    9   20     -0.35      0.00
    4    9   20      0.01      0.00
    5    9   20      0.36      0.00
    6    9   20      0.21      0.00
    7    9   20      0.03      0.00
    8    9   20     -0.04      0.00
    9    9   20     -0.38      0.00
    1   10   20      0.23      0.00
    2   10   20      0.51      0.00
    3   10   20      0.64      0.00
    4   10   20      0.67      0.00
    5   10   20      0.37      0.00
    6   10   20      0.13      0.00
    7   10   20      0.00      0.00
    8   10   20     -0.17      0.00
    4   11   20     -0.55      0.00
    5   11   20     -0.62      0.00
   -5   -7   21      0.42      0.00
   -4   -7   21      0.50      0.00
   -3   -7   21      0.27      0.00
   -2   -7   21     -0.13      0.00
   -7   -6   21     -0.17      0.00
   -6   -6   21     -0.02      0.00
   -5   -6   21     -0.30      0.00
   -4   -6   21     -0.61      0.00
   -3   -6   21     -0.57      0.00
   -2   -6   21     -0.09      0.00
   -1   -6   21      0.53      0.00
    0   -6   21      0.50      0.00
    1   -6   21     -0.10      0.00
   -6   -5   21     -0.14      0.00
   -5   -5   21     -0.01      0.00
   -4   -5   21      0.46      0.00
   -3   -5   21      0.64      0.00
   -2   -5   21      0.40      0.00
   -1   -5   21     -0.20      0.00
    0   -5   21     -0.58      0.00
    1   -5   21     -0.18      0.00
    2   -5   21      0.21      0.00
   -5   -4   21      0.41      0.00
   -4   -4   21     -0.08      0.00
   -3   -4   21     -0.58      0.00
   -2   -4   21     -0.49      0.00
   -1   -4   21     -0.07      0.00
    0   -4   21      0.22      0.00
    1   -4   21      0.03      0.00
    2   -4   21     -0.32      0.00
    3   -4   21     -0.13      0.00
   -5   -3   21     -0.33      0.00
   -4   -3   21     -0.40      0.00
   -3   -3   21      0.25      0.00
   -2   -3   21      0.52      0.00
   -1   -3   21      0.03      0.00
    0   -3   21     -0.32      0.00
    1   -3   21      0.07      0.00
    2   -3   21      0.61      0.00
    3   -3   21      0.45      0.00
    4   -3   21     -0.19      0.00
   -4   -2   21      0.31      0.00
   -3   -2   21      0.20      0.00
   -2   -2   21     -0.31      0.00
   -1   -2   21     -0.10      0.00
    0   -2   21      0.67      0.00
    1   -2   21      0.59      0.00
    2   -2   21     -0.43      0.00
    3   -2   21     -0.86      0.00
    4   -2   21     -0.18      0.00
    5   -2   21      0.56      0.00
   -3   -1   21     -0.09      0.00
   -2   -1   21      0.08      0.00
   -1   -1   21      0.21      0.00
    0   -1   21     -0.51      0.00
    1   -1   21     -1.20      0.00
    2   -1   21     -0.55      0.00
    3   -1   21      0.64      0.00
    4   -1   21      0.76      0.00
    5   -1   21     -0.10      0.00
    6   -1   21     -0.78      0.00
   -3    0   21     -0.16      0.00
   -2    0   21     -0.21      0.00
   -1    0   21     -0.38      0.00
    0    0   21     -0.04      0.00
    1    0   21      0.92      0.00
    2    0   21      1.23      0.00
    3    0   21      0.27      0.00
    4    0   21     -0.66      0.00
    5    0   21     -0.55      0.00
    6    0   21      0.25      0.00
    7    0   21      0.79      0.00
   -2    1   21      0.10      0.00
   -1    1   21      0.52      0.00
    0    1   21      0.63      0.00
    1    1   21     -0.06      0.00
    2    1   21     -0.94      0.00
    3    1   21     -0.86      0.00
    4    1   21     -0.03      0.00
    5    1   21      0.48      0.00
    6    1   21      0.29      0.00
    7    1   21     -0.30      0.00
   -2    2   21      0.45      0.00
   -1    2   21     -0.02      0.00
    0    2   21     -0.67      0.00
    1    2   21     -0.74      0.00
    2    2   21     -0.01      0.00
    3    2   21      0.53      0.00
    4    2   21      0.30      0.00
    5    2   21     -0.06      0.00
    6    2   21     -0.19      0.00
    7    2   21     -0.11      0.00
    8    2   21      0.18      0.00
   -2    3   21     -0.56      0.00
   -1    3   21     -0.63      0.00
    0    3   21     -0.12      0.00
    1    3   21      0.63      0.00
    2    3   21      0.82      0.00
    3    3   21      0.45      0.00
    4    3   21      0.32      0.00
    5    3   21      0.33      0.00
    6    3   21      0.10      0.00
    7    3   21      0.05      0.00
    8    3   21      0.14      0.00
   -2    4   21      0.24      0.00
   -1    4   21      0.53      0.00
    0    4   21      0.67      0.00
    1    4   21      0.31      0.00
    2    4   21     -0.45      0.00
    3    4   21     -1.00      0.00
    4    4   21     -1.24      0.00
    5    4   21     -1.29      0.00
    6    4   21     -0.78      0.00
    7    4   21     -0.12      0.00
    8    4   21     -0.05      0.00
   -2    5   21     -0.06      0.00
   -1    5   21     -0.18      0.00
    0    5   21     -0.39      0.00
    1    5   21     -0.71      0.00
    2    5   21     -0.61      0.00
    3    5   21      0.19      0.00
    4    5   21      1.17      0.00
    5    5   21      1.80      0.00
    6    5   21      1.63      0.00
    7    5   21      0.73      0.00
    8    5   21      0.01      0.00
   -2    6   21     -0.06      0.00
   -1    6   21      0.01      0.00
    0    6   21      0.03      0.00
    1    6   21      0.31      0.00
    2    6   21      0.89      0.00
    3    6   21      0.98      0.00
    4    6   21      0.12      0.00
    5    6   21     -1.01      0.00
    6    6   21     -1.51      0.00
    7    6   21     -1.12      0.00
    8    6   21     -0.34      0.00
   -2    7   21      0.02      0.00
   -1    7   21      0.11      0.00
    0    7   21      0.22      0.00
    1    7   21      0.13      0.00
    2    7   21     -0.35      0.00
    3    7   21     -1.09      0.00
    4    7   21     -1.18      0.00
    5    7   21     -0.36      0.00
    6    7   21      0.43      0.00
    7    7   21      0.62      0.00
    8    7   21      0.44      0.00
   -1    8   21      0.11      0.00
    0    8   21     -0.33      0.00
    1    8   21     -0.50      0.00
    2    8   21     -0.27      0.00
    3    8   21      0.36      0.00
    4    8   21      1.02      0.00
    5    8   21      0.95      0.00
    6    8   21      0.44      0.00
    7    8   21      0.17      0.00
    1    9   21      0.53      0.00
    2    9   21      0.64      0.00
    3    9   21      0.35      0.00
    4    9   21     -0.21      0.00
    5    9   21     -0.55      0.00
    6    9   21     -0.47      0.00
    7    9   21     -0.44      0.00
   -5   -5   22      0.05      0.00
   -4   -5   22     -0.36      0.00
   -3   -5   22     -0.64      0.00
   -2   -5   22     -0.64      0.00
   -1   -5   22     -0.12      0.00
    0   -5   22      0.53      0.00
   -6   -4   22     -0.17      0.00
   -5   -4   22     -0.41      0.00
   -4   -4   22      0.01      0.00
   -3   -4   22      0.49      0.00
   -2   -4   22      0.59      0.00
   -1   -4   22      0.35      0.00
    0   -4   22     -0.07      0.00
    1   -4   22     -0.21      0.00
   -4   -3   22      0.46      0.00
   -3   -3   22     -0.09      0.00
   -2   -3   22     -0.47      0.00
   -1   -3   22     -0.27      0.00
    0   -3   22      0.04      0.00
    1   -3   22     -0.04      0.00
    2   -3   22     -0.32      0.00
    3   -3   22     -0.25      0.00
   -4   -2   22     -0.43      0.00
   -3   -2   22     -0.36      0.00
   -2   -2   22      0.15      0.00
   -1   -2   22      0.26      0.00
    0   -2   22     -0.19      0.00
    1   -2   22     -0.28      0.00
    2   -2   22      0.28      0.00
    3   -2   22      0.60      0.00
    4   -2   22      0.26      0.00
   -3   -1   22      0.33      0.00
   -2   -1   22      0.11      0.00
   -1   -1   22     -0.23      0.00
    0   -1   22      0.02      0.00
    1   -1   22      0.51      0.00
    2   -1   22      0.27      0.00
    3   -1   22     -0.40      0.00
    4   -1   22     -0.57      0.00
    5   -1   22     -0.19      0.00
   -3    0   22     -0.19      0.00
   -2    0   22     -0.07      0.00
   -1    0   22      0.28      0.00
    0    0   22      0.33      0.00
    1    0   22     -0.21      0.00
    2    0   22     -0.52      0.00
    3    0   22     -0.14      0.00
    4    0   22      0.32      0.00
    5    0   22      0.39      0.00
   -2    1   22      0.23      0.00
   -1    1   22     -0.21      0.00
    0    1   22     -0.62      0.00
    1    1   22     -0.36      0.00
    2    1   22      0.21      0.00
    3    1   22      0.29      0.00
    4    1   22      0.05      0.00
    5    1   22     -0.09      0.00
    6    1   22     -0.16      0.00
   -2    2   22     -0.44      0.00
   -1    2   22     -0.34      0.00
    0    2   22      0.32      0.00
    1    2   22      0.71      0.00
    2    2   22      0.40      0.00
    3    2   22      0.08      0.00
    4    2   22      0.11      0.00
    5    2   22     -0.03      0.00
    6    2   22     -0.18      0.00
   -2    3   22      0.19      0.00
   -1    3   22      0.66      0.00
    0    3   22      0.51      0.00
    1    3   22     -0.20      0.00
    2    3   22     -0.65      0.00
    3    3   22     -0.65      0.00
    4    3   22     -0.73      0.00
    5    3   22     -0.58      0.00
    6    3   22      0.06      0.00
    7    3   22      0.31      0.00
   -2    4   22      0.13      0.00
   -1    4   22     -0.32      0.00
    0    4   22     -0.76      0.00
    1    4   22     -0.68      0.00
    2    4   22     -0.03      0.00
    3    4   22      0.62      0.00
    4    4   22      1.14      0.00
    5    4   22      1.40      0.00
    6    4   22      0.82      0.00
    7    4   22     -0.10      0.00
   -2    5   22     -0.23      0.00
   -1    5   22     -0.04      0.00
    0    5   22      0.33      0.00
    1    5   22      0.81      0.00
    2    5   22      0.91      0.00
    3    5   22      0.33      0.00
    4    5   22     -0.60      0.00
    5    5   22     -1.41      0.00
    6    5   22     -1.47      0.00
    7    5   22     -0.61      0.00
   -2    6   22      0.23      0.00
   -1    6   22      0.21      0.00
    0    6   22      0.07      0.00
    1    6   22     -0.34      0.00
    2    6   22     -0.96      0.00
    3    6   22     -1.20      0.00
    4    6   22     -0.59      0.00
    5    6   22      0.40      0.00
    6    6   22      1.01      0.00
    7    6   22      0.84      0.00
    0    7   22     -0.32      0.00
    1    7   22     -0.14      0.00
    2    7   22      0.44      0.00
    3    7   22      1.15      0.00
    4    7   22      1.26      0.00
    5    7   22      0.64      0.00
    6    7   22     -0.02      0.00
    2    8   22      0.20      0.00
    3    8   22     -0.48      0.00
    4    8   22     -1.00      0.00
    5    8   22     -0.86      0.00
   -3   -3   23     -0.13      0.00
   -2   -3   23      0.34      0.00
   -1   -3   23      0.45      0.00
    0   -3   23      0.21      0.00
   -4   -2   23      0.38      0.00
   -3   -2   23      0.39      0.00
   -2   -2   23     -0.02      0.00
   -1   -2   23     -0.39      0.00
    0   -2   23     -0.24      0.00
    1   -2   23      0.00      0.00
   -3   -1   23     -0.24      0.00
   -2   -1   23     -0.17      0.00
   -1   -1   23      0.18      0.00
    0   -1   23      0.27      0.00
    1   -1   23     -0.01      0.00
    2   -1   23     -0.08      0.00
    3   -1   23      0.16      0.00
   -3    0   23      0.13      0.00
   -2    0   23      0.12      0.00
   -1    0   23     -0.12      0.00
    0    0   23     -0.31      0.00
    1    0   23     -0.12      0.00
    2    0   23      0.10      0.00
    3    0   23      0.06      0.00
   -2    1   23     -0.28      0.00
   -1    1   23     -0.02      0.00
    0    1   23      0.37      0.00
    1    1   23      0.36      0.00
    2    1   23      0.06      0.00
    3    1   23     -0.03      0.00
    4    1   23     -0.07      0.00
   -2    2   23      0.39      0.00
   -1    2   23      0.49      0.00
    0    2   23     -0.01      0.00
    1    2   23     -0.44      0.00
    2    2   23     -0.31      0.00
    3    2   23     -0.15      0.00
    4    2   23     -0.15      0.00
   -2    3   23     -0.12      0.00
   -1    3   23     -0.64      0.00
    0    3   23     -0.63      0.00
    1    3   23     -0.07      0.00
    2    3   23      0.30      0.00
    3    3   23      0.33      0.00
    4    3   23      0.47      0.00
    5    3   23      0.42      0.00
   -1    4   23      0.31      0.00
    0    4   23      0.72      0.00
    1    4   23      0.68      0.00
    2    4   23      0.25      0.00
    3    4   23     -0.15      0.00
    4    4   23     -0.55      0.00
    5    4   23     -0.92      0.00
    0    5   23     -0.35      0.00
    1    5   23     -0.67      0.00
    2    5   23     -0.72      0.00
    3    5   23     -0.41      0.00
    4    5   23      0.12      0.00
    1    6   23      0.28      0.00
    2    6   23      0.63      0.00
    3    6   23      0.77      0.00
    1    0    0     22.91      0.00
    3    0    0    -13.66      0.00
   16    0    0     -0.22      0.00
   17    0    0     -0.24      0.00
  -16    1    0      0.30      0.00
   -4    1    0     -1.54      0.00
   -1    1    0      3.30      0.00
    0    1    0    -25.40      0.00
    1    1    0    -33.78      0.00
   17    1    0      0.14      0.00
  -16    2    0     -0.11      0.00
  -15    2    0     -0.32      0.00
    2    2    0     21.23      0.00
    5    2    0      1.06      0.00
   17    2    0      0.13      0.00
  -15    3    0      0.18      0.00
    0    3    0     19.55      0.00
    4    3    0      0.34      0.00
   17    3    0     -0.10      0.00
  -14    4    0     -0.30      0.00
   -1    4    0    -10.04      0.00
    1    4    0    -13.17      0.00
    3    4    0      3.03      0.00
  -14    5    0      0.09      0.00
  -13    5    0      0.44      0.00
  -13    6    0     -0.28      0.00
  -12    7    0      0.32      0.00
  -11    8    0     -0.13      0.00
  -11    9    0      0.12      0.00
  -10    9    0     -0.11      0.00
  -10   10    0     -0.10      0.00
   -9   10    0      0.23      0.00
   -9   11    0      0.05      0.00
   -8   11    0     -0.20      0.00
   -8   12    0      0.04      0.00
   -7   12    0      0.12      0.00
   -6   13    0     -0.10      0.00
   -5   13    0     -0.17      0.00
   17   13    0     -0.43      0.00
   -5   14    0      0.12      0.00
   -4   14    0      0.34      0.00
   17   14    0      0.06      0.00
   -4   15    0     -0.12      0.00
   -3   15    0     -0.42      0.00
   -2   15    0     -0.73      0.00
   16   15    0      0.60      0.00
   17   15    0      0.11      0.00
   -2   16    0      0.40      0.00
   -1   16    0      0.54      0.00
    0   16    0      0.25      0.00
   15   16    0     -0.55      0.00
   16   16    0     -0.32      0.00
   17   16    0      0.10      0.00
    0   17    0     -0.24      0.00
    1   17    0      0.10      0.00
    2   17    0      0.14      0.00
   13   17    0     -0.37      0.00
   14   17    0     -0.07      0.00
   15   17    0      0.25      0.00
   16   17    0      0.16      0.00
    2   18    0     -0.20      0.00
    3   18    0     -0.03      0.00
    4   18    0      0.44      0.00
    5   18    0      0.68      0.00
    6   18    0      0.28      0.00
    7   18    0     -0.32      0.00
   10   18    0      0.37      0.00
   11   18    0      0.17      0.00
   12   18    0      0.12      0.00
   13   18    0      0.25      0.00
   14   18    0      0.16      0.00
   15   18    0     -0.07      0.00
  -14  -18    1     -0.44      0.00
  -13  -18    1     -0.59      0.00
  -12  -18    1     -0.28      0.00
  -11  -18    1     -0.05      0.00
  -10  -18    1     -0.15      0.00
   -9  -18    1     -0.10      0.00
   -8  -18    1      0.15      0.00
   -7  -18    1      0.05      0.00
   -6  -18    1     -0.33      0.00
   -5  -18    1     -0.40      0.00
   -4  -18    1     -0.16      0.00
   -3  -18    1      0.10      0.00
   -2  -18    1      0.20      0.00
  -16  -17    1     -0.11      0.00
  -15  -17    1     -0.10      0.00
  -14  -17    1      0.35      0.00
  -13  -17    1      0.84      0.00
   -2  -17    1      0.01      0.00
   -1  -17    1      0.02      0.00
    0  -17    1      0.10      0.00
  -17  -16    1      0.01      0.00
  -16  -16    1      0.26      0.00
  -15  -16    1      0.30      0.00
    0  -16    1     -0.44      0.00
    1  -16    1     -0.37      0.00
    2  -16    1     -0.20      0.00
  -17  -15    1      0.01      0.00
  -16  -15    1     -0.44      0.00
    2  -15    1      0.57      0.00
    3  -15    1      0.29      0.00
    4  -15    1      0.18      0.00
  -17  -14    1     -0.30      0.00
    4  -14    1     -0.27      0.00
    5  -14    1     -0.11      0.00
  -17  -13    1      0.47      0.00
    5  -13    1      0.12      0.00
    6  -13    1      0.02      0.00
    7  -12    1     -0.09      0.00
    8  -12    1      0.01      0.00
    8  -11    1      0.24      0.00
    9  -11    1      0.03      0.00
    9  -10    1     -0.23      0.00
   10  -10    1      0.04      0.00
   10   -9    1     -0.06      0.00
   11   -9    1     -0.15      0.00
   11   -8    1      0.40      0.00
   12   -7    1     -0.50      0.00
   -5   -6    1      5.45      0.00
   12   -6    1      0.50      0.00
   13   -6    1      0.33      0.00
   13   -5    1     -0.40      0.00
   14   -5    1     -0.08      0.00
   -3   -4    1     -6.00      0.00
   -2   -4    1      1.47      0.00
   14   -4    1      0.30      0.00
  -17   -3    1      0.18      0.00
   -6   -3    1      2.84      0.00
   -3   -3    1     11.85      0.00
   -1   -3    1     -2.12      0.00
    1   -3    1    -23.41      0.00
   14   -3    1     -0.35      0.00
   15   -3    1     -0.19      0.00
  -17   -2    1     -0.03      0.00
   -4   -2    1      4.28      0.00
    1   -2    1     23.05      0.00
   15   -2    1      0.44      0.00
   16   -2    1      0.05      0.00
  -17   -1    1     -0.24      0.00
   -3   -1    1     -5.60      0.00
   -1   -1    1     32.38      0.00
    0   -1    1     23.53      0.00
    2   -1    1    -19.01      0.00
   16   -1    1     -0.27      0.00
  -17    0    1      0.18      0.00
  -16    0    1      0.12      0.00
   -2    0    1      5.05      0.00
   -1    0    1    -20.47      0.00
    0    0    1    -34.83      0.00
    1    0    1    -19.90      0.00
   16    0    1      0.20      0.00
   17    0    1      0.13      0.00
  -16    1    1     -0.20      0.00
   -2    1    1    -18.26      0.00
    0    1    1     21.79      0.00
    2    1    1     11.53      0.00
   17    1    1     -0.01      0.00
  -16    2    1      0.14      0.00
  -15    2    1      0.21      0.00
   -1    2    1     19.03      0.00
    1    2    1    -16.99      0.00
    2    2    1    -15.18      0.00
   17    2    1     -0.04      0.00
  -15    3    1     -0.21      0.00
    3    3    1      2.37      0.00
   17    3    1     -0.12      0.00
  -14    4    1      0.18      0.00
    2    4    1     -1.21      0.00
    4    4    1      6.66      0.00
   17    4    1     -0.33      0.00
  -14    5    1      0.02      0.00
  -13    5    1     -0.10      0.00
  -13    6    1      0.02      0.00
  -12    7    1     -0.08      0.00
  -11    8    1      0.04      0.00
  -11    9    1     -0.23      0.00
  -10    9    1      0.12      0.00
  -10   10    1      0.11      0.00
   -9   10    1     -0.27      0.00
   -9   11    1      0.07      0.00
   -8   11    1      0.29      0.00
   -8   12    1     -0.18      0.00
   -7   12    1     -0.17      0.00
   -6   13    1      0.08      0.00
   -5   13    1      0.08      0.00
   17   13    1      0.62      0.00
   -5   14    1     -0.09      0.00
   -4   14    1     -0.39      0.00
   17   14    1     -0.16      0.00
   -4   15    1      0.14      0.00
   -3   15    1      0.60      0.00
   -2   15    1      0.87      0.00
   16   15    1     -0.40      0.00
   17   15    1      0.07      0.00
   -2   16    1     -0.58      0.00
   -1   16    1     -0.70      0.00
   15   16    1      0.48      0.00
   16   16    1      0.24      0.00
   17   16    1     -0.26      0.00
   -1   17    1      0.37      0.00
    0   17    1      0.34      0.00
    1   17    1     -0.14      0.00
    2   17    1     -0.21      0.00
   13   17    1      0.09      0.00
   14   17    1      0.05      0.00
   15   17    1     -0.13      0.00
   16   17    1     -0.09      0.00
    2   18    1      0.24      0.00
    3   18    1      0.08      0.00
    4   18    1     -0.41      0.00
    5   18    1     -0.49      0.00
    6   18    1      0.14      0.00
   10   18    1     -0.82      0.00
   11   18    1     -0.56      0.00
   12   18    1     -0.21      0.00
   13   18    1     -0.08      0.00
   14   18    1     -0.03      0.00
   15   18    1     -0.02      0.00
  -14  -18    2      0.67      0.00
  -13  -18    2      0.79      0.00
  -12  -18    2      0.34      0.00
  -11  -18    2     -0.16      0.00
  -10  -18    2     -0.20      0.00
   -9  -18    2     -0.04      0.00
   -8  -18    2      0.10      0.00
   -7  -18    2      0.35      0.00
   -6  -18    2      0.50      0.00
   -5  -18    2      0.34      0.00
   -4  -18    2      0.15      0.00
   -3  -18    2      0.06      0.00
   -2  -18    2     -0.06      0.00
  -16  -17    2     -0.02      0.00
  -15  -17    2     -0.17      0.00
  -14  -17    2     -0.57      0.00
  -13  -17    2     -0.99      0.00
   -2  -17    2     -0.22      0.00
   -1  -17    2     -0.09      0.00
    0  -17    2      0.08      0.00
  -16  -16    2     -0.20      0.00
  -15  -16    2     -0.08      0.00
    0  -16    2      0.41      0.00
    1  -16    2      0.05      0.00
    2  -16    2     -0.08      0.00
  -17  -15    2     -0.19      0.00
  -16  -15    2      0.31      0.00
    2  -15    2     -0.21      0.00
    3  -15    2     -0.05      0.00
    4  -15    2     -0.14      0.00
  -17  -14    2      0.36      0.00
  -16  -14    2     -0.04      0.00
    4  -14    2      0.20      0.00
    5  -14    2      0.14      0.00
  -17  -13    2     -0.20      0.00
    5  -13    2     -0.20      0.00
    6  -13    2     -0.11      0.00
  -17  -12    2      0.21      0.00
    7  -12    2      0.12      0.00
    8  -11    2     -0.16      0.00
    9  -11    2     -0.08      0.00
    9  -10    2      0.11      0.00
   10  -10    2      0.05      0.00
   10   -9    2      0.07      0.00
   11   -8    2     -0.28      0.00
   12   -7    2      0.40      0.00
   12   -6    2     -0.33      0.00
   13   -6    2     -0.34      0.00
   -3   -5    2      1.54      0.00
   -1   -5    2     15.57      0.00
   13   -5    2      0.33      0.00
   14   -5    2      0.13      0.00
  -17   -4    2      0.47      0.00
   -7   -4    2      2.17      0.00
   -6   -4    2     -1.98      0.00
   14   -4    2     -0.24      0.00
  -17   -3    2     -0.34      0.00
   -3   -3    2    -11.59      0.00
   -2   -3    2    -12.30      0.00
   14   -3    2      0.40      0.00
   15   -3    2      0.11      0.00
  -17   -2    2     -0.05      0.00
   -3   -2    2      5.12      0.00
   15   -2    2     -0.45      0.00
  -17   -1    2      0.30      0.00
  -16   -1    2     -0.30      0.00
   -5   -1    2      0.75      0.00
   -2   -1    2    -10.64      0.00
   -1   -1    2    -25.19      0.00
    0   -1    2    -17.78      0.00
   16   -1    2      0.25      0.00
  -17    0    2     -0.16      0.00
  -16    0    2     -0.17      0.00
   -3    0    2    -11.84      0.00
   -2    0    2     -4.23      0.00
   -1    0    2     15.53      0.00
    0    0    2     25.75      0.00
    1    0    2     14.13      0.00
   16    0    2     -0.35      0.00
  -16    1    2      0.25      0.00
   -2    1    2     13.60      0.00
   -1    1    2      1.26      0.00
    0    1    2    -16.33      0.00
    1    1    2    -18.84      0.00
    2    1    2     -6.64      0.00
   16    1    2      0.48      0.00
   17    1    2      0.04      0.00
  -16    2    2     -0.25      0.00
  -15    2    2     -0.13      0.00
   -3    2    2     -1.84      0.00
    0    2    2      1.28      0.00
   17    2    2     -0.24      0.00
  -15    3    2      0.18      0.00
    4    3    2      5.30      0.00
   17    3    2      0.34      0.00
  -14    4    2     -0.01      0.00
    3    4    2     -3.15      0.00
   17    4    2      0.40      0.00
  -14    5    2     -0.01      0.00
  -13    5    2     -0.12      0.00
  -13    6    2     -0.02      0.00
  -12    7    2      0.01      0.00
  -11    8    2      0.14      0.00
  -11    9    2      0.12      0.00
  -10    9    2     -0.30      0.00
  -10   10    2      0.02      0.00
   -9   10    2      0.36      0.00
   -9   11    2     -0.15      0.00
   -8   11    2     -0.29      0.00
   -8   12    2      0.24      0.00
   -7   12    2      0.19      0.00
   -6   13    2     -0.13      0.00
   17   13    2     -0.43      0.00
   -5   14    2      0.11      0.00
   -4   14    2      0.41      0.00
   17   14    2      0.05      0.00
   -4   15    2     -0.09      0.00
   -3   15    2     -0.56      0.00
   -2   15    2     -0.74      0.00
   16   15    2      0.37      0.00
   17   15    2     -0.10      0.00
   -2   16    2      0.46      0.00
   -1   16    2      0.52      0.00
   15   16    2     -0.46      0.00
   16   16    2     -0.28      0.00
   17   16    2      0.23      0.00
   -1   17    2     -0.23      0.00
    0   17    2     -0.19      0.00
    1   17    2      0.28      0.00
    2   17    2      0.30      0.00
   13   17    2      0.22      0.00
   14   17    2      0.00      0.00
   15   17    2     -0.02      0.00
   16   17    2      0.03      0.00
    2   18    2     -0.25      0.00
    3   18    2      0.02      0.00
    4   18    2      0.54      0.00
    5   18    2      0.50      0.00
    6   18    2     -0.25      0.00
   10   18    2      0.99      0.00
   11   18    2      0.66      0.00
   12   18    2      0.17      0.00
   13   18    2     -0.07      0.00
   14   18    2     -0.05      0.00
   15   18    2      0.15      0.00
  -14  -18    3     -0.64      0.00
  -13  -18    3     -0.73      0.00
  -12  -18    3     -0.34      0.00
  -11  -18    3      0.21      0.00
  -10  -18    3      0.23      0.00
   -9  -18    3     -0.21      0.00
   -8  -18    3     -0.62      0.00
   -7  -18    3     -0.77      0.00
   -6  -18    3     -0.53      0.00
   -5  -18    3     -0.11      0.00
   -4  -18    3      0.04      0.00
   -3  -18    3      0.01      0.00
   -2  -18    3      0.11      0.00
  -15  -17    3      0.33      0.00
  -14  -17    3      0.60      0.00
  -13  -17    3      0.89      0.00
   -3  -17    3      0.11      0.00
   -2  -17    3      0.22      0.00
   -1  -17    3      0.02      0.00
    0  -17    3     -0.25      0.00
  -16  -16    3      0.17      0.00
  -15  -16    3     -0.07      0.00
  -14  -16    3     -0.38      0.00
    0  -16    3     -0.28      0.00
    1  -16    3      0.18      0.00
    2  -16    3      0.21      0.00
  -17  -15    3      0.39      0.00
  -16  -15    3     -0.08      0.00
    2  -15    3      0.03      0.00
    3  -15    3      0.06      0.00
  -17  -14    3     -0.54      0.00
  -16  -14    3     -0.31      0.00
    4  -14    3     -0.31      0.00
    5  -14    3     -0.28      0.00
  -17  -13    3      0.32      0.00
    5  -13    3      0.26      0.00
    6  -13    3      0.14      0.00
  -17  -12    3     -0.38      0.00
    6  -12    3      0.00      0.00
    7  -12    3     -0.08      0.00
    8  -11    3      0.15      0.00
    9  -10    3     -0.14      0.00
   10   -9    3     -0.05      0.00
   11   -8    3      0.26      0.00
   11   -7    3     -0.12      0.00
   12   -7    3     -0.29      0.00
   12   -6    3      0.05      0.00
   13   -6    3      0.15      0.00
   13   -5    3     -0.02      0.00
   14   -5    3      0.03      0.00
  -17   -4    3     -0.44      0.00
   -8   -4    3     -2.29      0.00
   -1   -4    3     16.03      0.00
   14   -4    3      0.05      0.00
  -17   -3    3      0.17      0.00
   -2   -3    3      9.31      0.00
   14   -3    3     -0.40      0.00
   15   -3    3     -0.04      0.00
  -17   -2    3      0.28      0.00
   -5   -2    3      5.76      0.00
   -4   -2    3      6.92      0.00
   -3   -2    3     -2.15      0.00
   15   -2    3      0.45      0.00
  -17   -1    3     -0.35      0.00
  -16   -1    3      0.33      0.00
   -5   -1    3     -0.39      0.00
   -4   -1    3     -7.51      0.00
   -3   -1    3     -5.56      0.00
   -2   -1    3      6.29      0.00
   -1   -1    3     15.77      0.00
    0   -1    3     10.12      0.00
   15   -1    3     -0.74      0.00
   16   -1    3     -0.17      0.00
  -16    0    3      0.03      0.00
   -1    0    3     -9.67      0.00
   16    0    3      0.44      0.00
  -16    1    3     -0.16      0.00
   -1    1    3      0.32      0.00
   16    1    3     -0.79      0.00
   17    1    3     -0.04      0.00
  -16    2    3      0.30      0.00
  -15    2    3      0.00      0.00
   -1    2    3      6.77      0.00
    0    2    3     -2.66      0.00
    2    2    3     -0.31      0.00
   17    2    3      0.46      0.00
  -15    3    3     -0.24      0.00
  -14    3    3      0.38      0.00
   -2    3    3     -4.03      0.00
    4    3    3     -6.19      0.00
   17    3    3     -0.49      0.00
  -14    4    3      0.00      0.00
    3    4    3      4.77      0.00
    4    4    3     11.08      0.00
   17    4    3     -0.36      0.00
  -14    5    3     -0.05      0.00
  -13    5    3      0.30      0.00
    1    5    3      0.58      0.00
  -13    6    3     -0.07      0.00
  -12    6    3     -0.61      0.00
  -12    7    3      0.15      0.00
  -11    8    3     -0.20      0.00
  -11    9    3     -0.15      0.00
  -10    9    3      0.26      0.00
  -10   10    3      0.01      0.00
   -9   10    3     -0.33      0.00
   -9   11    3      0.18      0.00
   -8   11    3      0.34      0.00
   -8   12    3     -0.26      0.00
   -7   12    3     -0.22      0.00
   17   12    3     -0.52      0.00
   -6   13    3      0.07      0.00
   -5   13    3     -0.02      0.00
   17   13    3      0.30      0.00
   -5   14    3     -0.01      0.00
   -4   14    3     -0.25      0.00
   17   14    3     -0.15      0.00
   -4   15    3      0.04      0.00
   -3   15    3      0.36      0.00
   -2   15    3      0.45      0.00
   16   15    3     -0.17      0.00
   17   15    3      0.21      0.00
   -2   16    3     -0.28      0.00
   -1   16    3     -0.32      0.00
   15   16    3      0.30      0.00
   16   16    3      0.23      0.00
   17   16    3     -0.14      0.00
   -1   17    3      0.13      0.00
    0   17    3      0.13      0.00
    1   17    3     -0.15      0.00
    2   17    3     -0.06      0.00
   13   17    3     -0.11      0.00
   14   17    3      0.12      0.00
   15   17    3      0.15      0.00
   16   17    3      0.04      0.00
    2   18    3      0.16      0.00
    3   18    3     -0.10      0.00
    4   18    3     -0.51      0.00
    5   18    3     -0.26      0.00
    6   18    3      0.68      0.00
   10   18    3     -0.97      0.00
   11   18    3     -0.71      0.00
   12   18    3     -0.30      0.00
   13   18    3     -0.08      0.00
   14   18    3     -0.08      0.00
   15   18    3     -0.24      0.00
  -14  -18    4      0.45      0.00
  -13  -18    4      0.49      0.00
  -12  -18    4      0.22      0.00
  -11  -18    4     -0.30      0.00
  -10  -18    4     -0.34      0.00
   -9  -18    4      0.24      0.00
   -8  -18    4      0.76      0.00
   -7  -18    4      0.79      0.00
   -6  -18    4      0.39      0.00
   -5  -18    4     -0.02      0.00
   -4  -18    4     -0.06      0.00
   -3  -18    4      0.01      0.00
  -15  -17    4     -0.38      0.00
  -14  -17    4     -0.48      0.00
  -13  -17    4     -0.59      0.00
  -12  -17    4     -0.45      0.00
   -3  -17    4     -0.25      0.00
   -2  -17    4     -0.25      0.00
   -1  -17    4      0.03      0.00
    0  -17    4      0.27      0.00
  -16  -16    4     -0.13      0.00
  -15  -16    4      0.07      0.00
  -14  -16    4      0.23      0.00
    0  -16    4      0.12      0.00
    1  -16    4     -0.29      0.00
    2  -16    4     -0.22      0.00
  -17  -15    4     -0.50      0.00
  -16  -15    4     -0.01      0.00
  -15  -15    4      0.24      0.00
    2  -15    4      0.18      0.00
    3  -15    4     -0.03      0.00
  -17  -14    4      0.53      0.00
  -16  -14    4      0.28      0.00
    3  -14    4      0.04      0.00
    4  -14    4      0.29      0.00
    5  -14    4      0.31      0.00
  -17  -13    4     -0.25      0.00
    5  -13    4     -0.33      0.00
    6  -13    4     -0.21      0.00
  -17  -12    4      0.28      0.00
    6  -12    4      0.14      0.00
    7  -12    4      0.15      0.00
  -17  -11    4     -0.56      0.00
    7  -11    4      0.05      0.00
    8  -11    4     -0.11      0.00
    9  -10    4      0.01      0.00
   10   -9    4      0.08      0.00
  -10   -8    4     -0.12      0.00
   10   -8    4      0.08      0.00
   11   -8    4     -0.04      0.00
   11   -7    4     -0.20      0.00
   12   -7    4     -0.04      0.00
   12   -6    4      0.17      0.00
   13   -6    4      0.06      0.00
   13   -5    4     -0.01      0.00
  -17   -4    4      0.45      0.00
   -4   -4    4      1.90      0.00
   14   -4    4     -0.08      0.00
  -17   -3    4     -0.19      0.00
   -5   -3    4      7.80      0.00
   14   -3    4      0.44      0.00
   15   -3    4      0.02      0.00
  -17   -2    4     -0.12      0.00
   -4   -2    4     -7.70      0.00
    1   -2    4     -9.62      0.00
   15   -2    4     -0.34      0.00
  -17   -1    4      0.13      0.00
  -16   -1    4     -0.52      0.00
    0   -1    4     -3.27      0.00
   15   -1    4      0.74      0.00
   16   -1    4      0.07      0.00
  -16    0    4      0.13      0.00
   -3    0    4     -5.06      0.00
   -2    0    4     -1.70      0.00
   -1    0    4      4.80      0.00
    1    0    4      0.92      0.00
   16    0    4     -0.51      0.00
  -16    1    4      0.22      0.00
  -15    1    4     -0.49      0.00
    0    1    4     -5.46      0.00
   16    1    4      1.09      0.00
   17    1    4      0.15      0.00
  -15    2    4      0.00      0.00
    1    2    4      2.82      0.00
    2    2    4     -3.97      0.00
    3    2    4     -5.02      0.00
    4    2    4      2.77      0.00
   17    2    4     -0.69      0.00
  -15    3    4      0.29      0.00
  -14    3    4     -0.56      0.00
    2    3    4      1.69      0.00
    3    3    4      8.79      0.00
    4    3    4      6.21      0.00
   17    3    4      0.68      0.00
  -14    4    4      0.06      0.00
   -3    4    4     -0.09      0.00
   -1    4    4     -2.72      0.00
    0    4    4      0.80      0.00
    3    4    4     -5.80      0.00
   17    4    4      0.10      0.00
  -14    5    4      0.07      0.00
  -13    5    4     -0.37      0.00
  -13    6    4     -0.01      0.00
  -12    6    4      0.60      0.00
    3    6    4      9.23      0.00
  -12    7    4     -0.07      0.00
  -11    8    4      0.21      0.00
  -11    9    4      0.12      0.00
  -10    9    4     -0.34      0.00
  -10   10    4      0.05      0.00
   -9   10    4      0.39      0.00
   -9   11    4     -0.17      0.00
   -8   11    4     -0.29      0.00
   -8   12    4      0.18      0.00
   -7   12    4      0.12      0.00
   17   12    4      0.23      0.00
   -6   13    4      0.01      0.00
   -5   13    4      0.11      0.00
   17   13    4     -0.12      0.00
   -5   14    4      0.01      0.00
   -4   14    4      0.12      0.00
   17   14    4      0.09      0.00
   -4   15    4     -0.09      0.00
   -3   15    4     -0.18      0.00
   -2   15    4     -0.16      0.00
   16   15    4      0.27      0.00
   17   15    4     -0.02      0.00
   -2   16    4      0.08      0.00
   -1   16    4      0.06      0.00
    0   16    4     -0.18      0.00
   15   16    4     -0.51      0.00
   16   16    4     -0.40      0.00
   17   16    4     -0.11      0.00
    0   17    4      0.05      0.00
    1   17    4      0.24      0.00
    2   17    4      0.10      0.00
   13   17    4     -0.07      0.00
   14   17    4     -0.03      0.00
   15   17    4      0.05      0.00
   16   17    4      0.08      0.00
    2   18    4     -0.28      0.00
    3   18    4     -0.01      0.00
    4   18    4      0.45      0.00
    5   18    4      0.26      0.00
    6   18    4     -0.63      0.00
    7   18    4     -0.97      0.00
    9   18    4      0.71      0.00
   10   18    4      0.92      0.00
   11   18    4      0.56      0.00
   12   18    4      0.27      0.00
   13   18    4      0.21      0.00
   14   18    4      0.13      0.00
  -13  -18    5     -0.14      0.00
  -12  -18    5      0.00      0.00
  -11  -18    5      0.36      0.00
  -10  -18    5      0.27      0.00
   -9  -18    5     -0.39      0.00
   -8  -18    5     -0.85      0.00
   -7  -18    5     -0.73      0.00
   -6  -18    5     -0.25      0.00
   -5  -18    5      0.12      0.00
   -4  -18    5      0.16      0.00
   -3  -18    5      0.13      0.00
  -15  -17    5      0.21      0.00
  -14  -17    5      0.24      0.00
  -13  -17    5      0.30      0.00
  -12  -17    5      0.27      0.00
  -11  -17    5     -0.23      0.00
   -4  -17    5      0.08      0.00
   -3  -17    5      0.11      0.00
   -2  -17    5      0.04      0.00
   -1  -17    5     -0.23      0.00
  -16  -16    5      0.27      0.00
  -15  -16    5      0.09      0.00
  -14  -16    5     -0.02      0.00
   -1  -16    5     -0.35      0.00
    0  -16    5      0.19      0.00
    1  -16    5      0.43      0.00
  -17  -15    5      0.28      0.00
  -16  -15    5     -0.11      0.00
  -15  -15    5     -0.27      0.00
    1  -15    5     -0.07      0.00
    2  -15    5     -0.33      0.00
    3  -15    5      0.06      0.00
  -17  -14    5     -0.40      0.00
  -16  -14    5     -0.17      0.00
    3  -14    5      0.02      0.00
    4  -14    5     -0.40      0.00
  -17  -13    5      0.37      0.00
  -16  -13    5      0.34      0.00
    5  -13    5      0.43      0.00
    6  -13    5      0.26      0.00
  -17  -12    5     -0.51      0.00
    6  -12    5     -0.20      0.00
    7  -12    5     -0.10      0.00
  -17  -11    5      0.68      0.00
    7  -11    5      0.04      0.00
    8  -11    5      0.05      0.00
  -17  -10    5     -0.60      0.00
    8  -10    5     -0.07      0.00
    9  -10    5     -0.03      0.00
    9   -9    5      0.12      0.00
   10   -9    5     -0.03      0.00
   10   -8    5     -0.08      0.00
   11   -8    5      0.04      0.00
   11   -7    5     -0.03      0.00
   12   -7    5     -0.01      0.00
   12   -6    5      0.14      0.00
   13   -6    5      0.00      0.00
  -17   -5    5      0.14      0.00
   13   -5    5     -0.17      0.00
  -17   -4    5     -0.22      0.00
   13   -4    5      0.45      0.00
   14   -4    5      0.11      0.00
  -17   -3    5      0.04      0.00
   -7   -3    5      3.02      0.00
    1   -3    5     -4.40      0.00
   14   -3    5     -0.36      0.00
   15   -3    5      0.03      0.00
  -17   -2    5      0.08      0.00
   15   -2    5      0.23      0.00
  -17   -1    5     -0.09      0.00
  -16   -1    5      0.54      0.00
    0   -1    5     -0.92      0.00
   15   -1    5     -0.72      0.00
   16   -1    5     -0.01      0.00
  -16    0    5     -0.22      0.00
   -3    0    5      1.72      0.00
   -2    0    5      0.55      0.00
   -1    0    5     -1.68      0.00
    2    0    5      0.04      0.00
   16    0    5      0.53      0.00
  -16    1    5     -0.21      0.00
  -15    1    5      0.65      0.00
   -3    1    5      1.64      0.00
   16    1    5     -1.17      0.00
   17    1    5     -0.22      0.00
  -15    2    5     -0.08      0.00
    2    2    5      7.13      0.00
    3    2    5      5.98      0.00
   17    2    5      0.72      0.00
  -15    3    5     -0.27      0.00
  -14    3    5      0.62      0.00
   -1    3    5      2.64      0.00
    2    3    5     -3.80      0.00
    3    3    5     -9.84      0.00
   17    3    5     -0.71      0.00
  -14    4    5     -0.02      0.00
    1    4    5     -8.58      0.00
    3    4    5      6.52      0.00
   17    4    5      0.09      0.00
  -14    5    5     -0.16      0.00
  -13    5    5      0.37      0.00
    2    5    5      9.22      0.00
   17    5    5      0.44      0.00
  -13    6    5      0.00      0.00
  -12    6    5     -0.72      0.00
   -1    6    5      5.06      0.00
  -12    7    5      0.20      0.00
  -11    8    5     -0.30      0.00
  -10    9    5      0.29      0.00
  -10   10    5      0.02      0.00
   -9   10    5     -0.23      0.00
   -9   11    5      0.10      0.00
   -8   11    5      0.15      0.00
   -7   12    5      0.00      0.00
   17   12    5      0.25      0.00
   -6   13    5     -0.10      0.00
   -5   13    5     -0.21      0.00
   17   13    5      0.02      0.00
   -5   14    5      0.05      0.00
   -4   14    5      0.06      0.00
   16   14    5     -0.34      0.00
   17   14    5     -0.13      0.00
   -4   15    5      0.11      0.00
   -3   15    5     -0.01      0.00
   -2   15    5     -0.15      0.00
   16   15    5     -0.31      0.00
   17   15    5     -0.06      0.00
   -2   16    5      0.04      0.00
   -1   16    5      0.15      0.00
    0   16    5      0.27      0.00
   15   16    5      0.75      0.00
   16   16    5      0.45      0.00
    0   17    5     -0.06      0.00
    1   17    5     -0.22      0.00
    2   17    5      0.03      0.00
   13   17    5      0.37      0.00
   14   17    5      0.00      0.00
   15   17    5     -0.29      0.00
   16   17    5     -0.21      0.00
    2   18    5      0.26      0.00
    3   18    5      0.05      0.00
    4   18    5     -0.46      0.00
    5   18    5     -0.33      0.00
    6   18    5      0.53      0.00
    7   18    5      0.88      0.00
    8   18    5      0.19      0.00
    9   18    5     -0.58      0.00
   10   18    5     -0.63      0.00
   11   18    5     -0.26      0.00
   12   18    5     -0.23      0.00
   13   18    5     -0.42      0.00
   14   18    5     -0.25      0.00
  -13  -18    6      0.05      0.00
  -12  -18    6     -0.03      0.00
  -11  -18    6     -0.27      0.00
  -10  -18    6     -0.11      0.00
   -9  -18    6      0.41      0.00
   -8  -18    6      0.58      0.00
   -7  -18    6      0.32      0.00
   -6  -18    6     -0.05      0.00
   -5  -18    6     -0.27      0.00
   -4  -18    6     -0.24      0.00
  -14  -17    6     -0.20      0.00
  -13  -17    6     -0.31      0.00
  -12  -17    6     -0.33      0.00
  -11  -17    6      0.08      0.00
  -10  -17    6      0.29      0.00
   -5  -17    6     -0.11      0.00
   -4  -17    6      0.03      0.00
   -3  -17    6     -0.01      0.00
   -2  -17    6      0.08      0.00
   -1  -17    6      0.32      0.00
  -15  -16    6     -0.16      0.00
  -14  -16    6     -0.03      0.00
  -13  -16    6      0.17      0.00
   -1  -16    6      0.14      0.00
    0  -16    6     -0.36      0.00
    1  -16    6     -0.42      0.00
  -16  -15    6      0.22      0.00
  -15  -15    6      0.30      0.00
    1  -15    6      0.31      0.00
    2  -15    6      0.35      0.00
    3  -15    6     -0.12      0.00
  -17  -14    6      0.30      0.00
  -16  -14    6     -0.04      0.00
    3  -14    6     -0.14      0.00
    4  -14    6      0.34      0.00
  -17  -13    6     -0.38      0.00
  -16  -13    6     -0.10      0.00
    4  -13    6     -0.09      0.00
    5  -13    6     -0.36      0.00
  -17  -12    6      0.42      0.00
    6  -12    6      0.26      0.00
    7  -12    6      0.14      0.00
  -17  -11    6     -0.35      0.00
    7  -11    6     -0.20      0.00
    8  -11    6     -0.09      0.00
  -17  -10    6      0.21      0.00
    8  -10    6      0.11      0.00
    9  -10    6     -0.05      0.00
  -17   -9    6      0.02      0.00
    9   -9    6      0.05      0.00
   10   -9    6      0.19      0.00
  -17   -8    6     -0.41      0.00
   10   -8    6     -0.20      0.00
   11   -8    6     -0.15      0.00
  -17   -7    6      0.61      0.00
   11   -7    6      0.28      0.00
   12   -7    6      0.05      0.00
  -17   -6    6     -0.38      0.00
   12   -6    6     -0.36      0.00
  -17   -5    6      0.12      0.00
   -4   -5    6     -2.37      0.00
   13   -5    6      0.39      0.00
  -17   -4    6     -0.03      0.00
   13   -4    6     -0.60      0.00
   14   -4    6     -0.25      0.00
  -17   -3    6     -0.09      0.00
   14   -3    6      0.39      0.00
  -17   -2    6      0.18      0.00
  -16   -2    6      0.48      0.00
   -5   -2    6     -1.79      0.00
   -3   -2    6     -5.99      0.00
   -2   -2    6     -2.37      0.00
   14   -2    6     -0.49      0.00
   15   -2    6     -0.15      0.00
  -17   -1    6     -0.08      0.00
  -16   -1    6     -0.67      0.00
   -3   -1    6      4.40      0.00
   15   -1    6      0.61      0.00
   16   -1    6     -0.02      0.00
  -16    0    6      0.27      0.00
   -4    0    6      3.73      0.00
   -3    0    6      0.21      0.00
   -2    0    6     -0.39      0.00
   16    0    6     -0.45      0.00
  -16    1    6      0.23      0.00
  -15    1    6     -0.52      0.00
   -5    1    6     -4.37      0.00
   16    1    6      1.02      0.00
  -15    2    6      0.01      0.00
   -1    2    6      6.43      0.00
   16    2    6     -0.97      0.00
   17    2    6     -0.62      0.00
  -15    3    6      0.23      0.00
  -14    3    6     -0.60      0.00
   17    3    6      0.67      0.00
  -14    4    6      0.09      0.00
    1    4    6      9.06      0.00
    2    4    6      2.62      0.00
   17    4    6     -0.27      0.00
  -13    5    6     -0.44      0.00
   -2    5    6      4.47      0.00
    3    5    6     -0.21      0.00
   17    5    6     -0.24      0.00
  -13    6    6     -0.03      0.00
  -12    6    6      0.69      0.00
   17    6    6      0.60      0.00
  -12    7    6     -0.11      0.00
  -11    7    6     -0.76      0.00
  -11    8    6      0.19      0.00
  -10    9    6     -0.21      0.00
   -9   10    6      0.16      0.00
   -8   11    6     -0.04      0.00
   17   11    6      0.73      0.00
   -7   12    6     -0.13      0.00
   -6   12    6     -0.38      0.00
   17   12    6     -0.29      0.00
   -6   13    6      0.19      0.00
   -5   13    6      0.29      0.00
   17   13    6     -0.20      0.00
   -5   14    6     -0.03      0.00
   -4   14    6     -0.10      0.00
   16   14    6      0.42      0.00
   17   14    6      0.20      0.00
   -4   15    6     -0.19      0.00
   -3   15    6     -0.01      0.00
   -2   15    6      0.23      0.00
   15   15    6      1.08      0.00
   16   15    6      0.35      0.00
   17   15    6      0.13      0.00
   -2   16    6      0.03      0.00
   -1   16    6     -0.17      0.00
    0   16    6     -0.35      0.00
   14   16    6     -0.73      0.00
   15   16    6     -0.99      0.00
   16   16    6     -0.53      0.00
    0   17    6      0.08      0.00
    1   17    6      0.38      0.00
    2   17    6      0.21      0.00
    3   17    6     -0.59      0.00
   13   17    6     -0.68      0.00
   14   17    6      0.00      0.00
   15   17    6      0.51      0.00
    2   18    6     -0.47      0.00
    3   18    6     -0.39      0.00
    4   18    6      0.14      0.00
    5   18    6      0.21      0.00
    6   18    6     -0.33      0.00
    7   18    6     -0.39      0.00
    8   18    6      0.29      0.00
    9   18    6      0.82      0.00
   10   18    6      0.60      0.00
   11   18    6      0.15      0.00
   12   18    6      0.25      0.00
   13   18    6      0.56      0.00
   14   18    6      0.31      0.00
  -12  -18    7     -0.03      0.00
  -11  -18    7      0.13      0.00
  -10  -18    7     -0.09      0.00
   -9  -18    7     -0.44      0.00
   -8  -18    7     -0.38      0.00
   -7  -18    7     -0.11      0.00
   -6  -18    7      0.10      0.00
   -5  -18    7      0.26      0.00
  -14  -17    7      0.22      0.00
  -13  -17    7      0.46      0.00
  -12  -17    7      0.49      0.00
  -11  -17    7      0.17      0.00
  -10  -17    7      0.17      0.00
   -9  -17    7      0.77      0.00
   -8  -17    7      1.00      0.00
   -7  -17    7      0.57      0.00
   -6  -17    7      0.16      0.00
   -5  -17    7     -0.01      0.00
   -4  -17    7     -0.11      0.00
   -3  -17    7     -0.10      0.00
   -2  -17    7     -0.17      0.00
  -15  -16    7      0.28      0.00
  -14  -16    7      0.03      0.00
  -13  -16    7     -0.27      0.00
  -12  -16    7     -0.57      0.00
   -2  -16    7     -0.23      0.00
   -1  -16    7      0.11      0.00
    0  -16    7      0.53      0.00
  -16  -15    7     -0.43      0.00
  -15  -15    7     -0.40      0.00
  -14  -15    7     -0.17      0.00
    0  -15    7      0.05      0.00
    1  -15    7     -0.60      0.00
    2  -15    7     -0.42      0.00
  -17  -14    7     -0.06      0.00
  -16  -14    7      0.26      0.00
  -15  -14    7      0.46      0.00
    2  -14    7      0.47      0.00
    3  -14    7      0.14      0.00
    4  -14    7     -0.34      0.00
  -17  -13    7      0.29      0.00
  -16  -13    7      0.01      0.00
    4  -13    7      0.17      0.00
    5  -13    7      0.40      0.00
  -17  -12    7     -0.36      0.00
  -16  -12    7     -0.29      0.00
    5  -12    7     -0.28      0.00
    6  -12    7     -0.28      0.00
  -17  -11    7      0.27      0.00
    7  -11    7      0.14      0.00
    8  -11    7      0.05      0.00
  -17  -10    7     -0.15      0.00
    8  -10    7     -0.02      0.00
    9  -10    7      0.04      0.00
  -17   -9    7     -0.06      0.00
    9   -9    7     -0.12      0.00
   10   -9    7     -0.14      0.00
  -17   -8    7      0.39      0.00
   10   -8    7      0.31      0.00
   11   -8    7      0.17      0.00
  -17   -7    7     -0.52      0.00
   11   -7    7     -0.51      0.00
  -17   -6    7      0.38      0.00
  -14   -6    7     -1.12      0.00
   -8   -6    7      2.73      0.00
   12   -6    7      0.65      0.00
  -17   -5    7     -0.26      0.00
   12   -5    7     -0.84      0.00
   13   -5    7     -0.58      0.00
  -17   -4    7      0.06      0.00
   13   -4    7      0.60      0.00
   14   -4    7      0.25      0.00
  -17   -3    7      0.20      0.00
   -5   -3    7     -5.97      0.00
   14   -3    7     -0.26      0.00
  -17   -2    7     -0.15      0.00
  -16   -2    7     -0.29      0.00
   14   -2    7      0.30      0.00
   15   -2    7      0.02      0.00
  -16   -1    7      0.37      0.00
   -4   -1    7      0.17      0.00
   15   -1    7     -0.43      0.00
  -16    0    7      0.01      0.00
   -5    0    7     -5.83      0.00
   -4    0    7     -4.06      0.00
   -3    0    7     -1.69      0.00
   15    0    7      0.84      0.00
   16    0    7      0.30      0.00
  -16    1    7     -0.26      0.00
  -15    1    7      0.26      0.00
   -4    1    7      3.52      0.00
   -3    1    7      3.59      0.00
   -1    1    7      3.92      0.00
   16    1    7     -0.75      0.00
  -15    2    7     -0.01      0.00
   -3    2    7     -1.18      0.00
   16    2    7      0.83      0.00
   17    2    7      0.46      0.00
  -15    3    7     -0.10      0.00
  -14    3    7      0.51      0.00
    4    3    7     -4.80      0.00
   17    3    7     -0.54      0.00
  -14    4    7     -0.05      0.00
  -13    4    7     -0.94      0.00
   -7    4    7     -0.45      0.00
   -2    4    7      4.40      0.00
   17    4    7      0.27      0.00
  -13    5    7      0.29      0.00
   17    5    7      0.21      0.00
  -13    6    7      0.15      0.00
  -12    6    7     -0.58      0.00
   17    6    7     -0.66      0.00
  -12    7    7      0.11      0.00
  -11    7    7      0.72      0.00
   17    7    7      0.63      0.00
  -11    8    7     -0.25      0.00
  -10    8    7     -0.52      0.00
   17    8    7     -0.06      0.00
  -10    9    7      0.17      0.00
   -9    9    7      0.07      0.00
   17    9    7     -0.56      0.00
   -9   10    7     -0.03      0.00
   -8   10    7      0.29      0.00
   17   10    7      1.02      0.00
   -8   11    7     -0.09      0.00
   -7   11    7     -0.43      0.00
   17   11    7     -1.02      0.00
   -7   12    7      0.20      0.00
   -6   12    7      0.40      0.00
   17   12    7      0.34      0.00
   -6   13    7     -0.21      0.00
   -5   13    7     -0.25      0.00
   16   13    7      1.04      0.00
   17   13    7      0.29      0.00
   -5   14    7      0.04      0.00
   -4   14    7      0.05      0.00
   -3   14    7      0.22      0.00
   16   14    7     -0.35      0.00
   17   14    7     -0.23      0.00
   -3   15    7      0.06      0.00
   -2   15    7     -0.27      0.00
   15   15    7     -1.18      0.00
   16   15    7     -0.33      0.00
   17   15    7     -0.06      0.00
   -2   16    7     -0.06      0.00
   -1   16    7      0.25      0.00
    0   16    7      0.58      0.00
   14   16    7      0.80      0.00
   15   16    7      1.05      0.00
   16   16    7      0.49      0.00
    0   17    7     -0.11      0.00
    1   17    7     -0.48      0.00
    2   17    7     -0.33      0.00
    3   17    7      0.50      0.00
   12   17    7      0.45      0.00
   13   17    7      0.72      0.00
   14   17    7      0.03      0.00
   15   17    7     -0.53      0.00
    2   18    7      0.43      0.00
    3   18    7      0.39      0.00
    4   18    7     -0.06      0.00
    5   18    7     -0.18      0.00
    6   18    7      0.04      0.00
    7   18    7     -0.15      0.00
    8   18    7     -0.64      0.00
    9   18    7     -0.71      0.00
   10   18    7     -0.23      0.00
   11   18    7      0.14      0.00
   12   18    7     -0.12      0.00
   13   18    7     -0.49      0.00
   14   18    7     -0.25      0.00
  -11  -18    8      0.05      0.00
  -10  -18    8      0.24      0.00
   -9  -18    8      0.36      0.00
   -8  -18    8      0.09      0.00
   -7  -18    8     -0.12      0.00
   -6  -18    8     -0.17      0.00
  -13  -17    8     -0.58      0.00
  -12  -17    8     -0.63      0.00
  -11  -17    8     -0.37      0.00
  -10  -17    8     -0.51      0.00
   -9  -17    8     -1.05      0.00
   -8  -17    8     -0.93      0.00
   -7  -17    8     -0.22      0.00
   -6  -17    8      0.14      0.00
   -5  -17    8      0.11      0.00
   -4  -17    8      0.14      0.00
   -3  -17    8      0.14      0.00
   -2  -17    8      0.12      0.00
  -15  -16    8     -0.29      0.00
  -14  -16    8     -0.03      0.00
  -13  -16    8      0.32      0.00
  -12  -16    8      0.52      0.00
   -3  -16    8      0.19      0.00
   -2  -16    8      0.14      0.00
   -1  -16    8     -0.17      0.00
    0  -16    8     -0.50      0.00
  -16  -15    8      0.35      0.00
  -15  -15    8      0.39      0.00
  -14  -15    8      0.17      0.00
  -13  -15    8     -0.12      0.00
    0  -15    8      0.15      0.00
    1  -15    8      0.56      0.00
    2  -15    8      0.25      0.00
  -16  -14    8     -0.18      0.00
  -15  -14    8     -0.45      0.00
    2  -14    8     -0.39      0.00
    3  -14    8      0.03      0.00
  -17  -13    8     -0.27      0.00
  -16  -13    8      0.00      0.00
  -15  -13    8      0.37      0.00
    4  -13    8     -0.24      0.00
    5  -13    8     -0.33      0.00
  -17  -12    8      0.21      0.00
  -16  -12    8      0.12      0.00
    5  -12    8      0.27      0.00
    6  -12    8      0.22      0.00
  -17  -11    8     -0.02      0.00
  -16  -11    8     -0.24      0.00
    6  -11    8     -0.17      0.00
    7  -11    8     -0.13      0.00
  -17  -10    8     -0.11      0.00
    7  -10    8     -0.01      0.00
    8  -10    8     -0.04      0.00
  -17   -9    8      0.22      0.00
    9   -9    8      0.27      0.00
  -17   -8    8     -0.36      0.00
   10   -8    8     -0.43      0.00
  -17   -7    8      0.41      0.00
   10   -7    8      0.54      0.00
   11   -7    8      0.47      0.00
  -17   -6    8     -0.42      0.00
   -5   -6    8      2.79      0.00
   11   -6    8     -0.59      0.00
   12   -6    8     -0.48      0.00
  -17   -5    8      0.38      0.00
   12   -5    8      0.58      0.00
   13   -5    8      0.39      0.00
  -17   -4    8     -0.03      0.00
   13   -4    8     -0.44      0.00
  -17   -3    8     -0.23      0.00
  -16   -3    8      0.32      0.00
   13   -3    8      0.04      0.00
   14   -3    8      0.18      0.00
  -17   -2    8     -0.01      0.00
  -16   -2    8      0.26      0.00
   -3   -2    8     -4.98      0.00
   14   -2    8     -0.22      0.00
   15   -2    8      0.05      0.00
  -16   -1    8     -0.14      0.00
   -5   -1    8     -4.44      0.00
   -4   -1    8     -1.26      0.00
   15   -1    8      0.26      0.00
  -16    0    8     -0.16      0.00
  -15    0    8      0.11      0.00
   -5    0    8      3.47      0.00
   -4    0    8      2.76      0.00
   -3    0    8      1.99      0.00
   15    0    8     -0.55      0.00
   16    0    8     -0.13      0.00
  -15    1    8      0.00      0.00
   -4    1    8     -1.26      0.00
   -3    1    8     -1.93      0.00
   16    1    8      0.45      0.00
  -15    2    8     -0.05      0.00
  -14    2    8      0.30      0.00
   -2    2    8      2.26      0.00
   16    2    8     -0.56      0.00
  -14    3    8     -0.31      0.00
   -3    3    8      2.34      0.00
   -2    3    8      1.65      0.00
   16    3    8      0.34      0.00
   17    3    8      0.34      0.00
  -14    4    8      0.00      0.00
  -13    4    8      0.71      0.00
   17    4    8     -0.16      0.00
  -13    5    8     -0.20      0.00
   17    5    8     -0.16      0.00
  -12    6    8      0.37      0.00
   17    6    8      0.56      0.00
  -12    7    8     -0.03      0.00
  -11    7    8     -0.39      0.00
   17    7    8     -0.66      0.00
  -11    8    8      0.10      0.00
  -10    8    8      0.17      0.00
   17    8    8      0.26      0.00
  -10    9    8     -0.05      0.00
   -9    9    8      0.16      0.00
   17    9    8      0.49      0.00
   -9   10    8     -0.02      0.00
   -8   10    8     -0.36      0.00
   17   10    8     -1.12      0.00
   -8   11    8      0.09      0.00
   -7   11    8      0.36      0.00
   17   11    8      0.94      0.00
   -7   12    8     -0.18      0.00
   -6   12    8     -0.26      0.00
   17   12    8     -0.06      0.00
   -6   13    8      0.20      0.00
   -5   13    8      0.11      0.00
   16   13    8     -1.12      0.00
   17   13    8     -0.46      0.00
   -5   14    8     -0.05      0.00
   -4   14    8      0.05      0.00
   -3   14    8     -0.16      0.00
   16   14    8      0.47      0.00
   17   14    8      0.29      0.00
   -3   15    8     -0.15      0.00
   -2   15    8      0.20      0.00
   -1   15    8      0.70      0.00
   15   15    8      0.97      0.00
   16   15    8      0.17      0.00
   -1   16    8     -0.16      0.00
    0   16    8     -0.52      0.00
    1   16    8     -0.30      0.00
   14   16    8     -0.57      0.00
   15   16    8     -0.86      0.00
   16   16    8     -0.37      0.00
    0   17    8      0.07      0.00
    1   17    8      0.43      0.00
    2   17    8      0.35      0.00
    3   17    8     -0.22      0.00
    4   17    8     -0.43      0.00
   11   17    8      0.37      0.00
   12   17    8     -0.52      0.00
   13   17    8     -0.71      0.00
   14   17    8     -0.10      0.00
   15   17    8      0.39      0.00
    3   18    8     -0.45      0.00
    4   18    8     -0.26      0.00
    5   18    8     -0.23      0.00
    6   18    8     -0.12      0.00
    7   18    8      0.44      0.00
    8   18    8      0.84      0.00
    9   18    8      0.54      0.00
   10   18    8     -0.03      0.00
   11   18    8     -0.21      0.00
   12   18    8      0.16      0.00
   13   18    8      0.44      0.00
  -12  -17    9      0.55      0.00
  -11  -17    9      0.40      0.00
  -10  -17    9      0.62      0.00
   -9  -17    9      1.08      0.00
   -8  -17    9      0.79      0.00
   -7  -17    9      0.00      0.00
   -6  -17    9     -0.27      0.00
   -5  -17    9     -0.11      0.00
   -4  -17    9     -0.10      0.00
   -3  -17    9     -0.11      0.00
  -14  -16    9      0.17      0.00
  -13  -16    9     -0.15      0.00
  -12  -16    9     -0.29      0.00
  -11  -16    9     -0.15      0.00
  -10  -16    9     -0.41      0.00
   -5  -16    9      0.43      0.00
   -4  -16    9      0.12      0.00
   -3  -16    9     -0.15      0.00
   -2  -16    9     -0.11      0.00
   -1  -16    9      0.12      0.00
  -15  -15    9     -0.44      0.00
  -14  -15    9     -0.37      0.00
  -13  -15    9     -0.02      0.00
   -1  -15    9      0.28      0.00
    0  -15    9     -0.31      0.00
    1  -15    9     -0.50      0.00
  -16  -14    9      0.10      0.00
  -15  -14    9      0.36      0.00
  -14  -14    9      0.57      0.00
    1  -14    9      0.47      0.00
    2  -14    9      0.37      0.00
    3  -14    9     -0.12      0.00
  -16  -13    9      0.00      0.00
  -15  -13    9     -0.16      0.00
    3  -13    9     -0.13      0.00
    4  -13    9      0.39      0.00
  -17  -12    9      0.00      0.00
  -16  -12    9     -0.07      0.00
    5  -12    9     -0.42      0.00
    6  -12    9     -0.29      0.00
  -17  -11    9     -0.04      0.00
  -16  -11    9      0.29      0.00
    6  -11    9      0.19      0.00
    7  -11    9      0.09      0.00
  -17  -10    9      0.04      0.00
  -16  -10    9     -0.45      0.00
   -8  -10    9     -0.80      0.00
    7  -10    9      0.16      0.00
    8  -10    9      0.15      0.00
  -17   -9    9     -0.07      0.00
    8   -9    9     -0.42      0.00
    9   -9    9     -0.29      0.00
  -17   -8    9      0.13      0.00
    9   -8    9      0.46      0.00
   10   -8    9      0.25      0.00
  -17   -7    9     -0.20      0.00
   10   -7    9     -0.40      0.00
   11   -7    9     -0.20      0.00
  -17   -6    9      0.33      0.00
   11   -6    9      0.44      0.00
   12   -6    9      0.26      0.00
  -17   -5    9     -0.19      0.00
   12   -5    9     -0.51      0.00
  -17   -4    9     -0.32      0.00
  -16   -4    9      0.56      0.00
   12   -4    9      0.00      0.00
   13   -4    9      0.40      0.00
  -17   -3    9      0.38      0.00
  -16   -3    9     -0.01      0.00
   13   -3    9     -0.03      0.00
   14   -3    9     -0.08      0.00
  -16   -2    9     -0.23      0.00
   14   -2    9      0.07      0.00
  -16   -1    9     -0.15      0.00
  -15   -1    9     -0.06      0.00
   -6   -1    9      2.57      0.00
   -5   -1    9      2.31      0.00
   -4   -1    9      1.12      0.00
   14   -1    9      0.08      0.00
   15   -1    9     -0.04      0.00
  -16    0    9      0.32      0.00
  -15    0    9      0.18      0.00
   -6    0    9     -0.43      0.00
   -5    0    9     -1.16      0.00
   -4    0    9     -0.69      0.00
   -3    0    9     -1.46      0.00
   15    0    9      0.27      0.00
  -15    1    9     -0.15      0.00
   -6    1    9     -0.77      0.00
   -5    1    9      0.09      0.00
   -4    1    9     -0.41      0.00
   -3    1    9      0.10      0.00
   15    1    9     -0.31      0.00
   16    1    9     -0.23      0.00
  -15    2    9      0.07      0.00
  -14    2    9     -0.11      0.00
   -3    2    9      1.47      0.00
   16    2    9      0.35      0.00
  -14    3    9      0.12      0.00
   -2    3    9     -1.90      0.00
   16    3    9     -0.31      0.00
   17    3    9     -0.24      0.00
  -14    4    9      0.13      0.00
  -13    4    9     -0.25      0.00
   16    4    9      0.06      0.00
   17    4    9      0.13      0.00
  -13    5    9     -0.11      0.00
  -12    5    9      0.25      0.00
   17    5    9      0.06      0.00
  -12    6    9     -0.03      0.00
   17    6    9     -0.46      0.00
  -11    7    9      0.16      0.00
   17    7    9      0.72      0.00
  -11    8    9     -0.13      0.00
  -10    8    9     -0.08      0.00
   17    8    9     -0.41      0.00
  -10    9    9      0.09      0.00
   -9    9    9     -0.16      0.00
   17    9    9     -0.38      0.00
   -9   10    9      0.02      0.00
   -8   10    9      0.31      0.00
   17   10    9      0.95      0.00
   -8   11    9     -0.12      0.00
   -7   11    9     -0.24      0.00
   17   11    9     -0.65      0.00
   -7   12    9      0.20      0.00
   -6   12    9      0.10      0.00
   16   12    9     -0.84      0.00
   17   12    9     -0.08      0.00
   -6   13    9     -0.19      0.00
   -5   13    9      0.04      0.00
   -4   13    9      0.12      0.00
   16   13    9      0.92      0.00
   17   13    9      0.34      0.00
   -4   14    9     -0.18      0.00
   -3   14    9      0.01      0.00
   15   14    9      0.14      0.00
   16   14    9     -0.41      0.00
   17   14    9     -0.16      0.00
   -3   15    9      0.24      0.00
   -2   15    9     -0.12      0.00
   -1   15    9     -0.64      0.00
   14   15    9     -1.31      0.00
   15   15    9     -0.83      0.00
   16   15    9     -0.07      0.00
   -1   16    9      0.19      0.00
    0   16    9      0.52      0.00
    1   16    9      0.34      0.00
   13   16    9     -0.48      0.00
   14   16    9      0.46      0.00
   15   16    9      0.65      0.00
    1   17    9     -0.38      0.00
    2   17    9     -0.28      0.00
    3   17    9      0.06      0.00
    4   17    9      0.15      0.00
    5   17    9      0.12      0.00
   10   17    9     -0.82      0.00
   11   17    9     -0.35      0.00
   12   17    9      0.44      0.00
   13   17    9      0.50      0.00
   14   17    9      0.01      0.00
    3   18    9      0.21      0.00
    4   18    9      0.17      0.00
    5   18    9      0.26      0.00
    6   18    9     -0.03      0.00
    7   18    9     -0.75      0.00
    8   18    9     -0.94      0.00
    9   18    9     -0.30      0.00
   10   18    9      0.33      0.00
   11   18    9      0.34      0.00
   12   18    9     -0.10      0.00
   13   18    9     -0.25      0.00
  -11  -17   10     -0.29      0.00
  -10  -17   10     -0.49      0.00
   -9  -17   10     -0.79      0.00
   -8  -17   10     -0.42      0.00
   -7  -17   10      0.32      0.00
   -6  -17   10      0.51      0.00
   -5  -17   10      0.24      0.00
   -4  -17   10      0.13      0.00
  -13  -16   10     -0.15      0.00
  -12  -16   10     -0.04      0.00
  -11  -16   10     -0.08      0.00
  -10  -16   10      0.25      0.00
   -9  -16   10      1.24      0.00
   -8  -16   10      1.86      0.00
   -7  -16   10      1.15      0.00
   -6  -16   10     -0.10      0.00
   -5  -16   10     -0.61      0.00
   -4  -16   10     -0.31      0.00
   -3  -16   10      0.01      0.00
   -2  -16   10      0.03      0.00
   -1  -16   10     -0.11      0.00
  -15  -15   10      0.31      0.00
  -14  -15   10      0.54      0.00
  -13  -15   10      0.36      0.00
  -12  -15   10      0.32      0.00
   -2  -15   10     -0.21      0.00
   -1  -15   10     -0.01      0.00
    0  -15   10      0.38      0.00
    1  -15   10      0.34      0.00
  -15  -14   10     -0.05      0.00
  -14  -14   10     -0.67      0.00
  -13  -14   10     -0.77      0.00
    1  -14   10     -0.58      0.00
    2  -14   10     -0.18      0.00
  -16  -13   10     -0.15      0.00
  -15  -13   10     -0.15      0.00
  -14  -13   10      0.30      0.00
    2  -13   10      0.70      0.00
    3  -13   10      0.02      0.00
    4  -13   10     -0.46      0.00
  -16  -12   10      0.06      0.00
  -15  -12   10     -0.04      0.00
    4  -12   10     -0.09      0.00
    5  -12   10      0.38      0.00
  -17  -11   10      0.03      0.00
  -16  -11   10     -0.21      0.00
    5  -11   10      0.31      0.00
    6  -11   10     -0.13      0.00
    7  -11   10     -0.09      0.00
  -17  -10   10     -0.11      0.00
  -16  -10   10      0.27      0.00
    7  -10   10     -0.20      0.00
    8  -10   10     -0.15      0.00
  -17   -9   10      0.15      0.00
  -16   -9   10      0.01      0.00
    8   -9   10      0.51      0.00
    9   -9   10      0.29      0.00
  -17   -8   10     -0.07      0.00
  -16   -8   10     -0.18      0.00
   -9   -8   10      1.38      0.00
    9   -8   10     -0.61      0.00
   10   -8   10     -0.23      0.00
  -17   -7   10      0.05      0.00
  -16   -7   10     -0.10      0.00
   10   -7   10      0.50      0.00
   11   -7   10      0.10      0.00
  -17   -6   10     -0.16      0.00
  -16   -6   10      0.18      0.00
   11   -6   10     -0.39      0.00
  -17   -5   10     -0.08      0.00
  -16   -5   10      0.26      0.00
   11   -5   10     -0.01      0.00
   12   -5   10      0.37      0.00
  -17   -4   10      0.53      0.00
  -16   -4   10     -0.30      0.00
   12   -4   10      0.00      0.00
   13   -4   10     -0.26      0.00
  -16   -3   10     -0.21      0.00
   13   -3   10      0.01      0.00
  -16   -2   10      0.21      0.00
   -7   -2   10      1.60      0.00
   -6   -2   10      1.71      0.00
   -5   -2   10      1.23      0.00
   13   -2   10      0.63      0.00
   14   -2   10      0.00      0.00
  -16   -1   10      0.14      0.00
  -15   -1   10     -0.02      0.00
   -8   -1   10      1.11      0.00
   -7   -1   10     -0.48      0.00
   -6   -1   10     -1.22      0.00
   -5   -1   10     -0.59      0.00
   -4   -1   10     -0.69      0.00
   14   -1   10     -0.06      0.00
   15   -1   10     -0.04      0.00
  -15    0   10     -0.06      0.00
   -8    0   10     -0.94      0.00
   -7    0   10     -0.67      0.00
   -6    0   10      0.39      0.00
   -5    0   10     -0.01      0.00
   -4    0   10     -0.76      0.00
   -3    0   10      0.55      0.00
   15    0   10     -0.21      0.00
  -15    1   10      0.04      0.00
  -14    1   10      0.20      0.00
   -7    1   10      0.64      0.00
   -6    1   10      0.08      0.00
   -5    1   10     -0.01      0.00
   -4    1   10      1.18      0.00
   -3    1   10      1.31      0.00
   15    1   10      0.25      0.00
   16    1   10      0.15      0.00
  -14    2   10     -0.01      0.00
   -5    2   10      0.61      0.00
   -4    2   10     -0.37      0.00
   -3    2   10     -1.74      0.00
   15    2   10     -0.32      0.00
   16    2   10     -0.21      0.00
  -14    3   10      0.12      0.00
  -13    3   10     -0.05      0.00
   16    3   10      0.27      0.00
  -13    4   10     -0.06      0.00
   16    4   10     -0.16      0.00
   17    4   10     -0.06      0.00
  -13    5   10      0.14      0.00
  -12    5   10      0.06      0.00
   16    5   10     -0.50      0.00
   17    5   10     -0.05      0.00
  -12    6   10     -0.03      0.00
  -11    6   10     -0.14      0.00
   16    6   10      1.11      0.00
   17    6   10      0.43      0.00
  -11    7   10     -0.02      0.00
   17    7   10     -0.65      0.00
  -10    8   10     -0.06      0.00
   17    8   10      0.24      0.00
  -10    9   10      0.04      0.00
   -9    9   10      0.20      0.00
   17    9   10      0.50      0.00
   -9   10   10     -0.11      0.00
   -8   10   10     -0.22      0.00
   16   10   10     -1.29      0.00
   17   10   10     -0.78      0.00
   -8   11   10      0.16      0.00
   -7   11   10      0.07      0.00
   16   11   10      0.16      0.00
   17   11   10      0.34      0.00
   -6   12   10      0.11      0.00
   -5   12   10      0.55      0.00
   16   12   10      0.66      0.00
   17   12   10      0.15      0.00
   -5   13   10     -0.20      0.00
   -4   13   10     -0.31      0.00
   15   13   10     -1.04      0.00
   16   13   10     -0.75      0.00
   17   13   10     -0.19      0.00
   -4   14   10      0.24      0.00
   -3   14   10      0.02      0.00
   -2   14   10     -0.67      0.00
   15   14   10      0.02      0.00
   16   14   10      0.45      0.00
   -2   15   10      0.13      0.00
   -1   15   10      0.57      0.00
   14   15   10      1.04      0.00
   15   15   10      0.51      0.00
   16   15   10     -0.12      0.00
   -1   16   10     -0.13      0.00
    0   16   10     -0.33      0.00
    1   16   10     -0.07      0.00
    2   16   10      0.40      0.00
   12   16   10      1.06      0.00
   13   16   10      0.48      0.00
   14   16   10     -0.32      0.00
   15   16   10     -0.38      0.00
    1   17   10      0.15      0.00
    2   17   10      0.01      0.00
    3   17   10     -0.14      0.00
    4   17   10     -0.01      0.00
    5   17   10     -0.03      0.00
    6   17   10     -0.70      0.00
    7   17   10     -1.19      0.00
    8   17   10     -0.50      0.00
    9   17   10      0.66      0.00
   10   17   10      0.98      0.00
   11   17   10      0.25      0.00
   12   17   10     -0.49      0.00
   13   17   10     -0.40      0.00
   14   17   10      0.06      0.00
    4   18   10     -0.14      0.00
    5   18   10     -0.36      0.00
    6   18   10     -0.12      0.00
    7   18   10      0.54      0.00
    8   18   10      0.63      0.00
    9   18   10      0.00      0.00
   10   18   10     -0.48      0.00
   11   18   10     -0.32      0.00
   12   18   10      0.14      0.00
  -10  -17   11      0.38      0.00
   -9  -17   11      0.51      0.00
   -8  -17   11      0.17      0.00
   -7  -17   11     -0.43      0.00
   -6  -17   11     -0.57      0.00
  -13  -16   11      0.34      0.00
  -12  -16   11      0.20      0.00
  -11  -16   11      0.05      0.00
  -10  -16   11     -0.32      0.00
   -9  -16   11     -1.02      0.00
   -8  -16   11     -1.41      0.00
   -7  -16   11     -0.92      0.00
   -6  -16   11      0.06      0.00
   -5  -16   11      0.58      0.00
   -4  -16   11      0.40      0.00
   -3  -16   11      0.09      0.00
   -2  -16   11      0.04      0.00
  -14  -15   11     -0.60      0.00
  -13  -15   11     -0.55      0.00
  -12  -15   11     -0.40      0.00
  -11  -15   11     -0.58      0.00
  -10  -15   11     -0.52      0.00
   -3  -15   11     -0.43      0.00
   -2  -15   11     -0.05      0.00
   -1  -15   11     -0.18      0.00
    0  -15   11     -0.39      0.00
  -15  -14   11     -0.14      0.00
  -14  -14   11      0.61      0.00
  -13  -14   11      0.98      0.00
    0  -14   11      0.52      0.00
    1  -14   11      0.67      0.00
    2  -14   11      0.15      0.00
  -16  -13   11      0.06      0.00
  -15  -13   11      0.34      0.00
  -14  -13   11     -0.10      0.00
    2  -13   11     -0.78      0.00
    3  -13   11     -0.08      0.00
  -16  -12   11      0.05      0.00
  -15  -12   11     -0.13      0.00
    3  -12   11      0.83      0.00
    4  -12   11      0.13      0.00
    5  -12   11     -0.31      0.00
  -16  -11   11      0.13      0.00
  -15  -11   11      0.16      0.00
    5  -11   11     -0.27      0.00
    6  -11   11      0.12      0.00
  -17  -10   11      0.14      0.00
  -16  -10   11     -0.14      0.00
    6  -10   11      0.39      0.00
    7  -10   11      0.24      0.00
  -17   -9   11     -0.09      0.00
  -16   -9   11     -0.16      0.00
    7   -9   11     -0.41      0.00
    8   -9   11     -0.58      0.00
  -17   -8   11     -0.09      0.00
  -16   -8   11      0.23      0.00
    8   -8   11      0.28      0.00
    9   -8   11      0.62      0.00
  -17   -7   11      0.12      0.00
  -16   -7   11      0.10      0.00
    9   -7   11     -0.11      0.00
   10   -7   11     -0.42      0.00
  -17   -6   11     -0.04      0.00
  -16   -6   11     -0.16      0.00
   10   -6   11      0.04      0.00
   11   -6   11      0.31      0.00
  -17   -5   11      0.34      0.00
  -16   -5   11     -0.12      0.00
   11   -5   11     -0.12      0.00
   12   -5   11     -0.36      0.00
  -16   -4   11     -0.08      0.00
   12   -4   11      0.16      0.00
  -16   -3   11      0.47      0.00
  -15   -3   11     -0.18      0.00
   12   -3   11      0.65      0.00
   13   -3   11     -0.07      0.00
  -16   -2   11     -0.33      0.00
  -15   -2   11     -0.06      0.00
   -9   -2   11      1.19      0.00
   -8   -2   11     -0.46      0.00
   -7   -2   11     -1.17      0.00
   -6   -2   11     -0.53      0.00
   -5   -2   11     -0.53      0.00
   13   -2   11     -0.39      0.00
   14   -2   11     -0.05      0.00
  -15   -1   11      0.10      0.00
   -9   -1   11     -0.81      0.00
   -8   -1   11     -0.37      0.00
   -7   -1   11      0.76      0.00
   -6   -1   11      0.51      0.00
   -5   -1   11     -0.53      0.00
   -4   -1   11     -0.16      0.00
   14   -1   11      0.01      0.00
  -15    0   11     -0.18      0.00
  -14    0   11      0.26      0.00
   -9    0   11     -0.10      0.00
   -8    0   11      0.53      0.00
   -7    0   11      0.13      0.00
   -6    0   11     -0.21      0.00
   -5    0   11      0.67      0.00
   -4    0   11      1.59      0.00
   -3    0   11      0.58      0.00
   14    0   11     -0.02      0.00
   15    0   11      0.14      0.00
  -15    1   11      0.11      0.00
  -14    1   11      0.02      0.00
   -9    1   11      0.66      0.00
   -8    1   11      0.08      0.00
   -7    1   11     -0.11      0.00
   -6    1   11      0.13      0.00
   -5    1   11     -0.27      0.00
   -4    1   11     -1.42      0.00
   -3    1   11     -1.91      0.00
   15    1   11     -0.22      0.00
  -14    2   11     -0.04      0.00
   -7    2   11     -0.36      0.00
   -6    2   11     -0.75      0.00
   -5    2   11     -0.69      0.00
   -4    2   11      0.32      0.00
   -3    2   11      1.51      0.00
   15    2   11      0.35      0.00
   16    2   11      0.14      0.00
  -14    3   11     -0.19      0.00
  -13    3   11     -0.10      0.00
   15    3   11     -0.39      0.00
   16    3   11     -0.31      0.00
  -13    4   11      0.23      0.00
  -12    4   11      0.29      0.00
   16    4   11      0.27      0.00
  -12    5   11     -0.32      0.00
   16    5   11      0.39      0.00
   17    5   11      0.00      0.00
  -12    6   11      0.11      0.00
  -11    6   11      0.33      0.00
   16    6   11     -0.91      0.00
   17    6   11     -0.39      0.00
  -11    7   11      0.00      0.00
  -10    7   11     -0.21      0.00
   16    7   11      0.45      0.00
   17    7   11      0.50      0.00
  -10    8   11     -0.05      0.00
   -9    8   11      0.06      0.00
   16    8   11      0.59      0.00
   17    8   11     -0.05      0.00
   -9    9   11     -0.04      0.00
   -8    9   11      0.13      0.00
   16    9   11     -1.14      0.00
   17    9   11     -0.44      0.00
   -8   10   11      0.09      0.00
   -7   10   11     -0.44      0.00
   16   10   11      0.72      0.00
   17   10   11      0.40      0.00
   -7   11   11     -0.01      0.00
   -6   11   11      0.70      0.00
   16   11   11      0.06      0.00
   17   11   11     -0.02      0.00
   -6   12   11     -0.12      0.00
   -5   12   11     -0.61      0.00
   16   12   11     -0.49      0.00
   17   12   11     -0.13      0.00
   -5   13   11      0.19      0.00
   -4   13   11      0.28      0.00
   15   13   11      0.91      0.00
   16   13   11      0.51      0.00
   -4   14   11     -0.27      0.00
   -3   14   11     -0.04      0.00
   -2   14   11      0.54      0.00
   14   14   11      1.20      0.00
   15   14   11     -0.07      0.00
   16   14   11     -0.34      0.00
   -2   15   11     -0.03      0.00
   -1   15   11     -0.42      0.00
    0   15   11     -0.24      0.00
   13   15   11     -0.14      0.00
   14   15   11     -0.87      0.00
   15   15   11     -0.29      0.00
    0   16   11      0.27      0.00
    1   16   11      0.08      0.00
    2   16   11     -0.24      0.00
    3   16   11     -0.26      0.00
   12   16   11     -1.10      0.00
   13   16   11     -0.41      0.00
   14   16   11      0.31      0.00
   15   16   11      0.23      0.00
    2   17   11     -0.07      0.00
    3   17   11      0.07      0.00
    4   17   11     -0.05      0.00
    5   17   11     -0.06      0.00
    6   17   11      0.55      0.00
    7   17   11      1.00      0.00
    8   17   11      0.43      0.00
    9   17   11     -0.53      0.00
   10   17   11     -0.73      0.00
   11   17   11     -0.01      0.00
   12   17   11      0.58      0.00
   13   17   11      0.37      0.00
    5   18   11      0.17      0.00
    6   18   11      0.03      0.00
    7   18   11     -0.42      0.00
    8   18   11     -0.47      0.00
    9   18   11     -0.05      0.00
   10   18   11      0.25      0.00
   11   18   11      0.10      0.00
  -11  -16   12      0.03      0.00
  -10  -16   12      0.41      0.00
   -9  -16   12      0.79      0.00
   -8  -16   12      0.89      0.00
   -7  -16   12      0.56      0.00
   -6  -16   12     -0.05      0.00
   -5  -16   12     -0.44      0.00
   -4  -16   12     -0.33      0.00
   -3  -16   12     -0.08      0.00
  -13  -15   12      0.48      0.00
  -12  -15   12      0.36      0.00
  -11  -15   12      0.39      0.00
  -10  -15   12      0.16      0.00
   -9  -15   12     -0.57      0.00
   -8  -15   12     -1.29      0.00
   -7  -15   12     -1.48      0.00
   -6  -15   12     -1.05      0.00
   -5  -15   12     -0.21      0.00
   -4  -15   12      0.38      0.00
   -3  -15   12      0.34      0.00
   -2  -15   12      0.16      0.00
   -1  -15   12      0.29      0.00
  -14  -14   12     -0.38      0.00
  -13  -14   12     -0.89      0.00
  -12  -14   12     -0.67      0.00
   -1  -14   12     -0.26      0.00
    0  -14   12     -0.59      0.00
    1  -14   12     -0.54      0.00
  -15  -13   12     -0.43      0.00
  -14  -13   12     -0.02      0.00
  -13  -13   12      0.94      0.00
    1  -13   12      0.71      0.00
    2  -13   12      0.44      0.00
    3  -13   12     -0.07      0.00
  -16  -12   12     -0.02      0.00
  -15  -12   12      0.23      0.00
  -14  -12   12      0.22      0.00
    3  -12   12     -0.38      0.00
    4  -12   12     -0.04      0.00
  -16  -11   12     -0.03      0.00
  -15  -11   12     -0.22      0.00
  -13  -11   12      0.28      0.00
    4  -11   12      0.54      0.00
    5  -11   12      0.21      0.00
    6  -11   12     -0.04      0.00
  -16  -10   12     -0.15      0.00
  -15  -10   12      0.19      0.00
    6  -10   12     -0.27      0.00
    7  -10   12     -0.21      0.00
  -16   -9   12      0.43      0.00
  -15   -9   12      0.21      0.00
    7   -9   12      0.25      0.00
    8   -9   12      0.47      0.00
  -16   -8   12     -0.35      0.00
  -15   -8   12     -0.58      0.00
    8   -8   12     -0.23      0.00
    9   -8   12     -0.53      0.00
  -16   -7   12     -0.02      0.00
   -6   -7   12     -0.18      0.00
    9   -7   12      0.18      0.00
   10   -7   12      0.37      0.00
  -16   -6   12      0.09      0.00
   10   -6   12     -0.12      0.00
   11   -6   12     -0.26      0.00
  -16   -5   12     -0.01      0.00
  -15   -5   12     -0.23      0.00
   11   -5   12      0.09      0.00
  -16   -4   12      0.27      0.00
  -15   -4   12     -0.04      0.00
   11   -4   12      0.46      0.00
   12   -4   12     -0.05      0.00
  -16   -3   12     -0.45      0.00
  -15   -3   12      0.02      0.00
  -10   -3   12      1.55      0.00
   -9   -3   12      0.26      0.00
   -8   -3   12     -0.62      0.00
   -7   -3   12     -0.19      0.00
   12   -3   12     -0.44      0.00
   13   -3   12     -0.04      0.00
  -16   -2   12      0.33      0.00
  -15   -2   12      0.07      0.00
  -11   -2   12     -0.18      0.00
  -10   -2   12     -1.18      0.00
   -9   -2   12     -0.77      0.00
   -8   -2   12      0.56      0.00
   -7   -2   12      0.74      0.00
   -6   -2   12     -0.14      0.00
   -5   -2   12     -0.12      0.00
   13   -2   12      0.23      0.00
  -15   -1   12     -0.23      0.00
  -11   -1   12     -0.64      0.00
  -10   -1   12      0.21      0.00
   -9   -1   12      0.69      0.00
   -8   -1   12      0.08      0.00
   -7   -1   12     -0.56      0.00
   -6   -1   12     -0.09      0.00
   -5   -1   12      0.80      0.00
   -4   -1   12      0.58      0.00
   13   -1   12     -0.30      0.00
   14   -1   12      0.05      0.00
  -15    0   12      0.49      0.00
  -14    0   12     -0.09      0.00
  -11    0   12      0.73      0.00
  -10    0   12      0.39      0.00
   -9    0   12     -0.13      0.00
   -8    0   12     -0.11      0.00
   -7    0   12      0.17      0.00
   -6    0   12     -0.06      0.00
   -5    0   12     -0.83      0.00
   -4    0   12     -1.53      0.00
   -3    0   12     -1.15      0.00
   14    0   12     -0.19      0.00
  -14    1   12     -0.19      0.00
  -11    1   12     -0.31      0.00
  -10    1   12     -0.46      0.00
   -9    1   12     -0.12      0.00
   -8    1   12     -0.11      0.00
   -7    1   12     -0.51      0.00
   -6    1   12     -0.36      0.00
   -5    1   12      0.50      0.00
   -4    1   12      1.35      0.00
   -3    1   12      1.90      0.00
   14    1   12      0.29      0.00
   15    1   12      0.29      0.00
  -14    2   12      0.01      0.00
  -13    2   12     -0.22      0.00
   -9    2   12      0.21      0.00
   -8    2   12     -0.09      0.00
   -7    2   12      0.43      0.00
   -6    2   12      1.16      0.00
   -5    2   12      0.69      0.00
   -4    2   12     -0.47      0.00
   -3    2   12     -1.33      0.00
   15    2   12     -0.45      0.00
  -13    3   12      0.24      0.00
   -7    3   12      0.40      0.00
   -6    3   12     -0.68      0.00
   -5    3   12     -1.59      0.00
   -4    3   12     -0.90      0.00
   15    3   12      0.34      0.00
   16    3   12      0.38      0.00
  -13    4   12     -0.18      0.00
  -12    4   12     -0.33      0.00
   15    4   12      0.34      0.00
   16    4   12     -0.24      0.00
  -12    5   12      0.11      0.00
  -11    5   12      0.34      0.00
   16    5   12     -0.47      0.00
  -11    6   12     -0.05      0.00
   16    6   12      0.85      0.00
  -11    7   12     -0.13      0.00
  -10    7   12     -0.02      0.00
   16    7   12     -0.38      0.00
   17    7   12     -0.35      0.00
  -10    8   12      0.06      0.00
   -9    8   12      0.08      0.00
   16    8   12     -0.38      0.00
   17    8   12     -0.10      0.00
   -9    9   12      0.11      0.00
   -8    9   12     -0.19      0.00
   16    9   12      0.66      0.00
   17    9   12      0.37      0.00
   -8   10   12     -0.22      0.00
   -7   10   12      0.42      0.00
   16   10   12     -0.37      0.00
   17   10   12     -0.18      0.00
   -7   11   12      0.13      0.00
   -6   11   12     -0.63      0.00
   15   11   12     -0.81      0.00
   16   11   12     -0.03      0.00
   17   11   12     -0.08      0.00
   -6   12   12      0.08      0.00
   -5   12   12      0.59      0.00
   15   12   12      0.94      0.00
   16   12   12      0.21      0.00
   -5   13   12     -0.25      0.00
   -4   13   12     -0.32      0.00
   -3   13   12      0.26      0.00
   15   13   12     -0.57      0.00
   16   13   12     -0.24      0.00
   -3   14   12      0.09      0.00
   -2   14   12     -0.50      0.00
   -1   14   12     -0.69      0.00
   14   14   12     -0.94      0.00
   15   14   12      0.14      0.00
   16   14   12      0.28      0.00
   -2   15   12     -0.01      0.00
   -1   15   12      0.46      0.00
    0   15   12      0.41      0.00
    1   15   12     -0.11      0.00
   13   15   12      0.13      0.00
   14   15   12      0.61      0.00
   15   15   12      0.01      0.00
    0   16   12     -0.24      0.00
    1   16   12     -0.16      0.00
    2   16   12      0.22      0.00
    3   16   12      0.34      0.00
    4   16   12      0.10      0.00
   10   16   12     -0.55      0.00
   11   16   12      0.64      0.00
   12   16   12      1.00      0.00
   13   16   12      0.35      0.00
   14   16   12     -0.25      0.00
    2   17   12      0.04      0.00
    3   17   12     -0.17      0.00
    4   17   12     -0.15      0.00
    5   17   12      0.01      0.00
    6   17   12     -0.26      0.00
    7   17   12     -0.57      0.00
    8   17   12     -0.30      0.00
    9   17   12      0.30      0.00
   10   17   12      0.47      0.00
   11   17   12     -0.06      0.00
   12   17   12     -0.54      0.00
   13   17   12     -0.32      0.00
    6   18   12     -0.06      0.00
    7   18   12      0.10      0.00
    8   18   12      0.12      0.00
    9   18   12     -0.01      0.00
   10   18   12     -0.10      0.00
  -10  -16   13     -0.50      0.00
   -9  -16   13     -0.75      0.00
   -8  -16   13     -0.67      0.00
   -7  -16   13     -0.41      0.00
   -6  -16   13     -0.08      0.00
   -5  -16   13      0.14      0.00
  -12  -15   13     -0.12      0.00
  -11  -15   13     -0.16      0.00
  -10  -15   13      0.10      0.00
   -9  -15   13      0.76      0.00
   -8  -15   13      1.14      0.00
   -7  -15   13      1.00      0.00
   -6  -15   13      0.69      0.00
   -5  -15   13      0.30      0.00
   -4  -15   13     -0.02      0.00
   -3  -15   13     -0.04      0.00
   -2  -15   13      0.00      0.00
  -13  -14   13      0.55      0.00
  -12  -14   13      0.30      0.00
  -11  -14   13      0.23      0.00
  -10  -14   13      0.50      0.00
   -3  -14   13     -0.10      0.00
   -2  -14   13     -0.05      0.00
   -1  -14   13      0.14      0.00
    0  -14   13      0.36      0.00
  -14  -13   13     -0.02      0.00
  -13  -13   13     -0.72      0.00
  -12  -13   13     -0.67      0.00
    0  -13   13     -0.34      0.00
    1  -13   13     -0.40      0.00
    2  -13   13     -0.06      0.00
  -15  -12   13     -0.13      0.00
  -14  -12   13     -0.13      0.00
  -13  -12   13      0.71      0.00
    2  -12   13      0.30      0.00
    3  -12   13     -0.07      0.00
    4  -12   13     -0.12      0.00
  -15  -11   13      0.20      0.00
  -14  -11   13      0.46      0.00
    4  -11   13     -0.04      0.00
    5  -11   13      0.03      0.00
  -16  -10   13      0.27      0.00
  -15  -10   13     -0.08      0.00
  -14  -10   13     -0.66      0.00
    5  -10   13      0.23      0.00
    6  -10   13      0.04      0.00
  -16   -9   13     -0.33      0.00
  -15   -9   13     -0.23      0.00
    6   -9   13     -0.28      0.00
    7   -9   13     -0.15      0.00
  -16   -8   13      0.12      0.00
  -15   -8   13      0.36      0.00
    7   -8   13      0.10      0.00
    8   -8   13      0.21      0.00
  -16   -7   13      0.08      0.00
  -15   -7   13     -0.20      0.00
    8   -7   13      0.19      0.00
    9   -7   13     -0.10      0.00
  -16   -6   13     -0.02      0.00
  -15   -6   13     -0.02      0.00
    9   -6   13     -0.37      0.00
   10   -6   13     -0.06      0.00
  -16   -5   13      0.04      0.00
  -15   -5   13      0.01      0.00
   10   -5   13      0.35      0.00
   11   -5   13      0.08      0.00
  -16   -4   13     -0.31      0.00
  -15   -4   13      0.00      0.00
  -12   -4   13      0.49      0.00
  -11   -4   13      0.90      0.00
  -10   -4   13      0.55      0.00
   -9   -4   13      0.01      0.00
   11   -4   13     -0.25      0.00
   12   -4   13     -0.04      0.00
  -15   -3   13      0.08      0.00
  -14   -3   13      0.02      0.00
  -13   -3   13      0.18      0.00
  -12   -3   13     -0.10      0.00
  -11   -3   13     -0.82      0.00
  -10   -3   13     -0.96      0.00
   -9   -3   13     -0.11      0.00
   -8   -3   13      0.48      0.00
   -7   -3   13      0.10      0.00
   12   -3   13      0.17      0.00
  -15   -2   13     -0.08      0.00
  -14   -2   13      0.12      0.00
  -13   -2   13     -0.17      0.00
  -12   -2   13     -0.28      0.00
  -11   -2   13      0.20      0.00
  -10   -2   13      0.74      0.00
   -9   -2   13      0.44      0.00
   -8   -2   13     -0.40      0.00
   -7   -2   13     -0.54      0.00
   -6   -2   13      0.08      0.00
   -5   -2   13      0.28      0.00
   12   -2   13     -0.26      0.00
   13   -2   13     -0.08      0.00
  -15   -1   13      0.30      0.00
  -14   -1   13     -0.25      0.00
  -13   -1   13     -0.06      0.00
  -12   -1   13      0.42      0.00
  -11   -1   13      0.29      0.00
  -10   -1   13     -0.18      0.00
   -9   -1   13     -0.23      0.00
   -8   -1   13      0.19      0.00
   -7   -1   13      0.30      0.00
   -6   -1   13     -0.11      0.00
   -5   -1   13     -0.70      0.00
   -4   -1   13     -0.82      0.00
   13   -1   13     -0.05      0.00
   14   -1   13     -0.03      0.00
  -14    0   13      0.01      0.00
  -13    0   13      0.37      0.00
  -12    0   13     -0.19      0.00
  -11    0   13     -0.48      0.00
  -10    0   13     -0.02      0.00
   -9    0   13      0.14      0.00
   -8    0   13     -0.37      0.00
   -7    0   13     -0.46      0.00
   -6    0   13      0.28      0.00
   -5    0   13      0.98      0.00
   -4    0   13      1.46      0.00
   13    0   13      0.14      0.00
   14    0   13      0.25      0.00
  -14    1   13      0.25      0.00
  -13    1   13     -0.32      0.00
  -12    1   13     -0.20      0.00
  -11    1   13      0.40      0.00
  -10    1   13      0.20      0.00
   -9    1   13     -0.43      0.00
   -8    1   13     -0.09      0.00
   -7    1   13      0.83      0.00
   -6    1   13      0.57      0.00
   -5    1   13     -0.61      0.00
   -4    1   13     -1.35      0.00
   -3    1   13     -1.86      0.00
   14    1   13     -0.33      0.00
   15    1   13     -0.23      0.00
  -14    2   13     -0.06      0.00
  -13    2   13      0.15      0.00
  -12    2   13      0.35      0.00
  -11    2   13     -0.14      0.00
  -10    2   13     -0.46      0.00
   -9    2   13      0.21      0.00
   -8    2   13      0.84      0.00
   -7    2   13     -0.01      0.00
   -6    2   13     -1.19      0.00
   -5    2   13     -0.78      0.00
   -4    2   13      0.43      0.00
   -3    2   13      1.16      0.00
   14    2   13     -0.02      0.00
   15    2   13      0.41      0.00
  -13    3   13     -0.09      0.00
  -12    3   13     -0.32      0.00
  -11    3   13     -0.14      0.00
  -10    3   13      0.41      0.00
   -9    3   13      0.39      0.00
   -8    3   13     -0.59      0.00
   -7    3   13     -1.07      0.00
   -6    3   13      0.16      0.00
   -5    3   13      1.34      0.00
   -4    3   13      0.83      0.00
   15    3   13     -0.14      0.00
  -12    4   13      0.18      0.00
   -6    4   13      0.98      0.00
   15    4   13     -0.59      0.00
   16    4   13      0.18      0.00
  -12    5   13      0.06      0.00
  -11    5   13     -0.23      0.00
   15    5   13      0.86      0.00
   16    5   13      0.43      0.00
  -11    6   13     -0.02      0.00
  -10    6   13      0.18      0.00
   15    6   13     -0.37      0.00
   16    6   13     -0.64      0.00
  -10    7   13      0.05      0.00
   -9    7   13      0.06      0.00
   15    7   13     -0.26      0.00
   16    7   13      0.21      0.00
   -9    8   13     -0.10      0.00
   15    8   13      0.56      0.00
   16    8   13      0.25      0.00
   -9    9   13     -0.12      0.00
   -8    9   13      0.17      0.00
   15    9   13     -0.36      0.00
   16    9   13     -0.33      0.00
   -8   10   13      0.22      0.00
   -7   10   13     -0.33      0.00
   15   10   13     -0.13      0.00
   16   10   13      0.10      0.00
   -7   11   13     -0.12      0.00
   -6   11   13      0.50      0.00
   -5   11   13      0.64      0.00
   15   11   13      0.49      0.00
   16   11   13      0.09      0.00
   -5   12   13     -0.46      0.00
   -4   12   13     -0.12      0.00
   15   12   13     -0.50      0.00
   16   12   13     -0.07      0.00
   -4   13   13      0.25      0.00
   -3   13   13     -0.35      0.00
   14   13   13     -0.24      0.00
   15   13   13      0.32      0.00
   16   13   13      0.03      0.00
   -3   14   13     -0.15      0.00
   -2   14   13      0.46      0.00
   -1   14   13      0.76      0.00
   13   14   13      0.72      0.00
   14   14   13      0.44      0.00
   15   14   13     -0.22      0.00
   -1   15   13     -0.30      0.00
    0   15   13     -0.45      0.00
    1   15   13      0.00      0.00
    2   15   13      0.37      0.00
   12   15   13      0.78      0.00
   13   15   13     -0.07      0.00
   14   15   13     -0.32      0.00
    1   16   13      0.25      0.00
    2   16   13     -0.05      0.00
    3   16   13     -0.23      0.00
    4   16   13      0.06      0.00
    5   16   13      0.14      0.00
    6   16   13     -0.27      0.00
    7   16   13     -0.46      0.00
    8   16   13      0.00      0.00
    9   16   13      0.52      0.00
   10   16   13      0.23      0.00
   11   16   13     -0.55      0.00
   12   16   13     -0.75      0.00
   13   16   13     -0.26      0.00
    3   17   13      0.01      0.00
    4   17   13      0.08      0.00
    5   17   13     -0.12      0.00
    6   17   13     -0.10      0.00
    7   17   13      0.11      0.00
    8   17   13      0.17      0.00
    9   17   13     -0.02      0.00
   10   17   13     -0.15      0.00
   11   17   13      0.13      0.00
   12   17   13      0.43      0.00
  -11  -15   14      0.14      0.00
  -10  -15   14      0.14      0.00
   -9  -15   14     -0.41      0.00
   -8  -15   14     -0.70      0.00
   -7  -15   14     -0.46      0.00
   -6  -15   14     -0.21      0.00
   -5  -15   14     -0.13      0.00
   -4  -15   14     -0.15      0.00
   -3  -15   14     -0.22      0.00
  -13  -14   14     -0.17      0.00
  -12  -14   14      0.04      0.00
  -11  -14   14     -0.04      0.00
  -10  -14   14     -0.51      0.00
   -9  -14   14     -0.39      0.00
   -8  -14   14      0.31      0.00
   -7  -14   14      0.58      0.00
   -6  -14   14      0.33      0.00
   -5  -14   14      0.12      0.00
   -4  -14   14      0.16      0.00
   -3  -14   14      0.30      0.00
   -2  -14   14      0.28      0.00
   -1  -14   14      0.04      0.00
    0  -14   14     -0.11      0.00
  -14  -13   14      0.08      0.00
  -13  -13   14      0.49      0.00
  -12  -13   14      0.37      0.00
  -11  -13   14     -0.06      0.00
   -1  -13   14     -0.26      0.00
    0  -13   14      0.19      0.00
    1  -13   14      0.07      0.00
  -14  -12   14     -0.03      0.00
  -13  -12   14     -0.72      0.00
  -12  -12   14     -1.09      0.00
    1  -12   14     -0.38      0.00
    2  -12   14      0.11      0.00
    3  -12   14      0.50      0.00
  -15  -11   14     -0.18      0.00
  -14  -11   14     -0.29      0.00
  -13  -11   14      0.36      0.00
    3  -11   14     -0.10      0.00
    4  -11   14     -0.33      0.00
  -15  -10   14      0.00      0.00
  -14  -10   14      0.39      0.00
    4  -10   14     -0.18      0.00
    5  -10   14      0.01      0.00
    6  -10   14      0.07      0.00
  -15   -9   14      0.15      0.00
  -14   -9   14     -0.13      0.00
    6   -9   14      0.15      0.00
    7   -9   14      0.10      0.00
  -16   -8   14      0.06      0.00
  -15   -8   14     -0.11      0.00
  -14   -8   14     -0.02      0.00
    7   -8   14     -0.09      0.00
    8   -8   14     -0.19      0.00
  -16   -7   14     -0.07      0.00
  -15   -7   14      0.02      0.00
    8   -7   14     -0.07      0.00
    9   -7   14      0.10      0.00
  -16   -6   14     -0.06      0.00
  -15   -6   14     -0.03      0.00
   -8   -6   14      0.36      0.00
    9   -6   14      0.18      0.00
   10   -6   14      0.09      0.00
  -15   -5   14      0.09      0.00
  -14   -5   14     -0.06      0.00
  -13   -5   14     -0.13      0.00
  -12   -5   14     -0.12      0.00
  -11   -5   14     -0.11      0.00
   10   -5   14     -0.18      0.00
   11   -5   14     -0.17      0.00
  -15   -4   14      0.00      0.00
  -14   -4   14     -0.03      0.00
  -13   -4   14      0.13      0.00
  -12   -4   14      0.06      0.00
  -11   -4   14     -0.20      0.00
  -10   -4   14     -0.18      0.00
   -9   -4   14      0.13      0.00
   -8   -4   14      0.17      0.00
   10   -4   14      0.34      0.00
   11   -4   14      0.12      0.00
  -15   -3   14     -0.08      0.00
  -14   -3   14      0.07      0.00
  -13   -3   14     -0.01      0.00
  -12   -3   14     -0.11      0.00
  -11   -3   14      0.16      0.00
  -10   -3   14      0.50      0.00
   -9   -3   14      0.21      0.00
   -8   -3   14     -0.31      0.00
   -7   -3   14     -0.18      0.00
   -6   -3   14      0.37      0.00
   11   -3   14     -0.06      0.00
   12   -3   14     -0.08      0.00
  -15   -2   14      0.06      0.00
  -14   -2   14     -0.13      0.00
  -13   -2   14     -0.06      0.00
  -12   -2   14      0.05      0.00
  -11   -2   14      0.00      0.00
  -10   -2   14     -0.27      0.00
   -9   -2   14     -0.34      0.00
   -8   -2   14     -0.01      0.00
   -7   -2   14      0.21      0.00
   -6   -2   14     -0.13      0.00
   -5   -2   14     -0.57      0.00
   12   -2   14     -0.11      0.00
   13   -2   14      0.06      0.00
  -14   -1   14      0.15      0.00
  -13   -1   14      0.12      0.00
  -12   -1   14     -0.09      0.00
  -11   -1   14      0.03      0.00
  -10   -1   14      0.21      0.00
   -9   -1   14      0.05      0.00
   -8   -1   14     -0.19      0.00
   -7   -1   14     -0.05      0.00
   -6   -1   14      0.27      0.00
   -5   -1   14      0.72      0.00
   -4   -1   14      1.04      0.00
   12   -1   14      0.24      0.00
   13   -1   14      0.23      0.00
  -14    0   14      0.10      0.00
  -13    0   14     -0.25      0.00
  -12    0   14      0.06      0.00
  -11    0   14      0.10      0.00
  -10    0   14     -0.43      0.00
   -9    0   14     -0.44      0.00
   -8    0   14      0.40      0.00
   -7    0   14      0.70      0.00
   -6    0   14     -0.03      0.00
   -5    0   14     -0.76      0.00
   -4    0   14     -1.35      0.00
   13    0   14     -0.36      0.00
   14    0   14     -0.26      0.00
  -14    1   14     -0.24      0.00
  -13    1   14      0.25      0.00
  -12    1   14      0.20      0.00
  -11    1   14     -0.22      0.00
  -10    1   14      0.14      0.00
   -9    1   14      0.93      0.00
   -8    1   14      0.53      0.00
   -7    1   14     -0.81      0.00
   -6    1   14     -1.01      0.00
   -5    1   14      0.02      0.00
   -4    1   14      0.95      0.00
   -3    1   14      1.71      0.00
   13    1   14     -0.15      0.00
   14    1   14      0.37      0.00
  -13    2   14     -0.17      0.00
  -12    2   14     -0.41      0.00
  -11    2   14      0.00      0.00
  -10    2   14      0.30      0.00
   -9    2   14     -0.39      0.00
   -8    2   14     -1.19      0.00
   -7    2   14     -0.45      0.00
   -6    2   14      0.99      0.00
   -5    2   14      1.05      0.00
   -4    2   14      0.06      0.00
   -3    2   14     -0.83      0.00
   14    2   14      0.14      0.00
   15    2   14     -0.36      0.00
  -13    3   14      0.05      0.00
  -12    3   14      0.32      0.00
  -11    3   14      0.26      0.00
  -10    3   14     -0.21      0.00
   -9    3   14     -0.31      0.00
   -8    3   14      0.51      0.00
   -7    3   14      1.14      0.00
   -6    3   14      0.28      0.00
   -5    3   14     -0.85      0.00
   -4    3   14     -0.69      0.00
   -3    3   14     -0.02      0.00
   14    3   14     -0.89      0.00
   15    3   14      0.06      0.00
  -12    4   14     -0.02      0.00
  -11    4   14     -0.20      0.00
  -10    4   14     -0.07      0.00
   -9    4   14      0.23      0.00
   -8    4   14      0.16      0.00
   -7    4   14     -0.54      0.00
   -6    4   14     -0.77      0.00
   -5    4   14      0.02      0.00
   -4    4   14      0.43      0.00
   14    4   14      0.79      0.00
   15    4   14      0.55      0.00
  -11    5   14     -0.06      0.00
   15    5   14     -0.65      0.00
   16    5   14     -0.25      0.00
  -11    6   14      0.16      0.00
  -10    6   14      0.10      0.00
   15    6   14      0.25      0.00
   16    6   14      0.38      0.00
  -10    7   14     -0.07      0.00
   -9    7   14     -0.19      0.00
   15    7   14      0.10      0.00
   16    7   14     -0.17      0.00
   -9    8   14     -0.03      0.00
   -8    8   14      0.39      0.00
   15    8   14     -0.20      0.00
   16    8   14     -0.02      0.00
   -8    9   14      0.06      0.00
   -7    9   14     -0.59      0.00
   15    9   14      0.06      0.00
   16    9   14      0.02      0.00
   -7   10   14      0.06      0.00
   -6   10   14      0.61      0.00
   15   10   14      0.12      0.00
   16   10   14      0.07      0.00
   -6   11   14     -0.27      0.00
   -5   11   14     -0.40      0.00
   14   11   14     -0.54      0.00
   15   11   14     -0.08      0.00
   16   11   14     -0.05      0.00
   -5   12   14      0.40      0.00
   -4   12   14      0.06      0.00
   -3   12   14     -0.77      0.00
   14   12   14      0.12      0.00
   15   12   14     -0.06      0.00
   -4   13   14     -0.40      0.00
   -3   13   14      0.20      0.00
   -2   13   14      0.86      0.00
   13   13   14      0.67      0.00
   14   13   14      0.07      0.00
   15   13   14     -0.02      0.00
   -2   14   14     -0.25      0.00
   -1   14   14     -0.74      0.00
    0   14   14     -0.45      0.00
   12   14   14     -0.20      0.00
   13   14   14     -0.43      0.00
   14   14   14     -0.06      0.00
    0   15   14      0.51      0.00
    1   15   14      0.24      0.00
    2   15   14     -0.12      0.00
    3   15   14      0.13      0.00
   10   15   14     -0.25      0.00
   11   15   14     -0.53      0.00
   12   15   14     -0.25      0.00
   13   15   14      0.11      0.00
   14   15   14      0.08      0.00
    2   16   14     -0.07      0.00
    3   16   14      0.14      0.00
    4   16   14     -0.04      0.00
    5   16   14     -0.17      0.00
    6   16   14      0.03      0.00
    7   16   14      0.24      0.00
    8   16   14      0.17      0.00
    9   16   14     -0.06      0.00
   10   16   14      0.02      0.00
   11   16   14      0.34      0.00
   12   16   14      0.38      0.00
    5   17   14      0.00      0.00
    6   17   14      0.09      0.00
    7   17   14      0.05      0.00
    8   17   14     -0.07      0.00
    9   17   14     -0.10      0.00
   10   17   14     -0.02      0.00
   -9  -15   15     -0.03      0.00
   -8  -15   15      0.32      0.00
   -7  -15   15      0.22      0.00
   -6  -15   15      0.04      0.00
   -5  -15   15      0.04      0.00
  -11  -14   15     -0.20      0.00
  -10  -14   15      0.41      0.00
   -9  -14   15      0.55      0.00
   -8  -14   15      0.07      0.00
   -7  -14   15     -0.16      0.00
   -6  -14   15      0.03      0.00
   -5  -14   15      0.19      0.00
   -4  -14   15      0.05      0.00
   -3  -14   15     -0.26      0.00
   -2  -14   15     -0.36      0.00
  -13  -13   15     -0.25      0.00
  -12  -13   15     -0.01      0.00
  -11  -13   15      0.33      0.00
  -10  -13   15      0.06      0.00
   -9  -13   15     -0.48      0.00
   -4  -13   15     -0.43      0.00
   -3  -13   15     -0.03      0.00
   -2  -13   15      0.46      0.00
   -1  -13   15      0.36      0.00
    0  -13   15     -0.01      0.00
    1  -13   15      0.13      0.00
  -14  -12   15      0.22      0.00
  -13  -12   15      0.54      0.00
  -12  -12   15      0.61      0.00
  -11  -12   15      0.15      0.00
    0  -12   15     -0.14      0.00
    1  -12   15      0.23      0.00
    2  -12   15     -0.20      0.00
  -14  -11   15      0.07      0.00
  -13  -11   15     -0.34      0.00
  -12  -11   15     -0.89      0.00
    2  -11   15     -0.36      0.00
    3  -11   15      0.16      0.00
    4  -11   15      0.35      0.00
  -15  -10   15     -0.11      0.00
  -14  -10   15     -0.20      0.00
  -13  -10   15     -0.11      0.00
    3  -10   15      0.35      0.00
    4  -10   15     -0.01      0.00
    5  -10   15     -0.12      0.00
  -15   -9   15      0.17      0.00
  -14   -9   15      0.22      0.00
  -13   -9   15      0.28      0.00
    5   -9   15     -0.08      0.00
    6   -9   15     -0.05      0.00
  -15   -8   15     -0.28      0.00
  -14   -8   15     -0.30      0.00
    6   -8   15     -0.06      0.00
    7   -8   15      0.11      0.00
  -15   -7   15      0.22      0.00
  -14   -7   15      0.27      0.00
    7   -7   15      0.38      0.00
    8   -7   15     -0.03      0.00
  -15   -6   15     -0.01      0.00
  -14   -6   15     -0.20      0.00
  -13   -6   15     -0.30      0.00
  -12   -6   15     -0.44      0.00
    8   -6   15     -0.62      0.00
    9   -6   15     -0.13      0.00
  -15   -5   15     -0.14      0.00
  -14   -5   15      0.09      0.00
  -13   -5   15      0.30      0.00
  -12   -5   15      0.28      0.00
  -11   -5   15      0.17      0.00
  -10   -5   15      0.09      0.00
    9   -5   15      0.50      0.00
   10   -5   15      0.17      0.00
  -15   -4   15      0.01      0.00
  -14   -4   15      0.09      0.00
  -13   -4   15     -0.20      0.00
  -12   -4   15     -0.32      0.00
  -11   -4   15      0.04      0.00
  -10   -4   15      0.31      0.00
   -9   -4   15      0.00      0.00
   -8   -4   15     -0.28      0.00
   10   -4   15     -0.09      0.00
   11   -4   15     -0.03      0.00
  -15   -3   15      0.15      0.00
  -14   -3   15     -0.11      0.00
  -13   -3   15     -0.14      0.00
  -12   -3   15      0.17      0.00
  -11   -3   15      0.11      0.00
  -10   -3   15     -0.44      0.00
   -9   -3   15     -0.49      0.00
   -8   -3   15      0.14      0.00
   -7   -3   15      0.33      0.00
   -6   -3   15     -0.32      0.00
   11   -3   15     -0.30      0.00
   12   -3   15     -0.08      0.00
  -14   -2   15      0.07      0.00
  -13   -2   15      0.26      0.00
  -12   -2   15      0.21      0.00
  -11   -2   15      0.01      0.00
  -10   -2   15      0.12      0.00
   -9   -2   15      0.32      0.00
   -8   -2   15      0.11      0.00
   -7   -2   15     -0.28      0.00
   -6   -2   15     -0.06      0.00
   -5   -2   15      0.61      0.00
   11   -2   15      0.51      0.00
   12   -2   15      0.45      0.00
  -14   -1   15     -0.05      0.00
  -13   -1   15     -0.19      0.00
  -12   -1   15     -0.21      0.00
  -11   -1   15     -0.27      0.00
  -10   -1   15     -0.30      0.00
   -9   -1   15     -0.04      0.00
   -8   -1   15      0.35      0.00
   -7   -1   15      0.44      0.00
   -6   -1   15      0.19      0.00
   -5   -1   15     -0.51      0.00
   -4   -1   15     -1.17      0.00
   12   -1   15     -0.61      0.00
   13   -1   15     -0.37      0.00
  -14    0   15     -0.10      0.00
  -13    0   15      0.19      0.00
  -12    0   15      0.07      0.00
  -11    0   15      0.05      0.00
  -10    0   15      0.49      0.00
   -9    0   15      0.60      0.00
   -8    0   15     -0.24      0.00
   -7    0   15     -1.01      0.00
   -6    0   15     -0.77      0.00
   -5    0   15      0.06      0.00
   -4    0   15      1.13      0.00
   12    0   15      0.04      0.00
   13    0   15      0.49      0.00
  -13    1   15     -0.14      0.00
  -12    1   15     -0.17      0.00
  -11    1   15      0.15      0.00
  -10    1   15     -0.04      0.00
   -9    1   15     -0.82      0.00
   -8    1   15     -0.81      0.00
   -7    1   15      0.43      0.00
   -6    1   15      1.26      0.00
   -5    1   15      0.83      0.00
   -4    1   15     -0.23      0.00
   -3    1   15     -1.37      0.00
   13    1   15      0.12      0.00
   14    1   15     -0.29      0.00
  -13    2   15      0.00      0.00
  -12    2   15      0.22      0.00
  -11    2   15      0.05      0.00
  -10    2   15     -0.21      0.00
   -9    2   15      0.19      0.00
   -8    2   15      1.00      0.00
   -7    2   15      0.81      0.00
   -6    2   15     -0.42      0.00
   -5    2   15     -1.05      0.00
   -4    2   15     -0.62      0.00
   -3    2   15      0.26      0.00
   13    2   15     -1.04      0.00
   14    2   15     -0.18      0.00
  -12    3   15     -0.01      0.00
  -11    3   15     -0.11      0.00
  -10    3   15     -0.01      0.00
   -9    3   15      0.08      0.00
   -8    3   15     -0.30      0.00
   -7    3   15     -0.85      0.00
   -6    3   15     -0.53      0.00
   -5    3   15      0.26      0.00
   -4    3   15      0.43      0.00
   -3    3   15      0.16      0.00
   14    3   15      0.79      0.00
   15    3   15     -0.01      0.00
  -12    4   15     -0.20      0.00
  -11    4   15     -0.08      0.00
  -10    4   15      0.05      0.00
   -9    4   15      0.16      0.00
   -8    4   15      0.16      0.00
   -7    4   15      0.28      0.00
   -6    4   15      0.30      0.00
   -5    4   15     -0.03      0.00
   -4    4   15      0.03      0.00
   14    4   15     -0.61      0.00
   15    4   15     -0.33      0.00
  -11    5   15      0.12      0.00
  -10    5   15      0.07      0.00
   -9    5   15     -0.13      0.00
   -8    5   15     -0.39      0.00
   -7    5   15     -0.38      0.00
   -6    5   15     -0.03      0.00
   -5    5   15      0.60      0.00
   14    5   15     -0.08      0.00
   15    5   15      0.33      0.00
  -10    6   15      0.03      0.00
   -9    6   15     -0.08      0.00
   14    6   15      0.46      0.00
   15    6   15     -0.15      0.00
   -9    7   15     -0.02      0.00
   -8    7   15      0.27      0.00
   14    7   15     -0.41      0.00
   15    7   15      0.04      0.00
   -9    8   15      0.24      0.00
   -8    8   15     -0.18      0.00
   14    8   15      0.07      0.00
   15    8   15      0.03      0.00
   -8    9   15     -0.14      0.00
   -7    9   15      0.42      0.00
   14    9   15      0.25      0.00
   15    9   15     -0.01      0.00
   -7   10   15     -0.09      0.00
   -6   10   15     -0.50      0.00
   -5   10   15     -0.03      0.00
   14   10   15     -0.20      0.00
   15   10   15      0.04      0.00
   -6   11   15      0.38      0.00
   -5   11   15      0.37      0.00
   -4   11   15     -0.46      0.00
   14   11   15     -0.01      0.00
   15   11   15     -0.24      0.00
   -4   12   15     -0.09      0.00
   -3   12   15      0.80      0.00
   13   12   15      0.06      0.00
   14   12   15     -0.02      0.00
   15   12   15      0.32      0.00
   -3   13   15     -0.11      0.00
   -2   13   15     -0.83      0.00
   -1   13   15     -0.75      0.00
   12   13   15     -0.62      0.00
   13   13   15     -0.09      0.00
   14   13   15      0.22      0.00
   -2   14   15      0.09      0.00
   -1   14   15      0.55      0.00
    0   14   15      0.40      0.00
    1   14   15     -0.05      0.00
   11   14   15      0.29      0.00
   12   14   15      0.43      0.00
   13   14   15      0.12      0.00
   14   14   15     -0.26      0.00
    0   15   15     -0.18      0.00
    1   15   15     -0.10      0.00
    2   15   15      0.05      0.00
    3   15   15     -0.15      0.00
    4   15   15     -0.27      0.00
    5   15   15     -0.04      0.00
    6   15   15      0.12      0.00
    7   15   15      0.02      0.00
    8   15   15     -0.08      0.00
    9   15   15      0.06      0.00
   10   15   15      0.24      0.00
   11   15   15      0.08      0.00
   12   15   15     -0.14      0.00
   13   15   15     -0.12      0.00
    3   16   15     -0.03      0.00
    4   16   15      0.07      0.00
    5   16   15      0.08      0.00
    6   16   15      0.09      0.00
    7   16   15      0.10      0.00
    8   16   15     -0.01      0.00
    9   16   15     -0.10      0.00
   10   16   15     -0.16      0.00
   11   16   15     -0.18      0.00
    7   17   15     -0.18      0.00
    8   17   15     -0.17      0.00
  -10  -14   16     -0.30      0.00
   -9  -14   16     -0.71      0.00
   -8  -14   16     -0.54      0.00
   -7  -14   16     -0.34      0.00
   -6  -14   16     -0.29      0.00
   -5  -14   16     -0.27      0.00
   -4  -14   16     -0.14      0.00
   -3  -14   16      0.12      0.00
  -12  -13   16     -0.26      0.00
  -11  -13   16     -0.42      0.00
  -10  -13   16     -0.10      0.00
   -9  -13   16      0.39      0.00
   -8  -13   16      0.52      0.00
   -7  -13   16      0.51      0.00
   -6  -13   16      0.58      0.00
   -5  -13   16      0.56      0.00
   -4  -13   16      0.48      0.00
   -3  -13   16      0.19      0.00
   -2  -13   16     -0.26      0.00
   -1  -13   16     -0.31      0.00
  -13  -12   16     -0.28      0.00
  -12  -12   16     -0.15      0.00
  -11  -12   16      0.09      0.00
  -10  -12   16      0.08      0.00
   -9  -12   16     -0.14      0.00
   -2  -12   16     -0.19      0.00
   -1  -12   16      0.35      0.00
    0  -12   16      0.22      0.00
    1  -12   16     -0.04      0.00
  -13  -11   16      0.31      0.00
  -12  -11   16      0.44      0.00
  -11  -11   16      0.31      0.00
    1  -11   16      0.03      0.00
    2  -11   16      0.07      0.00
    3  -11   16     -0.23      0.00
  -14  -10   16      0.08      0.00
  -13  -10   16     -0.17      0.00
  -12  -10   16     -0.40      0.00
    2  -10   16     -0.35      0.00
    3  -10   16     -0.06      0.00
    4  -10   16      0.14      0.00
  -14   -9   16     -0.22      0.00
  -13   -9   16     -0.02      0.00
    4   -9   16      0.07      0.00
    5   -9   16     -0.11      0.00
    6   -9   16     -0.01      0.00
  -14   -8   16      0.28      0.00
  -13   -8   16      0.25      0.00
    5   -8   16      0.01      0.00
    6   -8   16      0.24      0.00
    7   -8   16     -0.02      0.00
  -14   -7   16     -0.16      0.00
  -13   -7   16     -0.20      0.00
    6   -7   16     -0.24      0.00
    7   -7   16     -0.43      0.00
    8   -7   16     -0.01      0.00
  -14   -6   16      0.12      0.00
  -13   -6   16      0.08      0.00
  -12   -6   16      0.18      0.00
  -11   -6   16      0.30      0.00
    8   -6   16      0.48      0.00
    9   -6   16      0.09      0.00
  -14   -5   16     -0.06      0.00
  -13   -5   16     -0.23      0.00
  -12   -5   16     -0.12      0.00
  -11   -5   16     -0.04      0.00
  -10   -5   16     -0.18      0.00
   -9   -5   16     -0.42      0.00
    8   -5   16     -0.45      0.00
    9   -5   16     -0.27      0.00
   10   -5   16     -0.07      0.00
  -14   -4   16     -0.09      0.00
  -13   -4   16      0.18      0.00
  -12   -4   16      0.37      0.00
  -11   -4   16      0.02      0.00
  -10   -4   16     -0.27      0.00
   -9   -4   16      0.14      0.00
   -8   -4   16      0.60      0.00
   -7   -4   16      0.15      0.00
   -5   -4   16     -0.44      0.00
    9   -4   16      0.09      0.00
   10   -4   16     -0.13      0.00
  -14   -3   16      0.05      0.00
  -13   -3   16      0.17      0.00
  -12   -3   16     -0.19      0.00
  -11   -3   16     -0.27      0.00
  -10   -3   16      0.23      0.00
   -9   -3   16      0.34      0.00
   -8   -3   16     -0.28      0.00
   -7   -3   16     -0.52      0.00
   -6   -3   16      0.25      0.00
   10   -3   16      0.34      0.00
   11   -3   16      0.45      0.00
  -14   -2   16      0.06      0.00
  -13   -2   16     -0.23      0.00
  -12   -2   16     -0.22      0.00
  -11   -2   16      0.03      0.00
  -10   -2   16     -0.04      0.00
   -9   -2   16     -0.20      0.00
   -8   -2   16      0.09      0.00
   -7   -2   16      0.52      0.00
   -6   -2   16      0.18      0.00
   -5   -2   16     -0.76      0.00
   11   -2   16     -0.61      0.00
   12   -2   16     -0.50      0.00
  -14   -1   16     -0.10      0.00
  -13   -1   16      0.09      0.00
  -12   -1   16      0.19      0.00
  -11   -1   16      0.19      0.00
  -10   -1   16      0.32      0.00
   -9   -1   16      0.26      0.00
   -8   -1   16     -0.27      0.00
   -7   -1   16     -0.79      0.00
   -6   -1   16     -0.70      0.00
   -5   -1   16      0.25      0.00
   -4   -1   16      1.24      0.00
   11   -1   16      0.07      0.00
   12   -1   16      0.65      0.00
  -13    0   16     -0.02      0.00
  -12    0   16     -0.09      0.00
  -11    0   16      0.00      0.00
  -10    0   16     -0.29      0.00
   -9    0   16     -0.72      0.00
   -8    0   16     -0.25      0.00
   -7    0   16      0.83      0.00
   -6    0   16      1.32      0.00
   -5    0   16      0.76      0.00
   -4    0   16     -0.57      0.00
   12    0   16     -0.09      0.00
   13    0   16     -0.47      0.00
  -13    1   16     -0.08      0.00
  -12    1   16      0.16      0.00
  -11    1   16      0.06      0.00
  -10    1   16     -0.04      0.00
   -9    1   16      0.49      0.00
   -8    1   16      0.90      0.00
   -7    1   16      0.13      0.00
   -6    1   16     -1.06      0.00
   -5    1   16     -1.38      0.00
   -4    1   16     -0.59      0.00
   -3    1   16      0.64      0.00
   12    1   16     -0.94      0.00
   13    1   16     -0.01      0.00
  -12    2   16     -0.09      0.00
  -11    2   16     -0.27      0.00
  -10    2   16     -0.14      0.00
   -9    2   16     -0.05      0.00
   -8    2   16     -0.52      0.00
   -7    2   16     -0.76      0.00
   -6    2   16     -0.06      0.00
   -5    2   16      0.74      0.00
   -4    2   16      0.81      0.00
   -3    2   16      0.21      0.00
    1    2   16      1.04      0.00
   13    2   16      0.76      0.00
   14    2   16      0.08      0.00
  -12    3   16     -0.06      0.00
  -11    3   16      0.09      0.00
  -10    3   16      0.32      0.00
   -9    3   16      0.25      0.00
   -8    3   16      0.09      0.00
   -7    3   16      0.28      0.00
   -6    3   16      0.35      0.00
   -5    3   16      0.12      0.00
   -4    3   16      0.08      0.00
   -3    3   16      0.17      0.00
   13    3   16     -0.71      0.00
   14    3   16     -0.43      0.00
  -11    4   16      0.11      0.00
  -10    4   16     -0.01      0.00
   -9    4   16     -0.34      0.00
   -8    4   16     -0.35      0.00
   -7    4   16     -0.07      0.00
   -6    4   16      0.16      0.00
   -5    4   16      0.20      0.00
   -4    4   16     -0.33      0.00
   13    4   16     -0.11      0.00
   14    4   16      0.23      0.00
  -10    5   16     -0.15      0.00
   -9    5   16     -0.03      0.00
   -8    5   16      0.37      0.00
   -7    5   16      0.45      0.00
   -6    5   16     -0.03      0.00
   -5    5   16     -0.77      0.00
   14    5   16      0.18      0.00
   15    5   16      0.01      0.00
  -10    6   16     -0.10      0.00
   -9    6   16      0.16      0.00
   -8    6   16      0.07      0.00
   -7    6   16     -0.41      0.00
   -6    6   16     -0.51      0.00
   14    6   16     -0.35      0.00
   15    6   16      0.07      0.00
   -9    7   16      0.07      0.00
   -8    7   16     -0.29      0.00
   14    7   16      0.29      0.00
   15    7   16     -0.18      0.00
   -8    8   16      0.13      0.00
   -7    8   16      0.44      0.00
   14    8   16     -0.05      0.00
   15    8   16      0.18      0.00
   -7    9   16     -0.35      0.00
   -6    9   16     -0.32      0.00
   14    9   16     -0.11      0.00
   15    9   16     -0.13      0.00
   -6   10   16      0.38      0.00
   -5   10   16     -0.11      0.00
   13   10   16      0.38      0.00
   14   10   16     -0.03      0.00
   15   10   16     -0.04      0.00
   -5   11   16     -0.25      0.00
   -4   11   16      0.55      0.00
   -3   11   16      1.13      0.00
   13   11   16     -0.30      0.00
   14   11   16      0.13      0.00
   15   11   16      0.32      0.00
   -4   12   16      0.11      0.00
   -3   12   16     -0.65      0.00
   -2   12   16     -0.87      0.00
   12   12   16     -0.18      0.00
   13   12   16      0.27      0.00
   14   12   16      0.03      0.00
   -2   13   16      0.41      0.00
   -1   13   16      0.45      0.00
    0   13   16     -0.02      0.00
   11   13   16      0.91      0.00
   12   13   16      0.51      0.00
   13   13   16     -0.11      0.00
   14   13   16     -0.25      0.00
   -1   14   16     -0.08      0.00
    0   14   16     -0.15      0.00
    1   14   16     -0.07      0.00
    2   14   16     -0.31      0.00
    3   14   16     -0.45      0.00
    7   14   16     -0.28      0.00
    9   14   16      0.23      0.00
   10   14   16     -0.10      0.00
   11   14   16     -0.65      0.00
   12   14   16     -0.59      0.00
   13   14   16     -0.09      0.00
    1   15   16      0.02      0.00
    2   15   16      0.18      0.00
    3   15   16      0.31      0.00
    4   15   16      0.12      0.00
    5   15   16     -0.09      0.00
    6   15   16      0.06      0.00
    7   15   16      0.19      0.00
    8   15   16     -0.03      0.00
    9   15   16     -0.35      0.00
   10   15   16     -0.30      0.00
   11   15   16      0.14      0.00
   12   15   16      0.37      0.00
    4   16   16     -0.08      0.00
    5   16   16      0.12      0.00
    6   16   16      0.03      0.00
    7   16   16     -0.24      0.00
    8   16   16     -0.16      0.00
    9   16   16      0.15      0.00
   10   16   16      0.32      0.00
  -10  -13   17      0.26      0.00
   -9  -13   17     -0.09      0.00
   -8  -13   17     -0.21      0.00
   -7  -13   17     -0.39      0.00
   -6  -13   17     -0.53      0.00
   -5  -13   17     -0.33      0.00
   -4  -13   17     -0.18      0.00
   -3  -13   17     -0.12      0.00
   -2  -13   17      0.13      0.00
  -12  -12   17     -0.15      0.00
  -11  -12   17     -0.41      0.00
  -10  -12   17     -0.28      0.00
   -9  -12   17     -0.02      0.00
   -8  -12   17     -0.16      0.00
   -7  -12   17     -0.23      0.00
   -6  -12   17      0.29      0.00
   -5  -12   17      0.67      0.00
   -4  -12   17      0.55      0.00
   -3  -12   17      0.49      0.00
   -2  -12   17      0.32      0.00
   -1  -12   17     -0.12      0.00
    0  -12   17     -0.25      0.00
  -12  -11   17     -0.11      0.00
  -11  -11   17      0.17      0.00
  -10  -11   17      0.18      0.00
   -9  -11   17     -0.13      0.00
   -1  -11   17     -0.54      0.00
    0  -11   17     -0.10      0.00
    1  -11   17      0.05      0.00
    2  -11   17      0.14      0.00
  -13  -10   17      0.16      0.00
  -12  -10   17      0.22      0.00
  -11  -10   17      0.05      0.00
    1  -10   17      0.58      0.00
    2  -10   17      0.27      0.00
    3  -10   17     -0.12      0.00
    4  -10   17     -0.23      0.00
  -13   -9   17      0.08      0.00
  -12   -9   17     -0.11      0.00
    3   -9   17     -0.59      0.00
    4   -9   17      0.11      0.00
    5   -9   17      0.29      0.00
  -14   -8   17     -0.17      0.00
  -13   -8   17     -0.25      0.00
  -12   -8   17     -0.23      0.00
    4   -8   17      0.83      0.00
    5   -8   17     -0.06      0.00
    6   -8   17     -0.33      0.00
  -14   -7   17      0.01      0.00
  -13   -7   17      0.01      0.00
  -12   -7   17      0.31      0.00
    6   -7   17      0.08      0.00
    7   -7   17      0.32      0.00
  -14   -6   17     -0.04      0.00
  -13   -6   17      0.12      0.00
  -12   -6   17      0.01      0.00
  -11   -6   17     -0.31      0.00
  -10   -6   17     -0.40      0.00
    7   -6   17     -0.19      0.00
    8   -6   17     -0.29      0.00
  -14   -5   17      0.03      0.00
  -13   -5   17      0.11      0.00
  -12   -5   17     -0.01      0.00
  -11   -5   17     -0.03      0.00
  -10   -5   17      0.16      0.00
   -9   -5   17      0.43      0.00
    8   -5   17      0.25      0.00
    9   -5   17      0.17      0.00
  -14   -4   17      0.02      0.00
  -13   -4   17     -0.11      0.00
  -12   -4   17     -0.26      0.00
  -11   -4   17     -0.03      0.00
  -10   -4   17      0.22      0.00
   -9   -4   17     -0.03      0.00
   -8   -4   17     -0.45      0.00
   -7   -4   17     -0.13      0.00
    9   -4   17     -0.09      0.00
   10   -4   17      0.11      0.00
  -14   -3   17      0.12      0.00
  -13   -3   17     -0.11      0.00
  -12   -3   17      0.07      0.00
  -11   -3   17      0.15      0.00
  -10   -3   17     -0.18      0.00
   -9   -3   17     -0.28      0.00
   -8   -3   17      0.20      0.00
   -7   -3   17      0.45      0.00
   -6   -3   17     -0.20      0.00
    9   -3   17      0.23      0.00
   10   -3   17     -0.25      0.00
  -13   -2   17      0.11      0.00
  -12   -2   17      0.20      0.00
  -11   -2   17      0.10      0.00
  -10   -2   17      0.21      0.00
   -9   -2   17      0.25      0.00
   -8   -2   17     -0.16      0.00
   -7   -2   17     -0.67      0.00
   -6   -2   17     -0.43      0.00
   -5   -2   17      0.54      0.00
   10   -2   17     -0.08      0.00
   11   -2   17      0.55      0.00
  -13   -1   17     -0.07      0.00
  -12   -1   17     -0.18      0.00
  -11   -1   17     -0.10      0.00
  -10   -1   17     -0.30      0.00
   -9   -1   17     -0.45      0.00
   -8   -1   17      0.09      0.00
   -7   -1   17      0.90      0.00
   -6   -1   17      1.14      0.00
   -5   -1   17      0.35      0.00
   -4   -1   17     -0.81      0.00
   -2   -1   17      0.22      0.00
   11   -1   17     -0.11      0.00
   12   -1   17     -0.60      0.00
  -13    0   17      0.02      0.00
  -12    0   17      0.21      0.00
  -11    0   17     -0.02      0.00
  -10    0   17     -0.05      0.00
   -9    0   17      0.45      0.00
   -8    0   17      0.42      0.00
   -7    0   17     -0.51      0.00
   -6    0   17     -1.36      0.00
   -5    0   17     -1.27      0.00
   -4    0   17     -0.21      0.00
   11    0   17     -0.80      0.00
   12    0   17      0.19      0.00
  -12    1   17     -0.19      0.00
  -11    1   17     -0.22      0.00
  -10    1   17      0.18      0.00
   -9    1   17      0.09      0.00
   -8    1   17     -0.46      0.00
   -7    1   17     -0.31      0.00
   -6    1   17      0.57      0.00
   -5    1   17      1.17      0.00
   -4    1   17      0.93      0.00
   12    1   17      0.61      0.00
   13    1   17     -0.06      0.00
  -12    2   17     -0.07      0.00
  -11    2   17      0.26      0.00
  -10    2   17      0.25      0.00
   -9    2   17     -0.14      0.00
   -8    2   17     -0.06      0.00
   -7    2   17      0.35      0.00
   -6    2   17      0.27      0.00
   -5    2   17     -0.17      0.00
   -4    2   17     -0.37      0.00
   -3    2   17     -0.30      0.00
   12    2   17     -0.90      0.00
   13    2   17     -0.44      0.00
  -11    3   17      0.10      0.00
  -10    3   17     -0.26      0.00
   -9    3   17     -0.33      0.00
   -8    3   17      0.01      0.00
   -7    3   17      0.07      0.00
   -6    3   17     -0.09      0.00
   -5    3   17     -0.24      0.00
   -4    3   17     -0.51      0.00
   -3    3   17     -0.66      0.00
   12    3   17      0.37      0.00
   13    3   17      0.38      0.00
  -11    4   17     -0.18      0.00
  -10    4   17     -0.14      0.00
   -9    4   17      0.26      0.00
   -8    4   17      0.37      0.00
   -7    4   17      0.09      0.00
   -6    4   17     -0.23      0.00
   -5    4   17     -0.33      0.00
   -4    4   17      0.27      0.00
   -3    4   17      1.21      0.00
   13    4   17      0.09      0.00
   14    4   17     -0.03      0.00
  -10    5   17      0.11      0.00
   -9    5   17      0.08      0.00
   -8    5   17     -0.23      0.00
   -7    5   17     -0.36      0.00
   -6    5   17     -0.06      0.00
   -5    5   17      0.59      0.00
   -4    5   17      0.68      0.00
   13    5   17     -0.51      0.00
   14    5   17     -0.13      0.00
   -9    6   17     -0.01      0.00
   -8    6   17     -0.04      0.00
   -7    6   17      0.17      0.00
   -6    6   17      0.29      0.00
   -5    6   17     -0.20      0.00
   13    6   17      0.66      0.00
   14    6   17      0.09      0.00
   -8    7   17      0.07      0.00
   -7    7   17      0.07      0.00
   13    7   17     -0.34      0.00
   14    7   17     -0.03      0.00
   -8    8   17     -0.09      0.00
   -7    8   17     -0.21      0.00
   -6    8   17      0.02      0.00
   -4    8   17      0.03      0.00
   13    8   17     -0.10      0.00
   14    8   17     -0.05      0.00
   -7    9   17      0.32      0.00
   -6    9   17      0.18      0.00
   -5    9   17     -0.35      0.00
   13    9   17      0.22      0.00
   14    9   17      0.01      0.00
   -6   10   17     -0.39      0.00
   -5   10   17      0.05      0.00
   -4   10   17      0.70      0.00
   13   10   17     -0.21      0.00
   14   10   17      0.15      0.00
   -4   11   17     -0.27      0.00
   -3   11   17     -0.78      0.00
   12   11   17      0.25      0.00
   13   11   17      0.27      0.00
   14   11   17     -0.15      0.00
   -3   12   17      0.27      0.00
   -2   12   17      0.57      0.00
   -1   12   17      0.21      0.00
   11   12   17      0.71      0.00
   12   12   17      0.16      0.00
   13   12   17     -0.22      0.00
   -2   13   17     -0.07      0.00
   -1   13   17     -0.25      0.00
    0   13   17     -0.15      0.00
    1   13   17     -0.18      0.00
    2   13   17     -0.32      0.00
   10   13   17     -0.68      0.00
   11   13   17     -0.90      0.00
   12   13   17     -0.45      0.00
   13   13   17      0.10      0.00
    0   14   17     -0.02      0.00
    1   14   17      0.16      0.00
    2   14   17      0.34      0.00
    3   14   17      0.19      0.00
    4   14   17     -0.20      0.00
    5   14   17     -0.19      0.00
    6   14   17      0.15      0.00
    7   14   17      0.21      0.00
    8   14   17     -0.15      0.00
    9   14   17     -0.34      0.00
   10   14   17      0.11      0.00
   11   14   17      0.60      0.00
   12   14   17      0.48      0.00
    2   15   17     -0.14      0.00
    3   15   17     -0.22      0.00
    4   15   17      0.14      0.00
    5   15   17      0.30      0.00
    6   15   17     -0.09      0.00
    7   15   17     -0.32      0.00
    8   15   17      0.03      0.00
    9   15   17      0.48      0.00
   10   15   17      0.42      0.00
   11   15   17     -0.06      0.00
   -8  -13   18      0.03      0.00
   -7  -13   18      0.28      0.00
   -6  -13   18      0.49      0.00
   -5  -13   18      0.21      0.00
   -4  -13   18     -0.07      0.00
  -10  -12   18      0.38      0.00
   -9  -12   18      0.07      0.00
   -8  -12   18      0.16      0.00
   -7  -12   18      0.25      0.00
   -6  -12   18     -0.23      0.00
   -5  -12   18     -0.57      0.00
   -4  -12   18     -0.34      0.00
   -3  -12   18     -0.24      0.00
   -2  -12   18     -0.30      0.00
   -1  -12   18     -0.06      0.00
  -11  -11   18     -0.17      0.00
  -10  -11   18     -0.27      0.00
   -9  -11   18     -0.02      0.00
   -8  -11   18      0.06      0.00
   -7  -11   18     -0.38      0.00
   -6  -11   18     -0.44      0.00
   -5  -11   18      0.23      0.00
   -4  -11   18      0.61      0.00
   -3  -11   18      0.54      0.00
   -2  -11   18      0.63      0.00
   -1  -11   18      0.62      0.00
    0  -11   18      0.28      0.00
    1  -11   18     -0.09      0.00
  -12  -10   18     -0.05      0.00
  -11  -10   18     -0.06      0.00
  -10  -10   18     -0.01      0.00
   -9  -10   18     -0.09      0.00
    0  -10   18     -0.75      0.00
    1  -10   18     -0.59      0.00
    2  -10   18     -0.14      0.00
    3  -10   18      0.31      0.00
  -13   -9   18     -0.15      0.00
  -12   -9   18     -0.09      0.00
  -11   -9   18      0.03      0.00
  -10   -9   18      0.17      0.00
    2   -9   18      1.00      0.00
    3   -9   18      0.44      0.00
    4   -9   18     -0.19      0.00
  -13   -8   18      0.10      0.00
  -12   -8   18      0.27      0.00
  -11   -8   18      0.18      0.00
    3   -8   18     -1.37      0.00
    4   -8   18     -0.69      0.00
    5   -8   18      0.04      0.00
  -13   -7   18      0.24      0.00
  -12   -7   18     -0.13      0.00
  -11   -7   18     -0.32      0.00
    5   -7   18      0.69      0.00
    6   -7   18      0.00      0.00
  -13   -6   18     -0.33      0.00
  -12   -6   18     -0.20      0.00
  -11   -6   18      0.13      0.00
  -10   -6   18      0.27      0.00
   -9   -6   18      0.29      0.00
    6   -6   18     -0.34      0.00
    7   -6   18      0.11      0.00
  -13   -5   18      0.08      0.00
  -12   -5   18      0.12      0.00
  -11   -5   18      0.04      0.00
  -10   -5   18     -0.06      0.00
   -9   -5   18     -0.27      0.00
   -8   -5   18     -0.39      0.00
    7   -5   18     -0.09      0.00
    8   -5   18     -0.20      0.00
  -13   -4   18     -0.02      0.00
  -12   -4   18      0.08      0.00
  -11   -4   18      0.11      0.00
  -10   -4   18     -0.02      0.00
   -9   -4   18      0.03      0.00
   -8   -4   18      0.39      0.00
   -7   -4   18      0.34      0.00
    8   -4   18      0.31      0.00
    9   -4   18      0.10      0.00
  -13   -3   18      0.02      0.00
  -12   -3   18      0.04      0.00
  -11   -3   18     -0.10      0.00
  -10   -3   18     -0.05      0.00
   -9   -3   18      0.05      0.00
   -8   -3   18     -0.23      0.00
   -7   -3   18     -0.53      0.00
   -6   -3   18     -0.10      0.00
    9   -3   18     -0.27      0.00
   10   -3   18      0.17      0.00
  -13   -2   18      0.03      0.00
  -12   -2   18     -0.08      0.00
  -11   -2   18     -0.04      0.00
  -10   -2   18     -0.09      0.00
   -9   -2   18     -0.10      0.00
   -8   -2   18      0.16      0.00
   -7   -2   18      0.61      0.00
   -6   -2   18      0.63      0.00
   -5   -2   18     -0.16      0.00
    9   -2   18      0.64      0.00
   10   -2   18      0.10      0.00
  -12   -1   18      0.06      0.00
  -11   -1   18     -0.11      0.00
  -10   -1   18      0.03      0.00
   -9   -1   18      0.28      0.00
   -8   -1   18      0.06      0.00
   -7   -1   18     -0.51      0.00
   -6   -1   18     -0.96      0.00
   -5   -1   18     -0.71      0.00
   -4   -1   18      0.22      0.00
   10   -1   18     -0.69      0.00
   11   -1   18      0.06      0.00
  -12    0   18     -0.16      0.00
  -11    0   18      0.09      0.00
  -10    0   18      0.34      0.00
   -9    0   18     -0.04      0.00
   -8    0   18     -0.30      0.00
   -7    0   18      0.08      0.00
   -6    0   18      0.70      0.00
   -5    0   18      1.06      0.00
   -4    0   18      0.76      0.00
   11    0   18      0.57      0.00
   12    0   18     -0.10      0.00
  -12    1   18      0.05      0.00
  -11    1   18      0.23      0.00
  -10    1   18     -0.16      0.00
   -9    1   18     -0.34      0.00
   -8    1   18      0.04      0.00
   -7    1   18      0.22      0.00
   -6    1   18     -0.09      0.00
   -5    1   18     -0.48      0.00
   -4    1   18     -0.72      0.00
   -3    1   18     -0.72      0.00
   11    1   18     -0.89      0.00
   12    1   18     -0.38      0.00
  -11    2   18     -0.20      0.00
  -10    2   18     -0.32      0.00
   -9    2   18      0.04      0.00
   -8    2   18      0.19      0.00
   -7    2   18     -0.01      0.00
   -6    2   18     -0.12      0.00
   -5    2   18     -0.15      0.00
   -4    2   18     -0.21      0.00
   -3    2   18      0.02      0.00
   11    2   18      0.61      0.00
   12    2   18      0.51      0.00
   13    2   18      0.28      0.00
  -11    3   18     -0.04      0.00
  -10    3   18      0.25      0.00
   -9    3   18      0.34      0.00
   -8    3   18      0.09      0.00
   -7    3   18     -0.07      0.00
   -6    3   18     -0.09      0.00
   -5    3   18      0.06      0.00
   -4    3   18      0.63      0.00
   -3    3   18      1.08      0.00
   12    3   18     -0.26      0.00
   13    3   18     -0.17      0.00
  -10    4   18      0.00      0.00
   -9    4   18     -0.17      0.00
   -8    4   18     -0.22      0.00
   -7    4   18     -0.12      0.00
   -6    4   18      0.05      0.00
   -5    4   18      0.26      0.00
   -4    4   18     -0.14      0.00
   -3    4   18     -1.16      0.00
   12    4   18     -0.22      0.00
   13    4   18     -0.05      0.00
   -9    5   18      0.03      0.00
   -8    5   18      0.04      0.00
   -7    5   18      0.05      0.00
   -6    5   18      0.06      0.00
   -5    5   18     -0.23      0.00
   -4    5   18     -0.39      0.00
   12    5   18      0.77      0.00
   13    5   18      0.23      0.00
   -9    6   18     -0.07      0.00
   -8    6   18     -0.04      0.00
   -7    6   18      0.05      0.00
   -6    6   18      0.07      0.00
   -5    6   18      0.17      0.00
   -4    6   18      0.52      0.00
   12    6   18     -0.84      0.00
   13    6   18     -0.38      0.00
   14    6   18      0.04      0.00
   -8    7   18     -0.02      0.00
   -7    7   18      0.00      0.00
   -6    7   18     -0.06      0.00
   -5    7   18     -0.16      0.00
   12    7   18      0.41      0.00
   13    7   18      0.29      0.00
   14    7   18     -0.09      0.00
   -7    8   18      0.18      0.00
   -6    8   18      0.01      0.00
   -5    8   18     -0.05      0.00
   12    8   18      0.01      0.00
   13    8   18     -0.08      0.00
   14    8   18      0.11      0.00
   -6    9   18     -0.21      0.00
   -5    9   18      0.16      0.00
   -4    9   18      0.25      0.00
   12    9   18     -0.36      0.00
   13    9   18     -0.07      0.00
   14    9   18     -0.08      0.00
   -5   10   18      0.06      0.00
   -4   10   18     -0.40      0.00
   -3   10   18     -0.41      0.00
   12   10   18      0.56      0.00
   13   10   18      0.25      0.00
   -4   11   18      0.10      0.00
   -3   11   18      0.46      0.00
   -2   11   18      0.37      0.00
   -1   11   18     -0.03      0.00
   11   11   18     -0.06      0.00
   12   11   18     -0.35      0.00
   13   11   18     -0.31      0.00
   -2   12   18     -0.24      0.00
   -1   12   18     -0.22      0.00
    0   12   18     -0.07      0.00
    1   12   18     -0.03      0.00
   10   12   18     -0.50      0.00
   11   12   18     -0.35      0.00
   12   12   18     -0.02      0.00
   13   12   18      0.17      0.00
   -1   13   18     -0.05      0.00
    0   13   18      0.12      0.00
    1   13   18      0.22      0.00
    2   13   18      0.18      0.00
    3   13   18     -0.05      0.00
    4   13   18     -0.17      0.00
    5   13   18     -0.06      0.00
    6   13   18      0.08      0.00
    7   13   18      0.02      0.00
    8   13   18     -0.18      0.00
    9   13   18     -0.02      0.00
   10   13   18      0.42      0.00
   11   13   18      0.51      0.00
   12   13   18      0.24      0.00
    1   14   18     -0.12      0.00
    2   14   18     -0.30      0.00
    3   14   18     -0.11      0.00
    4   14   18      0.17      0.00
    5   14   18      0.02      0.00
    6   14   18     -0.25      0.00
    7   14   18     -0.14      0.00
    8   14   18      0.27      0.00
    9   14   18      0.41      0.00
   10   14   18      0.02      0.00
   11   14   18     -0.36      0.00
    4   15   18     -0.12      0.00
    5   15   18     -0.21      0.00
    6   15   18      0.15      0.00
    7   15   18      0.32      0.00
    8   15   18     -0.02      0.00
    9   15   18     -0.41      0.00
   -8  -12   19     -0.18      0.00
   -7  -12   19     -0.34      0.00
   -6  -12   19      0.05      0.00
   -5  -12   19      0.40      0.00
   -4  -12   19      0.21      0.00
   -3  -12   19      0.07      0.00
  -10  -11   19      0.14      0.00
   -9  -11   19      0.11      0.00
   -8  -11   19      0.03      0.00
   -7  -11   19      0.30      0.00
   -6  -11   19      0.36      0.00
   -5  -11   19     -0.14      0.00
   -4  -11   19     -0.46      0.00
   -3  -11   19     -0.39      0.00
   -2  -11   19     -0.45      0.00
   -1  -11   19     -0.54      0.00
    0  -11   19     -0.35      0.00
  -11  -10   19      0.09      0.00
  -10  -10   19      0.21      0.00
   -9  -10   19      0.14      0.00
   -8  -10   19      0.09      0.00
   -7  -10   19     -0.07      0.00
   -6  -10   19     -0.39      0.00
   -5  -10   19     -0.34      0.00
   -4  -10   19      0.11      0.00
   -3  -10   19      0.40      0.00
   -2  -10   19      0.48      0.00
   -1  -10   19      0.54      0.00
    0  -10   19      0.62      0.00
    1  -10   19      0.56      0.00
  -12   -9   19      0.27      0.00
  -11   -9   19      0.16      0.00
  -10   -9   19     -0.16      0.00
   -9   -9   19     -0.41      0.00
    0   -9   19     -0.21      0.00
    1   -9   19     -0.55      0.00
    2   -9   19     -0.75      0.00
    3   -9   19     -0.29      0.00
  -12   -8   19     -0.31      0.00
  -11   -8   19     -0.36      0.00
  -10   -8   19     -0.20      0.00
    2   -8   19      0.61      0.00
    3   -8   19      0.88      0.00
    4   -8   19      0.39      0.00
  -12   -7   19      0.10      0.00
  -11   -7   19      0.31      0.00
  -10   -7   19      0.34      0.00
    3   -7   19     -0.74      0.00
    4   -7   19     -0.79      0.00
    5   -7   19     -0.35      0.00
  -12   -6   19      0.09      0.00
  -11   -6   19     -0.14      0.00
  -10   -6   19     -0.20      0.00
   -9   -6   19     -0.34      0.00
    5   -6   19      0.39      0.00
    6   -6   19      0.13      0.00
    7   -6   19     -0.07      0.00
  -12   -5   19      0.01      0.00
  -11   -5   19      0.15      0.00
  -10   -5   19      0.06      0.00
   -9   -5   19      0.11      0.00
   -8   -5   19      0.36      0.00
    6   -5   19      0.13      0.00
    7   -5   19      0.18      0.00
  -12   -4   19     -0.06      0.00
  -11   -4   19     -0.27      0.00
  -10   -4   19     -0.12      0.00
   -9   -4   19      0.11      0.00
   -8   -4   19     -0.15      0.00
   -7   -4   19     -0.30      0.00
    7   -4   19     -0.45      0.00
    8   -4   19     -0.36      0.00
  -12   -3   19     -0.06      0.00
  -11   -3   19      0.10      0.00
  -10   -3   19      0.14      0.00
   -9   -3   19     -0.13      0.00
   -8   -3   19     -0.11      0.00
   -7   -3   19      0.32      0.00
   -6   -3   19      0.21      0.00
    8   -3   19      0.54      0.00
    9   -3   19      0.32      0.00
  -12   -2   19      0.04      0.00
  -11   -2   19      0.05      0.00
  -10   -2   19      0.03      0.00
   -9   -2   19      0.14      0.00
   -8   -2   19      0.22      0.00
   -7   -2   19     -0.13      0.00
   -6   -2   19     -0.57      0.00
   -5   -2   19     -0.22      0.00
    8   -2   19     -0.46      0.00
    9   -2   19     -0.54      0.00
   10   -2   19     -0.13      0.00
  -12   -1   19     -0.08      0.00
  -11   -1   19      0.04      0.00
  -10   -1   19      0.05      0.00
   -9   -1   19     -0.11      0.00
   -8   -1   19     -0.19      0.00
   -7   -1   19     -0.06      0.00
   -6   -1   19      0.43      0.00
   -5   -1   19      0.79      0.00
   -4   -1   19      0.33      0.00
    9   -1   19      0.56      0.00
   10   -1   19      0.48      0.00
  -11    0   19      0.06      0.00
  -10    0   19     -0.23      0.00
   -9    0   19     -0.17      0.00
   -8    0   19      0.01      0.00
   -7    0   19      0.07      0.00
   -6    0   19     -0.05      0.00
   -5    0   19     -0.48      0.00
   -4    0   19     -0.80      0.00
   10    0   19     -0.60      0.00
   11    0   19     -0.33      0.00
  -11    1   19     -0.23      0.00
  -10    1   19      0.01      0.00
   -9    1   19      0.26      0.00
   -8    1   19      0.20      0.00
   -7    1   19      0.08      0.00
   -6    1   19     -0.06      0.00
   -5    1   19     -0.14      0.00
   -4    1   19      0.13      0.00
   -3    1   19      0.62      0.00
   10    1   19      0.31      0.00
   11    1   19      0.43      0.00
  -11    2   19      0.13      0.00
  -10    2   19      0.22      0.00
   -9    2   19      0.03      0.00
   -8    2   19     -0.09      0.00
   -7    2   19     -0.08      0.00
   -6    2   19     -0.06      0.00
   -5    2   19      0.22      0.00
   -4    2   19      0.61      0.00
   -3    2   19      0.44      0.00
   11    2   19     -0.30      0.00
   12    2   19     -0.21      0.00
  -10    3   19     -0.10      0.00
   -9    3   19     -0.12      0.00
   -8    3   19     -0.09      0.00
   -7    3   19     -0.14      0.00
   -6    3   19     -0.03      0.00
   -5    3   19      0.03      0.00
   -4    3   19     -0.48      0.00
   -3    3   19     -1.09      0.00
   11    3   19     -0.02      0.00
   12    3   19      0.13      0.00
   -9    4   19      0.00      0.00
   -8    4   19     -0.06      0.00
   -7    4   19      0.08      0.00
   -6    4   19      0.21      0.00
   -5    4   19     -0.02      0.00
   -4    4   19      0.03      0.00
   -3    4   19      0.75      0.00
   11    4   19      0.56      0.00
   12    4   19      0.04      0.00
   13    4   19      0.00      0.00
   -9    5   19     -0.04      0.00
   -8    5   19      0.07      0.00
   -7    5   19      0.19      0.00
   -6    5   19      0.00      0.00
   -5    5   19     -0.02      0.00
   -4    5   19      0.17      0.00
   -3    5   19     -0.19      0.00
   11    5   19     -0.84      0.00
   12    5   19     -0.40      0.00
   13    5   19     -0.07      0.00
   -8    6   19      0.11      0.00
   -7    6   19     -0.07      0.00
   -6    6   19     -0.23      0.00
   -5    6   19     -0.19      0.00
   -4    6   19     -0.30      0.00
   11    6   19      0.66      0.00
   12    6   19      0.55      0.00
   13    6   19      0.17      0.00
   -7    7   19     -0.10      0.00
   -6    7   19      0.05      0.00
   -5    7   19      0.23      0.00
   11    7   19     -0.31      0.00
   12    7   19     -0.37      0.00
   13    7   19     -0.11      0.00
   -6    8   19      0.03      0.00
   -5    8   19     -0.01      0.00
   11    8   19     -0.25      0.00
   12    8   19      0.05      0.00
   13    8   19     -0.02      0.00
   -5    9   19     -0.01      0.00
   -4    9   19     -0.04      0.00
   -3    9   19      0.16      0.00
   11    9   19      0.75      0.00
   12    9   19      0.37      0.00
   13    9   19      0.12      0.00
   -4   10   19      0.02      0.00
   -3   10   19      0.09      0.00
   -2   10   19      0.00      0.00
   10   10   19     -0.52      0.00
   11   10   19     -0.69      0.00
   12   10   19     -0.53      0.00
   13   10   19     -0.21      0.00
   -3   11   19      0.01      0.00
   -2   11   19     -0.13      0.00
   -1   11   19     -0.18      0.00
    0   11   19     -0.16      0.00
    9   11   19     -0.06      0.00
   10   11   19      0.06      0.00
   11   11   19      0.24      0.00
   12   11   19      0.26      0.00
   -1   12   19      0.17      0.00
    0   12   19      0.31      0.00
    1   12   19      0.23      0.00
    2   12   19      0.02      0.00
    3   12   19     -0.08      0.00
    4   12   19     -0.20      0.00
    7   12   19     -0.29      0.00
    8   12   19     -0.13      0.00
    9   12   19      0.19      0.00
   10   12   19      0.29      0.00
   11   12   19      0.14      0.00
   12   12   19      0.04      0.00
    1   13   19     -0.30      0.00
    2   13   19     -0.17      0.00
    3   13   19      0.00      0.00
    4   13   19      0.00      0.00
    5   13   19     -0.02      0.00
    6   13   19      0.08      0.00
    7   13   19      0.24      0.00
    8   13   19      0.28      0.00
    9   13   19      0.01      0.00
   10   13   19     -0.30      0.00
   11   13   19     -0.30      0.00
    3   14   19      0.01      0.00
    4   14   19     -0.08      0.00
    5   14   19      0.05      0.00
    6   14   19      0.17      0.00
    7   14   19      0.01      0.00
    8   14   19     -0.25      0.00
    9   14   19     -0.29      0.00
   -8  -11   20      0.01      0.00
   -7  -11   20     -0.15      0.00
   -6  -11   20     -0.23      0.00
   -5  -11   20      0.09      0.00
   -4  -11   20      0.37      0.00
   -3  -11   20      0.36      0.00
   -9  -10   20     -0.25      0.00
   -8  -10   20     -0.13      0.00
   -7  -10   20     -0.04      0.00
   -6  -10   20      0.09      0.00
   -5  -10   20      0.08      0.00
   -4  -10   20     -0.13      0.00
   -3  -10   20     -0.35      0.00
   -2  -10   20     -0.41      0.00
   -1  -10   20     -0.38      0.00
    0  -10   20     -0.41      0.00
  -10   -9   20      0.01      0.00
   -9   -9   20      0.36      0.00
   -8   -9   20      0.39      0.00
   -7   -9   20      0.17      0.00
   -6   -9   20     -0.03      0.00
   -5   -9   20     -0.11      0.00
   -4   -9   20     -0.10      0.00
   -3   -9   20      0.00      0.00
   -2   -9   20      0.18      0.00
   -1   -9   20      0.15      0.00
    0   -9   20      0.01      0.00
    1   -9   20      0.21      0.00
    2   -9   20      0.41      0.00
  -11   -8   20      0.28      0.00
  -10   -8   20      0.27      0.00
   -9   -8   20     -0.02      0.00
   -8   -8   20     -0.42      0.00
    0   -8   20      0.31      0.00
    1   -8   20      0.28      0.00
    2   -8   20     -0.24      0.00
    3   -8   20     -0.46      0.00
  -11   -7   20     -0.10      0.00
  -10   -7   20     -0.15      0.00
   -9   -7   20     -0.24      0.00
    2   -7   20     -0.06      0.00
    3   -7   20      0.49      0.00
    4   -7   20      0.45      0.00
  -12   -6   20     -0.02      0.00
  -11   -6   20      0.01      0.00
  -10   -6   20     -0.09      0.00
   -9   -6   20      0.10      0.00
    3   -6   20     -0.34      0.00
    4   -6   20     -0.49      0.00
    5   -6   20     -0.20      0.00
    6   -6   20     -0.02      0.00
  -12   -5   20     -0.05      0.00
  -11   -5   20     -0.13      0.00
  -10   -5   20      0.14      0.00
   -9   -5   20      0.15      0.00
   -8   -5   20     -0.25      0.00
    5   -5   20      0.09      0.00
    6   -5   20     -0.17      0.00
    7   -5   20     -0.22      0.00
  -12   -4   20      0.00      0.00
  -11   -4   20      0.23      0.00
  -10   -4   20      0.04      0.00
   -9   -4   20     -0.29      0.00
   -8   -4   20      0.04      0.00
   -7   -4   20      0.40      0.00
    6   -4   20      0.29      0.00
    7   -4   20      0.40      0.00
  -11   -3   20     -0.07      0.00
  -10   -3   20     -0.14      0.00
   -9   -3   20      0.24      0.00
   -8   -3   20      0.29      0.00
   -7   -3   20     -0.29      0.00
   -6   -3   20     -0.41      0.00
    7   -3   20     -0.36      0.00
    8   -3   20     -0.44      0.00
  -11   -2   20     -0.09      0.00
  -10   -2   20      0.06      0.00
   -9   -2   20     -0.07      0.00
   -8   -2   20     -0.39      0.00
   -7   -2   20     -0.17      0.00
   -6   -2   20      0.45      0.00
   -5   -2   20      0.35      0.00
    7   -2   20     -0.13      0.00
    8   -2   20      0.32      0.00
    9   -2   20      0.40      0.00
  -11   -1   20      0.08      0.00
  -10   -1   20     -0.06      0.00
   -9   -1   20     -0.09      0.00
   -8   -1   20      0.12      0.00
   -7   -1   20      0.36      0.00
   -6   -1   20      0.05      0.00
   -5   -1   20     -0.49      0.00
   -4   -1   20     -0.38      0.00
    8   -1   20      0.19      0.00
    9   -1   20     -0.36      0.00
   10   -1   20     -0.34      0.00
  -11    0   20     -0.09      0.00
  -10    0   20      0.09      0.00
   -9    0   20      0.18      0.00
   -8    0   20      0.15      0.00
   -7    0   20     -0.06      0.00
   -6    0   20     -0.28      0.00
   -5    0   20     -0.04      0.00
   -4    0   20      0.44      0.00
    9    0   20     -0.03      0.00
   10    0   20      0.34      0.00
  -10    1   20      0.02      0.00
   -9    1   20     -0.07      0.00
   -8    1   20     -0.11      0.00
   -7    1   20     -0.14      0.00
   -6    1   20      0.01      0.00
   -5    1   20      0.27      0.00
   -4    1   20      0.19      0.00
   -3    1   20     -0.28      0.00
    9    1   20      0.55      0.00
   10    1   20     -0.11      0.00
   11    1   20     -0.17      0.00
  -10    2   20     -0.05      0.00
   -9    2   20     -0.04      0.00
   -8    2   20     -0.11      0.00
   -7    2   20     -0.09      0.00
   -6    2   20      0.08      0.00
   -5    2   20     -0.01      0.00
   -4    2   20     -0.38      0.00
   -3    2   20     -0.49      0.00
   10    2   20     -0.14      0.00
   11    2   20      0.11      0.00
   -9    3   20     -0.03      0.00
   -8    3   20      0.04      0.00
   -7    3   20      0.27      0.00
   -6    3   20      0.22      0.00
   -5    3   20     -0.06      0.00
   -4    3   20      0.08      0.00
   -3    3   20      0.60      0.00
   10    3   20      0.34      0.00
   11    3   20     -0.07      0.00
   -9    4   20      0.02      0.00
   -8    4   20      0.16      0.00
   -7    4   20      0.00      0.00
   -6    4   20     -0.27      0.00
   -5    4   20     -0.12      0.00
   -4    4   20      0.06      0.00
   -3    4   20     -0.28      0.00
   10    4   20     -0.31      0.00
   11    4   20     -0.12      0.00
   12    4   20      0.04      0.00
   -8    5   20     -0.04      0.00
   -7    5   20     -0.20      0.00
   -6    5   20     -0.04      0.00
   -5    5   20      0.07      0.00
   -4    5   20     -0.08      0.00
   -3    5   20      0.06      0.00
   10    5   20      0.19      0.00
   11    5   20      0.27      0.00
   12    5   20      0.14      0.00
   -7    6   20     -0.01      0.00
   -6    6   20      0.12      0.00
   -5    6   20      0.11      0.00
   -4    6   20      0.18      0.00
   -3    6   20      0.12      0.00
   10    6   20     -0.22      0.00
   11    6   20     -0.33      0.00
   12    6   20     -0.23      0.00
   -6    7   20      0.02      0.00
   -5    7   20     -0.09      0.00
   -4    7   20     -0.22      0.00
   10    7   20     -0.01      0.00
   11    7   20      0.29      0.00
   12    7   20      0.22      0.00
   -5    8   20      0.08      0.00
   -4    8   20      0.17      0.00
   -3    8   20      0.19      0.00
   10    8   20      0.53      0.00
   11    8   20      0.11      0.00
   12    8   20     -0.11      0.00
   -4    9   20     -0.19      0.00
   -3    9   20     -0.16      0.00
   -2    9   20      0.07      0.00
   10    9   20     -0.69      0.00
   11    9   20     -0.53      0.00
   12    9   20     -0.17      0.00
   -3   10   20      0.18      0.00
   -2   10   20     -0.02      0.00
   -1   10   20     -0.34      0.00
    0   10   20     -0.25      0.00
    9   10   20     -0.02      0.00
   10   10   20      0.37      0.00
   11   10   20      0.49      0.00
   12   10   20      0.29      0.00
   -2   11   20     -0.04      0.00
   -1   11   20      0.22      0.00
    0   11   20      0.37      0.00
    1   11   20      0.11      0.00
    2   11   20     -0.20      0.00
    3   11   20     -0.35      0.00
    6   11   20     -0.44      0.00
    7   11   20     -0.19      0.00
    8   11   20      0.17      0.00
    9   11   20      0.31      0.00
   10   11   20      0.02      0.00
   11   11   20     -0.21      0.00
    0   12   20     -0.22      0.00
    1   12   20     -0.17      0.00
    2   12   20     -0.01      0.00
    3   12   20      0.01      0.00
    4   12   20      0.05      0.00
    5   12   20      0.25      0.00
    6   12   20      0.38      0.00
    7   12   20      0.32      0.00
    8   12   20      0.04      0.00
    9   12   20     -0.29      0.00
   10   12   20     -0.25      0.00
    2   13   20     -0.02      0.00
    3   13   20      0.02      0.00
    4   13   20      0.15      0.00
    5   13   20      0.13      0.00
    6   13   20     -0.06      0.00
    7   13   20     -0.23      0.00
    8   13   20     -0.22      0.00
    9   13   20      0.01      0.00
   -7  -10   21      0.08      0.00
   -6  -10   21      0.05      0.00
   -5  -10   21      0.00      0.00
   -4  -10   21      0.00      0.00
   -3  -10   21      0.11      0.00
   -2  -10   21      0.21      0.00
   -9   -9   21     -0.10      0.00
   -8   -9   21     -0.21      0.00
   -7   -9   21     -0.09      0.00
   -6   -9   21     -0.01      0.00
   -5   -9   21     -0.05      0.00
   -4   -9   21     -0.01      0.00
   -3   -9   21      0.03      0.00
   -2   -9   21     -0.08      0.00
   -1   -9   21     -0.08      0.00
    0   -9   21      0.05      0.00
  -10   -8   21     -0.18      0.00
   -9   -8   21     -0.21      0.00
   -8   -8   21      0.02      0.00
   -7   -8   21      0.10      0.00
   -6   -8   21     -0.12      0.00
   -5   -8   21     -0.24      0.00
   -4   -8   21     -0.14      0.00
   -3   -8   21     -0.06      0.00
   -2   -8   21      0.05      0.00
   -1   -8   21      0.06      0.00
    0   -8   21     -0.19      0.00
    1   -8   21     -0.22      0.00
    2   -8   21      0.11      0.00
  -10   -7   21     -0.03      0.00
   -9   -7   21      0.24      0.00
   -8   -7   21      0.27      0.00
   -7   -7   21      0.04      0.00
   -6   -7   21      0.10      0.00
   -1   -7   21     -0.34      0.00
    0   -7   21     -0.02      0.00
    1   -7   21      0.29      0.00
    2   -7   21     -0.01      0.00
    3   -7   21     -0.33      0.00
  -10   -6   21      0.15      0.00
   -9   -6   21     -0.06      0.00
   -8   -6   21     -0.34      0.00
    2   -6   21     -0.10      0.00
    3   -6   21      0.39      0.00
    4   -6   21      0.38      0.00
    5   -6   21      0.08      0.00
  -11   -5   21      0.15      0.00
  -10   -5   21     -0.11      0.00
   -9   -5   21     -0.10      0.00
   -8   -5   21      0.28      0.00
   -7   -5   21      0.23      0.00
    3   -5   21     -0.16      0.00
    4   -5   21     -0.44      0.00
    5   -5   21     -0.12      0.00
    6   -5   21      0.12      0.00
  -11   -4   21     -0.24      0.00
  -10   -4   21     -0.02      0.00
   -9   -4   21      0.28      0.00
   -8   -4   21     -0.04      0.00
   -7   -4   21     -0.35      0.00
   -6   -4   21      0.09      0.00
    4   -4   21      0.31      0.00
    5   -4   21      0.20      0.00
    6   -4   21     -0.17      0.00
    7   -4   21     -0.29      0.00
  -11   -3   21      0.07      0.00
  -10   -3   21      0.09      0.00
   -9   -3   21     -0.30      0.00
   -8   -3   21     -0.38      0.00
   -7   -3   21      0.16      0.00
   -6   -3   21      0.25      0.00
    5   -3   21     -0.41      0.00
    6   -3   21     -0.08      0.00
    7   -3   21      0.27      0.00
  -10   -2   21      0.00      0.00
   -9   -2   21      0.14      0.00
   -8   -2   21      0.47      0.00
   -7   -2   21      0.31      0.00
   -6   -2   21     -0.21      0.00
   -5   -2   21     -0.17      0.00
    6   -2   21      0.59      0.00
    7   -2   21      0.15      0.00
    8   -2   21     -0.29      0.00
  -10   -1   21     -0.07      0.00
   -9   -1   21     -0.03      0.00
   -8   -1   21     -0.16      0.00
   -7   -1   21     -0.35      0.00
   -6   -1   21     -0.16      0.00
   -5   -1   21      0.21      0.00
   -4   -1   21      0.16      0.00
    7   -1   21     -0.70      0.00
    8   -1   21     -0.15      0.00
    9   -1   21      0.30      0.00
  -10    0   21      0.05      0.00
   -9    0   21      0.01      0.00
   -8    0   21     -0.01      0.00
   -7    0   21      0.03      0.00
   -6    0   21      0.14      0.00
   -5    0   21      0.07      0.00
   -4    0   21     -0.11      0.00
    8    0   21      0.58      0.00
    9    0   21      0.03      0.00
   -9    1   21     -0.02      0.00
   -8    1   21     -0.07      0.00
   -7    1   21     -0.03      0.00
   -6    1   21      0.04      0.00
   -5    1   21     -0.03      0.00
   -4    1   21     -0.16      0.00
   -3    1   21     -0.15      0.00
    8    1   21     -0.59      0.00
    9    1   21     -0.27      0.00
   10    1   21      0.03      0.00
   -9    2   21     -0.02      0.00
   -8    2   21      0.10      0.00
   -7    2   21      0.25      0.00
   -6    2   21      0.14      0.00
   -5    2   21     -0.05      0.00
   -4    2   21      0.06      0.00
   -3    2   21      0.39      0.00
    9    2   21      0.23      0.00
   10    2   21      0.00      0.00
   -8    3   21      0.06      0.00
   -7    3   21     -0.19      0.00
   -6    3   21     -0.34      0.00
   -5    3   21     -0.12      0.00
   -4    3   21      0.05      0.00
   -3    3   21     -0.18      0.00
    9    3   21      0.06      0.00
   10    3   21      0.05      0.00
   11    3   21      0.09      0.00
   -8    4   21     -0.13      0.00
   -7    4   21     -0.06      0.00
   -6    4   21      0.18      0.00
   -5    4   21      0.17      0.00
   -4    4   21     -0.03      0.00
   -3    4   21     -0.01      0.00
    9    4   21     -0.21      0.00
   10    4   21     -0.16      0.00
   11    4   21     -0.07      0.00
   -7    5   21      0.08      0.00
   -6    5   21     -0.01      0.00
   -5    5   21     -0.03      0.00
   -4    5   21      0.12      0.00
   -3    5   21      0.11      0.00
    9    5   21     -0.06      0.00
   10    5   21      0.05      0.00
   11    5   21      0.02      0.00
   -6    6   21      0.07      0.00
   -5    6   21      0.04      0.00
   -4    6   21     -0.13      0.00
   -3    6   21     -0.19      0.00
    9    6   21      0.18      0.00
   10    6   21      0.28      0.00
   11    6   21      0.16      0.00
   -5    7   21     -0.09      0.00
   -4    7   21      0.03      0.00
   -3    7   21      0.07      0.00
    9    7   21      0.12      0.00
   10    7   21     -0.23      0.00
   11    7   21     -0.33      0.00
   -4    8   21     -0.11      0.00
   -3    8   21     -0.05      0.00
   -2    8   21      0.21      0.00
    8    8   21     -0.02      0.00
    9    8   21     -0.26      0.00
   10    8   21     -0.21      0.00
   11    8   21      0.07      0.00
   -3    9   21      0.31      0.00
   -2    9   21     -0.08      0.00
   -1    9   21     -0.44      0.00
    0    9   21     -0.05      0.00
    8    9   21     -0.37      0.00
    9    9   21      0.04      0.00
   10    9   21      0.39      0.00
   11    9   21      0.29      0.00
   -2   10   21     -0.27      0.00
   -1   10   21      0.27      0.00
    0   10   21      0.45      0.00
    1   10   21     -0.03      0.00
    2   10   21     -0.44      0.00
    3   10   21     -0.49      0.00
    4   10   21     -0.33      0.00
    5   10   21     -0.09      0.00
    6   10   21      0.02      0.00
    7   10   21      0.18      0.00
    8   10   21      0.40      0.00
    9   10   21      0.21      0.00
   10   10   21     -0.22      0.00
    0   11   21     -0.31      0.00
    1   11   21     -0.30      0.00
    2   11   21     -0.03      0.00
    3   11   21      0.12      0.00
    4   11   21      0.23      0.00
    5   11   21      0.30      0.00
    6   11   21      0.33      0.00
    7   11   21      0.21      0.00
    8   11   21     -0.17      0.00
    9   11   21     -0.32      0.00
   10   11   21     -0.04      0.00
    2   12   21      0.14      0.00
    3   12   21      0.15      0.00
    4   12   21      0.12      0.00
    5   12   21     -0.08      0.00
    6   12   21     -0.30      0.00
    7   12   21     -0.38      0.00
    8   12   21     -0.14      0.00
    9   12   21      0.19      0.00
   -6   -9   22      0.05      0.00
   -5   -9   22      0.21      0.00
   -4   -9   22      0.21      0.00
   -3   -9   22      0.05      0.00
   -2   -9   22      0.01      0.00
   -8   -8   22      0.24      0.00
   -7   -8   22      0.07      0.00
   -6   -8   22      0.07      0.00
   -5   -8   22      0.06      0.00
   -4   -8   22     -0.04      0.00
   -3   -8   22     -0.10      0.00
   -2   -8   22     -0.13      0.00
   -1   -8   22     -0.06      0.00
    0   -8   22      0.17      0.00
   -9   -7   22     -0.06      0.00
   -8   -7   22     -0.25      0.00
   -7   -7   22     -0.14      0.00
   -6   -7   22     -0.08      0.00
   -5   -7   22     -0.23      0.00
   -4   -7   22     -0.35      0.00
   -3   -7   22     -0.27      0.00
   -2   -7   22      0.10      0.00
   -1   -7   22      0.37      0.00
    0   -7   22      0.10      0.00
    1   -7   22     -0.19      0.00
    2   -7   22      0.05      0.00
   -9   -6   22     -0.12      0.00
   -8   -6   22      0.09      0.00
   -7   -6   22      0.06      0.00
   -6   -6   22      0.00      0.00
   -5   -6   22      0.19      0.00
   -4   -6   22      0.47      0.00
   -3   -6   22      0.63      0.00
   -2   -6   22      0.34      0.00
   -1   -6   22     -0.37      0.00
    0   -6   22     -0.58      0.00
    1   -6   22     -0.12      0.00
    2   -6   22     -0.05      0.00
    3   -6   22     -0.39      0.00
   -9   -5   22      0.17      0.00
   -8   -5   22     -0.09      0.00
   -7   -5   22     -0.03      0.00
   -6   -5   22      0.21      0.00
    1   -5   22      0.44      0.00
    2   -5   22      0.10      0.00
    3   -5   22      0.29      0.00
    4   -5   22      0.40      0.00
  -10   -4   22     -0.08      0.00
   -9   -4   22     -0.28      0.00
   -8   -4   22      0.00      0.00
   -7   -4   22      0.22      0.00
    2   -4   22     -0.03      0.00
    3   -4   22     -0.09      0.00
    4   -4   22     -0.31      0.00
    5   -4   22     -0.14      0.00
  -10   -3   22      0.07      0.00
   -9   -3   22      0.29      0.00
   -8   -3   22      0.25      0.00
   -7   -3   22     -0.15      0.00
   -6   -3   22     -0.15      0.00
   -5   -3   22      0.37      0.00
    4   -3   22      0.13      0.00
    5   -3   22      0.25      0.00
    6   -3   22     -0.01      0.00
   -9   -2   22     -0.22      0.00
   -8   -2   22     -0.29      0.00
   -7   -2   22     -0.10      0.00
   -6   -2   22      0.16      0.00
   -5   -2   22     -0.02      0.00
    5   -2   22     -0.19      0.00
    6   -2   22     -0.29      0.00
    7   -2   22     -0.04      0.00
   -9   -1   22      0.18      0.00
   -8   -1   22      0.20      0.00
   -7   -1   22      0.10      0.00
   -6   -1   22     -0.03      0.00
   -5   -1   22     -0.05      0.00
   -4   -1   22      0.14      0.00
    6   -1   22      0.22      0.00
    7   -1   22      0.32      0.00
    8   -1   22      0.04      0.00
   -9    0   22     -0.04      0.00
   -8    0   22     -0.20      0.00
   -7    0   22     -0.12      0.00
   -6    0   22      0.06      0.00
   -5    0   22      0.08      0.00
   -4    0   22     -0.06      0.00
    6    0   22      0.14      0.00
    7    0   22     -0.18      0.00
    8    0   22     -0.21      0.00
   -9    1   22     -0.12      0.00
   -8    1   22      0.10      0.00
   -7    1   22      0.28      0.00
   -6    1   22      0.09      0.00
   -5    1   22     -0.17      0.00
   -4    1   22     -0.08      0.00
   -3    1   22      0.21      0.00
    7    1   22     -0.09      0.00
    8    1   22      0.08      0.00
    9    1   22      0.06      0.00
   -8    2   22      0.11      0.00
   -7    2   22     -0.20      0.00
   -6    2   22     -0.32      0.00
   -5    2   22      0.00      0.00
   -4    2   22      0.27      0.00
   -3    2   22     -0.01      0.00
    7    2   22     -0.01      0.00
    8    2   22      0.09      0.00
    9    2   22      0.03      0.00
   -8    3   22     -0.15      0.00
   -7    3   22     -0.08      0.00
   -6    3   22      0.18      0.00
   -5    3   22      0.14      0.00
   -4    3   22     -0.19      0.00
   -3    3   22     -0.25      0.00
    8    3   22     -0.02      0.00
    9    3   22     -0.20      0.00
   10    3   22     -0.09      0.00
   -7    4   22      0.11      0.00
   -6    4   22      0.05      0.00
   -5    4   22      0.02      0.00
   -4    4   22      0.16      0.00
   -3    4   22      0.28      0.00
    8    4   22     -0.24      0.00
    9    4   22      0.16      0.00
   10    4   22      0.24      0.00
   -6    5   22      0.05      0.00
   -5    5   22     -0.06      0.00
   -4    5   22     -0.24      0.00
   -3    5   22     -0.31      0.00
    8    5   22      0.18      0.00
    9    5   22      0.18      0.00
   10    5   22     -0.11      0.00
   -5    6   22     -0.16      0.00
   -4    6   22      0.08      0.00
   -3    6   22      0.21      0.00
    8    6   22      0.19      0.00
    9    6   22     -0.25      0.00
   10    6   22     -0.25      0.00
   -4    7   22      0.03      0.00
   -3    7   22      0.02      0.00
   -2    7   22      0.07      0.00
   -1    7   22     -0.14      0.00
    7    7   22     -0.25      0.00
    8    7   22     -0.18      0.00
    9    7   22      0.02      0.00
   10    7   22      0.25      0.00
   -3    8   22      0.15      0.00
   -2    8   22     -0.28      0.00
   -1    8   22     -0.34      0.00
    0    8   22      0.20      0.00
    1    8   22      0.49      0.00
    6    8   22     -0.47      0.00
    7    8   22     -0.32      0.00
    8    8   22     -0.20      0.00
    9    8   22     -0.01      0.00
   10    8   22      0.00      0.00
   -2    9   22     -0.12      0.00
   -1    9   22      0.53      0.00
    0    9   22      0.34      0.00
    1    9   22     -0.34      0.00
    2    9   22     -0.57      0.00
    3    9   22     -0.23      0.00
    4    9   22      0.27      0.00
    5    9   22      0.43      0.00
    6    9   22      0.28      0.00
    7    9   22      0.33      0.00
    8    9   22      0.41      0.00
    9    9   22      0.18      0.00
   10    9   22     -0.05      0.00
   -1   10   22     -0.10      0.00
    0   10   22     -0.51      0.00
    1   10   22     -0.14      0.00
    2   10   22      0.37      0.00
    3   10   22      0.45      0.00
    4   10   22      0.23      0.00
    5   10   22      0.08      0.00
    6   10   22      0.12      0.00
    7   10   22     -0.03      0.00
    8   10   22     -0.34      0.00
    9   10   22     -0.32      0.00
    1   11   22      0.22      0.00
    2   11   22     -0.06      0.00
    3   11   22     -0.22      0.00
    4   11   22     -0.21      0.00
    5   11   22     -0.21      0.00
    6   11   22     -0.31      0.00
    7   11   22     -0.26      0.00
    8   11   22      0.10      0.00
   -4   -8   23      0.02      0.00
   -7   -7   23      0.17      0.00
   -6   -7   23      0.10      0.00
   -5   -7   23      0.11      0.00
   -4   -7   23      0.24      0.00
   -3   -7   23      0.28      0.00
   -2   -7   23     -0.02      0.00
   -1   -7   23     -0.35      0.00
    0   -7   23     -0.20      0.00
   -8   -6   23      0.00      0.00
   -7   -6   23     -0.08      0.00
   -6   -6   23     -0.08      0.00
   -5   -6   23     -0.12      0.00
   -4   -6   23     -0.22      0.00
   -3   -6   23     -0.45      0.00
   -2   -6   23     -0.38      0.00
   -1   -6   23      0.23      0.00
    0   -6   23      0.54      0.00
    1   -6   23      0.23      0.00
    2   -6   23      0.14      0.00
   -8   -5   23      0.08      0.00
   -7   -5   23      0.03      0.00
   -6   -5   23     -0.14      0.00
   -5   -5   23     -0.07      0.00
   -4   -5   23      0.12      0.00
   -3   -5   23      0.34      0.00
   -2   -5   23      0.52      0.00
   -1   -5   23      0.22      0.00
    0   -5   23     -0.38      0.00
    1   -5   23     -0.43      0.00
    2   -5   23     -0.18      0.00
    3   -5   23     -0.25      0.00
   -8   -4   23     -0.08      0.00
   -7   -4   23     -0.15      0.00
   -6   -4   23      0.18      0.00
   -5   -4   23      0.41      0.00
   -4   -4   23      0.18      0.00
   -3   -4   23     -0.20      0.00
   -2   -4   23     -0.46      0.00
   -1   -4   23     -0.43      0.00
    0   -4   23     -0.07      0.00
    1   -4   23      0.17      0.00
    2   -4   23      0.08      0.00
    3   -4   23      0.09      0.00
    4   -4   23      0.18      0.00
   -8   -3   23     -0.02      0.00
   -7   -3   23      0.13      0.00
   -6   -3   23      0.00      0.00
   -5   -3   23     -0.39      0.00
   -4   -3   23     -0.50      0.00
    1   -3   23      0.08      0.00
    2   -3   23      0.19      0.00
    3   -3   23      0.19      0.00
    4   -3   23      0.00      0.00
    5   -3   23     -0.05      0.00
   -8   -2   23      0.08      0.00
   -7   -2   23     -0.10      0.00
   -6   -2   23     -0.09      0.00
   -5   -2   23      0.11      0.00
    2   -2   23     -0.16      0.00
    3   -2   23     -0.36      0.00
    4   -2   23     -0.27      0.00
    5   -2   23     -0.08      0.00
    6   -2   23      0.00      0.00
   -8   -1   23     -0.23      0.00
   -7   -1   23      0.09      0.00
   -6   -1   23      0.21      0.00
   -5   -1   23      0.07      0.00
   -4   -1   23     -0.11      0.00
    4   -1   23      0.31      0.00
    5   -1   23      0.27      0.00
    6   -1   23      0.12      0.00
    7   -1   23     -0.02      0.00
   -8    0   23      0.26      0.00
   -7    0   23      0.17      0.00
   -6    0   23     -0.20      0.00
   -5    0   23     -0.25      0.00
   -4    0   23     -0.03      0.00
    4    0   23     -0.05      0.00
    5    0   23     -0.15      0.00
    6    0   23     -0.20      0.00
    7    0   23     -0.09      0.00
   -7    1   23     -0.30      0.00
   -6    1   23     -0.16      0.00
   -5    1   23      0.23      0.00
   -4    1   23      0.23      0.00
   -3    1   23     -0.11      0.00
    5    1   23     -0.18      0.00
    6    1   23     -0.09      0.00
    7    1   23      0.06      0.00
    8    1   23      0.04      0.00
   -7    2   23     -0.01      0.00
   -6    2   23      0.31      0.00
   -5    2   23      0.09      0.00
   -4    2   23     -0.26      0.00
   -3    2   23     -0.10      0.00
    5    2   23      0.14      0.00
    6    2   23      0.43      0.00
    7    2   23      0.23      0.00
    8    2   23     -0.02      0.00
   -6    3   23     -0.01      0.00
   -5    3   23     -0.15      0.00
   -4    3   23      0.11      0.00
   -3    3   23      0.25      0.00
    6    3   23     -0.17      0.00
    7    3   23     -0.44      0.00
    8    3   23     -0.09      0.00
    9    3   23      0.14      0.00
   -6    4   23     -0.12      0.00
   -5    4   23     -0.07      0.00
   -4    4   23     -0.14      0.00
   -3    4   23     -0.27      0.00
   -2    4   23     -0.14      0.00
    6    4   23     -0.63      0.00
    7    4   23      0.08      0.00
    8    4   23      0.21      0.00
    9    4   23     -0.15      0.00
   -5    5   23      0.03      0.00
   -4    5   23      0.17      0.00
   -3    5   23      0.29      0.00
   -2    5   23      0.26      0.00
   -1    5   23      0.01      0.00
    5    5   23      0.75      0.00
    6    5   23      1.01      0.00
    7    5   23      0.53      0.00
    8    5   23     -0.04      0.00
    9    5   23     -0.07      0.00
   -4    6   23     -0.02      0.00
   -3    6   23     -0.10      0.00
   -2    6   23     -0.19      0.00
   -1    6   23     -0.21      0.00
    0    6   23     -0.03      0.00
    4    6   23      0.46      0.00
    5    6   23     -0.09      0.00
    6    6   23     -0.52      0.00
    7    6   23     -0.51      0.00
    8    6   23     -0.16      0.00
    9    6   23      0.15      0.00
   -3    7   23      0.00      0.00
   -2    7   23     -0.13      0.00
   -1    7   23      0.09      0.00
    0    7   23      0.31      0.00
    1    7   23      0.18      0.00
    2    7   23     -0.23      0.00
    3    7   23     -0.66      0.00
    4    7   23     -0.73      0.00
    5    7   23     -0.41      0.00
    6    7   23     -0.13      0.00
    7    7   23     -0.07      0.00
    8    7   23     -0.10      0.00
    9    7   23     -0.16      0.00
   -2    8   23      0.09      0.00
   -1    8   23      0.27      0.00
    0    8   23     -0.18      0.00
    1    8   23     -0.51      0.00
    2    8   23     -0.28      0.00
    3    8   23      0.25      0.00
    4    8   23      0.60      0.00
    5    8   23      0.50      0.00
    6    8   23      0.35      0.00
    7    8   23      0.42      0.00
    8    8   23      0.46      0.00
    9    8   23      0.33      0.00
    0    9   23     -0.16      0.00
    1    9   23      0.36      0.00
    2    9   23      0.53      0.00
    3    9   23      0.19      0.00
    4    9   23     -0.25      0.00
    5    9   23     -0.34      0.00
    6    9   23     -0.23      0.00
    7    9   23     -0.33      0.00
    8    9   23     -0.47      0.00
    2   10   23     -0.35      0.00
    3   10   23     -0.27      0.00
    4   10   23      0.02      0.00
    5   10   23      0.13      0.00
    6   10   23      0.02      0.00
    7   10   23      0.07      0.00
    0    0    0      0.00      0.00
# SQUEEZE RESULTS
# Note: Data are Listed for all Voids in the P1 Unit Cell
# i.e. Centre of Gravity, Solvent Accessible Volume,
# Recovered number of Electrons in the Void and
# Details about the Squeezed Material
loop_
  _platon_squeeze_void_nr
  _platon_squeeze_void_average_x
  _platon_squeeze_void_average_y
  _platon_squeeze_void_average_z
  _platon_squeeze_void_volume
  _platon_squeeze_void_count_electrons
  _platon_squeeze_void_content
   1  0.000  0.500  0.500       308        39 ' '
   2  0.069  0.597  0.937         7         0 ' '
   3  0.930  0.403  0.062         7         0 ' '
_platon_squeeze_details
(replace by semicolon in column 1 when used as .sqf)
TITL 11 in P-1
CELL   14.6040   15.0120   19.8520     85.56     88.97     62.44
SPGR P-1
# Solvent Accessible Volume =     325.7
# Electrons Found in S.A.V. =      38.8
# Note: Atoms in Void as Cxxx and Qxxx all others
C101 0.795 0.625 0.448 !       5.10 eA-3
C102 0.121 0.333 0.418 !       4.58 eA-3
C103 0.923 0.618 0.438 !       2.82 eA-3
C104 0.043 0.354 0.516 !       2.63 eA-3
Q105 0.032 0.745 0.733 !       2.11 eA-3
Q106 0.297 0.115 0.671 !       2.00 eA-3
Q107 0.516 0.854 0.577 !       1.89 eA-3
Q108 0.795 0.969 0.490 !       1.89 eA-3
Q109 0.786 0.441 0.288 !       1.88 eA-3
Q110 0.433 0.179 0.355 !       1.88 eA-3
Q111 0.971 0.125 0.394 !       1.82 eA-3
C112 0.825 0.657 0.510 !       1.79 eA-3
C113 0.178 0.378 0.455 !       1.79 eA-3
Q114 0.061 0.072 0.614 !       1.78 eA-3
Q115 0.374 0.674 0.768 !       1.76 eA-3
Q116 0.817 0.218 0.486 !       1.68 eA-3
Q117 0.780 0.108 0.513 !       1.66 eA-3
Q118 0.548 0.743 0.762 !       1.58 eA-3
Q119 0.921 1.002 0.439 !       1.58 eA-3
Q120 0.457 0.934 0.595 !       1.55 eA-3
Q121 0.738 0.318 0.342 !       1.53 eA-3
Q122 0.754 0.977 0.188 !       1.50 eA-3
Q123 0.301 0.563 0.594 !       1.48 eA-3
Q124 0.514 0.995 0.049 !       1.39 eA-3
Q125 0.841 0.131 0.468 !       1.36 eA-3
Q126 0.738 0.104 0.127 !       1.36 eA-3
Q127 0.543 0.028 0.124 !       1.35 eA-3
Q128 0.391 0.821 0.865 !       1.34 eA-3
Q129 0.311 0.074 0.598 !       1.32 eA-3
Q130 0.814 0.852 0.291 !       1.31 eA-3
Q131 0.689 0.891 0.394 !       1.28 eA-3
Q132 0.627 0.495 0.351 !       1.27 eA-3
Q133 0.515 0.207 0.482 !       1.23 eA-3
Q134 0.686 0.170 0.527 !       1.22 eA-3
Q135 0.859 0.075 0.325 !       1.19 eA-3
Q136 0.610 0.685 0.658 !       1.17 eA-3
Q137 0.652 0.948 0.280 !       1.14 eA-3
Q138 0.656 0.357 0.332 !       1.14 eA-3
Q139 0.536 0.924 0.926 !       1.11 eA-3
Q140 0.452 0.953 0.674 !       1.10 eA-3
Q141 0.512 0.859 0.703 !       1.08 eA-3
Q142 0.732 0.299 0.496 !       1.06 eA-3
Q143 0.371 0.995 0.564 !       1.06 eA-3
Q144 0.684 0.309 0.492 !       0.97 eA-3
Q145 0.667 0.293 0.389 !       0.97 eA-3
Q146 0.558 0.265 0.275 !       0.95 eA-3
Q147 0.624 0.123 0.360 !       0.95 eA-3
Q148 0.563 1.002 0.375 !       0.94 eA-3
Q149 0.296 0.750 0.595 !       0.91 eA-3
Q150 0.816 0.391 0.204 !       0.90 eA-3
Q151 0.200 0.738 0.690 !       0.89 eA-3
Q152 0.799 0.062 0.247 !       0.89 eA-3
Q153 0.334 0.970 0.515 !       0.88 eA-3
Q154 0.294 0.051 0.516 !       0.87 eA-3
Q155 0.826 0.399 0.346 !       0.86 eA-3
Q156 0.590 0.950 0.095 !       0.86 eA-3
Q157 0.079 0.928 0.561 !       0.85 eA-3
Q158 0.595 0.112 0.186 !       0.85 eA-3
Q159 0.659 0.371 0.126 !       0.84 eA-3
Q160 0.329 0.999 0.779 !       0.82 eA-3
Q161 0.341 0.711 0.480 !       0.82 eA-3
C162 0.969 0.367 0.531 !       0.81 eA-3
Q163 0.161 0.983 0.515 !       0.80 eA-3
Q164 0.356 0.746 0.590 !       0.80 eA-3
Q165 0.733 0.319 0.277 !       0.79 eA-3
Q166 0.137 0.862 0.719 !       0.78 eA-3
Q167 0.221 0.154 0.051 !       0.78 eA-3
Q168 0.433 0.613 0.777 !       0.77 eA-3
Q169 0.441 0.786 0.686 !       0.77 eA-3
Q170 0.455 0.719 0.615 !       0.77 eA-3
Q171 0.638 0.113 0.516 !       0.77 eA-3
Q172 0.499 0.335 0.152 !       0.76 eA-3
Q173 0.141 0.507 0.330 !       0.75 eA-3
Q174 0.794 0.393 0.400 !       0.73 eA-3
Q175 0.488 0.852 0.764 !       0.73 eA-3
Q176 0.543 0.279 0.323 !       0.73 eA-3
Q177 0.500 1.000 0.000 !       0.72 eA-3
Q178 0.748 0.160 0.207 !       0.72 eA-3
Q179 0.114 0.137 0.612 !       0.72 eA-3
Q180 0.875 0.461 0.692 !       0.71 eA-3
Q181 0.046 0.251 0.858 !       0.71 eA-3
Q182 0.566 0.293 0.249 !       0.70 eA-3
C183 0.062 0.489 0.424 !       0.70 eA-3
C184 0.093 0.517 0.466 !       0.69 eA-3
Q185 0.375 0.791 0.628 !       0.68 eA-3
Q186 0.490 0.094 0.827 !       0.68 eA-3
Q187 0.018 0.134 0.280 !       0.67 eA-3
Q188 0.344 0.723 0.690 !       0.66 eA-3
Q189 0.750 0.872 0.450 !       0.66 eA-3
Q190 0.193 0.104 0.546 !       0.66 eA-3
Q191 0.314 0.857 0.631 !       0.65 eA-3
Q192 0.574 0.727 0.518 !       0.65 eA-3
Q193 0.594 0.214 0.247 !       0.64 eA-3
Q194 0.299 0.661 0.770 !       0.64 eA-3
Q195 0.141 0.718 0.562 !       0.64 eA-3
Q196 0.641 0.254 0.286 !       0.63 eA-3
Q197 0.447 0.248 0.394 !       0.63 eA-3
Q198 0.997 0.963 0.485 !       0.62 eA-3
Q199 0.458 0.933 0.846 !       0.62 eA-3
(replace by semicolon in column 1 when used as .sqf)
;
_shelx_fab_checksum              38041
loop_
_space_group_symop_operation_xyz
'x, y, z'
'-x, -y, -z'
loop_
_atom_site_label
_atom_site_type_symbol
_atom_site_fract_x
_atom_site_fract_y
_atom_site_fract_z
_atom_site_U_iso_or_equiv
_atom_site_adp_type
_atom_site_occupancy
_atom_site_site_symmetry_order
_atom_site_calc_flag
_atom_site_refinement_flags_posn
_atom_site_refinement_flags_adp
_atom_site_refinement_flags_occupancy
_atom_site_disorder_assembly
_atom_site_disorder_group
Lu1 Lu 0.75611(10) 0.21649(9) 0.20436(6) 0.0222(3) Uani 0.2498 1 d . . P A 1
Lu2 Lu 0.8232(5) 0.2035(4) 0.2442(3) 0.0446(13) Uani 0.0776 1 d . . P A 1
Lu3 Lu 0.83217(11) 0.12425(10) 0.23343(7) 0.0261(3) Uani 0.2625 1 d . . P A 1
Lu4 Lu 0.84848(9) 0.05771(8) 0.28631(7) 0.0245(3) Uani 0.2604 1 d . . P A 1
Lu5 Lu 0.761(3) 0.0472(19) 0.284(2) 0.141(9) Uani 0.0357 1 d . U P A 1
Lu6 Lu 0.786(2) 0.114(2) 0.2236(18) 0.168(9) Uani 0.0517 1 d . U P A 1
Lu7 Lu 0.800(3) 0.0372(18) 0.3458(18) 0.219(11) Uani 0.0623 1 d . U P A 1
Lu8 Lu 0.56711(13) 0.34417(11) 0.31357(9) 0.0270(4) Uani 0.2545 1 d . U P A 1
Lu9 Lu 0.57237(12) 0.30136(10) 0.36300(9) 0.0318(4) Uani 0.2561 1 d . U P A 1
Lu10 Lu 0.5520(4) 0.2429(4) 0.3600(3) 0.0508(14) Uani 0.0804 1 d . U P A 1
Lu11 Lu 0.63568(10) 0.22388(9) 0.41121(6) 0.0236(3) Uani 0.2413 1 d . U P A 1
Lu12 Lu 0.6130(14) 0.3279(12) 0.3740(9) 0.115(4) Uani 0.0616 1 d . U P A 1
Lu13 Lu 0.5740(13) 0.3233(12) 0.2998(10) 0.193(6) Uani 0.1062 1 d . U P A 1
C1E C 0.7288(9) 0.2304(8) 0.3142(5) 0.050(2) Uani 1 1 d . U . A 1
C2E C 0.7196(11) 0.1616(9) 0.3278(6) 0.070(4) Uani 1 1 d . U . A 1
C1 C 0.8232(14) -0.0852(12) 0.2116(11) 0.096(4) Uani 1 1 d . U . B 2
C2 C 0.9305(9) -0.1059(7) 0.2379(7) 0.063(3) Uani 1 1 d . U . B 2
C3 C 0.9603(8) -0.0406(7) 0.2001(6) 0.053(3) Uani 1 1 d . U . B 2
C4 C 0.8839(10) 0.0187(8) 0.1480(7) 0.061(3) Uani 1 1 d . U . B 2
C5 C 0.7931(12) 0.0018(10) 0.1580(9) 0.087(4) Uani 1 1 d . U . B 2
C6 C 0.6936(15) 0.0726(13) 0.1496(9) 0.096(4) Uani 1 1 d . U . B 2
C7 C 0.6766(16) 0.1609(12) 0.1203(7) 0.091(4) Uani 1 1 d . U . B 2
C8 C 0.7643(12) 0.1843(10) 0.1026(7) 0.072(3) Uani 1 1 d . U . B 2
C9 C 0.8692(11) 0.1160(9) 0.1217(7) 0.066(3) Uani 1 1 d . U . B 2
C10 C 0.9299(10) 0.1573(9) 0.1496(6) 0.060(3) Uani 1 1 d . U . B 2
C11 C 0.9951(9) 0.1030(9) 0.2067(6) 0.057(3) Uani 1 1 d . U . B 2
C12 C 1.0088(8) 0.0060(8) 0.2334(6) 0.050(2) Uani 1 1 d . U . B 2
C13 C 1.0221(9) -0.0087(8) 0.3051(6) 0.055(3) Uani 1 1 d . U . B 2
C14 C 0.9913(9) -0.0761(9) 0.3409(7) 0.071(4) Uani 1 1 d D U . B 2
C15 C 0.9534(10) -0.1280(8) 0.3082(9) 0.075(4) Uani 1 1 d . U . B 2
C16 C 0.8808(11) -0.1538(9) 0.3464(9) 0.081(4) Uani 1 1 d . U . B 2
C17 C 0.7911(16) -0.1426(9) 0.3108(10) 0.099(5) Uani 1 1 d . U . B 2
C18 C 0.7526(19) -0.0938(15) 0.2534(13) 0.123(5) Uani 1 1 d . U . B 2
C19 C 0.6477(13) -0.0227(12) 0.2455(10) 0.097(5) Uani 1 1 d . U . B 2
C20 C 0.6101(12) 0.0743(13) 0.1965(7) 0.081(4) Uani 1 1 d D U . B 2
C21 C 0.5219(13) 0.1605(12) 0.2163(8) 0.083(4) Uani 1 1 d D U . B 2
C22 C 0.5089(13) 0.2551(14) 0.1767(9) 0.090(4) Uani 1 1 d . U . B 2
C23 C 0.5806(10) 0.2575(10) 0.1301(6) 0.063(3) Uani 1 1 d . U . B 2
C24 C 0.6114(11) 0.3345(9) 0.1197(6) 0.070(3) Uani 1 1 d . U . B 2
C25 C 0.7223(11) 0.2910(9) 0.1040(6) 0.066(3) Uani 1 1 d . U . B 2
C26 C 0.7805(10) 0.3328(9) 0.1304(7) 0.066(3) Uani 1 1 d . U . B 2
C27 C 0.8852(9) 0.2645(9) 0.1542(6) 0.059(3) Uani 1 1 d . U . B 2
C28 C 0.9210(10) 0.2861(10) 0.2148(8) 0.079(4) Uani 1 1 d D U . B 2
C29 C 0.9936(10) 0.1744(11) 0.2505(8) 0.078(3) Uani 1 1 d D U . B 2
C30 C 0.9971(12) 0.1641(14) 0.3151(11) 0.092(4) Uani 1 1 d . U . B 2
C31 C 1.0093(10) 0.0729(11) 0.3425(7) 0.075(4) Uani 1 1 d D U . B 2
C32 C 0.9563(12) 0.0678(13) 0.4148(7) 0.098(5) Uani 1 1 d D U . B 2
C33 C 0.9477(11) -0.0362(13) 0.4133(7) 0.105(5) Uani 1 1 d D U . B 2
C34 C 0.9047(15) 0.1456(18) 0.4479(9) 0.121(6) Uani 1 1 d . U . B 2
C35 C 0.9083(14) 0.2402(14) 0.4145(10) 0.099(5) Uani 1 1 d . U . B 2
C36 C 0.9455(11) 0.2565(15) 0.3509(11) 0.098(4) Uani 1 1 d . U . B 2
C37 C 0.8771(15) 0.3569(16) 0.3255(11) 0.104(5) Uani 1 1 d . U . B 2
C38 C 0.8682(16) 0.3636(14) 0.2508(12) 0.108(5) Uani 1 1 d . U . B 2
C39 C 0.7783(12) 0.4305(10) 0.2277(9) 0.087(3) Uani 1 1 d . U . B 2
C40 C 0.7279(11) 0.4218(8) 0.1682(7) 0.071(3) Uani 1 1 d . U . B 2
C41 C 0.6221(10) 0.4650(8) 0.1772(7) 0.066(3) Uani 1 1 d . U . B 2
C42 C 0.5622(10) 0.4193(9) 0.1535(7) 0.069(3) Uani 1 1 d . U . B 2
C43 C 0.4773(9) 0.4235(9) 0.1913(7) 0.067(3) Uani 1 1 d . U . B 2
C44 C 0.4563(10) 0.3412(11) 0.1997(7) 0.078(3) Uani 1 1 d D U . B 2
C45 C 0.4038(10) 0.3426(11) 0.2725(7) 0.074(3) Uani 1 1 d D U . B 2
C46 C 0.4166(16) 0.2598(18) 0.3060(13) 0.122(5) Uani 1 1 d . U . B 2
C47 C 0.4720(14) 0.1608(16) 0.2761(12) 0.112(5) Uani 1 1 d . U . B 2
C48 C 0.5042(14) 0.0813(15) 0.3106(10) 0.129(5) Uani 1 1 d D U . B 2
C49 C 0.5870(15) -0.0110(12) 0.3059(8) 0.101(4) Uani 1 1 d D U . B 2
C50 C 0.6078(17) -0.0511(14) 0.3735(10) 0.130(6) Uani 1 1 d D U . B 2
C51 C 0.7002(15) -0.1079(11) 0.3671(12) 0.104(4) Uani 1 1 d . U . B 2
C52 C 0.7548(14) -0.1036(9) 0.4328(8) 0.104(5) Uani 1 1 d D U . B 2
C53 C 0.8573(12) -0.1216(9) 0.4163(7) 0.083(4) Uani 1 1 d D U . B 2
C54 C 0.6832(11) 0.4955(8) 0.2767(9) 0.078(4) Uani 1 1 d . U . B 2
C55 C 0.5964(10) 0.5111(7) 0.2392(8) 0.073(3) Uani 1 1 d . U . B 2
C56 C 0.5079(10) 0.5185(7) 0.2779(8) 0.070(3) Uani 1 1 d . U . B 2
C57 C 0.4484(10) 0.4788(9) 0.2527(8) 0.075(4) Uani 1 1 d . U . B 2
C58 C 0.4008(9) 0.4332(9) 0.2973(7) 0.067(3) Uani 1 1 d . U . B 2
C59 C 0.4113(9) 0.4317(9) 0.3696(7) 0.067(3) Uani 1 1 d . U . B 2
C60 C 0.4751(10) 0.4694(8) 0.3945(7) 0.068(3) Uani 1 1 d . U . B 2
C61 C 0.5226(9) 0.5126(7) 0.3474(8) 0.069(3) Uani 1 1 d . U . B 2
C62 C 0.4047(12) 0.3472(11) 0.4030(8) 0.079(4) Uani 1 1 d . U . B 2
C63 C 0.4033(19) 0.2637(19) 0.3682(12) 0.143(7) Uani 1 1 d D U . B 2
C64 C 0.4714(19) 0.0894(18) 0.3767(11) 0.170(8) Uani 1 1 d D U . B 2
C65 C 0.455(2) 0.1726(17) 0.4242(11) 0.141(6) Uani 1 1 d D U . B 2
C66 C 0.554(2) 0.0237(19) 0.4178(10) 0.146(7) Uani 1 1 d D U . B 2
C67 C 0.617(2) 0.0199(15) 0.4753(11) 0.135(7) Uani 1 1 d . U . B 2
C68 C 0.7114(17) -0.0367(12) 0.4815(8) 0.119(6) Uani 1 1 d D U . B 2
C69 C 0.4640(12) 0.3003(11) 0.4653(8) 0.084(4) Uani 1 1 d D U . B 2
C70 C 0.4878(17) 0.1903(13) 0.4765(9) 0.113(6) Uani 1 1 d D U . B 2
C71 C 0.7049(16) 0.4740(13) 0.3458(14) 0.121(5) Uani 1 1 d . U . B 2
C72 C 0.6232(14) 0.4887(11) 0.3774(10) 0.109(5) Uani 1 1 d D U . B 2
C73 C 0.5411(11) 0.4152(12) 0.4511(7) 0.084(4) Uani 1 1 d . U . B 2
C74 C 0.5366(13) 0.3305(13) 0.4882(7) 0.094(5) Uani 1 1 d . U . B 2
C75 C 0.8039(12) 0.3955(12) 0.3791(12) 0.104(5) Uani 1 1 d . U . B 2
C76 C 0.8254(14) 0.3216(17) 0.4313(8) 0.114(4) Uani 1 1 d D U . B 2
C77 C 0.7255(13) 0.3316(15) 0.4725(8) 0.125(4) Uani 1 1 d D U . B 2
C78 C 0.6413(14) 0.4157(14) 0.4452(8) 0.118(4) Uani 1 1 d D U . B 2
C79 C 0.7356(16) 0.2257(15) 0.4996(9) 0.136(3) Uani 1 1 d D U . B 2
C80 C 0.6389(17) 0.2553(17) 0.5113(9) 0.138(4) Uani 1 1 d . U . B 2
C81 C 0.8197(16) 0.1313(13) 0.4893(8) 0.133(4) Uani 1 1 d D U . B 2
C82 C 0.7302(15) 0.0396(15) 0.5028(8) 0.143(4) Uani 1 1 d D U . B 2
C83 C 0.578(2) 0.1237(18) 0.5031(9) 0.142(4) Uani 1 1 d . U . B 2
C84 C 0.6516(19) 0.1423(18) 0.5186(9) 0.141(4) Uani 1 1 d . U . B 2
C85 C 0.8863(14) -0.0564(12) 0.4473(8) 0.130(5) Uani 1 1 d D U . B 2
C86 C 0.8285(14) 0.0202(13) 0.4871(7) 0.134(4) Uani 1 1 d D U . B 2
Ni1A Ni 0.52253(6) 0.01905(6) 0.08297(5) 0.0175(2) Uani 1 1 d . . . C 3
C1A C 0.6752(5) 0.0269(5) -0.0169(4) 0.0213(14) Uani 1 1 d . U . C 3
N2A N 0.3969(4) 0.1490(4) 0.0820(3) 0.0181(12) Uani 1 1 d . . . C 3
C2A C 0.6925(5) 0.0935(5) -0.0659(4) 0.0221(15) Uani 1 1 d . U . C 3
N3A N 0.4663(4) -0.0349(4) 0.1563(3) 0.0199(12) Uani 1 1 d . . . C 3
C4A C 0.8709(6) 0.0768(7) -0.0560(5) 0.038(2) Uani 1 1 d . U . C 3
H4AA H 0.9338 0.0599 -0.0799 0.058 Uiso 1 1 calc R U . C 3
H4AB H 0.8848 0.0313 -0.0164 0.058 Uiso 1 1 calc R U . C 3
H4AC H 0.8431 0.1446 -0.0431 0.058 Uiso 1 1 calc R U . C 3
N4A N 0.6500(4) -0.1090(4) 0.0872(3) 0.0182(12) Uani 1 1 d . . . C 3
C5A C 0.6047(6) 0.1825(5) -0.0681(4) 0.0223(15) Uani 1 1 d . U . C 3
C6A C 0.5839(6) 0.2795(5) -0.1085(4) 0.0269(16) Uani 1 1 d . U . C 3
H6AA H 0.5116 0.3149 -0.1224 0.032 Uiso 1 1 calc R U . C 3
H6AB H 0.6250 0.2642 -0.1489 0.032 Uiso 1 1 calc R U . C 3
C7A C 0.6096(8) 0.3470(6) -0.0677(5) 0.042(2) Uani 1 1 d . U . C 3
H7AA H 0.6049 0.4034 -0.0966 0.062 Uiso 1 1 calc R U . C 3
H7AB H 0.6785 0.3094 -0.0493 0.062 Uiso 1 1 calc R U . C 3
H7AC H 0.5617 0.3709 -0.0316 0.062 Uiso 1 1 calc R U . C 3
C8A C 0.5361(6) 0.1701(5) -0.0206(4) 0.0216(15) Uani 1 1 d . U . C 3
C9A C 0.4397(6) 0.2451(5) -0.0070(4) 0.0222(15) Uani 1 1 d . U . C 3
H9A H 0.4165 0.3068 -0.0321 0.027 Uiso 1 1 calc R U . C 3
C10A C 0.3756(5) 0.2355(5) 0.0407(4) 0.0218(15) Uani 1 1 d . U . C 3
C11A C 0.2757(6) 0.3165(5) 0.0551(4) 0.0252(15) Uani 1 1 d . U . C 3
C12A C 0.2300(6) 0.4208(5) 0.0205(5) 0.0310(18) Uani 1 1 d . U . C 3
H12A H 0.1557 0.4530 0.0256 0.037 Uiso 1 1 calc R U . C 3
H12B H 0.2439 0.4162 -0.0274 0.037 Uiso 1 1 calc R U . C 3
C13A C 0.2730(7) 0.4863(6) 0.0486(5) 0.040(2) Uani 1 1 d . U . C 3
H13A H 0.2404 0.5523 0.0254 0.060 Uiso 1 1 calc R U . C 3
H13B H 0.3462 0.4563 0.0420 0.060 Uiso 1 1 calc R U . C 3
H13C H 0.2592 0.4914 0.0960 0.060 Uiso 1 1 calc R U . C 3
C14A C 0.2359(6) 0.2796(5) 0.1057(4) 0.0287(16) Uani 1 1 d . U . C 3
C15A C 0.1359(6) 0.3315(6) 0.1415(5) 0.037(2) Uani 1 1 d . U . C 3
H15A H 0.1050 0.2865 0.1474 0.045 Uiso 1 1 calc R U . C 3
H15B H 0.0890 0.3906 0.1136 0.045 Uiso 1 1 calc R U . C 3
C16A C 0.1482(8) 0.3635(7) 0.2104(6) 0.048(2) Uani 1 1 d . U . C 3
H16A H 0.0817 0.3975 0.2304 0.073 Uiso 1 1 calc R U . C 3
H16B H 0.1786 0.4081 0.2050 0.073 Uiso 1 1 calc R U . C 3
H16C H 0.1920 0.3050 0.2391 0.073 Uiso 1 1 calc R U . C 3
C17A C 0.2996(6) 0.1120(5) 0.1710(4) 0.0253(15) Uani 1 1 d . U . C 3
H17A H 0.2384 0.1371 0.1949 0.030 Uiso 1 1 calc R U . C 3
C18A C 0.3725(6) 0.0146(5) 0.1870(4) 0.0220(14) Uani 1 1 d . U . C 3
C19A C 0.3603(6) -0.0495(5) 0.2414(4) 0.0251(15) Uani 1 1 d . U . C 3
C20A C 0.2711(7) -0.0155(6) 0.2869(5) 0.039(2) Uani 1 1 d . U . C 3
H20A H 0.2710 -0.0743 0.3108 0.047 Uiso 1 1 calc R U . C 3
H20B H 0.2081 0.0186 0.2597 0.047 Uiso 1 1 calc R U . C 3
C21A C 0.2701(9) 0.0541(7) 0.3381(5) 0.052(3) Uani 1 1 d . U . C 3
H21A H 0.2119 0.0702 0.3669 0.078 Uiso 1 1 calc R U . C 3
H21B H 0.2650 0.1149 0.3150 0.078 Uiso 1 1 calc R U . C 3
H21C H 0.3327 0.0216 0.3649 0.078 Uiso 1 1 calc R U . C 3
C22A C 0.4475(6) -0.1389(5) 0.2420(4) 0.0238(15) Uani 1 1 d . U . C 3
C23A C 0.4760(6) -0.2312(5) 0.2896(4) 0.0299(17) Uani 1 1 d . U . C 3
H23A H 0.5063 -0.2903 0.2640 0.036 Uiso 1 1 calc R U . C 3
H23B H 0.4138 -0.2278 0.3100 0.036 Uiso 1 1 calc R U . C 3
C24A C 0.5521(7) -0.2427(6) 0.3455(4) 0.037(2) Uani 1 1 d . U . C 3
H24A H 0.5631 -0.2995 0.3762 0.056 Uiso 1 1 calc R U . C 3
H24B H 0.5244 -0.1828 0.3694 0.056 Uiso 1 1 calc R U . C 3
H24C H 0.6165 -0.2532 0.3259 0.056 Uiso 1 1 calc R U . C 3
C25A C 0.5119(5) -0.1289(5) 0.1895(4) 0.0201(14) Uani 1 1 d . U . C 3
C26A C 0.6743(5) -0.1950(5) 0.1296(4) 0.0222(15) Uani 1 1 d . U . C 3
C27A C 0.7771(6) -0.2729(5) 0.1186(4) 0.0253(16) Uani 1 1 d . U . C 3
C28A C 0.8267(6) -0.3742(5) 0.1572(5) 0.0317(18) Uani 1 1 d . U . C 3
H28A H 0.8826 -0.4208 0.1309 0.038 Uiso 1 1 calc R U . C 3
H28B H 0.7762 -0.3990 0.1631 0.038 Uiso 1 1 calc R U . C 3
C29A C 0.8697(7) -0.3725(6) 0.2267(5) 0.042(2) Uani 1 1 d . U . C 3
H29A H 0.9026 -0.4396 0.2482 0.063 Uiso 1 1 calc R U . C 3
H29B H 0.8142 -0.3297 0.2540 0.063 Uiso 1 1 calc R U . C 3
H29C H 0.9191 -0.3473 0.2213 0.063 Uiso 1 1 calc R U . C 3
C30A C 0.7376(5) -0.1338(5) 0.0494(4) 0.0234(15) Uani 1 1 d . U . C 3
C31A C 0.7495(6) -0.0701(5) 0.0002(4) 0.0244(15) Uani 1 1 d . U . C 3
H31A H 0.8115 -0.0941 -0.0227 0.029 Uiso 1 1 calc R U . C 3
C32A C 0.8169(6) -0.2356(5) 0.0681(4) 0.0287(17) Uani 1 1 d . U . C 3
C33A C 0.6079(6) -0.2044(5) 0.1768(4) 0.0214(14) Uani 1 1 d . U . C 3
H33A H 0.6299 -0.2662 0.2017 0.026 Uiso 1 1 calc R U . C 3
C35A C 0.3120(6) 0.1759(5) 0.1208(4) 0.0237(15) Uani 1 1 d . U . C 3
C36A C 0.9948(7) -0.2455(7) 0.0650(6) 0.048(2) Uani 1 1 d . U . C 3
H36A H 1.0622 -0.2826 0.0467 0.072 Uiso 1 1 calc R U . C 3
H36B H 0.9991 -0.2555 0.1134 0.072 Uiso 1 1 calc R U . C 3
H36C H 0.9688 -0.1751 0.0515 0.072 Uiso 1 1 calc R U . C 3
C34A C 0.9215(6) -0.2829(6) 0.0382(5) 0.0326(18) Uani 1 1 d . U . C 3
H34A H 0.9144 -0.2689 -0.0105 0.039 Uiso 1 1 calc R U . C 3
H34B H 0.9521 -0.3554 0.0478 0.039 Uiso 1 1 calc R U . C 3
C3A C 0.7921(6) 0.0681(6) -0.1022(4) 0.0295(17) Uani 1 1 d . U . C 3
H3AA H 0.7785 0.1136 -0.1424 0.035 Uiso 1 1 calc R U . C 3
H3AB H 0.8208 -0.0001 -0.1160 0.035 Uiso 1 1 calc R U . C 3
N1A N 0.5800(5) 0.0739(4) 0.0111(3) 0.0225(13) Uani 1 1 d . . . C 3
C1B C 0.8085(7) 0.3076(7) -0.2139(6) 0.047(2) Uani 1 1 d . U . D 4
H1B H 0.8044 0.2906 -0.1683 0.057 Uiso 1 1 calc R U . D 4
C6B C 0.7732(7) 0.2708(8) -0.2647(6) 0.054(3) Uani 1 1 d . U . D 4
H6B H 0.7444 0.2287 -0.2509 0.065 Uiso 1 1 calc R U . D 4
C5B C 0.7772(7) 0.2912(7) -0.3331(6) 0.049(2) Uani 1 1 d . U . D 4
H5B H 0.7530 0.2643 -0.3649 0.059 Uiso 1 1 calc R U . D 4
C4B C 0.8213(9) 0.3567(8) -0.3516(7) 0.064(3) Uani 1 1 d . U . D 4
H4B H 0.8264 0.3733 -0.3972 0.076 Uiso 1 1 calc R U . D 4
C3B C 0.8569(9) 0.3963(8) -0.3031(7) 0.064(3) Uani 1 1 d . U . D 4
H3B H 0.8849 0.4392 -0.3160 0.076 Uiso 1 1 calc R U . D 4
C2B C 0.8498(8) 0.3708(8) -0.2357(7) 0.061(3) Uani 1 1 d . U . D 4
H2B H 0.8738 0.3973 -0.2035 0.073 Uiso 1 1 calc R U . D 4
loop_
_atom_site_aniso_label
_atom_site_aniso_U_11
_atom_site_aniso_U_22
_atom_site_aniso_U_33
_atom_site_aniso_U_23
_atom_site_aniso_U_13
_atom_site_aniso_U_12
Lu1 0.0316(7) 0.0192(6) 0.0170(6) 0.0048(4) -0.0036(5) -0.0136(5)
Lu2 0.058(3) 0.024(2) 0.039(3) 0.0039(19) 0.020(3) -0.010(2)
Lu3 0.0288(7) 0.0210(7) 0.0260(7) -0.0030(5) 0.0000(5) -0.0091(5)
Lu4 0.0268(6) 0.0089(5) 0.0302(7) 0.0008(4) 0.0039(5) -0.0023(4)
Lu5 0.147(16) 0.073(11) 0.22(2) -0.054(13) -0.043(15) -0.055(11)
Lu6 0.156(17) 0.127(15) 0.23(2) -0.075(15) -0.018(17) -0.061(13)
Lu7 0.206(19) 0.115(12) 0.24(2) -0.014(15) -0.030(18) 0.012(13)
Lu8 0.0220(7) 0.0075(6) 0.0428(9) -0.0008(6) -0.0050(6) 0.0006(5)
Lu9 0.0278(7) 0.0181(7) 0.0401(9) -0.0068(6) 0.0014(6) -0.0021(6)
Lu10 0.024(2) 0.040(3) 0.082(4) 0.022(3) -0.004(2) -0.013(2)
Lu11 0.0245(6) 0.0233(6) 0.0199(6) -0.0008(5) 0.0031(5) -0.0087(5)
Lu12 0.106(7) 0.092(7) 0.104(7) -0.019(6) 0.003(7) -0.008(6)
Lu13 0.138(8) 0.144(8) 0.172(9) 0.006(7) -0.007(7) 0.038(7)
C1E 0.056(6) 0.048(6) 0.048(6) 0.010(4) -0.007(5) -0.027(5)
C2E 0.103(9) 0.050(6) 0.071(7) 0.019(5) -0.055(7) -0.048(6)
C1 0.100(9) 0.069(7) 0.145(12) -0.031(8) 0.021(9) -0.058(7)
C2 0.058(6) 0.020(4) 0.098(8) -0.010(5) 0.020(6) -0.006(4)
C3 0.048(5) 0.029(4) 0.069(7) -0.018(4) 0.020(5) -0.005(4)
C4 0.065(6) 0.036(5) 0.071(7) -0.011(5) 0.002(6) -0.013(5)
C5 0.073(8) 0.057(7) 0.107(9) -0.031(7) -0.031(7) -0.006(6)
C6 0.117(10) 0.090(9) 0.080(8) -0.008(7) -0.033(8) -0.046(8)
C7 0.148(11) 0.074(8) 0.053(7) 0.005(6) -0.037(8) -0.052(8)
C8 0.098(8) 0.053(6) 0.058(7) 0.007(5) 0.002(7) -0.031(6)
C9 0.080(7) 0.047(6) 0.064(7) -0.003(5) 0.016(6) -0.024(5)
C10 0.062(6) 0.051(6) 0.059(6) 0.002(5) 0.024(5) -0.020(5)
C11 0.054(6) 0.055(6) 0.060(6) -0.006(5) 0.029(5) -0.024(5)
C12 0.047(5) 0.044(5) 0.054(6) -0.009(4) 0.022(5) -0.016(4)
C13 0.051(5) 0.041(5) 0.060(6) 0.004(4) 0.007(5) -0.012(4)
C14 0.048(6) 0.046(6) 0.087(8) 0.031(6) -0.001(6) -0.001(5)
C15 0.056(6) 0.021(5) 0.123(10) 0.018(6) 0.010(7) 0.000(4)
C16 0.080(8) 0.032(5) 0.118(10) 0.035(6) -0.009(7) -0.021(5)
C17 0.144(11) 0.026(5) 0.132(11) 0.032(6) -0.041(9) -0.046(6)
C18 0.133(12) 0.081(9) 0.163(13) 0.001(9) -0.037(11) -0.054(9)
C19 0.101(9) 0.088(8) 0.130(11) -0.037(8) -0.037(8) -0.062(7)
C20 0.103(8) 0.133(10) 0.055(7) -0.016(7) -0.023(7) -0.092(8)
C21 0.104(9) 0.102(9) 0.076(8) 0.011(7) -0.043(7) -0.078(7)
C22 0.078(8) 0.107(9) 0.088(9) -0.001(8) -0.044(7) -0.045(7)
C23 0.077(7) 0.078(7) 0.041(5) 0.018(5) -0.035(5) -0.045(6)
C24 0.090(8) 0.059(6) 0.041(6) 0.031(5) -0.032(6) -0.021(6)
C25 0.083(7) 0.057(6) 0.058(7) 0.018(5) 0.000(6) -0.036(6)
C26 0.075(7) 0.048(6) 0.074(7) 0.027(5) 0.012(6) -0.032(5)
C27 0.061(6) 0.052(6) 0.068(7) 0.016(5) 0.019(5) -0.034(5)
C28 0.073(7) 0.085(8) 0.109(9) -0.027(7) 0.057(7) -0.063(6)
C29 0.067(7) 0.099(8) 0.090(9) -0.034(7) 0.047(7) -0.056(6)
C30 0.067(7) 0.104(9) 0.124(11) -0.012(9) 0.009(8) -0.055(7)
C31 0.064(7) 0.070(7) 0.080(8) -0.018(6) -0.018(6) -0.021(6)
C32 0.102(9) 0.103(9) 0.070(8) -0.012(7) -0.059(7) -0.028(8)
C33 0.067(7) 0.130(10) 0.080(8) 0.078(8) -0.033(7) -0.024(7)
C34 0.093(9) 0.154(12) 0.074(9) 0.006(9) -0.056(8) -0.024(9)
C35 0.090(8) 0.120(10) 0.101(9) -0.007(8) -0.062(8) -0.059(8)
C36 0.062(7) 0.126(10) 0.142(11) -0.062(9) 0.003(8) -0.067(7)
C37 0.110(9) 0.124(10) 0.140(12) -0.003(9) -0.013(9) -0.107(8)
C38 0.112(10) 0.091(9) 0.160(12) -0.006(9) 0.021(10) -0.083(8)
C39 0.091(7) 0.050(5) 0.139(9) 0.037(6) -0.003(7) -0.054(5)
C40 0.081(6) 0.039(4) 0.095(7) 0.037(5) -0.005(5) -0.037(4)
C41 0.076(5) 0.030(4) 0.085(6) 0.037(4) -0.017(5) -0.023(4)
C42 0.073(6) 0.041(5) 0.073(6) 0.036(4) -0.034(5) -0.016(4)
C43 0.055(5) 0.052(5) 0.073(6) 0.033(5) -0.033(5) -0.012(4)
C44 0.062(5) 0.073(6) 0.088(6) 0.013(5) -0.045(5) -0.024(5)
C45 0.054(6) 0.079(7) 0.092(7) 0.006(6) -0.026(5) -0.033(5)
C46 0.120(10) 0.134(11) 0.142(12) 0.009(11) 0.019(10) -0.088(9)
C47 0.143(11) 0.115(10) 0.130(12) -0.030(9) 0.006(10) -0.100(9)
C48 0.182(13) 0.150(12) 0.115(11) -0.022(11) 0.024(11) -0.127(10)
C49 0.165(11) 0.098(8) 0.103(9) 0.019(7) -0.036(9) -0.115(8)
C50 0.166(12) 0.122(11) 0.149(13) 0.027(10) 0.000(12) -0.112(10)
C51 0.104(9) 0.047(6) 0.186(12) 0.016(7) -0.008(9) -0.060(7)
C52 0.173(12) 0.036(6) 0.087(9) 0.019(6) 0.051(9) -0.041(7)
C53 0.118(9) 0.058(6) 0.078(8) 0.049(6) -0.058(7) -0.051(7)
C54 0.091(8) 0.022(4) 0.135(10) 0.002(6) -0.011(8) -0.038(5)
C55 0.070(7) 0.016(4) 0.120(10) 0.015(5) -0.015(7) -0.011(4)
C56 0.065(7) 0.015(4) 0.107(9) 0.013(5) -0.020(7) -0.002(4)
C57 0.059(6) 0.041(6) 0.105(9) 0.024(6) -0.044(7) -0.008(5)
C58 0.048(6) 0.052(6) 0.076(7) 0.014(5) -0.008(6) -0.004(5)
C59 0.050(6) 0.051(6) 0.071(7) -0.012(5) 0.009(6) 0.002(5)
C60 0.055(6) 0.039(5) 0.078(8) -0.027(5) 0.003(6) 0.008(5)
C61 0.059(6) 0.013(4) 0.115(9) -0.019(5) -0.009(7) 0.003(4)
C62 0.088(8) 0.067(7) 0.076(8) -0.016(6) 0.035(7) -0.030(6)
C63 0.147(12) 0.158(13) 0.112(12) -0.022(11) 0.044(11) -0.061(11)
C64 0.198(15) 0.159(13) 0.160(14) 0.020(12) 0.046(13) -0.096(12)
C65 0.178(12) 0.130(11) 0.113(11) 0.015(10) 0.058(11) -0.075(10)
C66 0.153(13) 0.144(12) 0.142(13) 0.026(11) 0.017(11) -0.076(10)
C67 0.160(12) 0.080(9) 0.103(10) 0.052(8) 0.015(10) -0.012(9)
C68 0.180(13) 0.062(8) 0.071(8) 0.023(7) 0.009(10) -0.025(9)
C69 0.076(8) 0.071(8) 0.069(8) -0.004(6) 0.037(7) -0.005(6)
C70 0.132(11) 0.090(9) 0.064(8) 0.004(7) 0.042(9) -0.011(9)
C71 0.107(10) 0.068(8) 0.203(14) -0.061(9) -0.015(11) -0.046(8)
C72 0.085(9) 0.064(7) 0.172(12) -0.076(8) 0.007(9) -0.020(7)
C73 0.066(7) 0.082(8) 0.059(7) -0.028(6) 0.006(6) 0.005(6)
C74 0.074(8) 0.103(9) 0.049(7) 0.002(7) 0.030(7) 0.005(7)
C75 0.077(8) 0.072(7) 0.186(13) -0.062(8) -0.029(8) -0.044(6)
C76 0.093(6) 0.137(7) 0.077(6) -0.053(5) -0.034(5) -0.016(6)
C77 0.102(5) 0.138(6) 0.074(5) -0.045(4) -0.030(4) 0.002(5)
C78 0.096(6) 0.128(7) 0.076(6) -0.057(5) -0.032(5) 0.002(6)
C79 0.112(5) 0.142(5) 0.067(4) -0.014(4) -0.028(4) 0.017(5)
C80 0.117(6) 0.139(6) 0.060(5) 0.003(5) -0.014(5) 0.024(5)
C81 0.109(5) 0.139(6) 0.058(4) -0.001(5) -0.040(5) 0.022(5)
C82 0.132(6) 0.134(5) 0.058(4) 0.018(4) -0.009(5) 0.023(5)
C83 0.133(6) 0.130(6) 0.058(5) 0.018(5) -0.001(5) 0.023(6)
C84 0.128(6) 0.134(6) 0.055(4) 0.015(4) -0.006(5) 0.026(5)
C85 0.115(7) 0.128(7) 0.052(5) 0.022(5) -0.030(5) 0.021(6)
C86 0.118(5) 0.133(6) 0.051(4) 0.016(4) -0.028(4) 0.024(5)
Ni1A 0.0178(4) 0.0097(4) 0.0282(5) 0.0065(3) -0.0043(4) -0.0101(3)
C1A 0.020(3) 0.019(3) 0.031(4) 0.010(3) -0.006(3) -0.016(3)
N2A 0.020(3) 0.015(3) 0.025(3) 0.007(2) -0.003(2) -0.014(2)
C2A 0.023(3) 0.016(3) 0.033(4) 0.008(3) -0.002(3) -0.015(3)
N3A 0.016(3) 0.013(3) 0.031(3) 0.003(2) -0.005(2) -0.007(2)
C4A 0.026(4) 0.048(5) 0.052(6) 0.000(4) 0.006(4) -0.026(4)
N4A 0.018(3) 0.013(3) 0.030(3) 0.007(2) -0.002(2) -0.014(2)
C5A 0.028(3) 0.019(3) 0.028(4) 0.009(3) -0.009(3) -0.020(3)
C6A 0.028(4) 0.022(3) 0.040(4) 0.014(3) -0.007(3) -0.021(3)
C7A 0.054(5) 0.026(4) 0.054(6) 0.019(4) -0.023(5) -0.029(4)
C8A 0.027(3) 0.015(3) 0.029(4) 0.006(3) -0.009(3) -0.016(3)
C9A 0.029(4) 0.015(3) 0.028(4) 0.010(3) -0.012(3) -0.016(3)
C10A 0.021(3) 0.011(3) 0.035(4) 0.007(3) -0.010(3) -0.009(3)
C11A 0.026(3) 0.014(3) 0.036(4) 0.004(3) -0.001(3) -0.010(3)
C12A 0.024(4) 0.013(3) 0.049(5) 0.008(3) -0.008(4) -0.004(3)
C13A 0.045(5) 0.014(3) 0.060(6) 0.006(3) -0.006(4) -0.013(3)
C14A 0.022(3) 0.016(3) 0.046(5) 0.002(3) -0.001(3) -0.008(3)
C15A 0.030(4) 0.016(3) 0.058(6) 0.007(3) 0.004(4) -0.006(3)
C16A 0.048(5) 0.032(5) 0.060(6) -0.011(4) 0.015(5) -0.014(4)
C17A 0.025(3) 0.017(3) 0.033(4) 0.003(3) -0.001(3) -0.010(3)
C18A 0.026(3) 0.018(3) 0.026(4) 0.003(3) 0.002(3) -0.015(3)
C19A 0.028(4) 0.019(3) 0.028(4) 0.006(3) 0.001(3) -0.012(3)
C20A 0.041(5) 0.028(4) 0.037(5) 0.013(3) 0.015(4) -0.010(4)
C21A 0.060(6) 0.038(5) 0.032(5) 0.006(4) 0.006(5) -0.002(4)
C22A 0.030(4) 0.017(3) 0.029(4) 0.007(3) -0.002(3) -0.017(3)
C23A 0.037(4) 0.017(3) 0.036(4) 0.010(3) 0.005(4) -0.014(3)
C24A 0.046(5) 0.024(4) 0.035(5) 0.008(3) -0.004(4) -0.011(4)
C25A 0.024(3) 0.016(3) 0.027(4) 0.003(3) -0.002(3) -0.015(3)
C26A 0.022(3) 0.014(3) 0.034(4) 0.008(3) -0.006(3) -0.012(3)
C27A 0.023(3) 0.013(3) 0.042(4) 0.008(3) -0.007(3) -0.012(3)
C28A 0.027(4) 0.011(3) 0.052(5) 0.011(3) -0.006(4) -0.006(3)
C29A 0.036(5) 0.025(4) 0.059(6) 0.014(4) -0.016(4) -0.010(4)
C30A 0.019(3) 0.014(3) 0.040(4) 0.009(3) -0.006(3) -0.012(3)
C31A 0.023(3) 0.019(3) 0.037(4) 0.003(3) -0.002(3) -0.015(3)
C32A 0.019(3) 0.016(3) 0.048(5) 0.006(3) -0.005(3) -0.007(3)
C33A 0.028(3) 0.013(3) 0.028(4) 0.008(3) -0.006(3) -0.015(3)
C35A 0.024(3) 0.013(3) 0.034(4) 0.003(3) -0.004(3) -0.009(3)
C36A 0.026(4) 0.036(5) 0.082(8) 0.009(5) -0.008(5) -0.016(4)
C34A 0.026(4) 0.017(3) 0.053(5) 0.010(3) -0.002(4) -0.009(3)
C3A 0.028(4) 0.025(4) 0.041(5) 0.011(3) 0.001(3) -0.020(3)
N1A 0.022(3) 0.016(3) 0.035(3) 0.007(2) -0.008(3) -0.015(2)
C1B 0.024(4) 0.034(5) 0.077(7) 0.000(4) -0.004(4) -0.008(4)
C6B 0.032(5) 0.044(5) 0.079(7) -0.010(5) 0.002(5) -0.011(4)
C5B 0.037(5) 0.033(5) 0.061(6) -0.007(4) 0.016(5) -0.003(4)
C4B 0.049(6) 0.046(6) 0.079(8) 0.003(5) 0.006(6) -0.009(5)
C3B 0.046(6) 0.040(5) 0.095(9) 0.005(6) -0.008(6) -0.013(5)
C2B 0.040(5) 0.034(5) 0.092(8) -0.007(5) -0.016(6) -0.002(4)
loop_
_atom_type_symbol
_atom_type_description
_atom_type_scat_dispersion_real
_atom_type_scat_dispersion_imag
_atom_type_scat_source
C C 0.0033 0.0016 'International Tables Vol C Tables 4.2.6.8 and 6.1.1.4'
H H 0.0000 0.0000 'International Tables Vol C Tables 4.2.6.8 and 6.1.1.4'
N N 0.0061 0.0033 'International Tables Vol C Tables 4.2.6.8 and 6.1.1.4'
Ni Ni 0.3393 1.1124 'International Tables Vol C Tables 4.2.6.8 and 6.1.1.4'
Lu Lu -0.4720 5.8584 'International Tables Vol C Tables 4.2.6.8 and 6.1.1.4'
loop_
_geom_angle_atom_site_label_1
_geom_angle_atom_site_label_2
_geom_angle_atom_site_label_3
_geom_angle
Lu2 Lu1 Lu3 52.8(2)
Lu2 Lu1 Lu6 83.0(12)
Lu3 Lu1 Lu6 32.5(12)
Lu2 Lu1 C1E 57.5(4)
Lu3 Lu1 C1E 76.9(3)
Lu6 Lu1 C1E 82.2(14)
Lu2 Lu1 Lu4 55.7(2)
Lu3 Lu1 Lu4 18.99(7)
Lu6 Lu1 Lu4 28.8(11)
C1E Lu1 Lu4 61.3(3)
Lu2 Lu1 C2E 67.9(4)
Lu3 Lu1 C2E 64.0(3)
Lu6 Lu1 C2E 59.8(14)
C1E Lu1 C2E 24.5(3)
Lu4 Lu1 C2E 45.4(3)
Lu2 Lu1 Lu5 81.5(6)
Lu3 Lu1 Lu5 43.4(7)
Lu6 Lu1 Lu5 22.6(16)
C1E Lu1 Lu5 62.3(7)
Lu4 Lu1 Lu5 28.3(6)
C2E Lu1 Lu5 38.5(7)
Lu2 Lu1 Lu13 96.0(4)
Lu3 Lu1 Lu13 112.7(3)
Lu6 Lu1 Lu13 101.5(15)
C1E Lu1 Lu13 41.3(4)
Lu4 Lu1 Lu13 94.1(3)
C2E Lu1 Lu13 48.7(4)
Lu5 Lu1 Lu13 79.3(8)
Lu2 Lu1 Lu8 92.3(3)
Lu3 Lu1 Lu8 112.87(9)
Lu6 Lu1 Lu8 104.2(14)
C1E Lu1 Lu8 39.1(3)
Lu4 Lu1 Lu8 94.67(6)
C2E Lu1 Lu8 49.3(3)
Lu5 Lu1 Lu8 81.8(7)
Lu13 Lu1 Lu8 4.9(4)
Lu2 Lu1 Lu7 63.2(7)
Lu3 Lu1 Lu7 38.8(5)
Lu6 Lu1 Lu7 35.8(14)
C1E Lu1 Lu7 46.6(5)
Lu4 Lu1 Lu7 19.8(5)
C2E Lu1 Lu7 26.6(5)
Lu5 Lu1 Lu7 20.1(7)
Lu13 Lu1 Lu7 74.7(6)
Lu8 Lu1 Lu7 75.7(5)
Lu3 Lu2 Lu1 72.2(4)
Lu3 Lu2 Lu6 22.0(10)
Lu1 Lu2 Lu6 53.6(11)
Lu3 Lu2 C1E 97.9(5)
Lu1 Lu2 C1E 89.6(5)
Lu6 Lu2 C1E 85.9(12)
Lu3 Lu2 Lu4 33.45(16)
Lu1 Lu2 Lu4 96.6(3)
Lu6 Lu2 Lu4 44.0(11)
C1E Lu2 Lu4 75.4(4)
Lu3 Lu2 C2E 72.7(4)
Lu1 Lu2 C2E 85.1(4)
Lu6 Lu2 C2E 63.3(13)
C1E Lu2 C2E 25.4(4)
Lu4 Lu2 C2E 51.4(3)
Lu3 Lu2 Lu5 34.4(7)
Lu1 Lu2 Lu5 74.5(7)
Lu6 Lu2 Lu5 29.1(14)
C1E Lu2 Lu5 63.5(8)
Lu4 Lu2 Lu5 25.5(6)
C2E Lu2 Lu5 38.3(8)
Lu3 Lu2 Lu7 50.7(6)
Lu1 Lu2 Lu7 97.3(7)
Lu6 Lu2 Lu7 52.7(14)
C1E Lu2 Lu7 54.2(6)
Lu4 Lu2 Lu7 21.3(5)
C2E Lu2 Lu7 31.2(6)
Lu5 Lu2 Lu7 24.4(8)
Lu3 Lu2 Lu13 102.3(5)
Lu1 Lu2 Lu13 63.6(4)
Lu6 Lu2 Lu13 82.7(11)
C1E Lu2 Lu13 30.1(4)
Lu4 Lu2 Lu13 93.7(4)
C2E Lu2 Lu13 44.4(4)
Lu5 Lu2 Lu13 72.8(7)
Lu7 Lu2 Lu13 75.3(6)
Lu3 Lu2 Lu8 107.1(3)
Lu1 Lu2 Lu8 68.4(2)
Lu6 Lu2 Lu8 87.9(11)
C1E Lu2 Lu8 28.1(3)
Lu4 Lu2 Lu8 96.21(18)
C2E Lu2 Lu8 45.6(3)
Lu5 Lu2 Lu8 76.5(7)
Lu7 Lu2 Lu8 76.8(5)
Lu13 Lu2 Lu8 5.6(4)
Lu3 Lu2 Lu12 111.2(4)
Lu1 Lu2 Lu12 88.3(4)
Lu6 Lu2 Lu12 96.8(12)
C1E Lu2 Lu12 14.5(4)
Lu4 Lu2 Lu12 89.9(3)
C2E Lu2 Lu12 39.5(4)
Lu5 Lu2 Lu12 77.0(8)
Lu7 Lu2 Lu12 68.7(6)
Lu13 Lu2 Lu12 24.8(4)
Lu8 Lu2 Lu12 20.4(3)
Lu6 Lu3 Lu2 124(2)
Lu6 Lu3 Lu4 86(3)
Lu2 Lu3 Lu4 117.6(3)
Lu6 Lu3 Lu1 74(2)
Lu2 Lu3 Lu1 55.0(3)
Lu4 Lu3 Lu1 141.05(13)
Lu6 Lu3 Lu5 47(3)
Lu2 Lu3 Lu5 127.0(8)
Lu4 Lu3 Lu5 40.0(9)
Lu1 Lu3 Lu5 109.0(9)
Lu6 Lu3 C1E 90(2)
Lu2 Lu3 C1E 52.4(4)
Lu4 Lu3 C1E 79.1(3)
Lu1 Lu3 C1E 67.4(3)
Lu5 Lu3 C1E 74.6(8)
Lu6 Lu3 C2E 73(2)
Lu2 Lu3 C2E 79.4(4)
Lu4 Lu3 C2E 57.6(3)
Lu1 Lu3 C2E 84.2(3)
Lu5 Lu3 C2E 47.6(8)
C1E Lu3 C2E 27.2(3)
Lu6 Lu3 Lu7 76(3)
Lu2 Lu3 Lu7 109.3(7)
Lu4 Lu3 Lu7 19.3(6)
Lu1 Lu3 Lu7 121.8(6)
Lu5 Lu3 Lu7 29.9(10)
C1E Lu3 Lu7 63.0(6)
C2E Lu3 Lu7 39.0(6)
Lu6 Lu3 Lu13 69(2)
Lu2 Lu3 Lu13 60.5(5)
Lu4 Lu3 Lu13 93.9(3)
Lu1 Lu3 Lu13 47.7(3)
Lu5 Lu3 Lu13 72.8(9)
C1E Lu3 Lu13 26.3(4)
C2E Lu3 Lu13 36.5(4)
Lu7 Lu3 Lu13 74.9(6)
Lu3 Lu4 Lu5 100.8(17)
Lu3 Lu4 Lu7 143.0(9)
Lu5 Lu4 Lu7 57(2)
Lu3 Lu4 Lu6 31.4(12)
Lu5 Lu4 Lu6 70(2)
Lu7 Lu4 Lu6 121.2(18)
Lu3 Lu4 C2E 88.5(3)
Lu5 Lu4 C2E 61.8(11)
Lu7 Lu4 C2E 55.7(9)
Lu6 Lu4 C2E 79.6(12)
Lu3 Lu4 Lu2 28.91(17)
Lu5 Lu4 Lu2 111.7(14)
Lu7 Lu4 Lu2 126.3(10)
Lu6 Lu4 Lu2 53.5(10)
C2E Lu4 Lu2 72.4(4)
Lu3 Lu4 C1E 68.7(3)
Lu5 Lu4 C1E 83.8(10)
Lu7 Lu4 C1E 79.2(10)
Lu6 Lu4 C1E 72.1(10)
C2E Lu4 C1E 26.5(4)
Lu2 Lu4 C1E 47.2(3)
Lu3 Lu4 Lu1 19.96(7)
Lu5 Lu4 Lu1 87.3(16)
Lu7 Lu4 Lu1 123.0(9)
Lu6 Lu4 Lu1 26.8(9)
C2E Lu4 Lu1 69.1(3)
Lu2 Lu4 Lu1 27.63(18)
C1E Lu4 Lu1 52.1(2)
Lu7 Lu5 Lu4 65(2)
Lu7 Lu5 Lu6 119(3)
Lu4 Lu5 Lu6 59.2(18)
Lu7 Lu5 C2E 62.7(15)
Lu4 Lu5 C2E 77.2(10)
Lu6 Lu5 C2E 82.4(14)
Lu7 Lu5 Lu3 99(2)
Lu4 Lu5 Lu3 39.2(11)
Lu6 Lu5 Lu3 20.5(10)
C2E Lu5 Lu3 75.4(10)
Lu7 Lu5 C1E 72.6(15)
Lu4 Lu5 C1E 66.0(8)
Lu6 Lu5 C1E 64.2(11)
C2E Lu5 C1E 18.5(7)
Lu3 Lu5 C1E 57.2(6)
Lu7 Lu5 Lu1 112(2)
Lu4 Lu5 Lu1 64.4(14)
Lu6 Lu5 Lu1 19.2(10)
C2E Lu5 Lu1 64.5(10)
Lu3 Lu5 Lu1 27.6(5)
C1E Lu5 Lu1 47.1(5)
Lu7 Lu5 Lu2 90(2)
Lu4 Lu5 Lu2 42.8(10)
Lu6 Lu5 Lu2 30.9(9)
C2E Lu5 Lu2 56.8(9)
Lu3 Lu5 Lu2 18.6(2)
C1E Lu5 Lu2 38.6(5)
Lu1 Lu5 Lu2 24.0(3)
Lu7 Lu5 Lu10 79.2(19)
Lu4 Lu5 Lu10 111.8(11)
Lu6 Lu5 Lu10 99.6(14)
C2E Lu5 Lu10 34.6(9)
Lu3 Lu5 Lu10 101.9(8)
C1E Lu5 Lu10 48.1(5)
Lu1 Lu5 Lu10 80.6(6)
Lu2 Lu5 Lu10 84.4(6)
Lu7 Lu5 Lu11 56.0(16)
Lu4 Lu5 Lu11 93.0(11)
Lu6 Lu5 Lu11 103.7(12)
C2E Lu5 Lu11 22.1(9)
Lu3 Lu5 Lu11 97.4(6)
C1E Lu5 Lu11 40.5(5)
Lu1 Lu5 Lu11 85.2(5)
Lu2 Lu5 Lu11 78.8(5)
Lu10 Lu5 Lu11 24.3(2)
Lu7 Lu5 Lu13 91.9(16)
Lu4 Lu5 Lu13 96.0(11)
Lu6 Lu5 Lu13 72.1(13)
C2E Lu5 Lu13 30.1(8)
Lu3 Lu5 Lu13 75.8(8)
C1E Lu5 Lu13 31.1(5)
Lu1 Lu5 Lu13 53.1(5)
Lu2 Lu5 Lu13 59.7(6)
Lu10 Lu5 Lu13 27.5(4)
Lu11 Lu5 Lu13 39.2(4)
Lu3 Lu6 Lu1 73(2)
Lu3 Lu6 Lu4 62(2)
Lu1 Lu6 Lu4 124.4(17)
Lu3 Lu6 Lu5 112(3)
Lu1 Lu6 Lu5 138(2)
Lu4 Lu6 Lu5 50.8(16)
Lu3 Lu6 Lu2 33.9(13)
Lu1 Lu6 Lu2 43.4(8)
Lu4 Lu6 Lu2 82.5(12)
Lu5 Lu6 Lu2 120(2)
Lu3 Lu6 C2E 88(2)
Lu1 Lu6 C2E 88.1(13)
Lu4 Lu6 C2E 60.2(12)
Lu5 Lu6 C2E 52.2(14)
Lu2 Lu6 C2E 74.0(10)
Lu3 Lu6 C1E 71.8(18)
Lu1 Lu6 C1E 63.2(9)
Lu4 Lu6 C1E 72.3(11)
Lu5 Lu6 C1E 78.8(16)
Lu2 Lu6 C1E 49.3(7)
C2E Lu6 C1E 26.8(5)
Lu3 Lu6 Lu7 86(3)
Lu1 Lu6 Lu7 125.5(17)
Lu4 Lu6 Lu7 28.8(11)
Lu5 Lu6 Lu7 26.9(13)
Lu2 Lu6 Lu7 94.7(15)
C2E Lu6 Lu7 40.3(9)
C1E Lu6 Lu7 62.5(10)
Lu3 Lu6 Lu13 99.7(19)
Lu1 Lu6 Lu13 56.3(11)
Lu4 Lu6 Lu13 99.5(14)
Lu5 Lu6 Lu13 82.5(16)
Lu2 Lu6 Lu13 69.1(9)
C2E Lu6 Lu13 40.1(6)
C1E Lu6 Lu13 32.3(5)
Lu7 Lu6 Lu13 79.7(10)
Lu5 Lu7 Lu4 58(2)
Lu5 Lu7 C2E 73.0(16)
Lu4 Lu7 C2E 79.4(16)
Lu5 Lu7 Lu6 33.9(19)
Lu4 Lu7 Lu6 30.0(10)
C2E Lu7 Lu6 60.8(12)
Lu5 Lu7 C1E 78.3(16)
Lu4 Lu7 C1E 67.8(11)
C2E Lu7 C1E 17.2(8)
Lu6 Lu7 C1E 56.6(9)
Lu5 Lu7 Lu3 51(2)
Lu4 Lu7 Lu3 17.7(5)
C2E Lu7 Lu3 62.5(12)
Lu6 Lu7 Lu3 17.3(7)
C1E Lu7 Lu3 52.8(7)
Lu5 Lu7 Lu11 103.1(18)
Lu4 Lu7 Lu11 115.8(13)
C2E Lu7 Lu11 38.6(9)
Lu6 Lu7 Lu11 99.3(9)
C1E Lu7 Lu11 48.0(5)
Lu3 Lu7 Lu11 100.2(8)
Lu5 Lu7 Lu2 65(2)
Lu4 Lu7 Lu2 32.5(7)
C2E Lu7 Lu2 48.8(11)
Lu6 Lu7 Lu2 32.5(7)
C1E Lu7 Lu2 35.5(5)
Lu3 Lu7 Lu2 20.1(3)
Lu11 Lu7 Lu2 83.4(6)
Lu5 Lu7 Lu10 79.0(18)
Lu4 Lu7 Lu10 108.7(11)
C2E Lu7 Lu10 31.9(10)
Lu6 Lu7 Lu10 83.7(9)
C1E Lu7 Lu10 48.3(5)
Lu3 Lu7 Lu10 91.0(6)
Lu11 Lu7 Lu10 25.3(2)
Lu2 Lu7 Lu10 80.3(5)
Lu5 Lu7 Lu1 47.5(18)
Lu4 Lu7 Lu1 37.1(7)
C2E Lu7 Lu1 44.3(10)
Lu6 Lu7 Lu1 18.7(6)
C1E Lu7 Lu1 38.1(5)
Lu3 Lu7 Lu1 19.4(2)
Lu11 Lu7 Lu1 82.8(5)
Lu2 Lu7 Lu1 19.5(2)
Lu10 Lu7 Lu1 71.7(4)
Lu5 Lu7 Lu9 84.6(16)
Lu4 Lu7 Lu9 100.2(11)
C2E Lu7 Lu9 20.8(9)
Lu6 Lu7 Lu9 80.1(8)
C1E Lu7 Lu9 34.7(4)
Lu3 Lu7 Lu9 83.3(6)
Lu11 Lu7 Lu9 19.73(15)
Lu2 Lu7 Lu9 69.1(5)
Lu10 Lu7 Lu9 15.65(14)
Lu1 Lu7 Lu9 64.7(4)
Lu9 Lu8 Lu12 41.5(9)
Lu9 Lu8 Lu10 32.2(2)
Lu12 Lu8 Lu10 72.5(10)
Lu9 Lu8 C1E 79.6(3)
Lu12 Lu8 C1E 67.6(7)
Lu10 Lu8 C1E 82.5(3)
Lu9 Lu8 Lu11 18.27(9)
Lu12 Lu8 Lu11 36.4(9)
Lu10 Lu8 Lu11 38.54(19)
C1E Lu8 Lu11 61.4(3)
Lu9 Lu8 C2E 64.2(3)
Lu12 Lu8 C2E 70.0(7)
Lu10 Lu8 C2E 58.8(4)
C1E Lu8 C2E 24.9(4)
Lu11 Lu8 C2E 48.0(3)
Lu9 Lu8 Lu1 114.43(12)
Lu12 Lu8 Lu1 106.6(7)
Lu10 Lu8 Lu1 101.8(2)
C1E Lu8 Lu1 39.9(3)
Lu11 Lu8 Lu1 97.67(6)
C2E Lu8 Lu1 50.3(3)
Lu9 Lu8 Lu2 103.11(14)
Lu12 Lu8 Lu2 87.8(7)
Lu10 Lu8 Lu2 100.6(2)
C1E Lu8 Lu2 23.8(3)
Lu11 Lu8 Lu2 85.02(10)
C2E Lu8 Lu2 42.4(3)
Lu1 Lu8 Lu2 19.26(10)
Lu12 Lu9 Lu10 155.1(10)
Lu12 Lu9 Lu8 82.6(11)
Lu10 Lu9 Lu8 113.6(4)
Lu12 Lu9 Lu13 94.1(15)
Lu10 Lu9 Lu13 97.9(11)
Lu8 Lu9 Lu13 18.1(9)
Lu12 Lu9 Lu11 82.2(11)
Lu10 Lu9 Lu11 74.1(3)
Lu8 Lu9 Lu11 147.38(17)
Lu13 Lu9 Lu11 137.1(6)
Lu12 Lu9 C1E 66.7(10)
Lu10 Lu9 C1E 99.5(4)
Lu8 Lu9 C1E 71.5(3)
Lu13 Lu9 C1E 63.6(8)
Lu11 Lu9 C1E 76.0(3)
Lu12 Lu9 C2E 88.6(10)
Lu10 Lu9 C2E 73.1(4)
Lu8 Lu9 C2E 90.6(3)
Lu13 Lu9 C2E 76.9(7)
Lu11 Lu9 C2E 60.4(3)
C1E Lu9 C2E 27.9(4)
Lu12 Lu9 Lu7 93.8(11)
Lu10 Lu9 Lu7 64.5(7)
Lu8 Lu9 Lu7 105.0(6)
Lu13 Lu9 Lu7 90.4(8)
Lu11 Lu9 Lu7 47.7(5)
C1E Lu9 Lu7 41.1(7)
C2E Lu9 Lu7 14.8(6)
Lu9 Lu10 Lu11 63.7(3)
Lu9 Lu10 Lu13 45.7(7)
Lu11 Lu10 Lu13 99.2(7)
Lu9 Lu10 Lu8 34.2(2)
Lu11 Lu10 Lu8 93.0(3)
Lu13 Lu10 Lu8 12.9(6)
Lu9 Lu10 Lu12 11.4(5)
Lu11 Lu10 Lu12 53.0(5)
Lu13 Lu10 Lu12 51.8(8)
Lu8 Lu10 Lu12 42.0(5)
Lu9 Lu10 C2E 80.5(4)
Lu11 Lu10 C2E 61.8(3)
Lu13 Lu10 C2E 71.7(6)
Lu8 Lu10 C2E 78.3(3)
Lu12 Lu10 C2E 72.5(5)
Lu9 Lu10 C1E 57.4(3)
Lu11 Lu10 C1E 62.2(3)
Lu13 Lu10 C1E 50.5(6)
Lu8 Lu10 C1E 54.7(3)
Lu12 Lu10 C1E 51.2(5)
C2E Lu10 C1E 24.7(3)
Lu9 Lu10 Lu5 106.3(6)
Lu11 Lu10 Lu5 81.5(5)
Lu13 Lu10 Lu5 84.8(9)
Lu8 Lu10 Lu5 95.2(7)
Lu12 Lu10 Lu5 99.2(7)
C2E Lu10 Lu5 27.1(5)
C1E Lu10 Lu5 48.9(5)
Lu9 Lu10 Lu7 99.8(7)
Lu11 Lu10 Lu7 60.6(6)
Lu13 Lu10 Lu7 94.5(8)
Lu8 Lu10 Lu7 101.5(7)
Lu12 Lu10 Lu7 90.1(8)
C2E Lu10 Lu7 23.2(7)
C1E Lu10 Lu7 47.4(7)
Lu5 Lu10 Lu7 21.7(7)
Lu9 Lu11 Lu10 42.2(2)
Lu9 Lu11 Lu12 34.4(7)
Lu10 Lu11 Lu12 76.4(8)
Lu9 Lu11 C2E 83.1(3)
Lu10 Lu11 C2E 77.7(4)
Lu12 Lu11 C2E 85.9(7)
Lu9 Lu11 C1E 68.5(3)
Lu10 Lu11 C1E 83.3(3)
Lu12 Lu11 C1E 60.0(6)
C2E Lu11 C1E 28.2(4)
Lu9 Lu11 Lu8 14.34(8)
Lu10 Lu11 Lu8 48.4(2)
Lu12 Lu11 Lu8 30.4(7)
C2E Lu11 Lu8 70.7(3)
C1E Lu11 Lu8 54.3(3)
Lu9 Lu11 Lu13 20.3(4)
Lu10 Lu11 Lu13 44.2(6)
Lu12 Lu11 Lu13 38.6(8)
C2E Lu11 Lu13 62.8(5)
C1E Lu11 Lu13 49.7(5)
Lu8 Lu11 Lu13 9.3(4)
Lu9 Lu11 Lu7 112.6(6)
Lu10 Lu11 Lu7 94.1(7)
Lu12 Lu11 Lu7 115.4(9)
C2E Lu11 Lu7 31.0(7)
C1E Lu11 Lu7 55.5(7)
Lu8 Lu11 Lu7 101.3(6)
Lu13 Lu11 Lu7 92.9(7)
Lu9 Lu11 Lu5 92.9(6)
Lu10 Lu11 Lu5 74.2(5)
Lu12 Lu11 Lu5 103.4(9)
C2E Lu11 Lu5 19.5(7)
C1E Lu11 Lu5 47.6(7)
Lu8 Lu11 Lu5 83.1(6)
Lu13 Lu11 Lu5 74.1(7)
Lu7 Lu11 Lu5 21.0(7)
Lu9 Lu12 Lu8 55.8(10)
Lu9 Lu12 Lu11 63.3(11)
Lu8 Lu12 Lu11 113.2(14)
Lu9 Lu12 Lu13 52.3(12)
Lu8 Lu12 Lu13 11.9(6)
Lu11 Lu12 Lu13 104.0(14)
Lu9 Lu12 Lu10 13.5(6)
Lu8 Lu12 Lu10 65.5(9)
Lu11 Lu12 Lu10 50.6(7)
Lu13 Lu12 Lu10 59.6(11)
Lu9 Lu12 C1E 90.1(11)
Lu8 Lu12 C1E 76.0(8)
Lu11 Lu12 C1E 79.4(7)
Lu13 Lu12 C1E 66.0(8)
Lu10 Lu12 C1E 83.4(7)
Lu9 Lu12 C2E 70.4(10)
Lu8 Lu12 C2E 79.8(8)
Lu11 Lu12 C2E 55.4(6)
Lu13 Lu12 C2E 67.9(8)
Lu10 Lu12 C2E 60.7(6)
C1E Lu12 C2E 26.3(5)
Lu9 Lu12 Lu2 97.4(11)
Lu8 Lu12 Lu2 71.8(7)
Lu11 Lu12 Lu2 92.3(6)
Lu13 Lu12 Lu2 63.6(8)
Lu10 Lu12 Lu2 92.8(6)
C1E Lu12 Lu2 13.0(4)
C2E Lu12 Lu2 39.0(4)
Lu9 Lu13 Lu12 33.7(9)
Lu9 Lu13 Lu10 36.4(6)
Lu12 Lu13 Lu10 68.6(11)
Lu9 Lu13 C1E 82.4(8)
Lu12 Lu13 C1E 68.1(9)
Lu10 Lu13 C1E 87.9(7)
Lu9 Lu13 C2E 72.0(7)
Lu12 Lu13 C2E 73.8(8)
Lu10 Lu13 C2E 64.1(6)
C1E Lu13 C2E 27.5(4)
Lu9 Lu13 Lu11 22.6(4)
Lu12 Lu13 Lu11 37.4(8)
Lu10 Lu13 Lu11 36.7(4)
C1E Lu13 Lu11 61.6(5)
C2E Lu13 Lu11 49.5(5)
Lu9 Lu13 Lu1 126.5(8)
Lu12 Lu13 Lu1 112.0(10)
Lu10 Lu13 Lu1 115.3(7)
C1E Lu13 Lu1 45.7(5)
C2E Lu13 Lu1 55.9(5)
Lu11 Lu13 Lu1 104.1(5)
Lu9 Lu13 Lu2 109.7(8)
Lu12 Lu13 Lu2 91.6(10)
Lu10 Lu13 Lu2 109.9(6)
C1E Lu13 Lu2 27.3(4)
C2E Lu13 Lu2 45.8(5)
Lu11 Lu13 Lu2 88.6(4)
Lu1 Lu13 Lu2 20.39(16)
Lu9 Lu13 Lu6 109.7(9)
Lu12 Lu13 Lu6 106.9(9)
Lu10 Lu13 Lu6 93.1(8)
C1E Lu13 Lu6 40.0(6)
C2E Lu13 Lu6 37.9(7)
Lu11 Lu13 Lu6 87.4(7)
Lu1 Lu13 Lu6 22.3(6)
Lu2 Lu13 Lu6 28.2(5)
Lu9 Lu13 Lu5 87.6(10)
Lu12 Lu13 Lu5 95.7(9)
Lu10 Lu13 Lu5 67.7(8)
C1E Lu13 Lu5 42.7(6)
C2E Lu13 Lu5 22.4(6)
Lu11 Lu13 Lu5 66.7(7)
Lu1 Lu13 Lu5 47.6(7)
Lu2 Lu13 Lu5 47.5(6)
Lu6 Lu13 Lu5 25.4(8)
Lu9 Lu13 Lu3 107.4(7)
Lu12 Lu13 Lu3 98.6(8)
Lu10 Lu13 Lu3 97.6(6)
C1E Lu13 Lu3 30.5(4)
C2E Lu13 Lu3 36.3(4)
Lu11 Lu13 Lu3 84.9(4)
Lu1 Lu13 Lu3 19.55(10)
Lu2 Lu13 Lu3 17.25(12)
Lu6 Lu13 Lu3 11.6(4)
Lu5 Lu13 Lu3 31.4(6)
C2E C1E Lu2 108.6(12)
C2E C1E Lu13 94.5(12)
Lu2 C1E Lu13 122.6(8)
C2E C1E Lu12 98.0(13)
Lu2 C1E Lu12 152.5(8)
Lu13 C1E Lu12 45.9(7)
C2E C1E Lu8 99.5(10)
Lu2 C1E Lu8 128.2(5)
Lu13 C1E Lu8 10.4(6)
Lu12 C1E Lu8 36.4(5)
C2E C1E Lu1 99.9(10)
Lu2 C1E Lu1 32.9(3)
Lu13 C1E Lu1 93.0(7)
Lu12 C1E Lu1 136.2(7)
Lu8 C1E Lu1 101.0(4)
C2E C1E Lu9 80.3(11)
Lu2 C1E Lu9 156.6(6)
Lu13 C1E Lu9 33.9(6)
Lu12 C1E Lu9 23.2(6)
Lu8 C1E Lu9 28.95(16)
Lu1 C1E Lu9 125.7(5)
C2E C1E Lu3 79.1(11)
Lu2 C1E Lu3 29.7(2)
Lu13 C1E Lu3 123.2(7)
Lu12 C1E Lu3 168.7(8)
Lu8 C1E Lu3 132.9(5)
Lu1 C1E Lu3 35.66(19)
Lu9 C1E Lu3 146.8(5)
C2E C1E Lu11 60.6(10)
Lu2 C1E Lu11 166.3(6)
Lu13 C1E Lu11 68.7(7)
Lu12 C1E Lu11 40.6(6)
Lu8 C1E Lu11 64.4(3)
Lu1 C1E Lu11 150.5(5)
Lu9 C1E Lu11 35.44(18)
Lu3 C1E Lu11 139.3(5)
C2E C1E Lu6 68.0(13)
Lu2 C1E Lu6 44.8(9)
Lu13 C1E Lu6 107.7(10)
Lu12 C1E Lu6 150.8(10)
Lu8 C1E Lu6 118.0(8)
Lu1 C1E Lu6 34.6(9)
Lu9 C1E Lu6 128.2(9)
Lu3 C1E Lu6 18.6(7)
Lu11 C1E Lu6 127.6(10)
C2E C1E Lu4 53.9(10)
Lu2 C1E Lu4 57.4(3)
Lu13 C1E Lu4 134.9(8)
Lu12 C1E Lu4 150.1(7)
Lu8 C1E Lu4 144.6(5)
Lu1 C1E Lu4 66.6(3)
Lu9 C1E Lu4 134.0(5)
Lu3 C1E Lu4 32.13(16)
Lu11 C1E Lu4 109.5(4)
Lu6 C1E Lu4 35.6(8)
C2E C1E Lu7 26.8(12)
Lu2 C1E Lu7 90.3(9)
Lu13 C1E Lu7 121.2(12)
Lu12 C1E Lu7 117.2(11)
Lu8 C1E Lu7 126.2(10)
Lu1 C1E Lu7 95.3(9)
Lu9 C1E Lu7 104.2(9)
Lu3 C1E Lu7 64.2(8)
Lu11 C1E Lu7 76.5(9)
Lu6 C1E Lu7 60.8(12)
Lu4 C1E Lu7 33.0(8)
C1E C2E Lu7 136.0(19)
C1E C2E Lu5 130(2)
Lu7 C2E Lu5 44.3(14)
C1E C2E Lu4 99.7(12)
Lu7 C2E Lu4 44.9(14)
Lu5 C2E Lu4 41.0(11)
C1E C2E Lu11 91.3(10)
Lu7 C2E Lu11 110.4(14)
Lu5 C2E Lu11 138.4(15)
Lu4 C2E Lu11 150.5(6)
C1E C2E Lu10 96.7(11)
Lu7 C2E Lu10 124.9(16)
Lu5 C2E Lu10 118.3(12)
Lu4 C2E Lu10 159.3(6)
Lu11 C2E Lu10 40.4(4)
C1E C2E Lu6 85.2(13)
Lu7 C2E Lu6 78.9(15)
Lu5 C2E Lu6 45.4(15)
Lu4 C2E Lu6 40.3(8)
Lu11 C2E Lu6 169.2(10)
Lu10 C2E Lu6 129.8(9)
C1E C2E Lu9 71.8(10)
Lu7 C2E Lu9 144.4(15)
Lu5 C2E Lu9 142.8(11)
Lu4 C2E Lu9 170.6(7)
Lu11 C2E Lu9 36.6(3)
Lu10 C2E Lu9 26.3(2)
Lu6 C2E Lu9 132.9(9)
C1E C2E Lu3 73.7(10)
Lu7 C2E Lu3 78.5(14)
Lu5 C2E Lu3 57.1(14)
Lu4 C2E Lu3 33.9(3)
Lu11 C2E Lu3 164.1(5)
Lu10 C2E Lu3 144.7(5)
Lu6 C2E Lu3 19.2(7)
Lu9 C2E Lu3 137.0(5)
C1E C2E Lu13 58.0(10)
Lu7 C2E Lu13 165.7(16)
Lu5 C2E Lu13 127.5(13)
Lu4 C2E Lu13 140.7(8)
Lu11 C2E Lu13 67.6(6)
Lu10 C2E Lu13 44.1(6)
Lu6 C2E Lu13 102.0(10)
Lu9 C2E Lu13 31.1(5)
Lu3 C2E Lu13 107.1(7)
C1E C2E Lu2 46.0(9)
Lu7 C2E Lu2 100.0(15)
Lu5 C2E Lu2 84.9(15)
Lu4 C2E Lu2 56.2(4)
Lu11 C2E Lu2 136.5(5)
Lu10 C2E Lu2 133.9(5)
Lu6 C2E Lu2 42.7(8)
Lu9 C2E Lu2 114.6(4)
Lu3 C2E Lu2 27.9(2)
Lu13 C2E Lu2 89.8(7)
C1E C2E Lu12 55.7(10)
Lu7 C2E Lu12 146.3(14)
Lu5 C2E Lu12 163.3(12)
Lu4 C2E Lu12 153.4(8)
Lu11 C2E Lu12 38.8(5)
Lu10 C2E Lu12 46.8(6)
Lu6 C2E Lu12 133.5(10)
Lu9 C2E Lu12 21.0(5)
Lu3 C2E Lu12 128.4(7)
Lu13 C2E Lu12 38.3(6)
Lu2 C2E Lu12 101.5(6)
C18 C1 C5 121.8(18)
C18 C1 C2 121.6(19)
C5 C1 C2 104.8(12)
C3 C2 C15 120.4(12)
C3 C2 C1 108.0(12)
C15 C2 C1 119.1(13)
C12 C3 C2 119.2(11)
C12 C3 C4 118.1(10)
C2 C3 C4 110.6(11)
C9 C4 C3 122.2(12)
C9 C4 C5 118.8(11)
C3 C4 C5 108.9(12)
C6 C5 C4 125.9(15)
C6 C5 C1 120.4(18)
C4 C5 C1 106.7(11)
C7 C6 C5 117(2)
C7 C6 C20 115.3(18)
C5 C6 C20 122.1(17)
C6 C7 C23 123.7(19)
C6 C7 C8 121.3(17)
C23 C7 C8 109.2(12)
C25 C8 C9 122.6(13)
C25 C8 C7 105.6(13)
C9 C8 C7 122.1(11)
C4 C9 C8 113.6(12)
C4 C9 C10 118.9(12)
C8 C9 C10 117.5(11)
C11 C10 C9 117.7(10)
C11 C10 C27 111.4(12)
C9 C10 C27 119.4(11)
C29 C11 C10 107.9(11)
C29 C11 C12 120.8(12)
C10 C11 C12 122.9(11)
C3 C12 C13 119.9(10)
C3 C12 C11 119.1(11)
C13 C12 C11 112.9(10)
C31 C13 C14 113.2(12)
C31 C13 C12 119.6(10)
C14 C13 C12 118.5(11)
C15 C14 C13 121.4(13)
C15 C14 C33 120.3(13)
C13 C14 C33 109.8(12)
C14 C15 C2 119.9(11)
C14 C15 C16 115.5(15)
C2 C15 C16 114.2(14)
C17 C16 C15 117.3(15)
C17 C16 C53 112.3(15)
C15 C16 C53 117.5(14)
C18 C17 C16 128.7(18)
C18 C17 C51 109.3(19)
C16 C17 C51 104.6(15)
C17 C18 C1 114(2)
C17 C18 C19 122(3)
C1 C18 C19 120(2)
C18 C19 C49 115.0(19)
C18 C19 C20 122.4(19)
C49 C19 C20 114.5(15)
C21 C20 C6 126.9(15)
C21 C20 C19 116.3(14)
C6 C20 C19 112.7(15)
C47 C21 C20 122.7(16)
C47 C21 C22 123.1(18)
C20 C21 C22 112.0(16)
C44 C22 C23 110.9(16)
C44 C22 C21 121.0(18)
C23 C22 C21 123.2(16)
C22 C23 C24 126.3(14)
C22 C23 C7 118.3(13)
C24 C23 C7 105.1(13)
C42 C24 C23 118.9(14)
C42 C24 C25 122.3(13)
C23 C24 C25 110.7(12)
C26 C25 C8 120.5(13)
C26 C25 C24 118.6(12)
C8 C25 C24 109.3(12)
C25 C26 C27 117.8(11)
C25 C26 C40 118.7(12)
C27 C26 C40 114.4(13)
C10 C27 C28 110.4(11)
C10 C27 C26 122.0(12)
C28 C27 C26 117.7(12)
C38 C28 C27 126.1(16)
C38 C28 C29 121.5(16)
C27 C28 C29 102.6(11)
C30 C29 C11 126.0(14)
C30 C29 C28 117.4(14)
C11 C29 C28 107.6(12)
C29 C30 C31 114.9(16)
C29 C30 C36 117.2(18)
C31 C30 C36 122.4(18)
C30 C31 C13 125.1(14)
C30 C31 C32 118.8(14)
C13 C31 C32 110.2(12)
C34 C32 C33 130.4(19)
C34 C32 C31 123.0(18)
C33 C32 C31 102.3(11)
C85 C33 C14 125.7(18)
C85 C33 C32 124.7(17)
C14 C33 C32 104.4(11)
C32 C34 C35 112(2)
C32 C34 C81 109(2)
C35 C34 C81 132.2(18)
C76 C35 C36 111.7(18)
C76 C35 C34 109(2)
C36 C35 C34 130.6(18)
C35 C36 C37 107.1(16)
C35 C36 C30 112.7(18)
C37 C36 C30 129.7(19)
C36 C37 C75 103.5(17)
C36 C37 C38 110.7(19)
C75 C37 C38 134.3(19)
C39 C38 C28 118(2)
C39 C38 C37 113(2)
C28 C38 C37 123(2)
C38 C39 C40 124.5(18)
C38 C39 C54 122.9(18)
C40 C39 C54 104.3(12)
C41 C40 C26 120.8(13)
C41 C40 C39 110.0(14)
C26 C40 C39 119.1(12)
C40 C41 C55 110.1(13)
C40 C41 C42 121.0(13)
C55 C41 C42 119.1(13)
C24 C42 C43 113.7(12)
C24 C42 C41 118.4(13)
C43 C42 C41 119.7(13)
C44 C43 C42 121.9(13)
C44 C43 C57 109.3(12)
C42 C43 C57 119.4(12)
C22 C44 C43 126.4(16)
C22 C44 C45 116.7(14)
C43 C44 C45 109.0(12)
C46 C45 C58 129.3(17)
C46 C45 C44 121.3(17)
C58 C45 C44 100.5(11)
C63 C46 C45 116(2)
C63 C46 C47 121(2)
C45 C46 C47 121(2)
C48 C47 C21 116.9(19)
C48 C47 C46 122(2)
C21 C47 C46 116.2(18)
C47 C48 C49 133.3(18)
C47 C48 C64 115(2)
C49 C48 C64 108.9(13)
C48 C49 C50 103.0(12)
C48 C49 C19 116.0(14)
C50 C49 C19 135.4(17)
C48 C49 C51 135.9(13)
C50 C49 C51 38.1(11)
C19 C49 C51 97.3(14)
C51 C50 C66 133(2)
C51 C50 C49 96.9(19)
C66 C50 C49 110.9(12)
C50 C51 C52 106(2)
C50 C51 C17 142(2)
C52 C51 C17 104.3(13)
C50 C51 C49 45.0(11)
C52 C51 C49 136.5(12)
C17 C51 C49 96.7(13)
C68 C52 C53 113.4(16)
C68 C52 C51 126.5(17)
C53 C52 C51 108.1(13)
C85 C53 C52 112.3(15)
C85 C53 C16 126.7(14)
C52 C53 C16 109.9(12)
C55 C54 C71 130.6(17)
C55 C54 C39 102.7(14)
C71 C54 C39 115.5(14)
C54 C55 C41 112.8(13)
C54 C55 C56 116.2(14)
C41 C55 C56 121.9(12)
C57 C56 C61 119.1(14)
C57 C56 C55 118.0(14)
C61 C56 C55 113.7(13)
C56 C57 C58 120.8(14)
C56 C57 C43 121.5(14)
C58 C57 C43 107.6(12)
C57 C58 C59 120.3(13)
C57 C58 C45 113.3(13)
C59 C58 C45 115.7(12)
C60 C59 C62 121.9(13)
C60 C59 C58 118.1(13)
C62 C59 C58 110.8(13)
C59 C60 C73 118.0(14)
C59 C60 C61 119.1(12)
C73 C60 C61 112.0(13)
C56 C61 C60 122.4(12)
C56 C61 C72 121.6(15)
C60 C61 C72 106.3(14)
C59 C62 C69 118.9(15)
C59 C62 C63 124.7(16)
C69 C62 C63 105.5(15)
C46 C63 C62 120(2)
C46 C63 C65 126(2)
C62 C63 C65 101.2(18)
C66 C64 C48 108.0(13)
C66 C64 C65 88(2)
C48 C64 C65 128(2)
C70 C65 C64 144(2)
C70 C65 C63 117(2)
C64 C65 C63 95.4(19)
C70 C65 C66 101.8(17)
C64 C65 C66 42.6(11)
C63 C65 C66 132.0(17)
C64 C66 C50 100.3(13)
C64 C66 C67 142(2)
C50 C66 C67 113(2)
C64 C66 C65 49.6(12)
C50 C66 C65 144.8(14)
C67 C66 C65 92.8(17)
C68 C67 C66 124(2)
C68 C67 C83 116(3)
C66 C67 C83 111.6(18)
C68 C67 C82 47.0(13)
C66 C67 C82 145.0(17)
C83 C67 C82 69.5(17)
C67 C68 C52 116(2)
C67 C68 C82 92.4(18)
C52 C68 C82 132.7(17)
C74 C69 C62 120.3(14)
C74 C69 C70 119.3(16)
C62 C69 C70 111.3(16)
C65 C70 C83 119(2)
C65 C70 C69 104.7(16)
C83 C70 C69 119(2)
C72 C71 C54 110.0(19)
C72 C71 C75 115(2)
C54 C71 C75 127(2)
C71 C72 C61 127(2)
C71 C72 C78 114.9(19)
C61 C72 C78 108.4(15)
C60 C73 C74 122.6(16)
C60 C73 C78 111.4(16)
C74 C73 C78 118.7(14)
C69 C74 C73 117.6(14)
C69 C74 C80 120.1(19)
C73 C74 C80 110.7(19)
C76 C75 C37 110.4(15)
C76 C75 C71 133(2)
C37 C75 C71 106(2)
C35 C76 C75 107.2(18)
C35 C76 C77 130(2)
C75 C76 C77 114.2(16)
C78 C77 C79 129.7(17)
C78 C77 C76 107.8(17)
C79 C77 C76 112.3(16)
C77 C78 C73 117(2)
C77 C78 C72 133.2(17)
C73 C78 C72 101.5(13)
C80 C79 C81 134(3)
C80 C79 C77 97.2(17)
C81 C79 C77 126(2)
C79 C80 C74 142(2)
C79 C80 C84 93.7(18)
C74 C80 C84 113(2)
C79 C81 C34 110(2)
C79 C81 C86 132(2)
C34 C81 C86 113.4(16)
C86 C82 C68 109.2(16)
C86 C82 C84 121(2)
C68 C82 C84 127(2)
C86 C82 C67 143.2(16)
C68 C82 C67 40.7(11)
C84 C82 C67 86.4(17)
C86 C82 C83 154.6(17)
C68 C82 C83 86.8(16)
C84 C82 C83 40.0(15)
C67 C82 C83 46.5(11)
C84 C83 C70 126(3)
C84 C83 C67 113(2)
C70 C83 C67 113(2)
C84 C83 C82 48.7(14)
C70 C83 C82 154.5(17)
C67 C83 C82 64.0(14)
C83 C84 C82 91(2)
C83 C84 C80 121.8(19)
C82 C84 C80 138(2)
C33 C85 C86 110.6(19)
C33 C85 C53 113.3(16)
C86 C85 C53 128.6(18)
C82 C86 C85 120.1(17)
C82 C86 C81 100.5(16)
C85 C86 C81 130.7(17)
N1A Ni1A N4A 90.1(2)
N1A Ni1A N3A 178.8(2)
N4A Ni1A N3A 89.9(2)
N1A Ni1A N2A 90.2(2)
N4A Ni1A N2A 177.6(2)
N3A Ni1A N2A 89.7(2)
N1A C1A C31A 125.8(6)
N1A C1A C2A 111.8(6)
C31A C1A C2A 122.4(7)
C35A N2A C10A 104.1(6)
C35A N2A Ni1A 128.9(4)
C10A N2A Ni1A 127.0(5)
C5A C2A C1A 105.9(6)
C5A C2A C3A 128.6(6)
C1A C2A C3A 125.3(6)
C25A N3A C18A 104.6(6)
C25A N3A Ni1A 127.9(5)
C18A N3A Ni1A 127.4(4)
C30A N4A C26A 103.8(6)
C30A N4A Ni1A 127.9(4)
C26A N4A Ni1A 128.2(5)
C2A C5A C8A 106.9(6)
C2A C5A C6A 127.7(7)
C8A C5A C6A 125.3(7)
C5A C6A C7A 111.6(6)
C9A C8A N1A 124.4(7)
C9A C8A C5A 124.2(6)
N1A C8A C5A 111.4(6)
C10A C9A C8A 124.6(6)
C9A C10A N2A 125.5(6)
C9A C10A C11A 123.4(6)
N2A C10A C11A 111.0(6)
C14A C11A C10A 106.6(6)
C14A C11A C12A 128.6(7)
C10A C11A C12A 124.7(7)
C11A C12A C13A 112.8(6)
C11A C14A C35A 105.7(7)
C11A C14A C15A 129.5(7)
C35A C14A C15A 124.7(7)
C14A C15A C16A 113.2(8)
C18A C17A C35A 123.6(7)
C17A C18A N3A 125.9(6)
C17A C18A C19A 122.9(7)
N3A C18A C19A 111.2(6)
C22A C19A C18A 105.7(7)
C22A C19A C20A 130.2(7)
C18A C19A C20A 124.0(6)
C19A C20A C21A 114.5(8)
C19A C22A C25A 107.1(6)
C19A C22A C23A 127.8(7)
C25A C22A C23A 125.1(7)
C22A C23A C24A 113.1(6)
N3A C25A C33A 125.6(6)
N3A C25A C22A 111.5(6)
C33A C25A C22A 123.0(6)
C33A C26A N4A 124.0(6)
C33A C26A C27A 124.3(6)
N4A C26A C27A 111.7(6)
C32A C27A C26A 106.7(6)
C32A C27A C28A 128.6(7)
C26A C27A C28A 124.6(7)
C27A C28A C29A 113.2(7)
C31A C30A N4A 124.6(6)
C31A C30A C32A 123.7(7)
N4A C30A C32A 111.7(6)
C1A C31A C30A 123.9(7)
C27A C32A C30A 106.1(7)
C27A C32A C34A 129.4(7)
C30A C32A C34A 124.4(7)
C25A C33A C26A 124.4(6)
N2A C35A C17A 124.4(6)
N2A C35A C14A 112.5(6)
C17A C35A C14A 123.1(7)
C32A C34A C36A 113.5(8)
C2A C3A C4A 110.8(7)
C1A N1A C8A 104.1(6)
C1A N1A Ni1A 127.7(4)
C8A N1A Ni1A 128.2(5)
C2B C1B C6B 115.9(12)
C5B C6B C1B 125.9(11)
C6B C5B C4B 114.9(11)
C3B C4B C5B 121.6(13)
C2B C3B C4B 119.0(12)
C3B C2B C1B 122.7(12)
loop_
_geom_bond_atom_site_label_1
_geom_bond_atom_site_label_2
_geom_bond_distance
Lu1 Lu2 1.204(7)
Lu1 Lu3 1.4003(18)
Lu1 Lu6 1.41(3)
Lu1 C1E 2.218(11)
Lu1 Lu4 2.5790(17)
Lu1 C2E 2.648(14)
Lu1 Lu5 2.86(4)
Lu1 Lu13 3.096(18)
Lu1 Lu8 3.395(2)
Lu1 Lu7 3.58(3)
Lu2 Lu3 1.171(6)
Lu2 Lu6 1.74(3)
Lu2 C1E 1.871(13)
Lu2 Lu4 2.146(5)
Lu2 C2E 2.463(16)
Lu2 Lu5 2.93(3)
Lu2 Lu7 3.22(4)
Lu2 Lu13 3.437(18)
Lu2 Lu8 3.648(6)
Lu2 Lu12 3.836(17)
Lu3 Lu6 0.79(3)
Lu3 Lu4 1.3352(19)
Lu3 Lu5 2.08(4)
Lu3 C1E 2.339(12)
Lu3 C2E 2.392(16)
Lu3 Lu7 2.64(4)
Lu3 Lu13 3.859(16)
Lu4 Lu5 1.36(3)
Lu4 Lu7 1.45(4)
Lu4 Lu6 1.50(3)
Lu4 C2E 2.020(16)
Lu4 C1E 2.465(11)
Lu5 Lu7 1.33(4)
Lu5 Lu6 1.65(5)
Lu5 C2E 1.83(3)
Lu5 C1E 2.68(2)
Lu5 Lu10 3.53(3)
Lu5 Lu11 3.63(3)
Lu5 Lu13 3.80(3)
Lu6 C2E 2.29(4)
Lu6 C1E 2.46(3)
Lu6 Lu7 2.57(5)
Lu6 Lu13 3.65(3)
Lu7 C2E 1.70(2)
Lu7 C1E 2.61(3)
Lu7 Lu11 3.09(3)
Lu7 Lu10 3.53(3)
Lu7 Lu9 3.86(2)
Lu8 Lu9 1.114(3)
Lu8 Lu12 1.335(18)
Lu8 Lu10 1.816(6)
Lu8 C1E 2.182(11)
Lu8 Lu11 2.424(2)
Lu8 C2E 2.609(13)
Lu9 Lu12 0.89(2)
Lu9 Lu10 1.055(6)
Lu9 Lu13 1.274(19)
Lu9 Lu11 1.410(2)
Lu9 C1E 2.263(12)
Lu9 C2E 2.348(15)
Lu10 Lu11 1.512(6)
Lu10 Lu13 1.76(2)
Lu10 Lu12 1.90(2)
Lu10 C2E 2.278(17)
Lu10 C1E 2.650(12)
Lu11 Lu12 1.564(19)
Lu11 C2E 2.056(16)
Lu11 C1E 2.360(11)
Lu11 Lu13 2.499(18)
Lu12 Lu13 1.61(2)
Lu12 C1E 2.078(19)
Lu12 C2E 2.49(2)
Lu13 C1E 2.046(19)
Lu13 C2E 2.405(18)
C1E C2E 1.114(14)
C1 C18 1.36(3)
C1 C5 1.52(2)
C1 C2 1.54(2)
C2 C3 1.408(17)
C2 C15 1.42(2)
C3 C12 1.405(16)
C3 C4 1.444(16)
C4 C9 1.431(16)
C4 C5 1.47(2)
C5 C6 1.35(2)
C6 C7 1.32(2)
C6 C20 1.51(2)
C7 C23 1.50(2)
C7 C8 1.51(2)
C8 C25 1.428(17)
C8 C9 1.43(2)
C9 C10 1.434(19)
C10 C11 1.427(17)
C10 C27 1.440(16)
C11 C29 1.422(19)
C11 C12 1.434(15)
C12 C13 1.427(16)
C13 C31 1.417(17)
C13 C14 1.425(17)
C14 C15 1.35(2)
C14 C33 1.606(17)
C15 C16 1.468(19)
C16 C17 1.43(2)
C16 C53 1.49(2)
C17 C18 1.29(3)
C17 C51 1.64(3)
C18 C19 1.41(3)
C19 C49 1.45(2)
C19 C20 1.56(2)
C20 C21 1.417(19)
C21 C47 1.38(3)
C21 C22 1.50(2)
C22 C44 1.28(2)
C22 C23 1.40(2)
C23 C24 1.423(18)
C24 C42 1.362(19)
C24 C25 1.48(2)
C25 C26 1.397(19)
C26 C27 1.454(17)
C26 C40 1.46(2)
C27 C28 1.44(2)
C28 C38 1.32(2)
C28 C29 1.624(16)
C29 C30 1.28(2)
C30 C31 1.36(2)
C30 C36 1.47(2)
C31 C32 1.633(16)
C32 C34 1.28(3)
C32 C33 1.63(2)
C33 C85 1.24(2)
C34 C35 1.54(3)
C34 C81 1.56(3)
C35 C76 1.32(2)
C35 C36 1.41(3)
C36 C37 1.42(3)
C37 C75 1.45(3)
C37 C38 1.48(3)
C38 C39 1.29(2)
C39 C40 1.45(2)
C39 C54 1.63(2)
C40 C41 1.386(19)
C41 C55 1.42(2)
C41 C42 1.441(18)
C42 C43 1.416(19)
C43 C44 1.402(19)
C43 C57 1.47(2)
C44 C45 1.621(16)
C45 C46 1.30(2)
C45 C58 1.464(19)
C46 C63 1.25(3)
C46 C47 1.49(3)
C47 C48 1.22(3)
C48 C49 1.362(17)
C48 C64 1.382(17)
C49 C50 1.407(16)
C49 C51 1.98(3)
C50 C51 1.23(3)
C50 C66 1.401(17)
C51 C52 1.56(3)
C52 C68 1.372(17)
C52 C53 1.430(17)
C53 C85 1.414(18)
C54 C55 1.395(19)
C54 C71 1.39(3)
C55 C56 1.46(2)
C56 C57 1.379(18)
C56 C61 1.39(2)
C57 C58 1.44(2)
C58 C59 1.444(18)
C59 C60 1.407(19)
C59 C62 1.43(2)
C60 C73 1.424(18)
C60 C61 1.44(2)
C61 C72 1.47(2)
C62 C69 1.45(2)
C62 C63 1.49(3)
C63 C65 1.59(2)
C64 C66 1.378(18)
C64 C65 1.551(19)
C65 C70 1.25(3)
C65 C66 2.03(3)
C66 C67 1.47(3)
C67 C68 1.24(3)
C67 C83 1.53(3)
C67 C82 1.90(4)
C68 C82 1.391(19)
C69 C74 1.43(2)
C69 C70 1.52(2)
C70 C83 1.32(3)
C71 C72 1.27(3)
C71 C75 1.50(3)
C72 C78 1.613(18)
C73 C74 1.45(2)
C73 C78 1.47(3)
C74 C80 1.45(2)
C75 C76 1.38(3)
C76 C77 1.610(17)
C77 C78 1.37(2)
C77 C79 1.578(17)
C79 C80 1.29(3)
C79 C81 1.41(2)
C80 C84 1.61(4)
C81 C86 1.617(17)
C82 C86 1.361(18)
C82 C84 1.49(3)
C82 C83 1.98(3)
C83 C84 1.27(4)
C85 C86 1.370(17)
Ni1A N1A 1.957(6)
Ni1A N4A 1.959(6)
Ni1A N3A 1.960(6)
Ni1A N2A 1.964(6)
C1A N1A 1.366(10)
C1A C31A 1.374(10)
C1A C2A 1.443(9)
N2A C35A 1.357(10)
N2A C10A 1.387(8)
C2A C5A 1.356(10)
C2A C3A 1.507(11)
N3A C25A 1.367(8)
N3A C18A 1.378(10)
C4A C3A 1.541(11)
N4A C30A 1.381(10)
N4A C26A 1.386(8)
C5A C8A 1.429(10)
C5A C6A 1.507(9)
C6A C7A 1.521(11)
C8A C9A 1.374(11)
C8A N1A 1.382(8)
C9A C10A 1.367(11)
C10A C11A 1.444(10)
C11A C14A 1.358(11)
C11A C12A 1.501(9)
C12A C13A 1.529(11)
C14A C35A 1.445(10)
C14A C15A 1.497(12)
C15A C16A 1.523(14)
C17A C18A 1.369(10)
C17A C35A 1.398(10)
C18A C19A 1.454(9)
C19A C22A 1.356(11)
C19A C20A 1.479(12)
C20A C21A 1.508(14)
C22A C25A 1.438(10)
C22A C23A 1.504(9)
C23A C24A 1.527(12)
C25A C33A 1.369(10)
C26A C33A 1.383(11)
C26A C27A 1.439(10)
C27A C32A 1.360(11)
C27A C28A 1.498(9)
C28A C29A 1.532(13)
C30A C31A 1.379(10)
C30A C32A 1.451(9)
C32A C34A 1.489(11)
C36A C34A 1.538(12)
C1B C2B 1.381(16)
C1B C6B 1.398(15)
C6B C5B 1.377(16)
C5B C4B 1.427(16)
C4B C3B 1.395(18)
C3B C2B 1.379(18)
